=
 OpenBabel10222421253D

 40 45  0  0  1  0  0  0  0  0999 V2000
  187.3580  176.0630  136.6480 C   0  0  0  0  0  0  0  0  0  0  0  0
  185.3770  176.8390  135.3950 C   0  0  2  0  0  3  0  0  0  0  0  0
  186.2310  174.8160  134.8130 N   0  0  0  0  0  2  0  0  0  0  0  0
  184.9780  174.8100  134.5940 N   0  0  0  0  0  0  0  0  0  0  0  0
  186.6680  176.1190  135.2970 C   0  0  2  0  0  3  0  0  0  0  0  0
  185.2180  177.9460  136.3250 C   0  0  0  0  0  3  0  0  0  0  0  0
  186.0580  178.0280  137.3170 N   0  0  0  0  0  0  0  0  0  0  0  0
  187.0880  177.0370  137.5660 C   0  0  0  0  0  0  0  0  0  0  0  0
  184.4040  176.0540  134.9760 C   0  0  0  0  0  3  0  0  0  0  0  0
  190.3310  177.5430  139.6380 C   0  0  0  0  0  2  0  0  0  0  0  0
  187.8990  177.1650  138.8240 C   0  0  2  0  0  3  0  0  0  0  0  0
  187.9450  178.5150  141.0240 C   0  0  0  0  0  2  0  0  0  0  0  0
  189.1630  179.2240  138.2740 N   0  0  0  0  0  1  0  0  0  0  0  0
  187.0890  177.8120  139.9650 C   0  0  0  0  0  2  0  0  0  0  0  0
  189.2810  177.7950  138.5400 C   0  0  1  0  0  3  0  0  0  0  0  0
  189.8220  176.7530  140.8510 C   0  0  0  0  0  2  0  0  0  0  0  0
  188.8740  177.5580  141.7610 C   0  0  1  0  0  3  0  0  0  0  0  0
  189.0610  177.9280  144.2920 C   0  0  0  0  0  0  0  0  0  0  0  0
  187.2840  177.5060  145.9720 C   0  0  0  0  0  2  0  0  0  0  0  0
  187.7420  177.8350  144.5850 C   0  0  0  0  0  0  0  0  0  0  0  0
  188.3050  176.6460  146.7090 C   0  0  0  0  0  2  0  0  0  0  0  0
  191.0370  178.1300  142.7940 N   0  0  0  0  0  2  0  0  0  0  0  0
  190.0590  177.8130  145.3920 C   0  0  0  0  0  0  0  0  0  0  0  0
  186.6830  178.2370  143.6070 C   0  0  0  0  0  1  0  0  0  0  0  0
  191.3110  178.2300  145.1990 C   0  0  0  0  0  3  0  0  0  0  0  0
  191.7110  178.8260  143.8800 C   0  0  0  0  0  2  0  0  0  0  0  0
  189.5850  178.3070  142.8970 C   0  0  1  0  0  3  0  0  0  0  0  0
  189.6430  177.3740  146.7650 C   0  0  0  0  0  2  0  0  0  0  0  0
  190.8320  173.5150  137.3530 O   0  0  0  0  0  0  0  0  0  0  0  0
  190.8960  174.5190  136.5910 C   0  0  0  0  0  0  0  0  0  0  0  0
  188.4370  175.0660  136.8380 C   0  0  0  0  0  0  0  0  0  0  0  0
  189.7670  175.3790  136.4170 N   0  0  0  0  0  2  0  0  0  0  0  0
  188.1710  173.9230  137.2990 O   0  0  0  0  0  0  0  0  0  0  0  0
  192.1570  174.8030  135.8590 C   0  0  0  0  0  2  0  0  0  0  0  0
  195.5000  175.2550  137.1260 N   0  0  0  0  0  2  0  0  0  0  0  0
  195.1020  175.3450  135.7240 C   0  0  0  0  0  2  0  0  0  0  0  0
  192.7990  175.9980  136.3980 N   0  0  0  0  0  0  0  0  0  0  0  0
  193.2150  175.7720  137.7950 C   0  0  0  0  0  2  0  0  0  0  0  0
  193.9550  176.3440  135.5630 C   0  0  0  0  0  2  0  0  0  0  0  0
  194.3670  174.7670  137.8940 C   0  0  0  0  0  2  0  0  0  0  0  0
  1 31  1  0  0  0  0
  1  8  2  0  0  0  0
  2  9  1  1  0  0  0
  2  6  1  0  0  0  0
  4  3  1  0  0  0  0
  4  9  2  0  0  0  0
  5  3  1  1  0  0  0
  5  2  1  0  0  0  0
  5  1  1  0  0  0  0
  6  7  2  0  0  0  0
  7  8  1  0  0  0  0
 10 16  1  0  0  0  0
 11  8  1  6  0  0  0
 11 14  1  0  0  0  0
 12 17  1  0  0  0  0
 14 12  1  0  0  0  0
 15 13  1  1  0  0  0
 15 11  1  0  0  0  0
 15 10  1  0  0  0  0
 17 16  1  6  0  0  0
 17 27  1  0  0  0  0
 18 20  2  0  0  0  0
 18 23  1  0  0  0  0
 19 21  1  0  0  0  0
 20 19  1  0  0  0  0
 21 28  1  0  0  0  0
 22 26  1  0  0  0  0
 23 28  1  0  0  0  0
 24 20  1  0  0  0  0
 25 23  2  0  0  0  0
 26 25  1  0  0  0  0
 27 22  1  1  0  0  0
 27 18  1  0  0  0  0
 30 29  2  0  0  0  0
 31 33  2  0  0  0  0
 32 30  1  0  0  0  0
 32 31  1  0  0  0  0
 34 37  1  0  0  0  0
 34 30  1  0  0  0  0
 35 40  1  0  0  0  0
 36 35  1  0  0  0  0
 37 38  1  0  0  0  0
 38 40  1  0  0  0  0
 39 36  1  0  0  0  0
 39 37  1  0  0  0  0
M  END
>  <MODEL>
1

>  <REMARK>
 VINA RESULT:      -8.1      0.000      0.000
  Name = 
  5 active torsions:
  status: ('A' for Active; 'I' for Inactive)
    1  A    between atoms: C_1  and  C_20
    2  A    between atoms: N_13  and  C_29
    3  A    between atoms: C_15  and  C_34
    4  A    between atoms: C_19  and  C_29
    5  A    between atoms: C_36  and  C_39
                            x       y       z     vdW  Elec       q    Type
                         _______ _______ _______ _____ _____    ______ ____

>  <TORSDO>
F 5

$$$$
=
 OpenBabel10222421253D

 40 45  0  0  1  0  0  0  0  0999 V2000
  184.9420  178.5720  143.1710 C   0  0  0  0  0  0  0  0  0  0  0  0
  184.2140  178.2850  145.5120 C   0  0  2  0  0  3  0  0  0  0  0  0
  186.4240  178.6840  145.1670 N   0  0  0  0  0  2  0  0  0  0  0  0
  186.0930  179.1620  146.2980 N   0  0  0  0  0  0  0  0  0  0  0  0
  185.2950  178.0120  144.5370 C   0  0  2  0  0  3  0  0  0  0  0  0
  182.8230  178.3080  145.0860 C   0  0  0  0  0  3  0  0  0  0  0  0
  182.5820  178.4820  143.8190 N   0  0  0  0  0  0  0  0  0  0  0  0
  183.6260  178.7200  142.8400 C   0  0  0  0  0  0  0  0  0  0  0  0
  184.7050  178.9560  146.5350 C   0  0  0  0  0  3  0  0  0  0  0  0
  183.6870  178.4010  138.9720 C   0  0  0  0  0  2  0  0  0  0  0  0
  183.2110  179.0530  141.4350 C   0  0  2  0  0  3  0  0  0  0  0  0
  181.0800  179.2490  139.9900 C   0  0  0  0  0  2  0  0  0  0  0  0
  182.8140  176.7610  140.5830 N   0  0  0  0  0  1  0  0  0  0  0  0
  181.7310  179.4770  141.3590 C   0  0  0  0  0  2  0  0  0  0  0  0
  183.6450  177.9510  140.4440 C   0  0  1  0  0  3  0  0  0  0  0  0
  183.2470  179.8500  138.7250 C   0  0  0  0  0  2  0  0  0  0  0  0
  181.7310  180.0710  138.8850 C   0  0  1  0  0  3  0  0  0  0  0  0
  180.6640  181.2310  136.8600 C   0  0  0  0  0  0  0  0  0  0  0  0
  179.9380  183.6000  136.7400 C   0  0  0  0  0  2  0  0  0  0  0  0
  180.2290  182.3430  137.4990 C   0  0  0  0  0  0  0  0  0  0  0  0
  180.8040  183.7120  135.4900 C   0  0  0  0  0  2  0  0  0  0  0  0
  181.5940  178.9280  136.7050 N   0  0  0  0  0  2  0  0  0  0  0  0
  180.7430  181.2310  135.3730 C   0  0  0  0  0  0  0  0  0  0  0  0
  179.8360  182.3250  138.9430 C   0  0  0  0  0  1  0  0  0  0  0  0
  180.8360  180.0770  134.7120 C   0  0  0  0  0  3  0  0  0  0  0  0
  180.8480  178.7780  135.4650 C   0  0  0  0  0  2  0  0  0  0  0  0
  180.9340  179.9000  137.5830 C   0  0  1  0  0  3  0  0  0  0  0  0
  180.5680  182.5020  134.5940 C   0  0  0  0  0  2  0  0  0  0  0  0
  188.1580  178.5950  140.2180 O   0  0  0  0  0  0  0  0  0  0  0  0
  188.2250  177.8840  141.2580 C   0  0  0  0  0  0  0  0  0  0  0  0
  186.0360  178.7520  142.1880 C   0  0  0  0  0  0  0  0  0  0  0  0
  187.1380  177.8410  142.1860 N   0  0  0  0  0  2  0  0  0  0  0  0
  186.0330  179.7430  141.4090 O   0  0  0  0  0  0  0  0  0  0  0  0
  189.4530  177.0920  141.5250 C   0  0  0  0  0  2  0  0  0  0  0  0
  191.0700  176.7230  144.7250 N   0  0  0  0  0  2  0  0  0  0  0  0
  191.4880  176.0820  143.4800 C   0  0  0  0  0  2  0  0  0  0  0  0
  190.4670  177.9280  142.1630 N   0  0  0  0  0  0  0  0  0  0  0  0
  189.9590  178.4690  143.4380 C   0  0  0  0  0  2  0  0  0  0  0  0
  191.6790  177.1310  142.3840 C   0  0  0  0  0  2  0  0  0  0  0  0
  189.7920  177.3750  144.4970 C   0  0  0  0  0  2  0  0  0  0  0  0
  2  6  1  6  0  0  0
  2  9  1  0  0  0  0
  3  4  1  0  0  0  0
  4  9  2  0  0  0  0
  5  1  1  6  0  0  0
  5  3  1  0  0  0  0
  5  2  1  0  0  0  0
  7  6  2  0  0  0  0
  8  1  2  0  0  0  0
  8  7  1  0  0  0  0
 10 15  1  0  0  0  0
 11  8  1  1  0  0  0
 12 14  1  0  0  0  0
 14 11  1  0  0  0  0
 15 13  1  6  0  0  0
 15 11  1  0  0  0  0
 16 10  1  0  0  0  0
 17 16  1  6  0  0  0
 17 12  1  0  0  0  0
 18 20  2  0  0  0  0
 18 27  1  0  0  0  0
 19 20  1  0  0  0  0
 20 24  1  0  0  0  0
 21 19  1  0  0  0  0
 23 18  1  0  0  0  0
 25 23  2  0  0  0  0
 25 26  1  0  0  0  0
 26 22  1  0  0  0  0
 27 22  1  6  0  0  0
 27 17  1  0  0  0  0
 28 23  1  0  0  0  0
 28 21  1  0  0  0  0
 29 30  2  0  0  0  0
 30 34  1  0  0  0  0
 30 32  1  0  0  0  0
 31  1  1  0  0  0  0
 32 31  1  0  0  0  0
 33 31  2  0  0  0  0
 34 37  1  0  0  0  0
 36 35  1  0  0  0  0
 37 39  1  0  0  0  0
 37 38  1  0  0  0  0
 38 40  1  0  0  0  0
 39 36  1  0  0  0  0
 40 35  1  0  0  0  0
M  END
>  <MODEL>
2

>  <REMARK>
 VINA RESULT:      -7.5      4.674      9.650
  Name = 
  5 active torsions:
  status: ('A' for Active; 'I' for Inactive)
    1  A    between atoms: C_1  and  C_20
    2  A    between atoms: N_13  and  C_29
    3  A    between atoms: C_15  and  C_34
    4  A    between atoms: C_19  and  C_29
    5  A    between atoms: C_36  and  C_39
                            x       y       z     vdW  Elec       q    Type
                         _______ _______ _______ _____ _____    ______ ____

>  <TORSDO>
F 5

$$$$
=
 OpenBabel10222421253D

 40 45  0  0  1  0  0  0  0  0999 V2000
  188.7880  176.8510  137.6650 C   0  0  0  0  0  0  0  0  0  0  0  0
  190.3500  175.8650  136.0270 C   0  0  2  0  0  3  0  0  0  0  0  0
  188.9890  177.5230  135.2780 N   0  0  0  0  0  2  0  0  0  0  0  0
  190.0740  177.5520  134.6140 N   0  0  0  0  0  0  0  0  0  0  0  0
  188.9890  176.4160  136.2250 C   0  0  2  0  0  3  0  0  0  0  0  0
  191.0130  175.1320  137.0940 C   0  0  0  0  0  3  0  0  0  0  0  0
  190.5790  175.3100  138.3090 N   0  0  0  0  0  0  0  0  0  0  0  0
  189.5240  176.2470  138.6440 C   0  0  0  0  0  0  0  0  0  0  0  0
  190.9640  176.5450  135.0790 C   0  0  0  0  0  3  0  0  0  0  0  0
  190.2080  176.0910  142.4620 C   0  0  0  0  0  2  0  0  0  0  0  0
  189.2150  176.4700  140.0970 C   0  0  2  0  0  3  0  0  0  0  0  0
  188.5290  178.3650  141.7110 C   0  0  0  0  0  2  0  0  0  0  0  0
  191.3550  177.5010  140.8050 N   0  0  0  0  0  1  0  0  0  0  0  0
  188.3780  177.7460  140.3170 C   0  0  0  0  0  2  0  0  0  0  0  0
  190.4850  176.3420  140.9680 C   0  0  1  0  0  3  0  0  0  0  0  0
  188.7230  176.0580  142.8480 C   0  0  0  0  0  2  0  0  0  0  0  0
  188.0450  177.4410  142.8210 C   0  0  1  0  0  3  0  0  0  0  0  0
  186.7040  178.3730  144.7990 C   0  0  0  0  0  0  0  0  0  0  0  0
  184.3050  179.0040  144.7780 C   0  0  0  0  0  2  0  0  0  0  0  0
  185.6240  178.7940  144.1010 C   0  0  0  0  0  0  0  0  0  0  0  0
  184.1410  178.0800  145.9800 C   0  0  0  0  0  2  0  0  0  0  0  0
  189.0270  177.5250  145.0810 N   0  0  0  0  0  2  0  0  0  0  0  0
  186.6030  178.2290  146.2780 C   0  0  0  0  0  0  0  0  0  0  0  0
  185.7270  179.2500  142.6790 C   0  0  0  0  0  1  0  0  0  0  0  0
  187.7110  178.1510  147.0160 C   0  0  0  0  0  3  0  0  0  0  0  0
  189.0590  178.2210  146.3590 C   0  0  0  0  0  2  0  0  0  0  0  0
  188.0930  178.1850  144.1630 C   0  0  1  0  0  3  0  0  0  0  0  0
  185.2750  178.3220  146.9700 C   0  0  0  0  0  2  0  0  0  0  0  0
  185.2890  179.1880  138.8310 O   0  0  0  0  0  0  0  0  0  0  0  0
  185.1730  178.0500  138.3000 C   0  0  0  0  0  0  0  0  0  0  0  0
  187.6670  177.7720  137.9640 C   0  0  0  0  0  0  0  0  0  0  0  0
  186.3280  177.2700  137.9790 N   0  0  0  0  0  2  0  0  0  0  0  0
  187.8830  179.0020  138.1320 O   0  0  0  0  0  0  0  0  0  0  0  0
  183.8190  177.5190  137.9960 C   0  0  0  0  0  2  0  0  0  0  0  0
  180.6210  176.8700  139.5260 N   0  0  0  0  0  2  0  0  0  0  0  0
  181.0700  176.3490  138.2370 C   0  0  0  0  0  2  0  0  0  0  0  0
  183.4400  176.5050  138.9760 N   0  0  0  0  0  0  0  0  0  0  0  0
  182.9440  177.1440  140.2100 C   0  0  0  0  0  2  0  0  0  0  0  0
  182.4120  175.6330  138.3950 C   0  0  0  0  0  2  0  0  0  0  0  0
  181.5970  177.8400  139.9930 C   0  0  0  0  0  2  0  0  0  0  0  0
  1 31  1  0  0  0  0
  1  8  2  0  0  0  0
  2  9  1  1  0  0  0
  2  5  1  0  0  0  0
  2  6  1  0  0  0  0
  4  9  2  0  0  0  0
  4  3  1  0  0  0  0
  5  3  1  6  0  0  0
  5  1  1  0  0  0  0
  6  7  2  0  0  0  0
  7  8  1  0  0  0  0
 10 16  1  0  0  0  0
 11  8  1  6  0  0  0
 11 14  1  0  0  0  0
 11 15  1  0  0  0  0
 14 12  1  0  0  0  0
 15 13  1  1  0  0  0
 15 10  1  0  0  0  0
 17 12  1  6  0  0  0
 17 16  1  0  0  0  0
 17 27  1  0  0  0  0
 18 23  1  0  0  0  0
 19 21  1  0  0  0  0
 20 19  1  0  0  0  0
 20 18  2  0  0  0  0
 21 28  1  0  0  0  0
 22 26  1  0  0  0  0
 23 28  1  0  0  0  0
 23 25  2  0  0  0  0
 24 20  1  0  0  0  0
 26 25  1  0  0  0  0
 27 18  1  1  0  0  0
 27 22  1  0  0  0  0
 30 29  2  0  0  0  0
 31 32  1  0  0  0  0
 31 33  2  0  0  0  0
 32 30  1  0  0  0  0
 34 30  1  0  0  0  0
 34 37  1  0  0  0  0
 35 40  1  0  0  0  0
 36 39  1  0  0  0  0
 36 35  1  0  0  0  0
 37 38  1  0  0  0  0
 39 37  1  0  0  0  0
 40 38  1  0  0  0  0
M  END
>  <MODEL>
3

>  <REMARK>
 VINA RESULT:      -7.3      2.736      6.297
  Name = 
  5 active torsions:
  status: ('A' for Active; 'I' for Inactive)
    1  A    between atoms: C_1  and  C_20
    2  A    between atoms: N_13  and  C_29
    3  A    between atoms: C_15  and  C_34
    4  A    between atoms: C_19  and  C_29
    5  A    between atoms: C_36  and  C_39
                            x       y       z     vdW  Elec       q    Type
                         _______ _______ _______ _____ _____    ______ ____

>  <TORSDO>
F 5

$$$$
=
 OpenBabel10222421253D

 40 45  0  0  1  0  0  0  0  0999 V2000
  188.6090  176.8640  137.9460 C   0  0  0  0  0  0  0  0  0  0  0  0
  186.2950  177.0450  137.1050 C   0  0  2  0  0  3  0  0  0  0  0  0
  186.8720  178.4140  138.8240 N   0  0  0  0  0  2  0  0  0  0  0  0
  185.9830  178.9910  138.1210 N   0  0  0  0  0  0  0  0  0  0  0  0
  187.1520  177.0780  138.3130 C   0  0  2  0  0  3  0  0  0  0  0  0
  186.6300  176.1790  135.9850 C   0  0  0  0  0  3  0  0  0  0  0  0
  187.8590  175.7580  135.8940 N   0  0  0  0  0  0  0  0  0  0  0  0
  188.9060  176.1660  136.8100 C   0  0  0  0  0  0  0  0  0  0  0  0
  185.6190  178.1730  137.0150 C   0  0  0  0  0  3  0  0  0  0  0  0
  192.3150  174.4770  137.5800 C   0  0  0  0  0  2  0  0  0  0  0  0
  190.3130  175.7290  136.5120 C   0  0  2  0  0  3  0  0  0  0  0  0
  191.6470  174.4170  134.7330 C   0  0  0  0  0  2  0  0  0  0  0  0
  190.1530  173.3610  137.2240 N   0  0  0  0  0  1  0  0  0  0  0  0
  190.5080  175.4030  135.0190 C   0  0  0  0  0  2  0  0  0  0  0  0
  190.7860  174.6440  137.5050 C   0  0  1  0  0  3  0  0  0  0  0  0
  193.1120  175.3770  136.6270 C   0  0  0  0  0  2  0  0  0  0  0  0
  193.0100  174.9570  135.1490 C   0  0  1  0  0  3  0  0  0  0  0  0
  195.4920  174.3230  135.2710 C   0  0  0  0  0  0  0  0  0  0  0  0
  197.3730  175.8500  135.8050 C   0  0  0  0  0  2  0  0  0  0  0  0
  195.9980  175.5790  135.2770 C   0  0  0  0  0  0  0  0  0  0  0  0
  197.7640  174.8500  136.8880 C   0  0  0  0  0  2  0  0  0  0  0  0
  193.7160  172.6000  135.0050 N   0  0  0  0  0  2  0  0  0  0  0  0
  196.3600  173.1870  135.6890 C   0  0  0  0  0  0  0  0  0  0  0  0
  195.3050  176.7160  134.5940 C   0  0  0  0  0  1  0  0  0  0  0  0
  196.0170  171.9370  135.3770 C   0  0  0  0  0  3  0  0  0  0  0  0
  194.7620  171.6750  134.5940 C   0  0  0  0  0  2  0  0  0  0  0  0
  194.1060  173.9800  134.6990 C   0  0  1  0  0  3  0  0  0  0  0  0
  197.6960  173.4350  136.3260 C   0  0  0  0  0  2  0  0  0  0  0  0
  191.6180  177.5340  141.0370 O   0  0  0  0  0  0  0  0  0  0  0  0
  190.4730  177.0860  141.3200 C   0  0  0  0  0  0  0  0  0  0  0  0
  189.6410  177.2530  138.9340 C   0  0  0  0  0  0  0  0  0  0  0  0
  189.5190  176.8160  140.2900 N   0  0  0  0  0  2  0  0  0  0  0  0
  190.5810  178.0250  138.6020 O   0  0  0  0  0  0  0  0  0  0  0  0
  190.1100  176.8500  142.7410 C   0  0  0  0  0  2  0  0  0  0  0  0
  188.4110  177.3250  145.8840 N   0  0  0  0  0  2  0  0  0  0  0  0
  189.8590  177.3250  145.6900 C   0  0  0  0  0  2  0  0  0  0  0  0
  189.5640  178.0680  143.3350 N   0  0  0  0  0  0  0  0  0  0  0  0
  188.1100  177.9310  143.5430 C   0  0  0  0  0  2  0  0  0  0  0  0
  190.2470  178.3320  144.6060 C   0  0  0  0  0  2  0  0  0  0  0  0
  187.7820  176.9140  144.6410 C   0  0  0  0  0  2  0  0  0  0  0  0
  1 31  1  0  0  0  0
  2  6  1  6  0  0  0
  2  5  1  0  0  0  0
  4  3  1  0  0  0  0
  5  1  1  6  0  0  0
  5  3  1  0  0  0  0
  7  6  2  0  0  0  0
  7  8  1  0  0  0  0
  8  1  2  0  0  0  0
  9  2  1  0  0  0  0
  9  4  2  0  0  0  0
 11  8  1  6  0  0  0
 11 15  1  0  0  0  0
 12 14  1  0  0  0  0
 14 11  1  0  0  0  0
 15 13  1  6  0  0  0
 15 10  1  0  0  0  0
 16 10  1  0  0  0  0
 17 12  1  1  0  0  0
 17 16  1  0  0  0  0
 18 20  2  0  0  0  0
 18 23  1  0  0  0  0
 19 21  1  0  0  0  0
 20 19  1  0  0  0  0
 23 28  1  0  0  0  0
 24 20  1  0  0  0  0
 25 23  2  0  0  0  0
 26 22  1  0  0  0  0
 26 25  1  0  0  0  0
 27 22  1  1  0  0  0
 27 17  1  0  0  0  0
 27 18  1  0  0  0  0
 28 21  1  0  0  0  0
 29 30  2  0  0  0  0
 30 34  1  0  0  0  0
 31 32  1  0  0  0  0
 32 30  1  0  0  0  0
 33 31  2  0  0  0  0
 34 37  1  0  0  0  0
 36 35  1  0  0  0  0
 37 38  1  0  0  0  0
 37 39  1  0  0  0  0
 38 40  1  0  0  0  0
 39 36  1  0  0  0  0
 40 35  1  0  0  0  0
M  END
>  <MODEL>
4

>  <REMARK>
 VINA RESULT:      -7.3      2.253      8.446
  Name = 
  5 active torsions:
  status: ('A' for Active; 'I' for Inactive)
    1  A    between atoms: C_1  and  C_20
    2  A    between atoms: N_13  and  C_29
    3  A    between atoms: C_15  and  C_34
    4  A    between atoms: C_19  and  C_29
    5  A    between atoms: C_36  and  C_39
                            x       y       z     vdW  Elec       q    Type
                         _______ _______ _______ _____ _____    ______ ____

>  <TORSDO>
F 5

$$$$
=
 OpenBabel10222421253D

 40 45  0  0  1  0  0  0  0  0999 V2000
  187.2680  177.2790  144.5050 C   0  0  0  0  0  0  0  0  0  0  0  0
  187.3210  177.9020  146.8930 C   0  0  2  0  0  3  0  0  0  0  0  0
  189.2820  177.2270  145.9640 N   0  0  0  0  0  2  0  0  0  0  0  0
  189.5340  178.0560  146.8950 N   0  0  0  0  0  0  0  0  0  0  0  0
  187.8510  176.9690  145.8710 C   0  0  2  0  0  3  0  0  0  0  0  0
  185.9630  178.4110  146.7950 C   0  0  0  0  0  3  0  0  0  0  0  0
  185.3810  178.3600  145.6310 N   0  0  0  0  0  0  0  0  0  0  0  0
  186.0480  177.8880  144.4330 C   0  0  0  0  0  0  0  0  0  0  0  0
  188.3250  178.5250  147.4800 C   0  0  0  0  0  3  0  0  0  0  0  0
  182.9260  178.1900  142.1450 C   0  0  0  0  0  2  0  0  0  0  0  0
  185.3200  178.0170  143.1240 C   0  0  2  0  0  3  0  0  0  0  0  0
  185.2820  179.5050  141.0150 C   0  0  0  0  0  2  0  0  0  0  0  0
  183.7980  179.8860  143.6990 N   0  0  0  0  0  1  0  0  0  0  0  0
  186.1320  178.8250  142.0930 C   0  0  0  0  0  2  0  0  0  0  0  0
  183.8600  178.4750  143.3360 C   0  0  1  0  0  3  0  0  0  0  0  0
  183.6060  177.5460  140.9300 C   0  0  0  0  0  2  0  0  0  0  0  0
  184.5210  178.5090  140.1500 C   0  0  1  0  0  3  0  0  0  0  0  0
  183.0220  178.3250  138.0760 C   0  0  0  0  0  0  0  0  0  0  0  0
  182.7270  176.3150  136.6520 C   0  0  0  0  0  2  0  0  0  0  0  0
  183.5230  177.1620  137.5950 C   0  0  0  0  0  0  0  0  0  0  0  0
  181.2290  176.4770  136.8830 C   0  0  0  0  0  2  0  0  0  0  0  0
  182.9730  180.3300  139.5480 N   0  0  0  0  0  2  0  0  0  0  0  0
  181.7110  178.8170  137.5680 C   0  0  0  0  0  0  0  0  0  0  0  0
  184.9470  176.7600  137.8200 C   0  0  0  0  0  1  0  0  0  0  0  0
  181.3600  180.0890  137.7570 C   0  0  0  0  0  3  0  0  0  0  0  0
  182.2900  181.0290  138.4690 C   0  0  0  0  0  2  0  0  0  0  0  0
  183.8140  179.2560  139.0100 C   0  0  1  0  0  3  0  0  0  0  0  0
  180.8410  177.9420  136.7140 C   0  0  0  0  0  2  0  0  0  0  0  0
  189.5970  176.0870  141.0090 O   0  0  0  0  0  0  0  0  0  0  0  0
  189.0310  177.2130  141.0700 C   0  0  0  0  0  0  0  0  0  0  0  0
  187.9580  176.7340  143.3130 C   0  0  0  0  0  0  0  0  0  0  0  0
  188.3220  177.6130  142.2460 N   0  0  0  0  0  2  0  0  0  0  0  0
  188.1560  175.4930  143.2050 O   0  0  0  0  0  0  0  0  0  0  0  0
  189.0940  178.1280  139.9010 C   0  0  0  0  0  2  0  0  0  0  0  0
  189.4660  178.0680  136.3170 N   0  0  0  0  0  2  0  0  0  0  0  0
  189.9000  177.0190  137.2360 C   0  0  0  0  0  2  0  0  0  0  0  0
  188.1530  177.6990  138.8700 N   0  0  0  0  0  0  0  0  0  0  0  0
  187.8360  178.8200  137.9650 C   0  0  0  0  0  2  0  0  0  0  0  0
  188.7340  176.5780  138.1230 C   0  0  0  0  0  2  0  0  0  0  0  0
  189.0380  179.2150  137.1000 C   0  0  0  0  0  2  0  0  0  0  0  0
  2  6  1  6  0  0  0
  2  9  1  0  0  0  0
  3  4  1  0  0  0  0
  4  9  2  0  0  0  0
  5  1  1  6  0  0  0
  5  3  1  0  0  0  0
  5  2  1  0  0  0  0
  7  6  2  0  0  0  0
  8  1  2  0  0  0  0
  8  7  1  0  0  0  0
 10 15  1  0  0  0  0
 11 15  1  0  0  0  0
 11  8  1  1  0  0  0
 12 14  1  0  0  0  0
 14 11  1  0  0  0  0
 15 13  1  6  0  0  0
 16 10  1  0  0  0  0
 17 16  1  1  0  0  0
 17 12  1  0  0  0  0
 19 21  1  0  0  0  0
 19 20  1  0  0  0  0
 20 24  1  0  0  0  0
 20 18  2  0  0  0  0
 23 25  2  0  0  0  0
 23 18  1  0  0  0  0
 25 26  1  0  0  0  0
 26 22  1  0  0  0  0
 27 18  1  1  0  0  0
 27 22  1  0  0  0  0
 27 17  1  0  0  0  0
 28 21  1  0  0  0  0
 28 23  1  0  0  0  0
 29 30  2  0  0  0  0
 30 32  1  0  0  0  0
 31  1  1  0  0  0  0
 32 31  1  0  0  0  0
 33 31  2  0  0  0  0
 34 30  1  0  0  0  0
 35 40  1  0  0  0  0
 35 36  1  0  0  0  0
 36 39  1  0  0  0  0
 37 34  1  0  0  0  0
 38 37  1  0  0  0  0
 39 37  1  0  0  0  0
 40 38  1  0  0  0  0
M  END
>  <MODEL>
5

>  <REMARK>
 VINA RESULT:      -7.2      3.266      8.540
  Name = 
  5 active torsions:
  status: ('A' for Active; 'I' for Inactive)
    1  A    between atoms: C_1  and  C_20
    2  A    between atoms: N_13  and  C_29
    3  A    between atoms: C_15  and  C_34
    4  A    between atoms: C_19  and  C_29
    5  A    between atoms: C_36  and  C_39
                            x       y       z     vdW  Elec       q    Type
                         _______ _______ _______ _____ _____    ______ ____

>  <TORSDO>
F 5

$$$$
=
 OpenBabel10222421253D

 40 45  0  0  1  0  0  0  0  0999 V2000
  188.9660  175.7600  136.7980 C   0  0  0  0  0  0  0  0  0  0  0  0
  190.3240  173.9360  135.8370 C   0  0  2  0  0  3  0  0  0  0  0  0
  191.4010  175.4200  137.1800 N   0  0  0  0  0  2  0  0  0  0  0  0
  191.9770  174.2900  137.2740 N   0  0  0  0  0  0  0  0  0  0  0  0
  190.3110  175.3690  136.2140 C   0  0  2  0  0  3  0  0  0  0  0  0
  189.1170  173.2900  135.3470 C   0  0  0  0  0  3  0  0  0  0  0  0
  187.9760  173.8560  135.6180 N   0  0  0  0  0  0  0  0  0  0  0  0
  187.8580  175.0490  136.4340 C   0  0  0  0  0  0  0  0  0  0  0  0
  191.3090  173.3260  136.4680 C   0  0  0  0  0  3  0  0  0  0  0  0
  184.6090  177.1270  135.9930 C   0  0  0  0  0  2  0  0  0  0  0  0
  186.4780  175.5210  136.7970 C   0  0  2  0  0  3  0  0  0  0  0  0
  184.1390  174.5750  137.3430 C   0  0  0  0  0  2  0  0  0  0  0  0
  185.3760  175.2550  134.5940 N   0  0  0  0  0  1  0  0  0  0  0  0
  185.6570  174.4150  137.4860 C   0  0  0  0  0  2  0  0  0  0  0  0
  185.7920  176.2220  135.6030 C   0  0  1  0  0  3  0  0  0  0  0  0
  184.2760  177.1470  137.4910 C   0  0  0  0  0  2  0  0  0  0  0  0
  183.6180  175.8490  137.9960 C   0  0  1  0  0  3  0  0  0  0  0  0
  181.4700  177.1750  138.4570 C   0  0  0  0  0  0  0  0  0  0  0  0
  181.2110  179.0260  140.0870 C   0  0  0  0  0  2  0  0  0  0  0  0
  181.8720  177.7740  139.6030 C   0  0  0  0  0  0  0  0  0  0  0  0
  180.6650  179.8540  138.9290 C   0  0  0  0  0  2  0  0  0  0  0  0
  181.6220  175.5460  136.5820 N   0  0  0  0  0  2  0  0  0  0  0  0
  180.2820  177.7090  137.7350 C   0  0  0  0  0  0  0  0  0  0  0  0
  182.8500  177.1280  140.5340 C   0  0  0  0  0  1  0  0  0  0  0  0
  179.6690  176.9610  136.8180 C   0  0  0  0  0  3  0  0  0  0  0  0
  180.1680  175.5750  136.5220 C   0  0  0  0  0  2  0  0  0  0  0  0
  182.0840  175.8630  137.9370 C   0  0  1  0  0  3  0  0  0  0  0  0
  179.6700  179.0210  138.1290 C   0  0  0  0  0  2  0  0  0  0  0  0
  189.0420  179.2270  139.4500 O   0  0  0  0  0  0  0  0  0  0  0  0
  188.7290  178.0810  139.8750 C   0  0  0  0  0  0  0  0  0  0  0  0
  188.8850  177.0120  137.5850 C   0  0  0  0  0  0  0  0  0  0  0  0
  188.7670  176.9440  139.0080 N   0  0  0  0  0  2  0  0  0  0  0  0
  188.8460  178.1280  137.0000 O   0  0  0  0  0  0  0  0  0  0  0  0
  188.3060  177.9140  141.2890 C   0  0  0  0  0  2  0  0  0  0  0  0
  189.6840  177.8170  144.6180 N   0  0  0  0  0  2  0  0  0  0  0  0
  188.3320  177.4090  144.2440 C   0  0  0  0  0  2  0  0  0  0  0  0
  189.1080  176.8810  141.9400 N   0  0  0  0  0  0  0  0  0  0  0  0
  190.4240  177.4220  142.3300 C   0  0  0  0  0  2  0  0  0  0  0  0
  188.3850  176.3790  143.1140 C   0  0  0  0  0  2  0  0  0  0  0  0
  190.3100  178.4430  143.4660 C   0  0  0  0  0  2  0  0  0  0  0  0
  1 31  1  0  0  0  0
  2  6  1  1  0  0  0
  2  5  1  0  0  0  0
  2  9  1  0  0  0  0
  3  4  1  0  0  0  0
  5  1  1  1  0  0  0
  5  3  1  0  0  0  0
  6  7  2  0  0  0  0
  7  8  1  0  0  0  0
  8  1  2  0  0  0  0
  9  4  2  0  0  0  0
 10 16  1  0  0  0  0
 11  8  1  6  0  0  0
 11 14  1  0  0  0  0
 12 14  1  0  0  0  0
 15 13  1  6  0  0  0
 15 10  1  0  0  0  0
 15 11  1  0  0  0  0
 16 17  1  0  0  0  0
 17 12  1  6  0  0  0
 18 20  2  0  0  0  0
 20 19  1  0  0  0  0
 20 24  1  0  0  0  0
 21 19  1  0  0  0  0
 23 28  1  0  0  0  0
 23 18  1  0  0  0  0
 25 23  2  0  0  0  0
 26 22  1  0  0  0  0
 26 25  1  0  0  0  0
 27 22  1  6  0  0  0
 27 17  1  0  0  0  0
 27 18  1  0  0  0  0
 28 21  1  0  0  0  0
 29 30  2  0  0  0  0
 30 34  1  0  0  0  0
 31 32  1  0  0  0  0
 32 30  1  0  0  0  0
 33 31  2  0  0  0  0
 34 37  1  0  0  0  0
 36 35  1  0  0  0  0
 37 38  1  0  0  0  0
 37 39  1  0  0  0  0
 38 40  1  0  0  0  0
 39 36  1  0  0  0  0
 40 35  1  0  0  0  0
M  END
>  <MODEL>
6

>  <REMARK>
 VINA RESULT:      -7.1      3.139      7.864
  Name = 
  5 active torsions:
  status: ('A' for Active; 'I' for Inactive)
    1  A    between atoms: C_1  and  C_20
    2  A    between atoms: N_13  and  C_29
    3  A    between atoms: C_15  and  C_34
    4  A    between atoms: C_19  and  C_29
    5  A    between atoms: C_36  and  C_39
                            x       y       z     vdW  Elec       q    Type
                         _______ _______ _______ _____ _____    ______ ____

>  <TORSDO>
F 5

$$$$
=
 OpenBabel10222421253D

 40 45  0  0  1  0  0  0  0  0999 V2000
  182.4490  179.4080  139.6760 C   0  0  0  0  0  0  0  0  0  0  0  0
  179.9930  179.3490  139.4370 C   0  0  2  0  0  3  0  0  0  0  0  0
  181.2160  179.0320  137.5480 N   0  0  0  0  0  2  0  0  0  0  0  0
  180.1220  178.3930  137.4390 N   0  0  0  0  0  0  0  0  0  0  0  0
  181.2630  179.7720  138.8020 C   0  0  2  0  0  3  0  0  0  0  0  0
  179.8470  179.3680  140.8830 C   0  0  0  0  0  3  0  0  0  0  0  0
  180.9340  179.3730  141.6000 N   0  0  0  0  0  0  0  0  0  0  0  0
  182.2630  179.2920  141.0240 C   0  0  0  0  0  0  0  0  0  0  0  0
  179.3410  178.5450  138.6190 C   0  0  0  0  0  3  0  0  0  0  0  0
  184.1500  179.6960  144.3920 C   0  0  0  0  0  2  0  0  0  0  0  0
  183.4300  179.1570  141.9610 C   0  0  2  0  0  3  0  0  0  0  0  0
  185.0400  177.3590  142.8760 C   0  0  0  0  0  2  0  0  0  0  0  0
  182.2560  178.1990  143.9220 N   0  0  0  0  0  1  0  0  0  0  0  0
  184.2540  177.8880  141.6710 C   0  0  0  0  0  2  0  0  0  0  0  0
  182.9960  179.3550  143.4310 C   0  0  1  0  0  3  0  0  0  0  0  0
  185.5400  179.7360  143.7460 C   0  0  0  0  0  2  0  0  0  0  0  0
  186.0900  178.3450  143.3730 C   0  0  1  0  0  3  0  0  0  0  0  0
  188.4420  177.8580  144.2740 C   0  0  0  0  0  0  0  0  0  0  0  0
  190.5360  177.7910  142.9460 C   0  0  0  0  0  2  0  0  0  0  0  0
  189.0510  177.6560  143.0820 C   0  0  0  0  0  0  0  0  0  0  0  0
  191.1000  178.7950  143.9460 C   0  0  0  0  0  2  0  0  0  0  0  0
  186.4990  178.1680  145.7970 N   0  0  0  0  0  2  0  0  0  0  0  0
  189.2740  178.1050  145.4840 C   0  0  0  0  0  0  0  0  0  0  0  0
  188.3170  177.1080  141.8980 C   0  0  0  0  0  1  0  0  0  0  0  0
  188.7400  177.9700  146.6980 C   0  0  0  0  0  3  0  0  0  0  0  0
  187.3030  177.5570  146.8460 C   0  0  0  0  0  2  0  0  0  0  0  0
  186.9270  177.6870  144.4800 C   0  0  1  0  0  3  0  0  0  0  0  0
  190.7480  178.3580  145.3630 C   0  0  0  0  0  2  0  0  0  0  0  0
  186.2040  179.0440  137.4790 O   0  0  0  0  0  0  0  0  0  0  0  0
  185.5560  178.0260  137.8470 C   0  0  0  0  0  0  0  0  0  0  0  0
  183.7920  179.3850  139.0530 C   0  0  0  0  0  0  0  0  0  0  0  0
  184.2980  178.1610  138.5130 N   0  0  0  0  0  2  0  0  0  0  0  0
  184.5160  180.4170  139.0650 O   0  0  0  0  0  0  0  0  0  0  0  0
  186.1140  176.6720  137.5960 C   0  0  0  0  0  2  0  0  0  0  0  0
  186.7490  173.5510  135.9100 N   0  0  0  0  0  2  0  0  0  0  0  0
  186.1010  173.7000  137.2110 C   0  0  0  0  0  2  0  0  0  0  0  0
  185.3220  175.9770  136.5840 N   0  0  0  0  0  0  0  0  0  0  0  0
  186.0980  175.8280  135.3380 C   0  0  0  0  0  2  0  0  0  0  0  0
  184.9200  174.6660  137.1040 C   0  0  0  0  0  2  0  0  0  0  0  0
  187.2630  174.8470  135.5030 C   0  0  0  0  0  2  0  0  0  0  0  0
  1  8  2  0  0  0  0
  2  9  1  1  0  0  0
  2  6  1  0  0  0  0
  4  3  1  0  0  0  0
  4  9  2  0  0  0  0
  5  3  1  6  0  0  0
  5  2  1  0  0  0  0
  5  1  1  0  0  0  0
  6  7  2  0  0  0  0
  8  7  1  0  0  0  0
 11  8  1  6  0  0  0
 11 15  1  0  0  0  0
 14 11  1  0  0  0  0
 14 12  1  0  0  0  0
 15 13  1  1  0  0  0
 15 10  1  0  0  0  0
 16 10  1  0  0  0  0
 17 12  1  1  0  0  0
 17 16  1  0  0  0  0
 17 27  1  0  0  0  0
 18 23  1  0  0  0  0
 19 20  1  0  0  0  0
 19 21  1  0  0  0  0
 20 18  2  0  0  0  0
 21 28  1  0  0  0  0
 22 26  1  0  0  0  0
 23 25  2  0  0  0  0
 24 20  1  0  0  0  0
 25 26  1  0  0  0  0
 27 18  1  6  0  0  0
 27 22  1  0  0  0  0
 28 23  1  0  0  0  0
 29 30  2  0  0  0  0
 30 32  1  0  0  0  0
 31 33  2  0  0  0  0
 31  1  1  0  0  0  0
 32 31  1  0  0  0  0
 34 30  1  0  0  0  0
 35 36  1  0  0  0  0
 37 39  1  0  0  0  0
 37 34  1  0  0  0  0
 38 40  1  0  0  0  0
 38 37  1  0  0  0  0
 39 36  1  0  0  0  0
 40 35  1  0  0  0  0
M  END
>  <MODEL>
7

>  <REMARK>
 VINA RESULT:      -7.1      3.853      6.297
  Name = 
  5 active torsions:
  status: ('A' for Active; 'I' for Inactive)
    1  A    between atoms: C_1  and  C_20
    2  A    between atoms: N_13  and  C_29
    3  A    between atoms: C_15  and  C_34
    4  A    between atoms: C_19  and  C_29
    5  A    between atoms: C_36  and  C_39
                            x       y       z     vdW  Elec       q    Type
                         _______ _______ _______ _____ _____    ______ ____

>  <TORSDO>
F 5

$$$$
=
 OpenBabel10222421253D

 40 45  0  0  1  0  0  0  0  0999 V2000
  190.8350  175.8000  136.9730 C   0  0  0  0  0  0  0  0  0  0  0  0
  193.0840  174.8540  136.5960 C   0  0  2  0  0  3  0  0  0  0  0  0
  192.9380  176.6190  138.0200 N   0  0  0  0  0  2  0  0  0  0  0  0
  193.9130  175.8840  138.3770 N   0  0  0  0  0  0  0  0  0  0  0  0
  192.3130  176.1020  136.8090 C   0  0  2  0  0  3  0  0  0  0  0  0
  192.4980  173.7390  135.8700 C   0  0  0  0  0  3  0  0  0  0  0  0
  191.2000  173.6990  135.7700 N   0  0  0  0  0  0  0  0  0  0  0  0
  190.3270  174.6690  136.4010 C   0  0  0  0  0  0  0  0  0  0  0  0
  194.0150  174.7500  137.5240 C   0  0  0  0  0  3  0  0  0  0  0  0
  186.8990  174.2250  134.6330 C   0  0  0  0  0  2  0  0  0  0  0  0
  188.8440  174.4310  136.3340 C   0  0  2  0  0  3  0  0  0  0  0  0
  187.0690  172.7450  137.1500 C   0  0  0  0  0  2  0  0  0  0  0  0
  188.8030  172.6680  134.5940 N   0  0  0  0  0  1  0  0  0  0  0  0
  188.3610  173.5060  137.4670 C   0  0  0  0  0  2  0  0  0  0  0  0
  188.4020  174.0340  134.9080 C   0  0  1  0  0  3  0  0  0  0  0  0
  186.0820  174.7290  135.8300 C   0  0  0  0  0  2  0  0  0  0  0  0
  185.8790  173.6710  136.9310 C   0  0  1  0  0  3  0  0  0  0  0  0
  183.3770  173.6720  136.3620 C   0  0  0  0  0  0  0  0  0  0  0  0
  181.8300  175.6020  136.5560 C   0  0  0  0  0  2  0  0  0  0  0  0
  183.0590  174.8470  136.9560 C   0  0  0  0  0  0  0  0  0  0  0  0
  181.4670  175.3470  135.0970 C   0  0  0  0  0  2  0  0  0  0  0  0
  184.8360  171.7270  135.8320 N   0  0  0  0  0  2  0  0  0  0  0  0
  182.4300  173.0740  135.3810 C   0  0  0  0  0  0  0  0  0  0  0  0
  183.7960  175.3530  138.1560 C   0  0  0  0  0  1  0  0  0  0  0  0
  182.5450  171.7890  135.0440 C   0  0  0  0  0  3  0  0  0  0  0  0
  183.6210  170.9430  135.6620 C   0  0  0  0  0  2  0  0  0  0  0  0
  184.6020  172.8340  136.7650 C   0  0  1  0  0  3  0  0  0  0  0  0
  181.2520  173.8540  134.8760 C   0  0  0  0  0  2  0  0  0  0  0  0
  188.6550  178.9120  139.1230 O   0  0  0  0  0  0  0  0  0  0  0  0
  189.0350  177.8570  139.7000 C   0  0  0  0  0  0  0  0  0  0  0  0
  189.9750  176.8420  137.5790 C   0  0  0  0  0  0  0  0  0  0  0  0
  189.8000  176.8740  138.9980 N   0  0  0  0  0  2  0  0  0  0  0  0
  189.3410  177.6480  136.8470 O   0  0  0  0  0  0  0  0  0  0  0  0
  188.6730  177.6290  141.1230 C   0  0  0  0  0  2  0  0  0  0  0  0
  189.8220  177.6700  144.5390 N   0  0  0  0  0  2  0  0  0  0  0  0
  188.6580  176.9410  144.0410 C   0  0  0  0  0  2  0  0  0  0  0  0
  189.6860  176.8070  141.7790 N   0  0  0  0  0  0  0  0  0  0  0  0
  190.7780  177.6530  142.2970 C   0  0  0  0  0  2  0  0  0  0  0  0
  189.0590  176.0460  142.8670 C   0  0  0  0  0  2  0  0  0  0  0  0
  190.3200  178.5220  143.4720 C   0  0  0  0  0  2  0  0  0  0  0  0
  1 31  1  0  0  0  0
  2  6  1  1  0  0  0
  2  5  1  0  0  0  0
  2  9  1  0  0  0  0
  3  4  1  0  0  0  0
  5  1  1  1  0  0  0
  5  3  1  0  0  0  0
  7  6  2  0  0  0  0
  7  8  1  0  0  0  0
  8  1  2  0  0  0  0
  9  4  2  0  0  0  0
 10 15  1  0  0  0  0
 10 16  1  0  0  0  0
 11  8  1  6  0  0  0
 11 14  1  0  0  0  0
 12 14  1  0  0  0  0
 15 13  1  1  0  0  0
 15 11  1  0  0  0  0
 17 16  1  6  0  0  0
 17 12  1  0  0  0  0
 18 27  1  0  0  0  0
 18 20  2  0  0  0  0
 19 20  1  0  0  0  0
 20 24  1  0  0  0  0
 21 19  1  0  0  0  0
 23 18  1  0  0  0  0
 25 23  2  0  0  0  0
 25 26  1  0  0  0  0
 26 22  1  0  0  0  0
 27 22  1  6  0  0  0
 27 17  1  0  0  0  0
 28 21  1  0  0  0  0
 28 23  1  0  0  0  0
 29 30  2  0  0  0  0
 30 34  1  0  0  0  0
 31 32  1  0  0  0  0
 32 30  1  0  0  0  0
 33 31  2  0  0  0  0
 34 37  1  0  0  0  0
 36 35  1  0  0  0  0
 37 38  1  0  0  0  0
 37 39  1  0  0  0  0
 38 40  1  0  0  0  0
 39 36  1  0  0  0  0
 40 35  1  0  0  0  0
M  END
>  <MODEL>
8

>  <REMARK>
 VINA RESULT:      -6.8      2.645      8.609
  Name = 
  5 active torsions:
  status: ('A' for Active; 'I' for Inactive)
    1  A    between atoms: C_1  and  C_20
    2  A    between atoms: N_13  and  C_29
    3  A    between atoms: C_15  and  C_34
    4  A    between atoms: C_19  and  C_29
    5  A    between atoms: C_36  and  C_39
                            x       y       z     vdW  Elec       q    Type
                         _______ _______ _______ _____ _____    ______ ____

>  <TORSDO>
F 5

$$$$
=
 OpenBabel10222421253D

 40 45  0  0  1  0  0  0  0  0999 V2000
  181.9060  179.4270  138.4080 C   0  0  0  0  0  0  0  0  0  0  0  0
  179.6670  180.3010  137.8430 C   0  0  2  0  0  3  0  0  0  0  0  0
  181.0170  181.6540  139.0720 N   0  0  0  0  0  2  0  0  0  0  0  0
  180.2500  182.3780  138.3620 N   0  0  0  0  0  0  0  0  0  0  0  0
  180.7170  180.2400  138.8860 C   0  0  2  0  0  3  0  0  0  0  0  0
  179.4490  179.1760  136.9480 C   0  0  0  0  0  3  0  0  0  0  0  0
  180.4160  178.3140  136.8140 N   0  0  0  0  0  0  0  0  0  0  0  0
  181.7060  178.4650  137.4590 C   0  0  0  0  0  0  0  0  0  0  0  0
  179.4090  181.5620  137.5540 C   0  0  0  0  0  3  0  0  0  0  0  0
  183.8500  175.2630  137.9250 C   0  0  0  0  0  2  0  0  0  0  0  0
  182.7880  177.4820  137.1100 C   0  0  2  0  0  3  0  0  0  0  0  0
  183.6010  176.0530  135.1200 C   0  0  0  0  0  2  0  0  0  0  0  0
  181.4830  175.3820  137.2680 N   0  0  0  0  0  1  0  0  0  0  0  0
  183.0050  177.3850  135.5870 C   0  0  0  0  0  2  0  0  0  0  0  0
  182.5860  176.1400  137.8470 C   0  0  1  0  0  3  0  0  0  0  0  0
  185.0840  175.8410  137.2210 C   0  0  0  0  0  2  0  0  0  0  0  0
  184.9940  175.8010  135.6830 C   0  0  1  0  0  3  0  0  0  0  0  0
  187.0400  174.2710  135.4550 C   0  0  0  0  0  0  0  0  0  0  0  0
  189.4080  174.9270  135.7990 C   0  0  0  0  0  2  0  0  0  0  0  0
  187.9870  175.2390  135.4450 C   0  0  0  0  0  0  0  0  0  0  0  0
  189.4970  173.7640  136.7820 C   0  0  0  0  0  2  0  0  0  0  0  0
  184.7220  173.3730  135.3560 N   0  0  0  0  0  2  0  0  0  0  0  0
  187.4450  172.8610  135.7120 C   0  0  0  0  0  0  0  0  0  0  0  0
  187.7160  176.6070  134.9040 C   0  0  0  0  0  1  0  0  0  0  0  0
  186.6160  171.8640  135.3990 C   0  0  0  0  0  3  0  0  0  0  0  0
  185.2820  172.1620  134.7760 C   0  0  0  0  0  2  0  0  0  0  0  0
  185.5770  174.5270  135.0560 C   0  0  1  0  0  3  0  0  0  0  0  0
  188.8320  172.5320  136.1790 C   0  0  0  0  0  2  0  0  0  0  0  0
  185.6760  179.3740  140.6080 O   0  0  0  0  0  0  0  0  0  0  0  0
  184.6220  178.8840  141.0970 C   0  0  0  0  0  0  0  0  0  0  0  0
  183.1910  179.5800  139.1290 C   0  0  0  0  0  0  0  0  0  0  0  0
  183.4090  178.8540  140.3410 N   0  0  0  0  0  2  0  0  0  0  0  0
  184.0560  180.4000  138.7180 O   0  0  0  0  0  0  0  0  0  0  0  0
  184.6410  178.3410  142.4810 C   0  0  0  0  0  2  0  0  0  0  0  0
  184.8480  178.3680  146.0780 N   0  0  0  0  0  2  0  0  0  0  0  0
  185.6780  177.5650  145.1840 C   0  0  0  0  0  2  0  0  0  0  0  0
  185.3750  179.2380  143.3680 N   0  0  0  0  0  0  0  0  0  0  0  0
  184.4440  179.9470  144.2670 C   0  0  0  0  0  2  0  0  0  0  0  0
  186.3500  178.4600  144.1410 C   0  0  0  0  0  2  0  0  0  0  0  0
  183.8060  179.0030  145.2900 C   0  0  0  0  0  2  0  0  0  0  0  0
  1 31  1  0  0  0  0
  2  6  1  6  0  0  0
  2  5  1  0  0  0  0
  4  3  1  0  0  0  0
  5  1  1  6  0  0  0
  5  3  1  0  0  0  0
  7  6  2  0  0  0  0
  7  8  1  0  0  0  0
  8  1  2  0  0  0  0
  9  2  1  0  0  0  0
  9  4  2  0  0  0  0
 11  8  1  6  0  0  0
 11 15  1  0  0  0  0
 12 14  1  0  0  0  0
 14 11  1  0  0  0  0
 15 13  1  6  0  0  0
 15 10  1  0  0  0  0
 16 10  1  0  0  0  0
 17 12  1  1  0  0  0
 17 16  1  0  0  0  0
 18 23  1  0  0  0  0
 19 21  1  0  0  0  0
 20 18  2  0  0  0  0
 20 19  1  0  0  0  0
 23 28  1  0  0  0  0
 24 20  1  0  0  0  0
 25 23  2  0  0  0  0
 26 22  1  0  0  0  0
 26 25  1  0  0  0  0
 27 22  1  1  0  0  0
 27 18  1  0  0  0  0
 27 17  1  0  0  0  0
 28 21  1  0  0  0  0
 29 30  2  0  0  0  0
 30 34  1  0  0  0  0
 31 32  1  0  0  0  0
 32 30  1  0  0  0  0
 33 31  2  0  0  0  0
 34 37  1  0  0  0  0
 36 35  1  0  0  0  0
 37 39  1  0  0  0  0
 37 38  1  0  0  0  0
 38 40  1  0  0  0  0
 39 36  1  0  0  0  0
 40 35  1  0  0  0  0
M  END
>  <MODEL>
9

>  <REMARK>
 VINA RESULT:      -6.8      4.479      9.466
  Name = 
  5 active torsions:
  status: ('A' for Active; 'I' for Inactive)
    1  A    between atoms: C_1  and  C_20
    2  A    between atoms: N_13  and  C_29
    3  A    between atoms: C_15  and  C_34
    4  A    between atoms: C_19  and  C_29
    5  A    between atoms: C_36  and  C_39
                            x       y       z     vdW  Elec       q    Type
                         _______ _______ _______ _____ _____    ______ ____

>  <TORSDO>
F 5

$$$$
