=
 OpenBabel10222417573D

 33 38  0  0  1  0  0  0  0  0999 V2000
  188.6630  178.8670  140.0940 N   0  0  0  0  0  2  0  0  0  0  0  0
  189.9910  176.4490  144.4940 C   0  0  0  0  0  0  0  0  0  0  0  0
  188.0330  179.2470  136.7070 C   0  0  0  0  0  2  0  0  0  0  0  0
  190.2340  178.9550  144.3870 C   0  0  0  0  0  0  0  0  0  0  0  0
  189.0310  178.3230  138.8230 C   0  0  0  0  0  0  0  0  0  0  0  0
  188.3700  177.9050  143.0370 C   0  0  2  0  0  3  0  0  0  0  0  0
  191.2630  179.6920  143.9830 C   0  0  0  0  0  2  0  0  0  0  0  0
  187.6860  178.4610  135.6930 C   0  0  0  0  0  3  0  0  0  0  0  0
  188.9630  177.1140  141.9100 C   0  0  0  0  0  0  0  0  0  0  0  0
  189.9710  176.1910  137.2920 N   0  0  0  0  0  0  0  0  0  0  0  0
  189.4140  177.1790  139.3680 C   0  0  0  0  0  0  0  0  0  0  0  0
  189.9840  176.0700  138.5990 C   0  0  0  0  0  3  0  0  0  0  0  0
  189.0050  177.6280  140.6840 C   0  0  0  0  0  0  0  0  0  0  0  0
  189.4100  175.7020  142.1580 C   0  0  0  0  0  2  0  0  0  0  0  0
  189.2280  178.6820  137.3920 C   0  0  1  0  0  3  0  0  0  0  0  0
  188.5270  177.2660  135.6770 C   0  0  0  0  0  3  0  0  0  0  0  0
  189.4070  177.3710  136.6560 C   0  0  2  0  0  3  0  0  0  0  0  0
  189.2890  177.7640  144.2510 C   0  0  1  0  0  0  0  0  0  0  0  0
  189.0870  178.6450  145.3580 C   0  0  0  0  0  2  0  0  0  0  0  0
  190.0620  175.5380  143.5090 C   0  0  0  0  0  3  0  0  0  0  0  0
  185.9660  178.5080  143.2460 C   0  0  2  0  0  3  0  0  0  0  0  0
  186.9740  177.3780  143.3570 C   0  0  2  0  0  3  0  0  0  0  0  0
  186.4390  178.0450  144.6070 C   0  0  0  0  0  2  0  0  0  0  0  0
  184.6280  177.9190  142.9520 C   0  0  0  0  0  3  0  0  0  0  0  0
  184.0230  177.9810  141.7640 C   0  0  0  0  0  3  0  0  0  0  0  0
  184.1680  178.2170  139.3680 C   0  0  0  0  0  2  0  0  0  0  0  0
  185.3910  179.7520  140.6420 O   0  0  0  0  0  1  0  0  0  0  0  0
  184.5430  178.6540  140.5600 C   0  0  0  0  0  0  0  0  0  0  0  0
  190.5920  176.2140  145.7370 O   0  0  0  0  0  0  0  0  0  0  0  0
  191.9880  175.9910  145.8960 C   0  0  0  0  0  2  0  0  0  0  0  0
  193.1840  175.3190  147.8420 O   0  0  0  0  0  0  0  0  0  0  0  0
  192.3520  176.1150  147.3320 C   0  0  0  0  0  0  0  0  0  0  0  0
  191.8020  177.1340  148.1020 O   0  0  0  0  0  1  0  0  0  0  0  0
  1 13  1  0  0  0  0
  2 29  1  0  0  0  0
  4 19  1  0  0  0  0
  5 11  2  0  0  0  0
  5  1  1  0  0  0  0
  6  9  1  6  0  0  0
  6 22  1  0  0  0  0
  6 18  1  0  0  0  0
  7  4  2  0  0  0  0
  8  3  1  0  0  0  0
  9 14  1  0  0  0  0
 10 12  2  0  0  0  0
 11 13  1  0  0  0  0
 12 11  1  0  0  0  0
 13  9  2  0  0  0  0
 14 20  1  0  0  0  0
 15  3  1  6  0  0  0
 15  5  1  0  0  0  0
 16  8  2  0  0  0  0
 17 16  1  1  0  0  0
 17 10  1  0  0  0  0
 17 15  1  0  0  0  0
 18  4  1  0  0  0  0
 18  2  1  0  0  0  0
 18 19  1  1  0  0  0
 20  2  2  0  0  0  0
 21 24  1  1  0  0  0
 21 22  1  0  0  0  0
 21 23  1  0  0  0  0
 22 23  1  1  0  0  0
 25 24  2  0  0  0  0
 26 28  2  0  0  0  0
 28 27  1  0  0  0  0
 28 25  1  0  0  0  0
 29 30  1  0  0  0  0
 30 32  1  0  0  0  0
 32 31  2  0  0  0  0
 32 33  1  0  0  0  0
M  END
>  <MODEL>
1

>  <REMARK>
 VINA RESULT:      -7.4      0.000      0.000
  Name = 
  6 active torsions:
  status: ('A' for Active; 'I' for Inactive)
    1  A    between atoms: C_2  and  O_19
    2  A    between atoms: C_4  and  C_7
    3  A    between atoms: C_9  and  C_12
    4  A    between atoms: C_11  and  C_25
    5  A    between atoms: O_19  and  C_25
    6  A    between atoms: C_24  and  C_28
                            x       y       z     vdW  Elec       q    Type
                         _______ _______ _______ _____ _____    ______ ____

>  <TORSDO>
F 6

$$$$
=
 OpenBabel10222417573D

 33 38  0  0  1  0  0  0  0  0999 V2000
  185.9190  178.4360  137.9360 N   0  0  0  0  0  2  0  0  0  0  0  0
  181.6690  178.9660  140.8730 C   0  0  0  0  0  0  0  0  0  0  0  0
  189.2290  177.7420  137.1790 C   0  0  0  0  0  2  0  0  0  0  0  0
  181.7960  180.2550  138.7110 C   0  0  0  0  0  0  0  0  0  0  0  0
  187.2200  178.4230  138.5310 C   0  0  0  0  0  0  0  0  0  0  0  0
  182.9620  178.0110  138.8020 C   0  0  2  0  0  3  0  0  0  0  0  0
  182.2960  181.4620  138.4700 C   0  0  0  0  0  2  0  0  0  0  0  0
  190.2060  177.0050  137.6970 C   0  0  0  0  0  3  0  0  0  0  0  0
  184.1420  178.1070  139.7230 C   0  0  0  0  0  0  0  0  0  0  0  0
  188.8360  178.2170  140.7930 N   0  0  0  0  0  0  0  0  0  0  0  0
  186.7150  178.3210  139.7500 C   0  0  0  0  0  0  0  0  0  0  0  0
  187.5370  178.2880  140.9630 C   0  0  0  0  0  3  0  0  0  0  0  0
  185.3650  178.2600  139.2250 C   0  0  0  0  0  0  0  0  0  0  0  0
  183.9390  177.9220  141.1990 C   0  0  0  0  0  2  0  0  0  0  0  0
  188.6630  178.6310  138.2300 C   0  0  1  0  0  3  0  0  0  0  0  0
  190.3040  177.2430  139.1360 C   0  0  0  0  0  3  0  0  0  0  0  0
  189.4140  178.1630  139.4590 C   0  0  2  0  0  3  0  0  0  0  0  0
  181.8420  178.8820  139.3750 C   0  0  1  0  0  0  0  0  0  0  0  0
  180.7200  179.1750  138.5400 C   0  0  0  0  0  2  0  0  0  0  0  0
  182.6570  178.5520  141.6840 C   0  0  0  0  0  3  0  0  0  0  0  0
  183.0730  175.9450  137.4230 C   0  0  2  0  0  3  0  0  0  0  0  0
  182.5100  176.5590  138.6930 C   0  0  2  0  0  3  0  0  0  0  0  0
  181.6230  176.3780  137.4780 C   0  0  0  0  0  2  0  0  0  0  0  0
  183.1630  174.4690  137.6130 C   0  0  0  0  0  3  0  0  0  0  0  0
  184.1950  173.7210  137.2160 C   0  0  0  0  0  3  0  0  0  0  0  0
  186.4320  174.6220  137.2170 C   0  0  0  0  0  2  0  0  0  0  0  0
  185.4780  174.2040  135.1220 O   0  0  0  0  0  1  0  0  0  0  0  0
  185.3950  174.2030  136.5090 C   0  0  0  0  0  0  0  0  0  0  0  0
  180.4900  179.5120  141.3950 O   0  0  0  0  0  0  0  0  0  0  0  0
  179.4570  178.7230  141.9730 C   0  0  0  0  0  2  0  0  0  0  0  0
  179.1450  180.0750  143.9080 O   0  0  0  0  0  0  0  0  0  0  0  0
  179.4300  178.9390  143.4430 C   0  0  0  0  0  0  0  0  0  0  0  0
  179.6800  177.8780  144.3060 O   0  0  0  0  0  1  0  0  0  0  0  0
  1  5  1  0  0  0  0
  1 13  1  0  0  0  0
  2 29  1  0  0  0  0
  2 20  2  0  0  0  0
  3  8  1  0  0  0  0
  4 18  1  0  0  0  0
  5 11  2  0  0  0  0
  6 18  1  0  0  0  0
  6  9  1  1  0  0  0
  7  4  2  0  0  0  0
  8 16  2  0  0  0  0
  9 14  1  0  0  0  0
 10 12  2  0  0  0  0
 11 12  1  0  0  0  0
 13  9  2  0  0  0  0
 13 11  1  0  0  0  0
 14 20  1  0  0  0  0
 15  3  1  6  0  0  0
 15  5  1  0  0  0  0
 15 17  1  0  0  0  0
 17 16  1  6  0  0  0
 17 10  1  0  0  0  0
 18 19  1  6  0  0  0
 18  2  1  0  0  0  0
 19  4  1  0  0  0  0
 21 23  1  0  0  0  0
 21 24  1  1  0  0  0
 21 22  1  0  0  0  0
 22 23  1  6  0  0  0
 22  6  1  0  0  0  0
 25 24  2  0  0  0  0
 27 28  1  0  0  0  0
 28 25  1  0  0  0  0
 28 26  2  0  0  0  0
 29 30  1  0  0  0  0
 30 32  1  0  0  0  0
 32 31  2  0  0  0  0
 32 33  1  0  0  0  0
M  END
>  <MODEL>
2

>  <REMARK>
 VINA RESULT:      -6.5      5.058      7.918
  Name = 
  6 active torsions:
  status: ('A' for Active; 'I' for Inactive)
    1  A    between atoms: C_2  and  O_19
    2  A    between atoms: C_4  and  C_7
    3  A    between atoms: C_9  and  C_12
    4  A    between atoms: C_11  and  C_25
    5  A    between atoms: O_19  and  C_25
    6  A    between atoms: C_24  and  C_28
                            x       y       z     vdW  Elec       q    Type
                         _______ _______ _______ _____ _____    ______ ____

>  <TORSDO>
F 6

$$$$
=
 OpenBabel10222417573D

 33 38  0  0  1  0  0  0  0  0999 V2000
  185.2740  177.6510  136.6450 N   0  0  0  0  0  2  0  0  0  0  0  0
  181.0240  177.9850  139.6100 C   0  0  0  0  0  0  0  0  0  0  0  0
  188.6500  177.4390  135.8900 C   0  0  0  0  0  2  0  0  0  0  0  0
  180.8870  178.7990  137.2300 C   0  0  0  0  0  0  0  0  0  0  0  0
  186.5580  178.0020  137.1690 C   0  0  0  0  0  0  0  0  0  0  0  0
  182.4590  176.8780  137.7170 C   0  0  2  0  0  3  0  0  0  0  0  0
  181.1460  180.0020  136.7270 C   0  0  0  0  0  2  0  0  0  0  0  0
  189.7530  177.0180  136.5000 C   0  0  0  0  0  3  0  0  0  0  0  0
  183.6060  177.3780  138.5430 C   0  0  0  0  0  0  0  0  0  0  0  0
  188.2020  178.5710  139.3480 N   0  0  0  0  0  0  0  0  0  0  0  0
  186.0910  178.0630  138.4060 C   0  0  0  0  0  0  0  0  0  0  0  0
  186.9140  178.4350  139.5600 C   0  0  0  0  0  3  0  0  0  0  0  0
  184.7740  177.6480  137.9680 C   0  0  0  0  0  0  0  0  0  0  0  0
  183.4530  177.4680  140.0340 C   0  0  0  0  0  2  0  0  0  0  0  0
  187.9330  178.4060  136.7650 C   0  0  1  0  0  3  0  0  0  0  0  0
  189.8150  177.5630  137.8540 C   0  0  0  0  0  3  0  0  0  0  0  0
  188.7680  178.3500  138.0260 C   0  0  2  0  0  3  0  0  0  0  0  0
  181.1980  177.6260  138.1540 C   0  0  1  0  0  0  0  0  0  0  0  0
  180.0340  177.5280  137.3310 C   0  0  0  0  0  2  0  0  0  0  0  0
  182.0790  177.9380  140.4410 C   0  0  0  0  0  3  0  0  0  0  0  0
  182.9810  174.6270  136.7990 C   0  0  2  0  0  3  0  0  0  0  0  0
  182.2900  175.3760  137.9240 C   0  0  2  0  0  3  0  0  0  0  0  0
  181.4750  174.7820  136.7940 C   0  0  0  0  0  2  0  0  0  0  0  0
  183.3440  173.2660  137.2910 C   0  0  0  0  0  3  0  0  0  0  0  0
  184.5570  172.7230  137.1730 C   0  0  0  0  0  3  0  0  0  0  0  0
  186.4700  174.1910  137.2140 C   0  0  0  0  0  2  0  0  0  0  0  0
  186.0840  173.0390  135.2140 O   0  0  0  0  0  1  0  0  0  0  0  0
  185.7260  173.3420  136.5220 C   0  0  0  0  0  0  0  0  0  0  0  0
  179.7660  178.4010  140.0670 O   0  0  0  0  0  0  0  0  0  0  0  0
  179.5250  179.6920  140.6130 C   0  0  0  0  0  2  0  0  0  0  0  0
  178.9350  178.6120  142.6510 O   0  0  0  0  0  0  0  0  0  0  0  0
  179.4780  179.6040  142.0960 C   0  0  0  0  0  0  0  0  0  0  0  0
  180.0690  180.5970  142.8690 O   0  0  0  0  0  1  0  0  0  0  0  0
  1  5  1  0  0  0  0
  1 13  1  0  0  0  0
  2 29  1  0  0  0  0
  2 20  2  0  0  0  0
  3  8  1  0  0  0  0
  4 19  1  0  0  0  0
  4 18  1  0  0  0  0
  5 11  2  0  0  0  0
  6 22  1  0  0  0  0
  6 18  1  0  0  0  0
  6  9  1  1  0  0  0
  7  4  2  0  0  0  0
  8 16  2  0  0  0  0
  9 14  1  0  0  0  0
 10 12  2  0  0  0  0
 11 12  1  0  0  0  0
 13 11  1  0  0  0  0
 13  9  2  0  0  0  0
 14 20  1  0  0  0  0
 15  3  1  6  0  0  0
 15  5  1  0  0  0  0
 15 17  1  0  0  0  0
 17 16  1  1  0  0  0
 17 10  1  0  0  0  0
 18 19  1  6  0  0  0
 18  2  1  0  0  0  0
 21 24  1  1  0  0  0
 21 22  1  0  0  0  0
 22 23  1  6  0  0  0
 23 21  1  0  0  0  0
 25 24  2  0  0  0  0
 27 28  1  0  0  0  0
 28 25  1  0  0  0  0
 28 26  2  0  0  0  0
 29 30  1  0  0  0  0
 30 32  1  0  0  0  0
 32 31  2  0  0  0  0
 32 33  1  0  0  0  0
M  END
>  <MODEL>
3

>  <REMARK>
 VINA RESULT:      -6.3      5.757      8.606
  Name = 
  6 active torsions:
  status: ('A' for Active; 'I' for Inactive)
    1  A    between atoms: C_2  and  O_19
    2  A    between atoms: C_4  and  C_7
    3  A    between atoms: C_9  and  C_12
    4  A    between atoms: C_11  and  C_25
    5  A    between atoms: O_19  and  C_25
    6  A    between atoms: C_24  and  C_28
                            x       y       z     vdW  Elec       q    Type
                         _______ _______ _______ _____ _____    ______ ____

>  <TORSDO>
F 6

$$$$
=
 OpenBabel10222417573D

 33 38  0  0  1  0  0  0  0  0999 V2000
  189.0410  178.7140  140.2110 N   0  0  0  0  0  2  0  0  0  0  0  0
  190.9530  176.4500  144.4750 C   0  0  0  0  0  0  0  0  0  0  0  0
  188.0470  179.0020  136.9040 C   0  0  0  0  0  2  0  0  0  0  0  0
  191.0340  178.9640  144.3190 C   0  0  0  0  0  0  0  0  0  0  0  0
  189.3090  178.1730  138.9150 C   0  0  0  0  0  0  0  0  0  0  0  0
  189.1070  177.7850  143.1790 C   0  0  2  0  0  3  0  0  0  0  0  0
  191.9710  179.7530  143.8040 C   0  0  0  0  0  2  0  0  0  0  0  0
  187.6460  178.1810  135.9390 C   0  0  0  0  0  3  0  0  0  0  0  0
  189.6290  177.0120  142.0040 C   0  0  0  0  0  0  0  0  0  0  0  0
  190.2130  176.0740  137.3170 N   0  0  0  0  0  0  0  0  0  0  0  0
  189.8130  177.0610  139.4300 C   0  0  0  0  0  0  0  0  0  0  0  0
  190.3660  175.9750  138.6170 C   0  0  0  0  0  3  0  0  0  0  0  0
  189.5140  177.5080  140.7760 C   0  0  0  0  0  0  0  0  0  0  0  0
  190.1820  175.6330  142.2200 C   0  0  0  0  0  2  0  0  0  0  0  0
  189.3370  178.5190  137.4680 C   0  0  1  0  0  3  0  0  0  0  0  0
  188.5500  177.0370  135.8480 C   0  0  0  0  0  3  0  0  0  0  0  0
  189.5170  177.2090  136.7310 C   0  0  2  0  0  3  0  0  0  0  0  0
  190.1530  177.7180  144.2930 C   0  0  1  0  0  0  0  0  0  0  0  0
  190.0130  178.6040  145.4060 C   0  0  0  0  0  2  0  0  0  0  0  0
  190.9770  175.5290  143.4980 C   0  0  0  0  0  3  0  0  0  0  0  0
  186.9540  178.2530  144.3310 C   0  0  2  0  0  3  0  0  0  0  0  0
  187.7860  177.1840  143.6460 C   0  0  2  0  0  3  0  0  0  0  0  0
  187.6980  177.2270  145.1580 C   0  0  0  0  0  2  0  0  0  0  0  0
  185.5160  177.8690  144.2300 C   0  0  0  0  0  3  0  0  0  0  0  0
  184.6260  178.0210  145.2130 C   0  0  0  0  0  3  0  0  0  0  0  0
  185.6820  179.6210  146.6770 C   0  0  0  0  0  2  0  0  0  0  0  0
  184.3450  177.9960  147.7000 O   0  0  0  0  0  1  0  0  0  0  0  0
  184.9030  178.5580  146.5580 C   0  0  0  0  0  0  0  0  0  0  0  0
  191.6910  176.2710  145.6520 O   0  0  0  0  0  0  0  0  0  0  0  0
  191.0900  176.0060  146.9140 C   0  0  0  0  0  2  0  0  0  0  0  0
  192.0560  177.5020  148.4950 O   0  0  0  0  0  0  0  0  0  0  0  0
  192.0470  176.3430  148.0010 C   0  0  0  0  0  0  0  0  0  0  0  0
  192.9040  175.3690  148.4990 O   0  0  0  0  0  1  0  0  0  0  0  0
  1 13  1  0  0  0  0
  2 29  1  0  0  0  0
  4 19  1  0  0  0  0
  5 11  2  0  0  0  0
  5  1  1  0  0  0  0
  6  9  1  6  0  0  0
  6 22  1  0  0  0  0
  6 18  1  0  0  0  0
  7  4  2  0  0  0  0
  8  3  1  0  0  0  0
  9 14  1  0  0  0  0
 10 12  2  0  0  0  0
 11 13  1  0  0  0  0
 12 11  1  0  0  0  0
 13  9  2  0  0  0  0
 14 20  1  0  0  0  0
 15  3  1  6  0  0  0
 15  5  1  0  0  0  0
 16  8  2  0  0  0  0
 17 16  1  1  0  0  0
 17 10  1  0  0  0  0
 17 15  1  0  0  0  0
 18  4  1  0  0  0  0
 18  2  1  0  0  0  0
 18 19  1  1  0  0  0
 20  2  2  0  0  0  0
 21 24  1  6  0  0  0
 21 23  1  0  0  0  0
 22 21  1  0  0  0  0
 22 23  1  1  0  0  0
 24 25  2  0  0  0  0
 25 28  1  0  0  0  0
 28 26  2  0  0  0  0
 28 27  1  0  0  0  0
 29 30  1  0  0  0  0
 30 32  1  0  0  0  0
 32 31  2  0  0  0  0
 32 33  1  0  0  0  0
M  END
>  <MODEL>
4

>  <REMARK>
 VINA RESULT:      -5.8      1.878      2.401
  Name = 
  6 active torsions:
  status: ('A' for Active; 'I' for Inactive)
    1  A    between atoms: C_2  and  O_19
    2  A    between atoms: C_4  and  C_7
    3  A    between atoms: C_9  and  C_12
    4  A    between atoms: C_11  and  C_25
    5  A    between atoms: O_19  and  C_25
    6  A    between atoms: C_24  and  C_28
                            x       y       z     vdW  Elec       q    Type
                         _______ _______ _______ _____ _____    ______ ____

>  <TORSDO>
F 6

$$$$
=
 OpenBabel10222417573D

 33 38  0  0  1  0  0  0  0  0999 V2000
  183.6700  174.4500  137.9740 N   0  0  0  0  0  2  0  0  0  0  0  0
  182.4400  179.4910  138.1840 C   0  0  0  0  0  0  0  0  0  0  0  0
  183.7130  171.2070  136.7530 C   0  0  0  0  0  2  0  0  0  0  0  0
  183.1260  178.3390  140.3170 C   0  0  0  0  0  0  0  0  0  0  0  0
  182.8830  173.5390  137.2020 C   0  0  0  0  0  0  0  0  0  0  0  0
  184.1620  177.5160  138.1600 C   0  0  2  0  0  3  0  0  0  0  0  0
  182.3850  177.6860  141.2060 C   0  0  0  0  0  2  0  0  0  0  0  0
  183.5350  170.6130  135.5770 C   0  0  0  0  0  3  0  0  0  0  0  0
  183.1080  176.8440  137.3330 C   0  0  0  0  0  0  0  0  0  0  0  0
  180.9370  173.0780  135.2590 N   0  0  0  0  0  0  0  0  0  0  0  0
  182.2200  174.5270  136.6210 C   0  0  0  0  0  0  0  0  0  0  0  0
  181.1400  174.3140  135.6540 C   0  0  0  0  0  3  0  0  0  0  0  0
  183.0180  175.5180  137.3150 C   0  0  0  0  0  0  0  0  0  0  0  0
  182.2280  177.6780  136.4460 C   0  0  0  0  0  2  0  0  0  0  0  0
  182.5540  172.0960  137.0440 C   0  0  1  0  0  3  0  0  0  0  0  0
  182.3260  171.1250  134.9360 C   0  0  0  0  0  3  0  0  0  0  0  0
  181.7610  171.9890  135.7590 C   0  0  2  0  0  3  0  0  0  0  0  0
  183.5160  178.6970  138.8850 C   0  0  1  0  0  0  0  0  0  0  0  0
  184.2450  179.3220  139.9440 C   0  0  0  0  0  2  0  0  0  0  0  0
  181.8430  178.9870  137.0900 C   0  0  0  0  0  3  0  0  0  0  0  0
  186.4260  176.9790  137.2820 C   0  0  2  0  0  3  0  0  0  0  0  0
  185.2970  177.9940  137.2600 C   0  0  2  0  0  3  0  0  0  0  0  0
  186.5410  178.2580  138.0840 C   0  0  0  0  0  2  0  0  0  0  0  0
  187.2020  177.1110  136.0150 C   0  0  0  0  0  3  0  0  0  0  0  0
  188.4820  176.7580  135.8770 C   0  0  0  0  0  3  0  0  0  0  0  0
  190.1090  177.0440  137.6330 C   0  0  0  0  0  2  0  0  0  0  0  0
  189.3730  174.8580  137.2410 O   0  0  0  0  0  1  0  0  0  0  0  0
  189.3500  176.2130  136.9360 C   0  0  0  0  0  0  0  0  0  0  0  0
  182.0530  180.7310  138.7080 O   0  0  0  0  0  0  0  0  0  0  0  0
  180.6940  181.1360  138.8260 C   0  0  0  0  0  2  0  0  0  0  0  0
  180.0520  180.9960  141.1150 O   0  0  0  0  0  1  0  0  0  0  0  0
  180.0680  180.4440  139.9830 C   0  0  0  0  0  0  0  0  0  0  0  0
  179.4650  179.2030  139.8070 O   0  0  0  0  0  0  0  0  0  0  0  0
  2 29  1  0  0  0  0
  2 18  1  0  0  0  0
  4  7  2  0  0  0  0
  5  1  1  0  0  0  0
  6  9  1  6  0  0  0
  6 18  1  0  0  0  0
  8  3  1  0  0  0  0
 10 12  2  0  0  0  0
 10 17  1  0  0  0  0
 11  5  2  0  0  0  0
 11 13  1  0  0  0  0
 12 11  1  0  0  0  0
 13  9  2  0  0  0  0
 13  1  1  0  0  0  0
 14 20  1  0  0  0  0
 14  9  1  0  0  0  0
 15  3  1  6  0  0  0
 15  5  1  0  0  0  0
 16  8  2  0  0  0  0
 17 16  1  6  0  0  0
 17 15  1  0  0  0  0
 18 19  1  1  0  0  0
 18  4  1  0  0  0  0
 19  4  1  0  0  0  0
 20  2  2  0  0  0  0
 21 24  1  6  0  0  0
 21 23  1  0  0  0  0
 22 21  1  0  0  0  0
 22 23  1  1  0  0  0
 22  6  1  0  0  0  0
 25 24  2  0  0  0  0
 25 28  1  0  0  0  0
 28 27  1  0  0  0  0
 28 26  2  0  0  0  0
 29 30  1  0  0  0  0
 30 32  1  0  0  0  0
 32 31  1  0  0  0  0
 33 32  2  0  0  0  0
M  END
>  <MODEL>
5

>  <REMARK>
 VINA RESULT:      -5.5      5.707      9.420
  Name = 
  6 active torsions:
  status: ('A' for Active; 'I' for Inactive)
    1  A    between atoms: C_2  and  O_19
    2  A    between atoms: C_4  and  C_7
    3  A    between atoms: C_9  and  C_12
    4  A    between atoms: C_11  and  C_25
    5  A    between atoms: O_19  and  C_25
    6  A    between atoms: C_24  and  C_28
                            x       y       z     vdW  Elec       q    Type
                         _______ _______ _______ _____ _____    ______ ____

>  <TORSDO>
F 6

$$$$
=
 OpenBabel10222417573D

 33 38  0  0  1  0  0  0  0  0999 V2000
  184.3860  178.6120  138.5200 N   0  0  0  0  0  2  0  0  0  0  0  0
  188.0200  175.7740  136.1310 C   0  0  0  0  0  0  0  0  0  0  0  0
  181.4570  179.2740  140.2500 C   0  0  0  0  0  2  0  0  0  0  0  0
  187.8140  178.2100  135.5210 C   0  0  0  0  0  0  0  0  0  0  0  0
  183.0720  178.0870  138.7310 C   0  0  0  0  0  0  0  0  0  0  0  0
  187.2420  177.5500  137.8950 C   0  0  2  0  0  3  0  0  0  0  0  0
  187.0580  178.7930  134.5960 C   0  0  0  0  0  2  0  0  0  0  0  0
  180.6440  178.6110  141.0660 C   0  0  0  0  0  3  0  0  0  0  0  0
  185.9820  176.7370  137.8890 C   0  0  0  0  0  0  0  0  0  0  0  0
  181.3200  175.9190  138.7810 N   0  0  0  0  0  0  0  0  0  0  0  0
  183.4500  176.8680  138.3780 C   0  0  0  0  0  0  0  0  0  0  0  0
  182.5340  175.7250  138.3200 C   0  0  0  0  0  3  0  0  0  0  0  0
  184.8210  177.3040  138.2040 C   0  0  0  0  0  0  0  0  0  0  0  0
  186.0610  175.2600  137.6300 C   0  0  0  0  0  2  0  0  0  0  0  0
  181.6650  178.4880  139.0040 C   0  0  1  0  0  3  0  0  0  0  0  0
  180.3330  177.2990  140.5040 C   0  0  0  0  0  3  0  0  0  0  0  0
  180.9250  177.2070  139.3270 C   0  0  2  0  0  3  0  0  0  0  0  0
  188.0400  177.1960  136.6380 C   0  0  1  0  0  0  0  0  0  0  0  0
  189.1380  178.0360  136.2770 C   0  0  0  0  0  2  0  0  0  0  0  0
  187.0840  174.9190  136.5750 C   0  0  0  0  0  3  0  0  0  0  0  0
  187.8860  178.3640  140.1540 C   0  0  2  0  0  3  0  0  0  0  0  0
  188.0510  177.2380  139.1500 C   0  0  2  0  0  3  0  0  0  0  0  0
  189.1510  178.2640  139.3290 C   0  0  0  0  0  2  0  0  0  0  0  0
  188.1330  177.8170  141.5200 C   0  0  0  0  0  3  0  0  0  0  0  0
  187.2660  177.9000  142.5310 C   0  0  0  0  0  3  0  0  0  0  0  0
  185.0040  178.1570  143.3300 C   0  0  0  0  0  2  0  0  0  0  0  0
  185.6770  179.6080  141.6220 O   0  0  0  0  0  1  0  0  0  0  0  0
  185.9480  178.5590  142.4920 C   0  0  0  0  0  0  0  0  0  0  0  0
  188.9610  175.3780  135.1720 O   0  0  0  0  0  0  0  0  0  0  0  0
  189.8480  174.2820  135.3600 C   0  0  0  0  0  2  0  0  0  0  0  0
  191.7910  175.4360  136.1120 O   0  0  0  0  0  0  0  0  0  0  0  0
  190.8610  174.6330  136.3910 C   0  0  0  0  0  0  0  0  0  0  0  0
  190.7590  174.1050  137.6730 O   0  0  0  0  0  1  0  0  0  0  0  0
  1  5  1  0  0  0  0
  2 20  2  0  0  0  0
  2 18  1  0  0  0  0
  3  8  1  0  0  0  0
  4 19  1  0  0  0  0
  4 18  1  0  0  0  0
  5 15  1  0  0  0  0
  6  9  1  1  0  0  0
  6 22  1  0  0  0  0
  7  4  2  0  0  0  0
  9 13  2  0  0  0  0
 10 17  1  0  0  0  0
 11  5  2  0  0  0  0
 12 11  1  0  0  0  0
 12 10  2  0  0  0  0
 13 11  1  0  0  0  0
 13  1  1  0  0  0  0
 14  9  1  0  0  0  0
 15 17  1  0  0  0  0
 15  3  1  1  0  0  0
 16  8  2  0  0  0  0
 17 16  1  1  0  0  0
 18 19  1  1  0  0  0
 18  6  1  0  0  0  0
 20 14  1  0  0  0  0
 21 24  1  1  0  0  0
 22 23  1  6  0  0  0
 22 21  1  0  0  0  0
 23 21  1  0  0  0  0
 24 25  2  0  0  0  0
 27 28  1  0  0  0  0
 28 25  1  0  0  0  0
 28 26  2  0  0  0  0
 29 30  1  0  0  0  0
 29  2  1  0  0  0  0
 30 32  1  0  0  0  0
 31 32  2  0  0  0  0
 32 33  1  0  0  0  0
M  END
>  <MODEL>
6

>  <REMARK>
 VINA RESULT:      -5.4      3.958      7.581
  Name = 
  6 active torsions:
  status: ('A' for Active; 'I' for Inactive)
    1  A    between atoms: C_2  and  O_19
    2  A    between atoms: C_4  and  C_7
    3  A    between atoms: C_9  and  C_12
    4  A    between atoms: C_11  and  C_25
    5  A    between atoms: O_19  and  C_25
    6  A    between atoms: C_24  and  C_28
                            x       y       z     vdW  Elec       q    Type
                         _______ _______ _______ _____ _____    ______ ____

>  <TORSDO>
F 6

$$$$
=
 OpenBabel10222417573D

 33 38  0  0  1  0  0  0  0  0999 V2000
  186.4280  178.4310  139.6880 N   0  0  0  0  0  2  0  0  0  0  0  0
  181.3820  179.2180  140.6290 C   0  0  0  0  0  0  0  0  0  0  0  0
  189.7170  177.5620  140.3500 C   0  0  0  0  0  2  0  0  0  0  0  0
  182.4500  180.4660  138.7190 C   0  0  0  0  0  0  0  0  0  0  0  0
  187.3690  178.3620  140.7640 C   0  0  0  0  0  0  0  0  0  0  0  0
  183.3580  178.1690  139.2640 C   0  0  2  0  0  3  0  0  0  0  0  0
  183.0660  181.6430  138.7130 C   0  0  0  0  0  2  0  0  0  0  0  0
  190.3570  176.7840  141.2180 C   0  0  0  0  0  3  0  0  0  0  0  0
  184.0610  178.2190  140.5880 C   0  0  0  0  0  0  0  0  0  0  0  0
  187.9040  178.1090  143.4890 N   0  0  0  0  0  0  0  0  0  0  0  0
  186.4040  178.3030  141.6690 C   0  0  0  0  0  0  0  0  0  0  0  0
  186.6540  178.2480  143.1110 C   0  0  0  0  0  3  0  0  0  0  0  0
  185.3870  178.3030  140.6360 C   0  0  0  0  0  0  0  0  0  0  0  0
  183.2610  178.0650  141.8500 C   0  0  0  0  0  2  0  0  0  0  0  0
  188.8170  178.4930  141.0830 C   0  0  1  0  0  3  0  0  0  0  0  0
  189.8690  177.0390  142.5720 C   0  0  0  0  0  3  0  0  0  0  0  0
  188.9730  178.0070  142.5080 C   0  0  2  0  0  3  0  0  0  0  0  0
  182.1480  179.1020  139.3330 C   0  0  1  0  0  0  0  0  0  0  0  0
  181.4840  179.4390  138.1140 C   0  0  0  0  0  2  0  0  0  0  0  0
  181.9280  178.7670  141.7710 C   0  0  0  0  0  3  0  0  0  0  0  0
  183.7120  176.1930  137.7960 C   0  0  2  0  0  3  0  0  0  0  0  0
  182.9160  176.7390  138.9680 C   0  0  2  0  0  3  0  0  0  0  0  0
  182.2870  176.6610  137.5930 C   0  0  0  0  0  2  0  0  0  0  0  0
  183.7410  174.7050  137.8980 C   0  0  0  0  0  3  0  0  0  0  0  0
  184.6910  173.9330  137.3660 C   0  0  0  0  0  3  0  0  0  0  0  0
  187.0460  174.3930  137.1250 C   0  0  0  0  0  2  0  0  0  0  0  0
  185.7060  174.8140  135.2540 O   0  0  0  0  0  1  0  0  0  0  0  0
  185.8430  174.3980  136.5730 C   0  0  0  0  0  0  0  0  0  0  0  0
  180.1220  179.8300  140.6260 O   0  0  0  0  0  0  0  0  0  0  0  0
  178.9480  179.1950  141.1180 C   0  0  0  0  0  2  0  0  0  0  0  0
  178.9590  177.4880  139.4570 O   0  0  0  0  0  0  0  0  0  0  0  0
  178.9330  177.7730  140.6840 C   0  0  0  0  0  0  0  0  0  0  0  0
  178.9310  176.7570  141.6340 O   0  0  0  0  0  1  0  0  0  0  0  0
  1 13  1  0  0  0  0
  1  5  1  0  0  0  0
  2 20  2  0  0  0  0
  3  8  1  0  0  0  0
  4 18  1  0  0  0  0
  5 15  1  0  0  0  0
  5 11  2  0  0  0  0
  6 18  1  0  0  0  0
  6  9  1  1  0  0  0
  7  4  2  0  0  0  0
  8 16  2  0  0  0  0
  9 13  2  0  0  0  0
  9 14  1  0  0  0  0
 11 12  1  0  0  0  0
 12 10  2  0  0  0  0
 13 11  1  0  0  0  0
 15  3  1  6  0  0  0
 15 17  1  0  0  0  0
 17 16  1  6  0  0  0
 17 10  1  0  0  0  0
 18 19  1  6  0  0  0
 18  2  1  0  0  0  0
 19  4  1  0  0  0  0
 20 14  1  0  0  0  0
 21 24  1  1  0  0  0
 21 22  1  0  0  0  0
 22 23  1  6  0  0  0
 22  6  1  0  0  0  0
 23 21  1  0  0  0  0
 25 24  2  0  0  0  0
 27 28  1  0  0  0  0
 28 26  2  0  0  0  0
 28 25  1  0  0  0  0
 29  2  1  0  0  0  0
 29 30  1  0  0  0  0
 31 32  2  0  0  0  0
 32 30  1  0  0  0  0
 32 33  1  0  0  0  0
M  END
>  <MODEL>
7

>  <REMARK>
 VINA RESULT:      -5.4      4.875      8.434
  Name = 
  6 active torsions:
  status: ('A' for Active; 'I' for Inactive)
    1  A    between atoms: C_2  and  O_19
    2  A    between atoms: C_4  and  C_7
    3  A    between atoms: C_9  and  C_12
    4  A    between atoms: C_11  and  C_25
    5  A    between atoms: O_19  and  C_25
    6  A    between atoms: C_24  and  C_28
                            x       y       z     vdW  Elec       q    Type
                         _______ _______ _______ _____ _____    ______ ____

>  <TORSDO>
F 6

$$$$
=
 OpenBabel10222417573D

 33 38  0  0  1  0  0  0  0  0999 V2000
  188.2850  176.3170  141.3310 N   0  0  0  0  0  2  0  0  0  0  0  0
  189.6340  176.7230  136.3330 C   0  0  0  0  0  0  0  0  0  0  0  0
  188.4080  176.9050  144.7450 C   0  0  0  0  0  2  0  0  0  0  0  0
  188.4020  174.6530  137.0740 C   0  0  0  0  0  0  0  0  0  0  0  0
  189.1990  176.6940  142.3660 C   0  0  0  0  0  0  0  0  0  0  0  0
  187.8890  176.8140  138.2870 C   0  0  2  0  0  3  0  0  0  0  0  0
  188.8780  173.5060  137.5480 C   0  0  0  0  0  2  0  0  0  0  0  0
  188.8410  177.8740  145.5450 C   0  0  0  0  0  3  0  0  0  0  0  0
  189.0850  177.2200  139.0950 C   0  0  0  0  0  0  0  0  0  0  0  0
  191.5380  177.9810  143.1690 N   0  0  0  0  0  0  0  0  0  0  0  0
  190.0230  177.2620  141.4990 C   0  0  0  0  0  0  0  0  0  0  0  0
  191.2960  177.8770  141.8820 C   0  0  0  0  0  3  0  0  0  0  0  0
  189.1220  176.9760  140.4010 C   0  0  0  0  0  0  0  0  0  0  0  0
  190.1870  177.9980  138.4340 C   0  0  0  0  0  2  0  0  0  0  0  0
  189.4960  176.5030  143.8120 C   0  0  1  0  0  3  0  0  0  0  0  0
  190.1900  178.2790  145.1540 C   0  0  0  0  0  3  0  0  0  0  0  0
  190.5730  177.5120  144.1500 C   0  0  2  0  0  3  0  0  0  0  0  0
  188.3880  176.1770  136.9880 C   0  0  1  0  0  0  0  0  0  0  0  0
  187.4500  175.4610  136.1820 C   0  0  0  0  0  2  0  0  0  0  0  0
  190.4570  177.5260  137.0280 C   0  0  0  0  0  3  0  0  0  0  0  0
  185.5750  177.7230  138.2980 C   0  0  2  0  0  3  0  0  0  0  0  0
  187.0280  178.0370  137.9880 C   0  0  2  0  0  3  0  0  0  0  0  0
  186.0600  177.7310  136.8640 C   0  0  0  0  0  2  0  0  0  0  0  0
  184.8700  179.0040  138.5960 C   0  0  0  0  0  3  0  0  0  0  0  0
  184.5710  179.4290  139.8250 C   0  0  0  0  0  3  0  0  0  0  0  0
  185.9840  178.9570  141.7220 C   0  0  0  0  0  2  0  0  0  0  0  0
  183.9470  177.8110  141.6300 O   0  0  0  0  0  1  0  0  0  0  0  0
  184.8510  178.7130  141.0830 C   0  0  0  0  0  0  0  0  0  0  0  0
  189.9320  176.3520  135.0160 O   0  0  0  0  0  0  0  0  0  0  0  0
  191.2330  175.9600  134.5940 C   0  0  0  0  0  2  0  0  0  0  0  0
  192.3140  174.5200  136.1520 O   0  0  0  0  0  1  0  0  0  0  0  0
  191.5540  174.6200  135.1520 C   0  0  0  0  0  0  0  0  0  0  0  0
  190.9850  173.4810  134.5950 O   0  0  0  0  0  0  0  0  0  0  0  0
  1  5  1  0  0  0  0
  2 18  1  0  0  0  0
  2 20  2  0  0  0  0
  3  8  1  0  0  0  0
  4  7  2  0  0  0  0
  5 15  1  0  0  0  0
  6  9  1  1  0  0  0
  9 13  2  0  0  0  0
 10 17  1  0  0  0  0
 11 12  1  0  0  0  0
 11  5  2  0  0  0  0
 12 10  2  0  0  0  0
 13  1  1  0  0  0  0
 13 11  1  0  0  0  0
 14  9  1  0  0  0  0
 15 17  1  0  0  0  0
 15  3  1  1  0  0  0
 16  8  2  0  0  0  0
 17 16  1  6  0  0  0
 18 19  1  6  0  0  0
 18  4  1  0  0  0  0
 18  6  1  0  0  0  0
 19  4  1  0  0  0  0
 20 14  1  0  0  0  0
 21 24  1  6  0  0  0
 22 23  1  6  0  0  0
 22  6  1  0  0  0  0
 22 21  1  0  0  0  0
 23 21  1  0  0  0  0
 24 25  2  0  0  0  0
 25 28  1  0  0  0  0
 28 27  1  0  0  0  0
 28 26  2  0  0  0  0
 29  2  1  0  0  0  0
 30 29  1  0  0  0  0
 30 32  1  0  0  0  0
 32 31  1  0  0  0  0
 33 32  2  0  0  0  0
M  END
>  <MODEL>
8

>  <REMARK>
 VINA RESULT:      -5.4      3.505      7.419
  Name = 
  6 active torsions:
  status: ('A' for Active; 'I' for Inactive)
    1  A    between atoms: C_2  and  O_19
    2  A    between atoms: C_4  and  C_7
    3  A    between atoms: C_9  and  C_12
    4  A    between atoms: C_11  and  C_25
    5  A    between atoms: O_19  and  C_25
    6  A    between atoms: C_24  and  C_28
                            x       y       z     vdW  Elec       q    Type
                         _______ _______ _______ _____ _____    ______ ____

>  <TORSDO>
F 6

$$$$
=
 OpenBabel10222417573D

 33 38  0  0  1  0  0  0  0  0999 V2000
  182.3850  176.2750  137.6170 N   0  0  0  0  0  2  0  0  0  0  0  0
  181.3560  181.2930  138.4710 C   0  0  0  0  0  0  0  0  0  0  0  0
  184.3050  173.4200  137.2030 C   0  0  0  0  0  2  0  0  0  0  0  0
  179.6470  179.9170  137.2320 C   0  0  0  0  0  0  0  0  0  0  0  0
  183.6880  175.8580  137.2000 C   0  0  0  0  0  0  0  0  0  0  0  0
  181.0550  178.7380  138.9730 C   0  0  2  0  0  3  0  0  0  0  0  0
  179.5310  179.6780  135.9300 C   0  0  0  0  0  2  0  0  0  0  0  0
  185.5100  173.0010  137.5770 C   0  0  0  0  0  3  0  0  0  0  0  0
  182.4720  178.6610  138.4890 C   0  0  0  0  0  0  0  0  0  0  0  0
  186.3990  176.4080  136.8470 N   0  0  0  0  0  0  0  0  0  0  0  0
  184.2040  177.0530  137.4500 C   0  0  0  0  0  0  0  0  0  0  0  0
  185.6070  177.3930  137.2010 C   0  0  0  0  0  3  0  0  0  0  0  0
  182.9320  177.5360  137.9510 C   0  0  0  0  0  0  0  0  0  0  0  0
  183.3900  179.8270  138.7170 C   0  0  0  0  0  2  0  0  0  0  0  0
  184.4210  174.7460  136.5360 C   0  0  1  0  0  3  0  0  0  0  0  0
  186.5050  174.0360  137.3050 C   0  0  0  0  0  3  0  0  0  0  0  0
  185.8930  175.0500  136.7220 C   0  0  2  0  0  3  0  0  0  0  0  0
  180.4680  180.0730  138.5090 C   0  0  1  0  0  0  0  0  0  0  0  0
  179.0540  180.2590  138.6060 C   0  0  0  0  0  2  0  0  0  0  0  0
  182.6910  181.1510  138.5330 C   0  0  0  0  0  3  0  0  0  0  0  0
  182.4120  178.3130  141.0130 C   0  0  2  0  0  3  0  0  0  0  0  0
  181.0230  178.6380  140.4950 C   0  0  2  0  0  3  0  0  0  0  0  0
  181.3610  177.2270  140.9320 C   0  0  0  0  0  2  0  0  0  0  0  0
  182.5190  178.8050  142.4170 C   0  0  0  0  0  3  0  0  0  0  0  0
  183.6710  179.0720  143.0350 C   0  0  0  0  0  3  0  0  0  0  0  0
  185.7810  177.9120  142.8950 C   0  0  0  0  0  2  0  0  0  0  0  0
  185.5040  179.7450  141.4670 O   0  0  0  0  0  1  0  0  0  0  0  0
  185.0200  178.9060  142.4640 C   0  0  0  0  0  0  0  0  0  0  0  0
  180.7730  182.5590  138.3340 O   0  0  0  0  0  0  0  0  0  0  0  0
  180.4790  183.1470  137.0720 C   0  0  0  0  0  2  0  0  0  0  0  0
  182.2590  184.6030  137.6920 O   0  0  0  0  0  1  0  0  0  0  0  0
  181.3500  184.3330  136.8620 C   0  0  0  0  0  0  0  0  0  0  0  0
  181.1870  185.1230  135.7290 O   0  0  0  0  0  0  0  0  0  0  0  0
  1 13  1  0  0  0  0
  2 18  1  0  0  0  0
  2 20  2  0  0  0  0
  3  8  1  0  0  0  0
  4 18  1  0  0  0  0
  4 19  1  0  0  0  0
  5 11  2  0  0  0  0
  5  1  1  0  0  0  0
  6  9  1  1  0  0  0
  6 22  1  0  0  0  0
  7  4  2  0  0  0  0
  9 14  1  0  0  0  0
 10 12  2  0  0  0  0
 11 13  1  0  0  0  0
 12 11  1  0  0  0  0
 13  9  2  0  0  0  0
 15 17  1  0  0  0  0
 15  5  1  0  0  0  0
 15  3  1  1  0  0  0
 16  8  2  0  0  0  0
 17 10  1  0  0  0  0
 17 16  1  1  0  0  0
 18 19  1  1  0  0  0
 18  6  1  0  0  0  0
 20 14  1  0  0  0  0
 21 24  1  1  0  0  0
 22 23  1  6  0  0  0
 22 21  1  0  0  0  0
 23 21  1  0  0  0  0
 24 25  2  0  0  0  0
 27 28  1  0  0  0  0
 28 26  2  0  0  0  0
 28 25  1  0  0  0  0
 29  2  1  0  0  0  0
 30 29  1  0  0  0  0
 32 30  1  0  0  0  0
 32 31  1  0  0  0  0
 33 32  2  0  0  0  0
M  END
>  <MODEL>
9

>  <REMARK>
 VINA RESULT:      -5.4      4.718      9.455
  Name = 
  6 active torsions:
  status: ('A' for Active; 'I' for Inactive)
    1  A    between atoms: C_2  and  O_19
    2  A    between atoms: C_4  and  C_7
    3  A    between atoms: C_9  and  C_12
    4  A    between atoms: C_11  and  C_25
    5  A    between atoms: O_19  and  C_25
    6  A    between atoms: C_24  and  C_28
                            x       y       z     vdW  Elec       q    Type
                         _______ _______ _______ _____ _____    ______ ____

>  <TORSDO>
F 6

$$$$
