=
 OpenBabel10222415453D

 44 50  0  0  1  0  0  0  0  0999 V2000
  180.1510  176.6110  140.1550 C   0  0  0  0  0  0  0  0  0  0  0  0
  179.8870  179.9610  141.6770 S   0  0  0  0  0  0  0  0  0  0  0  0
  182.8860  177.5150  138.4580 C   0  0  2  0  0  3  0  0  0  0  0  0
  184.4070  177.6610  138.1710 C   0  0  2  0  0  0  0  0  0  0  0  0
  185.3270  178.2910  139.2150 C   0  0  1  0  0  3  0  0  0  0  0  0
  181.8040  175.0880  139.4420 F   0  0  0  0  0  0  0  0  0  0  0  0
  179.6660  174.6700  138.9260 F   0  0  0  0  0  0  0  0  0  0  0  0
  179.7310  178.3300  141.3640 C   0  0  0  0  0  0  0  0  0  0  0  0
  180.6050  175.6740  139.0750 C   0  0  0  0  0  0  0  0  0  0  0  0
  184.9690  179.0490  137.9390 C   0  0  0  0  0  2  0  0  0  0  0  0
  185.1220  176.5310  137.4320 C   0  0  0  0  0  2  0  0  0  0  0  0
  178.9310  177.3620  141.8290 N   0  0  0  0  0  0  0  0  0  0  0  0
  181.0530  180.1810  140.4390 C   0  0  0  0  0  3  0  0  0  0  0  0
  179.2020  176.2930  141.0810 N   0  0  0  0  0  2  0  0  0  0  0  0
  182.1230  176.8310  137.3080 C   0  0  2  0  0  3  0  0  0  0  0  0
  180.5020  177.9330  140.3530 C   0  0  0  0  0  0  0  0  0  0  0  0
  184.3100  177.0780  135.1340 C   0  0  0  0  0  1  0  0  0  0  0  0
  180.7070  176.4180  137.7360 C   0  0  0  0  0  2  0  0  0  0  0  0
  181.2810  178.9510  139.8010 C   0  0  0  0  0  0  0  0  0  0  0  0
  182.2610  178.7950  138.7730 N   0  0  0  0  0  2  0  0  0  0  0  0
  182.9000  175.6420  136.7090 C   0  0  2  0  0  3  0  0  0  0  0  0
  184.3110  176.0330  136.2450 C   0  0  2  0  0  3  0  0  0  0  0  0
  184.6070  178.8890  140.4140 C   0  0  0  0  0  2  0  0  0  0  0  0
  185.3640  178.6070  141.7040 C   0  0  0  0  0  2  0  0  0  0  0  0
  184.4210  178.4130  142.8860 C   0  0  0  0  0  2  0  0  0  0  0  0
  187.1970  177.7860  145.3890 C   0  0  0  0  0  0  0  0  0  0  0  0
  185.1670  178.3240  144.1760 C   0  0  0  0  0  0  0  0  0  0  0  0
  185.2690  178.6450  146.5770 C   0  0  0  0  0  3  0  0  0  0  0  0
  184.5600  178.7120  145.3750 C   0  0  0  0  0  3  0  0  0  0  0  0
  187.2590  178.1160  147.7650 F   0  0  0  0  0  0  0  0  0  0  0  0
  188.6010  177.2740  145.3800 C   0  0  0  0  0  1  0  0  0  0  0  0
  186.4870  177.8680  144.1860 C   0  0  0  0  0  3  0  0  0  0  0  0
  186.5880  178.1820  146.5880 C   0  0  0  0  0  0  0  0  0  0  0  0
  182.1240  174.8240  135.6650 C   0  0  0  0  0  2  0  0  0  0  0  0
  182.4140  173.3300  135.7250 C   0  0  0  0  0  2  0  0  0  0  0  0
  182.6410  172.9290  137.1030 N   0  0  0  0  0  2  0  0  0  0  0  0
  183.5880  171.8300  137.0720 C   0  0  0  0  0  2  0  0  0  0  0  0
  184.6580  172.1190  136.0300 C   0  0  0  0  0  2  0  0  0  0  0  0
  187.0450  172.0560  136.2580 O   0  0  0  0  0  0  0  0  0  0  0  0
  186.9610  173.3960  135.8390 C   0  0  1  0  0  3  0  0  0  0  0  0
  185.8840  172.9270  138.0400 O   0  0  0  0  0  1  0  0  0  0  0  0
  185.8910  172.7540  136.6540 C   0  0  1  0  0  0  0  0  0  0  0  0
  189.1760  174.5020  135.9130 C   0  0  0  0  0  1  0  0  0  0  0  0
  187.8970  174.2470  136.6790 C   0  0  0  0  0  2  0  0  0  0  0  0
  1 16  2  0  0  0  0
  1 14  1  0  0  0  0
  3 20  1  6  0  0  0
  4 11  1  6  0  0  0
  4  3  1  0  0  0  0
  4  5  1  0  0  0  0
  5 23  1  1  0  0  0
  7  9  1  0  0  0  0
  8  2  1  0  0  0  0
  8 12  2  0  0  0  0
  9  6  1  0  0  0  0
  9  1  1  0  0  0  0
 10  4  1  0  0  0  0
 10  5  1  0  0  0  0
 13  2  1  0  0  0  0
 14 12  1  0  0  0  0
 15 18  1  1  0  0  0
 15  3  1  0  0  0  0
 16  8  1  0  0  0  0
 18  9  1  0  0  0  0
 19 16  1  0  0  0  0
 19 13  2  0  0  0  0
 20 19  1  0  0  0  0
 21 34  1  6  0  0  0
 21 15  1  0  0  0  0
 22 17  1  6  0  0  0
 22 21  1  0  0  0  0
 22 11  1  0  0  0  0
 23 24  1  0  0  0  0
 24 25  1  0  0  0  0
 25 27  1  0  0  0  0
 26 33  1  0  0  0  0
 27 32  1  0  0  0  0
 27 29  2  0  0  0  0
 28 33  2  0  0  0  0
 29 28  1  0  0  0  0
 31 26  1  0  0  0  0
 32 26  2  0  0  0  0
 33 30  1  0  0  0  0
 34 35  1  0  0  0  0
 35 36  1  0  0  0  0
 37 36  1  0  0  0  0
 38 42  1  0  0  0  0
 38 37  1  0  0  0  0
 39 42  1  0  0  0  0
 40 39  1  0  0  0  0
 40 42  1  0  0  0  0
 40 44  1  1  0  0  0
 42 41  1  1  0  0  0
 43 44  1  0  0  0  0
M  END
>  <MODEL>
1

>  <REMARK>
 VINA RESULT:      -7.2      0.000      0.000
  Name = 
  11 active torsions:
  status: ('A' for Active; 'I' for Inactive)
    1  A    between atoms: C_3  and  C_39
    2  A    between atoms: C_6  and  C_38
    3  A    between atoms: C_7  and  C_12
    4  A    between atoms: C_7  and  C_13
    5  A    between atoms: C_8  and  C_36
    6  A    between atoms: C_8  and  C_40
    7  A    between atoms: C_13  and  C_39
    8  A    between atoms: C_25  and  C_41
    9  A    between atoms: C_31  and  N_37
   10  A    between atoms: C_31  and  C_41
   11  A    between atoms: C_36  and  N_37
                            x       y       z     vdW  Elec       q    Type
                         _______ _______ _______ _____ _____    ______ ____

>  <TORSDO>
F 11

$$$$
=
 OpenBabel10222415453D

 44 50  0  0  1  0  0  0  0  0999 V2000
  182.4540  174.4960  137.1940 C   0  0  0  0  0  0  0  0  0  0  0  0
  179.4510  176.1910  138.5050 S   0  0  0  0  0  0  0  0  0  0  0  0
  184.3070  177.2350  137.6880 C   0  0  2  0  0  3  0  0  0  0  0  0
  185.2860  178.1820  138.4370 C   0  0  2  0  0  0  0  0  0  0  0  0
  184.9980  178.5970  139.8780 C   0  0  1  0  0  3  0  0  0  0  0  0
  184.7850  174.4460  137.5460 F   0  0  0  0  0  0  0  0  0  0  0  0
  183.9460  173.3800  135.7650 F   0  0  0  0  0  0  0  0  0  0  0  0
  180.5510  175.0350  138.0180 C   0  0  0  0  0  0  0  0  0  0  0  0
  183.8140  174.5030  136.5620 C   0  0  0  0  0  0  0  0  0  0  0  0
  184.8340  179.5970  138.7370 C   0  0  0  0  0  2  0  0  0  0  0  0
  186.7860  178.0060  138.2140 C   0  0  0  0  0  2  0  0  0  0  0  0
  180.4800  173.7180  137.7850 N   0  0  0  0  0  0  0  0  0  0  0  0
  180.5710  177.4740  138.3030 C   0  0  0  0  0  3  0  0  0  0  0  0
  181.6670  173.3850  137.2830 N   0  0  0  0  0  0  0  0  0  0  0  0
  184.7740  176.9010  136.2580 C   0  0  2  0  0  3  0  0  0  0  0  0
  181.7270  175.5630  137.6870 C   0  0  2  0  0  3  0  0  0  0  0  0
  186.9190  179.1130  135.9790 C   0  0  0  0  0  1  0  0  0  0  0  0
  183.9740  175.7350  135.6590 C   0  0  0  0  0  2  0  0  0  0  0  0
  181.7900  176.9490  137.8430 C   0  0  0  0  0  0  0  0  0  0  0  0
  182.9480  177.7640  137.6530 N   0  0  0  0  0  2  0  0  0  0  0  0
  186.2920  176.6440  136.1780 C   0  0  2  0  0  3  0  0  0  0  0  0
  187.1190  177.8080  136.7430 C   0  0  2  0  0  3  0  0  0  0  0  0
  183.6400  178.1560  140.4040 C   0  0  0  0  0  2  0  0  0  0  0  0
  183.6980  177.8760  141.8990 C   0  0  0  0  0  2  0  0  0  0  0  0
  184.2590  179.0600  142.6780 C   0  0  0  0  0  2  0  0  0  0  0  0
  187.1780  177.5060  144.5300 C   0  0  0  0  0  0  0  0  0  0  0  0
  185.1520  178.6160  143.7880 C   0  0  0  0  0  0  0  0  0  0  0  0
  185.6810  178.5030  146.1510 C   0  0  0  0  0  3  0  0  0  0  0  0
  184.8300  178.9040  145.1180 C   0  0  0  0  0  3  0  0  0  0  0  0
  187.6660  177.4140  146.8770 F   0  0  0  0  0  0  0  0  0  0  0  0
  188.4210  176.7470  144.1970 C   0  0  0  0  0  1  0  0  0  0  0  0
  186.3300  177.9220  143.4970 C   0  0  0  0  0  3  0  0  0  0  0  0
  186.8560  177.8020  145.8610 C   0  0  0  0  0  0  0  0  0  0  0  0
  186.7910  176.1530  134.8100 C   0  0  0  0  0  2  0  0  0  0  0  0
  187.8490  175.0610  134.9040 C   0  0  0  0  0  2  0  0  0  0  0  0
  189.1690  175.6410  134.7270 N   0  0  0  0  0  2  0  0  0  0  0  0
  190.0490  174.9850  135.6760 C   0  0  0  0  0  2  0  0  0  0  0  0
  191.0390  176.0000  136.2280 C   0  0  0  0  0  2  0  0  0  0  0  0
  192.0340  176.8930  138.2200 O   0  0  0  0  0  0  0  0  0  0  0  0
  190.6970  177.1280  138.5910 C   0  0  1  0  0  3  0  0  0  0  0  0
  191.2980  174.7190  138.3470 O   0  0  0  0  0  1  0  0  0  0  0  0
  191.0900  175.9630  137.7480 C   0  0  1  0  0  0  0  0  0  0  0  0
  189.3580  177.5450  140.6320 C   0  0  0  0  0  1  0  0  0  0  0  0
  190.5040  176.7490  140.0480 C   0  0  0  0  0  2  0  0  0  0  0  0
  1 14  2  0  0  0  0
  3 20  1  6  0  0  0
  3  4  1  0  0  0  0
  4 11  1  6  0  0  0
  4 10  1  0  0  0  0
  4  5  1  0  0  0  0
  5 23  1  6  0  0  0
  7  9  1  0  0  0  0
  8  2  1  0  0  0  0
  9  1  1  0  0  0  0
  9  6  1  0  0  0  0
 10  5  1  0  0  0  0
 12  8  2  0  0  0  0
 13  2  1  0  0  0  0
 14 12  1  0  0  0  0
 15 18  1  1  0  0  0
 15  3  1  0  0  0  0
 16  1  1  6  0  0  0
 16 19  1  0  0  0  0
 16  8  1  0  0  0  0
 18  9  1  0  0  0  0
 19 13  2  0  0  0  0
 20 19  1  0  0  0  0
 21 34  1  6  0  0  0
 21 15  1  0  0  0  0
 21 22  1  0  0  0  0
 22 17  1  6  0  0  0
 22 11  1  0  0  0  0
 23 24  1  0  0  0  0
 24 25  1  0  0  0  0
 25 27  1  0  0  0  0
 26 33  1  0  0  0  0
 27 29  2  0  0  0  0
 29 28  1  0  0  0  0
 31 26  1  0  0  0  0
 32 27  1  0  0  0  0
 32 26  2  0  0  0  0
 33 28  2  0  0  0  0
 33 30  1  0  0  0  0
 34 35  1  0  0  0  0
 36 35  1  0  0  0  0
 36 37  1  0  0  0  0
 37 38  1  0  0  0  0
 38 42  1  0  0  0  0
 39 40  1  0  0  0  0
 40 44  1  1  0  0  0
 42 39  1  0  0  0  0
 42 41  1  1  0  0  0
 42 40  1  0  0  0  0
 44 43  1  0  0  0  0
M  END
>  <MODEL>
2

>  <REMARK>
 VINA RESULT:      -7.1      2.749      4.111
  Name = 
  11 active torsions:
  status: ('A' for Active; 'I' for Inactive)
    1  A    between atoms: C_3  and  C_39
    2  A    between atoms: C_6  and  C_38
    3  A    between atoms: C_7  and  C_12
    4  A    between atoms: C_7  and  C_13
    5  A    between atoms: C_8  and  C_36
    6  A    between atoms: C_8  and  C_40
    7  A    between atoms: C_13  and  C_39
    8  A    between atoms: C_25  and  C_41
    9  A    between atoms: C_31  and  N_37
   10  A    between atoms: C_31  and  C_41
   11  A    between atoms: C_36  and  N_37
                            x       y       z     vdW  Elec       q    Type
                         _______ _______ _______ _____ _____    ______ ____

>  <TORSDO>
F 11

$$$$
=
 OpenBabel10222415453D

 44 50  0  0  1  0  0  0  0  0999 V2000
  183.1910  177.9720  140.6020 C   0  0  0  0  0  0  0  0  0  0  0  0
  183.7090  179.5700  143.8870 S   0  0  0  0  0  0  0  0  0  0  0  0
  186.4510  178.1970  139.8950 C   0  0  2  0  0  3  0  0  0  0  0  0
  187.9270  177.7200  139.7880 C   0  0  2  0  0  0  0  0  0  0  0  0
  188.6350  177.1410  141.0110 C   0  0  1  0  0  3  0  0  0  0  0  0
  184.3060  176.5180  139.1170 F   0  0  0  0  0  0  0  0  0  0  0  0
  182.4420  177.5430  138.4190 F   0  0  0  0  0  0  0  0  0  0  0  0
  183.0730  178.6960  142.6150 C   0  0  0  0  0  0  0  0  0  0  0  0
  183.5850  177.6980  139.1810 C   0  0  0  0  0  0  0  0  0  0  0  0
  189.0000  178.5280  140.4890 C   0  0  0  0  0  2  0  0  0  0  0  0
  188.3710  177.0030  138.5150 C   0  0  0  0  0  2  0  0  0  0  0  0
  181.8720  178.1650  142.3560 N   0  0  0  0  0  0  0  0  0  0  0  0
  185.1990  179.8330  143.0810 C   0  0  0  0  0  3  0  0  0  0  0  0
  181.9520  177.7070  141.1080 N   0  0  0  0  0  0  0  0  0  0  0  0
  185.8940  178.7220  138.5580 C   0  0  2  0  0  3  0  0  0  0  0  0
  183.9200  178.6020  141.5930 C   0  0  2  0  0  3  0  0  0  0  0  0
  188.5830  179.0200  137.0590 C   0  0  0  0  0  1  0  0  0  0  0  0
  184.3680  178.8880  138.6080 C   0  0  0  0  0  2  0  0  0  0  0  0
  185.1490  179.2260  141.8160 C   0  0  0  0  0  0  0  0  0  0  0  0
  186.2730  179.2060  140.9340 N   0  0  0  0  0  2  0  0  0  0  0  0
  186.3270  177.8570  137.3580 C   0  0  2  0  0  3  0  0  0  0  0  0
  187.8520  177.6980  137.2650 C   0  0  2  0  0  3  0  0  0  0  0  0
  187.8470  177.2460  142.3080 C   0  0  0  0  0  2  0  0  0  0  0  0
  188.3380  176.2310  143.3310 C   0  0  0  0  0  2  0  0  0  0  0  0
  189.5070  176.7690  144.1480 C   0  0  0  0  0  2  0  0  0  0  0  0
  187.3510  178.1050  146.9650 C   0  0  0  0  0  0  0  0  0  0  0  0
  189.0710  177.2140  145.5050 C   0  0  0  0  0  0  0  0  0  0  0  0
  189.5270  177.5390  147.8640 C   0  0  0  0  0  3  0  0  0  0  0  0
  189.9480  177.1400  146.5920 C   0  0  0  0  0  3  0  0  0  0  0  0
  187.8410  178.4130  149.2930 F   0  0  0  0  0  0  0  0  0  0  0  0
  185.9640  178.6320  147.1420 C   0  0  0  0  0  1  0  0  0  0  0  0
  187.7710  177.6910  145.6960 C   0  0  0  0  0  3  0  0  0  0  0  0
  188.2290  178.0230  148.0540 C   0  0  0  0  0  0  0  0  0  0  0  0
  185.6750  178.2380  136.0200 C   0  0  0  0  0  2  0  0  0  0  0  0
  185.1900  177.0390  135.2160 C   0  0  0  0  0  2  0  0  0  0  0  0
  184.1060  176.3800  135.9230 N   0  0  0  0  0  2  0  0  0  0  0  0
  184.2200  174.9610  135.6450 C   0  0  0  0  0  2  0  0  0  0  0  0
  184.7450  174.2480  136.8820 C   0  0  0  0  0  2  0  0  0  0  0  0
  186.8320  174.1890  135.7010 O   0  0  0  0  0  0  0  0  0  0  0  0
  187.3650  173.9400  136.9780 C   0  0  1  0  0  3  0  0  0  0  0  0
  185.8520  172.1520  136.1200 O   0  0  0  0  0  1  0  0  0  0  0  0
  186.0110  173.4610  136.5810 C   0  0  1  0  0  0  0  0  0  0  0  0
  189.7910  173.4760  136.7890 C   0  0  0  0  0  1  0  0  0  0  0  0
  188.4170  172.8500  136.8820 C   0  0  0  0  0  2  0  0  0  0  0  0
  1 14  2  0  0  0  0
  3 20  1  1  0  0  0
  4 11  1  6  0  0  0
  4  3  1  0  0  0  0
  4 10  1  0  0  0  0
  4  5  1  0  0  0  0
  5 23  1  1  0  0  0
  6  9  1  0  0  0  0
  7  9  1  0  0  0  0
  8  2  1  0  0  0  0
  9  1  1  0  0  0  0
 10  5  1  0  0  0  0
 12  8  2  0  0  0  0
 13  2  1  0  0  0  0
 14 12  1  0  0  0  0
 15 18  1  1  0  0  0
 15  3  1  0  0  0  0
 16  1  1  6  0  0  0
 16 19  1  0  0  0  0
 16  8  1  0  0  0  0
 18  9  1  0  0  0  0
 19 13  2  0  0  0  0
 20 19  1  0  0  0  0
 21 34  1  6  0  0  0
 21 15  1  0  0  0  0
 22 17  1  1  0  0  0
 22 21  1  0  0  0  0
 22 11  1  0  0  0  0
 23 24  1  0  0  0  0
 24 25  1  0  0  0  0
 25 27  1  0  0  0  0
 26 31  1  0  0  0  0
 26 33  1  0  0  0  0
 27 32  1  0  0  0  0
 27 29  2  0  0  0  0
 28 33  2  0  0  0  0
 29 28  1  0  0  0  0
 32 26  2  0  0  0  0
 33 30  1  0  0  0  0
 35 36  1  0  0  0  0
 35 34  1  0  0  0  0
 37 36  1  0  0  0  0
 37 38  1  0  0  0  0
 39 42  1  0  0  0  0
 39 40  1  0  0  0  0
 40 44  1  6  0  0  0
 42 41  1  6  0  0  0
 42 38  1  0  0  0  0
 42 40  1  0  0  0  0
 43 44  1  0  0  0  0
M  END
>  <MODEL>
3

>  <REMARK>
 VINA RESULT:      -7.0      2.290      3.740
  Name = 
  11 active torsions:
  status: ('A' for Active; 'I' for Inactive)
    1  A    between atoms: C_3  and  C_39
    2  A    between atoms: C_6  and  C_38
    3  A    between atoms: C_7  and  C_12
    4  A    between atoms: C_7  and  C_13
    5  A    between atoms: C_8  and  C_36
    6  A    between atoms: C_8  and  C_40
    7  A    between atoms: C_13  and  C_39
    8  A    between atoms: C_25  and  C_41
    9  A    between atoms: C_31  and  N_37
   10  A    between atoms: C_31  and  C_41
   11  A    between atoms: C_36  and  N_37
                            x       y       z     vdW  Elec       q    Type
                         _______ _______ _______ _____ _____    ______ ____

>  <TORSDO>
F 11

$$$$
=
 OpenBabel10222415453D

 44 50  0  0  1  0  0  0  0  0999 V2000
  186.0200  178.6370  139.6270 C   0  0  0  0  0  0  0  0  0  0  0  0
  188.6730  177.6450  141.9900 S   0  0  0  0  0  0  0  0  0  0  0  0
  183.7230  178.5590  142.0560 C   0  0  2  0  0  3  0  0  0  0  0  0
  182.8070  179.1280  143.1760 C   0  0  2  0  0  0  0  0  0  0  0  0
  183.4080  179.9540  144.3110 C   0  0  1  0  0  3  0  0  0  0  0  0
  184.0360  179.9120  139.5870 F   0  0  0  0  0  0  0  0  0  0  0  0
  184.5310  178.6430  137.8100 F   0  0  0  0  0  0  0  0  0  0  0  0
  187.8510  178.2460  140.6680 C   0  0  0  0  0  0  0  0  0  0  0  0
  184.5860  178.7060  139.1910 C   0  0  0  0  0  0  0  0  0  0  0  0
  182.9110  178.5340  144.5650 C   0  0  0  0  0  2  0  0  0  0  0  0
  181.4290  179.6610  142.7900 C   0  0  0  0  0  2  0  0  0  0  0  0
  188.2140  178.6300  139.4380 N   0  0  0  0  0  0  0  0  0  0  0  0
  187.2320  177.3730  142.8780 C   0  0  0  0  0  3  0  0  0  0  0  0
  187.0740  178.8820  138.7970 N   0  0  0  0  0  0  0  0  0  0  0  0
  182.9410  177.7800  140.9820 C   0  0  2  0  0  3  0  0  0  0  0  0
  186.5310  178.2380  140.8470 C   0  0  2  0  0  3  0  0  0  0  0  0
  180.2850  177.4550  142.5340 C   0  0  0  0  0  1  0  0  0  0  0  0
  183.8050  177.5040  139.7420 C   0  0  0  0  0  2  0  0  0  0  0  0
  186.1310  177.7590  142.0960 C   0  0  0  0  0  0  0  0  0  0  0  0
  184.7920  177.7230  142.5920 N   0  0  0  0  0  2  0  0  0  0  0  0
  181.6150  178.4680  140.6010 C   0  0  2  0  0  3  0  0  0  0  0  0
  180.7160  178.7310  141.8190 C   0  0  2  0  0  3  0  0  0  0  0  0
  184.9290  180.0010  144.3240 C   0  0  0  0  0  2  0  0  0  0  0  0
  185.4720  179.7550  145.7250 C   0  0  0  0  0  2  0  0  0  0  0  0
  185.7090  178.2740  145.9900 C   0  0  0  0  0  2  0  0  0  0  0  0
  189.4050  177.4720  146.2460 C   0  0  0  0  0  0  0  0  0  0  0  0
  187.0650  178.0270  146.5640 C   0  0  0  0  0  0  0  0  0  0  0  0
  188.5600  177.9270  148.4690 C   0  0  0  0  0  3  0  0  0  0  0  0
  187.2850  178.1390  147.9410 C   0  0  0  0  0  3  0  0  0  0  0  0
  190.8530  177.3810  148.1560 F   0  0  0  0  0  0  0  0  0  0  0  0
  190.5230  177.1020  145.3260 C   0  0  0  0  0  1  0  0  0  0  0  0
  188.1290  177.7000  145.7190 C   0  0  0  0  0  3  0  0  0  0  0  0
  189.6230  177.5920  147.6250 C   0  0  0  0  0  0  0  0  0  0  0  0
  180.8680  177.8230  139.4240 C   0  0  0  0  0  2  0  0  0  0  0  0
  180.5820  178.7890  138.2810 C   0  0  0  0  0  2  0  0  0  0  0  0
  181.4270  178.4670  137.1440 N   0  0  0  0  0  2  0  0  0  0  0  0
  181.4460  177.0200  137.0300 C   0  0  0  0  0  2  0  0  0  0  0  0
  182.5260  176.6090  136.0400 C   0  0  0  0  0  2  0  0  0  0  0  0
  184.3060  175.0400  135.6880 O   0  0  0  0  0  0  0  0  0  0  0  0
  184.3720  175.0440  137.0940 C   0  0  1  0  0  3  0  0  0  0  0  0
  182.2440  174.1380  136.1590 O   0  0  0  0  0  1  0  0  0  0  0  0
  183.0870  175.2330  136.3630 C   0  0  1  0  0  0  0  0  0  0  0  0
  185.7970  173.0210  136.9820 C   0  0  0  0  0  1  0  0  0  0  0  0
  184.5500  173.6220  137.5940 C   0  0  0  0  0  2  0  0  0  0  0  0
  2 13  1  0  0  0  0
  3 20  1  1  0  0  0
  3  4  1  0  0  0  0
  4 11  1  6  0  0  0
  4  5  1  0  0  0  0
  4 10  1  0  0  0  0
  5 23  1  6  0  0  0
  5 10  1  0  0  0  0
  7  9  1  0  0  0  0
  8 16  1  0  0  0  0
  8  2  1  0  0  0  0
  9  6  1  0  0  0  0
  9  1  1  0  0  0  0
  9 18  1  0  0  0  0
 12  8  2  0  0  0  0
 14 12  1  0  0  0  0
 14  1  2  0  0  0  0
 15 18  1  6  0  0  0
 15  3  1  0  0  0  0
 16  1  1  6  0  0  0
 16 19  1  0  0  0  0
 19 20  1  0  0  0  0
 19 13  2  0  0  0  0
 21 34  1  6  0  0  0
 21 15  1  0  0  0  0
 21 22  1  0  0  0  0
 22 17  1  1  0  0  0
 22 11  1  0  0  0  0
 23 24  1  0  0  0  0
 24 25  1  0  0  0  0
 25 27  1  0  0  0  0
 26 33  1  0  0  0  0
 27 29  2  0  0  0  0
 29 28  1  0  0  0  0
 31 26  1  0  0  0  0
 32 26  2  0  0  0  0
 32 27  1  0  0  0  0
 33 30  1  0  0  0  0
 33 28  2  0  0  0  0
 35 34  1  0  0  0  0
 36 35  1  0  0  0  0
 37 36  1  0  0  0  0
 38 42  1  0  0  0  0
 38 37  1  0  0  0  0
 39 42  1  0  0  0  0
 39 40  1  0  0  0  0
 40 44  1  1  0  0  0
 42 41  1  1  0  0  0
 42 40  1  0  0  0  0
 43 44  1  0  0  0  0
M  END
>  <MODEL>
4

>  <REMARK>
 VINA RESULT:      -7.0      2.870      5.452
  Name = 
  11 active torsions:
  status: ('A' for Active; 'I' for Inactive)
    1  A    between atoms: C_3  and  C_39
    2  A    between atoms: C_6  and  C_38
    3  A    between atoms: C_7  and  C_12
    4  A    between atoms: C_7  and  C_13
    5  A    between atoms: C_8  and  C_36
    6  A    between atoms: C_8  and  C_40
    7  A    between atoms: C_13  and  C_39
    8  A    between atoms: C_25  and  C_41
    9  A    between atoms: C_31  and  N_37
   10  A    between atoms: C_31  and  C_41
   11  A    between atoms: C_36  and  N_37
                            x       y       z     vdW  Elec       q    Type
                         _______ _______ _______ _____ _____    ______ ____

>  <TORSDO>
F 11

$$$$
=
 OpenBabel10222415453D

 44 50  0  0  1  0  0  0  0  0999 V2000
  185.7150  178.3480  139.2300 C   0  0  0  0  0  0  0  0  0  0  0  0
  186.8450  177.6540  135.7870 S   0  0  0  0  0  0  0  0  0  0  0  0
  182.7350  176.9640  138.6100 C   0  0  2  0  0  3  0  0  0  0  0  0
  181.6570  175.8450  138.5840 C   0  0  2  0  0  0  0  0  0  0  0  0
  181.9750  174.4890  137.9570 C   0  0  1  0  0  3  0  0  0  0  0  0
  184.3500  177.3920  140.8980 F   0  0  0  0  0  0  0  0  0  0  0  0
  185.1160  179.4740  141.2020 F   0  0  0  0  0  0  0  0  0  0  0  0
  186.8060  177.9960  137.4200 C   0  0  0  0  0  0  0  0  0  0  0  0
  184.6450  178.5810  140.2560 C   0  0  0  0  0  0  0  0  0  0  0  0
  181.0400  175.4670  137.2520 C   0  0  0  0  0  2  0  0  0  0  0  0
  180.7470  175.6780  139.7990 C   0  0  0  0  0  2  0  0  0  0  0  0
  187.7110  178.4350  138.3030 N   0  0  0  0  0  0  0  0  0  0  0  0
  185.1590  177.3500  135.7180 C   0  0  0  0  0  3  0  0  0  0  0  0
  187.0310  178.6440  139.4290 N   0  0  0  0  0  2  0  0  0  0  0  0
  182.2460  178.2480  139.3070 C   0  0  2  0  0  3  0  0  0  0  0  0
  185.5770  177.9130  137.9250 C   0  0  0  0  0  0  0  0  0  0  0  0
  179.2220  177.6000  139.3320 C   0  0  0  0  0  1  0  0  0  0  0  0
  183.4080  179.2100  139.5990 C   0  0  0  0  0  2  0  0  0  0  0  0
  184.6060  177.5380  136.9950 C   0  0  0  0  0  0  0  0  0  0  0  0
  183.2290  177.2840  137.2750 N   0  0  0  0  0  2  0  0  0  0  0  0
  181.4250  177.9550  140.5780 C   0  0  2  0  0  3  0  0  0  0  0  0
  180.2380  177.0180  140.3100 C   0  0  2  0  0  3  0  0  0  0  0  0
  183.3180  174.4210  137.2440 C   0  0  0  0  0  2  0  0  0  0  0  0
  184.1630  173.2730  137.7770 C   0  0  0  0  0  2  0  0  0  0  0  0
  184.6960  172.3910  136.6550 C   0  0  0  0  0  2  0  0  0  0  0  0
  188.2740  171.8060  135.5510 C   0  0  0  0  0  0  0  0  0  0  0  0
  186.1610  172.5900  136.4450 C   0  0  0  0  0  0  0  0  0  0  0  0
  188.1620  173.9340  136.7000 C   0  0  0  0  0  3  0  0  0  0  0  0
  186.7950  173.7440  136.9170 C   0  0  0  0  0  3  0  0  0  0  0  0
  190.2340  173.1630  135.8240 F   0  0  0  0  0  0  0  0  0  0  0  0
  189.0520  170.7510  134.8310 C   0  0  0  0  0  1  0  0  0  0  0  0
  186.9020  171.6260  135.7570 C   0  0  0  0  0  3  0  0  0  0  0  0
  188.9060  172.9660  136.0180 C   0  0  0  0  0  0  0  0  0  0  0  0
  181.0440  179.1950  141.4010 C   0  0  0  0  0  2  0  0  0  0  0  0
  181.3040  179.0380  142.8940 C   0  0  0  0  0  2  0  0  0  0  0  0
  182.5620  179.6740  143.2430 N   0  0  0  0  0  2  0  0  0  0  0  0
  183.3320  178.7010  143.9950 C   0  0  0  0  0  2  0  0  0  0  0  0
  184.6680  179.3140  144.3880 C   0  0  0  0  0  2  0  0  0  0  0  0
  185.8720  177.4300  145.2580 O   0  0  0  0  0  0  0  0  0  0  0  0
  186.7160  178.4200  145.7930 C   0  0  1  0  0  3  0  0  0  0  0  0
  184.3930  178.4370  146.7020 O   0  0  0  0  0  1  0  0  0  0  0  0
  185.2530  178.6400  145.6190 C   0  0  1  0  0  0  0  0  0  0  0  0
  188.4760  177.4700  147.2540 C   0  0  0  0  0  1  0  0  0  0  0  0
  187.0810  178.0540  147.2210 C   0  0  0  0  0  2  0  0  0  0  0  0
  1 14  1  0  0  0  0
  1  9  1  0  0  0  0
  2  8  1  0  0  0  0
  3 20  1  6  0  0  0
  3 15  1  0  0  0  0
  4 10  1  6  0  0  0
  4  3  1  0  0  0  0
  4 11  1  0  0  0  0
  5 23  1  6  0  0  0
  5  4  1  0  0  0  0
  8 16  1  0  0  0  0
  8 12  2  0  0  0  0
  9  6  1  0  0  0  0
  9  7  1  0  0  0  0
 10  5  1  0  0  0  0
 11 22  1  0  0  0  0
 12 14  1  0  0  0  0
 13  2  1  0  0  0  0
 13 19  2  0  0  0  0
 15 18  1  1  0  0  0
 15 21  1  0  0  0  0
 16  1  2  0  0  0  0
 18  9  1  0  0  0  0
 19 20  1  0  0  0  0
 19 16  1  0  0  0  0
 21 34  1  6  0  0  0
 22 17  1  6  0  0  0
 22 21  1  0  0  0  0
 23 24  1  0  0  0  0
 25 24  1  0  0  0  0
 26 32  2  0  0  0  0
 26 33  1  0  0  0  0
 27 25  1  0  0  0  0
 27 29  2  0  0  0  0
 28 29  1  0  0  0  0
 30 33  1  0  0  0  0
 31 26  1  0  0  0  0
 32 27  1  0  0  0  0
 33 28  2  0  0  0  0
 34 35  1  0  0  0  0
 35 36  1  0  0  0  0
 36 37  1  0  0  0  0
 37 38  1  0  0  0  0
 38 42  1  0  0  0  0
 39 42  1  0  0  0  0
 39 40  1  0  0  0  0
 40 44  1  1  0  0  0
 42 40  1  0  0  0  0
 42 41  1  1  0  0  0
 44 43  1  0  0  0  0
M  END
>  <MODEL>
5

>  <REMARK>
 VINA RESULT:      -6.9      3.543      8.427
  Name = 
  11 active torsions:
  status: ('A' for Active; 'I' for Inactive)
    1  A    between atoms: C_3  and  C_39
    2  A    between atoms: C_6  and  C_38
    3  A    between atoms: C_7  and  C_12
    4  A    between atoms: C_7  and  C_13
    5  A    between atoms: C_8  and  C_36
    6  A    between atoms: C_8  and  C_40
    7  A    between atoms: C_13  and  C_39
    8  A    between atoms: C_25  and  C_41
    9  A    between atoms: C_31  and  N_37
   10  A    between atoms: C_31  and  C_41
   11  A    between atoms: C_36  and  N_37
                            x       y       z     vdW  Elec       q    Type
                         _______ _______ _______ _____ _____    ______ ____

>  <TORSDO>
F 11

$$$$
=
 OpenBabel10222415453D

 44 50  0  0  1  0  0  0  0  0999 V2000
  185.6500  178.6610  139.4570 C   0  0  0  0  0  0  0  0  0  0  0  0
  188.4070  177.6500  141.6900 S   0  0  0  0  0  0  0  0  0  0  0  0
  183.4770  178.6220  141.9990 C   0  0  2  0  0  3  0  0  0  0  0  0
  182.6250  179.2060  143.1600 C   0  0  2  0  0  0  0  0  0  0  0  0
  183.2910  180.0300  144.2600 C   0  0  1  0  0  3  0  0  0  0  0  0
  183.6810  179.9590  139.5100 F   0  0  0  0  0  0  0  0  0  0  0  0
  184.0730  178.6750  137.7180 F   0  0  0  0  0  0  0  0  0  0  0  0
  187.5260  178.2540  140.4080 C   0  0  0  0  0  0  0  0  0  0  0  0
  184.1970  178.7440  139.0940 C   0  0  0  0  0  0  0  0  0  0  0  0
  182.7910  178.6170  144.5460 C   0  0  0  0  0  2  0  0  0  0  0  0
  181.2350  179.7530  142.8410 C   0  0  0  0  0  2  0  0  0  0  0  0
  187.8320  178.6280  139.1590 N   0  0  0  0  0  0  0  0  0  0  0  0
  187.0090  177.3990  142.6510 C   0  0  0  0  0  3  0  0  0  0  0  0
  186.6640  178.8900  138.5750 N   0  0  0  0  0  0  0  0  0  0  0  0
  182.6340  177.8460  140.9690 C   0  0  2  0  0  3  0  0  0  0  0  0
  186.2180  178.2620  140.6520 C   0  0  2  0  0  3  0  0  0  0  0  0
  180.0550  177.5590  142.6540 C   0  0  0  0  0  1  0  0  0  0  0  0
  183.4320  177.5540  139.6900 C   0  0  0  0  0  2  0  0  0  0  0  0
  185.8750  177.7930  141.9220 C   0  0  0  0  0  0  0  0  0  0  0  0
  184.5630  177.7760  142.4850 N   0  0  0  0  0  2  0  0  0  0  0  0
  181.2980  178.5480  140.6520 C   0  0  2  0  0  3  0  0  0  0  0  0
  180.4640  178.8270  141.9110 C   0  0  2  0  0  3  0  0  0  0  0  0
  184.8110  180.0600  144.1960 C   0  0  0  0  0  2  0  0  0  0  0  0
  185.4220  179.7530  145.5560 C   0  0  0  0  0  2  0  0  0  0  0  0
  185.6870  178.2630  145.7360 C   0  0  0  0  0  2  0  0  0  0  0  0
  189.3730  177.4720  146.1280 C   0  0  0  0  0  0  0  0  0  0  0  0
  187.0200  178.0120  146.3610 C   0  0  0  0  0  0  0  0  0  0  0  0
  188.4370  177.8840  148.3230 C   0  0  0  0  0  3  0  0  0  0  0  0
  187.1820  178.1010  147.7470 C   0  0  0  0  0  3  0  0  0  0  0  0
  190.7430  177.3540  148.0940 F   0  0  0  0  0  0  0  0  0  0  0  0
  190.5290  177.1230  145.2480 C   0  0  0  0  0  1  0  0  0  0  0  0
  188.1180  177.7040  145.5540 C   0  0  0  0  0  3  0  0  0  0  0  0
  189.5350  177.5690  147.5170 C   0  0  0  0  0  0  0  0  0  0  0  0
  180.4860  177.9050  139.5170 C   0  0  0  0  0  2  0  0  0  0  0  0
  179.1260  178.5560  139.2990 C   0  0  0  0  0  2  0  0  0  0  0  0
  179.2050  179.4990  138.1960 N   0  0  0  0  0  2  0  0  0  0  0  0
  180.4260  179.2000  137.4720 C   0  0  0  0  0  2  0  0  0  0  0  0
  180.7290  180.3350  136.5070 C   0  0  0  0  0  2  0  0  0  0  0  0
  180.9020  182.7160  136.2680 O   0  0  0  0  0  0  0  0  0  0  0  0
  179.6580  182.7120  136.9260 C   0  0  1  0  0  3  0  0  0  0  0  0
  181.5590  181.8550  138.2950 O   0  0  0  0  0  1  0  0  0  0  0  0
  180.7030  181.6860  137.2050 C   0  0  1  0  0  0  0  0  0  0  0  0
  180.2140  185.0820  137.3800 C   0  0  0  0  0  1  0  0  0  0  0  0
  179.6360  183.8150  137.9700 C   0  0  0  0  0  2  0  0  0  0  0  0
  2 13  1  0  0  0  0
  3 20  1  1  0  0  0
  3  4  1  0  0  0  0
  4 11  1  6  0  0  0
  4  5  1  0  0  0  0
  4 10  1  0  0  0  0
  5 23  1  6  0  0  0
  5 10  1  0  0  0  0
  7  9  1  0  0  0  0
  8 16  1  0  0  0  0
  8  2  1  0  0  0  0
  9  1  1  0  0  0  0
  9  6  1  0  0  0  0
  9 18  1  0  0  0  0
 12  8  2  0  0  0  0
 14 12  1  0  0  0  0
 14  1  2  0  0  0  0
 15 18  1  6  0  0  0
 15  3  1  0  0  0  0
 16  1  1  6  0  0  0
 16 19  1  0  0  0  0
 19 20  1  0  0  0  0
 19 13  2  0  0  0  0
 21 34  1  6  0  0  0
 21 15  1  0  0  0  0
 21 22  1  0  0  0  0
 22 17  1  1  0  0  0
 22 11  1  0  0  0  0
 23 24  1  0  0  0  0
 24 25  1  0  0  0  0
 25 27  1  0  0  0  0
 26 33  1  0  0  0  0
 27 29  2  0  0  0  0
 29 28  1  0  0  0  0
 31 26  1  0  0  0  0
 32 26  2  0  0  0  0
 32 27  1  0  0  0  0
 33 30  1  0  0  0  0
 33 28  2  0  0  0  0
 35 34  1  0  0  0  0
 36 35  1  0  0  0  0
 37 36  1  0  0  0  0
 38 42  1  0  0  0  0
 38 37  1  0  0  0  0
 39 40  1  0  0  0  0
 39 42  1  0  0  0  0
 40 42  1  0  0  0  0
 40 44  1  1  0  0  0
 42 41  1  1  0  0  0
 43 44  1  0  0  0  0
M  END
>  <MODEL>
6

>  <REMARK>
 VINA RESULT:      -6.9      4.450      7.004
  Name = 
  11 active torsions:
  status: ('A' for Active; 'I' for Inactive)
    1  A    between atoms: C_3  and  C_39
    2  A    between atoms: C_6  and  C_38
    3  A    between atoms: C_7  and  C_12
    4  A    between atoms: C_7  and  C_13
    5  A    between atoms: C_8  and  C_36
    6  A    between atoms: C_8  and  C_40
    7  A    between atoms: C_13  and  C_39
    8  A    between atoms: C_25  and  C_41
    9  A    between atoms: C_31  and  N_37
   10  A    between atoms: C_31  and  C_41
   11  A    between atoms: C_36  and  N_37
                            x       y       z     vdW  Elec       q    Type
                         _______ _______ _______ _____ _____    ______ ____

>  <TORSDO>
F 11

$$$$
=
 OpenBabel10222415453D

 44 50  0  0  1  0  0  0  0  0999 V2000
  188.2090  178.0640  140.5060 C   0  0  0  0  0  0  0  0  0  0  0  0
  188.9660  178.4780  136.9190 S   0  0  0  0  0  0  0  0  0  0  0  0
  184.9220  178.0910  139.8920 C   0  0  2  0  0  3  0  0  0  0  0  0
  183.5130  177.4920  139.6230 C   0  0  2  0  0  0  0  0  0  0  0  0
  183.3140  176.4770  138.4990 C   0  0  1  0  0  3  0  0  0  0  0  0
  186.6150  177.0200  141.8950 F   0  0  0  0  0  0  0  0  0  0  0  0
  188.0820  178.4350  142.8210 F   0  0  0  0  0  0  0  0  0  0  0  0
  189.0750  178.1310  138.5480 C   0  0  0  0  0  0  0  0  0  0  0  0
  187.3090  178.2000  141.6980 C   0  0  0  0  0  0  0  0  0  0  0  0
  182.7830  177.9000  138.3590 C   0  0  0  0  0  2  0  0  0  0  0  0
  182.6210  177.1580  140.8170 C   0  0  0  0  0  2  0  0  0  0  0  0
  190.0900  177.8610  139.3780 N   0  0  0  0  0  0  0  0  0  0  0  0
  187.2820  178.7920  137.0060 C   0  0  0  0  0  3  0  0  0  0  0  0
  189.5460  177.8100  140.5930 N   0  0  0  0  0  2  0  0  0  0  0  0
  184.9370  179.0720  141.0800 C   0  0  2  0  0  3  0  0  0  0  0  0
  187.9060  178.2570  139.1720 C   0  0  0  0  0  0  0  0  0  0  0  0
  181.8830  179.4870  141.3350 C   0  0  0  0  0  1  0  0  0  0  0  0
  186.3710  179.4030  141.5210 C   0  0  0  0  0  2  0  0  0  0  0  0
  186.8520  178.6220  138.3310 C   0  0  0  0  0  0  0  0  0  0  0  0
  185.4790  178.7390  138.7090 N   0  0  0  0  0  2  0  0  0  0  0  0
  184.0830  178.5790  142.2640 C   0  0  2  0  0  3  0  0  0  0  0  0
  182.6350  178.2680  141.8580 C   0  0  2  0  0  3  0  0  0  0  0  0
  184.5320  176.2680  137.6120 C   0  0  0  0  0  2  0  0  0  0  0  0
  184.1890  176.4990  136.1470 C   0  0  0  0  0  2  0  0  0  0  0  0
  185.3020  176.0250  135.2210 C   0  0  0  0  0  2  0  0  0  0  0  0
  188.1700  174.1310  136.8180 C   0  0  0  0  0  0  0  0  0  0  0  0
  186.0990  174.9220  135.8360 C   0  0  0  0  0  0  0  0  0  0  0  0
  186.2740  172.6380  136.6270 C   0  0  0  0  0  3  0  0  0  0  0  0
  185.5300  173.6600  136.0320 C   0  0  0  0  0  3  0  0  0  0  0  0
  188.3060  171.8630  137.5880 F   0  0  0  0  0  0  0  0  0  0  0  0
  189.5850  174.3980  137.2190 C   0  0  0  0  0  1  0  0  0  0  0  0
  187.4170  175.1560  136.2360 C   0  0  0  0  0  3  0  0  0  0  0  0
  187.5950  172.8690  137.0200 C   0  0  0  0  0  0  0  0  0  0  0  0
  184.1850  179.4370  143.5340 C   0  0  0  0  0  2  0  0  0  0  0  0
  184.4230  178.6230  144.8010 C   0  0  0  0  0  2  0  0  0  0  0  0
  185.7860  178.8200  145.2620 N   0  0  0  0  0  2  0  0  0  0  0  0
  186.3960  177.5060  145.3470 C   0  0  0  0  0  2  0  0  0  0  0  0
  187.4790  177.5240  146.4160 C   0  0  0  0  0  2  0  0  0  0  0  0
  189.6710  178.2550  145.7720 O   0  0  0  0  0  0  0  0  0  0  0  0
  190.0930  177.2280  146.6380 C   0  0  1  0  0  3  0  0  0  0  0  0
  188.8360  176.4420  144.6310 O   0  0  0  0  0  1  0  0  0  0  0  0
  188.8330  177.1280  145.8480 C   0  0  1  0  0  0  0  0  0  0  0  0
  192.0550  175.7810  147.0700 C   0  0  0  0  0  1  0  0  0  0  0  0
  191.2400  176.4680  145.9970 C   0  0  0  0  0  2  0  0  0  0  0  0
  1 14  1  0  0  0  0
  1  9  1  0  0  0  0
  2 13  1  0  0  0  0
  2  8  1  0  0  0  0
  3 20  1  6  0  0  0
  3 15  1  0  0  0  0
  4 10  1  6  0  0  0
  4  3  1  0  0  0  0
  4 11  1  0  0  0  0
  5 23  1  6  0  0  0
  5  4  1  0  0  0  0
  8 16  1  0  0  0  0
  8 12  2  0  0  0  0
  9  6  1  0  0  0  0
  9  7  1  0  0  0  0
 10  5  1  0  0  0  0
 11 22  1  0  0  0  0
 12 14  1  0  0  0  0
 13 19  2  0  0  0  0
 15 18  1  1  0  0  0
 15 21  1  0  0  0  0
 16  1  2  0  0  0  0
 18  9  1  0  0  0  0
 19 20  1  0  0  0  0
 19 16  1  0  0  0  0
 21 34  1  1  0  0  0
 22 17  1  6  0  0  0
 22 21  1  0  0  0  0
 24 23  1  0  0  0  0
 25 27  1  0  0  0  0
 25 24  1  0  0  0  0
 26 33  1  0  0  0  0
 26 31  1  0  0  0  0
 27 29  2  0  0  0  0
 27 32  1  0  0  0  0
 28 33  2  0  0  0  0
 29 28  1  0  0  0  0
 32 26  2  0  0  0  0
 33 30  1  0  0  0  0
 34 35  1  0  0  0  0
 35 36  1  0  0  0  0
 36 37  1  0  0  0  0
 37 38  1  0  0  0  0
 39 42  1  0  0  0  0
 39 40  1  0  0  0  0
 40 44  1  6  0  0  0
 42 41  1  6  0  0  0
 42 38  1  0  0  0  0
 42 40  1  0  0  0  0
 44 43  1  0  0  0  0
M  END
>  <MODEL>
7

>  <REMARK>
 VINA RESULT:      -6.8      3.935      8.679
  Name = 
  11 active torsions:
  status: ('A' for Active; 'I' for Inactive)
    1  A    between atoms: C_3  and  C_39
    2  A    between atoms: C_6  and  C_38
    3  A    between atoms: C_7  and  C_12
    4  A    between atoms: C_7  and  C_13
    5  A    between atoms: C_8  and  C_36
    6  A    between atoms: C_8  and  C_40
    7  A    between atoms: C_13  and  C_39
    8  A    between atoms: C_25  and  C_41
    9  A    between atoms: C_31  and  N_37
   10  A    between atoms: C_31  and  C_41
   11  A    between atoms: C_36  and  N_37
                            x       y       z     vdW  Elec       q    Type
                         _______ _______ _______ _____ _____    ______ ____

>  <TORSDO>
F 11

$$$$
=
 OpenBabel10222415453D

 44 50  0  0  1  0  0  0  0  0999 V2000
  188.2000  178.0550  140.5360 C   0  0  0  0  0  0  0  0  0  0  0  0
  189.0590  178.4470  136.9690 S   0  0  0  0  0  0  0  0  0  0  0  0
  184.9330  178.0430  139.8250 C   0  0  2  0  0  3  0  0  0  0  0  0
  183.5390  177.4260  139.5190 C   0  0  2  0  0  0  0  0  0  0  0  0
  183.3840  176.4000  138.4000 C   0  0  1  0  0  3  0  0  0  0  0  0
  186.5770  177.0050  141.8860 F   0  0  0  0  0  0  0  0  0  0  0  0
  188.0020  178.4430  142.8430 F   0  0  0  0  0  0  0  0  0  0  0  0
  189.1240  178.1150  138.6040 C   0  0  0  0  0  0  0  0  0  0  0  0
  187.2640  178.1910  141.7000 C   0  0  0  0  0  0  0  0  0  0  0  0
  182.8430  177.8170  138.2320 C   0  0  0  0  0  2  0  0  0  0  0  0
  182.6160  177.0940  140.6900 C   0  0  0  0  0  2  0  0  0  0  0  0
  190.1160  177.8620  139.4660 N   0  0  0  0  0  0  0  0  0  0  0  0
  187.3710  178.7440  137.0040 C   0  0  0  0  0  3  0  0  0  0  0  0
  189.5370  177.8160  140.6640 N   0  0  0  0  0  2  0  0  0  0  0  0
  184.9040  179.0340  141.0040 C   0  0  2  0  0  3  0  0  0  0  0  0
  187.9350  178.2340  139.1920 C   0  0  0  0  0  0  0  0  0  0  0  0
  181.8390  179.4190  141.1660 C   0  0  0  0  0  1  0  0  0  0  0  0
  186.3200  179.3830  141.4850 C   0  0  0  0  0  2  0  0  0  0  0  0
  186.9030  178.5810  138.3180 C   0  0  0  0  0  0  0  0  0  0  0  0
  185.5180  178.6860  138.6530 N   0  0  0  0  0  2  0  0  0  0  0  0
  184.0200  178.5410  142.1670 C   0  0  2  0  0  3  0  0  0  0  0  0
  182.5870  178.2120  141.7210 C   0  0  2  0  0  3  0  0  0  0  0  0
  184.6300  176.1970  137.5500 C   0  0  0  0  0  2  0  0  0  0  0  0
  184.2630  175.8800  136.1070 C   0  0  0  0  0  2  0  0  0  0  0  0
  184.5020  174.4140  135.7690 C   0  0  0  0  0  2  0  0  0  0  0  0
  180.9690  173.1740  136.3580 C   0  0  0  0  0  0  0  0  0  0  0  0
  183.3590  173.5560  136.2010 C   0  0  0  0  0  0  0  0  0  0  0  0
  182.5170  171.5200  137.2110 C   0  0  0  0  0  3  0  0  0  0  0  0
  183.5910  172.3270  136.8270 C   0  0  0  0  0  3  0  0  0  0  0  0
  180.1740  171.1480  137.3660 F   0  0  0  0  0  0  0  0  0  0  0  0
  179.5740  173.6510  136.1130 C   0  0  0  0  0  1  0  0  0  0  0  0
  182.0470  173.9730  135.9620 C   0  0  0  0  0  3  0  0  0  0  0  0
  181.2040  171.9400  136.9800 C   0  0  0  0  0  0  0  0  0  0  0  0
  184.0760  179.4110  143.4330 C   0  0  0  0  0  2  0  0  0  0  0  0
  184.8360  178.7620  144.5830 C   0  0  0  0  0  2  0  0  0  0  0  0
  184.1360  179.0080  145.8320 N   0  0  0  0  0  2  0  0  0  0  0  0
  184.9320  178.4060  146.8860 C   0  0  0  0  0  2  0  0  0  0  0  0
  186.2590  179.1410  146.9960 C   0  0  0  0  0  2  0  0  0  0  0  0
  187.2250  177.0660  146.2790 O   0  0  0  0  0  0  0  0  0  0  0  0
  188.3390  177.8710  145.9810 C   0  0  1  0  0  3  0  0  0  0  0  0
  187.7660  177.7490  148.4060 O   0  0  0  0  0  1  0  0  0  0  0  0
  187.4270  178.1750  147.1200 C   0  0  1  0  0  0  0  0  0  0  0  0
  190.7320  177.4880  145.4700 C   0  0  0  0  0  1  0  0  0  0  0  0
  189.6060  177.1640  146.4270 C   0  0  0  0  0  2  0  0  0  0  0  0
  1 14  1  0  0  0  0
  1  9  1  0  0  0  0
  2 13  1  0  0  0  0
  2  8  1  0  0  0  0
  3 20  1  6  0  0  0
  3 15  1  0  0  0  0
  4 10  1  6  0  0  0
  4  3  1  0  0  0  0
  4 11  1  0  0  0  0
  5 23  1  6  0  0  0
  5  4  1  0  0  0  0
  8 16  1  0  0  0  0
  8 12  2  0  0  0  0
  9  6  1  0  0  0  0
  9  7  1  0  0  0  0
 10  5  1  0  0  0  0
 11 22  1  0  0  0  0
 12 14  1  0  0  0  0
 13 19  2  0  0  0  0
 15 18  1  1  0  0  0
 15 21  1  0  0  0  0
 16  1  2  0  0  0  0
 18  9  1  0  0  0  0
 19 20  1  0  0  0  0
 19 16  1  0  0  0  0
 21 34  1  1  0  0  0
 22 17  1  6  0  0  0
 22 21  1  0  0  0  0
 24 23  1  0  0  0  0
 25 24  1  0  0  0  0
 25 27  1  0  0  0  0
 26 33  1  0  0  0  0
 27 29  2  0  0  0  0
 29 28  1  0  0  0  0
 31 26  1  0  0  0  0
 32 27  1  0  0  0  0
 32 26  2  0  0  0  0
 33 28  2  0  0  0  0
 33 30  1  0  0  0  0
 34 35  1  0  0  0  0
 35 36  1  0  0  0  0
 36 37  1  0  0  0  0
 37 38  1  0  0  0  0
 38 42  1  0  0  0  0
 39 42  1  0  0  0  0
 40 39  1  0  0  0  0
 40 44  1  1  0  0  0
 40 42  1  0  0  0  0
 42 41  1  1  0  0  0
 43 44  1  0  0  0  0
M  END
>  <MODEL>
8

>  <REMARK>
 VINA RESULT:      -6.7      3.921      9.206
  Name = 
  11 active torsions:
  status: ('A' for Active; 'I' for Inactive)
    1  A    between atoms: C_3  and  C_39
    2  A    between atoms: C_6  and  C_38
    3  A    between atoms: C_7  and  C_12
    4  A    between atoms: C_7  and  C_13
    5  A    between atoms: C_8  and  C_36
    6  A    between atoms: C_8  and  C_40
    7  A    between atoms: C_13  and  C_39
    8  A    between atoms: C_25  and  C_41
    9  A    between atoms: C_31  and  N_37
   10  A    between atoms: C_31  and  C_41
   11  A    between atoms: C_36  and  N_37
                            x       y       z     vdW  Elec       q    Type
                         _______ _______ _______ _____ _____    ______ ____

>  <TORSDO>
F 11

$$$$
=
 OpenBabel10222415453D

 44 50  0  0  1  0  0  0  0  0999 V2000
  183.1050  176.7990  138.2780 C   0  0  0  0  0  0  0  0  0  0  0  0
  181.3070  178.7690  140.8260 S   0  0  0  0  0  0  0  0  0  0  0  0
  186.0340  178.1050  139.2270 C   0  0  2  0  0  3  0  0  0  0  0  0
  187.3860  178.1770  139.9890 C   0  0  2  0  0  0  0  0  0  0  0  0
  187.4220  178.0030  141.5060 C   0  0  1  0  0  3  0  0  0  0  0  0
  185.1760  175.7080  137.9840 F   0  0  0  0  0  0  0  0  0  0  0  0
  183.8200  175.9330  136.2160 F   0  0  0  0  0  0  0  0  0  0  0  0
  181.7210  177.6140  139.6960 C   0  0  0  0  0  0  0  0  0  0  0  0
  184.2720  176.5540  137.3670 C   0  0  0  0  0  0  0  0  0  0  0  0
  187.6520  179.3750  140.8790 C   0  0  0  0  0  2  0  0  0  0  0  0
  188.6220  177.5520  139.3450 C   0  0  0  0  0  2  0  0  0  0  0  0
  181.0410  176.6680  139.0350 N   0  0  0  0  0  0  0  0  0  0  0  0
  182.8710  179.4710  140.8170 C   0  0  0  0  0  3  0  0  0  0  0  0
  181.9080  176.1570  138.1620 N   0  0  0  0  0  0  0  0  0  0  0  0
  186.1950  178.2720  137.7040 C   0  0  2  0  0  3  0  0  0  0  0  0
  182.9820  177.7350  139.2870 C   0  0  2  0  0  3  0  0  0  0  0  0
  189.0870  179.3700  137.6970 C   0  0  0  0  0  1  0  0  0  0  0  0
  184.9110  177.8870  136.9540 C   0  0  0  0  0  2  0  0  0  0  0  0
  183.6810  178.7730  139.9060 C   0  0  0  0  0  0  0  0  0  0  0  0
  185.0660  179.0750  139.7310 N   0  0  0  0  0  2  0  0  0  0  0  0
  187.4190  177.5130  137.1540 C   0  0  2  0  0  3  0  0  0  0  0  0
  188.7230  177.8990  137.8660 C   0  0  2  0  0  3  0  0  0  0  0  0
  186.0530  177.9380  142.1680 C   0  0  0  0  0  2  0  0  0  0  0  0
  186.1810  177.7560  143.6740 C   0  0  0  0  0  2  0  0  0  0  0  0
  187.5070  177.1100  144.0570 C   0  0  0  0  0  2  0  0  0  0  0  0
  189.5250  177.4250  147.2490 C   0  0  0  0  0  0  0  0  0  0  0  0
  187.8710  177.4000  145.4750 C   0  0  0  0  0  0  0  0  0  0  0  0
  187.2810  178.2270  147.6760 C   0  0  0  0  0  3  0  0  0  0  0  0
  186.9270  177.9380  146.3550 C   0  0  0  0  0  3  0  0  0  0  0  0
  188.9020  178.2490  149.4150 F   0  0  0  0  0  0  0  0  0  0  0  0
  190.9150  177.1300  147.7130 C   0  0  0  0  0  1  0  0  0  0  0  0
  189.1710  177.1510  145.9230 C   0  0  0  0  0  3  0  0  0  0  0  0
  188.5790  177.9700  148.1270 C   0  0  0  0  0  0  0  0  0  0  0  0
  187.5420  177.5120  135.6220 C   0  0  0  0  0  2  0  0  0  0  0  0
  187.6160  176.1160  135.0180 C   0  0  0  0  0  2  0  0  0  0  0  0
  188.9050  175.5180  135.3210 N   0  0  0  0  0  2  0  0  0  0  0  0
  188.6780  174.0980  135.5090 C   0  0  0  0  0  2  0  0  0  0  0  0
  187.8270  173.8860  136.7530 C   0  0  0  0  0  2  0  0  0  0  0  0
  186.0160  172.6320  137.7020 O   0  0  0  0  0  0  0  0  0  0  0  0
  185.3700  172.9560  136.4960 C   0  0  1  0  0  3  0  0  0  0  0  0
  187.3730  171.4930  136.2380 O   0  0  0  0  0  1  0  0  0  0  0  0
  186.8430  172.7420  136.5700 C   0  0  1  0  0  0  0  0  0  0  0  0
  183.4250  171.4640  136.8450 C   0  0  0  0  0  1  0  0  0  0  0  0
  184.6320  171.7360  135.9750 C   0  0  0  0  0  2  0  0  0  0  0  0
  3 20  1  1  0  0  0
  3  4  1  0  0  0  0
  4 11  1  6  0  0  0
  4 10  1  0  0  0  0
  4  5  1  0  0  0  0
  5 23  1  1  0  0  0
  7  9  1  0  0  0  0
  8  2  1  0  0  0  0
  9  6  1  0  0  0  0
  9  1  1  0  0  0  0
 10  5  1  0  0  0  0
 12  8  2  0  0  0  0
 13  2  1  0  0  0  0
 14  1  2  0  0  0  0
 14 12  1  0  0  0  0
 15 18  1  6  0  0  0
 15  3  1  0  0  0  0
 16  1  1  6  0  0  0
 16  8  1  0  0  0  0
 16 19  1  0  0  0  0
 18  9  1  0  0  0  0
 19 13  2  0  0  0  0
 20 19  1  0  0  0  0
 21 34  1  6  0  0  0
 21 15  1  0  0  0  0
 21 22  1  0  0  0  0
 22 17  1  1  0  0  0
 22 11  1  0  0  0  0
 23 24  1  0  0  0  0
 24 25  1  0  0  0  0
 25 27  1  0  0  0  0
 26 31  1  0  0  0  0
 26 33  1  0  0  0  0
 27 32  1  0  0  0  0
 27 29  2  0  0  0  0
 28 33  2  0  0  0  0
 29 28  1  0  0  0  0
 32 26  2  0  0  0  0
 33 30  1  0  0  0  0
 35 36  1  0  0  0  0
 35 34  1  0  0  0  0
 36 37  1  0  0  0  0
 37 38  1  0  0  0  0
 40 44  1  6  0  0  0
 40 42  1  0  0  0  0
 40 39  1  0  0  0  0
 42 41  1  6  0  0  0
 42 38  1  0  0  0  0
 42 39  1  0  0  0  0
 44 43  1  0  0  0  0
M  END
>  <MODEL>
9

>  <REMARK>
 VINA RESULT:      -6.7      2.308      3.866
  Name = 
  11 active torsions:
  status: ('A' for Active; 'I' for Inactive)
    1  A    between atoms: C_3  and  C_39
    2  A    between atoms: C_6  and  C_38
    3  A    between atoms: C_7  and  C_12
    4  A    between atoms: C_7  and  C_13
    5  A    between atoms: C_8  and  C_36
    6  A    between atoms: C_8  and  C_40
    7  A    between atoms: C_13  and  C_39
    8  A    between atoms: C_25  and  C_41
    9  A    between atoms: C_31  and  N_37
   10  A    between atoms: C_31  and  C_41
   11  A    between atoms: C_36  and  N_37
                            x       y       z     vdW  Elec       q    Type
                         _______ _______ _______ _____ _____    ______ ____

>  <TORSDO>
F 11

$$$$
