=
 OpenBabel10222416043D

 32 34  0  0  1  0  0  0  0  0999 V2000
  184.1090  178.6240  144.1430 C   0  0  0  0  0  3  0  0  0  0  0  0
  186.7750  178.7720  139.9630 N   0  0  0  0  0  2  0  0  0  0  0  0
  183.1280  178.9410  140.6000 C   0  0  0  0  0  0  0  0  0  0  0  0
  179.5820  179.3400  139.5360 N   0  0  0  0  0  1  0  0  0  0  0  0
  185.5300  178.7150  140.6660 C   0  0  0  0  0  0  0  0  0  0  0  0
  184.1920  178.5850  142.8080 C   0  0  0  0  0  0  0  0  0  0  0  0
  185.5060  178.3040  142.1200 C   0  0  0  0  0  2  0  0  0  0  0  0
  182.9780  178.7730  141.9850 C   0  0  0  0  0  0  0  0  0  0  0  0
  180.5690  178.9870  141.7390 C   0  0  0  0  0  3  0  0  0  0  0  0
  181.6910  178.8000  142.5510 C   0  0  0  0  0  3  0  0  0  0  0  0
  182.0020  179.1330  139.7920 C   0  0  0  0  0  3  0  0  0  0  0  0
  180.7250  179.1510  140.3610 C   0  0  0  0  0  0  0  0  0  0  0  0
  184.4330  178.9580  140.0080 N   0  0  0  0  0  0  0  0  0  0  0  0
  186.1910  178.2820  145.7400 C   0  0  0  0  0  0  0  0  0  0  0  0
  185.2390  178.4460  145.0190 C   0  0  0  0  0  0  0  0  0  0  0  0
  189.6560  177.4170  146.8510 C   0  0  0  0  0  0  0  0  0  0  0  0
  187.3310  178.0750  146.5860 C   0  0  0  0  0  0  0  0  0  0  0  0
  189.5540  177.6550  148.2310 C   0  0  0  0  0  3  0  0  0  0  0  0
  188.5390  177.6290  146.0340 C   0  0  0  0  0  3  0  0  0  0  0  0
  187.2380  178.3120  147.9600 C   0  0  0  0  0  3  0  0  0  0  0  0
  188.3480  178.1030  148.7830 C   0  0  0  0  0  3  0  0  0  0  0  0
  191.8040  176.1920  146.9700 C   0  0  0  0  0  1  0  0  0  0  0  0
  190.8460  176.9720  146.2670 O   0  0  0  0  0  0  0  0  0  0  0  0
  187.9990  178.4460  140.5660 N   0  0  0  0  0  2  0  0  0  0  0  0
  188.7160  177.5600  139.6600 C   0  0  0  0  0  2  0  0  0  0  0  0
  189.8380  176.8920  140.3910 C   0  0  0  0  0  0  0  0  0  0  0  0
  190.5730  176.1240  139.7900 O   0  0  0  0  0  0  0  0  0  0  0  0
  190.0670  177.1340  141.8540 C   0  0  1  0  0  3  0  0  0  0  0  0
  188.3270  175.9350  142.9750 O   0  0  0  0  0  1  0  0  0  0  0  0
  189.6930  175.9160  142.6900 C   0  0  0  0  0  2  0  0  0  0  0  0
  191.8520  177.8620  143.2110 O   0  0  0  0  0  0  0  0  0  0  0  0
  191.4900  177.5180  142.0970 C   0  0  0  0  0  3  0  0  0  0  0  0
  1 15  1  0  0  0  0
  2 24  1  0  0  0  0
  2  5  1  0  0  0  0
  3  8  1  0  0  0  0
  4 12  1  0  0  0  0
  5  7  1  0  0  0  0
  6  1  2  0  0  0  0
  7  6  1  0  0  0  0
  8 10  2  0  0  0  0
  8  6  1  0  0  0  0
  9 10  1  0  0  0  0
 11 12  1  0  0  0  0
 11  3  2  0  0  0  0
 12  9  2  0  0  0  0
 13  3  1  0  0  0  0
 13  5  2  0  0  0  0
 14 17  1  0  0  0  0
 15 14  3  0  0  0  0
 16 18  1  0  0  0  0
 17 20  2  0  0  0  0
 18 21  2  0  0  0  0
 19 17  1  0  0  0  0
 19 16  2  0  0  0  0
 20 21  1  0  0  0  0
 23 16  1  0  0  0  0
 23 22  1  0  0  0  0
 25 26  1  0  0  0  0
 25 24  1  0  0  0  0
 26 28  1  0  0  0  0
 27 26  2  0  0  0  0
 28 32  1  6  0  0  0
 28 30  1  0  0  0  0
 30 29  1  0  0  0  0
 32 31  2  0  0  0  0
M  END
>  <MODEL>
1

>  <REMARK>
 VINA RESULT:      -9.3      0.000      0.000
  Name = 
  9 active torsions:
  status: ('A' for Active; 'I' for Inactive)
    1  A    between atoms: C_1  and  C_17
    2  A    between atoms: C_1  and  C_20
    3  A    between atoms: C_3  and  C_19
    4  A    between atoms: N_5  and  N_22
    5  A    between atoms: C_7  and  C_16
    6  A    between atoms: C_11  and  O_15
    7  A    between atoms: C_12  and  C_20
    8  A    between atoms: C_17  and  N_22
    9  A    between atoms: C_20  and  C_27
                            x       y       z     vdW  Elec       q    Type
                         _______ _______ _______ _____ _____    ______ ____

>  <TORSDO>
F 9

$$$$
=
 OpenBabel10222416043D

 32 34  0  0  1  0  0  0  0  0999 V2000
  186.9850  177.6640  145.2730 C   0  0  0  0  0  3  0  0  0  0  0  0
  189.8250  176.9590  141.2690 N   0  0  0  0  0  2  0  0  0  0  0  0
  190.5520  176.7990  144.8990 C   0  0  0  0  0  0  0  0  0  0  0  0
  192.7710  176.1610  147.8200 N   0  0  0  0  0  1  0  0  0  0  0  0
  189.6450  177.0900  142.6820 C   0  0  0  0  0  0  0  0  0  0  0  0
  188.1860  177.5050  144.7060 C   0  0  0  0  0  0  0  0  0  0  0  0
  188.3780  177.7120  143.2230 C   0  0  0  0  0  2  0  0  0  0  0  0
  189.3600  177.1680  145.5400 C   0  0  0  0  0  0  0  0  0  0  0  0
  190.4380  176.8630  147.6970 C   0  0  0  0  0  3  0  0  0  0  0  0
  189.3080  177.1950  146.9450 C   0  0  0  0  0  3  0  0  0  0  0  0
  191.6790  176.4620  145.6570 C   0  0  0  0  0  3  0  0  0  0  0  0
  191.6220  176.4990  147.0530 C   0  0  0  0  0  0  0  0  0  0  0  0
  190.6150  176.7250  143.4690 N   0  0  0  0  0  0  0  0  0  0  0  0
  184.7990  178.2630  143.9060 C   0  0  0  0  0  0  0  0  0  0  0  0
  185.7920  177.9970  144.5370 C   0  0  0  0  0  0  0  0  0  0  0  0
  182.5210  178.8050  140.9910 C   0  0  0  0  0  0  0  0  0  0  0  0
  183.6220  178.5660  143.1440 C   0  0  0  0  0  0  0  0  0  0  0  0
  181.3360  179.1690  141.6500 C   0  0  0  0  0  3  0  0  0  0  0  0
  183.6610  178.5040  141.7450 C   0  0  0  0  0  3  0  0  0  0  0  0
  182.4390  178.9270  143.7940 C   0  0  0  0  0  3  0  0  0  0  0  0
  181.2960  179.2290  143.0480 C   0  0  0  0  0  3  0  0  0  0  0  0
  182.6210  179.8860  138.7660 C   0  0  0  0  0  1  0  0  0  0  0  0
  182.5950  178.7330  139.5950 O   0  0  0  0  0  0  0  0  0  0  0  0
  188.8700  177.4000  140.3400 N   0  0  0  0  0  2  0  0  0  0  0  0
  189.5810  178.0600  139.2550 C   0  0  0  0  0  2  0  0  0  0  0  0
  188.6330  178.3500  138.1340 C   0  0  0  0  0  0  0  0  0  0  0  0
  188.7890  179.3580  137.4610 O   0  0  0  0  0  0  0  0  0  0  0  0
  187.4840  177.4350  137.8310 C   0  0  1  0  0  3  0  0  0  0  0  0
  185.9370  178.7440  139.1000 O   0  0  0  0  0  1  0  0  0  0  0  0
  186.1550  178.1800  137.8430 C   0  0  0  0  0  2  0  0  0  0  0  0
  188.4690  175.8230  136.4200 O   0  0  0  0  0  0  0  0  0  0  0  0
  187.6930  176.7620  136.5140 C   0  0  0  0  0  3  0  0  0  0  0  0
  2  5  1  0  0  0  0
  3  8  2  0  0  0  0
  3 11  1  0  0  0  0
  5  7  1  0  0  0  0
  5 13  2  0  0  0  0
  6  1  2  0  0  0  0
  6  8  1  0  0  0  0
  7  6  1  0  0  0  0
  8 10  1  0  0  0  0
 10  9  2  0  0  0  0
 11 12  2  0  0  0  0
 12  9  1  0  0  0  0
 12  4  1  0  0  0  0
 13  3  1  0  0  0  0
 14 15  3  0  0  0  0
 15  1  1  0  0  0  0
 16 18  2  0  0  0  0
 16 19  1  0  0  0  0
 17 20  1  0  0  0  0
 17 14  1  0  0  0  0
 18 21  1  0  0  0  0
 19 17  2  0  0  0  0
 21 20  2  0  0  0  0
 22 23  1  0  0  0  0
 23 16  1  0  0  0  0
 24  2  1  0  0  0  0
 25 24  1  0  0  0  0
 26 25  1  0  0  0  0
 27 26  2  0  0  0  0
 28 32  1  6  0  0  0
 28 30  1  0  0  0  0
 28 26  1  0  0  0  0
 30 29  1  0  0  0  0
 31 32  2  0  0  0  0
M  END
>  <MODEL>
2

>  <REMARK>
 VINA RESULT:      -9.1      3.228      7.818
  Name = 
  9 active torsions:
  status: ('A' for Active; 'I' for Inactive)
    1  A    between atoms: C_1  and  C_17
    2  A    between atoms: C_1  and  C_20
    3  A    between atoms: C_3  and  C_19
    4  A    between atoms: N_5  and  N_22
    5  A    between atoms: C_7  and  C_16
    6  A    between atoms: C_11  and  O_15
    7  A    between atoms: C_12  and  C_20
    8  A    between atoms: C_17  and  N_22
    9  A    between atoms: C_20  and  C_27
                            x       y       z     vdW  Elec       q    Type
                         _______ _______ _______ _____ _____    ______ ____

>  <TORSDO>
F 9

$$$$
=
 OpenBabel10222416043D

 32 34  0  0  1  0  0  0  0  0999 V2000
  186.9160  177.7210  145.1360 C   0  0  0  0  0  3  0  0  0  0  0  0
  189.8870  176.9070  141.2490 N   0  0  0  0  0  2  0  0  0  0  0  0
  190.4950  176.8540  144.9040 C   0  0  0  0  0  0  0  0  0  0  0  0
  192.6160  176.3060  147.9150 N   0  0  0  0  0  1  0  0  0  0  0  0
  189.6610  177.0780  142.6510 C   0  0  0  0  0  0  0  0  0  0  0  0
  188.1350  177.5480  144.6140 C   0  0  0  0  0  0  0  0  0  0  0  0
  188.3750  177.7130  143.1330 C   0  0  0  0  0  2  0  0  0  0  0  0
  189.2810  177.2390  145.4950 C   0  0  0  0  0  0  0  0  0  0  0  0
  190.2880  176.9980  147.6940 C   0  0  0  0  0  3  0  0  0  0  0  0
  189.1830  177.3050  146.8960 C   0  0  0  0  0  3  0  0  0  0  0  0
  191.5960  176.5420  145.7080 C   0  0  0  0  0  3  0  0  0  0  0  0
  191.4940  176.6180  147.1010 C   0  0  0  0  0  0  0  0  0  0  0  0
  190.6050  176.7390  143.4800 N   0  0  0  0  0  0  0  0  0  0  0  0
  184.7760  178.2750  143.6800 C   0  0  0  0  0  0  0  0  0  0  0  0
  185.7470  178.0300  144.3520 C   0  0  0  0  0  0  0  0  0  0  0  0
  181.3150  179.2860  142.6880 C   0  0  0  0  0  0  0  0  0  0  0  0
  183.6260  178.5550  142.8700 C   0  0  0  0  0  0  0  0  0  0  0  0
  181.3740  179.0880  141.2990 C   0  0  0  0  0  3  0  0  0  0  0  0
  182.4460  179.0170  143.4680 C   0  0  0  0  0  3  0  0  0  0  0  0
  183.6780  178.3630  141.4870 C   0  0  0  0  0  3  0  0  0  0  0  0
  182.5530  178.6290  140.7010 C   0  0  0  0  0  3  0  0  0  0  0  0
  179.3700  178.9330  144.1790 C   0  0  0  0  0  1  0  0  0  0  0  0
  180.1540  179.7470  143.3170 O   0  0  0  0  0  0  0  0  0  0  0  0
  188.9640  177.3190  140.2770 N   0  0  0  0  0  2  0  0  0  0  0  0
  189.7130  177.9030  139.1750 C   0  0  0  0  0  2  0  0  0  0  0  0
  188.7680  178.3520  138.1040 C   0  0  0  0  0  0  0  0  0  0  0  0
  188.9150  179.4520  137.5950 O   0  0  0  0  0  0  0  0  0  0  0  0
  187.6300  177.4820  137.6570 C   0  0  1  0  0  3  0  0  0  0  0  0
  185.8700  178.7220  138.6980 O   0  0  0  0  0  1  0  0  0  0  0  0
  186.3510  178.2860  137.4630 C   0  0  0  0  0  2  0  0  0  0  0  0
  188.1800  175.5580  136.4090 O   0  0  0  0  0  0  0  0  0  0  0  0
  187.9930  176.7650  136.3970 C   0  0  0  0  0  3  0  0  0  0  0  0
  2  5  1  0  0  0  0
  3  8  2  0  0  0  0
  3 11  1  0  0  0  0
  5  7  1  0  0  0  0
  5 13  2  0  0  0  0
  6  1  2  0  0  0  0
  6  8  1  0  0  0  0
  7  6  1  0  0  0  0
  8 10  1  0  0  0  0
 10  9  2  0  0  0  0
 11 12  2  0  0  0  0
 12  9  1  0  0  0  0
 12  4  1  0  0  0  0
 13  3  1  0  0  0  0
 14 15  3  0  0  0  0
 15  1  1  0  0  0  0
 16 23  1  0  0  0  0
 16 19  1  0  0  0  0
 17 19  2  0  0  0  0
 17 14  1  0  0  0  0
 18 16  2  0  0  0  0
 20 17  1  0  0  0  0
 21 18  1  0  0  0  0
 21 20  2  0  0  0  0
 23 22  1  0  0  0  0
 24  2  1  0  0  0  0
 25 24  1  0  0  0  0
 26 25  1  0  0  0  0
 27 26  2  0  0  0  0
 28 32  1  6  0  0  0
 28 26  1  0  0  0  0
 30 28  1  0  0  0  0
 30 29  1  0  0  0  0
 32 31  2  0  0  0  0
M  END
>  <MODEL>
3

>  <REMARK>
 VINA RESULT:      -9.1      3.279      7.925
  Name = 
  9 active torsions:
  status: ('A' for Active; 'I' for Inactive)
    1  A    between atoms: C_1  and  C_17
    2  A    between atoms: C_1  and  C_20
    3  A    between atoms: C_3  and  C_19
    4  A    between atoms: N_5  and  N_22
    5  A    between atoms: C_7  and  C_16
    6  A    between atoms: C_11  and  O_15
    7  A    between atoms: C_12  and  C_20
    8  A    between atoms: C_17  and  N_22
    9  A    between atoms: C_20  and  C_27
                            x       y       z     vdW  Elec       q    Type
                         _______ _______ _______ _____ _____    ______ ____

>  <TORSDO>
F 9

$$$$
=
 OpenBabel10222416043D

 32 34  0  0  1  0  0  0  0  0999 V2000
  186.9080  177.6480  145.1370 C   0  0  0  0  0  3  0  0  0  0  0  0
  189.7180  177.0500  141.0940 N   0  0  0  0  0  2  0  0  0  0  0  0
  190.4730  176.7980  144.7130 C   0  0  0  0  0  0  0  0  0  0  0  0
  192.7150  176.0890  147.6000 N   0  0  0  0  0  1  0  0  0  0  0  0
  189.5480  177.1440  142.5110 C   0  0  0  0  0  0  0  0  0  0  0  0
  188.1050  177.5050  144.5570 C   0  0  0  0  0  0  0  0  0  0  0  0
  188.2850  177.7500  143.0780 C   0  0  0  0  0  2  0  0  0  0  0  0
  189.2850  177.1490  145.3720 C   0  0  0  0  0  0  0  0  0  0  0  0
  190.3800  176.7900  147.5130 C   0  0  0  0  0  3  0  0  0  0  0  0
  189.2440  177.1400  146.7780 C   0  0  0  0  0  3  0  0  0  0  0  0
  191.6060  176.4440  145.4530 C   0  0  0  0  0  3  0  0  0  0  0  0
  191.5600  176.4440  146.8510 C   0  0  0  0  0  0  0  0  0  0  0  0
  190.5250  176.7610  143.2810 N   0  0  0  0  0  0  0  0  0  0  0  0
  184.6970  178.2740  143.8240 C   0  0  0  0  0  0  0  0  0  0  0  0
  185.7090  177.9990  144.4180 C   0  0  0  0  0  0  0  0  0  0  0  0
  182.2830  178.8720  141.0310 C   0  0  0  0  0  0  0  0  0  0  0  0
  183.4840  178.5880  143.1240 C   0  0  0  0  0  0  0  0  0  0  0  0
  181.1280  179.2120  141.7530 C   0  0  0  0  0  3  0  0  0  0  0  0
  183.4590  178.5610  141.7250 C   0  0  0  0  0  3  0  0  0  0  0  0
  182.3300  178.9250  143.8370 C   0  0  0  0  0  3  0  0  0  0  0  0
  181.1520  179.2380  143.1520 C   0  0  0  0  0  3  0  0  0  0  0  0
  182.6940  179.9410  138.8360 C   0  0  0  0  0  1  0  0  0  0  0  0
  182.2920  178.8350  139.6320 O   0  0  0  0  0  0  0  0  0  0  0  0
  188.7560  177.5130  140.1840 N   0  0  0  0  0  2  0  0  0  0  0  0
  189.3080  177.3670  138.8450 C   0  0  0  0  0  2  0  0  0  0  0  0
  188.6540  178.3460  137.9210 C   0  0  0  0  0  0  0  0  0  0  0  0
  189.0230  179.5110  137.9190 O   0  0  0  0  0  0  0  0  0  0  0  0
  187.5390  177.9290  137.0080 C   0  0  1  0  0  3  0  0  0  0  0  0
  188.6930  176.7470  135.2790 O   0  0  0  0  0  1  0  0  0  0  0  0
  187.8210  176.5810  136.3560 C   0  0  0  0  0  2  0  0  0  0  0  0
  185.9550  178.7860  138.5290 O   0  0  0  0  0  0  0  0  0  0  0  0
  186.2470  177.8870  137.7560 C   0  0  0  0  0  3  0  0  0  0  0  0
  2  5  1  0  0  0  0
  3  8  2  0  0  0  0
  3 11  1  0  0  0  0
  5  7  1  0  0  0  0
  5 13  2  0  0  0  0
  6  1  2  0  0  0  0
  6  8  1  0  0  0  0
  7  6  1  0  0  0  0
  8 10  1  0  0  0  0
 10  9  2  0  0  0  0
 11 12  2  0  0  0  0
 12  9  1  0  0  0  0
 12  4  1  0  0  0  0
 13  3  1  0  0  0  0
 14 15  3  0  0  0  0
 15  1  1  0  0  0  0
 16 19  2  0  0  0  0
 16 18  1  0  0  0  0
 17 14  1  0  0  0  0
 17 20  2  0  0  0  0
 18 21  2  0  0  0  0
 19 17  1  0  0  0  0
 21 20  1  0  0  0  0
 22 23  1  0  0  0  0
 23 16  1  0  0  0  0
 24  2  1  0  0  0  0
 25 24  1  0  0  0  0
 26 25  1  0  0  0  0
 27 26  2  0  0  0  0
 28 30  1  1  0  0  0
 28 32  1  0  0  0  0
 28 26  1  0  0  0  0
 29 30  1  0  0  0  0
 32 31  2  0  0  0  0
M  END
>  <MODEL>
4

>  <REMARK>
 VINA RESULT:      -9.0      3.222      7.860
  Name = 
  9 active torsions:
  status: ('A' for Active; 'I' for Inactive)
    1  A    between atoms: C_1  and  C_17
    2  A    between atoms: C_1  and  C_20
    3  A    between atoms: C_3  and  C_19
    4  A    between atoms: N_5  and  N_22
    5  A    between atoms: C_7  and  C_16
    6  A    between atoms: C_11  and  O_15
    7  A    between atoms: C_12  and  C_20
    8  A    between atoms: C_17  and  N_22
    9  A    between atoms: C_20  and  C_27
                            x       y       z     vdW  Elec       q    Type
                         _______ _______ _______ _____ _____    ______ ____

>  <TORSDO>
F 9

$$$$
=
 OpenBabel10222416043D

 32 34  0  0  1  0  0  0  0  0999 V2000
  190.1800  176.7860  141.0820 C   0  0  0  0  0  3  0  0  0  0  0  0
  185.8590  179.0090  140.0860 N   0  0  0  0  0  2  0  0  0  0  0  0
  188.4650  177.5360  137.9020 C   0  0  0  0  0  0  0  0  0  0  0  0
  189.8520  176.5250  134.5980 N   0  0  0  0  0  1  0  0  0  0  0  0
  187.1020  178.4260  139.6830 C   0  0  0  0  0  0  0  0  0  0  0  0
  189.3240  177.3420  140.2170 C   0  0  0  0  0  0  0  0  0  0  0  0
  188.2070  178.2370  140.6970 C   0  0  0  0  0  2  0  0  0  0  0  0
  189.4920  177.1230  138.7650 C   0  0  0  0  0  0  0  0  0  0  0  0
  190.7550  176.3080  136.8540 C   0  0  0  0  0  3  0  0  0  0  0  0
  190.6370  176.5040  138.2320 C   0  0  0  0  0  3  0  0  0  0  0  0
  188.5860  177.3330  136.5230 C   0  0  0  0  0  3  0  0  0  0  0  0
  189.7300  176.7240  136.0000 C   0  0  0  0  0  0  0  0  0  0  0  0
  187.2720  178.1310  138.4270 N   0  0  0  0  0  0  0  0  0  0  0  0
  190.0070  177.0750  143.7070 C   0  0  0  0  0  0  0  0  0  0  0  0
  190.0920  176.9530  142.5110 C   0  0  0  0  0  0  0  0  0  0  0  0
  190.9160  177.0770  147.3350 C   0  0  0  0  0  0  0  0  0  0  0  0
  189.8980  177.2040  145.1320 C   0  0  0  0  0  0  0  0  0  0  0  0
  189.6880  177.4410  147.9110 C   0  0  0  0  0  3  0  0  0  0  0  0
  191.0130  176.9610  145.9430 C   0  0  0  0  0  3  0  0  0  0  0  0
  188.6790  177.5680  145.7120 C   0  0  0  0  0  3  0  0  0  0  0  0
  188.5740  177.6860  147.1010 C   0  0  0  0  0  3  0  0  0  0  0  0
  192.8050  175.6280  148.0150 C   0  0  0  0  0  1  0  0  0  0  0  0
  192.0500  176.8280  148.1150 O   0  0  0  0  0  0  0  0  0  0  0  0
  185.6140  179.4360  141.4000 N   0  0  0  0  0  2  0  0  0  0  0  0
  184.9210  178.3590  142.0920 C   0  0  0  0  0  2  0  0  0  0  0  0
  185.4620  178.2220  143.4810 C   0  0  0  0  0  0  0  0  0  0  0  0
  186.2980  177.3640  143.7190 O   0  0  0  0  0  0  0  0  0  0  0  0
  184.9830  179.1080  144.5930 C   0  0  1  0  0  3  0  0  0  0  0  0
  182.6420  178.6280  144.6690 O   0  0  0  0  0  1  0  0  0  0  0  0
  183.5700  179.6160  144.3390 C   0  0  0  0  0  2  0  0  0  0  0  0
  185.0310  179.0030  146.9480 O   0  0  0  0  0  0  0  0  0  0  0  0
  185.0510  178.3820  145.8970 C   0  0  0  0  0  3  0  0  0  0  0  0
  1 15  1  0  0  0  0
  2 24  1  0  0  0  0
  3 13  1  0  0  0  0
  3  8  1  0  0  0  0
  4 12  1  0  0  0  0
  5  2  1  0  0  0  0
  5  7  1  0  0  0  0
  6  7  1  0  0  0  0
  6  1  2  0  0  0  0
  8  6  1  0  0  0  0
  9 10  1  0  0  0  0
 10  8  2  0  0  0  0
 11  3  2  0  0  0  0
 12 11  1  0  0  0  0
 12  9  2  0  0  0  0
 13  5  2  0  0  0  0
 14 17  1  0  0  0  0
 15 14  3  0  0  0  0
 16 18  1  0  0  0  0
 16 23  1  0  0  0  0
 17 20  2  0  0  0  0
 17 19  1  0  0  0  0
 19 16  2  0  0  0  0
 20 21  1  0  0  0  0
 21 18  2  0  0  0  0
 22 23  1  0  0  0  0
 24 25  1  0  0  0  0
 25 26  1  0  0  0  0
 26 27  2  0  0  0  0
 26 28  1  0  0  0  0
 28 30  1  6  0  0  0
 28 32  1  0  0  0  0
 30 29  1  0  0  0  0
 32 31  2  0  0  0  0
M  END
>  <MODEL>
5

>  <REMARK>
 VINA RESULT:      -8.7      2.586      6.064
  Name = 
  9 active torsions:
  status: ('A' for Active; 'I' for Inactive)
    1  A    between atoms: C_1  and  C_17
    2  A    between atoms: C_1  and  C_20
    3  A    between atoms: C_3  and  C_19
    4  A    between atoms: N_5  and  N_22
    5  A    between atoms: C_7  and  C_16
    6  A    between atoms: C_11  and  O_15
    7  A    between atoms: C_12  and  C_20
    8  A    between atoms: C_17  and  N_22
    9  A    between atoms: C_20  and  C_27
                            x       y       z     vdW  Elec       q    Type
                         _______ _______ _______ _____ _____    ______ ____

>  <TORSDO>
F 9

$$$$
=
 OpenBabel10222416043D

 32 34  0  0  1  0  0  0  0  0999 V2000
  184.1650  178.6680  144.1350 C   0  0  0  0  0  3  0  0  0  0  0  0
  186.5090  178.6310  139.7640 N   0  0  0  0  0  2  0  0  0  0  0  0
  182.9340  178.9940  140.6720 C   0  0  0  0  0  0  0  0  0  0  0  0
  179.3420  179.5610  139.8740 N   0  0  0  0  0  1  0  0  0  0  0  0
  185.3190  178.6460  140.5590 C   0  0  0  0  0  0  0  0  0  0  0  0
  184.1440  178.6100  142.7990 C   0  0  0  0  0  0  0  0  0  0  0  0
  185.3860  178.2540  142.0180 C   0  0  0  0  0  2  0  0  0  0  0  0
  182.8820  178.8490  142.0670 C   0  0  0  0  0  0  0  0  0  0  0  0
  180.4750  179.1830  142.0010 C   0  0  0  0  0  3  0  0  0  0  0  0
  181.6450  178.9490  142.7280 C   0  0  0  0  0  3  0  0  0  0  0  0
  181.7610  179.2330  139.9490 C   0  0  0  0  0  3  0  0  0  0  0  0
  180.5330  179.3230  140.6120 C   0  0  0  0  0  0  0  0  0  0  0  0
  184.1890  178.9370  139.9830 N   0  0  0  0  0  0  0  0  0  0  0  0
  186.3390  178.2350  145.5810 C   0  0  0  0  0  0  0  0  0  0  0  0
  185.3480  178.4430  144.9260 C   0  0  0  0  0  0  0  0  0  0  0  0
  189.8050  177.1590  146.4820 C   0  0  0  0  0  0  0  0  0  0  0  0
  187.5180  177.9710  146.3540 C   0  0  0  0  0  0  0  0  0  0  0  0
  189.8160  177.4400  147.8580 C   0  0  0  0  0  3  0  0  0  0  0  0
  188.6510  177.4270  145.7360 C   0  0  0  0  0  3  0  0  0  0  0  0
  187.5370  178.2500  147.7240 C   0  0  0  0  0  3  0  0  0  0  0  0
  188.6850  177.9850  148.4760 C   0  0  0  0  0  3  0  0  0  0  0  0
  192.0130  176.0390  146.5330 C   0  0  0  0  0  1  0  0  0  0  0  0
  190.9190  176.6160  145.8330 O   0  0  0  0  0  0  0  0  0  0  0  0
  187.7580  178.2510  140.2770 N   0  0  0  0  0  2  0  0  0  0  0  0
  188.7200  178.3110  139.1870 C   0  0  0  0  0  2  0  0  0  0  0  0
  189.9360  177.5160  139.5440 C   0  0  0  0  0  0  0  0  0  0  0  0
  190.1380  177.2170  140.7110 O   0  0  0  0  0  0  0  0  0  0  0  0
  190.9240  177.0930  138.4980 C   0  0  1  0  0  3  0  0  0  0  0  0
  193.3060  177.0410  138.2870 O   0  0  0  0  0  1  0  0  0  0  0  0
  192.2490  176.6630  139.1160 C   0  0  0  0  0  2  0  0  0  0  0  0
  190.5480  174.8260  137.9710 O   0  0  0  0  0  0  0  0  0  0  0  0
  190.3540  175.9920  137.6650 C   0  0  0  0  0  3  0  0  0  0  0  0
  1 15  1  0  0  0  0
  2 24  1  0  0  0  0
  2  5  1  0  0  0  0
  3  8  1  0  0  0  0
  4 12  1  0  0  0  0
  5  7  1  0  0  0  0
  6  1  2  0  0  0  0
  7  6  1  0  0  0  0
  8 10  2  0  0  0  0
  8  6  1  0  0  0  0
  9 10  1  0  0  0  0
 11 12  1  0  0  0  0
 11  3  2  0  0  0  0
 12  9  2  0  0  0  0
 13  5  2  0  0  0  0
 13  3  1  0  0  0  0
 14 17  1  0  0  0  0
 15 14  3  0  0  0  0
 16 18  1  0  0  0  0
 17 20  2  0  0  0  0
 18 21  2  0  0  0  0
 19 17  1  0  0  0  0
 19 16  2  0  0  0  0
 20 21  1  0  0  0  0
 23 16  1  0  0  0  0
 23 22  1  0  0  0  0
 25 26  1  0  0  0  0
 25 24  1  0  0  0  0
 26 27  2  0  0  0  0
 28 32  1  1  0  0  0
 28 30  1  0  0  0  0
 28 26  1  0  0  0  0
 29 30  1  0  0  0  0
 32 31  2  0  0  0  0
M  END
>  <MODEL>
6

>  <REMARK>
 VINA RESULT:      -8.4      1.291      2.154
  Name = 
  9 active torsions:
  status: ('A' for Active; 'I' for Inactive)
    1  A    between atoms: C_1  and  C_17
    2  A    between atoms: C_1  and  C_20
    3  A    between atoms: C_3  and  C_19
    4  A    between atoms: N_5  and  N_22
    5  A    between atoms: C_7  and  C_16
    6  A    between atoms: C_11  and  O_15
    7  A    between atoms: C_12  and  C_20
    8  A    between atoms: C_17  and  N_22
    9  A    between atoms: C_20  and  C_27
                            x       y       z     vdW  Elec       q    Type
                         _______ _______ _______ _____ _____    ______ ____

>  <TORSDO>
F 9

$$$$
=
 OpenBabel10222416043D

 32 34  0  0  1  0  0  0  0  0999 V2000
  186.8110  177.6930  144.7130 C   0  0  0  0  0  3  0  0  0  0  0  0
  189.9930  177.1340  140.9490 N   0  0  0  0  0  2  0  0  0  0  0  0
  190.4210  176.9320  144.6250 C   0  0  0  0  0  0  0  0  0  0  0  0
  192.4060  176.3060  147.7120 N   0  0  0  0  0  1  0  0  0  0  0  0
  189.6930  177.2360  142.3440 C   0  0  0  0  0  0  0  0  0  0  0  0
  188.0600  177.5770  144.2460 C   0  0  0  0  0  0  0  0  0  0  0  0
  188.3680  177.8140  142.7870 C   0  0  0  0  0  2  0  0  0  0  0  0
  189.1690  177.2580  145.1690 C   0  0  0  0  0  0  0  0  0  0  0  0
  190.0720  176.9460  147.4050 C   0  0  0  0  0  3  0  0  0  0  0  0
  189.0000  177.2590  146.5650 C   0  0  0  0  0  3  0  0  0  0  0  0
  191.4900  176.6140  145.4690 C   0  0  0  0  0  3  0  0  0  0  0  0
  191.3160  176.6250  146.8570 C   0  0  0  0  0  0  0  0  0  0  0  0
  190.6040  176.8850  143.2050 N   0  0  0  0  0  0  0  0  0  0  0  0
  184.7320  178.2570  143.1760 C   0  0  0  0  0  0  0  0  0  0  0  0
  185.6750  178.0060  143.8840 C   0  0  0  0  0  0  0  0  0  0  0  0
  181.2340  178.9320  142.0390 C   0  0  0  0  0  0  0  0  0  0  0  0
  183.6160  178.5430  142.3210 C   0  0  0  0  0  0  0  0  0  0  0  0
  181.4340  179.0880  140.6580 C   0  0  0  0  0  3  0  0  0  0  0  0
  182.3310  178.6600  142.8650 C   0  0  0  0  0  3  0  0  0  0  0  0
  183.8090  178.7020  140.9450 C   0  0  0  0  0  3  0  0  0  0  0  0
  182.7180  178.9740  140.1130 C   0  0  0  0  0  3  0  0  0  0  0  0
  179.7250  178.8270  143.9990 C   0  0  0  0  0  1  0  0  0  0  0  0
  179.9640  179.0430  142.6150 O   0  0  0  0  0  0  0  0  0  0  0  0
  189.1070  177.5640  139.9510 N   0  0  0  0  0  2  0  0  0  0  0  0
  189.9030  178.0290  138.8240 C   0  0  0  0  0  2  0  0  0  0  0  0
  189.9000  176.9940  137.7430 C   0  0  0  0  0  0  0  0  0  0  0  0
  188.8370  176.6320  137.2610 O   0  0  0  0  0  0  0  0  0  0  0  0
  191.1760  176.3780  137.2520 C   0  0  1  0  0  3  0  0  0  0  0  0
  193.5070  176.7220  137.6590 O   0  0  0  0  0  1  0  0  0  0  0  0
  192.2860  176.4810  138.2900 C   0  0  0  0  0  2  0  0  0  0  0  0
  191.3400  174.0510  137.5970 O   0  0  0  0  0  0  0  0  0  0  0  0
  190.9480  174.9510  136.8710 C   0  0  0  0  0  3  0  0  0  0  0  0
  2  5  1  0  0  0  0
  3  8  2  0  0  0  0
  3 11  1  0  0  0  0
  5  7  1  0  0  0  0
  5 13  2  0  0  0  0
  6  1  2  0  0  0  0
  6  8  1  0  0  0  0
  7  6  1  0  0  0  0
  8 10  1  0  0  0  0
 10  9  2  0  0  0  0
 11 12  2  0  0  0  0
 12  9  1  0  0  0  0
 12  4  1  0  0  0  0
 13  3  1  0  0  0  0
 14 15  3  0  0  0  0
 15  1  1  0  0  0  0
 16 23  1  0  0  0  0
 16 19  1  0  0  0  0
 17 19  2  0  0  0  0
 17 14  1  0  0  0  0
 18 16  2  0  0  0  0
 20 17  1  0  0  0  0
 21 18  1  0  0  0  0
 21 20  2  0  0  0  0
 23 22  1  0  0  0  0
 24  2  1  0  0  0  0
 25 24  1  0  0  0  0
 26 25  1  0  0  0  0
 27 26  2  0  0  0  0
 28 32  1  1  0  0  0
 28 26  1  0  0  0  0
 28 30  1  0  0  0  0
 29 30  1  0  0  0  0
 32 31  2  0  0  0  0
M  END
>  <MODEL>
7

>  <REMARK>
 VINA RESULT:      -8.4      3.212      7.835
  Name = 
  9 active torsions:
  status: ('A' for Active; 'I' for Inactive)
    1  A    between atoms: C_1  and  C_17
    2  A    between atoms: C_1  and  C_20
    3  A    between atoms: C_3  and  C_19
    4  A    between atoms: N_5  and  N_22
    5  A    between atoms: C_7  and  C_16
    6  A    between atoms: C_11  and  O_15
    7  A    between atoms: C_12  and  C_20
    8  A    between atoms: C_17  and  N_22
    9  A    between atoms: C_20  and  C_27
                            x       y       z     vdW  Elec       q    Type
                         _______ _______ _______ _____ _____    ______ ____

>  <TORSDO>
F 9

$$$$
=
 OpenBabel10222416043D

 32 34  0  0  1  0  0  0  0  0999 V2000
  189.8800  176.8530  141.6530 C   0  0  0  0  0  3  0  0  0  0  0  0
  185.9750  178.7650  139.2670 N   0  0  0  0  0  2  0  0  0  0  0  0
  189.1420  177.2670  138.0610 C   0  0  0  0  0  0  0  0  0  0  0  0
  191.4560  176.0810  135.3960 N   0  0  0  0  0  1  0  0  0  0  0  0
  187.2970  178.2180  139.2900 C   0  0  0  0  0  0  0  0  0  0  0  0
  189.2980  177.2960  140.5330 C   0  0  0  0  0  0  0  0  0  0  0  0
  188.0650  178.1650  140.5910 C   0  0  0  0  0  2  0  0  0  0  0  0
  189.8860  176.9750  139.2150 C   0  0  0  0  0  0  0  0  0  0  0  0
  191.6710  176.0850  137.8260 C   0  0  0  0  0  3  0  0  0  0  0  0
  191.1530  176.3790  139.0900 C   0  0  0  0  0  3  0  0  0  0  0  0
  189.6630  176.9660  136.7980 C   0  0  0  0  0  3  0  0  0  0  0  0
  190.9270  176.3800  136.6810 C   0  0  0  0  0  0  0  0  0  0  0  0
  187.8320  177.8370  138.1670 N   0  0  0  0  0  0  0  0  0  0  0  0
  188.9730  177.3390  144.0910 C   0  0  0  0  0  0  0  0  0  0  0  0
  189.3780  177.1230  142.9760 C   0  0  0  0  0  0  0  0  0  0  0  0
  186.7040  178.1920  146.9380 C   0  0  0  0  0  0  0  0  0  0  0  0
  188.5070  177.5890  145.4240 C   0  0  0  0  0  0  0  0  0  0  0  0
  187.5940  178.0920  148.0200 C   0  0  0  0  0  3  0  0  0  0  0  0
  187.1690  177.9390  145.6420 C   0  0  0  0  0  3  0  0  0  0  0  0
  189.3870  177.4890  146.5060 C   0  0  0  0  0  3  0  0  0  0  0  0
  188.9310  177.7400  147.8040 C   0  0  0  0  0  3  0  0  0  0  0  0
  184.4370  178.6290  146.0450 C   0  0  0  0  0  1  0  0  0  0  0  0
  185.3610  178.5380  147.1200 O   0  0  0  0  0  0  0  0  0  0  0  0
  185.3470  179.2770  140.4130 N   0  0  0  0  0  2  0  0  0  0  0  0
  183.9090  179.1590  140.2190 C   0  0  0  0  0  2  0  0  0  0  0  0
  183.2820  178.5740  141.4450 C   0  0  0  0  0  0  0  0  0  0  0  0
  183.9890  178.0400  142.2860 O   0  0  0  0  0  0  0  0  0  0  0  0
  181.7970  178.6150  141.6540 C   0  0  1  0  0  3  0  0  0  0  0  0
  181.0920  178.4960  143.9360 O   0  0  0  0  0  1  0  0  0  0  0  0
  181.4270  179.3860  142.9140 C   0  0  0  0  0  2  0  0  0  0  0  0
  180.4470  178.5100  139.7230 O   0  0  0  0  0  0  0  0  0  0  0  0
  181.1240  179.2100  140.4600 C   0  0  0  0  0  3  0  0  0  0  0  0
  1 15  1  0  0  0  0
  2  5  1  0  0  0  0
  2 24  1  0  0  0  0
  3 13  1  0  0  0  0
  3  8  1  0  0  0  0
  4 12  1  0  0  0  0
  5  7  1  0  0  0  0
  6  7  1  0  0  0  0
  6  1  2  0  0  0  0
  8  6  1  0  0  0  0
  9 10  1  0  0  0  0
 10  8  2  0  0  0  0
 11  3  2  0  0  0  0
 12 11  1  0  0  0  0
 12  9  2  0  0  0  0
 13  5  2  0  0  0  0
 14 17  1  0  0  0  0
 15 14  3  0  0  0  0
 16 23  1  0  0  0  0
 16 18  1  0  0  0  0
 17 19  1  0  0  0  0
 17 20  2  0  0  0  0
 19 16  2  0  0  0  0
 20 21  1  0  0  0  0
 21 18  2  0  0  0  0
 22 23  1  0  0  0  0
 25 24  1  0  0  0  0
 25 26  1  0  0  0  0
 26 28  1  0  0  0  0
 26 27  2  0  0  0  0
 28 32  1  6  0  0  0
 28 30  1  0  0  0  0
 30 29  1  0  0  0  0
 31 32  2  0  0  0  0
M  END
>  <MODEL>
8

>  <REMARK>
 VINA RESULT:      -8.1      3.104      7.045
  Name = 
  9 active torsions:
  status: ('A' for Active; 'I' for Inactive)
    1  A    between atoms: C_1  and  C_17
    2  A    between atoms: C_1  and  C_20
    3  A    between atoms: C_3  and  C_19
    4  A    between atoms: N_5  and  N_22
    5  A    between atoms: C_7  and  C_16
    6  A    between atoms: C_11  and  O_15
    7  A    between atoms: C_12  and  C_20
    8  A    between atoms: C_17  and  N_22
    9  A    between atoms: C_20  and  C_27
                            x       y       z     vdW  Elec       q    Type
                         _______ _______ _______ _____ _____    ______ ____

>  <TORSDO>
F 9

$$$$
=
 OpenBabel10222416043D

 32 34  0  0  1  0  0  0  0  0999 V2000
  188.2200  177.7620  140.3270 C   0  0  0  0  0  3  0  0  0  0  0  0
  191.9520  177.8020  143.5940 N   0  0  0  0  0  2  0  0  0  0  0  0
  191.8370  177.1320  139.9520 C   0  0  0  0  0  0  0  0  0  0  0  0
  193.4020  176.3830  136.6570 N   0  0  0  0  0  1  0  0  0  0  0  0
  191.4180  177.5570  142.2900 C   0  0  0  0  0  0  0  0  0  0  0  0
  189.4890  177.4930  140.6550 C   0  0  0  0  0  0  0  0  0  0  0  0
  189.9230  177.4390  142.0990 C   0  0  0  0  0  2  0  0  0  0  0  0
  190.4800  177.1970  139.5980 C   0  0  0  0  0  0  0  0  0  0  0  0
  191.0710  176.7250  137.2880 C   0  0  0  0  0  3  0  0  0  0  0  0
  190.1030  176.9950  138.2580 C   0  0  0  0  0  3  0  0  0  0  0  0
  192.8020  176.8660  138.9750 C   0  0  0  0  0  3  0  0  0  0  0  0
  192.4190  176.6590  137.6460 C   0  0  0  0  0  0  0  0  0  0  0  0
  192.2470  177.3760  141.3030 N   0  0  0  0  0  0  0  0  0  0  0  0
  186.3280  178.2800  142.1040 C   0  0  0  0  0  0  0  0  0  0  0  0
  187.1910  178.0550  141.2920 C   0  0  0  0  0  0  0  0  0  0  0  0
  184.6070  178.7000  145.3970 C   0  0  0  0  0  0  0  0  0  0  0  0
  185.3020  178.5310  143.0750 C   0  0  0  0  0  0  0  0  0  0  0  0
  183.3030  179.0040  144.9720 C   0  0  0  0  0  3  0  0  0  0  0  0
  185.6020  178.4640  144.4410 C   0  0  0  0  0  3  0  0  0  0  0  0
  184.0030  178.8370  142.6590 C   0  0  0  0  0  3  0  0  0  0  0  0
  183.0030  179.0730  143.6070 C   0  0  0  0  0  3  0  0  0  0  0  0
  185.9920  179.3870  147.3300 C   0  0  0  0  0  1  0  0  0  0  0  0
  184.9400  178.6250  146.7530 O   0  0  0  0  0  0  0  0  0  0  0  0
  191.1410  177.9270  144.7320 N   0  0  0  0  0  2  0  0  0  0  0  0
  191.5260  176.8810  145.6680 C   0  0  0  0  0  2  0  0  0  0  0  0
  190.8750  177.1240  146.9930 C   0  0  0  0  0  0  0  0  0  0  0  0
  191.4560  176.7980  148.0170 O   0  0  0  0  0  0  0  0  0  0  0  0
  189.5120  177.7440  147.0880 C   0  0  1  0  0  3  0  0  0  0  0  0
  187.9860  177.0320  145.3900 O   0  0  0  0  0  1  0  0  0  0  0  0
  188.4180  176.7620  146.6890 C   0  0  0  0  0  2  0  0  0  0  0  0
  188.3340  177.8400  149.1280 O   0  0  0  0  0  0  0  0  0  0  0  0
  189.2750  178.2580  148.4700 C   0  0  0  0  0  3  0  0  0  0  0  0
  1  6  2  0  0  0  0
  1 15  1  0  0  0  0
  2 24  1  0  0  0  0
  3 13  1  0  0  0  0
  4 12  1  0  0  0  0
  5  2  1  0  0  0  0
  6  7  1  0  0  0  0
  7  5  1  0  0  0  0
  8  3  1  0  0  0  0
  8  6  1  0  0  0  0
  9 12  2  0  0  0  0
  9 10  1  0  0  0  0
 10  8  2  0  0  0  0
 11  3  2  0  0  0  0
 12 11  1  0  0  0  0
 13  5  2  0  0  0  0
 14 17  1  0  0  0  0
 15 14  3  0  0  0  0
 16 23  1  0  0  0  0
 17 19  1  0  0  0  0
 18 16  1  0  0  0  0
 19 16  2  0  0  0  0
 20 17  2  0  0  0  0
 20 21  1  0  0  0  0
 21 18  2  0  0  0  0
 23 22  1  0  0  0  0
 24 25  1  0  0  0  0
 25 26  1  0  0  0  0
 26 28  1  0  0  0  0
 26 27  2  0  0  0  0
 28 30  1  1  0  0  0
 28 32  1  0  0  0  0
 29 30  1  0  0  0  0
 32 31  2  0  0  0  0
M  END
>  <MODEL>
9

>  <REMARK>
 VINA RESULT:      -7.9      3.625      7.360
  Name = 
  9 active torsions:
  status: ('A' for Active; 'I' for Inactive)
    1  A    between atoms: C_1  and  C_17
    2  A    between atoms: C_1  and  C_20
    3  A    between atoms: C_3  and  C_19
    4  A    between atoms: N_5  and  N_22
    5  A    between atoms: C_7  and  C_16
    6  A    between atoms: C_11  and  O_15
    7  A    between atoms: C_12  and  C_20
    8  A    between atoms: C_17  and  N_22
    9  A    between atoms: C_20  and  C_27
                            x       y       z     vdW  Elec       q    Type
                         _______ _______ _______ _____ _____    ______ ____

>  <TORSDO>
F 9

$$$$
