=
 OpenBabel10222415273D

 31 37  0  0  1  0  0  0  0  0999 V2000
  188.5700  178.0540  141.6740 C   0  0  2  0  0  3  0  0  0  0  0  0
  181.8510  179.2180  142.6750 C   0  0  0  0  0  1  0  0  0  0  0  0
  191.0430  177.2530  141.4020 C   0  0  0  0  0  2  0  0  0  0  0  0
  187.6980  178.3640  145.9440 C   0  0  1  0  0  3  0  0  0  0  0  0
  183.7240  179.3820  139.6170 C   0  0  0  0  0  3  0  0  0  0  0  0
  184.2840  178.2550  145.2220 C   0  0  0  0  0  3  0  0  0  0  0  0
  186.1160  178.6750  142.1460 C   0  0  1  0  0  3  0  0  0  0  0  0
  189.7930  178.2260  139.4580 C   0  0  0  0  0  2  0  0  0  0  0  0
  182.6440  179.6160  140.2890 N   0  0  0  0  0  0  0  0  0  0  0  0
  189.7420  177.2260  142.1560 C   0  0  0  0  0  0  0  0  0  0  0  0
  182.7290  178.9020  141.5120 C   0  0  1  0  0  3  0  0  0  0  0  0
  184.8000  178.1980  142.6700 C   0  0  0  0  0  0  0  0  0  0  0  0
  184.4910  178.2390  143.9380 C   0  0  0  0  0  0  0  0  0  0  0  0
  187.2350  177.6180  142.3250 C   0  0  2  0  0  3  0  0  0  0  0  0
  189.7580  176.6890  143.3770 C   0  0  0  0  0  3  0  0  0  0  0  0
  183.8690  178.2250  141.5710 C   0  0  2  0  0  3  0  0  0  0  0  0
  188.4610  177.9450  140.1480 C   0  0  0  0  0  2  0  0  0  0  0  0
  188.2140  178.1580  144.5710 N   0  0  2  0  0  0  0  0  0  0  0  0
  190.8560  177.2120  139.8840 C   0  0  2  0  0  0  0  0  0  0  0  0
  186.4160  178.9660  145.9970 O   0  0  0  0  0  0  0  0  0  0  0  0
  187.3310  177.2330  143.8290 C   0  0  2  0  0  3  0  0  0  0  0  0
  188.6140  176.7460  144.3470 C   0  0  1  0  0  3  0  0  0  0  0  0
  190.4700  175.8050  139.4440 C   0  0  0  0  0  1  0  0  0  0  0  0
  185.4320  177.9680  146.1330 C   0  0  0  0  0  2  0  0  0  0  0  0
  185.8970  179.0270  140.7280 N   0  0  0  0  0  2  0  0  0  0  0  0
  184.6220  178.4190  140.3290 C   0  0  2  0  0  3  0  0  0  0  0  0
  189.3370  177.7090  147.7110 C   0  0  0  0  0  2  0  0  0  0  0  0
  188.0140  177.9800  148.3940 C   0  0  0  0  0  2  0  0  0  0  0  0
  188.0390  177.3220  147.0280 C   0  0  0  0  0  3  0  0  0  0  0  0
  192.1890  177.5780  139.2470 C   0  0  0  0  0  2  0  0  0  0  0  0
  193.2200  177.5220  140.1720 F   0  0  0  0  0  0  0  0  0  0  0  0
  1 17  1  6  0  0  0
  1 10  1  0  0  0  0
  1 14  1  0  0  0  0
  3 10  1  0  0  0  0
  4 20  1  0  0  0  0
  4 29  1  6  0  0  0
  5  9  2  0  0  0  0
  5 26  1  0  0  0  0
  6 24  1  0  0  0  0
  7 25  1  6  0  0  0
  7 14  1  0  0  0  0
  7 12  1  0  0  0  0
  8 19  1  0  0  0  0
  8 17  1  0  0  0  0
  9 11  1  0  0  0  0
 10 15  2  0  0  0  0
 11 16  1  0  0  0  0
 11  2  1  1  0  0  0
 12 13  2  0  0  0  0
 13  6  2  0  0  0  0
 14 21  1  0  0  0  0
 15 22  1  0  0  0  0
 16 12  1  0  0  0  0
 18  4  1  0  0  0  0
 19  3  1  0  0  0  0
 20 24  1  0  0  0  0
 21 22  1  0  0  0  0
 21 18  1  0  0  0  0
 22 18  1  0  0  0  0
 23 19  1  0  0  0  0
 26 25  1  0  0  0  0
 26 16  1  0  0  0  0
 27 28  1  0  0  0  0
 29 27  1  0  0  0  0
 29 28  1  0  0  0  0
 30 19  1  0  0  0  0
 30 31  1  0  0  0  0
M  END
>  <MODEL>
1

>  <REMARK>
 VINA RESULT:      -9.1      0.000      0.000
  Name = 
  2 active torsions:
  status: ('A' for Active; 'I' for Inactive)
    1  A    between atoms: C_4  and  C_24
    2  A    between atoms: C_5  and  C_21
                            x       y       z     vdW  Elec       q    Type
                         _______ _______ _______ _____ _____    ______ ____

>  <TORSDO>
F 2

$$$$
=
 OpenBabel10222415273D

 31 37  0  0  1  0  0  0  0  0999 V2000
  187.9120  177.4280  140.7270 C   0  0  2  0  0  3  0  0  0  0  0  0
  190.2630  176.9010  147.1840 C   0  0  0  0  0  1  0  0  0  0  0  0
  187.0200  178.0060  138.3400 C   0  0  0  0  0  2  0  0  0  0  0  0
  184.6680  178.0570  143.5850 C   0  0  1  0  0  3  0  0  0  0  0  0
  191.9030  176.0000  144.1200 C   0  0  0  0  0  3  0  0  0  0  0  0
  187.0150  178.2200  146.1650 C   0  0  0  0  0  3  0  0  0  0  0  0
  188.6510  177.0670  143.1670 C   0  0  1  0  0  3  0  0  0  0  0  0
  189.1600  176.7310  138.6300 C   0  0  0  0  0  2  0  0  0  0  0  0
  191.8380  175.9740  145.4120 N   0  0  0  0  0  0  0  0  0  0  0  0
  187.0360  178.2660  139.8210 C   0  0  0  0  0  0  0  0  0  0  0  0
  190.8600  176.9180  145.8180 C   0  0  1  0  0  3  0  0  0  0  0  0
  188.9370  177.7200  144.4810 C   0  0  0  0  0  0  0  0  0  0  0  0
  188.0070  177.9590  145.3650 C   0  0  0  0  0  0  0  0  0  0  0  0
  188.0930  178.0690  142.1240 C   0  0  2  0  0  3  0  0  0  0  0  0
  186.0680  179.0410  140.3120 C   0  0  0  0  0  3  0  0  0  0  0  0
  190.3370  177.5230  144.7580 C   0  0  2  0  0  3  0  0  0  0  0  0
  189.2830  177.2270  140.0690 C   0  0  0  0  0  2  0  0  0  0  0  0
  185.6080  177.9440  142.4460 N   0  0  2  0  0  0  0  0  0  0  0  0
  188.4130  177.7450  137.7620 C   0  0  2  0  0  0  0  0  0  0  0  0
  185.1780  177.5570  144.8100 O   0  0  0  0  0  0  0  0  0  0  0  0
  186.8220  178.7490  142.7070 C   0  0  2  0  0  3  0  0  0  0  0  0
  185.8080  179.2530  141.7750 C   0  0  1  0  0  3  0  0  0  0  0  0
  189.1900  179.0520  137.6660 C   0  0  0  0  0  1  0  0  0  0  0  0
  185.7040  178.6190  145.5690 C   0  0  0  0  0  2  0  0  0  0  0  0
  189.9180  176.4440  142.7270 N   0  0  0  0  0  2  0  0  0  0  0  0
  190.9880  177.0330  143.5390 C   0  0  2  0  0  3  0  0  0  0  0  0
  182.4320  178.9590  142.9300 C   0  0  0  0  0  2  0  0  0  0  0  0
  182.4850  178.9200  144.4430 C   0  0  0  0  0  2  0  0  0  0  0  0
  183.7280  179.2780  143.6520 C   0  0  0  0  0  3  0  0  0  0  0  0
  188.2310  177.1760  136.3620 C   0  0  0  0  0  2  0  0  0  0  0  0
  187.7030  178.1240  135.5000 F   0  0  0  0  0  0  0  0  0  0  0  0
  1 17  1  6  0  0  0
  1 14  1  0  0  0  0
  3 10  1  0  0  0  0
  4 29  1  1  0  0  0
  4 20  1  0  0  0  0
  5  9  2  0  0  0  0
  7 25  1  6  0  0  0
  7 12  1  0  0  0  0
  8 17  1  0  0  0  0
  9 11  1  0  0  0  0
 10 15  2  0  0  0  0
 10  1  1  0  0  0  0
 11  2  1  6  0  0  0
 12 16  1  0  0  0  0
 12 13  2  0  0  0  0
 13  6  2  0  0  0  0
 14 21  1  0  0  0  0
 14  7  1  0  0  0  0
 15 22  1  0  0  0  0
 16 11  1  0  0  0  0
 18 21  1  0  0  0  0
 18  4  1  0  0  0  0
 19  3  1  0  0  0  0
 19  8  1  0  0  0  0
 20 24  1  0  0  0  0
 22 18  1  0  0  0  0
 22 21  1  0  0  0  0
 23 19  1  0  0  0  0
 24  6  1  0  0  0  0
 25 26  1  0  0  0  0
 26  5  1  0  0  0  0
 26 16  1  0  0  0  0
 27 29  1  0  0  0  0
 27 28  1  0  0  0  0
 29 28  1  0  0  0  0
 30 19  1  0  0  0  0
 31 30  1  0  0  0  0
M  END
>  <MODEL>
2

>  <REMARK>
 VINA RESULT:      -9.0      2.259      5.627
  Name = 
  2 active torsions:
  status: ('A' for Active; 'I' for Inactive)
    1  A    between atoms: C_4  and  C_24
    2  A    between atoms: C_5  and  C_21
                            x       y       z     vdW  Elec       q    Type
                         _______ _______ _______ _____ _____    ______ ____

>  <TORSDO>
F 2

$$$$
=
 OpenBabel10222415273D

 31 37  0  0  1  0  0  0  0  0999 V2000
  189.1190  177.6490  141.0830 C   0  0  2  0  0  3  0  0  0  0  0  0
  182.8500  179.1030  143.5490 C   0  0  0  0  0  1  0  0  0  0  0  0
  191.4270  176.7380  140.2610 C   0  0  0  0  0  2  0  0  0  0  0  0
  189.2080  177.8500  145.4470 C   0  0  1  0  0  3  0  0  0  0  0  0
  184.0240  179.2820  140.1610 C   0  0  0  0  0  3  0  0  0  0  0  0
  185.7180  177.9330  145.4820 C   0  0  0  0  0  3  0  0  0  0  0  0
  186.8630  178.3710  142.0930 C   0  0  1  0  0  3  0  0  0  0  0  0
  189.8420  177.8390  138.6590 C   0  0  0  0  0  2  0  0  0  0  0  0
  183.1290  179.5450  141.0580 N   0  0  0  0  0  0  0  0  0  0  0  0
  190.3200  176.7480  141.2790 C   0  0  0  0  0  0  0  0  0  0  0  0
  183.4370  178.7850  142.2160 C   0  0  1  0  0  3  0  0  0  0  0  0
  185.6670  177.9400  142.8790 C   0  0  0  0  0  0  0  0  0  0  0  0
  185.6420  177.9520  144.1840 C   0  0  0  0  0  0  0  0  0  0  0  0
  187.9350  177.2550  141.9980 C   0  0  2  0  0  3  0  0  0  0  0  0
  190.5690  176.1680  142.4540 C   0  0  0  0  0  3  0  0  0  0  0  0
  184.5240  178.0520  142.0100 C   0  0  2  0  0  3  0  0  0  0  0  0
  188.6770  177.5990  139.6160 C   0  0  0  0  0  2  0  0  0  0  0  0
  189.4040  177.6680  143.9900 N   0  0  2  0  0  0  0  0  0  0  0  0
  190.9150  176.7600  138.8200 C   0  0  2  0  0  0  0  0  0  0  0  0
  188.0030  178.5110  145.7920 O   0  0  0  0  0  0  0  0  0  0  0  0
  188.3310  176.8130  143.4360 C   0  0  2  0  0  3  0  0  0  0  0  0
  189.6670  176.2470  143.6510 C   0  0  1  0  0  3  0  0  0  0  0  0
  190.3660  175.3890  138.4410 C   0  0  0  0  0  1  0  0  0  0  0  0
  187.0180  177.5580  146.1150 C   0  0  0  0  0  2  0  0  0  0  0  0
  186.3620  178.7840  140.7650 N   0  0  0  0  0  2  0  0  0  0  0  0
  185.0000  178.2520  140.6380 C   0  0  2  0  0  3  0  0  0  0  0  0
  191.1840  176.9920  146.7130 C   0  0  0  0  0  2  0  0  0  0  0  0
  190.1260  177.3810  147.7240 C   0  0  0  0  0  2  0  0  0  0  0  0
  189.7170  176.7540  146.4060 C   0  0  0  0  0  3  0  0  0  0  0  0
  192.0970  177.0830  137.9170 C   0  0  0  0  0  2  0  0  0  0  0  0
  193.2990  176.7580  138.5270 F   0  0  0  0  0  0  0  0  0  0  0  0
  1 17  1  6  0  0  0
  1 10  1  0  0  0  0
  1 14  1  0  0  0  0
  3 10  1  0  0  0  0
  4 20  1  0  0  0  0
  4 29  1  1  0  0  0
  5 26  1  0  0  0  0
  5  9  2  0  0  0  0
  6 24  1  0  0  0  0
  7 25  1  6  0  0  0
  7 12  1  0  0  0  0
  8 19  1  0  0  0  0
  8 17  1  0  0  0  0
  9 11  1  0  0  0  0
 10 15  2  0  0  0  0
 11  2  1  1  0  0  0
 12 13  2  0  0  0  0
 13  6  2  0  0  0  0
 14  7  1  0  0  0  0
 14 21  1  0  0  0  0
 15 22  1  0  0  0  0
 16 11  1  0  0  0  0
 16 12  1  0  0  0  0
 18  4  1  0  0  0  0
 19  3  1  0  0  0  0
 20 24  1  0  0  0  0
 21 22  1  0  0  0  0
 21 18  1  0  0  0  0
 22 18  1  0  0  0  0
 23 19  1  0  0  0  0
 26 25  1  0  0  0  0
 26 16  1  0  0  0  0
 27 28  1  0  0  0  0
 29 27  1  0  0  0  0
 29 28  1  0  0  0  0
 30 31  1  0  0  0  0
 30 19  1  0  0  0  0
M  END
>  <MODEL>
3

>  <REMARK>
 VINA RESULT:      -9.0      1.145      1.308
  Name = 
  2 active torsions:
  status: ('A' for Active; 'I' for Inactive)
    1  A    between atoms: C_4  and  C_24
    2  A    between atoms: C_5  and  C_21
                            x       y       z     vdW  Elec       q    Type
                         _______ _______ _______ _____ _____    ______ ____

>  <TORSDO>
F 2

$$$$
=
 OpenBabel10222415273D

 31 37  0  0  1  0  0  0  0  0999 V2000
  186.7040  177.7880  143.3040 C   0  0  2  0  0  3  0  0  0  0  0  0
  191.2560  177.1280  138.1710 C   0  0  0  0  0  1  0  0  0  0  0  0
  185.1800  178.3480  145.3510 C   0  0  0  0  0  2  0  0  0  0  0  0
  190.4760  176.1760  144.8110 C   0  0  1  0  0  3  0  0  0  0  0  0
  187.7320  177.7800  137.9720 C   0  0  0  0  0  3  0  0  0  0  0  0
  191.9760  176.9060  141.7440 C   0  0  0  0  0  3  0  0  0  0  0  0
  188.4100  177.3290  141.4300 C   0  0  1  0  0  3  0  0  0  0  0  0
  184.2190  178.2260  143.0380 C   0  0  0  0  0  2  0  0  0  0  0  0
  188.8510  177.4590  137.4080 N   0  0  0  0  0  0  0  0  0  0  0  0
  186.5470  178.2700  144.7300 C   0  0  0  0  0  0  0  0  0  0  0  0
  189.8940  177.7110  138.3360 C   0  0  1  0  0  3  0  0  0  0  0  0
  189.6990  177.7500  140.8030 C   0  0  0  0  0  0  0  0  0  0  0  0
  190.8590  177.3250  141.2250 C   0  0  0  0  0  0  0  0  0  0  0  0
  188.0950  178.1320  142.7180 C   0  0  2  0  0  3  0  0  0  0  0  0
  187.5940  178.3650  145.5510 C   0  0  0  0  0  3  0  0  0  0  0  0
  189.3970  178.1960  139.4670 C   0  0  2  0  0  3  0  0  0  0  0  0
  185.6080  178.4100  142.4300 C   0  0  0  0  0  2  0  0  0  0  0  0
  189.1440  176.7670  144.5440 N   0  0  2  0  0  0  0  0  0  0  0  0
  184.1220  178.9120  144.4010 C   0  0  2  0  0  0  0  0  0  0  0  0
  191.1600  175.7410  143.6490 O   0  0  0  0  0  0  0  0  0  0  0  0
  189.2830  177.9810  143.7100 C   0  0  2  0  0  3  0  0  0  0  0  0
  189.0180  178.1180  145.1460 C   0  0  1  0  0  3  0  0  0  0  0  0
  184.2970  180.4200  144.2630 C   0  0  0  0  0  1  0  0  0  0  0  0
  192.0560  176.7410  143.2270 C   0  0  0  0  0  2  0  0  0  0  0  0
  187.3680  177.4960  140.3950 N   0  0  0  0  0  2  0  0  0  0  0  0
  187.9430  178.3420  139.3440 C   0  0  2  0  0  3  0  0  0  0  0  0
  190.8080  176.2230  147.2860 C   0  0  0  0  0  2  0  0  0  0  0  0
  192.0560  175.6280  146.6680 C   0  0  0  0  0  2  0  0  0  0  0  0
  191.3250  176.7530  145.9610 C   0  0  0  0  0  3  0  0  0  0  0  0
  182.7570  178.6300  145.0130 C   0  0  0  0  0  2  0  0  0  0  0  0
  181.7630  178.6280  144.0460 F   0  0  0  0  0  0  0  0  0  0  0  0
  1 17  1  6  0  0  0
  1 10  1  0  0  0  0
  4 29  1  6  0  0  0
  5 26  1  0  0  0  0
  6 24  1  0  0  0  0
  7 25  1  6  0  0  0
  7 14  1  0  0  0  0
  8 19  1  0  0  0  0
  9  5  2  0  0  0  0
  9 11  1  0  0  0  0
 10  3  1  0  0  0  0
 10 15  2  0  0  0  0
 11  2  1  1  0  0  0
 11 16  1  0  0  0  0
 12 13  2  0  0  0  0
 12  7  1  0  0  0  0
 13  6  2  0  0  0  0
 14  1  1  0  0  0  0
 14 21  1  0  0  0  0
 16 12  1  0  0  0  0
 17  8  1  0  0  0  0
 18  4  1  0  0  0  0
 18 22  1  0  0  0  0
 19 30  1  0  0  0  0
 19  3  1  0  0  0  0
 20  4  1  0  0  0  0
 21 18  1  0  0  0  0
 21 22  1  0  0  0  0
 22 15  1  0  0  0  0
 23 19  1  0  0  0  0
 24 20  1  0  0  0  0
 26 16  1  0  0  0  0
 26 25  1  0  0  0  0
 28 27  1  0  0  0  0
 29 28  1  0  0  0  0
 29 27  1  0  0  0  0
 31 30  1  0  0  0  0
M  END
>  <MODEL>
4

>  <REMARK>
 VINA RESULT:      -8.5      3.061      6.178
  Name = 
  2 active torsions:
  status: ('A' for Active; 'I' for Inactive)
    1  A    between atoms: C_4  and  C_24
    2  A    between atoms: C_5  and  C_21
                            x       y       z     vdW  Elec       q    Type
                         _______ _______ _______ _____ _____    ______ ____

>  <TORSDO>
F 2

$$$$
=
 OpenBabel10222415273D

 31 37  0  0  1  0  0  0  0  0999 V2000
  189.4540  176.9880  142.9610 C   0  0  2  0  0  3  0  0  0  0  0  0
  184.0220  178.9190  139.1830 C   0  0  0  0  0  1  0  0  0  0  0  0
  191.6810  176.5750  144.2640 C   0  0  0  0  0  2  0  0  0  0  0  0
  190.1850  176.1980  138.7260 C   0  0  1  0  0  3  0  0  0  0  0  0
  184.2640  178.5710  142.7480 C   0  0  0  0  0  3  0  0  0  0  0  0
  187.3360  178.0480  137.9220 C   0  0  0  0  0  3  0  0  0  0  0  0
  187.4080  177.5030  141.4840 C   0  0  1  0  0  3  0  0  0  0  0  0
  189.4980  176.7530  145.4870 C   0  0  0  0  0  2  0  0  0  0  0  0
  183.5540  178.7290  141.6780 N   0  0  0  0  0  0  0  0  0  0  0  0
  190.9650  177.0430  143.0270 C   0  0  0  0  0  0  0  0  0  0  0  0
  184.4380  179.0330  140.6100 C   0  0  1  0  0  3  0  0  0  0  0  0
  186.8280  178.4130  140.4490 C   0  0  0  0  0  0  0  0  0  0  0  0
  187.0330  178.2450  139.1710 C   0  0  0  0  0  0  0  0  0  0  0  0
  188.8850  177.8440  141.8030 C   0  0  2  0  0  3  0  0  0  0  0  0
  191.7030  177.2290  141.9310 C   0  0  0  0  0  3  0  0  0  0  0  0
  185.6910  179.0660  141.0460 C   0  0  2  0  0  3  0  0  0  0  0  0
  188.8650  177.4660  144.2940 C   0  0  0  0  0  2  0  0  0  0  0  0
  190.1870  176.4320  140.1890 N   0  0  2  0  0  0  0  0  0  0  0  0
  191.0010  177.0300  145.5570 C   0  0  2  0  0  0  0  0  0  0  0  0
  188.9020  176.2710  138.1290 O   0  0  0  0  0  0  0  0  0  0  0  0
  189.7100  177.8000  140.4850 C   0  0  2  0  0  3  0  0  0  0  0  0
  191.1440  177.5030  140.5660 C   0  0  1  0  0  3  0  0  0  0  0  0
  191.2680  178.5110  145.7940 C   0  0  0  0  0  1  0  0  0  0  0  0
  188.7060  177.5560  137.5890 C   0  0  0  0  0  2  0  0  0  0  0  0
  186.5350  177.6140  142.6720 N   0  0  0  0  0  2  0  0  0  0  0  0
  185.7180  178.8190  142.4910 C   0  0  2  0  0  3  0  0  0  0  0  0
  192.4290  175.5960  137.8080 C   0  0  0  0  0  2  0  0  0  0  0  0
  191.5100  175.8600  136.6340 C   0  0  0  0  0  2  0  0  0  0  0  0
  191.3850  176.6940  137.8940 C   0  0  0  0  0  3  0  0  0  0  0  0
  191.6090  176.2310  146.7020 C   0  0  0  0  0  2  0  0  0  0  0  0
  192.4300  175.2200  146.2280 F   0  0  0  0  0  0  0  0  0  0  0  0
  1 10  1  0  0  0  0
  1 17  1  1  0  0  0
  3 19  1  0  0  0  0
  4 29  1  6  0  0  0
  4 18  1  0  0  0  0
  6 13  2  0  0  0  0
  7 12  1  6  0  0  0
  7 14  1  0  0  0  0
  7 25  1  0  0  0  0
  8 19  1  0  0  0  0
  9  5  2  0  0  0  0
 10  3  1  0  0  0  0
 11  2  1  6  0  0  0
 11 16  1  0  0  0  0
 11  9  1  0  0  0  0
 12 16  1  0  0  0  0
 13 12  2  0  0  0  0
 14  1  1  0  0  0  0
 15 10  2  0  0  0  0
 16 26  1  0  0  0  0
 17  8  1  0  0  0  0
 18 21  1  0  0  0  0
 18 22  1  0  0  0  0
 19 23  1  0  0  0  0
 19 30  1  0  0  0  0
 20  4  1  0  0  0  0
 21 22  1  0  0  0  0
 21 14  1  0  0  0  0
 22 15  1  0  0  0  0
 24  6  1  0  0  0  0
 24 20  1  0  0  0  0
 26 25  1  0  0  0  0
 26  5  1  0  0  0  0
 27 29  1  0  0  0  0
 28 27  1  0  0  0  0
 28 29  1  0  0  0  0
 31 30  1  0  0  0  0
M  END
>  <MODEL>
5

>  <REMARK>
 VINA RESULT:      -8.2      2.714      5.864
  Name = 
  2 active torsions:
  status: ('A' for Active; 'I' for Inactive)
    1  A    between atoms: C_4  and  C_24
    2  A    between atoms: C_5  and  C_21
                            x       y       z     vdW  Elec       q    Type
                         _______ _______ _______ _____ _____    ______ ____

>  <TORSDO>
F 2

$$$$
=
 OpenBabel10222415273D

 31 37  0  0  1  0  0  0  0  0999 V2000
  188.8930  177.3510  142.2650 C   0  0  2  0  0  3  0  0  0  0  0  0
  182.8310  179.0190  139.4410 C   0  0  0  0  0  1  0  0  0  0  0  0
  191.3230  177.0400  143.1740 C   0  0  0  0  0  2  0  0  0  0  0  0
  188.9170  176.4840  137.9820 C   0  0  1  0  0  3  0  0  0  0  0  0
  183.6910  178.7640  142.9170 C   0  0  0  0  0  3  0  0  0  0  0  0
  185.9090  178.2230  137.6450 C   0  0  0  0  0  3  0  0  0  0  0  0
  186.6080  177.7660  141.1520 C   0  0  1  0  0  3  0  0  0  0  0  0
  189.3760  177.1780  144.7490 C   0  0  0  0  0  2  0  0  0  0  0  0
  182.8030  178.8740  141.9820 N   0  0  0  0  0  0  0  0  0  0  0  0
  190.3900  177.4560  142.0700 C   0  0  0  0  0  0  0  0  0  0  0  0
  183.4800  179.1800  140.7730 C   0  0  1  0  0  3  0  0  0  0  0  0
  185.8280  178.6320  140.2160 C   0  0  0  0  0  0  0  0  0  0  0  0
  185.8180  178.4410  138.9240 C   0  0  0  0  0  0  0  0  0  0  0  0
  188.1050  178.1620  141.2060 C   0  0  2  0  0  3  0  0  0  0  0  0
  190.9230  177.6380  140.8610 C   0  0  0  0  0  3  0  0  0  0  0  0
  184.7870  179.2630  140.9860 C   0  0  2  0  0  3  0  0  0  0  0  0
  188.5240  177.8420  143.6700 C   0  0  0  0  0  2  0  0  0  0  0  0
  189.1610  176.7530  139.4180 N   0  0  2  0  0  0  0  0  0  0  0  0
  190.8580  177.5040  144.5560 C   0  0  2  0  0  0  0  0  0  0  0  0
  187.5490  176.5020  137.6130 O   0  0  0  0  0  0  0  0  0  0  0  0
  188.6930  178.1120  139.7670 C   0  0  2  0  0  3  0  0  0  0  0  0
  190.1300  177.8620  139.6060 C   0  0  1  0  0  3  0  0  0  0  0  0
  191.1100  178.9990  144.7170 C   0  0  0  0  0  1  0  0  0  0  0  0
  187.2190  177.7670  137.0910 C   0  0  0  0  0  2  0  0  0  0  0  0
  185.9480  177.8780  142.4700 N   0  0  0  0  0  2  0  0  0  0  0  0
  185.0690  179.0510  142.4090 C   0  0  2  0  0  3  0  0  0  0  0  0
  191.0070  175.9420  136.7250 C   0  0  0  0  0  2  0  0  0  0  0  0
  189.8960  176.1210  135.7110 C   0  0  0  0  0  2  0  0  0  0  0  0
  189.9390  176.9970  136.9480 C   0  0  0  0  0  3  0  0  0  0  0  0
  191.6810  176.7530  145.5940 C   0  0  0  0  0  2  0  0  0  0  0  0
  192.0550  175.5020  145.1280 F   0  0  0  0  0  0  0  0  0  0  0  0
  1 17  1  1  0  0  0
  3 19  1  0  0  0  0
  4 29  1  6  0  0  0
  4 18  1  0  0  0  0
  6 13  2  0  0  0  0
  7 12  1  6  0  0  0
  7 14  1  0  0  0  0
  7 25  1  0  0  0  0
  9  5  2  0  0  0  0
 10  1  1  0  0  0  0
 10  3  1  0  0  0  0
 11  2  1  6  0  0  0
 11 16  1  0  0  0  0
 11  9  1  0  0  0  0
 12 16  1  0  0  0  0
 13 12  2  0  0  0  0
 14  1  1  0  0  0  0
 15 10  2  0  0  0  0
 16 26  1  0  0  0  0
 17  8  1  0  0  0  0
 18 22  1  0  0  0  0
 18 21  1  0  0  0  0
 19 23  1  0  0  0  0
 19  8  1  0  0  0  0
 19 30  1  0  0  0  0
 20  4  1  0  0  0  0
 21 14  1  0  0  0  0
 22 21  1  0  0  0  0
 22 15  1  0  0  0  0
 24 20  1  0  0  0  0
 24  6  1  0  0  0  0
 26 25  1  0  0  0  0
 26  5  1  0  0  0  0
 27 29  1  0  0  0  0
 28 27  1  0  0  0  0
 28 29  1  0  0  0  0
 31 30  1  0  0  0  0
M  END
>  <MODEL>
6

>  <REMARK>
 VINA RESULT:      -8.0      2.717      5.763
  Name = 
  2 active torsions:
  status: ('A' for Active; 'I' for Inactive)
    1  A    between atoms: C_4  and  C_24
    2  A    between atoms: C_5  and  C_21
                            x       y       z     vdW  Elec       q    Type
                         _______ _______ _______ _____ _____    ______ ____

>  <TORSDO>
F 2

$$$$
=
 OpenBabel10222415273D

 31 37  0  0  1  0  0  0  0  0999 V2000
  189.5100  177.6910  144.7070 C   0  0  2  0  0  3  0  0  0  0  0  0
  188.8840  177.9740  137.8490 C   0  0  0  0  0  1  0  0  0  0  0  0
  189.5330  177.2670  147.2860 C   0  0  0  0  0  2  0  0  0  0  0  0
  185.5400  179.1420  143.5990 C   0  0  1  0  0  3  0  0  0  0  0  0
  191.8530  177.5030  139.8130 C   0  0  0  0  0  3  0  0  0  0  0  0
  186.1760  178.2530  140.2830 C   0  0  0  0  0  3  0  0  0  0  0  0
  189.2400  178.0100  142.1660 C   0  0  1  0  0  3  0  0  0  0  0  0
  191.6770  177.3770  145.9890 C   0  0  0  0  0  2  0  0  0  0  0  0
  191.2800  177.7490  138.6790 N   0  0  0  0  0  0  0  0  0  0  0  0
  188.8020  177.2560  145.9720 C   0  0  0  0  0  0  0  0  0  0  0  0
  189.8960  177.4670  138.8190 C   0  0  1  0  0  3  0  0  0  0  0  0
  188.5880  177.5050  140.9200 C   0  0  0  0  0  0  0  0  0  0  0  0
  187.3940  177.8790  140.5500 C   0  0  0  0  0  0  0  0  0  0  0  0
  188.7490  177.2590  143.4300 C   0  0  2  0  0  3  0  0  0  0  0  0
  187.4740  177.1280  146.0170 C   0  0  0  0  0  3  0  0  0  0  0  0
  189.6370  177.0400  140.0490 C   0  0  2  0  0  3  0  0  0  0  0  0
  190.9270  177.1040  144.6870 C   0  0  0  0  0  2  0  0  0  0  0  0
  186.7850  178.6150  144.2050 N   0  0  2  0  0  0  0  0  0  0  0  0
  190.9630  176.7330  147.1790 C   0  0  2  0  0  0  0  0  0  0  0  0
  185.6700  179.5100  142.2360 O   0  0  0  0  0  0  0  0  0  0  0  0
  187.2000  177.3740  143.5150 C   0  0  2  0  0  3  0  0  0  0  0  0
  186.5640  177.2890  144.8340 C   0  0  1  0  0  3  0  0  0  0  0  0
  190.9440  175.2150  147.0430 C   0  0  0  0  0  1  0  0  0  0  0  0
  185.2270  178.4530  141.4190 C   0  0  0  0  0  2  0  0  0  0  0  0
  190.6970  177.8700  141.9600 N   0  0  0  0  0  2  0  0  0  0  0  0
  190.8820  176.9670  140.8190 C   0  0  2  0  0  3  0  0  0  0  0  0
  183.8890  179.0030  145.4680 C   0  0  0  0  0  2  0  0  0  0  0  0
  183.2010  179.6760  144.2990 C   0  0  0  0  0  2  0  0  0  0  0  0
  184.1890  178.5520  144.0510 C   0  0  0  0  0  3  0  0  0  0  0  0
  191.6890  177.1030  148.4650 C   0  0  0  0  0  2  0  0  0  0  0  0
  192.8050  176.3030  148.6590 F   0  0  0  0  0  0  0  0  0  0  0  0
  1 17  1  6  0  0  0
  1 10  1  0  0  0  0
  4 29  1  6  0  0  0
  4 18  1  0  0  0  0
  5 26  1  0  0  0  0
  6 13  2  0  0  0  0
  6 24  1  0  0  0  0
  7 12  1  6  0  0  0
  7 14  1  0  0  0  0
  8 19  1  0  0  0  0
  9 11  1  0  0  0  0
  9  5  2  0  0  0  0
 10 15  2  0  0  0  0
 10  3  1  0  0  0  0
 11  2  1  1  0  0  0
 11 16  1  0  0  0  0
 13 12  2  0  0  0  0
 14 21  1  0  0  0  0
 14  1  1  0  0  0  0
 16 26  1  0  0  0  0
 16 12  1  0  0  0  0
 17  8  1  0  0  0  0
 18 22  1  0  0  0  0
 19  3  1  0  0  0  0
 19 30  1  0  0  0  0
 20  4  1  0  0  0  0
 21 18  1  0  0  0  0
 21 22  1  0  0  0  0
 22 15  1  0  0  0  0
 23 19  1  0  0  0  0
 24 20  1  0  0  0  0
 25  7  1  0  0  0  0
 26 25  1  0  0  0  0
 28 27  1  0  0  0  0
 29 28  1  0  0  0  0
 29 27  1  0  0  0  0
 30 31  1  0  0  0  0
M  END
>  <MODEL>
7

>  <REMARK>
 VINA RESULT:      -7.9      2.533      5.819
  Name = 
  2 active torsions:
  status: ('A' for Active; 'I' for Inactive)
    1  A    between atoms: C_4  and  C_24
    2  A    between atoms: C_5  and  C_21
                            x       y       z     vdW  Elec       q    Type
                         _______ _______ _______ _____ _____    ______ ____

>  <TORSDO>
F 2

$$$$
=
 OpenBabel10222415273D

 31 37  0  0  1  0  0  0  0  0999 V2000
  189.3320  176.8780  144.3540 C   0  0  2  0  0  3  0  0  0  0  0  0
  183.5990  179.1610  141.2850 C   0  0  0  0  0  1  0  0  0  0  0  0
  191.6560  176.3530  145.4280 C   0  0  0  0  0  2  0  0  0  0  0  0
  189.7800  176.7590  140.0090 C   0  0  1  0  0  3  0  0  0  0  0  0
  184.1030  178.2900  144.7320 C   0  0  0  0  0  3  0  0  0  0  0  0
  186.8350  178.6070  139.6880 C   0  0  0  0  0  3  0  0  0  0  0  0
  187.1740  177.5360  143.1130 C   0  0  1  0  0  3  0  0  0  0  0  0
  189.5620  176.2680  146.8060 C   0  0  0  0  0  2  0  0  0  0  0  0
  183.3150  178.5820  143.7480 N   0  0  0  0  0  0  0  0  0  0  0  0
  190.8430  176.9750  144.3280 C   0  0  0  0  0  0  0  0  0  0  0  0
  184.1120  179.0740  142.6820 C   0  0  1  0  0  3  0  0  0  0  0  0
  186.5000  178.5700  142.2700 C   0  0  0  0  0  0  0  0  0  0  0  0
  186.6180  178.6030  140.9700 C   0  0  0  0  0  0  0  0  0  0  0  0
  188.6620  177.8780  143.3810 C   0  0  2  0  0  3  0  0  0  0  0  0
  191.4960  177.3500  143.2260 C   0  0  0  0  0  3  0  0  0  0  0  0
  185.3920  179.0850  143.0330 C   0  0  2  0  0  3  0  0  0  0  0  0
  188.8290  177.1290  145.7810 C   0  0  0  0  0  2  0  0  0  0  0  0
  189.8800  176.7710  141.4870 N   0  0  2  0  0  0  0  0  0  0  0  0
  191.0590  176.5840  146.8180 C   0  0  2  0  0  0  0  0  0  0  0  0
  188.4560  176.8750  139.5170 O   0  0  0  0  0  0  0  0  0  0  0  0
  189.3910  178.0610  142.0200 C   0  0  2  0  0  3  0  0  0  0  0  0
  190.8350  177.8060  141.9580 C   0  0  1  0  0  3  0  0  0  0  0  0
  191.3060  178.0220  147.2590 C   0  0  0  0  0  1  0  0  0  0  0  0
  188.1900  178.2190  139.1930 C   0  0  0  0  0  2  0  0  0  0  0  0
  186.3860  177.4360  144.3600 N   0  0  0  0  0  2  0  0  0  0  0  0
  185.5280  178.6250  144.4180 C   0  0  2  0  0  3  0  0  0  0  0  0
  191.9320  176.3660  138.8030 C   0  0  0  0  0  2  0  0  0  0  0  0
  190.9150  176.8350  137.7840 C   0  0  0  0  0  2  0  0  0  0  0  0
  190.9050  177.4160  139.1850 C   0  0  0  0  0  3  0  0  0  0  0  0
  191.7670  175.6450  147.7850 C   0  0  0  0  0  2  0  0  0  0  0  0
  193.0820  175.4300  147.4030 F   0  0  0  0  0  0  0  0  0  0  0  0
  1 17  1  1  0  0  0
  3 19  1  0  0  0  0
  4 29  1  6  0  0  0
  4 18  1  0  0  0  0
  6 13  2  0  0  0  0
  7 12  1  6  0  0  0
  7 14  1  0  0  0  0
  7 25  1  0  0  0  0
  8 19  1  0  0  0  0
  9  5  2  0  0  0  0
 10  1  1  0  0  0  0
 10  3  1  0  0  0  0
 11  2  1  6  0  0  0
 11 16  1  0  0  0  0
 11  9  1  0  0  0  0
 12 16  1  0  0  0  0
 13 12  2  0  0  0  0
 14  1  1  0  0  0  0
 15 10  2  0  0  0  0
 16 26  1  0  0  0  0
 17  8  1  0  0  0  0
 18 22  1  0  0  0  0
 18 21  1  0  0  0  0
 19 23  1  0  0  0  0
 19 30  1  0  0  0  0
 20  4  1  0  0  0  0
 21 14  1  0  0  0  0
 22 21  1  0  0  0  0
 22 15  1  0  0  0  0
 24 20  1  0  0  0  0
 24  6  1  0  0  0  0
 25 26  1  0  0  0  0
 26  5  1  0  0  0  0
 27 29  1  0  0  0  0
 28 27  1  0  0  0  0
 28 29  1  0  0  0  0
 31 30  1  0  0  0  0
M  END
>  <MODEL>
8

>  <REMARK>
 VINA RESULT:      -7.8      2.544      5.640
  Name = 
  2 active torsions:
  status: ('A' for Active; 'I' for Inactive)
    1  A    between atoms: C_4  and  C_24
    2  A    between atoms: C_5  and  C_21
                            x       y       z     vdW  Elec       q    Type
                         _______ _______ _______ _____ _____    ______ ____

>  <TORSDO>
F 2

$$$$
=
 OpenBabel10222415273D

 31 37  0  0  1  0  0  0  0  0999 V2000
  188.1640  178.1580  144.5290 C   0  0  2  0  0  3  0  0  0  0  0  0
  190.5600  177.4700  138.1030 C   0  0  0  0  0  1  0  0  0  0  0  0
  187.0760  178.0870  146.9040 C   0  0  0  0  0  2  0  0  0  0  0  0
  185.0440  179.1280  141.6280 C   0  0  1  0  0  3  0  0  0  0  0  0
  192.3950  177.5030  141.1890 C   0  0  0  0  0  3  0  0  0  0  0  0
  187.0630  177.8560  139.0790 C   0  0  0  0  0  3  0  0  0  0  0  0
  189.0150  178.1120  142.0990 C   0  0  1  0  0  3  0  0  0  0  0  0
  189.5680  178.1920  146.6420 C   0  0  0  0  0  2  0  0  0  0  0  0
  192.3650  177.5490  139.8960 N   0  0  0  0  0  0  0  0  0  0  0  0
  186.9850  177.8420  145.4230 C   0  0  0  0  0  0  0  0  0  0  0  0
  191.0610  177.1800  139.4770 C   0  0  1  0  0  3  0  0  0  0  0  0
  188.9730  177.3940  140.7880 C   0  0  0  0  0  0  0  0  0  0  0  0
  188.0510  177.6200  139.8920 C   0  0  0  0  0  0  0  0  0  0  0  0
  188.0360  177.5000  143.1330 C   0  0  2  0  0  3  0  0  0  0  0  0
  185.7700  177.6160  144.9180 C   0  0  0  0  0  3  0  0  0  0  0  0
  190.3010  176.9010  140.5290 C   0  0  2  0  0  3  0  0  0  0  0  0
  189.4580  177.6890  145.2040 C   0  0  0  0  0  2  0  0  0  0  0  0
  185.9120  178.7880  142.7790 N   0  0  2  0  0  0  0  0  0  0  0  0
  188.4190  177.6590  147.4990 C   0  0  2  0  0  0  0  0  0  0  0  0
  185.7450  179.3200  140.4100 O   0  0  0  0  0  0  0  0  0  0  0  0
  186.6010  177.5020  142.5330 C   0  0  2  0  0  3  0  0  0  0  0  0
  185.4580  177.5440  143.4520 C   0  0  1  0  0  3  0  0  0  0  0  0
  188.4820  176.1400  147.6050 C   0  0  0  0  0  1  0  0  0  0  0  0
  185.7130  178.1310  139.6570 C   0  0  0  0  0  2  0  0  0  0  0  0
  190.4200  178.0620  142.5560 N   0  0  0  0  0  2  0  0  0  0  0  0
  191.0930  177.0310  141.7570 C   0  0  2  0  0  3  0  0  0  0  0  0
  182.6480  179.3780  142.2890 C   0  0  0  0  0  2  0  0  0  0  0  0
  182.7120  179.4200  140.7770 C   0  0  0  0  0  2  0  0  0  0  0  0
  183.6390  178.4990  141.5480 C   0  0  0  0  0  3  0  0  0  0  0  0
  188.5130  178.2540  148.8970 C   0  0  0  0  0  2  0  0  0  0  0  0
  189.8140  178.6270  149.1980 F   0  0  0  0  0  0  0  0  0  0  0  0
  1 17  1  1  0  0  0
  1 10  1  0  0  0  0
  3 19  1  0  0  0  0
  4 29  1  6  0  0  0
  4 18  1  0  0  0  0
  5 26  1  0  0  0  0
  6 24  1  0  0  0  0
  6 13  2  0  0  0  0
  7 12  1  6  0  0  0
  7 25  1  0  0  0  0
  7 14  1  0  0  0  0
  8 19  1  0  0  0  0
  9  5  2  0  0  0  0
 10  3  1  0  0  0  0
 11  2  1  1  0  0  0
 11  9  1  0  0  0  0
 11 16  1  0  0  0  0
 13 12  2  0  0  0  0
 14  1  1  0  0  0  0
 15 10  2  0  0  0  0
 16 12  1  0  0  0  0
 16 26  1  0  0  0  0
 17  8  1  0  0  0  0
 18 22  1  0  0  0  0
 19 23  1  0  0  0  0
 19 30  1  0  0  0  0
 20  4  1  0  0  0  0
 21 18  1  0  0  0  0
 21 14  1  0  0  0  0
 21 22  1  0  0  0  0
 22 15  1  0  0  0  0
 24 20  1  0  0  0  0
 26 25  1  0  0  0  0
 28 29  1  0  0  0  0
 28 27  1  0  0  0  0
 29 27  1  0  0  0  0
 30 31  1  0  0  0  0
M  END
>  <MODEL>
9

>  <REMARK>
 VINA RESULT:      -7.8      2.607      6.777
  Name = 
  2 active torsions:
  status: ('A' for Active; 'I' for Inactive)
    1  A    between atoms: C_4  and  C_24
    2  A    between atoms: C_5  and  C_21
                            x       y       z     vdW  Elec       q    Type
                         _______ _______ _______ _____ _____    ______ ____

>  <TORSDO>
F 2

$$$$
