=
 OpenBabel10222418013D

 35 38  0  0  1  0  0  0  0  0999 V2000
  187.7400  176.9030  143.4860 C   0  0  0  0  0  3  0  0  0  0  0  0
  186.6610  178.5090  142.0310 C   0  0  0  0  0  0  0  0  0  0  0  0
  188.7640  177.4760  141.3630 C   0  0  0  0  0  0  0  0  0  0  0  0
  188.7790  176.7290  142.5600 C   0  0  0  0  0  0  0  0  0  0  0  0
  187.7010  178.3430  141.1030 C   0  0  0  0  0  3  0  0  0  0  0  0
  186.6850  177.7800  143.2210 C   0  0  0  0  0  3  0  0  0  0  0  0
  183.6060  177.6600  141.5090 N   0  0  0  0  0  0  0  0  0  0  0  0
  185.4560  179.3420  141.6970 C   0  0  2  0  0  3  0  0  0  0  0  0
  184.1920  178.7140  142.3510 C   0  0  0  0  0  2  0  0  0  0  0  0
  185.3000  179.4700  140.2320 N   0  0  0  0  0  0  0  0  0  0  0  0
  184.4550  178.5290  138.2510 N   0  0  0  0  0  0  0  0  0  0  0  0
  183.6550  177.4510  138.0310 C   0  0  0  0  0  3  0  0  0  0  0  0
  182.4490  175.7500  139.4310 N   0  0  0  0  0  1  0  0  0  0  0  0
  183.2100  176.9390  139.2450 C   0  0  1  0  0  3  0  0  0  0  0  0
  184.5200  178.6540  139.5900 C   0  0  0  0  0  0  0  0  0  0  0  0
  183.7420  177.7320  140.2210 C   0  0  0  0  0  0  0  0  0  0  0  0
  190.8180  176.8870  144.8300 N   0  0  0  0  0  2  0  0  0  0  0  0
  191.7100  176.8840  145.9770 C   0  0  0  0  0  1  0  0  0  0  0  0
  189.8440  175.7980  142.8080 N   0  0  0  0  0  2  0  0  0  0  0  0
  190.8360  175.8520  143.8440 C   0  0  0  0  0  0  0  0  0  0  0  0
  191.7070  174.9440  143.9010 O   0  0  0  0  0  0  0  0  0  0  0  0
  189.8360  177.3530  140.3180 C   0  0  2  0  0  3  0  0  0  0  0  0
  191.0440  177.8790  140.7880 O   0  0  0  0  0  1  0  0  0  0  0  0
  189.4260  178.0410  139.0560 C   0  0  0  0  0  3  0  0  0  0  0  0
  189.4800  177.4340  137.9230 N   0  0  0  0  0  0  0  0  0  0  0  0
  189.0780  178.1090  136.7090 C   0  0  0  0  0  2  0  0  0  0  0  0
  187.9680  177.6000  134.6320 O   0  0  0  0  0  0  0  0  0  0  0  0
  188.0500  175.8610  136.1900 N   0  0  0  0  0  2  0  0  0  0  0  0
  188.3480  177.1950  135.7670 C   0  0  0  0  0  0  0  0  0  0  0  0
  186.1910  172.9260  137.2530 C   0  0  0  0  0  2  0  0  0  0  0  0
  187.8390  173.5170  135.4610 C   0  0  0  0  0  2  0  0  0  0  0  0
  185.6380  174.3470  137.2260 C   0  0  0  0  0  2  0  0  0  0  0  0
  187.6660  172.9270  136.8600 C   0  0  0  0  0  2  0  0  0  0  0  0
  185.8000  174.9490  135.8280 C   0  0  0  0  0  2  0  0  0  0  0  0
  187.2630  174.9360  135.3780 C   0  0  0  0  0  3  0  0  0  0  0  0
  2  6  2  0  0  0  0
  3  4  1  0  0  0  0
  4 19  1  0  0  0  0
  4  1  2  0  0  0  0
  5  3  2  0  0  0  0
  5  2  1  0  0  0  0
  6  1  1  0  0  0  0
  7  9  1  0  0  0  0
  8  2  1  6  0  0  0
  8  9  1  0  0  0  0
 10  8  1  0  0  0  0
 11 15  1  0  0  0  0
 12 11  2  0  0  0  0
 12 14  1  0  0  0  0
 14 13  1  1  0  0  0
 14 16  1  0  0  0  0
 15 16  1  0  0  0  0
 15 10  2  0  0  0  0
 16  7  2  0  0  0  0
 17 18  1  0  0  0  0
 19 20  1  0  0  0  0
 20 21  2  0  0  0  0
 20 17  1  0  0  0  0
 22 23  1  1  0  0  0
 22  3  1  0  0  0  0
 24 22  1  0  0  0  0
 25 24  2  0  0  0  0
 26 25  1  0  0  0  0
 27 29  2  0  0  0  0
 29 28  1  0  0  0  0
 29 26  1  0  0  0  0
 31 33  1  0  0  0  0
 32 30  1  0  0  0  0
 33 30  1  0  0  0  0
 34 32  1  0  0  0  0
 35 31  1  0  0  0  0
 35 34  1  0  0  0  0
 35 28  1  0  0  0  0
M  END
>  <MODEL>
1

>  <REMARK>
 VINA RESULT:      -7.7      0.000      0.000
  Name = 
  7 active torsions:
  status: ('A' for Active; 'I' for Inactive)
    1  A    between atoms: C_1  and  N_11
    2  A    between atoms: C_1  and  C_23
    3  A    between atoms: C_4  and  C_8
    4  A    between atoms: C_4  and  C_9
    5  A    between atoms: C_6  and  C_10
    6  A    between atoms: N_19  and  C_29
    7  A    between atoms: N_21  and  C_30
                            x       y       z     vdW  Elec       q    Type
                         _______ _______ _______ _____ _____    ______ ____

>  <TORSDO>
F 7

$$$$
=
 OpenBabel10222418013D

 35 38  0  0  1  0  0  0  0  0999 V2000
  187.6050  177.7280  137.9970 C   0  0  0  0  0  3  0  0  0  0  0  0
  186.6520  178.5130  140.0790 C   0  0  0  0  0  0  0  0  0  0  0  0
  188.9450  177.6910  140.0190 C   0  0  0  0  0  0  0  0  0  0  0  0
  188.8240  177.4520  138.6330 C   0  0  0  0  0  0  0  0  0  0  0  0
  187.8680  178.2320  140.7230 C   0  0  0  0  0  3  0  0  0  0  0  0
  186.5300  178.2620  138.7120 C   0  0  0  0  0  3  0  0  0  0  0  0
  183.8150  177.4180  141.1180 N   0  0  0  0  0  0  0  0  0  0  0  0
  185.5390  179.2120  140.8070 C   0  0  2  0  0  3  0  0  0  0  0  0
  184.8530  178.2180  141.7860 C   0  0  0  0  0  2  0  0  0  0  0  0
  184.5690  179.7840  139.8490 N   0  0  0  0  0  0  0  0  0  0  0  0
  182.6670  179.4210  138.5180 N   0  0  0  0  0  0  0  0  0  0  0  0
  181.8160  178.3640  138.4250 C   0  0  0  0  0  3  0  0  0  0  0  0
  181.5360  176.1340  139.5470 N   0  0  0  0  0  1  0  0  0  0  0  0
  182.1260  177.4220  139.3990 C   0  0  1  0  0  3  0  0  0  0  0  0
  183.5070  179.1110  139.5230 C   0  0  0  0  0  0  0  0  0  0  0  0
  183.1810  177.9260  140.1060 C   0  0  0  0  0  0  0  0  0  0  0  0
  189.0430  174.6770  137.3740 N   0  0  0  0  0  2  0  0  0  0  0  0
  189.1050  173.4100  136.6650 C   0  0  0  0  0  1  0  0  0  0  0  0
  189.9460  176.9420  137.8960 N   0  0  0  0  0  2  0  0  0  0  0  0
  190.0980  175.6400  137.3140 C   0  0  0  0  0  0  0  0  0  0  0  0
  191.1670  175.3650  136.7060 O   0  0  0  0  0  0  0  0  0  0  0  0
  190.2120  177.4220  140.7800 C   0  0  2  0  0  3  0  0  0  0  0  0
  190.5140  176.0570  140.7650 O   0  0  0  0  0  1  0  0  0  0  0  0
  190.0990  177.9150  142.1860 C   0  0  0  0  0  3  0  0  0  0  0  0
  191.1480  178.1980  142.8760 N   0  0  0  0  0  0  0  0  0  0  0  0
  191.0250  178.6760  144.2350 C   0  0  0  0  0  2  0  0  0  0  0  0
  190.6730  176.7400  145.6250 O   0  0  0  0  0  0  0  0  0  0  0  0
  188.7870  178.0620  145.2320 N   0  0  0  0  0  2  0  0  0  0  0  0
  190.1790  177.7680  145.0820 C   0  0  0  0  0  0  0  0  0  0  0  0
  185.7350  178.9280  147.0030 C   0  0  0  0  0  2  0  0  0  0  0  0
  187.8010  177.5790  147.4380 C   0  0  0  0  0  2  0  0  0  0  0  0
  185.8170  178.5920  145.5170 C   0  0  0  0  0  2  0  0  0  0  0  0
  187.1320  178.9420  147.6180 C   0  0  0  0  0  2  0  0  0  0  0  0
  186.4810  177.2270  145.3230 C   0  0  0  0  0  2  0  0  0  0  0  0
  187.8730  177.1840  145.9580 C   0  0  0  0  0  3  0  0  0  0  0  0
  1  4  2  0  0  0  0
  1  6  1  0  0  0  0
  2  5  1  0  0  0  0
  3  5  2  0  0  0  0
  3 22  1  0  0  0  0
  4  3  1  0  0  0  0
  6  2  2  0  0  0  0
  7  9  1  0  0  0  0
  8  2  1  6  0  0  0
  8  9  1  0  0  0  0
 10  8  1  0  0  0  0
 11 15  1  0  0  0  0
 12 11  2  0  0  0  0
 12 14  1  0  0  0  0
 14 13  1  6  0  0  0
 14 16  1  0  0  0  0
 15 10  2  0  0  0  0
 15 16  1  0  0  0  0
 16  7  2  0  0  0  0
 18 17  1  0  0  0  0
 19  4  1  0  0  0  0
 20 17  1  0  0  0  0
 20 19  1  0  0  0  0
 21 20  2  0  0  0  0
 22 23  1  1  0  0  0
 22 24  1  0  0  0  0
 24 25  2  0  0  0  0
 25 26  1  0  0  0  0
 26 29  1  0  0  0  0
 28 35  1  0  0  0  0
 29 28  1  0  0  0  0
 29 27  2  0  0  0  0
 30 33  1  0  0  0  0
 31 33  1  0  0  0  0
 32 30  1  0  0  0  0
 34 32  1  0  0  0  0
 34 35  1  0  0  0  0
 35 31  1  0  0  0  0
M  END
>  <MODEL>
2

>  <REMARK>
 VINA RESULT:      -7.5      2.198      6.615
  Name = 
  7 active torsions:
  status: ('A' for Active; 'I' for Inactive)
    1  A    between atoms: C_1  and  N_11
    2  A    between atoms: C_1  and  C_23
    3  A    between atoms: C_4  and  C_8
    4  A    between atoms: C_4  and  C_9
    5  A    between atoms: C_6  and  C_10
    6  A    between atoms: N_19  and  C_29
    7  A    between atoms: N_21  and  C_30
                            x       y       z     vdW  Elec       q    Type
                         _______ _______ _______ _____ _____    ______ ____

>  <TORSDO>
F 7

$$$$
=
 OpenBabel10222418013D

 35 38  0  0  1  0  0  0  0  0999 V2000
  185.0440  176.5530  136.1150 C   0  0  0  0  0  3  0  0  0  0  0  0
  186.7480  178.1650  136.7090 C   0  0  0  0  0  0  0  0  0  0  0  0
  184.7250  177.9780  138.0520 C   0  0  0  0  0  0  0  0  0  0  0  0
  184.2600  176.9430  137.2110 C   0  0  0  0  0  0  0  0  0  0  0  0
  185.9660  178.5650  137.8030 C   0  0  0  0  0  3  0  0  0  0  0  0
  186.2810  177.1520  135.8700 C   0  0  0  0  0  3  0  0  0  0  0  0
  189.5390  176.6460  136.2270 N   0  0  0  0  0  0  0  0  0  0  0  0
  188.1370  178.7060  136.5160 C   0  0  2  0  0  3  0  0  0  0  0  0
  188.9200  177.7870  135.5340 C   0  0  0  0  0  2  0  0  0  0  0  0
  188.8340  178.8290  137.8140 N   0  0  0  0  0  0  0  0  0  0  0  0
  190.1230  177.7660  139.4670 N   0  0  0  0  0  0  0  0  0  0  0  0
  190.7060  176.5380  139.5080 C   0  0  0  0  0  3  0  0  0  0  0  0
  190.9460  174.5710  137.9650 N   0  0  0  0  0  1  0  0  0  0  0  0
  190.5670  175.9080  138.2770 C   0  0  1  0  0  3  0  0  0  0  0  0
  189.6060  177.8700  138.2280 C   0  0  0  0  0  0  0  0  0  0  0  0
  189.8950  176.7790  137.4680 C   0  0  0  0  0  0  0  0  0  0  0  0
  181.5420  177.7140  136.0500 N   0  0  0  0  0  2  0  0  0  0  0  0
  180.2690  177.9910  135.4070 C   0  0  0  0  0  1  0  0  0  0  0  0
  183.0070  176.3020  137.4930 N   0  0  0  0  0  2  0  0  0  0  0  0
  181.7090  176.6500  136.9900 C   0  0  0  0  0  0  0  0  0  0  0  0
  180.7120  175.9740  137.3590 O   0  0  0  0  0  0  0  0  0  0  0  0
  183.9500  178.4600  139.2450 C   0  0  2  0  0  3  0  0  0  0  0  0
  183.0520  179.4660  138.8750 O   0  0  0  0  0  1  0  0  0  0  0  0
  184.8750  178.9540  140.3110 C   0  0  0  0  0  3  0  0  0  0  0  0
  184.5690  178.8480  141.5560 N   0  0  0  0  0  0  0  0  0  0  0  0
  185.4720  179.3280  142.5770 C   0  0  0  0  0  2  0  0  0  0  0  0
  185.3800  177.7910  144.4310 O   0  0  0  0  0  0  0  0  0  0  0  0
  187.2920  177.6540  143.0960 N   0  0  0  0  0  2  0  0  0  0  0  0
  186.0150  178.2110  143.4240 C   0  0  0  0  0  0  0  0  0  0  0  0
  190.6930  177.5870  144.3730 C   0  0  0  0  0  2  0  0  0  0  0  0
  189.1380  176.0250  143.1820 C   0  0  0  0  0  2  0  0  0  0  0  0
  189.5090  178.2440  145.0760 C   0  0  0  0  0  2  0  0  0  0  0  0
  190.2630  177.0460  143.0120 C   0  0  0  0  0  2  0  0  0  0  0  0
  188.3760  177.2310  145.2570 C   0  0  0  0  0  2  0  0  0  0  0  0
  187.9380  176.6330  143.9170 C   0  0  0  0  0  3  0  0  0  0  0  0
  1  4  1  0  0  0  0
  2  5  2  0  0  0  0
  3 22  1  0  0  0  0
  4 19  1  0  0  0  0
  4  3  2  0  0  0  0
  5  3  1  0  0  0  0
  6  1  2  0  0  0  0
  6  2  1  0  0  0  0
  7 16  2  0  0  0  0
  8  2  1  1  0  0  0
  8 10  1  0  0  0  0
  9  7  1  0  0  0  0
  9  8  1  0  0  0  0
 10 15  2  0  0  0  0
 11 12  2  0  0  0  0
 14 13  1  1  0  0  0
 14 12  1  0  0  0  0
 15 11  1  0  0  0  0
 16 15  1  0  0  0  0
 16 14  1  0  0  0  0
 17 20  1  0  0  0  0
 18 17  1  0  0  0  0
 20 21  2  0  0  0  0
 20 19  1  0  0  0  0
 22 23  1  6  0  0  0
 22 24  1  0  0  0  0
 24 25  2  0  0  0  0
 25 26  1  0  0  0  0
 26 29  1  0  0  0  0
 28 29  1  0  0  0  0
 28 35  1  0  0  0  0
 29 27  2  0  0  0  0
 30 32  1  0  0  0  0
 31 35  1  0  0  0  0
 32 34  1  0  0  0  0
 33 31  1  0  0  0  0
 33 30  1  0  0  0  0
 35 34  1  0  0  0  0
M  END
>  <MODEL>
3

>  <REMARK>
 VINA RESULT:      -7.4      2.891      8.320
  Name = 
  7 active torsions:
  status: ('A' for Active; 'I' for Inactive)
    1  A    between atoms: C_1  and  N_11
    2  A    between atoms: C_1  and  C_23
    3  A    between atoms: C_4  and  C_8
    4  A    between atoms: C_4  and  C_9
    5  A    between atoms: C_6  and  C_10
    6  A    between atoms: N_19  and  C_29
    7  A    between atoms: N_21  and  C_30
                            x       y       z     vdW  Elec       q    Type
                         _______ _______ _______ _____ _____    ______ ____

>  <TORSDO>
F 7

$$$$
=
 OpenBabel10222418013D

 35 38  0  0  1  0  0  0  0  0999 V2000
  188.7940  176.9360  142.8200 C   0  0  0  0  0  3  0  0  0  0  0  0
  189.0480  177.7170  140.5430 C   0  0  0  0  0  0  0  0  0  0  0  0
  187.0140  178.2200  141.7850 C   0  0  0  0  0  0  0  0  0  0  0  0
  187.5300  177.5380  142.9090 C   0  0  0  0  0  0  0  0  0  0  0  0
  187.7820  178.3160  140.6240 C   0  0  0  0  0  3  0  0  0  0  0  0
  189.5510  177.0310  141.6500 C   0  0  0  0  0  3  0  0  0  0  0  0
  188.4840  177.2050  137.4200 N   0  0  0  0  0  0  0  0  0  0  0  0
  189.9250  177.9280  139.3420 C   0  0  2  0  0  3  0  0  0  0  0  0
  189.0520  178.3630  138.1300 C   0  0  0  0  0  2  0  0  0  0  0  0
  190.7000  176.7050  139.0390 N   0  0  0  0  0  0  0  0  0  0  0  0
  190.7450  174.6190  137.9590 N   0  0  0  0  0  0  0  0  0  0  0  0
  189.8720  174.0250  137.1010 C   0  0  0  0  0  3  0  0  0  0  0  0
  187.7050  174.6290  135.9840 N   0  0  0  0  0  1  0  0  0  0  0  0
  188.8610  174.9180  136.7650 C   0  0  1  0  0  3  0  0  0  0  0  0
  190.2510  175.8540  138.1670 C   0  0  0  0  0  0  0  0  0  0  0  0
  189.1340  176.0820  137.4250 C   0  0  0  0  0  0  0  0  0  0  0  0
  188.6500  177.6230  145.7500 N   0  0  0  0  0  2  0  0  0  0  0  0
  189.1610  177.7910  147.1000 C   0  0  0  0  0  1  0  0  0  0  0  0
  186.7650  177.4800  144.1230 N   0  0  0  0  0  2  0  0  0  0  0  0
  187.2540  177.4910  145.4720 C   0  0  0  0  0  0  0  0  0  0  0  0
  186.4270  177.4220  146.4200 O   0  0  0  0  0  0  0  0  0  0  0  0
  185.6700  178.8920  141.7930 C   0  0  2  0  0  3  0  0  0  0  0  0
  184.7620  178.1660  142.5710 O   0  0  0  0  0  1  0  0  0  0  0  0
  185.1520  179.0500  140.4000 C   0  0  0  0  0  3  0  0  0  0  0  0
  184.0060  179.5910  140.1780 N   0  0  0  0  0  0  0  0  0  0  0  0
  183.5160  179.7410  138.8250 C   0  0  0  0  0  2  0  0  0  0  0  0
  181.1840  179.7080  139.4320 O   0  0  0  0  0  0  0  0  0  0  0  0
  181.8270  181.4140  137.9710 N   0  0  0  0  0  2  0  0  0  0  0  0
  182.1110  180.2730  138.7870 C   0  0  0  0  0  0  0  0  0  0  0  0
  180.5350  183.5330  135.3180 C   0  0  0  0  0  2  0  0  0  0  0  0
  180.4830  183.4740  137.8220 C   0  0  0  0  0  2  0  0  0  0  0  0
  180.5820  182.0090  135.2740 C   0  0  0  0  0  2  0  0  0  0  0  0
  181.1960  184.0430  136.5960 C   0  0  0  0  0  2  0  0  0  0  0  0
  179.8670  181.4250  136.4940 C   0  0  0  0  0  2  0  0  0  0  0  0
  180.4750  181.9400  137.8010 C   0  0  0  0  0  3  0  0  0  0  0  0
  1  4  1  0  0  0  0
  2  5  2  0  0  0  0
  2  6  1  0  0  0  0
  3 22  1  0  0  0  0
  3  4  2  0  0  0  0
  4 19  1  0  0  0  0
  5  3  1  0  0  0  0
  6  1  2  0  0  0  0
  7 16  2  0  0  0  0
  7  9  1  0  0  0  0
  8  2  1  1  0  0  0
  9  8  1  0  0  0  0
 10  8  1  0  0  0  0
 11 15  1  0  0  0  0
 12 11  2  0  0  0  0
 14 13  1  1  0  0  0
 14 12  1  0  0  0  0
 14 16  1  0  0  0  0
 15 10  2  0  0  0  0
 16 15  1  0  0  0  0
 17 18  1  0  0  0  0
 19 20  1  0  0  0  0
 20 17  1  0  0  0  0
 20 21  2  0  0  0  0
 22 23  1  1  0  0  0
 24 22  1  0  0  0  0
 25 24  2  0  0  0  0
 26 25  1  0  0  0  0
 28 29  1  0  0  0  0
 29 26  1  0  0  0  0
 29 27  2  0  0  0  0
 30 33  1  0  0  0  0
 32 30  1  0  0  0  0
 32 34  1  0  0  0  0
 33 31  1  0  0  0  0
 34 35  1  0  0  0  0
 35 31  1  0  0  0  0
 35 28  1  0  0  0  0
M  END
>  <MODEL>
4

>  <REMARK>
 VINA RESULT:      -7.2      3.811      6.847
  Name = 
  7 active torsions:
  status: ('A' for Active; 'I' for Inactive)
    1  A    between atoms: C_1  and  N_11
    2  A    between atoms: C_1  and  C_23
    3  A    between atoms: C_4  and  C_8
    4  A    between atoms: C_4  and  C_9
    5  A    between atoms: C_6  and  C_10
    6  A    between atoms: N_19  and  C_29
    7  A    between atoms: N_21  and  C_30
                            x       y       z     vdW  Elec       q    Type
                         _______ _______ _______ _____ _____    ______ ____

>  <TORSDO>
F 7

$$$$
=
 OpenBabel10222418013D

 35 38  0  0  1  0  0  0  0  0999 V2000
  191.7440  177.4950  141.3690 C   0  0  0  0  0  3  0  0  0  0  0  0
  190.0950  177.4790  139.5970 C   0  0  0  0  0  0  0  0  0  0  0  0
  189.3830  177.5250  141.9260 C   0  0  0  0  0  0  0  0  0  0  0  0
  190.7330  177.5350  142.3400 C   0  0  0  0  0  0  0  0  0  0  0  0
  189.0790  177.5140  140.5640 C   0  0  0  0  0  3  0  0  0  0  0  0
  191.4290  177.4750  140.0080 C   0  0  0  0  0  3  0  0  0  0  0  0
  188.2270  175.6650  137.7130 N   0  0  0  0  0  0  0  0  0  0  0  0
  189.7710  177.5960  138.1340 C   0  0  2  0  0  3  0  0  0  0  0  0
  188.3090  177.1240  137.8860 C   0  0  0  0  0  2  0  0  0  0  0  0
  190.7350  176.8220  137.3230 N   0  0  0  0  0  0  0  0  0  0  0  0
  191.3150  174.7340  136.4150 N   0  0  0  0  0  0  0  0  0  0  0  0
  190.6480  173.5490  136.3720 C   0  0  0  0  0  3  0  0  0  0  0  0
  188.4040  172.6830  137.0950 N   0  0  0  0  0  1  0  0  0  0  0  0
  189.3620  173.7140  136.8730 C   0  0  1  0  0  3  0  0  0  0  0  0
  190.4500  175.6060  136.9650 C   0  0  0  0  0  0  0  0  0  0  0  0
  189.2430  175.0310  137.2140 C   0  0  0  0  0  0  0  0  0  0  0  0
  191.7770  175.2330  144.0550 N   0  0  0  0  0  2  0  0  0  0  0  0
  192.3930  174.1820  144.8470 C   0  0  0  0  0  1  0  0  0  0  0  0
  191.0510  177.5980  143.7390 N   0  0  0  0  0  2  0  0  0  0  0  0
  191.5170  176.5360  144.5830 C   0  0  0  0  0  0  0  0  0  0  0  0
  191.7360  176.7760  145.8010 O   0  0  0  0  0  0  0  0  0  0  0  0
  188.2380  177.5650  142.8980 C   0  0  2  0  0  3  0  0  0  0  0  0
  187.7680  176.2740  143.1580 O   0  0  0  0  0  1  0  0  0  0  0  0
  187.1330  178.4270  142.3780 C   0  0  0  0  0  3  0  0  0  0  0  0
  185.9160  178.2380  142.7470 N   0  0  0  0  0  0  0  0  0  0  0  0
  184.8560  179.0800  142.2380 C   0  0  0  0  0  2  0  0  0  0  0  0
  185.1270  179.5080  139.8820 O   0  0  0  0  0  0  0  0  0  0  0  0
  183.6300  177.8020  140.4360 N   0  0  0  0  0  2  0  0  0  0  0  0
  184.5730  178.8200  140.7850 C   0  0  0  0  0  0  0  0  0  0  0  0
  180.4470  176.5620  139.1980 C   0  0  0  0  0  2  0  0  0  0  0  0
  182.8790  176.0650  138.8580 C   0  0  0  0  0  2  0  0  0  0  0  0
  180.7730  178.0300  139.4520 C   0  0  0  0  0  2  0  0  0  0  0  0
  181.6170  175.6810  139.6290 C   0  0  0  0  0  2  0  0  0  0  0  0
  182.0340  178.4310  138.6810 C   0  0  0  0  0  2  0  0  0  0  0  0
  183.2250  177.5460  139.0560 C   0  0  0  0  0  3  0  0  0  0  0  0
  1  4  1  0  0  0  0
  2  6  1  0  0  0  0
  2  5  2  0  0  0  0
  3  4  2  0  0  0  0
  3 22  1  0  0  0  0
  4 19  1  0  0  0  0
  5  3  1  0  0  0  0
  6  1  2  0  0  0  0
  7  9  1  0  0  0  0
  8  2  1  1  0  0  0
  9  8  1  0  0  0  0
 10  8  1  0  0  0  0
 11 15  1  0  0  0  0
 12 11  2  0  0  0  0
 12 14  1  0  0  0  0
 14 13  1  1  0  0  0
 14 16  1  0  0  0  0
 15 16  1  0  0  0  0
 15 10  2  0  0  0  0
 16  7  2  0  0  0  0
 17 20  1  0  0  0  0
 17 18  1  0  0  0  0
 19 20  1  0  0  0  0
 20 21  2  0  0  0  0
 22 23  1  6  0  0  0
 24 25  2  0  0  0  0
 24 22  1  0  0  0  0
 26 25  1  0  0  0  0
 27 29  2  0  0  0  0
 28 29  1  0  0  0  0
 29 26  1  0  0  0  0
 30 32  1  0  0  0  0
 30 33  1  0  0  0  0
 31 35  1  0  0  0  0
 31 33  1  0  0  0  0
 34 35  1  0  0  0  0
 34 32  1  0  0  0  0
 35 28  1  0  0  0  0
M  END
>  <MODEL>
5

>  <REMARK>
 VINA RESULT:      -7.2      2.309      5.635
  Name = 
  7 active torsions:
  status: ('A' for Active; 'I' for Inactive)
    1  A    between atoms: C_1  and  N_11
    2  A    between atoms: C_1  and  C_23
    3  A    between atoms: C_4  and  C_8
    4  A    between atoms: C_4  and  C_9
    5  A    between atoms: C_6  and  C_10
    6  A    between atoms: N_19  and  C_29
    7  A    between atoms: N_21  and  C_30
                            x       y       z     vdW  Elec       q    Type
                         _______ _______ _______ _____ _____    ______ ____

>  <TORSDO>
F 7

$$$$
=
 OpenBabel10222418013D

 35 38  0  0  1  0  0  0  0  0999 V2000
  188.7090  176.7690  142.8200 C   0  0  0  0  0  3  0  0  0  0  0  0
  189.1530  177.6570  140.6120 C   0  0  0  0  0  0  0  0  0  0  0  0
  187.1530  178.3400  141.8220 C   0  0  0  0  0  0  0  0  0  0  0  0
  187.5300  177.5240  142.9110 C   0  0  0  0  0  0  0  0  0  0  0  0
  187.9720  178.4100  140.6950 C   0  0  0  0  0  3  0  0  0  0  0  0
  189.5180  176.8400  141.6830 C   0  0  0  0  0  3  0  0  0  0  0  0
  188.6860  177.3050  137.4520 N   0  0  0  0  0  0  0  0  0  0  0  0
  190.0980  177.8300  139.4570 C   0  0  2  0  0  3  0  0  0  0  0  0
  189.3210  178.3820  138.2280 C   0  0  0  0  0  2  0  0  0  0  0  0
  190.7750  176.5530  139.1410 N   0  0  0  0  0  0  0  0  0  0  0  0
  190.6840  174.5090  137.9850 N   0  0  0  0  0  0  0  0  0  0  0  0
  189.8020  174.0260  137.0700 C   0  0  0  0  0  3  0  0  0  0  0  0
  187.7480  174.8590  135.8880 N   0  0  0  0  0  1  0  0  0  0  0  0
  188.8880  175.0160  136.7260 C   0  0  1  0  0  3  0  0  0  0  0  0
  190.2920  175.7750  138.2190 C   0  0  0  0  0  0  0  0  0  0  0  0
  189.2330  176.1280  137.4410 C   0  0  0  0  0  0  0  0  0  0  0  0
  188.5360  177.5840  145.7940 N   0  0  0  0  0  2  0  0  0  0  0  0
  188.9970  177.7410  147.1640 C   0  0  0  0  0  1  0  0  0  0  0  0
  186.7160  177.4870  144.0930 N   0  0  0  0  0  2  0  0  0  0  0  0
  187.1500  177.4870  145.4600 C   0  0  0  0  0  0  0  0  0  0  0  0
  186.2840  177.4410  146.3740 O   0  0  0  0  0  0  0  0  0  0  0  0
  185.9070  179.1800  141.8350 C   0  0  2  0  0  3  0  0  0  0  0  0
  185.2280  179.0360  143.0490 O   0  0  0  0  0  1  0  0  0  0  0  0
  185.0140  178.8170  140.6920 C   0  0  0  0  0  3  0  0  0  0  0  0
  184.6170  179.7070  139.8530 N   0  0  0  0  0  0  0  0  0  0  0  0
  183.7550  179.3430  138.7500 C   0  0  0  0  0  2  0  0  0  0  0  0
  182.2860  177.4400  138.9120 O   0  0  0  0  0  0  0  0  0  0  0  0
  181.5440  179.3850  139.9710 N   0  0  0  0  0  2  0  0  0  0  0  0
  182.5070  178.6460  139.2130 C   0  0  0  0  0  0  0  0  0  0  0  0
  179.4150  180.3550  142.7510 C   0  0  0  0  0  2  0  0  0  0  0  0
  180.3540  178.2370  141.7980 C   0  0  0  0  0  2  0  0  0  0  0  0
  179.3660  180.9710  141.3570 C   0  0  0  0  0  2  0  0  0  0  0  0
  180.5510  179.3390  142.8380 C   0  0  0  0  0  2  0  0  0  0  0  0
  179.1630  179.8780  140.3050 C   0  0  0  0  0  2  0  0  0  0  0  0
  180.2620  178.8160  140.3800 C   0  0  0  0  0  3  0  0  0  0  0  0
  1  4  1  0  0  0  0
  2  5  2  0  0  0  0
  2  6  1  0  0  0  0
  3 22  1  0  0  0  0
  3  4  2  0  0  0  0
  4 19  1  0  0  0  0
  5  3  1  0  0  0  0
  6  1  2  0  0  0  0
  7  9  1  0  0  0  0
  8  2  1  1  0  0  0
  9  8  1  0  0  0  0
 10  8  1  0  0  0  0
 11 15  1  0  0  0  0
 12 11  2  0  0  0  0
 14 13  1  1  0  0  0
 14 12  1  0  0  0  0
 14 16  1  0  0  0  0
 15 10  2  0  0  0  0
 16  7  2  0  0  0  0
 16 15  1  0  0  0  0
 17 18  1  0  0  0  0
 19 20  1  0  0  0  0
 20 17  1  0  0  0  0
 20 21  2  0  0  0  0
 22 23  1  1  0  0  0
 24 22  1  0  0  0  0
 25 24  2  0  0  0  0
 26 29  1  0  0  0  0
 26 25  1  0  0  0  0
 27 29  2  0  0  0  0
 28 35  1  0  0  0  0
 29 28  1  0  0  0  0
 30 33  1  0  0  0  0
 31 33  1  0  0  0  0
 32 30  1  0  0  0  0
 34 35  1  0  0  0  0
 34 32  1  0  0  0  0
 35 31  1  0  0  0  0
M  END
>  <MODEL>
6

>  <REMARK>
 VINA RESULT:      -7.1      3.157      6.589
  Name = 
  7 active torsions:
  status: ('A' for Active; 'I' for Inactive)
    1  A    between atoms: C_1  and  N_11
    2  A    between atoms: C_1  and  C_23
    3  A    between atoms: C_4  and  C_8
    4  A    between atoms: C_4  and  C_9
    5  A    between atoms: C_6  and  C_10
    6  A    between atoms: N_19  and  C_29
    7  A    between atoms: N_21  and  C_30
                            x       y       z     vdW  Elec       q    Type
                         _______ _______ _______ _____ _____    ______ ____

>  <TORSDO>
F 7

$$$$
=
 OpenBabel10222418013D

 35 38  0  0  1  0  0  0  0  0999 V2000
  182.6990  177.6210  139.7700 C   0  0  0  0  0  3  0  0  0  0  0  0
  184.7090  178.0580  138.4950 C   0  0  0  0  0  0  0  0  0  0  0  0
  184.5940  178.6870  140.8460 C   0  0  0  0  0  0  0  0  0  0  0  0
  183.2820  178.1690  140.9220 C   0  0  0  0  0  0  0  0  0  0  0  0
  185.2970  178.6120  139.6430 C   0  0  0  0  0  3  0  0  0  0  0  0
  183.4080  177.5580  138.5680 C   0  0  0  0  0  3  0  0  0  0  0  0
  187.2070  176.1310  137.8820 N   0  0  0  0  0  0  0  0  0  0  0  0
  185.5090  177.8600  137.2390 C   0  0  2  0  0  3  0  0  0  0  0  0
  185.9610  176.3760  137.1380 C   0  0  0  0  0  2  0  0  0  0  0  0
  186.6650  178.7820  137.2050 N   0  0  0  0  0  0  0  0  0  0  0  0
  188.8910  179.1730  137.8470 N   0  0  0  0  0  0  0  0  0  0  0  0
  189.8130  178.3730  138.4480 C   0  0  0  0  0  3  0  0  0  0  0  0
  189.9340  175.9930  139.2420 N   0  0  0  0  0  1  0  0  0  0  0  0
  189.3120  177.0820  138.5670 C   0  0  1  0  0  3  0  0  0  0  0  0
  187.8250  178.3800  137.6290 C   0  0  0  0  0  0  0  0  0  0  0  0
  188.0630  177.0970  138.0140 C   0  0  0  0  0  0  0  0  0  0  0  0
  180.8080  179.8460  141.5490 N   0  0  0  0  0  2  0  0  0  0  0  0
  179.5600  180.5410  141.8150 C   0  0  0  0  0  1  0  0  0  0  0  0
  182.5740  178.1990  142.1700 N   0  0  0  0  0  2  0  0  0  0  0  0
  181.4270  178.9900  142.5120 C   0  0  0  0  0  0  0  0  0  0  0  0
  180.9420  178.8910  143.6700 O   0  0  0  0  0  0  0  0  0  0  0  0
  185.2940  179.2930  142.0290 C   0  0  2  0  0  3  0  0  0  0  0  0
  186.4170  180.0180  141.6170 O   0  0  0  0  0  1  0  0  0  0  0  0
  185.6890  178.2340  143.0070 C   0  0  0  0  0  3  0  0  0  0  0  0
  185.8560  178.5120  144.2520 N   0  0  0  0  0  0  0  0  0  0  0  0
  186.2360  177.4790  145.1900 C   0  0  0  0  0  2  0  0  0  0  0  0
  187.9580  177.5880  146.8720 O   0  0  0  0  0  0  0  0  0  0  0  0
  188.6800  177.8380  144.6640 N   0  0  0  0  0  2  0  0  0  0  0  0
  187.6610  177.6220  145.6450 C   0  0  0  0  0  0  0  0  0  0  0  0
  191.6830  176.9550  142.8190 C   0  0  0  0  0  2  0  0  0  0  0  0
  190.8360  176.7560  145.1690 C   0  0  0  0  0  2  0  0  0  0  0  0
  190.8910  178.2450  142.6330 C   0  0  0  0  0  2  0  0  0  0  0  0
  190.9790  176.0450  143.8230 C   0  0  0  0  0  2  0  0  0  0  0  0
  190.7450  178.9700  143.9720 C   0  0  0  0  0  2  0  0  0  0  0  0
  190.0760  178.0800  145.0220 C   0  0  0  0  0  3  0  0  0  0  0  0
  1  4  1  0  0  0  0
  2  6  1  0  0  0  0
  2  5  2  0  0  0  0
  3  4  2  0  0  0  0
  3 22  1  0  0  0  0
  4 19  1  0  0  0  0
  5  3  1  0  0  0  0
  6  1  2  0  0  0  0
  7 16  2  0  0  0  0
  8  2  1  1  0  0  0
  9  8  1  0  0  0  0
  9  7  1  0  0  0  0
 10  8  1  0  0  0  0
 10 15  2  0  0  0  0
 11 12  2  0  0  0  0
 12 14  1  0  0  0  0
 14 13  1  1  0  0  0
 15 11  1  0  0  0  0
 15 16  1  0  0  0  0
 16 14  1  0  0  0  0
 17 18  1  0  0  0  0
 17 20  1  0  0  0  0
 19 20  1  0  0  0  0
 20 21  2  0  0  0  0
 22 23  1  6  0  0  0
 22 24  1  0  0  0  0
 24 25  2  0  0  0  0
 25 26  1  0  0  0  0
 26 29  1  0  0  0  0
 28 35  1  0  0  0  0
 28 29  1  0  0  0  0
 29 27  2  0  0  0  0
 30 33  1  0  0  0  0
 32 30  1  0  0  0  0
 32 34  1  0  0  0  0
 33 31  1  0  0  0  0
 34 35  1  0  0  0  0
 35 31  1  0  0  0  0
M  END
>  <MODEL>
7

>  <REMARK>
 VINA RESULT:      -7.1      2.973      7.786
  Name = 
  7 active torsions:
  status: ('A' for Active; 'I' for Inactive)
    1  A    between atoms: C_1  and  N_11
    2  A    between atoms: C_1  and  C_23
    3  A    between atoms: C_4  and  C_8
    4  A    between atoms: C_4  and  C_9
    5  A    between atoms: C_6  and  C_10
    6  A    between atoms: N_19  and  C_29
    7  A    between atoms: N_21  and  C_30
                            x       y       z     vdW  Elec       q    Type
                         _______ _______ _______ _____ _____    ______ ____

>  <TORSDO>
F 7

$$$$
=
 OpenBabel10222418013D

 35 38  0  0  1  0  0  0  0  0999 V2000
  187.6700  177.0130  143.6840 C   0  0  0  0  0  3  0  0  0  0  0  0
  186.5460  178.5350  142.1750 C   0  0  0  0  0  0  0  0  0  0  0  0
  188.5840  177.4020  141.4720 C   0  0  0  0  0  0  0  0  0  0  0  0
  188.6510  176.7440  142.7190 C   0  0  0  0  0  0  0  0  0  0  0  0
  187.5280  178.2750  141.2070 C   0  0  0  0  0  3  0  0  0  0  0  0
  186.6210  177.8950  143.4130 C   0  0  0  0  0  3  0  0  0  0  0  0
  183.4950  177.6920  141.6200 N   0  0  0  0  0  0  0  0  0  0  0  0
  185.3430  179.3720  141.8460 C   0  0  2  0  0  3  0  0  0  0  0  0
  184.0750  178.7340  142.4820 C   0  0  0  0  0  2  0  0  0  0  0  0
  185.1960  179.5230  140.3820 N   0  0  0  0  0  0  0  0  0  0  0  0
  184.3640  178.6120  138.3810 N   0  0  0  0  0  0  0  0  0  0  0  0
  183.5670  177.5360  138.1400 C   0  0  0  0  0  3  0  0  0  0  0  0
  182.3530  175.8130  139.5060 N   0  0  0  0  0  1  0  0  0  0  0  0
  183.1140  177.0060  139.3420 C   0  0  1  0  0  3  0  0  0  0  0  0
  184.4200  178.7150  139.7220 C   0  0  0  0  0  0  0  0  0  0  0  0
  183.6400  177.7840  140.3340 C   0  0  0  0  0  0  0  0  0  0  0  0
  190.7670  176.9740  144.9100 N   0  0  0  0  0  2  0  0  0  0  0  0
  191.6970  177.0100  146.0260 C   0  0  0  0  0  1  0  0  0  0  0  0
  189.7080  175.8070  142.9770 N   0  0  0  0  0  2  0  0  0  0  0  0
  190.7340  175.8930  143.9760 C   0  0  0  0  0  0  0  0  0  0  0  0
  191.5920  174.9730  144.0490 O   0  0  0  0  0  0  0  0  0  0  0  0
  189.5930  177.1750  140.3820 C   0  0  2  0  0  3  0  0  0  0  0  0
  190.6910  178.0270  140.5420 O   0  0  0  0  0  1  0  0  0  0  0  0
  188.9720  177.3740  139.0370 C   0  0  0  0  0  3  0  0  0  0  0  0
  189.6250  177.9390  138.0830 N   0  0  0  0  0  0  0  0  0  0  0  0
  189.0140  178.1240  136.7860 C   0  0  0  0  0  2  0  0  0  0  0  0
  189.0900  177.1270  134.5940 O   0  0  0  0  0  0  0  0  0  0  0  0
  190.7070  176.3780  136.1040 N   0  0  0  0  0  2  0  0  0  0  0  0
  189.5930  177.2030  135.7490 C   0  0  0  0  0  0  0  0  0  0  0  0
  193.8890  174.6390  136.3330 C   0  0  0  0  0  2  0  0  0  0  0  0
  192.5930  175.8930  134.5940 C   0  0  0  0  0  2  0  0  0  0  0  0
  192.5890  174.1690  136.9760 C   0  0  0  0  0  2  0  0  0  0  0  0
  193.6840  175.9940  135.6600 C   0  0  0  0  0  2  0  0  0  0  0  0
  191.4880  174.0590  135.9180 C   0  0  0  0  0  2  0  0  0  0  0  0
  191.2730  175.3880  135.1910 C   0  0  0  0  0  3  0  0  0  0  0  0
  2  6  2  0  0  0  0
  3  4  1  0  0  0  0
  4 19  1  0  0  0  0
  4  1  2  0  0  0  0
  5  3  2  0  0  0  0
  5  2  1  0  0  0  0
  6  1  1  0  0  0  0
  7  9  1  0  0  0  0
  8  2  1  6  0  0  0
  8  9  1  0  0  0  0
 10  8  1  0  0  0  0
 11 15  1  0  0  0  0
 12 11  2  0  0  0  0
 12 14  1  0  0  0  0
 14 13  1  1  0  0  0
 14 16  1  0  0  0  0
 15 16  1  0  0  0  0
 15 10  2  0  0  0  0
 16  7  2  0  0  0  0
 17 18  1  0  0  0  0
 19 20  1  0  0  0  0
 20 21  2  0  0  0  0
 20 17  1  0  0  0  0
 22 23  1  1  0  0  0
 22  3  1  0  0  0  0
 24 22  1  0  0  0  0
 25 24  2  0  0  0  0
 26 25  1  0  0  0  0
 27 29  2  0  0  0  0
 29 28  1  0  0  0  0
 29 26  1  0  0  0  0
 30 32  1  0  0  0  0
 31 35  1  0  0  0  0
 31 33  1  0  0  0  0
 33 30  1  0  0  0  0
 34 32  1  0  0  0  0
 35 34  1  0  0  0  0
 35 28  1  0  0  0  0
M  END
>  <MODEL>
8

>  <REMARK>
 VINA RESULT:      -7.1      2.038      2.669
  Name = 
  7 active torsions:
  status: ('A' for Active; 'I' for Inactive)
    1  A    between atoms: C_1  and  N_11
    2  A    between atoms: C_1  and  C_23
    3  A    between atoms: C_4  and  C_8
    4  A    between atoms: C_4  and  C_9
    5  A    between atoms: C_6  and  C_10
    6  A    between atoms: N_19  and  C_29
    7  A    between atoms: N_21  and  C_30
                            x       y       z     vdW  Elec       q    Type
                         _______ _______ _______ _____ _____    ______ ____

>  <TORSDO>
F 7

$$$$
=
 OpenBabel10222418013D

 35 38  0  0  1  0  0  0  0  0999 V2000
  186.0820  177.8980  144.5850 C   0  0  0  0  0  3  0  0  0  0  0  0
  185.3410  178.7990  142.4640 C   0  0  0  0  0  0  0  0  0  0  0  0
  187.5510  177.7930  142.6580 C   0  0  0  0  0  0  0  0  0  0  0  0
  187.3040  177.5090  144.0190 C   0  0  0  0  0  0  0  0  0  0  0  0
  186.5650  178.4170  141.8930 C   0  0  0  0  0  3  0  0  0  0  0  0
  185.1040  178.5310  143.8130 C   0  0  0  0  0  3  0  0  0  0  0  0
  183.2000  177.3130  140.5830 N   0  0  0  0  0  0  0  0  0  0  0  0
  184.2340  179.3530  141.6130 C   0  0  2  0  0  3  0  0  0  0  0  0
  183.0370  178.3590  141.6050 C   0  0  0  0  0  2  0  0  0  0  0  0
  184.7160  179.6290  140.2430 N   0  0  0  0  0  0  0  0  0  0  0  0
  185.1340  178.7790  138.0920 N   0  0  0  0  0  0  0  0  0  0  0  0
  184.8440  177.5780  137.5220 C   0  0  0  0  0  3  0  0  0  0  0  0
  183.6600  175.4680  138.1980 N   0  0  0  0  0  1  0  0  0  0  0  0
  184.0650  176.8200  138.3900 C   0  0  1  0  0  3  0  0  0  0  0  0
  184.5600  178.7400  139.3100 C   0  0  0  0  0  0  0  0  0  0  0  0
  183.8690  177.5840  139.5050 C   0  0  0  0  0  0  0  0  0  0  0  0
  188.0220  178.0790  146.9330 N   0  0  0  0  0  2  0  0  0  0  0  0
  188.2800  178.2570  148.3520 C   0  0  0  0  0  1  0  0  0  0  0  0
  188.2960  176.8220  144.7970 N   0  0  0  0  0  2  0  0  0  0  0  0
  188.6800  177.0770  146.1560 C   0  0  0  0  0  0  0  0  0  0  0  0
  189.5860  176.3710  146.6750 O   0  0  0  0  0  0  0  0  0  0  0  0
  188.8330  177.4140  141.9720 C   0  0  2  0  0  3  0  0  0  0  0  0
  189.8930  178.1960  142.4420 O   0  0  0  0  0  1  0  0  0  0  0  0
  188.7000  177.5530  140.4900 C   0  0  0  0  0  3  0  0  0  0  0  0
  189.4320  178.3830  139.8340 N   0  0  0  0  0  0  0  0  0  0  0  0
  189.2960  178.5080  138.4000 C   0  0  0  0  0  2  0  0  0  0  0  0
  190.7390  176.6840  137.7710 O   0  0  0  0  0  0  0  0  0  0  0  0
  188.5820  176.6260  136.8740 N   0  0  0  0  0  2  0  0  0  0  0  0
  189.5980  177.2200  137.6870 C   0  0  0  0  0  0  0  0  0  0  0  0
  186.1640  174.2260  135.6130 C   0  0  0  0  0  2  0  0  0  0  0  0
  188.3570  174.1730  136.8230 C   0  0  0  0  0  2  0  0  0  0  0  0
  186.5810  175.5050  134.8940 C   0  0  0  0  0  2  0  0  0  0  0  0
  186.8370  174.1470  136.9810 C   0  0  0  0  0  2  0  0  0  0  0  0
  188.1010  175.5420  134.7250 C   0  0  0  0  0  2  0  0  0  0  0  0
  188.8190  175.4280  136.0720 C   0  0  0  0  0  3  0  0  0  0  0  0
  2  6  1  0  0  0  0
  3  4  2  0  0  0  0
  4  1  1  0  0  0  0
  4 19  1  0  0  0  0
  5  2  2  0  0  0  0
  5  3  1  0  0  0  0
  6  1  2  0  0  0  0
  7  9  1  0  0  0  0
  8  2  1  1  0  0  0
  9  8  1  0  0  0  0
 10  8  1  0  0  0  0
 11 15  1  0  0  0  0
 12 11  2  0  0  0  0
 12 14  1  0  0  0  0
 14 13  1  1  0  0  0
 14 16  1  0  0  0  0
 15 16  1  0  0  0  0
 15 10  2  0  0  0  0
 16  7  2  0  0  0  0
 17 18  1  0  0  0  0
 19 20  1  0  0  0  0
 20 21  2  0  0  0  0
 20 17  1  0  0  0  0
 22 23  1  1  0  0  0
 22  3  1  0  0  0  0
 24 22  1  0  0  0  0
 25 24  2  0  0  0  0
 26 25  1  0  0  0  0
 28 29  1  0  0  0  0
 29 27  2  0  0  0  0
 29 26  1  0  0  0  0
 30 33  1  0  0  0  0
 31 33  1  0  0  0  0
 32 30  1  0  0  0  0
 34 32  1  0  0  0  0
 34 35  1  0  0  0  0
 35 31  1  0  0  0  0
 35 28  1  0  0  0  0
M  END
>  <MODEL>
9

>  <REMARK>
 VINA RESULT:      -7.0      1.815      2.198
  Name = 
  7 active torsions:
  status: ('A' for Active; 'I' for Inactive)
    1  A    between atoms: C_1  and  N_11
    2  A    between atoms: C_1  and  C_23
    3  A    between atoms: C_4  and  C_8
    4  A    between atoms: C_4  and  C_9
    5  A    between atoms: C_6  and  C_10
    6  A    between atoms: N_19  and  C_29
    7  A    between atoms: N_21  and  C_30
                            x       y       z     vdW  Elec       q    Type
                         _______ _______ _______ _____ _____    ______ ____

>  <TORSDO>
F 7

$$$$
