=
 OpenBabel10222416193D

 46 49  0  0  1  0  0  0  0  0999 V2000
  181.3090  177.3360  138.1070 N   0  0  0  0  0  2  0  0  0  0  0  0
  182.2490  177.7840  137.1550 C   0  0  0  0  0  0  0  0  0  0  0  0
  183.4550  177.6060  139.1840 C   0  0  2  0  0  3  0  0  0  0  0  0
  183.6200  177.9340  137.6930 C   0  0  1  0  0  3  0  0  0  0  0  0
  181.9270  178.0650  135.9710 O   0  0  0  0  0  0  0  0  0  0  0  0
  181.9820  177.1490  139.3800 C   0  0  1  0  0  3  0  0  0  0  0  0
  181.3160  177.8750  140.3710 O   0  0  0  0  0  1  0  0  0  0  0  0
  183.8730  178.7860  140.0790 C   0  0  2  0  0  3  0  0  0  0  0  0
  184.4560  179.8150  139.3230 O   0  0  0  0  0  1  0  0  0  0  0  0
  185.8560  179.4110  141.5300 C   0  0  0  0  0  1  0  0  0  0  0  0
  184.8370  178.3240  141.1770 C   0  0  1  0  0  3  0  0  0  0  0  0
  184.0560  177.8980  142.4120 C   0  0  0  0  0  2  0  0  0  0  0  0
  182.2870  179.2890  143.3500 N   0  0  0  0  0  1  0  0  0  0  0  0
  183.7250  179.0910  143.2910 C   0  0  1  0  0  3  0  0  0  0  0  0
  187.6810  177.9440  146.1040 N   0  0  0  0  0  2  0  0  0  0  0  0
  183.5220  179.0670  145.6710 O   0  0  0  0  0  0  0  0  0  0  0  0
  186.2930  178.2650  146.0740 C   0  0  0  0  0  0  0  0  0  0  0  0
  185.6330  178.4960  144.8210 N   0  0  0  0  0  2  0  0  0  0  0  0
  185.6560  178.3360  147.1590 O   0  0  0  0  0  0  0  0  0  0  0  0
  184.2670  178.8940  144.6660 C   0  0  0  0  0  0  0  0  0  0  0  0
  189.2430  176.3020  143.1990 C   0  0  0  0  0  2  0  0  0  0  0  0
  188.4920  177.8470  144.9000 C   0  0  1  0  0  3  0  0  0  0  0  0
  190.2540  177.6680  145.3290 S   0  0  0  0  0  0  0  0  0  0  0  0
  191.6640  176.8280  143.1380 C   0  0  0  0  0  1  0  0  0  0  0  0
  190.5090  176.4160  144.0270 C   0  0  2  0  0  3  0  0  0  0  0  0
  188.0810  176.6260  144.1090 C   0  0  0  0  0  2  0  0  0  0  0  0
  184.5710  177.0040  137.0730 N   0  0  0  0  0  0  0  0  0  0  0  0
  183.1890  174.1000  135.1110 C   0  0  0  0  0  3  0  0  0  0  0  0
  183.6420  173.3760  137.3730 C   0  0  0  0  0  3  0  0  0  0  0  0
  183.6510  175.3790  135.4310 C   0  0  0  0  0  3  0  0  0  0  0  0
  184.1140  175.6750  136.7260 C   0  0  0  0  0  0  0  0  0  0  0  0
  183.1810  173.0910  136.0810 C   0  0  0  0  0  0  0  0  0  0  0  0
  184.1020  174.6560  137.6960 C   0  0  0  0  0  3  0  0  0  0  0  0
  182.7190  171.7990  135.7970 O   0  0  0  0  0  0  0  0  0  0  0  0
  181.3350  171.5040  135.6140 C   0  0  0  0  0  1  0  0  0  0  0  0
  185.8910  177.5090  136.6590 C   0  0  2  0  0  3  0  0  0  0  0  0
  185.9790  177.6660  135.1480 C   0  0  0  0  0  1  0  0  0  0  0  0
  187.0170  176.6150  137.1620 C   0  0  0  0  0  2  0  0  0  0  0  0
  187.4410  178.3780  138.6910 O   0  0  0  0  0  0  0  0  0  0  0  0
  192.1150  176.5300  138.3420 C   0  0  0  0  0  2  0  0  0  0  0  0
  189.2590  176.9420  138.3450 N   0  0  0  0  0  0  0  0  0  0  0  0
  191.3760  176.9490  139.6130 C   0  0  0  0  0  2  0  0  0  0  0  0
  190.0960  177.7090  139.2770 C   0  0  0  0  0  2  0  0  0  0  0  0
  189.7710  175.7190  137.7320 C   0  0  0  0  0  2  0  0  0  0  0  0
  187.9060  177.3650  138.1010 C   0  0  0  0  0  0  0  0  0  0  0  0
  191.2130  175.9210  137.2670 C   0  0  0  0  0  2  0  0  0  0  0  0
  1  6  1  0  0  0  0
  2  4  1  0  0  0  0
  2  1  1  0  0  0  0
  3  6  1  0  0  0  0
  3  8  1  1  0  0  0
  4 27  1  6  0  0  0
  4  3  1  0  0  0  0
  5  2  2  0  0  0  0
  6  7  1  1  0  0  0
  8  9  1  6  0  0  0
  8 11  1  0  0  0  0
 11 10  1  1  0  0  0
 11 12  1  0  0  0  0
 12 14  1  0  0  0  0
 14 13  1  1  0  0  0
 14 20  1  0  0  0  0
 17 15  1  0  0  0  0
 17 19  2  0  0  0  0
 18 17  1  0  0  0  0
 20 18  1  0  0  0  0
 20 16  2  0  0  0  0
 21 25  1  0  0  0  0
 21 26  1  0  0  0  0
 22 23  1  0  0  0  0
 22 15  1  1  0  0  0
 25 24  1  6  0  0  0
 25 23  1  0  0  0  0
 26 22  1  0  0  0  0
 28 30  2  0  0  0  0
 28 32  1  0  0  0  0
 29 33  1  0  0  0  0
 30 31  1  0  0  0  0
 31 27  1  0  0  0  0
 31 33  2  0  0  0  0
 32 29  2  0  0  0  0
 34 32  1  0  0  0  0
 35 34  1  0  0  0  0
 36 37  1  6  0  0  0
 36 27  1  0  0  0  0
 36 38  1  0  0  0  0
 38 45  1  0  0  0  0
 40 42  1  0  0  0  0
 41 43  1  0  0  0  0
 43 42  1  0  0  0  0
 44 41  1  0  0  0  0
 45 41  1  0  0  0  0
 45 39  2  0  0  0  0
 46 44  1  0  0  0  0
 46 40  1  0  0  0  0
M  END
>  <MODEL>
1

>  <REMARK>
 VINA RESULT:      -8.0      0.000      0.000
  Name = 
  12 active torsions:
  status: ('A' for Active; 'I' for Inactive)
    1  A    between atoms: N_4  and  C_6
    2  A    between atoms: N_4  and  C_25
    3  A    between atoms: N_4  and  C_30
    4  A    between atoms: C_6  and  C_13
    5  A    between atoms: C_7  and  C_17
    6  A    between atoms: C_7  and  C_40
    7  A    between atoms: N_10  and  C_11
    8  A    between atoms: O_12  and  C_35
    9  A    between atoms: C_13  and  C_31
   10  A    between atoms: C_32  and  C_37
   11  A    between atoms: C_32  and  C_40
   12  A    between atoms: C_37  and  C_46
                            x       y       z     vdW  Elec       q    Type
                         _______ _______ _______ _____ _____    ______ ____

>  <TORSDO>
F 12

$$$$
=
 OpenBabel10222416193D

 46 49  0  0  1  0  0  0  0  0999 V2000
  180.4890  179.0830  138.4520 N   0  0  0  0  0  2  0  0  0  0  0  0
  181.4640  179.0920  137.4310 C   0  0  0  0  0  0  0  0  0  0  0  0
  182.6100  178.3950  139.3820 C   0  0  2  0  0  3  0  0  0  0  0  0
  182.8000  178.6350  137.8780 C   0  0  1  0  0  3  0  0  0  0  0  0
  181.2160  179.4950  136.2650 O   0  0  0  0  0  0  0  0  0  0  0  0
  181.1000  178.6140  139.6820 C   0  0  1  0  0  3  0  0  0  0  0  0
  180.8780  179.5460  140.6990 O   0  0  0  0  0  1  0  0  0  0  0  0
  183.5520  179.2740  140.2240 C   0  0  2  0  0  3  0  0  0  0  0  0
  184.2290  180.2060  139.4230 O   0  0  0  0  0  1  0  0  0  0  0  0
  185.8680  179.1620  141.2520 C   0  0  0  0  0  1  0  0  0  0  0  0
  184.5570  178.4120  140.9970 C   0  0  1  0  0  3  0  0  0  0  0  0
  183.9430  177.9420  142.3080 C   0  0  0  0  0  2  0  0  0  0  0  0
  182.3100  179.3250  143.4760 N   0  0  0  0  0  1  0  0  0  0  0  0
  183.7290  179.1040  143.2620 C   0  0  1  0  0  3  0  0  0  0  0  0
  187.9360  177.8080  145.6080 N   0  0  0  0  0  2  0  0  0  0  0  0
  183.7660  178.9730  145.6470 O   0  0  0  0  0  0  0  0  0  0  0  0
  186.5550  178.1370  145.7320 C   0  0  0  0  0  0  0  0  0  0  0  0
  185.7760  178.4290  144.5630 N   0  0  0  0  0  2  0  0  0  0  0  0
  186.0320  178.1630  146.8780 O   0  0  0  0  0  0  0  0  0  0  0  0
  184.4050  178.8410  144.5650 C   0  0  0  0  0  0  0  0  0  0  0  0
  189.4880  176.2440  142.6540 C   0  0  0  0  0  2  0  0  0  0  0  0
  188.6210  177.7610  144.3240 C   0  0  1  0  0  3  0  0  0  0  0  0
  190.4170  177.9650  144.5510 S   0  0  0  0  0  0  0  0  0  0  0  0
  191.7340  177.2190  142.2690 C   0  0  0  0  0  1  0  0  0  0  0  0
  190.7830  176.6740  143.3150 C   0  0  2  0  0  3  0  0  0  0  0  0
  188.3850  176.4180  143.6720 C   0  0  0  0  0  2  0  0  0  0  0  0
  183.2160  177.3910  137.2160 N   0  0  0  0  0  0  0  0  0  0  0  0
  180.4830  175.0260  136.1560 C   0  0  0  0  0  3  0  0  0  0  0  0
  181.3900  174.2820  138.2710 C   0  0  0  0  0  3  0  0  0  0  0  0
  181.3830  176.0950  136.1500 C   0  0  0  0  0  3  0  0  0  0  0  0
  182.2980  176.2730  137.2040 C   0  0  0  0  0  0  0  0  0  0  0  0
  180.4810  174.1140  137.2180 C   0  0  0  0  0  0  0  0  0  0  0  0
  182.2890  175.3530  138.2670 C   0  0  0  0  0  3  0  0  0  0  0  0
  179.5890  173.0340  137.2610 O   0  0  0  0  0  0  0  0  0  0  0  0
  179.9690  171.7110  136.8870 C   0  0  0  0  0  1  0  0  0  0  0  0
  184.4660  177.3860  136.4370 C   0  0  2  0  0  3  0  0  0  0  0  0
  184.2600  176.7730  135.0600 C   0  0  0  0  0  1  0  0  0  0  0  0
  185.5840  176.6620  137.1750 C   0  0  0  0  0  2  0  0  0  0  0  0
  186.3170  178.8400  137.7590 O   0  0  0  0  0  0  0  0  0  0  0  0
  190.7750  176.4940  137.8150 C   0  0  0  0  0  2  0  0  0  0  0  0
  187.9770  177.1930  137.8980 N   0  0  0  0  0  0  0  0  0  0  0  0
  190.2360  177.4870  138.8450 C   0  0  0  0  0  2  0  0  0  0  0  0
  188.9760  178.1790  138.3330 C   0  0  0  0  0  2  0  0  0  0  0  0
  188.3240  175.7760  137.8230 C   0  0  0  0  0  2  0  0  0  0  0  0
  186.6340  177.6280  137.6190 C   0  0  0  0  0  0  0  0  0  0  0  0
  189.7040  175.6000  137.1900 C   0  0  0  0  0  2  0  0  0  0  0  0
  1  6  1  0  0  0  0
  2  4  1  0  0  0  0
  2  1  1  0  0  0  0
  3  6  1  0  0  0  0
  3  8  1  1  0  0  0
  4 27  1  6  0  0  0
  4  3  1  0  0  0  0
  5  2  2  0  0  0  0
  6  7  1  1  0  0  0
  8  9  1  6  0  0  0
  8 11  1  0  0  0  0
 11 10  1  1  0  0  0
 11 12  1  0  0  0  0
 12 14  1  0  0  0  0
 14 13  1  1  0  0  0
 14 20  1  0  0  0  0
 15 17  1  0  0  0  0
 17 19  2  0  0  0  0
 18 20  1  0  0  0  0
 18 17  1  0  0  0  0
 20 16  2  0  0  0  0
 21 25  1  0  0  0  0
 21 26  1  0  0  0  0
 22 23  1  0  0  0  0
 22 15  1  1  0  0  0
 25 24  1  6  0  0  0
 25 23  1  0  0  0  0
 26 22  1  0  0  0  0
 28 32  1  0  0  0  0
 30 28  2  0  0  0  0
 30 31  1  0  0  0  0
 31 27  1  0  0  0  0
 31 33  2  0  0  0  0
 32 34  1  0  0  0  0
 32 29  2  0  0  0  0
 33 29  1  0  0  0  0
 35 34  1  0  0  0  0
 36 37  1  6  0  0  0
 36 38  1  0  0  0  0
 36 27  1  0  0  0  0
 38 45  1  0  0  0  0
 40 42  1  0  0  0  0
 41 43  1  0  0  0  0
 43 42  1  0  0  0  0
 44 41  1  0  0  0  0
 45 39  2  0  0  0  0
 45 41  1  0  0  0  0
 46 40  1  0  0  0  0
 46 44  1  0  0  0  0
M  END
>  <MODEL>
2

>  <REMARK>
 VINA RESULT:      -7.7      1.437      1.523
  Name = 
  12 active torsions:
  status: ('A' for Active; 'I' for Inactive)
    1  A    between atoms: N_4  and  C_6
    2  A    between atoms: N_4  and  C_25
    3  A    between atoms: N_4  and  C_30
    4  A    between atoms: C_6  and  C_13
    5  A    between atoms: C_7  and  C_17
    6  A    between atoms: C_7  and  C_40
    7  A    between atoms: N_10  and  C_11
    8  A    between atoms: O_12  and  C_35
    9  A    between atoms: C_13  and  C_31
   10  A    between atoms: C_32  and  C_37
   11  A    between atoms: C_32  and  C_40
   12  A    between atoms: C_37  and  C_46
                            x       y       z     vdW  Elec       q    Type
                         _______ _______ _______ _____ _____    ______ ____

>  <TORSDO>
F 12

$$$$
=
 OpenBabel10222416193D

 46 49  0  0  1  0  0  0  0  0999 V2000
  191.4760  176.1590  139.1670 N   0  0  0  0  0  2  0  0  0  0  0  0
  191.3310  177.1960  140.1140 C   0  0  0  0  0  0  0  0  0  0  0  0
  189.2800  177.1410  138.9330 C   0  0  2  0  0  3  0  0  0  0  0  0
  189.9980  177.8380  140.0980 C   0  0  1  0  0  3  0  0  0  0  0  0
  192.2730  177.5560  140.8670 O   0  0  0  0  0  0  0  0  0  0  0  0
  190.2340  176.0220  138.4280 C   0  0  1  0  0  3  0  0  0  0  0  0
  190.4950  176.1080  137.0570 O   0  0  0  0  0  1  0  0  0  0  0  0
  188.8520  178.1410  137.8440 C   0  0  2  0  0  3  0  0  0  0  0  0
  189.0810  179.4640  138.2520 O   0  0  0  0  0  1  0  0  0  0  0  0
  187.0760  178.4520  136.0610 C   0  0  0  0  0  1  0  0  0  0  0  0
  187.3770  177.9480  137.4760 C   0  0  1  0  0  3  0  0  0  0  0  0
  186.9900  176.4830  137.6190 C   0  0  0  0  0  2  0  0  0  0  0  0
  187.6540  175.0950  135.7280 N   0  0  0  0  0  1  0  0  0  0  0  0
  186.5750  175.8920  136.2830 C   0  0  1  0  0  3  0  0  0  0  0  0
  181.9760  175.5090  138.1770 N   0  0  0  0  0  2  0  0  0  0  0  0
  185.2980  173.9080  135.9080 O   0  0  0  0  0  0  0  0  0  0  0  0
  183.0240  174.8690  137.4550 C   0  0  0  0  0  0  0  0  0  0  0  0
  184.2580  175.5590  137.2120 N   0  0  0  0  0  2  0  0  0  0  0  0
  182.8530  173.6920  137.0400 O   0  0  0  0  0  0  0  0  0  0  0  0
  185.3530  175.0520  136.4410 C   0  0  0  0  0  0  0  0  0  0  0  0
  182.4090  178.1480  140.7120 C   0  0  0  0  0  2  0  0  0  0  0  0
  182.0880  176.8670  138.6870 C   0  0  1  0  0  3  0  0  0  0  0  0
  180.4360  177.6020  138.9140 S   0  0  0  0  0  0  0  0  0  0  0  0
  180.6220  179.8490  140.4680 C   0  0  0  0  0  1  0  0  0  0  0  0
  180.9230  178.3640  140.4980 C   0  0  2  0  0  3  0  0  0  0  0  0
  182.7750  176.8490  140.0330 C   0  0  0  0  0  2  0  0  0  0  0  0
  189.2570  177.6250  141.3480 N   0  0  0  0  0  0  0  0  0  0  0  0
  191.0900  175.9980  144.2080 C   0  0  0  0  0  3  0  0  0  0  0  0
  191.0510  178.3910  144.5580 C   0  0  0  0  0  3  0  0  0  0  0  0
  190.3870  176.1650  143.0120 C   0  0  0  0  0  3  0  0  0  0  0  0
  190.0060  177.4450  142.5730 C   0  0  0  0  0  0  0  0  0  0  0  0
  191.4250  177.1100  144.9890 C   0  0  0  0  0  0  0  0  0  0  0  0
  190.3460  178.5590  143.3630 C   0  0  0  0  0  3  0  0  0  0  0  0
  192.1230  176.9800  146.1970 O   0  0  0  0  0  0  0  0  0  0  0  0
  191.7810  176.0030  147.1780 C   0  0  0  0  0  1  0  0  0  0  0  0
  187.7930  177.7840  141.3420 C   0  0  2  0  0  3  0  0  0  0  0  0
  187.3920  179.2490  141.4290 C   0  0  0  0  0  1  0  0  0  0  0  0
  187.1380  176.9900  142.4640 C   0  0  0  0  0  2  0  0  0  0  0  0
  185.3510  178.5350  142.6750 O   0  0  0  0  0  0  0  0  0  0  0  0
  187.0020  178.6200  147.4350 C   0  0  0  0  0  2  0  0  0  0  0  0
  186.3600  177.9410  144.7050 N   0  0  0  0  0  0  0  0  0  0  0  0
  185.5510  178.5410  146.9570 C   0  0  0  0  0  2  0  0  0  0  0  0
  185.4520  178.8150  145.4590 C   0  0  0  0  0  2  0  0  0  0  0  0
  187.3260  177.1000  145.4080 C   0  0  0  0  0  2  0  0  0  0  0  0
  186.2370  177.8650  143.2730 C   0  0  0  0  0  0  0  0  0  0  0  0
  187.9970  177.8880  146.5330 C   0  0  0  0  0  2  0  0  0  0  0  0
  1  2  1  0  0  0  0
  2  5  2  0  0  0  0
  3  8  1  6  0  0  0
  3  4  1  0  0  0  0
  4  2  1  0  0  0  0
  4 27  1  1  0  0  0
  6  7  1  6  0  0  0
  6  3  1  0  0  0  0
  6  1  1  0  0  0  0
  8  9  1  1  0  0  0
 11 10  1  6  0  0  0
 11 12  1  0  0  0  0
 11  8  1  0  0  0  0
 14 13  1  1  0  0  0
 14 20  1  0  0  0  0
 14 12  1  0  0  0  0
 16 20  2  0  0  0  0
 17 15  1  0  0  0  0
 18 17  1  0  0  0  0
 19 17  2  0  0  0  0
 20 18  1  0  0  0  0
 22 15  1  1  0  0  0
 22 23  1  0  0  0  0
 22 26  1  0  0  0  0
 23 25  1  0  0  0  0
 25 24  1  6  0  0  0
 25 21  1  0  0  0  0
 26 21  1  0  0  0  0
 27 31  1  0  0  0  0
 28 32  1  0  0  0  0
 29 32  2  0  0  0  0
 30 28  2  0  0  0  0
 31 30  1  0  0  0  0
 31 33  2  0  0  0  0
 32 34  1  0  0  0  0
 33 29  1  0  0  0  0
 34 35  1  0  0  0  0
 36 27  1  0  0  0  0
 36 37  1  1  0  0  0
 36 38  1  0  0  0  0
 38 45  1  0  0  0  0
 39 45  2  0  0  0  0
 41 44  1  0  0  0  0
 41 43  1  0  0  0  0
 42 40  1  0  0  0  0
 43 42  1  0  0  0  0
 44 46  1  0  0  0  0
 45 41  1  0  0  0  0
 46 40  1  0  0  0  0
M  END
>  <MODEL>
3

>  <REMARK>
 VINA RESULT:      -7.5      2.889      9.235
  Name = 
  12 active torsions:
  status: ('A' for Active; 'I' for Inactive)
    1  A    between atoms: N_4  and  C_6
    2  A    between atoms: N_4  and  C_25
    3  A    between atoms: N_4  and  C_30
    4  A    between atoms: C_6  and  C_13
    5  A    between atoms: C_7  and  C_17
    6  A    between atoms: C_7  and  C_40
    7  A    between atoms: N_10  and  C_11
    8  A    between atoms: O_12  and  C_35
    9  A    between atoms: C_13  and  C_31
   10  A    between atoms: C_32  and  C_37
   11  A    between atoms: C_32  and  C_40
   12  A    between atoms: C_37  and  C_46
                            x       y       z     vdW  Elec       q    Type
                         _______ _______ _______ _____ _____    ______ ____

>  <TORSDO>
F 12

$$$$
=
 OpenBabel10222416193D

 46 49  0  0  1  0  0  0  0  0999 V2000
  190.9590  175.9920  138.9180 N   0  0  0  0  0  2  0  0  0  0  0  0
  191.0410  177.0450  139.8540 C   0  0  0  0  0  0  0  0  0  0  0  0
  188.9750  177.3590  138.7430 C   0  0  2  0  0  3  0  0  0  0  0  0
  189.8480  177.9220  139.8720 C   0  0  1  0  0  3  0  0  0  0  0  0
  192.0590  177.2330  140.5690 O   0  0  0  0  0  0  0  0  0  0  0  0
  189.6880  176.0790  138.2230 C   0  0  1  0  0  3  0  0  0  0  0  0
  189.9110  176.1030  136.8440 O   0  0  0  0  0  1  0  0  0  0  0  0
  188.6980  178.4110  137.6540 C   0  0  2  0  0  3  0  0  0  0  0  0
  189.0220  179.7010  138.1010 O   0  0  0  0  0  1  0  0  0  0  0  0
  187.1150  178.1570  135.6900 C   0  0  0  0  0  1  0  0  0  0  0  0
  187.2340  178.3590  137.2030 C   0  0  1  0  0  3  0  0  0  0  0  0
  186.4960  177.2590  137.9520 C   0  0  0  0  0  2  0  0  0  0  0  0
  185.2700  179.2310  138.6960 N   0  0  0  0  0  1  0  0  0  0  0  0
  185.2150  177.7850  138.5760 C   0  0  1  0  0  3  0  0  0  0  0  0
  180.8200  179.1340  136.6390 N   0  0  0  0  0  2  0  0  0  0  0  0
  183.9780  176.2350  137.2440 O   0  0  0  0  0  0  0  0  0  0  0  0
  181.7750  178.0910  136.8140 C   0  0  0  0  0  0  0  0  0  0  0  0
  182.9710  178.3290  137.5700 N   0  0  0  0  0  2  0  0  0  0  0  0
  181.5520  176.9630  136.3010 O   0  0  0  0  0  0  0  0  0  0  0  0
  184.0340  177.3880  137.7550 C   0  0  0  0  0  0  0  0  0  0  0  0
  179.9750  182.1170  138.6310 C   0  0  0  0  0  2  0  0  0  0  0  0
  181.0010  180.4680  137.1920 C   0  0  1  0  0  3  0  0  0  0  0  0
  180.4950  181.7350  135.9840 S   0  0  0  0  0  0  0  0  0  0  0  0
  180.2070  184.1530  137.2360 C   0  0  0  0  0  1  0  0  0  0  0  0
  179.6810  182.7330  137.2760 C   0  0  2  0  0  3  0  0  0  0  0  0
  180.1380  180.6300  138.4220 C   0  0  0  0  0  2  0  0  0  0  0  0
  189.1260  177.8590  141.1500 N   0  0  0  0  0  0  0  0  0  0  0  0
  190.7730  175.9340  143.9370 C   0  0  0  0  0  3  0  0  0  0  0  0
  191.0950  178.3000  144.3180 C   0  0  0  0  0  3  0  0  0  0  0  0
  190.0720  176.2220  142.7630 C   0  0  0  0  0  3  0  0  0  0  0  0
  189.8720  177.5520  142.3510 C   0  0  0  0  0  0  0  0  0  0  0  0
  191.2880  176.9720  144.7220 C   0  0  0  0  0  0  0  0  0  0  0  0
  190.3920  178.5900  143.1460 C   0  0  0  0  0  3  0  0  0  0  0  0
  191.9900  176.7210  145.9080 O   0  0  0  0  0  0  0  0  0  0  0  0
  191.3470  176.6580  147.1800 C   0  0  0  0  0  1  0  0  0  0  0  0
  187.7180  178.2890  141.1910 C   0  0  2  0  0  3  0  0  0  0  0  0
  187.5870  179.7180  141.6970 C   0  0  0  0  0  1  0  0  0  0  0  0
  186.8700  177.3500  142.0380 C   0  0  0  0  0  2  0  0  0  0  0  0
  185.0620  178.8360  142.4160 O   0  0  0  0  0  0  0  0  0  0  0  0
  186.7520  178.4690  147.1480 C   0  0  0  0  0  2  0  0  0  0  0  0
  186.0970  178.0580  144.3680 N   0  0  0  0  0  0  0  0  0  0  0  0
  185.2990  178.4160  146.6750 C   0  0  0  0  0  2  0  0  0  0  0  0
  185.1830  178.8380  145.2130 C   0  0  0  0  0  2  0  0  0  0  0  0
  187.0820  177.1670  144.9760 C   0  0  0  0  0  2  0  0  0  0  0  0
  185.9630  178.1250  142.9370 C   0  0  0  0  0  0  0  0  0  0  0  0
  187.7500  177.8480  146.1700 C   0  0  0  0  0  2  0  0  0  0  0  0
  1  2  1  0  0  0  0
  2  4  1  0  0  0  0
  2  5  2  0  0  0  0
  3  8  1  6  0  0  0
  3  4  1  0  0  0  0
  4 27  1  1  0  0  0
  6  7  1  6  0  0  0
  6  3  1  0  0  0  0
  6  1  1  0  0  0  0
  8  9  1  1  0  0  0
 11 10  1  6  0  0  0
 11  8  1  0  0  0  0
 11 12  1  0  0  0  0
 12 14  1  0  0  0  0
 14 13  1  6  0  0  0
 15 17  1  0  0  0  0
 16 20  2  0  0  0  0
 17 18  1  0  0  0  0
 18 20  1  0  0  0  0
 19 17  2  0  0  0  0
 20 14  1  0  0  0  0
 22 15  1  6  0  0  0
 22 26  1  0  0  0  0
 23 22  1  0  0  0  0
 23 25  1  0  0  0  0
 25 24  1  1  0  0  0
 25 21  1  0  0  0  0
 26 21  1  0  0  0  0
 27 36  1  0  0  0  0
 27 31  1  0  0  0  0
 28 32  1  0  0  0  0
 29 32  2  0  0  0  0
 30 28  2  0  0  0  0
 31 30  1  0  0  0  0
 31 33  2  0  0  0  0
 32 34  1  0  0  0  0
 33 29  1  0  0  0  0
 34 35  1  0  0  0  0
 36 37  1  1  0  0  0
 36 38  1  0  0  0  0
 38 45  1  0  0  0  0
 39 45  2  0  0  0  0
 41 44  1  0  0  0  0
 41 43  1  0  0  0  0
 42 40  1  0  0  0  0
 43 42  1  0  0  0  0
 44 46  1  0  0  0  0
 45 41  1  0  0  0  0
 46 40  1  0  0  0  0
M  END
>  <MODEL>
4

>  <REMARK>
 VINA RESULT:      -7.4      3.396      9.420
  Name = 
  12 active torsions:
  status: ('A' for Active; 'I' for Inactive)
    1  A    between atoms: N_4  and  C_6
    2  A    between atoms: N_4  and  C_25
    3  A    between atoms: N_4  and  C_30
    4  A    between atoms: C_6  and  C_13
    5  A    between atoms: C_7  and  C_17
    6  A    between atoms: C_7  and  C_40
    7  A    between atoms: N_10  and  C_11
    8  A    between atoms: O_12  and  C_35
    9  A    between atoms: C_13  and  C_31
   10  A    between atoms: C_32  and  C_37
   11  A    between atoms: C_32  and  C_40
   12  A    between atoms: C_37  and  C_46
                            x       y       z     vdW  Elec       q    Type
                         _______ _______ _______ _____ _____    ______ ____

>  <TORSDO>
F 12

$$$$
=
 OpenBabel10222416193D

 46 49  0  0  1  0  0  0  0  0999 V2000
  191.9210  176.2270  138.9200 N   0  0  0  0  0  2  0  0  0  0  0  0
  191.7750  177.2930  139.8320 C   0  0  0  0  0  0  0  0  0  0  0  0
  189.5790  176.7930  139.1040 C   0  0  2  0  0  3  0  0  0  0  0  0
  190.3690  177.6920  140.0660 C   0  0  1  0  0  3  0  0  0  0  0  0
  192.7630  177.8690  140.3590 O   0  0  0  0  0  0  0  0  0  0  0  0
  190.6060  175.8190  138.4600 C   0  0  1  0  0  3  0  0  0  0  0  0
  190.5720  175.8410  137.0630 O   0  0  0  0  0  1  0  0  0  0  0  0
  188.7680  177.6150  138.0870 C   0  0  2  0  0  3  0  0  0  0  0  0
  188.8850  178.9910  138.3380 O   0  0  0  0  0  1  0  0  0  0  0  0
  186.3880  178.3050  137.5500 C   0  0  0  0  0  1  0  0  0  0  0  0
  187.2930  177.1990  138.1010 C   0  0  1  0  0  3  0  0  0  0  0  0
  187.1070  175.9100  137.3140 C   0  0  0  0  0  2  0  0  0  0  0  0
  186.6480  175.7610  134.9240 N   0  0  0  0  0  1  0  0  0  0  0  0
  186.0700  176.0810  136.2170 C   0  0  1  0  0  3  0  0  0  0  0  0
  181.5880  175.6310  138.3600 N   0  0  0  0  0  2  0  0  0  0  0  0
  184.8490  174.0390  135.9980 O   0  0  0  0  0  0  0  0  0  0  0  0
  182.6220  174.9940  137.6140 C   0  0  0  0  0  0  0  0  0  0  0  0
  183.8160  175.7130  137.2770 N   0  0  0  0  0  2  0  0  0  0  0  0
  182.4730  173.7930  137.2620 O   0  0  0  0  0  0  0  0  0  0  0  0
  184.8890  175.2080  136.4750 C   0  0  0  0  0  0  0  0  0  0  0  0
  182.1590  178.4000  140.7220 C   0  0  0  0  0  2  0  0  0  0  0  0
  181.6760  177.0150  138.8020 C   0  0  1  0  0  3  0  0  0  0  0  0
  180.0210  177.6630  139.2040 S   0  0  0  0  0  0  0  0  0  0  0  0
  180.2540  179.9830  140.6390 C   0  0  0  0  0  1  0  0  0  0  0  0
  180.6480  178.5210  140.6860 C   0  0  2  0  0  3  0  0  0  0  0  0
  182.5210  177.0960  140.0520 C   0  0  0  0  0  2  0  0  0  0  0  0
  189.9400  177.4530  141.4500 N   0  0  0  0  0  0  0  0  0  0  0  0
  186.5820  179.1450  141.6600 C   0  0  0  0  0  3  0  0  0  0  0  0
  186.5610  177.1800  143.0690 C   0  0  0  0  0  3  0  0  0  0  0  0
  187.9000  178.8640  141.2920 C   0  0  0  0  0  3  0  0  0  0  0  0
  188.5670  177.7380  141.8070 C   0  0  0  0  0  0  0  0  0  0  0  0
  185.9050  178.3050  142.5520 C   0  0  0  0  0  0  0  0  0  0  0  0
  187.8810  176.8980  142.7030 C   0  0  0  0  0  3  0  0  0  0  0  0
  184.5850  178.5600  142.9480 O   0  0  0  0  0  0  0  0  0  0  0  0
  184.2580  179.5310  143.9410 C   0  0  0  0  0  1  0  0  0  0  0  0
  190.8610  176.7640  142.3690 C   0  0  2  0  0  3  0  0  0  0  0  0
  190.2400  175.4940  142.9310 C   0  0  0  0  0  1  0  0  0  0  0  0
  191.3100  177.6770  143.5020 C   0  0  0  0  0  2  0  0  0  0  0  0
  192.0810  176.0650  145.0600 O   0  0  0  0  0  0  0  0  0  0  0  0
  187.8780  177.4820  147.4480 C   0  0  0  0  0  2  0  0  0  0  0  0
  190.2320  177.3030  145.7890 N   0  0  0  0  0  0  0  0  0  0  0  0
  189.2630  177.2650  148.0580 C   0  0  0  0  0  2  0  0  0  0  0  0
  190.1970  176.5780  147.0660 C   0  0  0  0  0  2  0  0  0  0  0  0
  189.3060  178.4070  145.5430 C   0  0  0  0  0  2  0  0  0  0  0  0
  191.2350  176.9660  144.8140 C   0  0  0  0  0  0  0  0  0  0  0  0
  187.9030  178.0400  146.0240 C   0  0  0  0  0  2  0  0  0  0  0  0
  1  2  1  0  0  0  0
  2  4  1  0  0  0  0
  2  5  2  0  0  0  0
  3  8  1  6  0  0  0
  3  4  1  0  0  0  0
  4 27  1  1  0  0  0
  6  7  1  6  0  0  0
  6  1  1  0  0  0  0
  6  3  1  0  0  0  0
  8 11  1  0  0  0  0
  8  9  1  1  0  0  0
 11 10  1  6  0  0  0
 12 11  1  0  0  0  0
 14 13  1  6  0  0  0
 14 20  1  0  0  0  0
 14 12  1  0  0  0  0
 16 20  2  0  0  0  0
 17 15  1  0  0  0  0
 18 17  1  0  0  0  0
 19 17  2  0  0  0  0
 20 18  1  0  0  0  0
 22 15  1  1  0  0  0
 22 23  1  0  0  0  0
 22 26  1  0  0  0  0
 23 25  1  0  0  0  0
 25 24  1  6  0  0  0
 25 21  1  0  0  0  0
 26 21  1  0  0  0  0
 27 31  1  0  0  0  0
 27 36  1  0  0  0  0
 28 32  1  0  0  0  0
 30 28  2  0  0  0  0
 30 31  1  0  0  0  0
 31 33  2  0  0  0  0
 32 34  1  0  0  0  0
 32 29  2  0  0  0  0
 33 29  1  0  0  0  0
 34 35  1  0  0  0  0
 36 37  1  1  0  0  0
 36 38  1  0  0  0  0
 38 45  1  0  0  0  0
 40 42  1  0  0  0  0
 41 43  1  0  0  0  0
 43 42  1  0  0  0  0
 44 41  1  0  0  0  0
 44 46  1  0  0  0  0
 45 39  2  0  0  0  0
 45 41  1  0  0  0  0
 46 40  1  0  0  0  0
M  END
>  <MODEL>
5

>  <REMARK>
 VINA RESULT:      -7.3      2.954      8.774
  Name = 
  12 active torsions:
  status: ('A' for Active; 'I' for Inactive)
    1  A    between atoms: N_4  and  C_6
    2  A    between atoms: N_4  and  C_25
    3  A    between atoms: N_4  and  C_30
    4  A    between atoms: C_6  and  C_13
    5  A    between atoms: C_7  and  C_17
    6  A    between atoms: C_7  and  C_40
    7  A    between atoms: N_10  and  C_11
    8  A    between atoms: O_12  and  C_35
    9  A    between atoms: C_13  and  C_31
   10  A    between atoms: C_32  and  C_37
   11  A    between atoms: C_32  and  C_40
   12  A    between atoms: C_37  and  C_46
                            x       y       z     vdW  Elec       q    Type
                         _______ _______ _______ _____ _____    ______ ____

>  <TORSDO>
F 12

$$$$
=
 OpenBabel10222416193D

 46 49  0  0  1  0  0  0  0  0999 V2000
  186.6160  178.2650  135.2520 N   0  0  0  0  0  2  0  0  0  0  0  0
  187.1510  178.6700  136.4930 C   0  0  0  0  0  0  0  0  0  0  0  0
  186.2700  176.5050  136.8710 C   0  0  2  0  0  3  0  0  0  0  0  0
  187.0430  177.6430  137.5540 C   0  0  1  0  0  3  0  0  0  0  0  0
  187.6340  179.8180  136.6760 O   0  0  0  0  0  0  0  0  0  0  0  0
  186.0970  176.9160  135.3820 C   0  0  1  0  0  3  0  0  0  0  0  0
  184.7640  176.8860  134.9620 O   0  0  0  0  0  1  0  0  0  0  0  0
  184.9490  176.1950  137.5970 C   0  0  2  0  0  3  0  0  0  0  0  0
  184.0740  175.4730  136.7700 O   0  0  0  0  0  1  0  0  0  0  0  0
  183.0970  177.8780  137.1890 C   0  0  0  0  0  1  0  0  0  0  0  0
  184.2770  177.4840  138.0820 C   0  0  1  0  0  3  0  0  0  0  0  0
  183.8280  177.3260  139.5270 C   0  0  0  0  0  2  0  0  0  0  0  0
  184.5570  179.6490  139.6460 N   0  0  0  0  0  1  0  0  0  0  0  0
  184.4090  178.4200  140.4050 C   0  0  1  0  0  3  0  0  0  0  0  0
  184.1380  179.0030  145.3520 N   0  0  0  0  0  2  0  0  0  0  0  0
  182.2920  178.8100  141.4410 O   0  0  0  0  0  0  0  0  0  0  0  0
  183.4240  178.9090  144.1220 C   0  0  0  0  0  0  0  0  0  0  0  0
  184.1320  178.6960  142.8930 N   0  0  0  0  0  2  0  0  0  0  0  0
  182.1680  179.0120  144.1330 O   0  0  0  0  0  0  0  0  0  0  0  0
  183.5370  178.6570  141.5910 C   0  0  0  0  0  0  0  0  0  0  0  0
  187.4250  177.3420  145.2410 C   0  0  0  0  0  2  0  0  0  0  0  0
  185.5880  178.9000  145.4300 C   0  0  1  0  0  3  0  0  0  0  0  0
  186.1260  178.7660  147.1660 S   0  0  0  0  0  0  0  0  0  0  0  0
  188.7270  177.9170  147.2700 C   0  0  0  0  0  1  0  0  0  0  0  0
  187.3680  177.4970  146.7480 C   0  0  2  0  0  3  0  0  0  0  0  0
  186.0490  177.6580  144.7040 C   0  0  0  0  0  2  0  0  0  0  0  0
  188.3550  177.1640  138.0060 N   0  0  0  0  0  0  0  0  0  0  0  0
  190.2170  176.9760  141.2750 C   0  0  0  0  0  3  0  0  0  0  0  0
  188.3270  178.4630  141.5310 C   0  0  0  0  0  3  0  0  0  0  0  0
  189.8650  176.7640  139.9400 C   0  0  0  0  0  3  0  0  0  0  0  0
  188.7400  177.3970  139.3820 C   0  0  0  0  0  0  0  0  0  0  0  0
  189.4490  177.8270  142.0790 C   0  0  0  0  0  0  0  0  0  0  0  0
  187.9720  178.2500  140.1960 C   0  0  0  0  0  3  0  0  0  0  0  0
  189.7670  178.0570  143.4240 O   0  0  0  0  0  0  0  0  0  0  0  0
  190.7880  178.9710  143.8240 C   0  0  0  0  0  1  0  0  0  0  0  0
  189.1470  176.3090  137.1070 C   0  0  2  0  0  3  0  0  0  0  0  0
  189.1860  174.8690  137.5970 C   0  0  0  0  0  1  0  0  0  0  0  0
  190.5620  176.8430  136.9280 C   0  0  0  0  0  2  0  0  0  0  0  0
  190.7300  175.9870  134.7230 O   0  0  0  0  0  0  0  0  0  0  0  0
  194.7990  173.7790  136.7090 C   0  0  0  0  0  2  0  0  0  0  0  0
  192.5700  175.5030  136.0890 N   0  0  0  0  0  0  0  0  0  0  0  0
  194.6930  174.4800  135.3550 C   0  0  0  0  0  2  0  0  0  0  0  0
  193.2370  174.7720  135.0020 C   0  0  0  0  0  2  0  0  0  0  0  0
  193.2460  175.6960  137.3690 C   0  0  0  0  0  2  0  0  0  0  0  0
  191.2780  176.0900  135.8530 C   0  0  0  0  0  0  0  0  0  0  0  0
  193.9360  174.4040  137.8060 C   0  0  0  0  0  2  0  0  0  0  0  0
  1  6  1  0  0  0  0
  1  2  1  0  0  0  0
  2  5  2  0  0  0  0
  2  4  1  0  0  0  0
  3  4  1  0  0  0  0
  3  8  1  1  0  0  0
  4 27  1  6  0  0  0
  6  7  1  1  0  0  0
  6  3  1  0  0  0  0
  8  9  1  6  0  0  0
  8 11  1  0  0  0  0
 11 10  1  6  0  0  0
 11 12  1  0  0  0  0
 12 14  1  0  0  0  0
 14 13  1  6  0  0  0
 14 20  1  0  0  0  0
 16 20  2  0  0  0  0
 17 19  2  0  0  0  0
 17 15  1  0  0  0  0
 18 17  1  0  0  0  0
 20 18  1  0  0  0  0
 21 25  1  0  0  0  0
 22 15  1  1  0  0  0
 22 23  1  0  0  0  0
 25 23  1  0  0  0  0
 25 24  1  6  0  0  0
 26 21  1  0  0  0  0
 26 22  1  0  0  0  0
 27 31  1  0  0  0  0
 28 32  1  0  0  0  0
 29 32  2  0  0  0  0
 30 28  2  0  0  0  0
 31 30  1  0  0  0  0
 31 33  2  0  0  0  0
 32 34  1  0  0  0  0
 33 29  1  0  0  0  0
 34 35  1  0  0  0  0
 36 37  1  1  0  0  0
 36 27  1  0  0  0  0
 38 36  1  0  0  0  0
 39 45  2  0  0  0  0
 40 46  1  0  0  0  0
 41 44  1  0  0  0  0
 42 40  1  0  0  0  0
 43 42  1  0  0  0  0
 43 41  1  0  0  0  0
 44 46  1  0  0  0  0
 45 41  1  0  0  0  0
 45 38  1  0  0  0  0
M  END
>  <MODEL>
6

>  <REMARK>
 VINA RESULT:      -6.9      2.477      5.671
  Name = 
  12 active torsions:
  status: ('A' for Active; 'I' for Inactive)
    1  A    between atoms: N_4  and  C_6
    2  A    between atoms: N_4  and  C_25
    3  A    between atoms: N_4  and  C_30
    4  A    between atoms: C_6  and  C_13
    5  A    between atoms: C_7  and  C_17
    6  A    between atoms: C_7  and  C_40
    7  A    between atoms: N_10  and  C_11
    8  A    between atoms: O_12  and  C_35
    9  A    between atoms: C_13  and  C_31
   10  A    between atoms: C_32  and  C_37
   11  A    between atoms: C_32  and  C_40
   12  A    between atoms: C_37  and  C_46
                            x       y       z     vdW  Elec       q    Type
                         _______ _______ _______ _____ _____    ______ ____

>  <TORSDO>
F 12

$$$$
=
 OpenBabel10222416193D

 46 49  0  0  1  0  0  0  0  0999 V2000
  180.6570  178.6820  139.0310 N   0  0  0  0  0  2  0  0  0  0  0  0
  181.4420  178.7210  137.8580 C   0  0  0  0  0  0  0  0  0  0  0  0
  182.9730  178.3250  139.6190 C   0  0  2  0  0  3  0  0  0  0  0  0
  182.8800  178.4600  138.0930 C   0  0  1  0  0  3  0  0  0  0  0  0
  180.9550  178.9950  136.7310 O   0  0  0  0  0  0  0  0  0  0  0  0
  181.5180  178.3890  140.1620 C   0  0  1  0  0  3  0  0  0  0  0  0
  181.3480  179.3700  141.1440 O   0  0  0  0  0  1  0  0  0  0  0  0
  183.9200  179.3730  140.2300 C   0  0  2  0  0  3  0  0  0  0  0  0
  184.5520  180.1300  139.2310 O   0  0  0  0  0  1  0  0  0  0  0  0
  186.3850  178.8990  140.5870 C   0  0  0  0  0  1  0  0  0  0  0  0
  184.9660  178.7050  141.1300 C   0  0  1  0  0  3  0  0  0  0  0  0
  184.8540  179.2430  142.5490 C   0  0  0  0  0  2  0  0  0  0  0  0
  185.8810  177.1400  143.2310 N   0  0  0  0  0  1  0  0  0  0  0  0
  184.8580  178.1150  143.5650 C   0  0  1  0  0  3  0  0  0  0  0  0
  187.7890  178.1350  147.6010 N   0  0  0  0  0  2  0  0  0  0  0  0
  184.2910  179.4860  145.4370 O   0  0  0  0  0  0  0  0  0  0  0  0
  186.5870  178.6070  146.9990 C   0  0  0  0  0  0  0  0  0  0  0  0
  186.2330  178.1890  145.6730 N   0  0  0  0  0  2  0  0  0  0  0  0
  185.8430  179.3890  147.6480 O   0  0  0  0  0  0  0  0  0  0  0  0
  185.0940  178.6490  144.9370 C   0  0  0  0  0  0  0  0  0  0  0  0
  191.0400  176.6190  146.7560 C   0  0  0  0  0  2  0  0  0  0  0  0
  188.7080  177.2340  146.9210 C   0  0  1  0  0  3  0  0  0  0  0  0
  189.1360  177.8830  145.2730 S   0  0  0  0  0  0  0  0  0  0  0  0
  191.3280  176.5660  144.2950 C   0  0  0  0  0  1  0  0  0  0  0  0
  190.8870  177.4120  145.4720 C   0  0  2  0  0  3  0  0  0  0  0  0
  189.9870  177.1150  147.7180 C   0  0  0  0  0  2  0  0  0  0  0  0
  183.3380  177.2240  137.4460 N   0  0  0  0  0  0  0  0  0  0  0  0
  185.9710  176.9570  134.7660 C   0  0  0  0  0  3  0  0  0  0  0  0
  187.0450  177.4510  136.8760 C   0  0  0  0  0  3  0  0  0  0  0  0
  184.7260  176.9740  135.3990 C   0  0  0  0  0  3  0  0  0  0  0  0
  184.6230  177.2280  136.7780 C   0  0  0  0  0  0  0  0  0  0  0  0
  187.1390  177.1940  135.5010 C   0  0  0  0  0  0  0  0  0  0  0  0
  185.8000  177.4650  137.5110 C   0  0  0  0  0  3  0  0  0  0  0  0
  188.4050  177.1780  134.9010 O   0  0  0  0  0  0  0  0  0  0  0  0
  189.5840  177.5890  135.5900 C   0  0  0  0  0  1  0  0  0  0  0  0
  182.5700  175.9860  137.6560 C   0  0  2  0  0  3  0  0  0  0  0  0
  183.4000  174.9310  138.3720 C   0  0  0  0  0  1  0  0  0  0  0  0
  182.0310  175.4310  136.3440 C   0  0  0  0  0  2  0  0  0  0  0  0
  180.2430  174.0830  137.1250 O   0  0  0  0  0  0  0  0  0  0  0  0
  183.4800  170.4230  135.8990 C   0  0  0  0  0  2  0  0  0  0  0  0
  181.9940  172.8850  136.1320 N   0  0  0  0  0  0  0  0  0  0  0  0
  181.9830  170.4760  135.5960 C   0  0  0  0  0  2  0  0  0  0  0  0
  181.3080  171.6070  136.3670 C   0  0  0  0  0  2  0  0  0  0  0  0
  183.2590  172.9180  135.4010 C   0  0  0  0  0  2  0  0  0  0  0  0
  181.3710  174.1080  136.5620 C   0  0  0  0  0  0  0  0  0  0  0  0
  184.1730  171.7860  135.8700 C   0  0  0  0  0  2  0  0  0  0  0  0
  1  6  1  0  0  0  0
  2  4  1  0  0  0  0
  2  1  1  0  0  0  0
  3  6  1  0  0  0  0
  3  8  1  1  0  0  0
  4 27  1  6  0  0  0
  4  3  1  0  0  0  0
  5  2  2  0  0  0  0
  6  7  1  1  0  0  0
  8  9  1  6  0  0  0
  8 11  1  0  0  0  0
 11 10  1  6  0  0  0
 11 12  1  0  0  0  0
 12 14  1  0  0  0  0
 14 13  1  6  0  0  0
 14 20  1  0  0  0  0
 17 15  1  0  0  0  0
 17 19  2  0  0  0  0
 18 17  1  0  0  0  0
 20 16  2  0  0  0  0
 20 18  1  0  0  0  0
 21 26  1  0  0  0  0
 22 15  1  1  0  0  0
 22 26  1  0  0  0  0
 23 25  1  0  0  0  0
 23 22  1  0  0  0  0
 25 24  1  6  0  0  0
 25 21  1  0  0  0  0
 27 36  1  0  0  0  0
 28 30  2  0  0  0  0
 28 32  1  0  0  0  0
 29 33  1  0  0  0  0
 30 31  1  0  0  0  0
 31 27  1  0  0  0  0
 31 33  2  0  0  0  0
 32 29  2  0  0  0  0
 34 32  1  0  0  0  0
 34 35  1  0  0  0  0
 36 37  1  6  0  0  0
 38 45  1  0  0  0  0
 38 36  1  0  0  0  0
 41 43  1  0  0  0  0
 41 45  1  0  0  0  0
 42 40  1  0  0  0  0
 42 43  1  0  0  0  0
 44 46  1  0  0  0  0
 44 41  1  0  0  0  0
 45 39  2  0  0  0  0
 46 40  1  0  0  0  0
M  END
>  <MODEL>
7

>  <REMARK>
 VINA RESULT:      -6.7      2.149      4.963
  Name = 
  12 active torsions:
  status: ('A' for Active; 'I' for Inactive)
    1  A    between atoms: N_4  and  C_6
    2  A    between atoms: N_4  and  C_25
    3  A    between atoms: N_4  and  C_30
    4  A    between atoms: C_6  and  C_13
    5  A    between atoms: C_7  and  C_17
    6  A    between atoms: C_7  and  C_40
    7  A    between atoms: N_10  and  C_11
    8  A    between atoms: O_12  and  C_35
    9  A    between atoms: C_13  and  C_31
   10  A    between atoms: C_32  and  C_37
   11  A    between atoms: C_32  and  C_40
   12  A    between atoms: C_37  and  C_46
                            x       y       z     vdW  Elec       q    Type
                         _______ _______ _______ _____ _____    ______ ____

>  <TORSDO>
F 12

$$$$
=
 OpenBabel10222416193D

 46 49  0  0  1  0  0  0  0  0999 V2000
  184.4580  180.1020  138.7990 N   0  0  0  0  0  2  0  0  0  0  0  0
  183.1060  179.6980  138.7570 C   0  0  0  0  0  0  0  0  0  0  0  0
  184.3600  177.7090  138.4760 C   0  0  2  0  0  3  0  0  0  0  0  0
  182.9250  178.2350  138.6160 C   0  0  1  0  0  3  0  0  0  0  0  0
  182.1550  180.5210  138.7970 O   0  0  0  0  0  0  0  0  0  0  0  0
  185.3030  178.9280  138.6840 C   0  0  1  0  0  3  0  0  0  0  0  0
  186.2050  179.1020  137.6310 O   0  0  0  0  0  1  0  0  0  0  0  0
  184.5720  176.9700  137.1430 C   0  0  2  0  0  3  0  0  0  0  0  0
  183.4150  177.0150  136.3490 O   0  0  0  0  0  1  0  0  0  0  0  0
  183.7920  174.6310  137.7320 C   0  0  0  0  0  1  0  0  0  0  0  0
  184.9920  175.5160  137.3850 C   0  0  1  0  0  3  0  0  0  0  0  0
  185.7270  174.9750  136.1680 C   0  0  0  0  0  2  0  0  0  0  0  0
  187.7080  173.6980  135.5470 N   0  0  0  0  0  1  0  0  0  0  0  0
  187.1750  174.6570  136.4970 C   0  0  1  0  0  3  0  0  0  0  0  0
  189.4230  178.2220  139.1660 N   0  0  0  0  0  2  0  0  0  0  0  0
  188.3910  176.3850  135.3830 O   0  0  0  0  0  0  0  0  0  0  0  0
  189.1010  177.7290  137.8680 C   0  0  0  0  0  0  0  0  0  0  0  0
  188.3240  176.5320  137.7240 N   0  0  0  0  0  2  0  0  0  0  0  0
  189.5040  178.3600  136.8550 O   0  0  0  0  0  0  0  0  0  0  0  0
  187.9990  175.9000  136.4820 C   0  0  0  0  0  0  0  0  0  0  0  0
  188.1990  177.9580  142.6310 C   0  0  0  0  0  2  0  0  0  0  0  0
  189.0020  177.5530  140.3880 C   0  0  1  0  0  3  0  0  0  0  0  0
  190.4510  177.0690  141.3810 S   0  0  0  0  0  0  0  0  0  0  0  0
  189.6640  176.4340  143.9260 C   0  0  0  0  0  1  0  0  0  0  0  0
  189.6360  177.5780  142.9320 C   0  0  2  0  0  3  0  0  0  0  0  0
  188.1630  178.4960  141.2200 C   0  0  0  0  0  2  0  0  0  0  0  0
  182.2770  177.6340  139.7890 N   0  0  0  0  0  0  0  0  0  0  0  0
  182.1530  179.1560  143.2320 C   0  0  0  0  0  3  0  0  0  0  0  0
  184.4020  178.3840  142.7940 C   0  0  0  0  0  3  0  0  0  0  0  0
  181.7550  178.7030  141.9710 C   0  0  0  0  0  3  0  0  0  0  0  0
  182.6750  178.0850  141.1050 C   0  0  0  0  0  0  0  0  0  0  0  0
  183.4790  179.0000  143.6510 C   0  0  0  0  0  0  0  0  0  0  0  0
  184.0070  177.9320  141.5320 C   0  0  0  0  0  3  0  0  0  0  0  0
  183.9150  179.4490  144.9050 O   0  0  0  0  0  0  0  0  0  0  0  0
  184.5380  178.5850  145.8530 C   0  0  0  0  0  1  0  0  0  0  0  0
  181.1270  176.7370  139.5830 C   0  0  2  0  0  3  0  0  0  0  0  0
  181.4030  175.3450  140.1290 C   0  0  0  0  0  1  0  0  0  0  0  0
  180.7320  176.6600  138.1150 C   0  0  0  0  0  2  0  0  0  0  0  0
  178.9500  175.2360  138.7650 O   0  0  0  0  0  0  0  0  0  0  0  0
  180.3900  172.8020  134.5960 C   0  0  0  0  0  2  0  0  0  0  0  0
  179.8640  174.7420  136.6650 N   0  0  0  0  0  0  0  0  0  0  0  0
  178.9620  173.1260  135.0340 C   0  0  0  0  0  2  0  0  0  0  0  0
  178.9310  173.6240  136.4760 C   0  0  0  0  0  2  0  0  0  0  0  0
  180.7920  175.1150  135.6000 C   0  0  0  0  0  2  0  0  0  0  0  0
  179.8040  175.5130  137.8780 C   0  0  0  0  0  0  0  0  0  0  0  0
  181.4180  173.8670  134.9800 C   0  0  0  0  0  2  0  0  0  0  0  0
  2  5  2  0  0  0  0
  2  1  1  0  0  0  0
  3  8  1  6  0  0  0
  3  4  1  0  0  0  0
  3  6  1  0  0  0  0
  4  2  1  0  0  0  0
  4 27  1  1  0  0  0
  6  7  1  6  0  0  0
  6  1  1  0  0  0  0
  8  9  1  1  0  0  0
  8 11  1  0  0  0  0
 11 10  1  6  0  0  0
 12 14  1  0  0  0  0
 12 11  1  0  0  0  0
 14 13  1  6  0  0  0
 16 20  2  0  0  0  0
 17 15  1  0  0  0  0
 18 17  1  0  0  0  0
 19 17  2  0  0  0  0
 20 14  1  0  0  0  0
 20 18  1  0  0  0  0
 21 25  1  0  0  0  0
 22 15  1  6  0  0  0
 22 26  1  0  0  0  0
 22 23  1  0  0  0  0
 23 25  1  0  0  0  0
 25 24  1  1  0  0  0
 26 21  1  0  0  0  0
 27 31  1  0  0  0  0
 28 32  1  0  0  0  0
 29 32  2  0  0  0  0
 30 28  2  0  0  0  0
 31 33  2  0  0  0  0
 31 30  1  0  0  0  0
 32 34  1  0  0  0  0
 33 29  1  0  0  0  0
 34 35  1  0  0  0  0
 36 27  1  0  0  0  0
 36 37  1  6  0  0  0
 38 36  1  0  0  0  0
 40 46  1  0  0  0  0
 40 42  1  0  0  0  0
 41 45  1  0  0  0  0
 42 43  1  0  0  0  0
 43 41  1  0  0  0  0
 44 41  1  0  0  0  0
 45 38  1  0  0  0  0
 45 39  2  0  0  0  0
 46 44  1  0  0  0  0
M  END
>  <MODEL>
8

>  <REMARK>
 VINA RESULT:      -6.7      2.539      7.755
  Name = 
  12 active torsions:
  status: ('A' for Active; 'I' for Inactive)
    1  A    between atoms: N_4  and  C_6
    2  A    between atoms: N_4  and  C_25
    3  A    between atoms: N_4  and  C_30
    4  A    between atoms: C_6  and  C_13
    5  A    between atoms: C_7  and  C_17
    6  A    between atoms: C_7  and  C_40
    7  A    between atoms: N_10  and  C_11
    8  A    between atoms: O_12  and  C_35
    9  A    between atoms: C_13  and  C_31
   10  A    between atoms: C_32  and  C_37
   11  A    between atoms: C_32  and  C_40
   12  A    between atoms: C_37  and  C_46
                            x       y       z     vdW  Elec       q    Type
                         _______ _______ _______ _____ _____    ______ ____

>  <TORSDO>
F 12

$$$$
=
 OpenBabel10222416193D

 46 49  0  0  1  0  0  0  0  0999 V2000
  184.7600  179.1510  138.2870 N   0  0  0  0  0  2  0  0  0  0  0  0
  183.9530  178.0760  137.8590 C   0  0  0  0  0  0  0  0  0  0  0  0
  182.9660  178.8340  139.8730 C   0  0  2  0  0  3  0  0  0  0  0  0
  182.7850  177.8220  138.7320 C   0  0  1  0  0  3  0  0  0  0  0  0
  184.2370  177.3800  136.8500 O   0  0  0  0  0  0  0  0  0  0  0  0
  184.1920  179.7130  139.4980 C   0  0  1  0  0  3  0  0  0  0  0  0
  185.1650  179.7430  140.5010 O   0  0  0  0  0  1  0  0  0  0  0  0
  183.0840  178.1380  141.2400 C   0  0  2  0  0  3  0  0  0  0  0  0
  182.8100  176.7660  141.1380 O   0  0  0  0  0  1  0  0  0  0  0  0
  180.7260  178.2350  142.1680 C   0  0  0  0  0  1  0  0  0  0  0  0
  182.1510  178.7900  142.2670 C   0  0  1  0  0  3  0  0  0  0  0  0
  182.7060  178.6020  143.6710 C   0  0  0  0  0  2  0  0  0  0  0  0
  183.9100  180.7010  143.9660 N   0  0  0  0  0  1  0  0  0  0  0  0
  184.0640  179.2650  143.8180 C   0  0  1  0  0  3  0  0  0  0  0  0
  188.3100  177.3270  145.5800 N   0  0  0  0  0  2  0  0  0  0  0  0
  184.2200  178.6410  146.1190 O   0  0  0  0  0  0  0  0  0  0  0  0
  186.9580  177.6840  145.8550 C   0  0  0  0  0  0  0  0  0  0  0  0
  186.1350  178.2450  144.8230 N   0  0  0  0  0  2  0  0  0  0  0  0
  186.4980  177.4950  147.0130 O   0  0  0  0  0  0  0  0  0  0  0  0
  184.7920  178.7080  144.9950 C   0  0  0  0  0  0  0  0  0  0  0  0
  189.7110  176.3290  142.3210 C   0  0  0  0  0  2  0  0  0  0  0  0
  188.9220  177.5170  144.2730 C   0  0  1  0  0  3  0  0  0  0  0  0
  190.7260  177.7150  144.4360 S   0  0  0  0  0  0  0  0  0  0  0  0
  191.9210  177.4020  141.9920 C   0  0  0  0  0  1  0  0  0  0  0  0
  191.0370  176.6650  142.9770 C   0  0  2  0  0  3  0  0  0  0  0  0
  188.6650  176.3020  143.4110 C   0  0  0  0  0  2  0  0  0  0  0  0
  181.5090  178.0590  138.0440 N   0  0  0  0  0  0  0  0  0  0  0  0
  180.6220  181.7190  138.0960 C   0  0  0  0  0  3  0  0  0  0  0  0
  180.8060  180.9870  135.7990 C   0  0  0  0  0  3  0  0  0  0  0  0
  180.9430  180.4300  138.5290 C   0  0  0  0  0  3  0  0  0  0  0  0
  181.1990  179.4020  137.6040 C   0  0  0  0  0  0  0  0  0  0  0  0
  180.5500  182.0050  136.7280 C   0  0  0  0  0  0  0  0  0  0  0  0
  181.1250  179.6970  136.2300 C   0  0  0  0  0  3  0  0  0  0  0  0
  180.2240  183.2840  136.2580 O   0  0  0  0  0  0  0  0  0  0  0  0
  181.1490  184.3700  136.2860 C   0  0  0  0  0  1  0  0  0  0  0  0
  180.6810  176.9010  137.6650 C   0  0  2  0  0  3  0  0  0  0  0  0
  179.3270  176.9350  138.3580 C   0  0  0  0  0  1  0  0  0  0  0  0
  181.3900  175.5850  137.9580 C   0  0  0  0  0  2  0  0  0  0  0  0
  180.8070  174.8690  135.7740 O   0  0  0  0  0  0  0  0  0  0  0  0
  185.0240  172.1750  136.3600 C   0  0  0  0  0  2  0  0  0  0  0  0
  182.9070  174.1300  136.5040 N   0  0  0  0  0  0  0  0  0  0  0  0
  184.5970  172.9730  135.1280 C   0  0  0  0  0  2  0  0  0  0  0  0
  183.1420  173.4180  135.2410 C   0  0  0  0  0  2  0  0  0  0  0  0
  183.9480  174.1750  137.5280 C   0  0  0  0  0  2  0  0  0  0  0  0
  181.6730  174.8460  136.6900 C   0  0  0  0  0  0  0  0  0  0  0  0
  184.5950  172.8000  137.6880 C   0  0  0  0  0  2  0  0  0  0  0  0
  1  6  1  0  0  0  0
  2  1  1  0  0  0  0
  2  4  1  0  0  0  0
  3  8  1  1  0  0  0
  4 27  1  6  0  0  0
  4  3  1  0  0  0  0
  5  2  2  0  0  0  0
  6  3  1  0  0  0  0
  6  7  1  1  0  0  0
  8  9  1  6  0  0  0
  8 11  1  0  0  0  0
 11 10  1  1  0  0  0
 11 12  1  0  0  0  0
 12 14  1  0  0  0  0
 14 13  1  1  0  0  0
 14 20  1  0  0  0  0
 15 17  1  0  0  0  0
 17 19  2  0  0  0  0
 18 20  1  0  0  0  0
 18 17  1  0  0  0  0
 20 16  2  0  0  0  0
 21 25  1  0  0  0  0
 21 26  1  0  0  0  0
 22 23  1  0  0  0  0
 22 15  1  1  0  0  0
 25 24  1  6  0  0  0
 25 23  1  0  0  0  0
 26 22  1  0  0  0  0
 28 30  1  0  0  0  0
 29 33  2  0  0  0  0
 29 32  1  0  0  0  0
 31 27  1  0  0  0  0
 31 30  2  0  0  0  0
 32 28  2  0  0  0  0
 33 31  1  0  0  0  0
 34 35  1  0  0  0  0
 34 32  1  0  0  0  0
 36 38  1  0  0  0  0
 36 27  1  0  0  0  0
 36 37  1  1  0  0  0
 39 45  2  0  0  0  0
 40 46  1  0  0  0  0
 41 45  1  0  0  0  0
 41 44  1  0  0  0  0
 42 43  1  0  0  0  0
 42 40  1  0  0  0  0
 43 41  1  0  0  0  0
 44 46  1  0  0  0  0
 45 38  1  0  0  0  0
M  END
>  <MODEL>
9

>  <REMARK>
 VINA RESULT:      -6.6      2.376      5.497
  Name = 
  12 active torsions:
  status: ('A' for Active; 'I' for Inactive)
    1  A    between atoms: N_4  and  C_6
    2  A    between atoms: N_4  and  C_25
    3  A    between atoms: N_4  and  C_30
    4  A    between atoms: C_6  and  C_13
    5  A    between atoms: C_7  and  C_17
    6  A    between atoms: C_7  and  C_40
    7  A    between atoms: N_10  and  C_11
    8  A    between atoms: O_12  and  C_35
    9  A    between atoms: C_13  and  C_31
   10  A    between atoms: C_32  and  C_37
   11  A    between atoms: C_32  and  C_40
   12  A    between atoms: C_37  and  C_46
                            x       y       z     vdW  Elec       q    Type
                         _______ _______ _______ _____ _____    ______ ____

>  <TORSDO>
F 12

$$$$
