=
 OpenBabel10222419013D

 38 42  0  0  1  0  0  0  0  0999 V2000
  189.3610  177.2700  146.4930 C   0  0  0  0  0  0  0  0  0  0  0  0
  186.3420  177.7470  146.2400 C   0  0  0  0  0  3  0  0  0  0  0  0
  188.0160  177.5940  144.3610 C   0  0  0  0  0  0  0  0  0  0  0  0
  187.0840  177.8440  147.3380 C   0  0  0  0  0  3  0  0  0  0  0  0
  188.4970  178.0240  147.3510 N   0  0  0  0  0  0  0  0  0  0  0  0
  186.7660  177.8410  144.8330 C   0  0  0  0  0  0  0  0  0  0  0  0
  189.1410  177.1130  145.1910 C   0  0  0  0  0  3  0  0  0  0  0  0
  190.6320  176.7190  147.0390 C   0  0  0  0  0  1  0  0  0  0  0  0
  189.0310  178.5870  148.4610 O   0  0  0  0  0  1  0  0  0  0  0  0
  189.4140  177.0120  142.3630 C   0  0  0  0  0  3  0  0  0  0  0  0
  189.7000  177.1350  141.0010 C   0  0  0  0  0  0  0  0  0  0  0  0
  188.9060  177.9560  140.1980 C   0  0  0  0  0  3  0  0  0  0  0  0
  187.8320  178.6380  140.7730 C   0  0  0  0  0  3  0  0  0  0  0  0
  188.3220  177.7010  142.9080 C   0  0  0  0  0  0  0  0  0  0  0  0
  187.5680  178.5010  142.1000 N   0  0  0  0  0  0  0  0  0  0  0  0
  190.8640  176.4170  140.4160 C   0  0  0  0  0  2  0  0  0  0  0  0
  191.4410  177.2160  139.2630 C   0  0  0  0  0  2  0  0  0  0  0  0
  191.5200  176.3370  138.0290 C   0  0  0  0  0  2  0  0  0  0  0  0
  194.5310  174.8240  138.0810 C   0  0  0  0  0  0  0  0  0  0  0  0
  193.0940  175.2420  136.4130 C   0  0  1  0  0  3  0  0  0  0  0  0
  193.5450  175.8450  135.0970 C   0  0  0  0  0  1  0  0  0  0  0  0
  194.1380  174.3780  136.9410 N   0  0  0  0  0  0  0  0  0  0  0  0
  192.9290  176.3500  137.4610 C   0  0  2  0  0  3  0  0  0  0  0  0
  193.8750  176.0030  138.5060 N   0  0  0  0  0  2  0  0  0  0  0  0
  196.5040  174.9240  139.5730 O   0  0  0  0  0  1  0  0  0  0  0  0
  195.5770  174.1650  138.8690 C   0  0  0  0  0  0  0  0  0  0  0  0
  195.6390  172.9090  138.9120 O   0  0  0  0  0  0  0  0  0  0  0  0
  184.7620  178.3420  143.1730 C   0  0  0  0  0  0  0  0  0  0  0  0
  185.6770  178.1160  143.9260 C   0  0  0  0  0  0  0  0  0  0  0  0
  183.6650  178.6030  142.2780 C   0  0  0  0  0  0  0  0  0  0  0  0
  181.4830  178.9040  140.3730 C   0  0  0  0  0  3  0  0  0  0  0  0
  180.0840  178.9720  142.5310 C   0  0  0  0  0  3  0  0  0  0  0  0
  183.9310  178.7760  140.8380 C   0  0  0  0  0  3  0  0  0  0  0  0
  181.9460  178.5850  144.1190 C   0  0  0  0  0  3  0  0  0  0  0  0
  182.9340  178.9390  139.9580 C   0  0  0  0  0  3  0  0  0  0  0  0
  181.3470  178.9820  141.8270 N   0  0  0  0  0  0  0  0  0  0  0  0
  180.4400  178.8470  144.0200 C   0  0  0  0  0  3  0  0  0  0  0  0
  182.4080  178.7160  142.7190 C   0  0  0  0  0  0  0  0  0  0  0  0
  1  8  1  0  0  0  0
  1  5  1  0  0  0  0
  2  4  2  0  0  0  0
  3  6  2  0  0  0  0
  3  7  1  0  0  0  0
  4  5  1  0  0  0  0
  5  9  1  0  0  0  0
  6  2  1  0  0  0  0
  7  1  2  0  0  0  0
 10 14  1  0  0  0  0
 11 10  2  0  0  0  0
 12 13  2  0  0  0  0
 12 11  1  0  0  0  0
 13 15  1  0  0  0  0
 14  3  1  0  0  0  0
 15 14  2  0  0  0  0
 16 11  1  0  0  0  0
 17 16  1  0  0  0  0
 18 17  1  0  0  0  0
 19 24  1  0  0  0  0
 19 26  1  0  0  0  0
 20 21  1  6  0  0  0
 20 22  1  0  0  0  0
 20 23  1  0  0  0  0
 22 19  2  0  0  0  0
 23 18  1  1  0  0  0
 23 24  1  0  0  0  0
 26 27  2  0  0  0  0
 26 25  1  0  0  0  0
 28 29  3  0  0  0  0
 29  6  1  0  0  0  0
 30 38  1  0  0  0  0
 30 28  1  0  0  0  0
 31 36  1  0  0  0  0
 32 37  2  0  0  0  0
 33 30  2  0  0  0  0
 35 31  2  0  0  0  0
 35 33  1  0  0  0  0
 36 32  1  0  0  0  0
 36 38  1  0  0  0  0
 37 34  1  0  0  0  0
 38 34  2  0  0  0  0
M  END
>  <MODEL>
1

>  <REMARK>
 VINA RESULT:     -10.1      0.000      0.000
  Name = 
  8 active torsions:
  status: ('A' for Active; 'I' for Inactive)
    1  A    between atoms: C_2  and  C_22
    2  A    between atoms: C_3  and  C_5
    3  A    between atoms: C_8  and  C_14
    4  A    between atoms: C_8  and  C_16
    5  A    between atoms: C_9  and  C_26
    6  A    between atoms: C_16  and  C_19
    7  A    between atoms: C_19  and  C_28
    8  A    between atoms: C_24  and  C_31
                            x       y       z     vdW  Elec       q    Type
                         _______ _______ _______ _____ _____    ______ ____

>  <TORSDO>
F 8

$$$$
=
 OpenBabel10222419013D

 38 42  0  0  1  0  0  0  0  0999 V2000
  189.5350  177.1990  146.2610 C   0  0  0  0  0  0  0  0  0  0  0  0
  186.4980  177.5710  146.0530 C   0  0  0  0  0  3  0  0  0  0  0  0
  188.1600  177.5750  144.1570 C   0  0  0  0  0  0  0  0  0  0  0  0
  187.2460  177.6430  147.1490 C   0  0  0  0  0  3  0  0  0  0  0  0
  188.6510  177.8750  147.1610 N   0  0  0  0  0  0  0  0  0  0  0  0
  186.9050  177.7500  144.6500 C   0  0  0  0  0  0  0  0  0  0  0  0
  189.3090  177.0980  144.9540 C   0  0  0  0  0  3  0  0  0  0  0  0
  190.8310  176.6700  146.7700 C   0  0  0  0  0  1  0  0  0  0  0  0
  189.1730  178.4030  148.2940 O   0  0  0  0  0  1  0  0  0  0  0  0
  189.4610  177.0220  142.0870 C   0  0  0  0  0  3  0  0  0  0  0  0
  189.7320  177.2230  140.7320 C   0  0  0  0  0  0  0  0  0  0  0  0
  189.0060  178.1740  140.0130 C   0  0  0  0  0  3  0  0  0  0  0  0
  188.0110  178.9050  140.6640 C   0  0  0  0  0  3  0  0  0  0  0  0
  188.4480  177.7650  142.7100 C   0  0  0  0  0  0  0  0  0  0  0  0
  187.7590  178.6910  141.9830 N   0  0  0  0  0  0  0  0  0  0  0  0
  190.8140  176.4480  140.0650 C   0  0  0  0  0  2  0  0  0  0  0  0
  190.7540  176.6570  138.5640 C   0  0  0  0  0  2  0  0  0  0  0  0
  190.2910  175.3780  137.8940 C   0  0  0  0  0  2  0  0  0  0  0  0
  187.5220  177.1150  137.0710 C   0  0  0  0  0  0  0  0  0  0  0  0
  189.5850  177.0790  136.1920 C   0  0  1  0  0  3  0  0  0  0  0  0
  189.8190  176.9630  134.6990 C   0  0  0  0  0  1  0  0  0  0  0  0
  188.3730  177.8460  136.4410 N   0  0  0  0  0  0  0  0  0  0  0  0
  189.3040  175.6910  136.7830 C   0  0  2  0  0  3  0  0  0  0  0  0
  187.9670  175.7990  137.3400 N   0  0  0  0  0  2  0  0  0  0  0  0
  185.0900  176.7770  137.3780 O   0  0  0  0  0  0  0  0  0  0  0  0
  186.2010  177.6060  137.4690 C   0  0  0  0  0  0  0  0  0  0  0  0
  186.0660  178.7830  137.8970 O   0  0  0  0  0  1  0  0  0  0  0  0
  184.8690  178.2600  143.0320 C   0  0  0  0  0  0  0  0  0  0  0  0
  185.7990  178.0280  143.7650 C   0  0  0  0  0  0  0  0  0  0  0  0
  183.7530  178.5330  142.1650 C   0  0  0  0  0  0  0  0  0  0  0  0
  181.5230  178.8540  140.3210 C   0  0  0  0  0  3  0  0  0  0  0  0
  180.1940  179.0180  142.5170 C   0  0  0  0  0  3  0  0  0  0  0  0
  183.9800  178.6620  140.7140 C   0  0  0  0  0  3  0  0  0  0  0  0
  182.0930  178.6130  144.0580 C   0  0  0  0  0  3  0  0  0  0  0  0
  182.9610  178.8340  139.8600 C   0  0  0  0  0  3  0  0  0  0  0  0
  181.4350  178.9720  141.7750 N   0  0  0  0  0  0  0  0  0  0  0  0
  180.5930  178.9190  143.9970 C   0  0  0  0  0  3  0  0  0  0  0  0
  182.5150  178.6960  142.6410 C   0  0  0  0  0  0  0  0  0  0  0  0
  1  8  1  0  0  0  0
  1  5  1  0  0  0  0
  2  4  2  0  0  0  0
  3  6  2  0  0  0  0
  3  7  1  0  0  0  0
  4  5  1  0  0  0  0
  5  9  1  0  0  0  0
  6  2  1  0  0  0  0
  7  1  2  0  0  0  0
 10 14  1  0  0  0  0
 11 10  2  0  0  0  0
 12 13  2  0  0  0  0
 12 11  1  0  0  0  0
 13 15  1  0  0  0  0
 14  3  1  0  0  0  0
 15 14  2  0  0  0  0
 16 11  1  0  0  0  0
 17 16  1  0  0  0  0
 18 17  1  0  0  0  0
 19 24  1  0  0  0  0
 19 26  1  0  0  0  0
 20 21  1  6  0  0  0
 20 22  1  0  0  0  0
 20 23  1  0  0  0  0
 22 19  2  0  0  0  0
 23 24  1  0  0  0  0
 23 18  1  1  0  0  0
 25 26  2  0  0  0  0
 26 27  1  0  0  0  0
 28 29  3  0  0  0  0
 29  6  1  0  0  0  0
 30 38  1  0  0  0  0
 30 28  1  0  0  0  0
 31 36  1  0  0  0  0
 32 37  2  0  0  0  0
 33 30  2  0  0  0  0
 35 31  2  0  0  0  0
 35 33  1  0  0  0  0
 36 32  1  0  0  0  0
 36 38  1  0  0  0  0
 37 34  1  0  0  0  0
 38 34  2  0  0  0  0
M  END
>  <MODEL>
2

>  <REMARK>
 VINA RESULT:     -10.0      3.296      3.822
  Name = 
  8 active torsions:
  status: ('A' for Active; 'I' for Inactive)
    1  A    between atoms: C_2  and  C_22
    2  A    between atoms: C_3  and  C_5
    3  A    between atoms: C_8  and  C_14
    4  A    between atoms: C_8  and  C_16
    5  A    between atoms: C_9  and  C_26
    6  A    between atoms: C_16  and  C_19
    7  A    between atoms: C_19  and  C_28
    8  A    between atoms: C_24  and  C_31
                            x       y       z     vdW  Elec       q    Type
                         _______ _______ _______ _____ _____    ______ ____

>  <TORSDO>
F 8

$$$$
=
 OpenBabel10222419013D

 38 42  0  0  1  0  0  0  0  0999 V2000
  190.2580  176.9770  146.8810 C   0  0  0  0  0  0  0  0  0  0  0  0
  187.3010  177.5690  146.3240 C   0  0  0  0  0  3  0  0  0  0  0  0
  189.1510  177.3560  144.6250 C   0  0  0  0  0  0  0  0  0  0  0  0
  187.9310  177.6360  147.4930 C   0  0  0  0  0  3  0  0  0  0  0  0
  189.3410  177.7610  147.6510 N   0  0  0  0  0  0  0  0  0  0  0  0
  187.8690  177.6490  144.9690 C   0  0  0  0  0  0  0  0  0  0  0  0
  190.1660  176.8310  145.5630 C   0  0  0  0  0  3  0  0  0  0  0  0
  191.4450  176.3760  147.5510 C   0  0  0  0  0  1  0  0  0  0  0  0
  189.7790  178.3010  148.8130 O   0  0  0  0  0  1  0  0  0  0  0  0
  188.6740  177.4650  142.1660 C   0  0  0  0  0  3  0  0  0  0  0  0
  189.1180  177.5400  140.8440 C   0  0  0  0  0  0  0  0  0  0  0  0
  190.4870  177.5850  140.5740 C   0  0  0  0  0  3  0  0  0  0  0  0
  191.3910  177.5600  141.6370 C   0  0  0  0  0  3  0  0  0  0  0  0
  189.6070  177.4530  143.2120 C   0  0  0  0  0  0  0  0  0  0  0  0
  190.9390  177.4920  142.9170 N   0  0  0  0  0  0  0  0  0  0  0  0
  188.1360  177.5400  139.7260 C   0  0  0  0  0  2  0  0  0  0  0  0
  188.8590  177.4400  138.3970 C   0  0  0  0  0  2  0  0  0  0  0  0
  188.5670  176.0930  137.7640 C   0  0  0  0  0  2  0  0  0  0  0  0
  191.9190  175.8630  137.4870 C   0  0  0  0  0  0  0  0  0  0  0  0
  190.2920  174.3290  137.3180 C   0  0  1  0  0  3  0  0  0  0  0  0
  190.2430  173.3350  136.1750 C   0  0  0  0  0  1  0  0  0  0  0  0
  191.6770  174.6120  137.6630 N   0  0  0  0  0  0  0  0  0  0  0  0
  189.7150  175.6750  136.8610 C   0  0  2  0  0  3  0  0  0  0  0  0
  190.8150  176.6110  137.0120 N   0  0  0  0  0  2  0  0  0  0  0  0
  193.5600  176.8800  139.0360 O   0  0  0  0  0  1  0  0  0  0  0  0
  193.2300  176.4600  137.7530 C   0  0  0  0  0  0  0  0  0  0  0  0
  194.0640  176.5940  136.8200 O   0  0  0  0  0  0  0  0  0  0  0  0
  186.0670  178.2370  143.1170 C   0  0  0  0  0  0  0  0  0  0  0  0
  186.8900  177.9670  143.9570 C   0  0  0  0  0  0  0  0  0  0  0  0
  185.0780  178.5590  142.1220 C   0  0  0  0  0  0  0  0  0  0  0  0
  183.1150  178.9840  140.0140 C   0  0  0  0  0  3  0  0  0  0  0  0
  181.5040  179.0530  142.0180 C   0  0  0  0  0  3  0  0  0  0  0  0
  185.4970  178.7550  140.7220 C   0  0  0  0  0  3  0  0  0  0  0  0
  183.1790  178.5610  143.7780 C   0  0  0  0  0  3  0  0  0  0  0  0
  184.6010  178.9760  139.7490 C   0  0  0  0  0  3  0  0  0  0  0  0
  182.8330  179.0330  141.4470 N   0  0  0  0  0  0  0  0  0  0  0  0
  181.7000  178.8800  143.5320 C   0  0  0  0  0  3  0  0  0  0  0  0
  183.7870  178.7080  142.4360 C   0  0  0  0  0  0  0  0  0  0  0  0
  1  8  1  0  0  0  0
  1  5  1  0  0  0  0
  2  4  2  0  0  0  0
  3  6  2  0  0  0  0
  3  7  1  0  0  0  0
  4  5  1  0  0  0  0
  5  9  1  0  0  0  0
  6  2  1  0  0  0  0
  7  1  2  0  0  0  0
 10 14  1  0  0  0  0
 11 10  2  0  0  0  0
 12 11  1  0  0  0  0
 12 13  2  0  0  0  0
 13 15  1  0  0  0  0
 14  3  1  0  0  0  0
 15 14  2  0  0  0  0
 16 11  1  0  0  0  0
 17 16  1  0  0  0  0
 18 17  1  0  0  0  0
 19 22  2  0  0  0  0
 19 26  1  0  0  0  0
 20 21  1  6  0  0  0
 20 22  1  0  0  0  0
 23 24  1  0  0  0  0
 23 20  1  0  0  0  0
 23 18  1  1  0  0  0
 24 19  1  0  0  0  0
 26 25  1  0  0  0  0
 27 26  2  0  0  0  0
 28 29  3  0  0  0  0
 29  6  1  0  0  0  0
 30 38  1  0  0  0  0
 30 28  1  0  0  0  0
 31 36  1  0  0  0  0
 32 37  2  0  0  0  0
 33 30  2  0  0  0  0
 35 31  2  0  0  0  0
 35 33  1  0  0  0  0
 36 32  1  0  0  0  0
 36 38  1  0  0  0  0
 37 34  1  0  0  0  0
 38 34  2  0  0  0  0
M  END
>  <MODEL>
3

>  <REMARK>
 VINA RESULT:      -9.9      1.805      2.311
  Name = 
  8 active torsions:
  status: ('A' for Active; 'I' for Inactive)
    1  A    between atoms: C_2  and  C_22
    2  A    between atoms: C_3  and  C_5
    3  A    between atoms: C_8  and  C_14
    4  A    between atoms: C_8  and  C_16
    5  A    between atoms: C_9  and  C_26
    6  A    between atoms: C_16  and  C_19
    7  A    between atoms: C_19  and  C_28
    8  A    between atoms: C_24  and  C_31
                            x       y       z     vdW  Elec       q    Type
                         _______ _______ _______ _____ _____    ______ ____

>  <TORSDO>
F 8

$$$$
=
 OpenBabel10222419013D

 38 42  0  0  1  0  0  0  0  0999 V2000
  189.7700  177.5850  140.6490 C   0  0  0  0  0  0  0  0  0  0  0  0
  187.6040  178.0280  138.5240 C   0  0  0  0  0  3  0  0  0  0  0  0
  187.3610  178.3050  141.0180 C   0  0  0  0  0  0  0  0  0  0  0  0
  188.7670  177.4030  138.3720 C   0  0  0  0  0  3  0  0  0  0  0  0
  189.5440  176.8610  139.4350 N   0  0  0  0  0  0  0  0  0  0  0  0
  186.8440  178.2650  139.7620 C   0  0  0  0  0  0  0  0  0  0  0  0
  188.8010  178.1890  141.3300 C   0  0  0  0  0  3  0  0  0  0  0  0
  191.1310  177.5830  141.2570 C   0  0  0  0  0  1  0  0  0  0  0  0
  190.4010  175.8610  139.1170 O   0  0  0  0  0  1  0  0  0  0  0  0
  186.6630  177.8460  143.3820 C   0  0  0  0  0  3  0  0  0  0  0  0
  185.8300  178.0990  144.4740 C   0  0  0  0  0  0  0  0  0  0  0  0
  184.8260  179.0630  144.3720 C   0  0  0  0  0  3  0  0  0  0  0  0
  184.6760  179.7650  143.1750 C   0  0  0  0  0  3  0  0  0  0  0  0
  186.4940  178.5750  142.1960 C   0  0  0  0  0  0  0  0  0  0  0  0
  185.5000  179.5070  142.1240 N   0  0  0  0  0  0  0  0  0  0  0  0
  185.9940  177.3210  145.7320 C   0  0  0  0  0  2  0  0  0  0  0  0
  186.8060  178.1190  146.7350 C   0  0  0  0  0  2  0  0  0  0  0  0
  187.9190  177.2500  147.2890 C   0  0  0  0  0  2  0  0  0  0  0  0
  191.2110  176.5930  146.9780 C   0  0  0  0  0  0  0  0  0  0  0  0
  189.6920  177.3630  145.5190 C   0  0  1  0  0  3  0  0  0  0  0  0
  189.9650  178.5670  144.6380 C   0  0  0  0  0  1  0  0  0  0  0  0
  190.9240  176.6170  145.7240 N   0  0  0  0  0  0  0  0  0  0  0  0
  189.2740  177.8300  146.9190 C   0  0  2  0  0  3  0  0  0  0  0  0
  190.2900  177.2840  147.8020 N   0  0  0  0  0  2  0  0  0  0  0  0
  192.9760  176.3380  148.6940 O   0  0  0  0  0  1  0  0  0  0  0  0
  192.3960  175.9120  147.5050 C   0  0  0  0  0  0  0  0  0  0  0  0
  192.8930  174.9370  146.8840 O   0  0  0  0  0  0  0  0  0  0  0  0
  184.2970  178.8550  139.3300 C   0  0  0  0  0  0  0  0  0  0  0  0
  185.4550  178.5830  139.5270 C   0  0  0  0  0  0  0  0  0  0  0  0
  182.9170  179.1910  139.0960 C   0  0  0  0  0  0  0  0  0  0  0  0
  180.1810  179.8890  138.3830 C   0  0  0  0  0  3  0  0  0  0  0  0
  179.7310  177.4990  139.2220 C   0  0  0  0  0  3  0  0  0  0  0  0
  182.5660  180.5600  138.6750 C   0  0  0  0  0  3  0  0  0  0  0  0
  182.0860  176.8910  139.6980 C   0  0  0  0  0  3  0  0  0  0  0  0
  181.3060  180.8960  138.3690 C   0  0  0  0  0  3  0  0  0  0  0  0
  180.5870  178.6520  139.0480 N   0  0  0  0  0  0  0  0  0  0  0  0
  180.6410  176.3850  139.7620 C   0  0  0  0  0  3  0  0  0  0  0  0
  181.9360  178.3000  139.2730 C   0  0  0  0  0  0  0  0  0  0  0  0
  1  8  1  0  0  0  0
  1  7  2  0  0  0  0
  2  6  1  0  0  0  0
  3  7  1  0  0  0  0
  3 14  1  0  0  0  0
  4  2  2  0  0  0  0
  4  5  1  0  0  0  0
  5  1  1  0  0  0  0
  6  3  2  0  0  0  0
  9  5  1  0  0  0  0
 10 11  1  0  0  0  0
 11 16  1  0  0  0  0
 12 11  2  0  0  0  0
 13 12  1  0  0  0  0
 14 10  2  0  0  0  0
 15 14  1  0  0  0  0
 15 13  2  0  0  0  0
 16 17  1  0  0  0  0
 17 18  1  0  0  0  0
 19 26  1  0  0  0  0
 19 24  1  0  0  0  0
 20 21  1  6  0  0  0
 20 22  1  0  0  0  0
 20 23  1  0  0  0  0
 22 19  2  0  0  0  0
 23 18  1  1  0  0  0
 23 24  1  0  0  0  0
 26 25  1  0  0  0  0
 27 26  2  0  0  0  0
 28 29  3  0  0  0  0
 29  6  1  0  0  0  0
 30 38  1  0  0  0  0
 30 28  1  0  0  0  0
 31 36  1  0  0  0  0
 32 37  2  0  0  0  0
 33 30  2  0  0  0  0
 34 37  1  0  0  0  0
 35 31  2  0  0  0  0
 35 33  1  0  0  0  0
 36 32  1  0  0  0  0
 36 38  1  0  0  0  0
 38 34  2  0  0  0  0
M  END
>  <MODEL>
4

>  <REMARK>
 VINA RESULT:      -9.8      3.256      6.832
  Name = 
  8 active torsions:
  status: ('A' for Active; 'I' for Inactive)
    1  A    between atoms: C_2  and  C_22
    2  A    between atoms: C_3  and  C_5
    3  A    between atoms: C_8  and  C_14
    4  A    between atoms: C_8  and  C_16
    5  A    between atoms: C_9  and  C_26
    6  A    between atoms: C_16  and  C_19
    7  A    between atoms: C_19  and  C_28
    8  A    between atoms: C_24  and  C_31
                            x       y       z     vdW  Elec       q    Type
                         _______ _______ _______ _____ _____    ______ ____

>  <TORSDO>
F 8

$$$$
=
 OpenBabel10222419013D

 38 42  0  0  1  0  0  0  0  0999 V2000
  180.7500  179.0160  141.8770 C   0  0  0  0  0  0  0  0  0  0  0  0
  183.2750  179.0000  143.6170 C   0  0  0  0  0  3  0  0  0  0  0  0
  183.1230  178.4590  141.1600 C   0  0  0  0  0  0  0  0  0  0  0  0
  182.0120  179.0250  144.0300 C   0  0  0  0  0  3  0  0  0  0  0  0
  180.8930  178.6220  143.2460 N   0  0  0  0  0  0  0  0  0  0  0  0
  183.8120  178.5310  142.3290 C   0  0  0  0  0  0  0  0  0  0  0  0
  181.7300  178.9180  140.9830 C   0  0  0  0  0  3  0  0  0  0  0  0
  179.4170  179.4570  141.3800 C   0  0  0  0  0  1  0  0  0  0  0  0
  179.7830  178.2360  143.9200 O   0  0  0  0  0  1  0  0  0  0  0  0
  184.9370  178.6230  139.4360 C   0  0  0  0  0  3  0  0  0  0  0  0
  185.5330  178.1810  138.2530 C   0  0  0  0  0  0  0  0  0  0  0  0
  184.9640  177.1210  137.5440 C   0  0  0  0  0  3  0  0  0  0  0  0
  183.8070  176.5170  138.0370 C   0  0  0  0  0  3  0  0  0  0  0  0
  183.7810  177.9880  139.9110 C   0  0  0  0  0  0  0  0  0  0  0  0
  183.2440  176.9590  139.1930 N   0  0  0  0  0  0  0  0  0  0  0  0
  186.7530  178.8570  137.7350 C   0  0  0  0  0  2  0  0  0  0  0  0
  187.4300  177.9830  136.6960 C   0  0  0  0  0  2  0  0  0  0  0  0
  188.9350  178.0610  136.8750 C   0  0  0  0  0  2  0  0  0  0  0  0
  191.4480  175.9360  137.6030 C   0  0  0  0  0  0  0  0  0  0  0  0
  189.2220  175.6730  137.5850 C   0  0  1  0  0  3  0  0  0  0  0  0
  188.5600  174.4830  136.9180 C   0  0  0  0  0  1  0  0  0  0  0  0
  190.4980  175.2690  138.1560 N   0  0  0  0  0  0  0  0  0  0  0  0
  189.5760  176.7280  136.5290 C   0  0  2  0  0  3  0  0  0  0  0  0
  191.0210  176.8510  136.6110 N   0  0  0  0  0  2  0  0  0  0  0  0
  193.4240  174.4890  137.9580 O   0  0  0  0  0  0  0  0  0  0  0  0
  192.8560  175.7570  137.9680 C   0  0  0  0  0  0  0  0  0  0  0  0
  193.5560  176.7510  138.2920 O   0  0  0  0  0  1  0  0  0  0  0  0
  186.4100  178.0130  142.3960 C   0  0  0  0  0  0  0  0  0  0  0  0
  185.2270  178.2480  142.3690 C   0  0  0  0  0  0  0  0  0  0  0  0
  187.8210  177.7300  142.4170 C   0  0  0  0  0  0  0  0  0  0  0  0
  190.7130  177.3940  142.3840 C   0  0  0  0  0  3  0  0  0  0  0  0
  190.3500  177.1030  144.9140 C   0  0  0  0  0  3  0  0  0  0  0  0
  188.5640  177.6610  141.1450 C   0  0  0  0  0  3  0  0  0  0  0  0
  187.9070  177.5230  144.9260 C   0  0  0  0  0  3  0  0  0  0  0  0
  189.8920  177.4820  141.1200 C   0  0  0  0  0  3  0  0  0  0  0  0
  189.8600  177.2210  143.5580 N   0  0  0  0  0  0  0  0  0  0  0  0
  189.1050  177.1650  145.8120 C   0  0  0  0  0  3  0  0  0  0  0  0
  188.4770  177.5060  143.5600 C   0  0  0  0  0  0  0  0  0  0  0  0
  1  5  1  0  0  0  0
  2  4  2  0  0  0  0
  3  6  2  0  0  0  0
  5  9  1  0  0  0  0
  5  4  1  0  0  0  0
  6 29  1  0  0  0  0
  6  2  1  0  0  0  0
  7  3  1  0  0  0  0
  7  1  2  0  0  0  0
  8  1  1  0  0  0  0
 10 14  1  0  0  0  0
 11 10  2  0  0  0  0
 12 13  2  0  0  0  0
 12 11  1  0  0  0  0
 13 15  1  0  0  0  0
 14  3  1  0  0  0  0
 15 14  2  0  0  0  0
 16 11  1  0  0  0  0
 17 18  1  0  0  0  0
 17 16  1  0  0  0  0
 19 26  1  0  0  0  0
 19 22  2  0  0  0  0
 20 21  1  6  0  0  0
 20 22  1  0  0  0  0
 23 24  1  0  0  0  0
 23 18  1  1  0  0  0
 23 20  1  0  0  0  0
 24 19  1  0  0  0  0
 25 26  2  0  0  0  0
 26 27  1  0  0  0  0
 28 30  1  0  0  0  0
 29 28  3  0  0  0  0
 30 38  1  0  0  0  0
 31 36  1  0  0  0  0
 32 37  2  0  0  0  0
 33 30  2  0  0  0  0
 34 37  1  0  0  0  0
 35 33  1  0  0  0  0
 35 31  2  0  0  0  0
 36 38  1  0  0  0  0
 36 32  1  0  0  0  0
 38 34  2  0  0  0  0
M  END
>  <MODEL>
5

>  <REMARK>
 VINA RESULT:      -9.4      2.786      6.368
  Name = 
  8 active torsions:
  status: ('A' for Active; 'I' for Inactive)
    1  A    between atoms: C_2  and  C_22
    2  A    between atoms: C_3  and  C_5
    3  A    between atoms: C_8  and  C_14
    4  A    between atoms: C_8  and  C_16
    5  A    between atoms: C_9  and  C_26
    6  A    between atoms: C_16  and  C_19
    7  A    between atoms: C_19  and  C_28
    8  A    between atoms: C_24  and  C_31
                            x       y       z     vdW  Elec       q    Type
                         _______ _______ _______ _____ _____    ______ ____

>  <TORSDO>
F 8

$$$$
=
 OpenBabel10222419013D

 38 42  0  0  1  0  0  0  0  0999 V2000
  190.1450  177.0370  146.8900 C   0  0  0  0  0  0  0  0  0  0  0  0
  187.1710  177.6100  146.4080 C   0  0  0  0  0  3  0  0  0  0  0  0
  188.9720  177.3720  144.6600 C   0  0  0  0  0  0  0  0  0  0  0  0
  187.8340  177.7000  147.5560 C   0  0  0  0  0  3  0  0  0  0  0  0
  189.2470  177.8320  147.6710 N   0  0  0  0  0  0  0  0  0  0  0  0
  187.7000  177.6670  145.0350 C   0  0  0  0  0  0  0  0  0  0  0  0
  190.0160  176.8670  145.5770 C   0  0  0  0  0  3  0  0  0  0  0  0
  191.3530  176.4520  147.5360 C   0  0  0  0  0  1  0  0  0  0  0  0
  189.7170  178.3950  148.8100 O   0  0  0  0  0  1  0  0  0  0  0  0
  188.4700  177.8390  142.2480 C   0  0  0  0  0  3  0  0  0  0  0  0
  188.8700  177.8870  140.9110 C   0  0  0  0  0  0  0  0  0  0  0  0
  190.1720  177.5260  140.5630 C   0  0  0  0  0  3  0  0  0  0  0  0
  191.0580  177.1270  141.5650 C   0  0  0  0  0  3  0  0  0  0  0  0
  189.3870  177.4450  143.2330 C   0  0  0  0  0  0  0  0  0  0  0  0
  190.6510  177.0910  142.8620 N   0  0  0  0  0  0  0  0  0  0  0  0
  187.9000  178.2930  139.8570 C   0  0  0  0  0  2  0  0  0  0  0  0
  188.3810  177.8210  138.4990 C   0  0  0  0  0  2  0  0  0  0  0  0
  187.3570  178.1940  137.4440 C   0  0  0  0  0  2  0  0  0  0  0  0
  188.1100  174.9750  136.7820 C   0  0  0  0  0  0  0  0  0  0  0  0
  186.1500  176.0380  137.0120 C   0  0  1  0  0  3  0  0  0  0  0  0
  185.0190  175.8600  136.0180 C   0  0  0  0  0  1  0  0  0  0  0  0
  186.8900  174.7920  137.1430 N   0  0  0  0  0  0  0  0  0  0  0  0
  187.1670  177.0480  136.4650 C   0  0  2  0  0  3  0  0  0  0  0  0
  188.4040  176.2930  136.3580 N   0  0  0  0  0  2  0  0  0  0  0  0
  188.9820  172.8110  135.9570 O   0  0  0  0  0  0  0  0  0  0  0  0
  189.1100  173.9050  136.8050 C   0  0  0  0  0  0  0  0  0  0  0  0
  190.0910  173.9710  137.5910 O   0  0  0  0  0  1  0  0  0  0  0  0
  185.8430  178.2050  143.2230 C   0  0  0  0  0  0  0  0  0  0  0  0
  186.6900  177.9640  144.0470 C   0  0  0  0  0  0  0  0  0  0  0  0
  184.8300  178.4830  142.2380 C   0  0  0  0  0  0  0  0  0  0  0  0
  182.8150  178.8120  140.1620 C   0  0  0  0  0  3  0  0  0  0  0  0
  181.2600  179.0080  142.2020 C   0  0  0  0  0  3  0  0  0  0  0  0
  185.2130  178.5970  140.8190 C   0  0  0  0  0  3  0  0  0  0  0  0
  182.9770  178.5960  143.9410 C   0  0  0  0  0  3  0  0  0  0  0  0
  184.2940  178.7740  139.8590 C   0  0  0  0  0  3  0  0  0  0  0  0
  182.5720  178.9430  141.5980 N   0  0  0  0  0  0  0  0  0  0  0  0
  181.4950  178.9170  143.7170 C   0  0  0  0  0  3  0  0  0  0  0  0
  183.5500  178.6620  142.5780 C   0  0  0  0  0  0  0  0  0  0  0  0
  1  8  1  0  0  0  0
  1  5  1  0  0  0  0
  2  4  2  0  0  0  0
  3  6  2  0  0  0  0
  3  7  1  0  0  0  0
  4  5  1  0  0  0  0
  5  9  1  0  0  0  0
  6  2  1  0  0  0  0
  7  1  2  0  0  0  0
 10 14  1  0  0  0  0
 11 10  2  0  0  0  0
 12 11  1  0  0  0  0
 12 13  2  0  0  0  0
 13 15  1  0  0  0  0
 14  3  1  0  0  0  0
 15 14  2  0  0  0  0
 16 11  1  0  0  0  0
 17 16  1  0  0  0  0
 18 17  1  0  0  0  0
 19 26  1  0  0  0  0
 19 22  2  0  0  0  0
 20 21  1  6  0  0  0
 20 22  1  0  0  0  0
 23 20  1  0  0  0  0
 23 18  1  1  0  0  0
 24 23  1  0  0  0  0
 24 19  1  0  0  0  0
 25 26  2  0  0  0  0
 26 27  1  0  0  0  0
 28 29  3  0  0  0  0
 29  6  1  0  0  0  0
 30 38  1  0  0  0  0
 30 28  1  0  0  0  0
 31 36  1  0  0  0  0
 32 37  2  0  0  0  0
 33 30  2  0  0  0  0
 35 31  2  0  0  0  0
 35 33  1  0  0  0  0
 36 32  1  0  0  0  0
 36 38  1  0  0  0  0
 37 34  1  0  0  0  0
 38 34  2  0  0  0  0
M  END
>  <MODEL>
6

>  <REMARK>
 VINA RESULT:      -9.4      2.912      3.770
  Name = 
  8 active torsions:
  status: ('A' for Active; 'I' for Inactive)
    1  A    between atoms: C_2  and  C_22
    2  A    between atoms: C_3  and  C_5
    3  A    between atoms: C_8  and  C_14
    4  A    between atoms: C_8  and  C_16
    5  A    between atoms: C_9  and  C_26
    6  A    between atoms: C_16  and  C_19
    7  A    between atoms: C_19  and  C_28
    8  A    between atoms: C_24  and  C_31
                            x       y       z     vdW  Elec       q    Type
                         _______ _______ _______ _____ _____    ______ ____

>  <TORSDO>
F 8

$$$$
=
 OpenBabel10222419013D

 38 42  0  0  1  0  0  0  0  0999 V2000
  187.3780  178.3740  137.8830 C   0  0  0  0  0  0  0  0  0  0  0  0
  189.2400  177.6640  140.2140 C   0  0  0  0  0  3  0  0  0  0  0  0
  186.7930  178.2540  140.3530 C   0  0  0  0  0  0  0  0  0  0  0  0
  189.5880  177.9880  138.9730 C   0  0  0  0  0  3  0  0  0  0  0  0
  188.7610  178.6970  138.0550 N   0  0  0  0  0  0  0  0  0  0  0  0
  187.9920  177.9780  140.9290 C   0  0  0  0  0  0  0  0  0  0  0  0
  186.5360  178.2050  138.8980 C   0  0  0  0  0  3  0  0  0  0  0  0
  186.8040  178.3290  136.5090 C   0  0  0  0  0  1  0  0  0  0  0  0
  189.3900  179.3700  137.0610 O   0  0  0  0  0  1  0  0  0  0  0  0
  184.3060  178.3120  140.6680 C   0  0  0  0  0  3  0  0  0  0  0  0
  183.1870  178.5980  141.4530 C   0  0  0  0  0  0  0  0  0  0  0  0
  183.3550  179.1230  142.7350 C   0  0  0  0  0  3  0  0  0  0  0  0
  184.6460  179.3470  143.2150 C   0  0  0  0  0  3  0  0  0  0  0  0
  185.5900  178.5370  141.1830 C   0  0  0  0  0  0  0  0  0  0  0  0
  185.7230  179.0570  142.4370 N   0  0  0  0  0  0  0  0  0  0  0  0
  181.8190  178.3730  140.9100 C   0  0  0  0  0  2  0  0  0  0  0  0
  181.8620  178.3180  139.3950 C   0  0  0  0  0  2  0  0  0  0  0  0
  180.7470  179.1750  138.8270 C   0  0  0  0  0  2  0  0  0  0  0  0
  180.7280  182.4730  138.1300 C   0  0  0  0  0  0  0  0  0  0  0  0
  179.4040  181.2070  139.4230 C   0  0  1  0  0  3  0  0  0  0  0  0
  179.0300  181.6180  140.8330 C   0  0  0  0  0  1  0  0  0  0  0  0
  179.5280  182.3890  138.5840 N   0  0  0  0  0  0  0  0  0  0  0  0
  180.8010  180.5720  139.4210 C   0  0  2  0  0  3  0  0  0  0  0  0
  181.5890  181.4350  138.5590 N   0  0  0  0  0  2  0  0  0  0  0  0
  180.4590  183.8430  136.0870 O   0  0  0  0  0  0  0  0  0  0  0  0
  181.1660  183.5580  137.2490 C   0  0  0  0  0  0  0  0  0  0  0  0
  182.1850  184.2370  137.5400 O   0  0  0  0  0  1  0  0  0  0  0  0
  188.2150  177.7560  143.5600 C   0  0  0  0  0  0  0  0  0  0  0  0
  188.1100  177.8550  142.3630 C   0  0  0  0  0  0  0  0  0  0  0  0
  188.3510  177.6370  144.9880 C   0  0  0  0  0  0  0  0  0  0  0  0
  188.4670  177.2070  147.8660 C   0  0  0  0  0  3  0  0  0  0  0  0
  190.9110  176.6190  147.3200 C   0  0  0  0  0  3  0  0  0  0  0  0
  187.2090  177.9810  145.8550 C   0  0  0  0  0  3  0  0  0  0  0  0
  190.7460  176.8680  144.8590 C   0  0  0  0  0  3  0  0  0  0  0  0
  187.2630  177.8090  147.1830 C   0  0  0  0  0  3  0  0  0  0  0  0
  189.6120  177.1440  146.9600 N   0  0  0  0  0  0  0  0  0  0  0  0
  191.7090  176.5510  146.0090 C   0  0  0  0  0  3  0  0  0  0  0  0
  189.4960  177.2450  145.5560 C   0  0  0  0  0  0  0  0  0  0  0  0
  1  5  1  0  0  0  0
  1  7  2  0  0  0  0
  2  6  1  0  0  0  0
  3  6  2  0  0  0  0
  3 14  1  0  0  0  0
  4  2  2  0  0  0  0
  5  4  1  0  0  0  0
  6 29  1  0  0  0  0
  7  3  1  0  0  0  0
  8  1  1  0  0  0  0
  9  5  1  0  0  0  0
 10 14  2  0  0  0  0
 10 11  1  0  0  0  0
 11 12  2  0  0  0  0
 12 13  1  0  0  0  0
 14 15  1  0  0  0  0
 15 13  2  0  0  0  0
 16 11  1  0  0  0  0
 17 16  1  0  0  0  0
 18 17  1  0  0  0  0
 19 24  1  0  0  0  0
 19 22  2  0  0  0  0
 20 21  1  1  0  0  0
 22 20  1  0  0  0  0
 23 18  1  6  0  0  0
 23 20  1  0  0  0  0
 24 23  1  0  0  0  0
 25 26  2  0  0  0  0
 26 27  1  0  0  0  0
 26 19  1  0  0  0  0
 28 30  1  0  0  0  0
 29 28  3  0  0  0  0
 30 38  1  0  0  0  0
 30 33  2  0  0  0  0
 33 35  1  0  0  0  0
 34 38  2  0  0  0  0
 34 37  1  0  0  0  0
 35 31  2  0  0  0  0
 36 32  1  0  0  0  0
 36 31  1  0  0  0  0
 37 32  2  0  0  0  0
 38 36  1  0  0  0  0
M  END
>  <MODEL>
7

>  <REMARK>
 VINA RESULT:      -9.3      4.375     10.529
  Name = 
  8 active torsions:
  status: ('A' for Active; 'I' for Inactive)
    1  A    between atoms: C_2  and  C_22
    2  A    between atoms: C_3  and  C_5
    3  A    between atoms: C_8  and  C_14
    4  A    between atoms: C_8  and  C_16
    5  A    between atoms: C_9  and  C_26
    6  A    between atoms: C_16  and  C_19
    7  A    between atoms: C_19  and  C_28
    8  A    between atoms: C_24  and  C_31
                            x       y       z     vdW  Elec       q    Type
                         _______ _______ _______ _____ _____    ______ ____

>  <TORSDO>
F 8

$$$$
=
 OpenBabel10222419013D

 38 42  0  0  1  0  0  0  0  0999 V2000
  192.1880  176.7370  138.7250 C   0  0  0  0  0  0  0  0  0  0  0  0
  190.8840  177.1100  141.4760 C   0  0  0  0  0  3  0  0  0  0  0  0
  189.7440  177.2140  139.2300 C   0  0  0  0  0  0  0  0  0  0  0  0
  192.1820  177.1280  141.1890 C   0  0  0  0  0  3  0  0  0  0  0  0
  192.7250  177.3640  139.8940 N   0  0  0  0  0  0  0  0  0  0  0  0
  189.7420  177.3610  140.5810 C   0  0  0  0  0  0  0  0  0  0  0  0
  190.8880  176.7010  138.4480 C   0  0  0  0  0  3  0  0  0  0  0  0
  193.1180  176.1860  137.7000 C   0  0  0  0  0  1  0  0  0  0  0  0
  193.9940  177.8360  139.8410 O   0  0  0  0  0  1  0  0  0  0  0  0
  187.6870  176.4180  138.0370 C   0  0  0  0  0  3  0  0  0  0  0  0
  186.5490  176.6790  137.2710 C   0  0  0  0  0  0  0  0  0  0  0  0
  186.2560  177.9880  136.8870 C   0  0  0  0  0  3  0  0  0  0  0  0
  187.1090  179.0200  137.2830 C   0  0  0  0  0  3  0  0  0  0  0  0
  188.5170  177.4780  138.4290 C   0  0  0  0  0  0  0  0  0  0  0  0
  188.2100  178.7460  138.0330 N   0  0  0  0  0  0  0  0  0  0  0  0
  185.6680  175.5590  136.8400 C   0  0  0  0  0  2  0  0  0  0  0  0
  184.2130  175.9740  136.9400 C   0  0  0  0  0  2  0  0  0  0  0  0
  183.5160  175.1220  137.9830 C   0  0  0  0  0  2  0  0  0  0  0  0
  182.5820  178.2760  138.7220 C   0  0  0  0  0  0  0  0  0  0  0  0
  181.4070  176.3800  138.4930 C   0  0  1  0  0  3  0  0  0  0  0  0
  180.3660  175.9540  139.5100 C   0  0  0  0  0  1  0  0  0  0  0  0
  181.4230  177.8310  138.3850 N   0  0  0  0  0  0  0  0  0  0  0  0
  182.8070  176.0050  138.9970 C   0  0  2  0  0  3  0  0  0  0  0  0
  183.5050  177.2740  139.1050 N   0  0  0  0  0  2  0  0  0  0  0  0
  184.1800  180.1290  139.0930 O   0  0  0  0  0  1  0  0  0  0  0  0
  182.9130  179.7030  138.7130 C   0  0  0  0  0  0  0  0  0  0  0  0
  182.0510  180.5500  138.3620 O   0  0  0  0  0  0  0  0  0  0  0  0
  187.5060  177.9390  141.8800 C   0  0  0  0  0  0  0  0  0  0  0  0
  188.5230  177.6790  141.2860 C   0  0  0  0  0  0  0  0  0  0  0  0
  186.2910  178.2390  142.5910 C   0  0  0  0  0  0  0  0  0  0  0  0
  183.7370  178.6390  143.9310 C   0  0  0  0  0  3  0  0  0  0  0  0
  185.1800  178.2530  146.0250 C   0  0  0  0  0  3  0  0  0  0  0  0
  185.0940  178.6540  141.8370 C   0  0  0  0  0  3  0  0  0  0  0  0
  187.3120  177.7890  144.8500 C   0  0  0  0  0  3  0  0  0  0  0  0
  183.9210  178.8640  142.4490 C   0  0  0  0  0  3  0  0  0  0  0  0
  185.0240  178.4810  144.6050 N   0  0  0  0  0  0  0  0  0  0  0  0
  186.6670  177.9310  146.2330 C   0  0  0  0  0  3  0  0  0  0  0  0
  186.2220  178.1740  143.9250 C   0  0  0  0  0  0  0  0  0  0  0  0
  1  5  1  0  0  0  0
  3  6  2  0  0  0  0
  4  2  2  0  0  0  0
  5  4  1  0  0  0  0
  6 29  1  0  0  0  0
  6  2  1  0  0  0  0
  7  1  2  0  0  0  0
  7  3  1  0  0  0  0
  8  1  1  0  0  0  0
  9  5  1  0  0  0  0
 10 14  1  0  0  0  0
 11 10  2  0  0  0  0
 12 11  1  0  0  0  0
 12 13  2  0  0  0  0
 13 15  1  0  0  0  0
 14  3  1  0  0  0  0
 15 14  2  0  0  0  0
 16 17  1  0  0  0  0
 16 11  1  0  0  0  0
 17 18  1  0  0  0  0
 19 24  1  0  0  0  0
 20 23  1  0  0  0  0
 20 21  1  1  0  0  0
 22 20  1  0  0  0  0
 22 19  2  0  0  0  0
 23 18  1  6  0  0  0
 23 24  1  0  0  0  0
 26 19  1  0  0  0  0
 26 25  1  0  0  0  0
 27 26  2  0  0  0  0
 28 30  1  0  0  0  0
 29 28  3  0  0  0  0
 30 38  1  0  0  0  0
 31 36  1  0  0  0  0
 32 37  2  0  0  0  0
 33 35  1  0  0  0  0
 33 30  2  0  0  0  0
 34 37  1  0  0  0  0
 35 31  2  0  0  0  0
 36 32  1  0  0  0  0
 38 36  1  0  0  0  0
 38 34  2  0  0  0  0
M  END
>  <MODEL>
8

>  <REMARK>
 VINA RESULT:      -9.3      3.718      8.164
  Name = 
  8 active torsions:
  status: ('A' for Active; 'I' for Inactive)
    1  A    between atoms: C_2  and  C_22
    2  A    between atoms: C_3  and  C_5
    3  A    between atoms: C_8  and  C_14
    4  A    between atoms: C_8  and  C_16
    5  A    between atoms: C_9  and  C_26
    6  A    between atoms: C_16  and  C_19
    7  A    between atoms: C_19  and  C_28
    8  A    between atoms: C_24  and  C_31
                            x       y       z     vdW  Elec       q    Type
                         _______ _______ _______ _____ _____    ______ ____

>  <TORSDO>
F 8

$$$$
=
 OpenBabel10222419013D

 38 42  0  0  1  0  0  0  0  0999 V2000
  192.1720  176.6610  138.8190 C   0  0  0  0  0  0  0  0  0  0  0  0
  190.8370  177.2110  141.5240 C   0  0  0  0  0  3  0  0  0  0  0  0
  189.7070  177.0800  139.2740 C   0  0  0  0  0  0  0  0  0  0  0  0
  192.1340  177.2580  141.2410 C   0  0  0  0  0  3  0  0  0  0  0  0
  192.6760  177.4060  139.9320 N   0  0  0  0  0  0  0  0  0  0  0  0
  189.6910  177.3390  140.6080 C   0  0  0  0  0  0  0  0  0  0  0  0
  190.8760  176.5490  138.5420 C   0  0  0  0  0  3  0  0  0  0  0  0
  193.1300  176.0640  137.8450 C   0  0  0  0  0  1  0  0  0  0  0  0
  193.9250  177.9230  139.8430 O   0  0  0  0  0  1  0  0  0  0  0  0
  187.8240  176.0900  137.9460 C   0  0  0  0  0  3  0  0  0  0  0  0
  186.6800  176.2420  137.1610 C   0  0  0  0  0  0  0  0  0  0  0  0
  186.2050  177.5210  136.8680 C   0  0  0  0  0  3  0  0  0  0  0  0
  186.8820  178.6310  137.3750 C   0  0  0  0  0  3  0  0  0  0  0  0
  188.4760  177.2240  138.4500 C   0  0  0  0  0  0  0  0  0  0  0  0
  187.9920  178.4620  138.1420 N   0  0  0  0  0  0  0  0  0  0  0  0
  185.9880  175.0440  136.6120 C   0  0  0  0  0  2  0  0  0  0  0  0
  184.5630  175.3960  136.2290 C   0  0  0  0  0  2  0  0  0  0  0  0
  183.6090  174.8330  137.2640 C   0  0  0  0  0  2  0  0  0  0  0  0
  181.1660  175.6220  139.4500 C   0  0  0  0  0  0  0  0  0  0  0  0
  183.0530  176.6810  138.8660 C   0  0  1  0  0  3  0  0  0  0  0  0
  183.0720  178.1590  138.5270 C   0  0  0  0  0  1  0  0  0  0  0  0
  182.0620  176.4270  139.9000 N   0  0  0  0  0  0  0  0  0  0  0  0
  182.5740  175.8770  137.6510 C   0  0  2  0  0  3  0  0  0  0  0  0
  181.3660  175.2140  138.1100 N   0  0  0  0  0  2  0  0  0  0  0  0
  179.3670  176.0630  141.0920 O   0  0  0  0  0  1  0  0  0  0  0  0
  180.0310  175.1700  140.2590 C   0  0  0  0  0  0  0  0  0  0  0  0
  179.6510  173.9720  140.2030 O   0  0  0  0  0  0  0  0  0  0  0  0
  187.4270  177.9360  141.8480 C   0  0  0  0  0  0  0  0  0  0  0  0
  188.4560  177.6660  141.2800 C   0  0  0  0  0  0  0  0  0  0  0  0
  186.2010  178.2500  142.5330 C   0  0  0  0  0  0  0  0  0  0  0  0
  183.6260  178.6760  143.8250 C   0  0  0  0  0  3  0  0  0  0  0  0
  185.0430  178.3700  145.9500 C   0  0  0  0  0  3  0  0  0  0  0  0
  185.0110  178.6310  141.7500 C   0  0  0  0  0  3  0  0  0  0  0  0
  187.1940  177.8830  144.8190 C   0  0  0  0  0  3  0  0  0  0  0  0
  183.8280  178.8530  142.3390 C   0  0  0  0  0  3  0  0  0  0  0  0
  184.9050  178.5500  144.5210 N   0  0  0  0  0  0  0  0  0  0  0  0
  186.5300  178.0660  146.1880 C   0  0  0  0  0  3  0  0  0  0  0  0
  186.1150  178.2290  143.8670 C   0  0  0  0  0  0  0  0  0  0  0  0
  1  5  1  0  0  0  0
  3  6  2  0  0  0  0
  4  2  2  0  0  0  0
  5  4  1  0  0  0  0
  6 29  1  0  0  0  0
  6  2  1  0  0  0  0
  7  1  2  0  0  0  0
  7  3  1  0  0  0  0
  8  1  1  0  0  0  0
  9  5  1  0  0  0  0
 10 14  1  0  0  0  0
 11 10  2  0  0  0  0
 12 11  1  0  0  0  0
 12 13  2  0  0  0  0
 13 15  1  0  0  0  0
 14  3  1  0  0  0  0
 15 14  2  0  0  0  0
 16 11  1  0  0  0  0
 17 16  1  0  0  0  0
 17 18  1  0  0  0  0
 19 22  2  0  0  0  0
 19 26  1  0  0  0  0
 20 21  1  6  0  0  0
 20 22  1  0  0  0  0
 23 18  1  1  0  0  0
 23 24  1  0  0  0  0
 23 20  1  0  0  0  0
 24 19  1  0  0  0  0
 26 25  1  0  0  0  0
 27 26  2  0  0  0  0
 28 30  1  0  0  0  0
 29 28  3  0  0  0  0
 30 38  1  0  0  0  0
 31 36  1  0  0  0  0
 32 37  2  0  0  0  0
 33 35  1  0  0  0  0
 33 30  2  0  0  0  0
 34 37  1  0  0  0  0
 35 31  2  0  0  0  0
 36 32  1  0  0  0  0
 38 36  1  0  0  0  0
 38 34  2  0  0  0  0
M  END
>  <MODEL>
9

>  <REMARK>
 VINA RESULT:      -9.1      4.098      8.364
  Name = 
  8 active torsions:
  status: ('A' for Active; 'I' for Inactive)
    1  A    between atoms: C_2  and  C_22
    2  A    between atoms: C_3  and  C_5
    3  A    between atoms: C_8  and  C_14
    4  A    between atoms: C_8  and  C_16
    5  A    between atoms: C_9  and  C_26
    6  A    between atoms: C_16  and  C_19
    7  A    between atoms: C_19  and  C_28
    8  A    between atoms: C_24  and  C_31
                            x       y       z     vdW  Elec       q    Type
                         _______ _______ _______ _____ _____    ______ ____

>  <TORSDO>
F 8

$$$$
