=
 OpenBabel10222420083D

 48 53  0  0  1  0  0  0  0  0999 V2000
  182.7010  179.0300  139.5010 N   0  0  2  0  0  0  0  0  0  0  0  0
  184.1610  178.9940  139.2750 C   0  0  2  0  0  3  0  0  0  0  0  0
  188.1500  177.2070  136.0040 O   0  0  0  0  0  0  0  0  0  0  0  0
  184.6080  177.7140  138.7500 N   0  0  0  0  0  2  0  0  0  0  0  0
  183.6210  176.6270  136.1450 C   0  0  0  0  0  3  0  0  0  0  0  0
  187.8540  177.9010  137.1840 C   0  0  0  0  0  0  0  0  0  0  0  0
  182.0670  178.0970  140.4410 C   0  0  2  0  0  3  0  0  0  0  0  0
  182.4830  176.6450  140.2380 C   0  0  0  0  0  1  0  0  0  0  0  0
  187.2160  176.5190  135.1810 C   0  0  0  0  0  3  0  0  0  0  0  0
  180.4570  178.6520  138.7250 C   0  0  0  0  0  2  0  0  0  0  0  0
  186.6280  177.9000  137.5620 C   0  0  0  0  0  0  0  0  0  0  0  0
  182.3360  178.5920  137.0100 C   0  0  0  0  0  2  0  0  0  0  0  0
  185.8710  176.3810  135.3230 C   0  0  0  0  0  3  0  0  0  0  0  0
  181.8220  179.1940  138.3340 C   0  0  2  0  0  3  0  0  0  0  0  0
  185.3710  177.6520  137.5500 C   0  0  0  0  0  0  0  0  0  0  0  0
  182.4710  177.0670  137.0160 C   0  0  1  0  0  3  0  0  0  0  0  0
  184.9180  176.8810  136.3680 C   0  0  0  0  0  0  0  0  0  0  0  0
  180.5810  178.2070  140.1710 C   0  0  0  0  0  2  0  0  0  0  0  0
  188.8830  178.5990  137.9520 C   0  0  0  0  0  3  0  0  0  0  0  0
  188.6710  178.9340  139.1810 N   0  0  0  0  0  2  0  0  0  0  0  0
  184.9430  179.3810  140.5260 C   0  0  0  0  0  2  0  0  0  0  0  0
  185.6230  178.2740  141.0450 O   0  0  0  0  0  0  0  0  0  0  0  0
  185.9460  178.6240  142.3150 N   0  0  0  0  0  0  0  0  0  0  0  0
  184.6840  178.7050  143.0410 C   0  0  0  0  0  1  0  0  0  0  0  0
  186.6540  177.5650  144.3480 N   0  0  0  0  0  0  0  0  0  0  0  0
  187.8350  177.7140  144.8340 C   0  0  0  0  0  0  0  0  0  0  0  0
  188.8620  177.8050  143.8660 N   0  0  0  0  0  0  0  0  0  0  0  0
  188.2150  177.6880  142.5710 C   0  0  0  0  0  3  0  0  0  0  0  0
  186.7210  177.5220  142.8910 C   0  0  2  0  0  3  0  0  0  0  0  0
  187.1460  177.8810  147.1540 N   0  0  0  0  0  0  0  0  0  0  0  0
  189.3480  177.7880  146.8430 O   0  0  0  0  0  0  0  0  0  0  0  0
  188.0830  177.7940  146.2750 C   0  0  0  0  0  0  0  0  0  0  0  0
  187.7370  177.9410  148.4190 N   0  0  0  0  0  0  0  0  0  0  0  0
  189.1850  177.8850  148.2510 C   0  0  0  0  0  3  0  0  0  0  0  0
  181.1630  176.3880  136.5870 C   0  0  1  0  0  3  0  0  0  0  0  0
  180.5150  174.5390  138.2150 C   0  0  0  0  0  0  0  0  0  0  0  0
  180.4250  175.8870  137.7440 N   0  0  0  0  0  2  0  0  0  0  0  0
  180.2740  174.3040  139.4300 O   0  0  0  0  0  0  0  0  0  0  0  0
  182.5520  171.7990  136.3410 C   0  0  0  0  0  0  0  0  0  0  0  0
  181.5010  171.2250  135.5650 N   0  0  0  0  0  2  0  0  0  0  0  0
  182.3210  173.0590  137.1280 C   0  0  0  0  0  2  0  0  0  0  0  0
  183.7450  171.3130  136.2570 N   0  0  0  0  0  2  0  0  0  0  0  0
  179.2540  171.2540  134.9620 O   0  0  0  0  0  0  0  0  0  0  0  0
  180.1790  171.7460  135.6600 C   0  0  0  0  0  0  0  0  0  0  0  0
  179.8940  172.8460  136.5870 C   0  0  0  0  0  3  0  0  0  0  0  0
  180.8640  173.4230  137.3100 C   0  0  0  0  0  0  0  0  0  0  0  0
  179.2630  176.5450  135.4680 C   0  0  0  0  0  1  0  0  0  0  0  0
  180.3700  177.2930  135.8790 O   0  0  0  0  0  0  0  0  0  0  0  0
  1  7  1  0  0  0  0
  2  1  1  0  0  0  0
  2 21  1  0  0  0  0
  3  6  1  0  0  0  0
  4  2  1  0  0  0  0
  5 17  2  0  0  0  0
  5 16  1  0  0  0  0
  6 11  2  0  0  0  0
  6 19  1  0  0  0  0
  8  7  1  0  0  0  0
  9 13  2  0  0  0  0
  9  3  1  0  0  0  0
 10 18  1  0  0  0  0
 12 16  1  0  0  0  0
 12 14  1  0  0  0  0
 13 17  1  0  0  0  0
 14 10  1  0  0  0  0
 14  1  1  0  0  0  0
 15 11  2  0  0  0  0
 15  4  1  0  0  0  0
 17 15  1  0  0  0  0
 18  7  1  0  0  0  0
 19 20  2  0  0  0  0
 21 22  1  0  0  0  0
 22 23  1  0  0  0  0
 23 29  1  0  0  0  0
 23 24  1  0  0  0  0
 25 26  2  0  0  0  0
 26 32  1  0  0  0  0
 27 26  1  0  0  0  0
 28 29  1  0  0  0  0
 28 27  2  0  0  0  0
 29 25  1  0  0  0  0
 30 33  1  0  0  0  0
 31 34  1  0  0  0  0
 32 31  1  0  0  0  0
 32 30  2  0  0  0  0
 34 33  2  0  0  0  0
 35 16  1  0  0  0  0
 35 37  1  0  0  0  0
 36 38  2  0  0  0  0
 37 36  1  0  0  0  0
 39 41  1  0  0  0  0
 40 44  1  0  0  0  0
 40 39  1  0  0  0  0
 41 46  1  0  0  0  0
 42 39  2  0  0  0  0
 43 44  2  0  0  0  0
 44 45  1  0  0  0  0
 45 46  2  0  0  0  0
 46 36  1  0  0  0  0
 47 48  1  0  0  0  0
 48 35  1  0  0  0  0
M  END
>  <MODEL>
1

>  <REMARK>
 VINA RESULT:      -7.0      0.000      0.000
  Name = 
  10 active torsions:
  status: ('A' for Active; 'I' for Inactive)
    1  A    between atoms: C_2  and  C_6
    2  A    between atoms: C_6  and  O_10
    3  A    between atoms: C_7  and  C_15
    4  A    between atoms: O_10  and  N_19
    5  A    between atoms: C_14  and  C_40
    6  A    between atoms: C_18  and  N_29
    7  A    between atoms: C_18  and  O_33
    8  A    between atoms: C_18  and  C_43
    9  A    between atoms: N_19  and  C_45
   10  A    between atoms: C_21  and  C_30
                            x       y       z     vdW  Elec       q    Type
                         _______ _______ _______ _____ _____    ______ ____

>  <TORSDO>
F 10

$$$$
=
 OpenBabel10222420083D

 48 53  0  0  1  0  0  0  0  0999 V2000
  184.8080  178.0050  139.1390 N   0  0  2  0  0  0  0  0  0  0  0  0
  185.6270  178.1100  140.3640 C   0  0  2  0  0  3  0  0  0  0  0  0
  185.5200  178.5800  145.8020 O   0  0  0  0  0  0  0  0  0  0  0  0
  185.0490  179.0220  141.3390 N   0  0  0  0  0  2  0  0  0  0  0  0
  182.3400  178.5820  142.5230 C   0  0  0  0  0  3  0  0  0  0  0  0
  186.3410  178.5120  144.6700 C   0  0  0  0  0  0  0  0  0  0  0  0
  184.5510  179.1880  138.3070 C   0  0  2  0  0  3  0  0  0  0  0  0
  184.0740  180.4010  139.0970 C   0  0  0  0  0  1  0  0  0  0  0  0
  184.1010  178.6620  145.8030 C   0  0  0  0  0  3  0  0  0  0  0  0
  182.6800  177.6760  138.0710 C   0  0  0  0  0  2  0  0  0  0  0  0
  185.7540  178.5410  143.5290 C   0  0  0  0  0  0  0  0  0  0  0  0
  182.8630  177.1360  140.5500 C   0  0  0  0  0  2  0  0  0  0  0  0
  183.2320  178.6820  144.7580 C   0  0  0  0  0  3  0  0  0  0  0  0
  183.5860  177.1890  139.1890 C   0  0  2  0  0  3  0  0  0  0  0  0
  184.8020  178.5930  142.6730 C   0  0  0  0  0  0  0  0  0  0  0  0
  182.2940  178.4780  141.0200 C   0  0  1  0  0  3  0  0  0  0  0  0
  183.4480  178.6340  143.2740 C   0  0  0  0  0  0  0  0  0  0  0  0
  183.4460  178.7760  137.3570 C   0  0  0  0  0  2  0  0  0  0  0  0
  187.7960  178.4070  144.7700 C   0  0  0  0  0  3  0  0  0  0  0  0
  188.3390  177.5510  145.5700 N   0  0  0  0  0  2  0  0  0  0  0  0
  187.0750  178.4760  140.0550 C   0  0  0  0  0  2  0  0  0  0  0  0
  187.9380  177.4460  140.4440 O   0  0  0  0  0  0  0  0  0  0  0  0
  188.6700  177.1640  139.3360 N   0  0  0  0  0  0  0  0  0  0  0  0
  189.0690  178.4520  138.7820 C   0  0  0  0  0  1  0  0  0  0  0  0
  189.9220  176.3990  141.2340 N   0  0  0  0  0  0  0  0  0  0  0  0
  190.9610  177.0150  141.6750 C   0  0  0  0  0  0  0  0  0  0  0  0
  191.7710  177.5960  140.6710 N   0  0  0  0  0  0  0  0  0  0  0  0
  191.1340  177.2850  139.4020 C   0  0  0  0  0  3  0  0  0  0  0  0
  189.8840  176.4730  139.7770 C   0  0  2  0  0  3  0  0  0  0  0  0
  191.4950  178.2270  143.7070 N   0  0  0  0  0  0  0  0  0  0  0  0
  191.3420  176.0200  143.9540 O   0  0  0  0  0  0  0  0  0  0  0  0
  191.2660  177.1120  143.1040 C   0  0  0  0  0  0  0  0  0  0  0  0
  191.7500  177.9500  145.0530 N   0  0  0  0  0  0  0  0  0  0  0  0
  191.6600  176.5080  145.2500 C   0  0  0  0  0  3  0  0  0  0  0  0
  180.8690  178.6950  140.4950 C   0  0  1  0  0  3  0  0  0  0  0  0
  179.5710  176.5270  140.8240 C   0  0  0  0  0  0  0  0  0  0  0  0
  179.9090  177.8620  141.2150 N   0  0  0  0  0  2  0  0  0  0  0  0
  179.1550  175.7260  141.7020 O   0  0  0  0  0  0  0  0  0  0  0  0
  179.3320  176.4610  136.9360 C   0  0  0  0  0  0  0  0  0  0  0  0
  179.9470  175.1970  136.6920 N   0  0  0  0  0  2  0  0  0  0  0  0
  179.0010  176.8920  138.3380 C   0  0  0  0  0  2  0  0  0  0  0  0
  178.9310  177.1770  135.9410 N   0  0  0  0  0  2  0  0  0  0  0  0
  180.9300  173.2800  137.5720 O   0  0  0  0  0  0  0  0  0  0  0  0
  180.4050  174.4040  137.7840 C   0  0  0  0  0  0  0  0  0  0  0  0
  180.2780  174.9090  139.1550 C   0  0  0  0  0  3  0  0  0  0  0  0
  179.6820  176.0800  139.4190 C   0  0  0  0  0  0  0  0  0  0  0  0
  180.3850  180.4990  139.3100 C   0  0  0  0  0  1  0  0  0  0  0  0
  180.5150  180.0390  140.6240 O   0  0  0  0  0  0  0  0  0  0  0  0
  1 14  1  0  0  0  0
  1  2  1  0  0  0  0
  2  4  1  0  0  0  0
  3  9  1  0  0  0  0
  4 15  1  0  0  0  0
  5 17  2  0  0  0  0
  6 19  1  0  0  0  0
  6  3  1  0  0  0  0
  7  8  1  0  0  0  0
  7  1  1  0  0  0  0
 10 14  1  0  0  0  0
 11  6  2  0  0  0  0
 12 16  1  0  0  0  0
 13  9  2  0  0  0  0
 14 12  1  0  0  0  0
 15 17  1  0  0  0  0
 15 11  2  0  0  0  0
 16  5  1  0  0  0  0
 17 13  1  0  0  0  0
 18 10  1  0  0  0  0
 18  7  1  0  0  0  0
 19 20  2  0  0  0  0
 21  2  1  0  0  0  0
 21 22  1  0  0  0  0
 23 29  1  0  0  0  0
 23 22  1  0  0  0  0
 24 23  1  0  0  0  0
 25 26  2  0  0  0  0
 26 32  1  0  0  0  0
 27 26  1  0  0  0  0
 28 29  1  0  0  0  0
 28 27  2  0  0  0  0
 29 25  1  0  0  0  0
 30 33  1  0  0  0  0
 31 34  1  0  0  0  0
 32 30  2  0  0  0  0
 32 31  1  0  0  0  0
 33 34  2  0  0  0  0
 35 48  1  0  0  0  0
 35 16  1  0  0  0  0
 35 37  1  0  0  0  0
 36 37  1  0  0  0  0
 36 38  2  0  0  0  0
 39 41  1  0  0  0  0
 40 39  1  0  0  0  0
 40 44  1  0  0  0  0
 41 46  1  0  0  0  0
 42 39  2  0  0  0  0
 43 44  2  0  0  0  0
 44 45  1  0  0  0  0
 45 46  2  0  0  0  0
 46 36  1  0  0  0  0
 47 48  1  0  0  0  0
M  END
>  <MODEL>
2

>  <REMARK>
 VINA RESULT:      -6.9      2.530      5.287
  Name = 
  10 active torsions:
  status: ('A' for Active; 'I' for Inactive)
    1  A    between atoms: C_2  and  C_6
    2  A    between atoms: C_6  and  O_10
    3  A    between atoms: C_7  and  C_15
    4  A    between atoms: O_10  and  N_19
    5  A    between atoms: C_14  and  C_40
    6  A    between atoms: C_18  and  N_29
    7  A    between atoms: C_18  and  O_33
    8  A    between atoms: C_18  and  C_43
    9  A    between atoms: N_19  and  C_45
   10  A    between atoms: C_21  and  C_30
                            x       y       z     vdW  Elec       q    Type
                         _______ _______ _______ _____ _____    ______ ____

>  <TORSDO>
F 10

$$$$
=
 OpenBabel10222420083D

 48 53  0  0  1  0  0  0  0  0999 V2000
  186.5030  177.2640  137.5790 N   0  0  2  0  0  0  0  0  0  0  0  0
  185.3730  176.3240  137.4310 C   0  0  2  0  0  3  0  0  0  0  0  0
  183.8880  171.3100  135.8620 O   0  0  0  0  0  0  0  0  0  0  0  0
  185.4820  175.5130  136.2290 N   0  0  0  0  0  2  0  0  0  0  0  0
  187.7930  173.6770  135.7490 C   0  0  0  0  0  3  0  0  0  0  0  0
  183.4380  172.5410  136.3550 C   0  0  0  0  0  0  0  0  0  0  0  0
  186.7580  178.2920  136.5620 C   0  0  2  0  0  3  0  0  0  0  0  0
  186.7680  177.7550  135.1360 C   0  0  0  0  0  1  0  0  0  0  0  0
  185.2120  171.0110  135.4390 C   0  0  0  0  0  3  0  0  0  0  0  0
  188.8660  177.7050  137.5890 C   0  0  0  0  0  2  0  0  0  0  0  0
  184.3010  173.4890  136.4150 C   0  0  0  0  0  0  0  0  0  0  0  0
  188.1080  175.2770  137.6460 C   0  0  0  0  0  2  0  0  0  0  0  0
  186.3160  171.8030  135.4210 C   0  0  0  0  0  3  0  0  0  0  0  0
  187.7910  176.7320  138.0460 C   0  0  2  0  0  3  0  0  0  0  0  0
  185.4260  174.0930  136.3070 C   0  0  0  0  0  0  0  0  0  0  0  0
  188.2690  175.0530  136.1400 C   0  0  1  0  0  3  0  0  0  0  0  0
  186.5300  173.2330  135.8180 C   0  0  0  0  0  0  0  0  0  0  0  0
  188.1380  178.8310  136.8760 C   0  0  0  0  0  2  0  0  0  0  0  0
  182.0570  172.7470  136.7880 C   0  0  0  0  0  3  0  0  0  0  0  0
  181.3970  173.7880  136.4060 N   0  0  0  0  0  2  0  0  0  0  0  0
  184.0250  177.0340  137.4970 C   0  0  0  0  0  2  0  0  0  0  0  0
  183.7670  177.4820  138.7980 O   0  0  0  0  0  0  0  0  0  0  0  0
  183.6330  178.8280  138.6860 N   0  0  0  0  0  0  0  0  0  0  0  0
  182.2230  179.0660  138.4010 C   0  0  0  0  0  1  0  0  0  0  0  0
  185.3590  179.3350  140.2720 N   0  0  0  0  0  0  0  0  0  0  0  0
  185.5640  178.6270  141.3260 C   0  0  0  0  0  0  0  0  0  0  0  0
  184.3920  178.1090  141.9240 N   0  0  0  0  0  0  0  0  0  0  0  0
  183.2790  178.5770  141.1160 C   0  0  0  0  0  3  0  0  0  0  0  0
  183.9270  179.4090  139.9980 C   0  0  2  0  0  3  0  0  0  0  0  0
  187.9850  178.5910  141.1750 N   0  0  0  0  0  0  0  0  0  0  0  0
  187.1640  177.8690  143.1130 O   0  0  0  0  0  0  0  0  0  0  0  0
  186.9090  178.3720  141.8480 C   0  0  0  0  0  0  0  0  0  0  0  0
  189.0770  178.2370  141.9710 N   0  0  0  0  0  0  0  0  0  0  0  0
  188.5730  177.7560  143.2530 C   0  0  0  0  0  3  0  0  0  0  0  0
  189.7200  175.2820  135.6940 C   0  0  1  0  0  3  0  0  0  0  0  0
  191.4390  173.4490  136.1120 C   0  0  0  0  0  0  0  0  0  0  0  0
  190.3710  174.0210  135.3500 N   0  0  0  0  0  2  0  0  0  0  0  0
  191.6120  172.2020  136.0720 O   0  0  0  0  0  0  0  0  0  0  0  0
  194.6780  174.9570  137.6660 C   0  0  0  0  0  0  0  0  0  0  0  0
  194.0890  175.9630  138.4880 N   0  0  0  0  0  2  0  0  0  0  0  0
  193.8190  173.9370  136.9710 C   0  0  0  0  0  2  0  0  0  0  0  0
  195.9620  174.8350  137.6300 N   0  0  0  0  0  2  0  0  0  0  0  0
  192.1500  176.9880  139.2650 O   0  0  0  0  0  0  0  0  0  0  0  0
  192.6730  176.1140  138.5260 C   0  0  0  0  0  0  0  0  0  0  0  0
  191.8270  175.2590  137.6860 C   0  0  0  0  0  3  0  0  0  0  0  0
  192.3470  174.2880  136.9240 C   0  0  0  0  0  0  0  0  0  0  0  0
  190.8290  176.9930  134.8370 C   0  0  0  0  0  1  0  0  0  0  0  0
  189.7480  176.1410  134.5940 O   0  0  0  0  0  0  0  0  0  0  0  0
  1 14  1  0  0  0  0
  2 21  1  0  0  0  0
  2  1  1  0  0  0  0
  3  6  1  0  0  0  0
  4 15  1  0  0  0  0
  4  2  1  0  0  0  0
  5 17  2  0  0  0  0
  5 16  1  0  0  0  0
  6 11  2  0  0  0  0
  6 19  1  0  0  0  0
  7 18  1  0  0  0  0
  7  1  1  0  0  0  0
  8  7  1  0  0  0  0
  9  3  1  0  0  0  0
 10 14  1  0  0  0  0
 12 14  1  0  0  0  0
 13  9  2  0  0  0  0
 13 17  1  0  0  0  0
 15 11  2  0  0  0  0
 16 12  1  0  0  0  0
 17 15  1  0  0  0  0
 18 10  1  0  0  0  0
 20 19  2  0  0  0  0
 21 22  1  0  0  0  0
 23 22  1  0  0  0  0
 23 29  1  0  0  0  0
 24 23  1  0  0  0  0
 25 26  2  0  0  0  0
 26 32  1  0  0  0  0
 26 27  1  0  0  0  0
 28 27  2  0  0  0  0
 29 25  1  0  0  0  0
 29 28  1  0  0  0  0
 30 32  2  0  0  0  0
 30 33  1  0  0  0  0
 31 34  1  0  0  0  0
 32 31  1  0  0  0  0
 33 34  2  0  0  0  0
 35 16  1  0  0  0  0
 36 46  1  0  0  0  0
 37 35  1  0  0  0  0
 37 36  1  0  0  0  0
 38 36  2  0  0  0  0
 39 40  1  0  0  0  0
 40 44  1  0  0  0  0
 41 39  1  0  0  0  0
 42 39  2  0  0  0  0
 44 43  2  0  0  0  0
 45 44  1  0  0  0  0
 46 41  1  0  0  0  0
 46 45  2  0  0  0  0
 48 47  1  0  0  0  0
 48 35  1  0  0  0  0
M  END
>  <MODEL>
3

>  <REMARK>
 VINA RESULT:      -6.7      3.545      8.084
  Name = 
  10 active torsions:
  status: ('A' for Active; 'I' for Inactive)
    1  A    between atoms: C_2  and  C_6
    2  A    between atoms: C_6  and  O_10
    3  A    between atoms: C_7  and  C_15
    4  A    between atoms: O_10  and  N_19
    5  A    between atoms: C_14  and  C_40
    6  A    between atoms: C_18  and  N_29
    7  A    between atoms: C_18  and  O_33
    8  A    between atoms: C_18  and  C_43
    9  A    between atoms: N_19  and  C_45
   10  A    between atoms: C_21  and  C_30
                            x       y       z     vdW  Elec       q    Type
                         _______ _______ _______ _____ _____    ______ ____

>  <TORSDO>
F 10

$$$$
=
 OpenBabel10222420083D

 48 53  0  0  1  0  0  0  0  0999 V2000
  187.0590  178.5990  137.3890 N   0  0  2  0  0  0  0  0  0  0  0  0
  186.2870  178.7800  138.6350 C   0  0  2  0  0  3  0  0  0  0  0  0
  186.3720  178.2970  144.0730 O   0  0  0  0  0  0  0  0  0  0  0  0
  186.5440  177.7240  139.6020 N   0  0  0  0  0  2  0  0  0  0  0  0
  189.2710  177.2100  140.7140 C   0  0  0  0  0  3  0  0  0  0  0  0
  185.5940  178.6420  142.9610 C   0  0  0  0  0  0  0  0  0  0  0  0
  186.8740  177.4000  136.5610 C   0  0  2  0  0  3  0  0  0  0  0  0
  186.9280  176.0970  137.3480 C   0  0  0  0  0  1  0  0  0  0  0  0
  187.6770  177.7340  144.0380 C   0  0  0  0  0  3  0  0  0  0  0  0
  189.1420  178.1810  136.2640 C   0  0  0  0  0  2  0  0  0  0  0  0
  186.1050  178.4160  141.8060 C   0  0  0  0  0  0  0  0  0  0  0  0
  189.2210  178.7490  138.7430 C   0  0  0  0  0  2  0  0  0  0  0  0
  188.4590  177.4200  142.9710 C   0  0  0  0  0  3  0  0  0  0  0  0
  188.4870  178.9480  137.4010 C   0  0  2  0  0  3  0  0  0  0  0  0
  186.9580  178.0420  140.9260 C   0  0  0  0  0  0  0  0  0  0  0  0
  189.3090  177.2930  139.2090 C   0  0  1  0  0  3  0  0  0  0  0  0
  188.2330  177.5400  141.4930 C   0  0  0  0  0  0  0  0  0  0  0  0
  188.0270  177.4110  135.5800 C   0  0  0  0  0  2  0  0  0  0  0  0
  184.2670  179.2390  143.0970 C   0  0  0  0  0  3  0  0  0  0  0  0
  183.5710  179.0580  144.1700 N   0  0  0  0  0  2  0  0  0  0  0  0
  184.7930  178.9310  138.3660 C   0  0  0  0  0  2  0  0  0  0  0  0
  184.0690  177.9340  139.0300 O   0  0  0  0  0  0  0  0  0  0  0  0
  183.2960  177.3650  138.0710 N   0  0  0  0  0  0  0  0  0  0  0  0
  183.4640  175.9250  138.2250 C   0  0  0  0  0  1  0  0  0  0  0  0
  181.5250  178.9540  137.7670 N   0  0  0  0  0  0  0  0  0  0  0  0
  181.1840  179.7970  138.6760 C   0  0  0  0  0  0  0  0  0  0  0  0
  181.2670  179.3020  139.9990 N   0  0  0  0  0  0  0  0  0  0  0  0
  181.7280  177.9280  139.8930 C   0  0  0  0  0  3  0  0  0  0  0  0
  181.9010  177.6870  138.3850 C   0  0  2  0  0  3  0  0  0  0  0  0
  181.5780  182.1090  138.0570 N   0  0  0  0  0  0  0  0  0  0  0  0
  179.4360  181.5770  138.3490 O   0  0  0  0  0  0  0  0  0  0  0  0
  180.7580  181.1620  138.3580 C   0  0  0  0  0  0  0  0  0  0  0  0
  180.8350  183.2690  137.8160 N   0  0  0  0  0  0  0  0  0  0  0  0
  179.4230  182.9540  138.0020 C   0  0  0  0  0  3  0  0  0  0  0  0
  190.5600  176.6030  138.6490 C   0  0  1  0  0  3  0  0  0  0  0  0
  193.0570  176.7030  139.1440 C   0  0  0  0  0  0  0  0  0  0  0  0
  191.6900  176.7340  139.5660 N   0  0  0  0  0  2  0  0  0  0  0  0
  193.9220  177.2890  139.8490 O   0  0  0  0  0  0  0  0  0  0  0  0
  193.8960  173.8390  136.6410 C   0  0  0  0  0  0  0  0  0  0  0  0
  194.2540  174.6260  135.5060 N   0  0  0  0  0  2  0  0  0  0  0  0
  193.6580  174.4860  137.9770 C   0  0  0  0  0  2  0  0  0  0  0  0
  193.9120  172.5510  136.5550 N   0  0  0  0  0  2  0  0  0  0  0  0
  194.5620  176.7440  134.5950 O   0  0  0  0  0  0  0  0  0  0  0  0
  194.2280  176.0480  135.5880 C   0  0  0  0  0  0  0  0  0  0  0  0
  193.7920  176.6980  136.8280 C   0  0  0  0  0  3  0  0  0  0  0  0
  193.4740  175.9880  137.9190 C   0  0  0  0  0  0  0  0  0  0  0  0
  190.3320  175.1120  137.0320 C   0  0  0  0  0  1  0  0  0  0  0  0
  190.2940  175.2510  138.4220 O   0  0  0  0  0  0  0  0  0  0  0  0
  1 14  1  0  0  0  0
  1  2  1  0  0  0  0
  2  4  1  0  0  0  0
  4 15  1  0  0  0  0
  5 17  2  0  0  0  0
  6 19  1  0  0  0  0
  6  3  1  0  0  0  0
  7  8  1  0  0  0  0
  7  1  1  0  0  0  0
  9  3  1  0  0  0  0
 10 14  1  0  0  0  0
 11  6  2  0  0  0  0
 12 16  1  0  0  0  0
 13  9  2  0  0  0  0
 14 12  1  0  0  0  0
 15 17  1  0  0  0  0
 15 11  2  0  0  0  0
 16  5  1  0  0  0  0
 17 13  1  0  0  0  0
 18 10  1  0  0  0  0
 18  7  1  0  0  0  0
 19 20  2  0  0  0  0
 21  2  1  0  0  0  0
 21 22  1  0  0  0  0
 23 24  1  0  0  0  0
 23 29  1  0  0  0  0
 23 22  1  0  0  0  0
 25 29  1  0  0  0  0
 25 26  2  0  0  0  0
 26 27  1  0  0  0  0
 28 27  2  0  0  0  0
 29 28  1  0  0  0  0
 30 32  2  0  0  0  0
 31 32  1  0  0  0  0
 32 26  1  0  0  0  0
 33 34  2  0  0  0  0
 33 30  1  0  0  0  0
 34 31  1  0  0  0  0
 35 16  1  0  0  0  0
 35 37  1  0  0  0  0
 36 37  1  0  0  0  0
 36 38  2  0  0  0  0
 39 41  1  0  0  0  0
 40 44  1  0  0  0  0
 40 39  1  0  0  0  0
 42 39  2  0  0  0  0
 43 44  2  0  0  0  0
 44 45  1  0  0  0  0
 45 46  2  0  0  0  0
 46 41  1  0  0  0  0
 46 36  1  0  0  0  0
 47 48  1  0  0  0  0
 48 35  1  0  0  0  0
M  END
>  <MODEL>
4

>  <REMARK>
 VINA RESULT:      -6.7      3.709      9.525
  Name = 
  10 active torsions:
  status: ('A' for Active; 'I' for Inactive)
    1  A    between atoms: C_2  and  C_6
    2  A    between atoms: C_6  and  O_10
    3  A    between atoms: C_7  and  C_15
    4  A    between atoms: O_10  and  N_19
    5  A    between atoms: C_14  and  C_40
    6  A    between atoms: C_18  and  N_29
    7  A    between atoms: C_18  and  O_33
    8  A    between atoms: C_18  and  C_43
    9  A    between atoms: N_19  and  C_45
   10  A    between atoms: C_21  and  C_30
                            x       y       z     vdW  Elec       q    Type
                         _______ _______ _______ _____ _____    ______ ____

>  <TORSDO>
F 10

$$$$
=
 OpenBabel10222420083D

 48 53  0  0  1  0  0  0  0  0999 V2000
  187.1340  178.6070  137.5900 N   0  0  2  0  0  0  0  0  0  0  0  0
  186.3440  178.7510  138.8300 C   0  0  2  0  0  3  0  0  0  0  0  0
  186.3660  178.1470  144.2560 O   0  0  0  0  0  0  0  0  0  0  0  0
  186.6000  177.6770  139.7760 N   0  0  0  0  0  2  0  0  0  0  0  0
  189.3190  177.1670  140.9110 C   0  0  0  0  0  3  0  0  0  0  0  0
  185.5990  178.5100  143.1420 C   0  0  0  0  0  0  0  0  0  0  0  0
  186.9730  177.4250  136.7330 C   0  0  2  0  0  3  0  0  0  0  0  0
  187.0310  176.1050  137.4920 C   0  0  0  0  0  1  0  0  0  0  0  0
  187.6780  177.6000  144.2260 C   0  0  0  0  0  3  0  0  0  0  0  0
  189.2360  178.2370  136.4830 C   0  0  0  0  0  2  0  0  0  0  0  0
  186.1260  178.3140  141.9890 C   0  0  0  0  0  0  0  0  0  0  0  0
  189.2770  178.7500  138.9740 C   0  0  0  0  0  2  0  0  0  0  0  0
  188.4760  177.3180  143.1620 C   0  0  0  0  0  3  0  0  0  0  0  0
  188.5580  178.9710  137.6280 C   0  0  2  0  0  3  0  0  0  0  0  0
  186.9950  177.9700  141.1120 C   0  0  0  0  0  0  0  0  0  0  0  0
  189.3750  177.2850  139.4090 C   0  0  1  0  0  3  0  0  0  0  0  0
  188.2670  177.4690  141.6840 C   0  0  0  0  0  0  0  0  0  0  0  0
  188.1380  177.4700  135.7670 C   0  0  0  0  0  2  0  0  0  0  0  0
  184.2630  179.0890  143.2750 C   0  0  0  0  0  3  0  0  0  0  0  0
  183.9200  179.7100  144.3530 N   0  0  0  0  0  2  0  0  0  0  0  0
  184.8530  178.8930  138.5450 C   0  0  0  0  0  2  0  0  0  0  0  0
  184.1530  177.7740  139.0110 O   0  0  0  0  0  0  0  0  0  0  0  0
  183.0320  177.7180  138.2480 N   0  0  0  0  0  0  0  0  0  0  0  0
  182.3450  176.4920  138.6370 C   0  0  0  0  0  1  0  0  0  0  0  0
  182.1040  178.9440  140.0890 N   0  0  0  0  0  0  0  0  0  0  0  0
  180.8830  178.8080  140.4700 C   0  0  0  0  0  0  0  0  0  0  0  0
  179.9600  178.5960  139.4190 N   0  0  0  0  0  0  0  0  0  0  0  0
  180.7310  178.6080  138.1880 C   0  0  0  0  0  3  0  0  0  0  0  0
  182.1820  178.8460  138.6350 C   0  0  2  0  0  3  0  0  0  0  0  0
  180.8120  179.8210  142.6720 N   0  0  0  0  0  0  0  0  0  0  0  0
  179.7450  177.8750  142.5100 O   0  0  0  0  0  0  0  0  0  0  0  0
  180.4930  178.8570  141.8810 C   0  0  0  0  0  0  0  0  0  0  0  0
  180.2810  179.5430  143.9350 N   0  0  0  0  0  0  0  0  0  0  0  0
  179.5740  178.2690  143.8640 C   0  0  0  0  0  3  0  0  0  0  0  0
  190.6400  176.6200  138.8500 C   0  0  1  0  0  3  0  0  0  0  0  0
  193.1420  176.8420  139.2800 C   0  0  0  0  0  0  0  0  0  0  0  0
  191.7840  176.8380  139.7330 N   0  0  0  0  0  2  0  0  0  0  0  0
  193.9970  177.4930  139.9380 O   0  0  0  0  0  0  0  0  0  0  0  0
  194.2390  173.9280  136.9400 C   0  0  0  0  0  0  0  0  0  0  0  0
  194.3360  174.6470  135.7110 N   0  0  0  0  0  2  0  0  0  0  0  0
  194.0190  174.6560  138.2360 C   0  0  0  0  0  2  0  0  0  0  0  0
  194.4800  172.6610  136.9560 N   0  0  0  0  0  2  0  0  0  0  0  0
  194.1640  176.6850  134.6010 O   0  0  0  0  0  0  0  0  0  0  0  0
  194.0600  176.0450  135.6790 C   0  0  0  0  0  0  0  0  0  0  0  0
  193.6360  176.7320  136.9040 C   0  0  0  0  0  3  0  0  0  0  0  0
  193.5600  176.0900  138.0780 C   0  0  0  0  0  0  0  0  0  0  0  0
  190.4110  175.0560  137.3050 C   0  0  0  0  0  1  0  0  0  0  0  0
  190.4250  175.2510  138.6890 O   0  0  0  0  0  0  0  0  0  0  0  0
  1 14  1  0  0  0  0
  1  2  1  0  0  0  0
  2  4  1  0  0  0  0
  4 15  1  0  0  0  0
  5 17  2  0  0  0  0
  6 19  1  0  0  0  0
  6  3  1  0  0  0  0
  7  8  1  0  0  0  0
  7  1  1  0  0  0  0
  9  3  1  0  0  0  0
 10 14  1  0  0  0  0
 11  6  2  0  0  0  0
 12 16  1  0  0  0  0
 13  9  2  0  0  0  0
 14 12  1  0  0  0  0
 15 17  1  0  0  0  0
 15 11  2  0  0  0  0
 16  5  1  0  0  0  0
 17 13  1  0  0  0  0
 18 10  1  0  0  0  0
 18  7  1  0  0  0  0
 19 20  2  0  0  0  0
 21  2  1  0  0  0  0
 21 22  1  0  0  0  0
 23 29  1  0  0  0  0
 23 24  1  0  0  0  0
 23 22  1  0  0  0  0
 25 26  2  0  0  0  0
 26 32  1  0  0  0  0
 27 26  1  0  0  0  0
 28 29  1  0  0  0  0
 28 27  2  0  0  0  0
 29 25  1  0  0  0  0
 30 33  1  0  0  0  0
 31 34  1  0  0  0  0
 32 31  1  0  0  0  0
 32 30  2  0  0  0  0
 34 33  2  0  0  0  0
 35 16  1  0  0  0  0
 35 37  1  0  0  0  0
 36 37  1  0  0  0  0
 36 38  2  0  0  0  0
 39 42  2  0  0  0  0
 39 41  1  0  0  0  0
 40 39  1  0  0  0  0
 43 44  2  0  0  0  0
 44 40  1  0  0  0  0
 44 45  1  0  0  0  0
 45 46  2  0  0  0  0
 46 41  1  0  0  0  0
 46 36  1  0  0  0  0
 47 48  1  0  0  0  0
 48 35  1  0  0  0  0
M  END
>  <MODEL>
5

>  <REMARK>
 VINA RESULT:      -6.5      3.695      9.118
  Name = 
  10 active torsions:
  status: ('A' for Active; 'I' for Inactive)
    1  A    between atoms: C_2  and  C_6
    2  A    between atoms: C_6  and  O_10
    3  A    between atoms: C_7  and  C_15
    4  A    between atoms: O_10  and  N_19
    5  A    between atoms: C_14  and  C_40
    6  A    between atoms: C_18  and  N_29
    7  A    between atoms: C_18  and  O_33
    8  A    between atoms: C_18  and  C_43
    9  A    between atoms: N_19  and  C_45
   10  A    between atoms: C_21  and  C_30
                            x       y       z     vdW  Elec       q    Type
                         _______ _______ _______ _____ _____    ______ ____

>  <TORSDO>
F 10

$$$$
=
 OpenBabel10222420083D

 48 53  0  0  1  0  0  0  0  0999 V2000
  187.3890  177.0260  135.6260 N   0  0  2  0  0  0  0  0  0  0  0  0
  186.4130  177.5930  136.5780 C   0  0  2  0  0  3  0  0  0  0  0  0
  185.6150  179.2770  141.7100 O   0  0  0  0  0  0  0  0  0  0  0  0
  186.5520  177.0320  137.9130 N   0  0  0  0  0  2  0  0  0  0  0  0
  189.0770  177.2850  139.4940 C   0  0  0  0  0  3  0  0  0  0  0  0
  185.0180  179.0780  140.4590 C   0  0  0  0  0  0  0  0  0  0  0  0
  187.3980  175.5870  135.3320 C   0  0  2  0  0  3  0  0  0  0  0  0
  187.3780  174.7070  136.5750 C   0  0  0  0  0  1  0  0  0  0  0  0
  186.9310  178.8890  142.0810 C   0  0  0  0  0  3  0  0  0  0  0  0
  189.6470  176.4280  135.0550 C   0  0  0  0  0  2  0  0  0  0  0  0
  185.7230  178.4750  139.5720 C   0  0  0  0  0  0  0  0  0  0  0  0
  189.2870  177.9210  137.0840 C   0  0  0  0  0  2  0  0  0  0  0  0
  187.8920  178.2690  141.3450 C   0  0  0  0  0  3  0  0  0  0  0  0
  188.7790  177.5020  135.6890 C   0  0  2  0  0  3  0  0  0  0  0  0
  186.7270  177.8820  139.0400 C   0  0  0  0  0  0  0  0  0  0  0  0
  189.3610  176.7800  138.1020 C   0  0  1  0  0  3  0  0  0  0  0  0
  187.9100  177.7800  139.9280 C   0  0  0  0  0  0  0  0  0  0  0  0
  188.6960  175.3380  134.5940 C   0  0  0  0  0  2  0  0  0  0  0  0
  183.6610  179.5350  140.1640 C   0  0  0  0  0  3  0  0  0  0  0  0
  183.4070  180.1810  139.0760 N   0  0  0  0  0  2  0  0  0  0  0  0
  184.9800  177.4670  136.0720 C   0  0  0  0  0  2  0  0  0  0  0  0
  184.2090  176.7060  136.9580 O   0  0  0  0  0  0  0  0  0  0  0  0
  183.5920  175.7810  136.1800 N   0  0  0  0  0  0  0  0  0  0  0  0
  183.7600  174.5060  136.8660 C   0  0  0  0  0  1  0  0  0  0  0  0
  181.8000  176.8250  137.3850 N   0  0  0  0  0  0  0  0  0  0  0  0
  180.9270  176.1550  138.0500 C   0  0  0  0  0  0  0  0  0  0  0  0
  180.5590  174.9220  137.4620 N   0  0  0  0  0  0  0  0  0  0  0  0
  181.3230  174.8120  136.2310 C   0  0  0  0  0  3  0  0  0  0  0  0
  182.1620  176.0980  136.1730 C   0  0  2  0  0  3  0  0  0  0  0  0
  179.9950  175.8500  140.2680 N   0  0  0  0  0  0  0  0  0  0  0  0
  180.1980  177.9720  139.6300 O   0  0  0  0  0  0  0  0  0  0  0  0
  180.3730  176.6330  139.3190 C   0  0  0  0  0  0  0  0  0  0  0  0
  179.5210  176.6370  141.3210 N   0  0  0  0  0  0  0  0  0  0  0  0
  179.6380  178.0390  140.9340 C   0  0  0  0  0  3  0  0  0  0  0  0
  190.7170  176.0640  138.0410 C   0  0  1  0  0  3  0  0  0  0  0  0
  192.9840  176.7430  138.9830 C   0  0  0  0  0  0  0  0  0  0  0  0
  191.5850  176.4840  139.1380 N   0  0  0  0  0  2  0  0  0  0  0  0
  193.5450  177.5370  139.7850 O   0  0  0  0  0  0  0  0  0  0  0  0
  195.1150  174.1180  137.0490 C   0  0  0  0  0  0  0  0  0  0  0  0
  195.2950  174.8280  135.8250 N   0  0  0  0  0  2  0  0  0  0  0  0
  194.4950  174.7930  138.2410 C   0  0  0  0  0  2  0  0  0  0  0  0
  195.6140  172.9350  137.1780 N   0  0  0  0  0  2  0  0  0  0  0  0
  194.9110  176.7670  134.5960 O   0  0  0  0  0  0  0  0  0  0  0  0
  194.7380  176.1310  135.6680 C   0  0  0  0  0  0  0  0  0  0  0  0
  193.9460  176.7190  136.7520 C   0  0  0  0  0  3  0  0  0  0  0  0
  193.7810  176.0890  137.9230 C   0  0  0  0  0  0  0  0  0  0  0  0
  191.1210  174.1970  136.9270 C   0  0  0  0  0  1  0  0  0  0  0  0
  190.5260  174.6820  138.0950 O   0  0  0  0  0  0  0  0  0  0  0  0
  1 14  1  0  0  0  0
  1  2  1  0  0  0  0
  2  4  1  0  0  0  0
  3  9  1  0  0  0  0
  4 15  1  0  0  0  0
  5 17  2  0  0  0  0
  6  3  1  0  0  0  0
  7  1  1  0  0  0  0
  7  8  1  0  0  0  0
 10 14  1  0  0  0  0
 11  6  2  0  0  0  0
 12 16  1  0  0  0  0
 13  9  2  0  0  0  0
 14 12  1  0  0  0  0
 15 11  2  0  0  0  0
 15 17  1  0  0  0  0
 16  5  1  0  0  0  0
 17 13  1  0  0  0  0
 18 10  1  0  0  0  0
 18  7  1  0  0  0  0
 19  6  1  0  0  0  0
 20 19  2  0  0  0  0
 21  2  1  0  0  0  0
 21 22  1  0  0  0  0
 23 24  1  0  0  0  0
 23 22  1  0  0  0  0
 25 26  2  0  0  0  0
 26 32  1  0  0  0  0
 27 26  1  0  0  0  0
 28 27  2  0  0  0  0
 29 23  1  0  0  0  0
 29 28  1  0  0  0  0
 29 25  1  0  0  0  0
 30 33  1  0  0  0  0
 31 34  1  0  0  0  0
 32 31  1  0  0  0  0
 32 30  2  0  0  0  0
 34 33  2  0  0  0  0
 35 48  1  0  0  0  0
 35 16  1  0  0  0  0
 35 37  1  0  0  0  0
 36 37  1  0  0  0  0
 36 38  2  0  0  0  0
 39 42  2  0  0  0  0
 39 41  1  0  0  0  0
 40 39  1  0  0  0  0
 43 44  2  0  0  0  0
 44 40  1  0  0  0  0
 44 45  1  0  0  0  0
 45 46  2  0  0  0  0
 46 41  1  0  0  0  0
 46 36  1  0  0  0  0
 47 48  1  0  0  0  0
M  END
>  <MODEL>
6

>  <REMARK>
 VINA RESULT:      -6.2      3.826      9.603
  Name = 
  10 active torsions:
  status: ('A' for Active; 'I' for Inactive)
    1  A    between atoms: C_2  and  C_6
    2  A    between atoms: C_6  and  O_10
    3  A    between atoms: C_7  and  C_15
    4  A    between atoms: O_10  and  N_19
    5  A    between atoms: C_14  and  C_40
    6  A    between atoms: C_18  and  N_29
    7  A    between atoms: C_18  and  O_33
    8  A    between atoms: C_18  and  C_43
    9  A    between atoms: N_19  and  C_45
   10  A    between atoms: C_21  and  C_30
                            x       y       z     vdW  Elec       q    Type
                         _______ _______ _______ _____ _____    ______ ____

>  <TORSDO>
F 10

$$$$
=
 OpenBabel10222420083D

 48 53  0  0  1  0  0  0  0  0999 V2000
  185.2950  177.8190  143.5240 N   0  0  2  0  0  0  0  0  0  0  0  0
  184.9250  177.9110  142.0970 C   0  0  2  0  0  3  0  0  0  0  0  0
  186.8160  178.1910  136.9830 O   0  0  0  0  0  0  0  0  0  0  0  0
  185.8280  178.7680  141.3460 N   0  0  0  0  0  2  0  0  0  0  0  0
  188.7530  178.1910  141.1200 C   0  0  0  0  0  3  0  0  0  0  0  0
  185.6690  178.1900  137.7870 C   0  0  0  0  0  0  0  0  0  0  0  0
  185.3210  179.0190  144.3700 C   0  0  2  0  0  3  0  0  0  0  0  0
  186.0820  180.1870  143.7540 C   0  0  0  0  0  1  0  0  0  0  0  0
  188.1600  178.2220  137.4440 C   0  0  0  0  0  3  0  0  0  0  0  0
  186.9430  177.4510  145.2350 C   0  0  0  0  0  2  0  0  0  0  0  0
  185.8530  178.2370  139.0560 C   0  0  0  0  0  0  0  0  0  0  0  0
  187.5520  176.8330  142.8430 C   0  0  0  0  0  2  0  0  0  0  0  0
  188.6420  178.2460  138.7150 C   0  0  0  0  0  3  0  0  0  0  0  0
  186.4290  176.9590  143.8930 C   0  0  2  0  0  3  0  0  0  0  0  0
  186.4760  178.2850  140.1750 C   0  0  0  0  0  0  0  0  0  0  0  0
  188.3020  178.1370  142.5580 C   0  0  1  0  0  3  0  0  0  0  0  0
  187.9530  178.2560  140.0470 C   0  0  0  0  0  0  0  0  0  0  0  0
  186.0370  178.6010  145.6370 C   0  0  0  0  0  2  0  0  0  0  0  0
  184.3230  178.1340  137.2200 C   0  0  0  0  0  3  0  0  0  0  0  0
  184.0750  177.4010  136.1860 N   0  0  0  0  0  2  0  0  0  0  0  0
  183.4730  178.3390  141.9100 C   0  0  0  0  0  2  0  0  0  0  0  0
  182.9140  177.7100  140.7910 O   0  0  0  0  0  0  0  0  0  0  0  0
  181.6390  178.1700  140.7310 N   0  0  0  0  0  0  0  0  0  0  0  0
  181.6770  179.3410  139.8640 C   0  0  0  0  0  1  0  0  0  0  0  0
  181.6560  175.9790  139.7540 N   0  0  0  0  0  0  0  0  0  0  0  0
  181.6810  175.7850  138.4830 C   0  0  0  0  0  0  0  0  0  0  0  0
  180.9390  176.7250  137.7300 N   0  0  0  0  0  0  0  0  0  0  0  0
  180.3540  177.6470  138.6890 C   0  0  0  0  0  3  0  0  0  0  0  0
  180.8350  177.1450  140.0600 C   0  0  2  0  0  3  0  0  0  0  0  0
  181.8800  173.7420  137.1910 N   0  0  0  0  0  0  0  0  0  0  0  0
  183.8060  174.5400  137.9690 O   0  0  0  0  0  0  0  0  0  0  0  0
  182.4310  174.6840  137.8740 C   0  0  0  0  0  0  0  0  0  0  0  0
  182.8830  172.8680  136.7640 N   0  0  0  0  0  0  0  0  0  0  0  0
  184.1620  173.3610  137.2610 C   0  0  0  0  0  3  0  0  0  0  0  0
  189.4880  178.3210  143.5150 C   0  0  1  0  0  3  0  0  0  0  0  0
  191.1170  176.4520  144.1020 C   0  0  0  0  0  0  0  0  0  0  0  0
  190.5800  177.4090  143.1830 N   0  0  0  0  0  2  0  0  0  0  0  0
  191.6700  175.4170  143.6430 O   0  0  0  0  0  0  0  0  0  0  0  0
  189.8450  177.4870  147.6350 C   0  0  0  0  0  0  0  0  0  0  0  0
  190.9420  177.0190  148.4180 N   0  0  0  0  0  2  0  0  0  0  0  0
  189.9260  177.4950  146.1340 C   0  0  0  0  0  2  0  0  0  0  0  0
  188.8350  178.0370  148.2190 N   0  0  0  0  0  2  0  0  0  0  0  0
  193.0350  176.0030  148.4700 O   0  0  0  0  0  0  0  0  0  0  0  0
  192.0580  176.4000  147.7840 C   0  0  0  0  0  0  0  0  0  0  0  0
  192.0550  176.2090  146.3290 C   0  0  0  0  0  3  0  0  0  0  0  0
  191.0530  176.6610  145.5640 C   0  0  0  0  0  0  0  0  0  0  0  0
  191.2830  179.5670  143.8500 C   0  0  0  0  0  1  0  0  0  0  0  0
  189.9430  179.6390  143.4590 O   0  0  0  0  0  0  0  0  0  0  0  0
  1 14  1  0  0  0  0
  1  7  1  0  0  0  0
  2  1  1  0  0  0  0
  3  9  1  0  0  0  0
  3  6  1  0  0  0  0
  4  2  1  0  0  0  0
  5 16  1  0  0  0  0
  6 11  2  0  0  0  0
  7 18  1  0  0  0  0
  8  7  1  0  0  0  0
  9 13  2  0  0  0  0
 10 18  1  0  0  0  0
 11 15  2  0  0  0  0
 12 14  1  0  0  0  0
 13 17  1  0  0  0  0
 14 10  1  0  0  0  0
 15  4  1  0  0  0  0
 16 12  1  0  0  0  0
 16 35  1  0  0  0  0
 17 15  1  0  0  0  0
 17  5  2  0  0  0  0
 19  6  1  0  0  0  0
 20 19  2  0  0  0  0
 21  2  1  0  0  0  0
 22 21  1  0  0  0  0
 23 22  1  0  0  0  0
 24 23  1  0  0  0  0
 25 29  1  0  0  0  0
 26 25  2  0  0  0  0
 27 26  1  0  0  0  0
 27 28  2  0  0  0  0
 28 29  1  0  0  0  0
 29 23  1  0  0  0  0
 30 32  2  0  0  0  0
 32 31  1  0  0  0  0
 32 26  1  0  0  0  0
 33 30  1  0  0  0  0
 33 34  2  0  0  0  0
 34 31  1  0  0  0  0
 36 46  1  0  0  0  0
 37 35  1  0  0  0  0
 37 36  1  0  0  0  0
 38 36  2  0  0  0  0
 39 42  2  0  0  0  0
 39 40  1  0  0  0  0
 41 39  1  0  0  0  0
 44 40  1  0  0  0  0
 44 43  2  0  0  0  0
 45 44  1  0  0  0  0
 46 41  1  0  0  0  0
 46 45  2  0  0  0  0
 48 35  1  0  0  0  0
 48 47  1  0  0  0  0
M  END
>  <MODEL>
7

>  <REMARK>
 VINA RESULT:      -6.1      2.394      9.904
  Name = 
  10 active torsions:
  status: ('A' for Active; 'I' for Inactive)
    1  A    between atoms: C_2  and  C_6
    2  A    between atoms: C_6  and  O_10
    3  A    between atoms: C_7  and  C_15
    4  A    between atoms: O_10  and  N_19
    5  A    between atoms: C_14  and  C_40
    6  A    between atoms: C_18  and  N_29
    7  A    between atoms: C_18  and  O_33
    8  A    between atoms: C_18  and  C_43
    9  A    between atoms: N_19  and  C_45
   10  A    between atoms: C_21  and  C_30
                            x       y       z     vdW  Elec       q    Type
                         _______ _______ _______ _____ _____    ______ ____

>  <TORSDO>
F 10

$$$$
=
 OpenBabel10222420083D

 48 53  0  0  1  0  0  0  0  0999 V2000
  187.9900  176.5530  137.1370 N   0  0  2  0  0  0  0  0  0  0  0  0
  186.8190  175.6780  136.9250 C   0  0  2  0  0  3  0  0  0  0  0  0
  185.1550  170.6910  135.4540 O   0  0  0  0  0  0  0  0  0  0  0  0
  186.9840  174.8000  135.7770 N   0  0  0  0  0  2  0  0  0  0  0  0
  189.2020  172.8040  135.6030 C   0  0  0  0  0  3  0  0  0  0  0  0
  184.7450  171.9710  135.8450 C   0  0  0  0  0  0  0  0  0  0  0  0
  188.4050  177.5100  136.1020 C   0  0  2  0  0  3  0  0  0  0  0  0
  188.5110  176.9000  134.7100 C   0  0  0  0  0  1  0  0  0  0  0  0
  186.4900  170.2890  135.1720 C   0  0  0  0  0  3  0  0  0  0  0  0
  190.3660  176.8470  137.3510 C   0  0  0  0  0  2  0  0  0  0  0  0
  185.6590  172.8660  135.9430 C   0  0  0  0  0  0  0  0  0  0  0  0
  189.4470  174.4770  137.4470 C   0  0  0  0  0  2  0  0  0  0  0  0
  187.6410  171.0100  135.2220 C   0  0  0  0  0  3  0  0  0  0  0  0
  189.1920  175.9680  137.7480 C   0  0  2  0  0  3  0  0  0  0  0  0
  186.8270  173.3930  135.9150 C   0  0  0  0  0  0  0  0  0  0  0  0
  189.7310  174.1660  135.9740 C   0  0  1  0  0  3  0  0  0  0  0  0
  187.9120  172.4430  135.5730 C   0  0  0  0  0  0  0  0  0  0  0  0
  189.7830  177.9770  136.5210 C   0  0  0  0  0  2  0  0  0  0  0  0
  183.3470  172.2840  136.1350 C   0  0  0  0  0  3  0  0  0  0  0  0
  183.0300  173.3770  136.7450 N   0  0  0  0  0  2  0  0  0  0  0  0
  185.5210  176.4730  136.8310 C   0  0  0  0  0  2  0  0  0  0  0  0
  185.0990  176.8820  138.1010 O   0  0  0  0  0  0  0  0  0  0  0  0
  184.3250  177.9740  137.8800 N   0  0  0  0  0  0  0  0  0  0  0  0
  182.9960  177.6260  138.3670 C   0  0  0  0  0  1  0  0  0  0  0  0
  186.0550  178.6270  139.4080 N   0  0  0  0  0  0  0  0  0  0  0  0
  185.8760  178.6730  140.6800 C   0  0  0  0  0  0  0  0  0  0  0  0
  184.5890  179.1040  141.0790 N   0  0  0  0  0  0  0  0  0  0  0  0
  183.8520  179.3740  139.8560 C   0  0  0  0  0  3  0  0  0  0  0  0
  184.8400  179.0560  138.7230 C   0  0  2  0  0  3  0  0  0  0  0  0
  186.6820  177.8910  142.8300 N   0  0  0  0  0  0  0  0  0  0  0  0
  188.2790  178.3370  141.3460 O   0  0  0  0  0  0  0  0  0  0  0  0
  186.9240  178.2960  141.6320 C   0  0  0  0  0  0  0  0  0  0  0  0
  187.9030  177.6220  143.4540 N   0  0  0  0  0  0  0  0  0  0  0  0
  188.9750  177.9070  142.5070 C   0  0  0  0  0  3  0  0  0  0  0  0
  191.2280  174.2820  135.6580 C   0  0  1  0  0  3  0  0  0  0  0  0
  193.0280  172.4910  135.8690 C   0  0  0  0  0  0  0  0  0  0  0  0
  191.7990  172.9800  135.3220 N   0  0  0  0  0  2  0  0  0  0  0  0
  193.2070  171.2460  135.9390 O   0  0  0  0  0  0  0  0  0  0  0  0
  195.1980  174.7830  138.1520 C   0  0  0  0  0  0  0  0  0  0  0  0
  196.1940  175.1690  137.2060 N   0  0  0  0  0  2  0  0  0  0  0  0
  193.9800  174.0200  137.7110 C   0  0  0  0  0  2  0  0  0  0  0  0
  195.2730  175.2120  139.3670 N   0  0  0  0  0  2  0  0  0  0  0  0
  196.9930  175.0460  135.0240 O   0  0  0  0  0  0  0  0  0  0  0  0
  196.1270  174.6920  135.8650 C   0  0  0  0  0  0  0  0  0  0  0  0
  195.0550  173.7710  135.4730 C   0  0  0  0  0  3  0  0  0  0  0  0
  194.0910  173.4100  136.3300 C   0  0  0  0  0  0  0  0  0  0  0  0
  192.4730  175.9900  135.0090 C   0  0  0  0  0  1  0  0  0  0  0  0
  191.4220  175.1670  134.5960 O   0  0  0  0  0  0  0  0  0  0  0  0
  1 14  1  0  0  0  0
  2  1  1  0  0  0  0
  3  6  1  0  0  0  0
  4 15  1  0  0  0  0
  4  2  1  0  0  0  0
  5 16  1  0  0  0  0
  6 11  2  0  0  0  0
  6 19  1  0  0  0  0
  7 18  1  0  0  0  0
  7  1  1  0  0  0  0
  8  7  1  0  0  0  0
  9 13  2  0  0  0  0
  9  3  1  0  0  0  0
 10 14  1  0  0  0  0
 12 14  1  0  0  0  0
 13 17  1  0  0  0  0
 15 11  2  0  0  0  0
 16 12  1  0  0  0  0
 17  5  2  0  0  0  0
 17 15  1  0  0  0  0
 18 10  1  0  0  0  0
 19 20  2  0  0  0  0
 21  2  1  0  0  0  0
 21 22  1  0  0  0  0
 23 22  1  0  0  0  0
 23 24  1  0  0  0  0
 23 29  1  0  0  0  0
 25 26  2  0  0  0  0
 26 27  1  0  0  0  0
 26 32  1  0  0  0  0
 28 27  2  0  0  0  0
 29 25  1  0  0  0  0
 29 28  1  0  0  0  0
 30 33  1  0  0  0  0
 31 32  1  0  0  0  0
 31 34  1  0  0  0  0
 32 30  2  0  0  0  0
 34 33  2  0  0  0  0
 35 16  1  0  0  0  0
 36 38  2  0  0  0  0
 36 46  1  0  0  0  0
 37 35  1  0  0  0  0
 37 36  1  0  0  0  0
 39 42  2  0  0  0  0
 40 39  1  0  0  0  0
 41 39  1  0  0  0  0
 43 44  2  0  0  0  0
 44 40  1  0  0  0  0
 45 44  1  0  0  0  0
 45 46  2  0  0  0  0
 46 41  1  0  0  0  0
 48 47  1  0  0  0  0
 48 35  1  0  0  0  0
M  END
>  <MODEL>
8

>  <REMARK>
 VINA RESULT:      -6.1      4.611      9.128
  Name = 
  10 active torsions:
  status: ('A' for Active; 'I' for Inactive)
    1  A    between atoms: C_2  and  C_6
    2  A    between atoms: C_6  and  O_10
    3  A    between atoms: C_7  and  C_15
    4  A    between atoms: O_10  and  N_19
    5  A    between atoms: C_14  and  C_40
    6  A    between atoms: C_18  and  N_29
    7  A    between atoms: C_18  and  O_33
    8  A    between atoms: C_18  and  C_43
    9  A    between atoms: N_19  and  C_45
   10  A    between atoms: C_21  and  C_30
                            x       y       z     vdW  Elec       q    Type
                         _______ _______ _______ _____ _____    ______ ____

>  <TORSDO>
F 10

$$$$
=
 OpenBabel10222420083D

 48 53  0  0  1  0  0  0  0  0999 V2000
  184.5320  178.0690  139.0200 N   0  0  2  0  0  0  0  0  0  0  0  0
  185.4340  178.1330  140.1890 C   0  0  2  0  0  3  0  0  0  0  0  0
  185.7010  178.4720  145.6320 O   0  0  0  0  0  0  0  0  0  0  0  0
  184.9370  179.0290  141.2220 N   0  0  0  0  0  2  0  0  0  0  0  0
  182.3070  178.5990  142.5770 C   0  0  0  0  0  3  0  0  0  0  0  0
  186.4430  178.4200  144.4450 C   0  0  0  0  0  0  0  0  0  0  0  0
  184.2380  179.2750  138.2360 C   0  0  2  0  0  3  0  0  0  0  0  0
  183.8350  180.4750  139.0840 C   0  0  0  0  0  1  0  0  0  0  0  0
  184.2870  178.5740  145.7310 C   0  0  0  0  0  3  0  0  0  0  0  0
  182.3320  177.7970  138.0920 C   0  0  0  0  0  2  0  0  0  0  0  0
  185.7810  178.4850  143.3470 C   0  0  0  0  0  0  0  0  0  0  0  0
  182.6730  177.1940  140.5400 C   0  0  0  0  0  2  0  0  0  0  0  0
  183.3500  178.6320  144.7470 C   0  0  0  0  0  3  0  0  0  0  0  0
  183.3040  177.2700  139.1340 C   0  0  2  0  0  3  0  0  0  0  0  0
  184.7740  178.5710  142.5590 C   0  0  0  0  0  0  0  0  0  0  0  0
  182.1590  178.5320  141.0780 C   0  0  1  0  0  3  0  0  0  0  0  0
  183.4650  178.6160  143.2520 C   0  0  0  0  0  0  0  0  0  0  0  0
  183.0660  178.9020  137.3540 C   0  0  0  0  0  2  0  0  0  0  0  0
  187.8990  178.2910  144.4430 C   0  0  0  0  0  3  0  0  0  0  0  0
  188.4640  177.2130  144.8740 N   0  0  0  0  0  2  0  0  0  0  0  0
  186.8630  178.4860  139.7910 C   0  0  0  0  0  2  0  0  0  0  0  0
  187.4170  177.4760  138.9960 O   0  0  0  0  0  0  0  0  0  0  0  0
  187.9220  178.1190  137.9130 N   0  0  0  0  0  0  0  0  0  0  0  0
  189.3290  178.3580  138.2110 C   0  0  0  0  0  1  0  0  0  0  0  0
  186.5950  176.4580  136.8020 N   0  0  0  0  0  0  0  0  0  0  0  0
  186.8240  175.1980  136.9120 C   0  0  0  0  0  0  0  0  0  0  0  0
  188.1940  174.8530  136.9940 N   0  0  0  0  0  0  0  0  0  0  0  0
  188.9340  176.1000  136.9160 C   0  0  0  0  0  3  0  0  0  0  0  0
  187.8580  177.1900  136.7820 C   0  0  2  0  0  3  0  0  0  0  0  0
  185.9370  172.9620  137.2250 N   0  0  0  0  0  0  0  0  0  0  0  0
  184.4120  174.5050  136.7290 O   0  0  0  0  0  0  0  0  0  0  0  0
  185.7450  174.2080  136.9620 C   0  0  0  0  0  0  0  0  0  0  0  0
  184.7000  172.3130  137.1860 N   0  0  0  0  0  0  0  0  0  0  0  0
  183.6750  173.2980  136.8600 C   0  0  0  0  0  3  0  0  0  0  0  0
  180.7050  178.7820  140.6560 C   0  0  1  0  0  3  0  0  0  0  0  0
  179.4490  176.6110  141.1020 C   0  0  0  0  0  0  0  0  0  0  0  0
  179.7810  177.9620  141.4360 N   0  0  0  0  0  2  0  0  0  0  0  0
  179.0730  175.8350  142.0210 O   0  0  0  0  0  0  0  0  0  0  0  0
  179.2440  176.4720  137.2150 C   0  0  0  0  0  0  0  0  0  0  0  0
  179.7030  175.1360  137.0100 N   0  0  0  0  0  2  0  0  0  0  0  0
  178.9530  176.9770  138.6010 C   0  0  0  0  0  2  0  0  0  0  0  0
  178.9430  177.2050  136.1960 N   0  0  0  0  0  2  0  0  0  0  0  0
  180.4350  173.1380  137.9510 O   0  0  0  0  0  0  0  0  0  0  0  0
  180.0480  174.3230  138.1280 C   0  0  0  0  0  0  0  0  0  0  0  0
  179.9700  174.8760  139.4840 C   0  0  0  0  0  3  0  0  0  0  0  0
  179.5190  176.1170  139.7100 C   0  0  0  0  0  0  0  0  0  0  0  0
  180.0700  180.5780  139.5340 C   0  0  0  0  0  1  0  0  0  0  0  0
  180.3880  180.1310  140.8190 O   0  0  0  0  0  0  0  0  0  0  0  0
  1 14  1  0  0  0  0
  1  2  1  0  0  0  0
  2  4  1  0  0  0  0
  3  9  1  0  0  0  0
  4 15  1  0  0  0  0
  5 17  2  0  0  0  0
  6  3  1  0  0  0  0
  7  1  1  0  0  0  0
  7  8  1  0  0  0  0
 10 14  1  0  0  0  0
 11  6  2  0  0  0  0
 12 16  1  0  0  0  0
 13  9  2  0  0  0  0
 14 12  1  0  0  0  0
 15 17  1  0  0  0  0
 15 11  2  0  0  0  0
 16  5  1  0  0  0  0
 17 13  1  0  0  0  0
 18 10  1  0  0  0  0
 18  7  1  0  0  0  0
 19  6  1  0  0  0  0
 19 20  2  0  0  0  0
 21  2  1  0  0  0  0
 22 21  1  0  0  0  0
 23 24  1  0  0  0  0
 23 22  1  0  0  0  0
 25 26  2  0  0  0  0
 26 32  1  0  0  0  0
 26 27  1  0  0  0  0
 28 27  2  0  0  0  0
 29 25  1  0  0  0  0
 29 28  1  0  0  0  0
 29 23  1  0  0  0  0
 31 34  1  0  0  0  0
 31 32  1  0  0  0  0
 32 30  2  0  0  0  0
 33 30  1  0  0  0  0
 34 33  2  0  0  0  0
 35 48  1  0  0  0  0
 35 16  1  0  0  0  0
 35 37  1  0  0  0  0
 36 37  1  0  0  0  0
 36 38  2  0  0  0  0
 39 41  1  0  0  0  0
 40 39  1  0  0  0  0
 40 44  1  0  0  0  0
 41 46  1  0  0  0  0
 42 39  2  0  0  0  0
 43 44  2  0  0  0  0
 44 45  1  0  0  0  0
 45 46  2  0  0  0  0
 46 36  1  0  0  0  0
 47 48  1  0  0  0  0
M  END
>  <MODEL>
9

>  <REMARK>
 VINA RESULT:      -6.0      2.262      6.619
  Name = 
  10 active torsions:
  status: ('A' for Active; 'I' for Inactive)
    1  A    between atoms: C_2  and  C_6
    2  A    between atoms: C_6  and  O_10
    3  A    between atoms: C_7  and  C_15
    4  A    between atoms: O_10  and  N_19
    5  A    between atoms: C_14  and  C_40
    6  A    between atoms: C_18  and  N_29
    7  A    between atoms: C_18  and  O_33
    8  A    between atoms: C_18  and  C_43
    9  A    between atoms: N_19  and  C_45
   10  A    between atoms: C_21  and  C_30
                            x       y       z     vdW  Elec       q    Type
                         _______ _______ _______ _____ _____    ______ ____

>  <TORSDO>
F 10

$$$$
