=
 OpenBabel10222417033D

 55 60  0  0  1  0  0  0  0  0999 V2000
  187.6470  178.2230  138.3490 C   0  0  0  0  0  3  0  0  0  0  0  0
  187.5970  177.9940  137.0340 C   0  0  0  0  0  0  0  0  0  0  0  0
  185.2010  177.4770  137.1230 C   0  0  0  0  0  0  0  0  0  0  0  0
  182.8340  177.9680  137.2540 C   0  0  0  0  0  3  0  0  0  0  0  0
  182.9270  178.0080  141.8420 C   0  0  0  0  0  2  0  0  0  0  0  0
  181.2730  179.0290  140.2680 C   0  0  0  0  0  2  0  0  0  0  0  0
  184.2460  178.2700  139.2200 C   0  0  0  0  0  0  0  0  0  0  0  0
  185.2830  177.4320  138.6290 C   0  0  2  0  0  3  0  0  0  0  0  0
  183.0890  178.5650  138.5970 C   0  0  0  0  0  0  0  0  0  0  0  0
  186.2660  178.8500  140.2570 O   0  0  0  0  0  0  0  0  0  0  0  0
  183.8380  177.4400  136.5330 C   0  0  0  0  0  0  0  0  0  0  0  0
  186.2970  177.6970  136.3890 C   0  0  0  0  0  3  0  0  0  0  0  0
  182.1630  179.6050  139.1760 C   0  0  1  0  0  3  0  0  0  0  0  0
  181.9500  179.1550  141.6230 C   0  0  0  0  0  2  0  0  0  0  0  0
  186.4670  178.0790  139.1490 N   0  0  0  0  0  0  0  0  0  0  0  0
  184.4030  178.4210  141.7180 C   0  0  1  0  0  3  0  0  0  0  0  0
  184.8540  179.0060  140.3660 C   0  0  2  0  0  3  0  0  0  0  0  0
  181.6050  181.6470  137.8000 N   0  0  0  0  0  0  0  0  0  0  0  0
  180.3430  179.8440  137.3960 C   0  0  0  0  0  3  0  0  0  0  0  0
  180.6790  181.8790  136.8510 C   0  0  0  0  0  0  0  0  0  0  0  0
  181.3830  180.3640  138.1380 C   0  0  0  0  0  0  0  0  0  0  0  0
  179.8960  180.8150  136.5770 N   0  0  0  0  0  2  0  0  0  0  0  0
  180.5540  183.1840  136.1440 C   0  0  0  0  0  2  0  0  0  0  0  0
  179.9010  185.3590  136.6790 C   0  0  0  0  0  1  0  0  0  0  0  0
  180.7760  184.2710  137.0820 N   0  0  0  0  0  2  0  0  0  0  0  0
  183.5680  175.5270  134.9750 C   0  0  0  0  0  1  0  0  0  0  0  0
  183.5560  176.9170  135.2660 O   0  0  0  0  0  0  0  0  0  0  0  0
  184.8900  179.2420  142.9130 C   0  0  0  0  0  2  0  0  0  0  0  0
  185.0490  178.4110  144.0970 N   0  0  0  0  0  2  0  0  0  0  0  0
  186.4520  178.0300  144.1600 C   0  0  0  0  0  2  0  0  0  0  0  0
  186.8170  177.6450  145.5590 C   0  0  0  0  0  0  0  0  0  0  0  0
  185.9010  177.3050  146.3550 O   0  0  0  0  0  0  0  0  0  0  0  0
  191.5380  177.8510  144.2910 C   0  0  0  0  0  1  0  0  0  0  0  0
  190.4220  177.2250  145.1100 C   0  0  1  0  0  3  0  0  0  0  0  0
  190.8890  176.9310  146.5410 C   0  0  2  0  0  3  0  0  0  0  0  0
  188.1840  177.6720  146.0000 N   0  0  0  0  0  0  0  0  0  0  0  0
  188.5230  177.2930  147.3700 C   0  0  1  0  0  3  0  0  0  0  0  0
  192.0200  175.9180  146.5380 C   0  0  0  0  0  1  0  0  0  0  0  0
  189.2380  178.1870  145.1280 C   0  0  0  0  0  2  0  0  0  0  0  0
  189.7380  176.3670  147.3740 C   0  0  0  0  0  2  0  0  0  0  0  0
  188.7770  178.5280  148.2200 C   0  0  0  0  0  1  0  0  0  0  0  0
  188.7640  178.1090  136.2800 O   0  0  0  0  0  0  0  0  0  0  0  0
  189.2990  177.0240  135.6170 N   0  0  0  0  0  0  0  0  0  0  0  0
  190.3490  176.4000  136.0550 C   0  0  0  0  0  0  0  0  0  0  0  0
  192.4260  176.5630  137.2020 O   0  0  0  0  0  1  0  0  0  0  0  0
  191.0560  176.8110  137.3150 C   0  0  2  0  0  3  0  0  0  0  0  0
  190.4800  176.0760  138.5180 C   0  0  0  0  0  2  0  0  0  0  0  0
  190.8030  176.7810  139.7960 C   0  0  0  0  0  0  0  0  0  0  0  0
  189.7980  176.8320  140.8900 C   0  0  0  0  0  1  0  0  0  0  0  0
  191.8760  177.3430  139.9350 O   0  0  0  0  0  0  0  0  0  0  0  0
  190.8570  175.2200  135.3020 C   0  0  0  0  0  2  0  0  0  0  0  0
  188.9110  173.7560  134.6460 N   0  0  0  0  0  2  0  0  0  0  0  0
  189.9870  174.0360  135.5430 C   0  0  0  0  0  0  0  0  0  0  0  0
  187.9810  172.6640  134.8790 C   0  0  0  0  0  1  0  0  0  0  0  0
  190.1900  173.3110  136.5510 O   0  0  0  0  0  0  0  0  0  0  0  0
  1 15  1  0  0  0  0
  2  1  2  0  0  0  0
  4  9  1  0  0  0  0
  6 14  1  0  0  0  0
  8  3  1  6  0  0  0
  8 15  1  0  0  0  0
  8  7  1  0  0  0  0
  9 13  1  0  0  0  0
  9  7  2  0  0  0  0
 10 17  1  0  0  0  0
 11  3  1  0  0  0  0
 11  4  2  0  0  0  0
 12  2  1  0  0  0  0
 12  3  2  0  0  0  0
 13 21  1  6  0  0  0
 13  6  1  0  0  0  0
 14  5  1  0  0  0  0
 15 10  1  0  0  0  0
 16  5  1  0  0  0  0
 16 28  1  1  0  0  0
 17  7  1  6  0  0  0
 17 16  1  0  0  0  0
 18 21  1  0  0  0  0
 19 21  2  0  0  0  0
 20 18  2  0  0  0  0
 22 20  1  0  0  0  0
 22 19  1  0  0  0  0
 23 20  1  0  0  0  0
 23 25  1  0  0  0  0
 24 25  1  0  0  0  0
 26 27  1  0  0  0  0
 27 11  1  0  0  0  0
 28 29  1  0  0  0  0
 29 30  1  0  0  0  0
 30 31  1  0  0  0  0
 31 36  1  0  0  0  0
 31 32  2  0  0  0  0
 34 33  1  6  0  0  0
 34 39  1  0  0  0  0
 34 35  1  0  0  0  0
 35 38  1  6  0  0  0
 35 40  1  0  0  0  0
 36 37  1  0  0  0  0
 37 40  1  0  0  0  0
 37 41  1  1  0  0  0
 39 36  1  0  0  0  0
 42  2  1  0  0  0  0
 43 44  2  0  0  0  0
 43 42  1  0  0  0  0
 44 46  1  0  0  0  0
 46 45  1  6  0  0  0
 46 47  1  0  0  0  0
 47 48  1  0  0  0  0
 48 50  2  0  0  0  0
 48 49  1  0  0  0  0
 51 53  1  0  0  0  0
 51 44  1  0  0  0  0
 52 54  1  0  0  0  0
 52 53  1  0  0  0  0
 53 55  2  0  0  0  0
M  END
>  <MODEL>
1

>  <REMARK>
 VINA RESULT:      -8.1      0.000      0.000
  Name = 
  15 active torsions:
  status: ('A' for Active; 'I' for Inactive)
    1  A    between atoms: C_1  and  C_32
    2  A    between atoms: C_4  and  C_43
    3  A    between atoms: N_7  and  O_31
    4  A    between atoms: C_9  and  O_31
    5  A    between atoms: C_17  and  C_22
    6  A    between atoms: C_17  and  C_33
    7  A    between atoms: C_20  and  C_52
    8  A    between atoms: C_20  and  N_53
    9  A    between atoms: C_23  and  C_33
   10  A    between atoms: C_23  and  C_43
   11  A    between atoms: C_26  and  C_27
   12  A    between atoms: C_27  and  N_45
   13  A    between atoms: C_29  and  C_46
   14  A    between atoms: C_32  and  N_53
   15  A    between atoms: C_38  and  O_54
                            x       y       z     vdW  Elec       q    Type
                         _______ _______ _______ _____ _____    ______ ____

>  <TORSDO>
F 15

$$$$
=
 OpenBabel10222417033D

 55 60  0  0  1  0  0  0  0  0999 V2000
  187.1880  178.4870  140.8620 C   0  0  0  0  0  3  0  0  0  0  0  0
  186.1860  178.5530  139.9800 C   0  0  0  0  0  0  0  0  0  0  0  0
  187.7160  178.2650  138.0840 C   0  0  0  0  0  0  0  0  0  0  0  0
  189.1440  177.0430  136.5590 C   0  0  0  0  0  3  0  0  0  0  0  0
  192.7730  177.4990  139.3300 C   0  0  0  0  0  2  0  0  0  0  0  0
  192.3540  175.8400  137.5060 C   0  0  0  0  0  2  0  0  0  0  0  0
  189.8660  177.4190  138.8580 C   0  0  0  0  0  0  0  0  0  0  0  0
  188.8840  178.4860  139.0130 C   0  0  2  0  0  3  0  0  0  0  0  0
  190.0060  176.7010  137.7280 C   0  0  0  0  0  0  0  0  0  0  0  0
  189.4540  177.6390  141.1540 O   0  0  0  0  0  0  0  0  0  0  0  0
  188.0410  177.7950  136.7130 C   0  0  0  0  0  0  0  0  0  0  0  0
  186.4610  178.3420  138.5400 C   0  0  0  0  0  3  0  0  0  0  0  0
  190.8900  175.4790  137.7130 C   0  0  1  0  0  3  0  0  0  0  0  0
  193.0340  176.0790  138.8450 C   0  0  0  0  0  2  0  0  0  0  0  0
  188.5360  178.3180  140.4070 N   0  0  0  0  0  0  0  0  0  0  0  0
  191.7650  177.5810  140.4880 C   0  0  1  0  0  3  0  0  0  0  0  0
  190.3470  177.0420  140.2190 C   0  0  2  0  0  3  0  0  0  0  0  0
  189.3620  173.6070  136.9840 N   0  0  0  0  0  0  0  0  0  0  0  0
  191.0150  174.1050  135.5600 C   0  0  0  0  0  3  0  0  0  0  0  0
  189.3390  172.8260  135.8870 C   0  0  0  0  0  0  0  0  0  0  0  0
  190.4220  174.4060  136.7690 C   0  0  0  0  0  0  0  0  0  0  0  0
  190.3220  173.0950  135.0020 N   0  0  0  0  0  2  0  0  0  0  0  0
  188.3020  171.7820  135.6580 C   0  0  0  0  0  2  0  0  0  0  0  0
  186.6420  173.1660  134.7790 C   0  0  0  0  0  1  0  0  0  0  0  0
  186.9850  172.3360  135.9220 N   0  0  0  0  0  2  0  0  0  0  0  0
  186.3500  177.1250  135.0250 C   0  0  0  0  0  1  0  0  0  0  0  0
  187.2480  178.0660  135.5930 O   0  0  0  0  0  0  0  0  0  0  0  0
  192.3460  177.0890  141.8140 C   0  0  0  0  0  2  0  0  0  0  0  0
  191.6290  177.6550  142.9480 N   0  0  0  0  0  2  0  0  0  0  0  0
  191.1630  176.5360  143.7530 C   0  0  0  0  0  2  0  0  0  0  0  0
  190.8390  177.0000  145.1380 C   0  0  0  0  0  0  0  0  0  0  0  0
  191.7850  177.2760  145.9240 O   0  0  0  0  0  0  0  0  0  0  0  0
  186.1190  177.2110  143.8700 C   0  0  0  0  0  1  0  0  0  0  0  0
  187.2910  177.7520  144.6700 C   0  0  1  0  0  3  0  0  0  0  0  0
  186.8570  178.1360  146.0890 C   0  0  2  0  0  3  0  0  0  0  0  0
  189.4770  177.1200  145.5770 N   0  0  0  0  0  0  0  0  0  0  0  0
  189.1780  177.5740  146.9340 C   0  0  1  0  0  3  0  0  0  0  0  0
  185.8290  179.2540  146.0520 C   0  0  0  0  0  1  0  0  0  0  0  0
  188.3770  176.6820  144.7210 C   0  0  0  0  0  2  0  0  0  0  0  0
  188.0590  178.6140  146.9060 C   0  0  0  0  0  2  0  0  0  0  0  0
  188.8070  176.3980  147.8240 C   0  0  0  0  0  1  0  0  0  0  0  0
  184.8860  178.7510  140.4420 O   0  0  0  0  0  0  0  0  0  0  0  0
  183.9560  179.4440  139.6960 N   0  0  0  0  0  0  0  0  0  0  0  0
  182.6800  179.3080  139.8880 C   0  0  0  0  0  0  0  0  0  0  0  0
  181.5080  177.2870  140.3350 O   0  0  0  0  0  1  0  0  0  0  0  0
  182.1230  178.3880  140.9360 C   0  0  2  0  0  3  0  0  0  0  0  0
  181.1350  179.1270  141.8280 C   0  0  0  0  0  2  0  0  0  0  0  0
  181.4410  178.9150  143.2770 C   0  0  0  0  0  0  0  0  0  0  0  0
  182.8340  179.0700  143.7710 C   0  0  0  0  0  1  0  0  0  0  0  0
  180.5590  178.5830  144.0500 O   0  0  0  0  0  0  0  0  0  0  0  0
  181.7340  180.1080  139.0620 C   0  0  0  0  0  2  0  0  0  0  0  0
  181.0090  180.3170  136.6560 N   0  0  0  0  0  2  0  0  0  0  0  0
  181.6720  179.5680  137.6750 C   0  0  0  0  0  0  0  0  0  0  0  0
  180.8470  179.8020  135.3070 C   0  0  0  0  0  1  0  0  0  0  0  0
  182.1800  178.4450  137.4220 O   0  0  0  0  0  0  0  0  0  0  0  0
  2 42  1  0  0  0  0
  2  1  2  0  0  0  0
  3 12  2  0  0  0  0
  4 11  2  0  0  0  0
  4  9  1  0  0  0  0
  5 16  1  0  0  0  0
  6 13  1  0  0  0  0
  6 14  1  0  0  0  0
  7  8  1  0  0  0  0
  8  3  1  6  0  0  0
  8 15  1  0  0  0  0
  9  7  2  0  0  0  0
 11  3  1  0  0  0  0
 12  2  1  0  0  0  0
 13 21  1  6  0  0  0
 13  9  1  0  0  0  0
 14  5  1  0  0  0  0
 15  1  1  0  0  0  0
 15 10  1  0  0  0  0
 16 28  1  1  0  0  0
 17  7  1  6  0  0  0
 17 16  1  0  0  0  0
 17 10  1  0  0  0  0
 19 21  2  0  0  0  0
 20 18  2  0  0  0  0
 21 18  1  0  0  0  0
 22 19  1  0  0  0  0
 22 20  1  0  0  0  0
 23 20  1  0  0  0  0
 23 25  1  0  0  0  0
 24 25  1  0  0  0  0
 26 27  1  0  0  0  0
 27 11  1  0  0  0  0
 28 29  1  0  0  0  0
 29 30  1  0  0  0  0
 30 31  1  0  0  0  0
 31 36  1  0  0  0  0
 31 32  2  0  0  0  0
 34 33  1  6  0  0  0
 34 39  1  0  0  0  0
 34 35  1  0  0  0  0
 35 38  1  6  0  0  0
 35 40  1  0  0  0  0
 36 37  1  0  0  0  0
 37 41  1  1  0  0  0
 39 36  1  0  0  0  0
 40 37  1  0  0  0  0
 43 44  2  0  0  0  0
 43 42  1  0  0  0  0
 44 46  1  0  0  0  0
 46 45  1  6  0  0  0
 46 47  1  0  0  0  0
 47 48  1  0  0  0  0
 48 49  1  0  0  0  0
 48 50  2  0  0  0  0
 51 44  1  0  0  0  0
 52 53  1  0  0  0  0
 53 51  1  0  0  0  0
 54 52  1  0  0  0  0
 55 53  2  0  0  0  0
M  END
>  <MODEL>
2

>  <REMARK>
 VINA RESULT:      -8.0      2.407      8.251
  Name = 
  15 active torsions:
  status: ('A' for Active; 'I' for Inactive)
    1  A    between atoms: C_1  and  C_32
    2  A    between atoms: C_4  and  C_43
    3  A    between atoms: N_7  and  O_31
    4  A    between atoms: C_9  and  O_31
    5  A    between atoms: C_17  and  C_22
    6  A    between atoms: C_17  and  C_33
    7  A    between atoms: C_20  and  C_52
    8  A    between atoms: C_20  and  N_53
    9  A    between atoms: C_23  and  C_33
   10  A    between atoms: C_23  and  C_43
   11  A    between atoms: C_26  and  C_27
   12  A    between atoms: C_27  and  N_45
   13  A    between atoms: C_29  and  C_46
   14  A    between atoms: C_32  and  N_53
   15  A    between atoms: C_38  and  O_54
                            x       y       z     vdW  Elec       q    Type
                         _______ _______ _______ _____ _____    ______ ____

>  <TORSDO>
F 15

$$$$
=
 OpenBabel10222417033D

 55 60  0  0  1  0  0  0  0  0999 V2000
  184.7290  178.9480  140.3890 C   0  0  0  0  0  3  0  0  0  0  0  0
  183.4260  178.7060  140.2190 C   0  0  0  0  0  0  0  0  0  0  0  0
  183.7700  178.0020  137.8940 C   0  0  0  0  0  0  0  0  0  0  0  0
  184.4110  176.4990  136.1080 C   0  0  0  0  0  3  0  0  0  0  0  0
  188.7700  177.9280  136.2480 C   0  0  0  0  0  2  0  0  0  0  0  0
  187.8120  175.8080  135.3310 C   0  0  0  0  0  2  0  0  0  0  0  0
  186.1290  177.5390  137.4930 C   0  0  0  0  0  0  0  0  0  0  0  0
  185.1770  178.5440  137.9540 C   0  0  2  0  0  3  0  0  0  0  0  0
  185.8040  176.5480  136.6420 C   0  0  0  0  0  0  0  0  0  0  0  0
  186.9350  178.3580  139.5360 O   0  0  0  0  0  0  0  0  0  0  0  0
  183.4230  177.1930  136.6970 C   0  0  0  0  0  0  0  0  0  0  0  0
  182.9500  178.1230  138.9430 C   0  0  0  0  0  3  0  0  0  0  0  0
  186.7780  175.4270  136.3810 C   0  0  1  0  0  3  0  0  0  0  0  0
  189.0230  176.4490  135.9890 C   0  0  0  0  0  2  0  0  0  0  0  0
  185.6460  178.7450  139.3070 N   0  0  0  0  0  0  0  0  0  0  0  0
  188.5180  178.2630  137.7270 C   0  0  1  0  0  3  0  0  0  0  0  0
  187.3110  177.5830  138.4020 C   0  0  2  0  0  3  0  0  0  0  0  0
  185.2750  173.4720  136.9200 N   0  0  0  0  0  0  0  0  0  0  0  0
  186.2860  173.3830  134.9260 C   0  0  0  0  0  3  0  0  0  0  0  0
  184.9520  172.3580  136.2370 C   0  0  0  0  0  0  0  0  0  0  0  0
  186.1180  174.1080  136.0870 C   0  0  0  0  0  0  0  0  0  0  0  0
  185.5420  172.2660  135.0270 N   0  0  0  0  0  2  0  0  0  0  0  0
  184.0020  171.3360  136.7570 C   0  0  0  0  0  2  0  0  0  0  0  0
  181.8720  171.5990  135.8390 C   0  0  0  0  0  1  0  0  0  0  0  0
  182.7020  171.9470  136.9810 N   0  0  0  0  0  2  0  0  0  0  0  0
  181.4590  178.1720  135.5380 C   0  0  0  0  0  1  0  0  0  0  0  0
  182.1270  177.0950  136.1770 O   0  0  0  0  0  0  0  0  0  0  0  0
  189.7890  178.1940  138.5740 C   0  0  0  0  0  2  0  0  0  0  0  0
  189.6890  177.1620  139.5970 N   0  0  0  0  0  2  0  0  0  0  0  0
  189.5460  177.8450  140.8730 C   0  0  0  0  0  2  0  0  0  0  0  0
  190.6680  177.4670  141.7870 C   0  0  0  0  0  0  0  0  0  0  0  0
  191.8510  177.5340  141.3570 O   0  0  0  0  0  0  0  0  0  0  0  0
  187.4540  177.1360  145.4600 C   0  0  0  0  0  1  0  0  0  0  0  0
  188.8470  177.4720  144.9580 C   0  0  1  0  0  3  0  0  0  0  0  0
  189.9180  176.9840  145.9410 C   0  0  2  0  0  3  0  0  0  0  0  0
  190.4110  177.0210  143.1280 N   0  0  0  0  0  0  0  0  0  0  0  0
  191.5200  176.6550  144.0070 C   0  0  1  0  0  3  0  0  0  0  0  0
  189.7780  177.6880  147.2800 C   0  0  0  0  0  1  0  0  0  0  0  0
  189.0430  176.8160  143.5950 C   0  0  0  0  0  2  0  0  0  0  0  0
  191.3170  177.2660  145.3920 C   0  0  0  0  0  2  0  0  0  0  0  0
  191.6590  175.1430  144.0940 C   0  0  0  0  0  1  0  0  0  0  0  0
  182.5480  178.9410  141.2750 O   0  0  0  0  0  0  0  0  0  0  0  0
  181.3340  178.2900  141.3570 N   0  0  0  0  0  0  0  0  0  0  0  0
  180.2060  178.9290  141.3070 C   0  0  0  0  0  0  0  0  0  0  0  0
  179.6400  181.0040  142.3230 O   0  0  0  0  0  1  0  0  0  0  0  0
  180.1390  180.4220  141.1550 C   0  0  2  0  0  3  0  0  0  0  0  0
  179.2730  180.8010  139.9610 C   0  0  0  0  0  2  0  0  0  0  0  0
  180.0420  180.7210  138.6800 C   0  0  0  0  0  0  0  0  0  0  0  0
  181.3390  181.4320  138.5480 C   0  0  0  0  0  1  0  0  0  0  0  0
  179.5940  180.1000  137.7310 O   0  0  0  0  0  0  0  0  0  0  0  0
  178.9340  178.1590  141.3750 C   0  0  0  0  0  2  0  0  0  0  0  0
  179.0740  176.9930  139.1430 N   0  0  0  0  0  2  0  0  0  0  0  0
  179.0390  176.9110  140.5680 C   0  0  0  0  0  0  0  0  0  0  0  0
  179.0930  175.8060  138.3050 C   0  0  0  0  0  1  0  0  0  0  0  0
  179.0670  175.7960  141.1500 O   0  0  0  0  0  0  0  0  0  0  0  0
  2  1  2  0  0  0  0
  2 42  1  0  0  0  0
  3  8  1  0  0  0  0
  3 12  2  0  0  0  0
  4  9  1  0  0  0  0
  4 11  2  0  0  0  0
  5 16  1  0  0  0  0
  6 14  1  0  0  0  0
  6 13  1  0  0  0  0
  8  7  1  1  0  0  0
  8 15  1  0  0  0  0
  9  7  2  0  0  0  0
 11  3  1  0  0  0  0
 12  2  1  0  0  0  0
 13 21  1  6  0  0  0
 13  9  1  0  0  0  0
 14  5  1  0  0  0  0
 15 10  1  0  0  0  0
 15  1  1  0  0  0  0
 16 17  1  0  0  0  0
 16 28  1  1  0  0  0
 17  7  1  6  0  0  0
 17 10  1  0  0  0  0
 19 22  1  0  0  0  0
 19 21  2  0  0  0  0
 20 23  1  0  0  0  0
 20 18  2  0  0  0  0
 21 18  1  0  0  0  0
 22 20  1  0  0  0  0
 23 25  1  0  0  0  0
 24 25  1  0  0  0  0
 26 27  1  0  0  0  0
 27 11  1  0  0  0  0
 28 29  1  0  0  0  0
 29 30  1  0  0  0  0
 30 31  1  0  0  0  0
 31 36  1  0  0  0  0
 32 31  2  0  0  0  0
 34 33  1  1  0  0  0
 34 35  1  0  0  0  0
 35 38  1  1  0  0  0
 36 39  1  0  0  0  0
 36 37  1  0  0  0  0
 37 41  1  1  0  0  0
 37 40  1  0  0  0  0
 39 34  1  0  0  0  0
 40 35  1  0  0  0  0
 42 43  1  0  0  0  0
 44 43  2  0  0  0  0
 44 51  1  0  0  0  0
 46 44  1  0  0  0  0
 46 45  1  1  0  0  0
 47 46  1  0  0  0  0
 48 47  1  0  0  0  0
 49 48  1  0  0  0  0
 50 48  2  0  0  0  0
 52 53  1  0  0  0  0
 53 55  2  0  0  0  0
 53 51  1  0  0  0  0
 54 52  1  0  0  0  0
M  END
>  <MODEL>
3

>  <REMARK>
 VINA RESULT:      -7.7      2.960      8.104
  Name = 
  15 active torsions:
  status: ('A' for Active; 'I' for Inactive)
    1  A    between atoms: C_1  and  C_32
    2  A    between atoms: C_4  and  C_43
    3  A    between atoms: N_7  and  O_31
    4  A    between atoms: C_9  and  O_31
    5  A    between atoms: C_17  and  C_22
    6  A    between atoms: C_17  and  C_33
    7  A    between atoms: C_20  and  C_52
    8  A    between atoms: C_20  and  N_53
    9  A    between atoms: C_23  and  C_33
   10  A    between atoms: C_23  and  C_43
   11  A    between atoms: C_26  and  C_27
   12  A    between atoms: C_27  and  N_45
   13  A    between atoms: C_29  and  C_46
   14  A    between atoms: C_32  and  N_53
   15  A    between atoms: C_38  and  O_54
                            x       y       z     vdW  Elec       q    Type
                         _______ _______ _______ _____ _____    ______ ____

>  <TORSDO>
F 15

$$$$
=
 OpenBabel10222417033D

 55 60  0  0  1  0  0  0  0  0999 V2000
  189.4450  177.1660  141.1820 C   0  0  0  0  0  3  0  0  0  0  0  0
  188.4590  177.6490  141.9440 C   0  0  0  0  0  0  0  0  0  0  0  0
  187.2150  178.4460  139.9870 C   0  0  0  0  0  0  0  0  0  0  0  0
  185.7850  178.2520  138.0430 C   0  0  0  0  0  3  0  0  0  0  0  0
  189.3500  177.3150  135.3090 C   0  0  0  0  0  2  0  0  0  0  0  0
  186.9160  176.8410  134.9800 C   0  0  0  0  0  2  0  0  0  0  0  0
  188.0670  177.3950  137.9600 C   0  0  0  0  0  0  0  0  0  0  0  0
  188.4290  178.1890  139.1290 C   0  0  2  0  0  3  0  0  0  0  0  0
  186.8290  177.3790  137.4310 C   0  0  0  0  0  0  0  0  0  0  0  0
  189.9360  176.3680  138.9320 O   0  0  0  0  0  0  0  0  0  0  0  0
  185.9550  178.7740  139.2700 C   0  0  0  0  0  0  0  0  0  0  0  0
  187.2560  178.2310  141.3060 C   0  0  0  0  0  3  0  0  0  0  0  0
  186.4770  176.3760  136.3610 C   0  0  1  0  0  3  0  0  0  0  0  0
  188.3310  176.3690  134.6880 C   0  0  0  0  0  2  0  0  0  0  0  0
  189.3860  177.3060  139.7570 N   0  0  0  0  0  0  0  0  0  0  0  0
  190.0420  176.7450  136.5580 C   0  0  1  0  0  3  0  0  0  0  0  0
  189.1390  176.3790  137.7510 C   0  0  2  0  0  3  0  0  0  0  0  0
  184.4570  175.2910  137.4170 N   0  0  0  0  0  0  0  0  0  0  0  0
  184.1280  176.1500  135.3770 C   0  0  0  0  0  3  0  0  0  0  0  0
  183.1910  175.1170  136.9920 C   0  0  0  0  0  0  0  0  0  0  0  0
  185.0380  175.9390  136.3920 C   0  0  0  0  0  0  0  0  0  0  0  0
  182.9520  175.6230  135.7640 N   0  0  0  0  0  2  0  0  0  0  0  0
  182.1430  174.4570  137.8170 C   0  0  0  0  0  2  0  0  0  0  0  0
  180.3100  174.8250  139.2140 C   0  0  0  0  0  1  0  0  0  0  0  0
  181.1100  175.4210  138.1570 N   0  0  0  0  0  2  0  0  0  0  0  0
  183.6690  179.7350  139.1990 C   0  0  0  0  0  1  0  0  0  0  0  0
  184.9370  179.5640  139.8140 O   0  0  0  0  0  0  0  0  0  0  0  0
  191.0590  175.6530  136.2250 C   0  0  0  0  0  2  0  0  0  0  0  0
  192.3920  176.0130  136.6840 N   0  0  0  0  0  2  0  0  0  0  0  0
  192.8310  174.9530  137.5790 C   0  0  0  0  0  2  0  0  0  0  0  0
  193.6910  173.9780  136.8390 C   0  0  0  0  0  0  0  0  0  0  0  0
  193.2660  173.4930  135.7560 O   0  0  0  0  0  0  0  0  0  0  0  0
  197.3170  174.9180  139.9860 C   0  0  0  0  0  1  0  0  0  0  0  0
  196.8500  174.5670  138.5840 C   0  0  1  0  0  3  0  0  0  0  0  0
  197.7670  173.5160  137.9460 C   0  0  2  0  0  3  0  0  0  0  0  0
  194.9740  173.5860  137.3520 N   0  0  0  0  0  0  0  0  0  0  0  0
  195.8010  172.6320  136.6160 C   0  0  1  0  0  3  0  0  0  0  0  0
  199.1770  174.0580  137.7910 C   0  0  0  0  0  1  0  0  0  0  0  0
  195.4210  174.0410  138.6670 C   0  0  0  0  0  2  0  0  0  0  0  0
  197.2470  173.1210  136.5630 C   0  0  0  0  0  2  0  0  0  0  0  0
  195.7150  171.2510  137.2460 C   0  0  0  0  0  1  0  0  0  0  0  0
  188.5520  177.5310  143.3300 O   0  0  0  0  0  0  0  0  0  0  0  0
  187.4290  177.5620  144.1290 N   0  0  0  0  0  0  0  0  0  0  0  0
  187.4930  177.3780  145.4120 C   0  0  0  0  0  0  0  0  0  0  0  0
  188.5980  177.1280  147.5030 O   0  0  0  0  0  1  0  0  0  0  0  0
  188.7920  177.1190  146.1200 C   0  0  2  0  0  3  0  0  0  0  0  0
  189.8350  178.1560  145.7230 C   0  0  0  0  0  2  0  0  0  0  0  0
  191.1130  177.5090  145.2950 C   0  0  0  0  0  0  0  0  0  0  0  0
  191.6940  176.4060  146.1040 C   0  0  0  0  0  1  0  0  0  0  0  0
  191.7010  177.9040  144.3020 O   0  0  0  0  0  0  0  0  0  0  0  0
  186.2420  177.4510  146.2170 C   0  0  0  0  0  2  0  0  0  0  0  0
  184.4860  178.5370  144.7680 N   0  0  0  0  0  2  0  0  0  0  0  0
  185.4410  178.6440  145.8250 C   0  0  0  0  0  0  0  0  0  0  0  0
  183.7380  179.6860  144.2900 C   0  0  0  0  0  1  0  0  0  0  0  0
  185.6340  179.7420  146.4090 O   0  0  0  0  0  0  0  0  0  0  0  0
  1  2  2  0  0  0  0
  2 42  1  0  0  0  0
  3 12  2  0  0  0  0
  4 11  2  0  0  0  0
  5 16  1  0  0  0  0
  6 13  1  0  0  0  0
  8  7  1  6  0  0  0
  8 15  1  0  0  0  0
  8  3  1  0  0  0  0
  9  7  2  0  0  0  0
  9  4  1  0  0  0  0
 10 15  1  0  0  0  0
 11 27  1  0  0  0  0
 11  3  1  0  0  0  0
 12  2  1  0  0  0  0
 13 21  1  6  0  0  0
 13  9  1  0  0  0  0
 14  6  1  0  0  0  0
 14  5  1  0  0  0  0
 15  1  1  0  0  0  0
 16 28  1  6  0  0  0
 16 17  1  0  0  0  0
 17  7  1  1  0  0  0
 17 10  1  0  0  0  0
 19 22  1  0  0  0  0
 19 21  2  0  0  0  0
 20 18  2  0  0  0  0
 20 23  1  0  0  0  0
 21 18  1  0  0  0  0
 22 20  1  0  0  0  0
 23 25  1  0  0  0  0
 25 24  1  0  0  0  0
 26 27  1  0  0  0  0
 28 29  1  0  0  0  0
 29 30  1  0  0  0  0
 31 36  1  0  0  0  0
 31 30  1  0  0  0  0
 32 31  2  0  0  0  0
 34 39  1  0  0  0  0
 34 33  1  1  0  0  0
 35 38  1  6  0  0  0
 35 34  1  0  0  0  0
 36 39  1  0  0  0  0
 37 41  1  1  0  0  0
 37 36  1  0  0  0  0
 40 37  1  0  0  0  0
 40 35  1  0  0  0  0
 42 43  1  0  0  0  0
 43 44  2  0  0  0  0
 44 46  1  0  0  0  0
 44 51  1  0  0  0  0
 46 45  1  1  0  0  0
 47 46  1  0  0  0  0
 48 47  1  0  0  0  0
 48 49  1  0  0  0  0
 50 48  2  0  0  0  0
 52 53  1  0  0  0  0
 53 51  1  0  0  0  0
 53 55  2  0  0  0  0
 54 52  1  0  0  0  0
M  END
>  <MODEL>
4

>  <REMARK>
 VINA RESULT:      -7.7      3.551      8.827
  Name = 
  15 active torsions:
  status: ('A' for Active; 'I' for Inactive)
    1  A    between atoms: C_1  and  C_32
    2  A    between atoms: C_4  and  C_43
    3  A    between atoms: N_7  and  O_31
    4  A    between atoms: C_9  and  O_31
    5  A    between atoms: C_17  and  C_22
    6  A    between atoms: C_17  and  C_33
    7  A    between atoms: C_20  and  C_52
    8  A    between atoms: C_20  and  N_53
    9  A    between atoms: C_23  and  C_33
   10  A    between atoms: C_23  and  C_43
   11  A    between atoms: C_26  and  C_27
   12  A    between atoms: C_27  and  N_45
   13  A    between atoms: C_29  and  C_46
   14  A    between atoms: C_32  and  N_53
   15  A    between atoms: C_38  and  O_54
                            x       y       z     vdW  Elec       q    Type
                         _______ _______ _______ _____ _____    ______ ____

>  <TORSDO>
F 15

$$$$
=
 OpenBabel10222417033D

 55 60  0  0  1  0  0  0  0  0999 V2000
  186.0900  178.6160  140.5020 C   0  0  0  0  0  3  0  0  0  0  0  0
  185.0170  178.6320  139.7050 C   0  0  0  0  0  0  0  0  0  0  0  0
  186.3570  178.0340  137.7400 C   0  0  0  0  0  0  0  0  0  0  0  0
  187.5870  176.5610  136.2650 C   0  0  0  0  0  3  0  0  0  0  0  0
  191.4660  177.1400  138.6480 C   0  0  0  0  0  2  0  0  0  0  0  0
  190.8100  175.3020  137.0840 C   0  0  0  0  0  2  0  0  0  0  0  0
  188.5280  177.1680  138.4320 C   0  0  0  0  0  0  0  0  0  0  0  0
  187.6130  178.2990  138.5340 C   0  0  2  0  0  3  0  0  0  0  0  0
  188.5330  176.3130  137.3910 C   0  0  0  0  0  0  0  0  0  0  0  0
  188.3320  177.6830  140.7090 O   0  0  0  0  0  0  0  0  0  0  0  0
  186.5370  177.3860  136.4150 C   0  0  0  0  0  0  0  0  0  0  0  0
  185.1530  178.2350  138.2850 C   0  0  0  0  0  3  0  0  0  0  0  0
  189.3560  175.0510  137.4550 C   0  0  1  0  0  3  0  0  0  0  0  0
  191.6170  175.6610  138.3220 C   0  0  0  0  0  2  0  0  0  0  0  0
  187.3830  178.3180  139.9620 N   0  0  0  0  0  0  0  0  0  0  0  0
  190.5690  177.4160  139.8660 C   0  0  1  0  0  3  0  0  0  0  0  0
  189.1100  176.9300  139.7840 C   0  0  2  0  0  3  0  0  0  0  0  0
  187.4390  173.6550  136.5890 N   0  0  0  0  0  0  0  0  0  0  0  0
  189.4800  172.9520  136.0000 C   0  0  0  0  0  3  0  0  0  0  0  0
  187.3930  172.5450  135.8280 C   0  0  0  0  0  0  0  0  0  0  0  0
  188.7570  173.9000  136.6930 C   0  0  0  0  0  0  0  0  0  0  0  0
  188.6050  172.0880  135.4510 N   0  0  0  0  0  2  0  0  0  0  0  0
  186.1160  171.9000  135.4130 C   0  0  0  0  0  2  0  0  0  0  0  0
  184.0460  171.1140  136.1490 C   0  0  0  0  0  1  0  0  0  0  0  0
  185.1440  172.0050  136.4880 N   0  0  0  0  0  2  0  0  0  0  0  0
  184.4900  176.7860  135.1470 C   0  0  0  0  0  1  0  0  0  0  0  0
  185.6610  177.5660  135.3400 O   0  0  0  0  0  0  0  0  0  0  0  0
  191.2430  177.0550  141.1900 C   0  0  0  0  0  2  0  0  0  0  0  0
  190.2770  177.0000  142.2780 N   0  0  0  0  0  2  0  0  0  0  0  0
  190.4130  178.2410  143.0260 C   0  0  0  0  0  2  0  0  0  0  0  0
  190.9850  177.9650  144.3800 C   0  0  0  0  0  0  0  0  0  0  0  0
  192.2230  178.1170  144.5600 O   0  0  0  0  0  0  0  0  0  0  0  0
  186.4350  177.4460  146.1010 C   0  0  0  0  0  1  0  0  0  0  0  0
  187.8760  177.8810  146.3040 C   0  0  1  0  0  3  0  0  0  0  0  0
  188.3750  177.4920  147.7000 C   0  0  2  0  0  3  0  0  0  0  0  0
  190.1470  177.5220  145.4600 N   0  0  0  0  0  0  0  0  0  0  0  0
  190.7230  177.2570  146.7770 C   0  0  1  0  0  3  0  0  0  0  0  0
  187.5720  178.2040  148.7750 C   0  0  0  0  0  1  0  0  0  0  0  0
  188.7360  177.2200  145.2310 C   0  0  0  0  0  2  0  0  0  0  0  0
  189.8470  177.8730  147.8670 C   0  0  0  0  0  2  0  0  0  0  0  0
  190.8940  175.7620  146.9950 C   0  0  0  0  0  1  0  0  0  0  0  0
  183.7740  178.9560  140.2460 O   0  0  0  0  0  0  0  0  0  0  0  0
  182.7030  179.2780  139.4390 N   0  0  0  0  0  0  0  0  0  0  0  0
  181.4790  179.0160  139.7840 C   0  0  0  0  0  0  0  0  0  0  0  0
  180.1240  177.4070  140.8930 O   0  0  0  0  0  1  0  0  0  0  0  0
  181.1400  178.3460  141.0840 C   0  0  2  0  0  3  0  0  0  0  0  0
  180.7230  179.3750  142.1260 C   0  0  0  0  0  2  0  0  0  0  0  0
  181.2050  178.9990  143.4910 C   0  0  0  0  0  0  0  0  0  0  0  0
  182.6600  179.0020  143.7920 C   0  0  0  0  0  1  0  0  0  0  0  0
  180.4110  178.6570  144.3510 O   0  0  0  0  0  0  0  0  0  0  0  0
  180.3700  179.4160  138.8750 C   0  0  0  0  0  2  0  0  0  0  0  0
  180.7940  181.4730  137.4790 N   0  0  0  0  0  2  0  0  0  0  0  0
  180.3450  180.8950  138.7060 C   0  0  0  0  0  0  0  0  0  0  0  0
  180.8690  182.9120  137.2900 C   0  0  0  0  0  1  0  0  0  0  0  0
  179.9550  181.6230  139.6550 O   0  0  0  0  0  0  0  0  0  0  0  0
  2 42  1  0  0  0  0
  2  1  2  0  0  0  0
  3 12  2  0  0  0  0
  4 11  2  0  0  0  0
  4  9  1  0  0  0  0
  5 16  1  0  0  0  0
  6 13  1  0  0  0  0
  6 14  1  0  0  0  0
  7  8  1  0  0  0  0
  8  3  1  6  0  0  0
  8 15  1  0  0  0  0
  9 13  1  0  0  0  0
  9  7  2  0  0  0  0
 11  3  1  0  0  0  0
 12  2  1  0  0  0  0
 13 21  1  6  0  0  0
 14  5  1  0  0  0  0
 15  1  1  0  0  0  0
 15 10  1  0  0  0  0
 16 28  1  1  0  0  0
 17  7  1  6  0  0  0
 17 16  1  0  0  0  0
 17 10  1  0  0  0  0
 18 21  1  0  0  0  0
 19 21  2  0  0  0  0
 20 18  2  0  0  0  0
 22 20  1  0  0  0  0
 22 19  1  0  0  0  0
 23 20  1  0  0  0  0
 23 25  1  0  0  0  0
 24 25  1  0  0  0  0
 26 27  1  0  0  0  0
 27 11  1  0  0  0  0
 28 29  1  0  0  0  0
 29 30  1  0  0  0  0
 30 31  1  0  0  0  0
 31 32  2  0  0  0  0
 31 36  1  0  0  0  0
 34 33  1  6  0  0  0
 34 35  1  0  0  0  0
 35 40  1  0  0  0  0
 35 38  1  1  0  0  0
 36 37  1  0  0  0  0
 37 41  1  1  0  0  0
 37 40  1  0  0  0  0
 39 36  1  0  0  0  0
 39 34  1  0  0  0  0
 43 44  2  0  0  0  0
 43 42  1  0  0  0  0
 44 46  1  0  0  0  0
 46 45  1  6  0  0  0
 46 47  1  0  0  0  0
 47 48  1  0  0  0  0
 48 49  1  0  0  0  0
 48 50  2  0  0  0  0
 51 44  1  0  0  0  0
 52 53  1  0  0  0  0
 53 51  1  0  0  0  0
 53 55  2  0  0  0  0
 54 52  1  0  0  0  0
M  END
>  <MODEL>
5

>  <REMARK>
 VINA RESULT:      -7.5      2.400      8.228
  Name = 
  15 active torsions:
  status: ('A' for Active; 'I' for Inactive)
    1  A    between atoms: C_1  and  C_32
    2  A    between atoms: C_4  and  C_43
    3  A    between atoms: N_7  and  O_31
    4  A    between atoms: C_9  and  O_31
    5  A    between atoms: C_17  and  C_22
    6  A    between atoms: C_17  and  C_33
    7  A    between atoms: C_20  and  C_52
    8  A    between atoms: C_20  and  N_53
    9  A    between atoms: C_23  and  C_33
   10  A    between atoms: C_23  and  C_43
   11  A    between atoms: C_26  and  C_27
   12  A    between atoms: C_27  and  N_45
   13  A    between atoms: C_29  and  C_46
   14  A    between atoms: C_32  and  N_53
   15  A    between atoms: C_38  and  O_54
                            x       y       z     vdW  Elec       q    Type
                         _______ _______ _______ _____ _____    ______ ____

>  <TORSDO>
F 15

$$$$
=
 OpenBabel10222417033D

 55 60  0  0  1  0  0  0  0  0999 V2000
  184.2370  178.8520  139.7740 C   0  0  0  0  0  3  0  0  0  0  0  0
  183.0160  178.3630  139.5400 C   0  0  0  0  0  0  0  0  0  0  0  0
  183.7010  177.4500  137.3690 C   0  0  0  0  0  0  0  0  0  0  0  0
  184.7570  175.8750  135.8640 C   0  0  0  0  0  3  0  0  0  0  0  0
  188.7830  178.0620  136.1370 C   0  0  0  0  0  2  0  0  0  0  0  0
  188.2860  175.7090  135.4520 C   0  0  0  0  0  2  0  0  0  0  0  0
  186.1320  177.3670  137.2180 C   0  0  0  0  0  0  0  0  0  0  0  0
  184.9860  178.2360  137.4600 C   0  0  2  0  0  3  0  0  0  0  0  0
  186.0620  176.2360  136.4910 C   0  0  0  0  0  0  0  0  0  0  0  0
  186.5840  178.5620  139.1830 O   0  0  0  0  0  0  0  0  0  0  0  0
  183.6130  176.4500  136.2730 C   0  0  0  0  0  0  0  0  0  0  0  0
  182.7720  177.5520  138.3250 C   0  0  0  0  0  3  0  0  0  0  0  0
  187.2300  175.2830  136.4630 C   0  0  1  0  0  3  0  0  0  0  0  0
  189.3020  176.6310  136.1060 C   0  0  0  0  0  2  0  0  0  0  0  0
  185.2780  178.6830  138.8040 N   0  0  0  0  0  0  0  0  0  0  0  0
  188.3330  178.5270  137.5310 C   0  0  1  0  0  3  0  0  0  0  0  0
  187.1950  177.7320  138.1990 C   0  0  2  0  0  3  0  0  0  0  0  0
  185.6780  173.4230  135.7520 N   0  0  0  0  0  0  0  0  0  0  0  0
  187.5930  172.7630  136.7040 C   0  0  0  0  0  3  0  0  0  0  0  0
  185.7680  172.0820  135.8330 C   0  0  0  0  0  0  0  0  0  0  0  0
  186.8300  173.8410  136.3060 C   0  0  0  0  0  0  0  0  0  0  0  0
  186.9100  171.6430  136.4020 N   0  0  0  0  0  2  0  0  0  0  0  0
  184.7160  171.1670  135.3100 C   0  0  0  0  0  2  0  0  0  0  0  0
  182.5050  171.1770  136.0560 C   0  0  0  0  0  1  0  0  0  0  0  0
  183.8510  170.7460  136.3990 N   0  0  0  0  0  2  0  0  0  0  0  0
  181.7810  174.8130  135.9260 C   0  0  0  0  0  1  0  0  0  0  0  0
  182.4110  176.0600  135.6740 O   0  0  0  0  0  0  0  0  0  0  0  0
  189.5070  178.7900  138.4750 C   0  0  0  0  0  2  0  0  0  0  0  0
  189.2210  178.3170  139.8220 N   0  0  0  0  0  2  0  0  0  0  0  0
  189.9390  177.0630  139.9900 C   0  0  0  0  0  2  0  0  0  0  0  0
  190.8700  177.1570  141.1570 C   0  0  0  0  0  0  0  0  0  0  0  0
  192.0690  177.4890  140.9530 O   0  0  0  0  0  0  0  0  0  0  0  0
  187.0560  176.4910  144.1470 C   0  0  0  0  0  1  0  0  0  0  0  0
  188.4050  177.1260  143.8570 C   0  0  1  0  0  3  0  0  0  0  0  0
  189.2970  177.1120  145.1040 C   0  0  2  0  0  3  0  0  0  0  0  0
  190.4190  176.8630  142.4890 N   0  0  0  0  0  0  0  0  0  0  0  0
  191.3430  176.9600  143.6170 C   0  0  1  0  0  3  0  0  0  0  0  0
  188.6790  177.9400  146.2160 C   0  0  0  0  0  1  0  0  0  0  0  0
  189.0700  176.3540  142.7220 C   0  0  0  0  0  2  0  0  0  0  0  0
  190.6760  177.6910  144.7810 C   0  0  0  0  0  2  0  0  0  0  0  0
  191.8180  175.5800  144.0400 C   0  0  0  0  0  1  0  0  0  0  0  0
  182.0100  178.5670  140.4830 O   0  0  0  0  0  0  0  0  0  0  0  0
  182.2980  178.6710  141.8280 N   0  0  0  0  0  0  0  0  0  0  0  0
  181.3830  178.9430  142.7070 C   0  0  0  0  0  0  0  0  0  0  0  0
  179.1950  178.0180  142.5980 O   0  0  0  0  0  1  0  0  0  0  0  0
  179.9470  179.1640  142.3270 C   0  0  2  0  0  3  0  0  0  0  0  0
  179.8340  179.5380  140.8550 C   0  0  0  0  0  2  0  0  0  0  0  0
  179.4300  180.9680  140.6840 C   0  0  0  0  0  0  0  0  0  0  0  0
  179.3070  181.5470  139.3210 C   0  0  0  0  0  1  0  0  0  0  0  0
  179.2310  181.6730  141.6590 O   0  0  0  0  0  0  0  0  0  0  0  0
  181.7610  179.0150  144.1460 C   0  0  0  0  0  2  0  0  0  0  0  0
  183.8210  179.0030  145.6010 N   0  0  0  0  0  2  0  0  0  0  0  0
  183.2400  178.9270  144.2990 C   0  0  0  0  0  0  0  0  0  0  0  0
  185.2600  179.0060  145.8020 C   0  0  0  0  0  1  0  0  0  0  0  0
  183.9650  178.8160  143.2760 O   0  0  0  0  0  0  0  0  0  0  0  0
  2  1  2  0  0  0  0
  2 42  1  0  0  0  0
  3  8  1  0  0  0  0
  3 12  2  0  0  0  0
  4 11  2  0  0  0  0
  4  9  1  0  0  0  0
  5 16  1  0  0  0  0
  6 14  1  0  0  0  0
  6 13  1  0  0  0  0
  8  7  1  1  0  0  0
  8 15  1  0  0  0  0
  9  7  2  0  0  0  0
 11  3  1  0  0  0  0
 12  2  1  0  0  0  0
 13 21  1  6  0  0  0
 13  9  1  0  0  0  0
 14  5  1  0  0  0  0
 15 10  1  0  0  0  0
 15  1  1  0  0  0  0
 16 17  1  0  0  0  0
 16 28  1  1  0  0  0
 17  7  1  6  0  0  0
 17 10  1  0  0  0  0
 18 20  2  0  0  0  0
 18 21  1  0  0  0  0
 20 22  1  0  0  0  0
 21 19  2  0  0  0  0
 22 19  1  0  0  0  0
 23 20  1  0  0  0  0
 23 25  1  0  0  0  0
 24 25  1  0  0  0  0
 27 26  1  0  0  0  0
 27 11  1  0  0  0  0
 28 29  1  0  0  0  0
 29 30  1  0  0  0  0
 30 31  1  0  0  0  0
 31 36  1  0  0  0  0
 32 31  2  0  0  0  0
 34 33  1  1  0  0  0
 34 35  1  0  0  0  0
 35 38  1  1  0  0  0
 36 39  1  0  0  0  0
 36 37  1  0  0  0  0
 37 41  1  1  0  0  0
 37 40  1  0  0  0  0
 39 34  1  0  0  0  0
 40 35  1  0  0  0  0
 42 43  1  0  0  0  0
 43 44  2  0  0  0  0
 44 51  1  0  0  0  0
 46 45  1  6  0  0  0
 46 44  1  0  0  0  0
 47 46  1  0  0  0  0
 48 47  1  0  0  0  0
 48 50  2  0  0  0  0
 49 48  1  0  0  0  0
 51 53  1  0  0  0  0
 52 54  1  0  0  0  0
 53 52  1  0  0  0  0
 55 53  2  0  0  0  0
M  END
>  <MODEL>
6

>  <REMARK>
 VINA RESULT:      -6.6      2.712      8.425
  Name = 
  15 active torsions:
  status: ('A' for Active; 'I' for Inactive)
    1  A    between atoms: C_1  and  C_32
    2  A    between atoms: C_4  and  C_43
    3  A    between atoms: N_7  and  O_31
    4  A    between atoms: C_9  and  O_31
    5  A    between atoms: C_17  and  C_22
    6  A    between atoms: C_17  and  C_33
    7  A    between atoms: C_20  and  C_52
    8  A    between atoms: C_20  and  N_53
    9  A    between atoms: C_23  and  C_33
   10  A    between atoms: C_23  and  C_43
   11  A    between atoms: C_26  and  C_27
   12  A    between atoms: C_27  and  N_45
   13  A    between atoms: C_29  and  C_46
   14  A    between atoms: C_32  and  N_53
   15  A    between atoms: C_38  and  O_54
                            x       y       z     vdW  Elec       q    Type
                         _______ _______ _______ _____ _____    ______ ____

>  <TORSDO>
F 15

$$$$
=
 OpenBabel10222417033D

 55 60  0  0  1  0  0  0  0  0999 V2000
  189.7800  177.1520  140.5080 C   0  0  0  0  0  3  0  0  0  0  0  0
  188.8450  177.8980  141.1040 C   0  0  0  0  0  0  0  0  0  0  0  0
  187.5510  178.0930  139.0290 C   0  0  0  0  0  0  0  0  0  0  0  0
  186.0360  177.3610  137.2880 C   0  0  0  0  0  3  0  0  0  0  0  0
  189.4500  175.4380  134.8980 C   0  0  0  0  0  2  0  0  0  0  0  0
  186.9890  175.0010  134.8040 C   0  0  0  0  0  2  0  0  0  0  0  0
  188.2800  176.4140  137.4200 C   0  0  0  0  0  0  0  0  0  0  0  0
  188.7190  177.5200  138.2650 C   0  0  2  0  0  3  0  0  0  0  0  0
  187.0220  176.2910  136.9580 C   0  0  0  0  0  0  0  0  0  0  0  0
  190.1480  175.6600  138.6170 O   0  0  0  0  0  0  0  0  0  0  0  0
  186.2760  178.2360  138.2800 C   0  0  0  0  0  0  0  0  0  0  0  0
  187.6390  178.3050  140.3460 C   0  0  0  0  0  3  0  0  0  0  0  0
  186.5900  175.0190  136.2730 C   0  0  1  0  0  3  0  0  0  0  0  0
  188.3720  174.3930  134.6390 C   0  0  0  0  0  2  0  0  0  0  0  0
  189.6670  176.8350  139.1150 N   0  0  0  0  0  0  0  0  0  0  0  0
  190.1710  175.2600  136.2450 C   0  0  1  0  0  3  0  0  0  0  0  0
  189.3050  175.3340  137.5160 C   0  0  2  0  0  3  0  0  0  0  0  0
  184.3700  174.0280  135.5910 N   0  0  0  0  0  0  0  0  0  0  0  0
  184.4080  175.0010  137.6060 C   0  0  0  0  0  3  0  0  0  0  0  0
  183.1740  173.9660  136.2070 C   0  0  0  0  0  0  0  0  0  0  0  0
  185.1380  174.6840  136.4790 C   0  0  0  0  0  0  0  0  0  0  0  0
  183.1550  174.5430  137.4260 N   0  0  0  0  0  2  0  0  0  0  0  0
  181.9900  173.2910  135.6080 C   0  0  0  0  0  2  0  0  0  0  0  0
  180.3030  172.5200  137.0250 C   0  0  0  0  0  1  0  0  0  0  0  0
  180.7880  173.6940  136.3180 N   0  0  0  0  0  2  0  0  0  0  0  0
  183.9170  178.9360  138.6020 C   0  0  0  0  0  1  0  0  0  0  0  0
  185.3100  179.2060  138.5720 O   0  0  0  0  0  0  0  0  0  0  0  0
  191.1320  174.0710  136.2490 C   0  0  0  0  0  2  0  0  0  0  0  0
  192.3250  174.3510  135.4620 N   0  0  0  0  0  2  0  0  0  0  0  0
  193.3820  174.6890  136.4030 C   0  0  0  0  0  2  0  0  0  0  0  0
  194.6260  173.9270  136.0740 C   0  0  0  0  0  0  0  0  0  0  0  0
  194.7590  173.4520  134.9140 O   0  0  0  0  0  0  0  0  0  0  0  0
  196.4790  175.2490  140.4040 C   0  0  0  0  0  1  0  0  0  0  0  0
  196.6760  174.9220  138.9340 C   0  0  1  0  0  3  0  0  0  0  0  0
  197.9450  174.0870  138.7220 C   0  0  2  0  0  3  0  0  0  0  0  0
  195.6510  173.7240  137.0600 N   0  0  0  0  0  0  0  0  0  0  0  0
  196.8600  172.9760  136.7210 C   0  0  1  0  0  3  0  0  0  0  0  0
  199.1770  174.8690  139.1420 C   0  0  0  0  0  1  0  0  0  0  0  0
  195.4520  174.1570  138.4410 C   0  0  0  0  0  2  0  0  0  0  0  0
  198.0940  173.7050  137.2490 C   0  0  0  0  0  2  0  0  0  0  0  0
  196.7870  171.5610  137.2700 C   0  0  0  0  0  1  0  0  0  0  0  0
  188.9900  178.2200  142.4520 O   0  0  0  0  0  0  0  0  0  0  0  0
  188.1290  177.7200  143.4060 N   0  0  0  0  0  0  0  0  0  0  0  0
  188.5410  177.3550  144.5810 C   0  0  0  0  0  0  0  0  0  0  0  0
  190.4830  178.7230  144.6990 O   0  0  0  0  0  1  0  0  0  0  0  0
  189.9830  177.4510  144.9880 C   0  0  2  0  0  3  0  0  0  0  0  0
  190.8110  176.3830  144.2870 C   0  0  0  0  0  2  0  0  0  0  0  0
  191.7160  175.6750  145.2450 C   0  0  0  0  0  0  0  0  0  0  0  0
  191.8160  176.1400  146.6520 C   0  0  0  0  0  1  0  0  0  0  0  0
  192.3970  174.7360  144.8690 O   0  0  0  0  0  0  0  0  0  0  0  0
  187.5510  176.8480  145.5710 C   0  0  0  0  0  2  0  0  0  0  0  0
  188.7250  177.5520  147.6890 N   0  0  0  0  0  2  0  0  0  0  0  0
  187.5990  177.6620  146.8170 C   0  0  0  0  0  0  0  0  0  0  0  0
  188.7880  178.2600  148.9560 C   0  0  0  0  0  1  0  0  0  0  0  0
  186.6350  178.4190  147.1040 O   0  0  0  0  0  0  0  0  0  0  0  0
  1  2  2  0  0  0  0
  2 42  1  0  0  0  0
  3 12  2  0  0  0  0
  4 11  2  0  0  0  0
  5 16  1  0  0  0  0
  6 13  1  0  0  0  0
  8  7  1  6  0  0  0
  8  3  1  0  0  0  0
  8 15  1  0  0  0  0
  9  4  1  0  0  0  0
  9  7  2  0  0  0  0
 10 15  1  0  0  0  0
 11 27  1  0  0  0  0
 11  3  1  0  0  0  0
 12  2  1  0  0  0  0
 13 21  1  6  0  0  0
 13  9  1  0  0  0  0
 14  6  1  0  0  0  0
 14  5  1  0  0  0  0
 15  1  1  0  0  0  0
 16 28  1  6  0  0  0
 16 17  1  0  0  0  0
 17  7  1  6  0  0  0
 17 10  1  0  0  0  0
 18 20  2  0  0  0  0
 18 21  1  0  0  0  0
 20 22  1  0  0  0  0
 21 19  2  0  0  0  0
 22 19  1  0  0  0  0
 23 20  1  0  0  0  0
 23 25  1  0  0  0  0
 25 24  1  0  0  0  0
 27 26  1  0  0  0  0
 29 28  1  0  0  0  0
 29 30  1  0  0  0  0
 31 30  1  0  0  0  0
 31 36  1  0  0  0  0
 32 31  2  0  0  0  0
 34 33  1  1  0  0  0
 35 34  1  0  0  0  0
 35 38  1  6  0  0  0
 36 39  1  0  0  0  0
 37 36  1  0  0  0  0
 37 40  1  0  0  0  0
 37 41  1  1  0  0  0
 39 34  1  0  0  0  0
 40 35  1  0  0  0  0
 42 43  1  0  0  0  0
 43 44  2  0  0  0  0
 44 46  1  0  0  0  0
 44 51  1  0  0  0  0
 46 45  1  6  0  0  0
 47 46  1  0  0  0  0
 47 48  1  0  0  0  0
 48 49  1  0  0  0  0
 50 48  2  0  0  0  0
 51 53  1  0  0  0  0
 52 54  1  0  0  0  0
 53 55  2  0  0  0  0
 53 52  1  0  0  0  0
M  END
>  <MODEL>
7

>  <REMARK>
 VINA RESULT:      -6.2      3.807      9.122
  Name = 
  15 active torsions:
  status: ('A' for Active; 'I' for Inactive)
    1  A    between atoms: C_1  and  C_32
    2  A    between atoms: C_4  and  C_43
    3  A    between atoms: N_7  and  O_31
    4  A    between atoms: C_9  and  O_31
    5  A    between atoms: C_17  and  C_22
    6  A    between atoms: C_17  and  C_33
    7  A    between atoms: C_20  and  C_52
    8  A    between atoms: C_20  and  N_53
    9  A    between atoms: C_23  and  C_33
   10  A    between atoms: C_23  and  C_43
   11  A    between atoms: C_26  and  C_27
   12  A    between atoms: C_27  and  N_45
   13  A    between atoms: C_29  and  C_46
   14  A    between atoms: C_32  and  N_53
   15  A    between atoms: C_38  and  O_54
                            x       y       z     vdW  Elec       q    Type
                         _______ _______ _______ _____ _____    ______ ____

>  <TORSDO>
F 15

$$$$
=
 OpenBabel10222417033D

 55 60  0  0  1  0  0  0  0  0999 V2000
  190.2750  176.7260  140.3160 C   0  0  0  0  0  3  0  0  0  0  0  0
  189.3540  177.5230  140.8670 C   0  0  0  0  0  0  0  0  0  0  0  0
  188.0730  177.6370  138.7790 C   0  0  0  0  0  0  0  0  0  0  0  0
  186.5490  176.8480  137.0710 C   0  0  0  0  0  3  0  0  0  0  0  0
  189.9280  174.7260  134.8030 C   0  0  0  0  0  2  0  0  0  0  0  0
  187.4580  174.3390  134.7190 C   0  0  0  0  0  2  0  0  0  0  0  0
  188.7710  175.8600  137.2640 C   0  0  0  0  0  0  0  0  0  0  0  0
  189.2300  176.9980  138.0510 C   0  0  2  0  0  3  0  0  0  0  0  0
  187.5120  175.7400  136.8020 C   0  0  0  0  0  0  0  0  0  0  0  0
  190.6170  175.1290  138.5080 O   0  0  0  0  0  0  0  0  0  0  0  0
  186.8040  177.7680  138.0160 C   0  0  0  0  0  0  0  0  0  0  0  0
  188.1600  177.9160  140.0830 C   0  0  0  0  0  3  0  0  0  0  0  0
  187.0540  174.4430  136.1830 C   0  0  1  0  0  3  0  0  0  0  0  0
  188.8290  173.6930  134.5940 C   0  0  0  0  0  2  0  0  0  0  0  0
  190.1610  176.3400  138.9410 N   0  0  0  0  0  0  0  0  0  0  0  0
  190.6400  174.6040  136.1600 C   0  0  1  0  0  3  0  0  0  0  0  0
  189.7710  174.7640  137.4220 C   0  0  2  0  0  3  0  0  0  0  0  0
  184.6460  174.2440  135.4510 N   0  0  0  0  0  0  0  0  0  0  0  0
  185.0400  173.7480  137.5970 C   0  0  0  0  0  3  0  0  0  0  0  0
  183.5230  173.8940  136.1050 C   0  0  0  0  0  0  0  0  0  0  0  0
  185.5950  174.1510  136.4000 C   0  0  0  0  0  0  0  0  0  0  0  0
  183.7180  173.5870  137.4040 N   0  0  0  0  0  2  0  0  0  0  0  0
  182.1910  173.8200  135.4440 C   0  0  0  0  0  2  0  0  0  0  0  0
  181.8920  176.0500  136.0620 C   0  0  0  0  0  1  0  0  0  0  0  0
  181.2710  174.7370  136.0950 N   0  0  0  0  0  2  0  0  0  0  0  0
  184.8990  178.7120  139.2960 C   0  0  0  0  0  1  0  0  0  0  0  0
  185.8590  178.7730  138.2520 O   0  0  0  0  0  0  0  0  0  0  0  0
  191.5750  173.3970  136.2310 C   0  0  0  0  0  2  0  0  0  0  0  0
  192.8800  173.7030  135.6660 N   0  0  0  0  0  2  0  0  0  0  0  0
  193.1040  175.1260  135.8670 C   0  0  0  0  0  2  0  0  0  0  0  0
  194.2920  175.3390  136.7520 C   0  0  0  0  0  0  0  0  0  0  0  0
  194.2220  176.2040  137.6670 O   0  0  0  0  0  0  0  0  0  0  0  0
  196.4260  171.4570  134.6780 C   0  0  0  0  0  1  0  0  0  0  0  0
  196.1850  172.3300  135.8970 C   0  0  1  0  0  3  0  0  0  0  0  0
  197.4800  172.5320  136.6930 C   0  0  2  0  0  3  0  0  0  0  0  0
  195.4990  174.5860  136.5620 N   0  0  0  0  0  0  0  0  0  0  0  0
  196.6500  174.8070  137.4360 C   0  0  1  0  0  3  0  0  0  0  0  0
  197.9930  171.2060  137.2280 C   0  0  0  0  0  1  0  0  0  0  0  0
  195.6390  173.6750  135.4280 C   0  0  0  0  0  2  0  0  0  0  0  0
  197.2400  173.4690  137.8780 C   0  0  0  0  0  2  0  0  0  0  0  0
  197.6970  175.6600  136.7370 C   0  0  0  0  0  1  0  0  0  0  0  0
  189.5010  177.9130  142.1970 O   0  0  0  0  0  0  0  0  0  0  0  0
  188.4770  177.7580  143.1080 N   0  0  0  0  0  0  0  0  0  0  0  0
  188.6900  177.7610  144.3880 C   0  0  0  0  0  0  0  0  0  0  0  0
  190.8900  178.6040  144.0660 O   0  0  0  0  0  1  0  0  0  0  0  0
  190.0630  177.9350  144.9710 C   0  0  2  0  0  3  0  0  0  0  0  0
  190.6630  176.5860  145.3430 C   0  0  0  0  0  2  0  0  0  0  0  0
  191.1240  176.5650  146.7650 C   0  0  0  0  0  0  0  0  0  0  0  0
  192.4100  175.9110  147.1190 C   0  0  0  0  0  1  0  0  0  0  0  0
  190.4340  177.0550  147.6430 O   0  0  0  0  0  0  0  0  0  0  0  0
  187.5330  177.6140  145.3140 C   0  0  0  0  0  2  0  0  0  0  0  0
  185.3560  178.7830  144.8090 N   0  0  0  0  0  2  0  0  0  0  0  0
  186.2510  177.6990  144.5600 C   0  0  0  0  0  0  0  0  0  0  0  0
  184.0580  178.8720  144.1630 C   0  0  0  0  0  1  0  0  0  0  0  0
  185.9570  176.7980  143.7320 O   0  0  0  0  0  0  0  0  0  0  0  0
  1  2  2  0  0  0  0
  2 42  1  0  0  0  0
  3 12  2  0  0  0  0
  4 11  2  0  0  0  0
  5 16  1  0  0  0  0
  6 13  1  0  0  0  0
  8  7  1  6  0  0  0
  8  3  1  0  0  0  0
  8 15  1  0  0  0  0
  9  4  1  0  0  0  0
  9  7  2  0  0  0  0
 10 15  1  0  0  0  0
 11 27  1  0  0  0  0
 11  3  1  0  0  0  0
 12  2  1  0  0  0  0
 13 21  1  6  0  0  0
 13  9  1  0  0  0  0
 14  6  1  0  0  0  0
 14  5  1  0  0  0  0
 15  1  1  0  0  0  0
 16 28  1  1  0  0  0
 16 17  1  0  0  0  0
 17  7  1  6  0  0  0
 17 10  1  0  0  0  0
 18 20  2  0  0  0  0
 18 21  1  0  0  0  0
 20 22  1  0  0  0  0
 21 19  2  0  0  0  0
 22 19  1  0  0  0  0
 23 25  1  0  0  0  0
 23 20  1  0  0  0  0
 24 25  1  0  0  0  0
 27 26  1  0  0  0  0
 29 30  1  0  0  0  0
 29 28  1  0  0  0  0
 30 31  1  0  0  0  0
 31 32  2  0  0  0  0
 34 33  1  6  0  0  0
 34 35  1  0  0  0  0
 35 38  1  1  0  0  0
 35 40  1  0  0  0  0
 36 31  1  0  0  0  0
 36 37  1  0  0  0  0
 37 41  1  6  0  0  0
 37 40  1  0  0  0  0
 39 34  1  0  0  0  0
 39 36  1  0  0  0  0
 42 43  1  0  0  0  0
 43 44  2  0  0  0  0
 44 46  1  0  0  0  0
 44 51  1  0  0  0  0
 46 45  1  6  0  0  0
 46 47  1  0  0  0  0
 47 48  1  0  0  0  0
 48 49  1  0  0  0  0
 48 50  2  0  0  0  0
 53 52  1  0  0  0  0
 53 51  1  0  0  0  0
 54 52  1  0  0  0  0
 55 53  2  0  0  0  0
M  END
>  <MODEL>
8

>  <REMARK>
 VINA RESULT:      -5.9      3.587      9.147
  Name = 
  15 active torsions:
  status: ('A' for Active; 'I' for Inactive)
    1  A    between atoms: C_1  and  C_32
    2  A    between atoms: C_4  and  C_43
    3  A    between atoms: N_7  and  O_31
    4  A    between atoms: C_9  and  O_31
    5  A    between atoms: C_17  and  C_22
    6  A    between atoms: C_17  and  C_33
    7  A    between atoms: C_20  and  C_52
    8  A    between atoms: C_20  and  N_53
    9  A    between atoms: C_23  and  C_33
   10  A    between atoms: C_23  and  C_43
   11  A    between atoms: C_26  and  C_27
   12  A    between atoms: C_27  and  N_45
   13  A    between atoms: C_29  and  C_46
   14  A    between atoms: C_32  and  N_53
   15  A    between atoms: C_38  and  O_54
                            x       y       z     vdW  Elec       q    Type
                         _______ _______ _______ _____ _____    ______ ____

>  <TORSDO>
F 15

$$$$
=
 OpenBabel10222417033D

 55 60  0  0  1  0  0  0  0  0999 V2000
  184.5110  178.6670  139.0410 C   0  0  0  0  0  3  0  0  0  0  0  0
  183.2460  178.5410  138.6270 C   0  0  0  0  0  0  0  0  0  0  0  0
  183.9460  177.5110  136.5140 C   0  0  0  0  0  0  0  0  0  0  0  0
  184.7260  175.7320  135.0710 C   0  0  0  0  0  3  0  0  0  0  0  0
  189.1200  176.7050  135.9710 C   0  0  0  0  0  2  0  0  0  0  0  0
  188.0960  174.5950  135.1020 C   0  0  0  0  0  2  0  0  0  0  0  0
  186.2580  176.7570  136.6680 C   0  0  0  0  0  0  0  0  0  0  0  0
  185.3710  177.9070  136.8100 C   0  0  2  0  0  3  0  0  0  0  0  0
  185.9810  175.7030  135.8770 C   0  0  0  0  0  0  0  0  0  0  0  0
  186.7460  177.7440  138.7370 O   0  0  0  0  0  0  0  0  0  0  0  0
  183.7390  176.5950  135.3620 C   0  0  0  0  0  0  0  0  0  0  0  0
  182.9580  177.8520  137.3490 C   0  0  0  0  0  3  0  0  0  0  0  0
  186.8360  174.4630  135.9450 C   0  0  1  0  0  3  0  0  0  0  0  0
  189.2270  175.1860  135.9290 C   0  0  0  0  0  2  0  0  0  0  0  0
  185.5880  178.2310  138.2030 N   0  0  0  0  0  0  0  0  0  0  0  0
  188.6280  177.2520  137.3210 C   0  0  1  0  0  3  0  0  0  0  0  0
  187.2350  176.7950  137.7950 C   0  0  2  0  0  3  0  0  0  0  0  0
  184.9690  172.8030  136.3050 N   0  0  0  0  0  0  0  0  0  0  0  0
  186.4310  172.2670  134.6990 C   0  0  0  0  0  3  0  0  0  0  0  0
  184.6670  171.6310  135.7150 C   0  0  0  0  0  0  0  0  0  0  0  0
  186.0820  173.1930  135.6600 C   0  0  0  0  0  0  0  0  0  0  0  0
  185.5270  171.2720  134.7390 N   0  0  0  0  0  2  0  0  0  0  0  0
  183.4730  170.8220  136.0850 C   0  0  0  0  0  2  0  0  0  0  0  0
  181.2400  170.7340  135.4100 C   0  0  0  0  0  1  0  0  0  0  0  0
  182.2710  171.6230  135.9210 N   0  0  0  0  0  2  0  0  0  0  0  0
  181.6000  175.5330  134.6880 C   0  0  0  0  0  1  0  0  0  0  0  0
  182.5690  176.5670  134.5960 O   0  0  0  0  0  0  0  0  0  0  0  0
  189.6880  177.1610  138.4190 C   0  0  0  0  0  2  0  0  0  0  0  0
  189.0810  176.9720  139.7280 N   0  0  0  0  0  2  0  0  0  0  0  0
  190.1660  176.9480  140.6970 C   0  0  0  0  0  2  0  0  0  0  0  0
  189.8750  177.8950  141.8180 C   0  0  0  0  0  0  0  0  0  0  0  0
  189.0700  178.8440  141.6190 O   0  0  0  0  0  0  0  0  0  0  0  0
  192.4070  174.9820  144.8230 C   0  0  0  0  0  1  0  0  0  0  0  0
  191.2560  175.9430  144.5850 C   0  0  1  0  0  3  0  0  0  0  0  0
  191.0900  176.9040  145.7680 C   0  0  2  0  0  3  0  0  0  0  0  0
  190.5060  177.7400  143.0990 N   0  0  0  0  0  0  0  0  0  0  0  0
  190.2090  178.6750  144.1840 C   0  0  1  0  0  3  0  0  0  0  0  0
  190.7380  176.1420  147.0330 C   0  0  0  0  0  1  0  0  0  0  0  0
  191.5350  176.7240  143.3040 C   0  0  0  0  0  2  0  0  0  0  0  0
  189.9730  177.9110  145.4860 C   0  0  0  0  0  2  0  0  0  0  0  0
  191.3330  179.6860  144.3410 C   0  0  0  0  0  1  0  0  0  0  0  0
  182.2150  179.0010  139.4450 O   0  0  0  0  0  0  0  0  0  0  0  0
  182.3530  179.0450  140.8160 N   0  0  0  0  0  0  0  0  0  0  0  0
  181.3810  178.7260  141.6150 C   0  0  0  0  0  0  0  0  0  0  0  0
  179.5270  177.2670  141.9120 O   0  0  0  0  0  1  0  0  0  0  0  0
  180.0380  178.2860  141.1060 C   0  0  2  0  0  3  0  0  0  0  0  0
  180.1390  177.8210  139.6600 C   0  0  0  0  0  2  0  0  0  0  0  0
  180.0230  176.3330  139.5540 C   0  0  0  0  0  0  0  0  0  0  0  0
  181.2470  175.4900  139.5740 C   0  0  0  0  0  1  0  0  0  0  0  0
  178.9310  175.8090  139.4200 O   0  0  0  0  0  0  0  0  0  0  0  0
  181.6080  178.7710  143.0860 C   0  0  0  0  0  2  0  0  0  0  0  0
  184.0490  178.1410  143.1680 N   0  0  0  0  0  2  0  0  0  0  0  0
  183.0270  179.1160  143.3810 C   0  0  0  0  0  0  0  0  0  0  0  0
  185.4370  178.3950  143.5150 C   0  0  0  0  0  1  0  0  0  0  0  0
  183.3070  180.2530  143.8420 O   0  0  0  0  0  0  0  0  0  0  0  0
  2  1  2  0  0  0  0
  2 42  1  0  0  0  0
  3 12  2  0  0  0  0
  4 11  2  0  0  0  0
  4  9  1  0  0  0  0
  5 16  1  0  0  0  0
  6 14  1  0  0  0  0
  6 13  1  0  0  0  0
  7  8  1  0  0  0  0
  8  3  1  1  0  0  0
  8 15  1  0  0  0  0
  9 13  1  0  0  0  0
  9  7  2  0  0  0  0
 11  3  1  0  0  0  0
 12  2  1  0  0  0  0
 13 21  1  6  0  0  0
 14  5  1  0  0  0  0
 15 10  1  0  0  0  0
 15  1  1  0  0  0  0
 16 17  1  0  0  0  0
 16 28  1  1  0  0  0
 17  7  1  6  0  0  0
 17 10  1  0  0  0  0
 19 22  1  0  0  0  0
 19 21  2  0  0  0  0
 20 23  1  0  0  0  0
 20 18  2  0  0  0  0
 21 18  1  0  0  0  0
 22 20  1  0  0  0  0
 24 25  1  0  0  0  0
 25 23  1  0  0  0  0
 27 26  1  0  0  0  0
 27 11  1  0  0  0  0
 28 29  1  0  0  0  0
 29 30  1  0  0  0  0
 30 31  1  0  0  0  0
 31 36  1  0  0  0  0
 32 31  2  0  0  0  0
 34 33  1  1  0  0  0
 34 35  1  0  0  0  0
 35 38  1  1  0  0  0
 36 39  1  0  0  0  0
 36 37  1  0  0  0  0
 37 41  1  1  0  0  0
 37 40  1  0  0  0  0
 39 34  1  0  0  0  0
 40 35  1  0  0  0  0
 42 43  1  0  0  0  0
 43 44  2  0  0  0  0
 44 51  1  0  0  0  0
 46 44  1  0  0  0  0
 46 45  1  1  0  0  0
 47 46  1  0  0  0  0
 48 49  1  0  0  0  0
 48 47  1  0  0  0  0
 50 48  2  0  0  0  0
 51 53  1  0  0  0  0
 52 53  1  0  0  0  0
 52 54  1  0  0  0  0
 53 55  2  0  0  0  0
M  END
>  <MODEL>
9

>  <REMARK>
 VINA RESULT:      -5.5      2.915      8.019
  Name = 
  15 active torsions:
  status: ('A' for Active; 'I' for Inactive)
    1  A    between atoms: C_1  and  C_32
    2  A    between atoms: C_4  and  C_43
    3  A    between atoms: N_7  and  O_31
    4  A    between atoms: C_9  and  O_31
    5  A    between atoms: C_17  and  C_22
    6  A    between atoms: C_17  and  C_33
    7  A    between atoms: C_20  and  C_52
    8  A    between atoms: C_20  and  N_53
    9  A    between atoms: C_23  and  C_33
   10  A    between atoms: C_23  and  C_43
   11  A    between atoms: C_26  and  C_27
   12  A    between atoms: C_27  and  N_45
   13  A    between atoms: C_29  and  C_46
   14  A    between atoms: C_32  and  N_53
   15  A    between atoms: C_38  and  O_54
                            x       y       z     vdW  Elec       q    Type
                         _______ _______ _______ _____ _____    ______ ____

>  <TORSDO>
F 15

$$$$
