=
 OpenBabel10222419503D

 50 55  0  0  1  0  0  0  0  0999 V2000
  183.1100  179.9870  138.7600 N   0  0  0  0  0  2  0  0  0  0  0  0
  186.3700  177.1990  137.6280 C   0  0  1  0  0  3  0  0  0  0  0  0
  182.0820  180.8360  138.2420 C   0  0  0  0  0  0  0  0  0  0  0  0
  182.0330  182.0420  138.5920 O   0  0  0  0  0  0  0  0  0  0  0  0
  182.9240  177.0260  136.7110 N   0  0  0  0  0  2  0  0  0  0  0  0
  186.5670  178.5750  142.0190 O   0  0  0  0  0  0  0  0  0  0  0  0
  185.6440  178.2830  138.4580 C   0  0  1  0  0  3  0  0  0  0  0  0
  181.5970  179.1010  136.5090 C   0  0  2  0  0  3  0  0  0  0  0  0
  182.1260  178.0080  137.4470 C   0  0  2  0  0  3  0  0  0  0  0  0
  183.1320  178.6070  138.3880 C   0  0  1  0  0  3  0  0  0  0  0  0
  187.6180  178.3680  140.0900 C   0  0  0  0  0  0  0  0  0  0  0  0
  188.4120  178.7310  137.7190 C   0  0  0  0  0  2  0  0  0  0  0  0
  184.0520  176.9140  137.3290 C   0  0  2  0  0  3  0  0  0  0  0  0
  181.0420  180.2870  137.3080 C   0  0  0  0  0  2  0  0  0  0  0  0
  188.7440  178.1780  139.1070 C   0  0  0  0  0  2  0  0  0  0  0  0
  185.6450  178.4850  141.0840 C   0  0  0  0  0  0  0  0  0  0  0  0
  187.7520  178.5000  141.4560 C   0  0  0  0  0  0  0  0  0  0  0  0
  184.2250  177.8670  138.3610 C   0  0  1  0  0  3  0  0  0  0  0  0
  186.2510  178.3300  139.8380 C   0  0  0  0  0  0  0  0  0  0  0  0
  185.3340  176.4940  136.7270 C   0  0  2  0  0  3  0  0  0  0  0  0
  185.4870  174.9910  136.8440 C   0  0  0  0  0  1  0  0  0  0  0  0
  187.5700  177.7650  136.8630 C   0  0  1  0  0  3  0  0  0  0  0  0
  189.2930  177.6960  143.1680 C   0  0  0  0  0  3  0  0  0  0  0  0
  189.0220  178.5520  142.1860 C   0  0  0  0  0  3  0  0  0  0  0  0
  190.5830  177.7140  143.9440 C   0  0  1  0  0  0  0  0  0  0  0  0
  191.3090  178.8320  143.5260 O   0  0  0  0  0  1  0  0  0  0  0  0
  190.3140  177.8550  145.4570 C   0  0  2  0  0  3  0  0  0  0  0  0
  191.2870  177.1740  146.1950 O   0  0  0  0  0  1  0  0  0  0  0  0
  188.9340  177.3640  145.8820 C   0  0  0  0  0  1  0  0  0  0  0  0
  190.6250  175.4560  143.0900 O   0  0  0  0  0  1  0  0  0  0  0  0
  191.4150  176.4580  143.6550 C   0  0  0  0  0  2  0  0  0  0  0  0
  184.2050  178.5420  141.3610 C   0  0  0  0  0  3  0  0  0  0  0  0
  183.7370  178.5010  142.6010 C   0  0  0  0  0  2  0  0  0  0  0  0
  180.5420  178.5550  135.5540 C   0  0  0  0  0  2  0  0  0  0  0  0
  179.4080  178.0780  136.2670 O   0  0  0  0  0  0  0  0  0  0  0  0
  178.9510  175.9410  135.2610 O   0  0  0  0  0  0  0  0  0  0  0  0
  179.0790  176.1750  137.5350 O   0  0  0  0  0  1  0  0  0  0  0  0
  179.1460  176.7140  136.3970 C   0  0  0  0  0  0  0  0  0  0  0  0
  188.4380  176.6270  136.3400 C   0  0  0  0  0  2  0  0  0  0  0  0
  188.7870  175.7250  137.4250 N   0  0  0  0  0  2  0  0  0  0  0  0
  190.4240  175.0100  135.2690 O   0  0  0  0  0  0  0  0  0  0  0  0
  190.0220  173.3650  137.2580 O   0  0  0  0  0  1  0  0  0  0  0  0
  190.2120  174.8310  136.9370 P   0  0  2  0  0  0  0  0  0  0  0  0
  191.6910  175.4570  137.7990 C   0  0  0  0  0  2  0  0  0  0  0  0
  193.8990  174.6570  137.9990 C   0  0  0  0  0  2  0  0  0  0  0  0
  194.6950  176.1650  135.6900 C   0  0  0  0  0  2  0  0  0  0  0  0
  195.2360  174.7400  135.8290 C   0  0  0  0  0  2  0  0  0  0  0  0
  195.2100  174.2790  137.2890 C   0  0  0  0  0  2  0  0  0  0  0  0
  193.3710  176.3670  136.4460 C   0  0  0  0  0  2  0  0  0  0  0  0
  192.8890  175.1210  137.0460 N   0  0  0  0  0  0  0  0  0  0  0  0
  2  7  1  0  0  0  0
  3  4  2  0  0  0  0
  3  1  1  0  0  0  0
  5 13  1  0  0  0  0
  5  9  1  0  0  0  0
  7 19  1  0  0  0  0
  8 14  1  0  0  0  0
  8  9  1  0  0  0  0
  9 10  1  0  0  0  0
 10  1  1  0  0  0  0
 11 17  2  0  0  0  0
 12 15  1  0  0  0  0
 13 18  1  0  0  0  0
 14  3  1  0  0  0  0
 15 11  1  0  0  0  0
 16 32  1  0  0  0  0
 16  6  1  0  0  0  0
 17  6  1  0  0  0  0
 17 24  1  0  0  0  0
 18 10  1  0  0  0  0
 18  7  1  0  0  0  0
 19 11  1  0  0  0  0
 19 16  2  0  0  0  0
 20 21  1  0  0  0  0
 20 13  1  0  0  0  0
 20  2  1  0  0  0  0
 22  2  1  0  0  0  0
 22 12  1  0  0  0  0
 23 25  1  0  0  0  0
 24 23  2  0  0  0  0
 25 27  1  0  0  0  0
 26 25  1  0  0  0  0
 27 29  1  0  0  0  0
 27 28  1  0  0  0  0
 30 31  1  0  0  0  0
 31 25  1  0  0  0  0
 32 33  2  0  0  0  0
 34 35  1  0  0  0  0
 34  8  1  0  0  0  0
 35 38  1  0  0  0  0
 36 38  2  0  0  0  0
 38 37  1  0  0  0  0
 39 22  1  0  0  0  0
 39 40  1  0  0  0  0
 41 43  2  0  0  0  0
 43 42  1  0  0  0  0
 43 40  1  0  0  0  0
 43 44  1  0  0  0  0
 46 47  1  0  0  0  0
 46 49  1  0  0  0  0
 47 48  1  0  0  0  0
 48 45  1  0  0  0  0
 49 50  1  0  0  0  0
 50 44  1  0  0  0  0
 50 45  1  0  0  0  0
M  END
>  <MODEL>
1

>  <REMARK>
 VINA RESULT:      -7.1      0.000      0.000
  Name = 
  13 active torsions:
  status: ('A' for Active; 'I' for Inactive)
    1  A    between atoms: C_1  and  C_12
    2  A    between atoms: C_1  and  C_13
    3  A    between atoms: C_1  and  C_19
    4  A    between atoms: O_8  and  C_37
    5  A    between atoms: O_8  and  C_38
    6  A    between atoms: C_15  and  N_48
    7  A    between atoms: C_15  and  P_49
    8  A    between atoms: C_17  and  C_37
    9  A    between atoms: C_20  and  C_40
   10  A    between atoms: N_23  and  C_47
   11  A    between atoms: N_23  and  P_49
   12  A    between atoms: C_29  and  C_39
   13  A    between atoms: C_45  and  C_47
                            x       y       z     vdW  Elec       q    Type
                         _______ _______ _______ _____ _____    ______ ____

>  <TORSDO>
F 13

$$$$
=
 OpenBabel10222419503D

 50 55  0  0  1  0  0  0  0  0999 V2000
  182.8560  180.3160  138.8290 N   0  0  0  0  0  2  0  0  0  0  0  0
  185.9960  177.4030  137.6750 C   0  0  1  0  0  3  0  0  0  0  0  0
  181.9210  181.2720  138.3200 C   0  0  0  0  0  0  0  0  0  0  0  0
  181.9280  182.4480  138.7630 O   0  0  0  0  0  0  0  0  0  0  0  0
  182.6140  177.5420  136.5380 N   0  0  0  0  0  2  0  0  0  0  0  0
  185.9900  178.4190  142.1670 O   0  0  0  0  0  0  0  0  0  0  0  0
  185.2880  178.4670  138.5440 C   0  0  1  0  0  3  0  0  0  0  0  0
  181.4410  179.7130  136.4250 C   0  0  2  0  0  3  0  0  0  0  0  0
  181.8340  178.5180  137.3010 C   0  0  2  0  0  3  0  0  0  0  0  0
  182.8120  178.9710  138.3480 C   0  0  1  0  0  3  0  0  0  0  0  0
  187.1510  178.2890  140.2950 C   0  0  0  0  0  0  0  0  0  0  0  0
  188.1230  178.7760  138.0150 C   0  0  0  0  0  2  0  0  0  0  0  0
  183.6890  177.3040  137.2130 C   0  0  2  0  0  3  0  0  0  0  0  0
  180.9120  180.8710  137.2820 C   0  0  0  0  0  2  0  0  0  0  0  0
  188.3250  178.0960  139.3710 C   0  0  0  0  0  2  0  0  0  0  0  0
  185.1280  178.4660  141.1740 C   0  0  0  0  0  0  0  0  0  0  0  0
  187.2020  178.3050  141.6730 C   0  0  0  0  0  0  0  0  0  0  0  0
  183.8550  178.1600  138.3280 C   0  0  1  0  0  3  0  0  0  0  0  0
  185.8030  178.3650  139.9590 C   0  0  0  0  0  0  0  0  0  0  0  0
  184.9790  176.8430  136.6580 C   0  0  2  0  0  3  0  0  0  0  0  0
  185.0260  175.3280  136.6620 C   0  0  0  0  0  1  0  0  0  0  0  0
  187.2780  177.9400  137.0330 C   0  0  1  0  0  3  0  0  0  0  0  0
  188.4270  177.5920  143.6590 C   0  0  0  0  0  3  0  0  0  0  0  0
  188.4210  178.2110  142.4810 C   0  0  0  0  0  3  0  0  0  0  0  0
  189.6560  177.4740  144.5220 C   0  0  1  0  0  0  0  0  0  0  0  0
  190.2540  178.7350  144.5750 O   0  0  0  0  0  1  0  0  0  0  0  0
  189.2820  177.0590  145.9600 C   0  0  2  0  0  3  0  0  0  0  0  0
  187.8940  177.0480  146.1240 O   0  0  0  0  0  1  0  0  0  0  0  0
  189.9020  177.9460  147.0340 C   0  0  0  0  0  1  0  0  0  0  0  0
  191.9400  177.0340  143.8770 O   0  0  0  0  0  1  0  0  0  0  0  0
  190.6590  176.4840  143.9150 C   0  0  0  0  0  2  0  0  0  0  0  0
  183.6800  178.6020  141.3660 C   0  0  0  0  0  3  0  0  0  0  0  0
  183.1310  178.5200  142.5710 C   0  0  0  0  0  2  0  0  0  0  0  0
  180.4190  179.3180  135.3670 C   0  0  0  0  0  2  0  0  0  0  0  0
  179.3340  178.6060  135.9470 O   0  0  0  0  0  0  0  0  0  0  0  0
  179.0000  176.4520  136.9650 O   0  0  0  0  0  1  0  0  0  0  0  0
  179.3230  176.6570  134.7080 O   0  0  0  0  0  0  0  0  0  0  0  0
  179.2210  177.2210  135.8310 C   0  0  0  0  0  0  0  0  0  0  0  0
  188.1030  176.7880  136.4740 C   0  0  0  0  0  2  0  0  0  0  0  0
  189.5160  177.1280  136.4920 N   0  0  0  0  0  2  0  0  0  0  0  0
  190.0310  174.7940  137.9510 O   0  0  0  0  0  1  0  0  0  0  0  0
  191.9060  175.9390  136.5370 O   0  0  0  0  0  0  0  0  0  0  0  0
  190.4240  175.6300  136.5350 P   0  0  2  0  0  0  0  0  0  0  0  0
  190.0190  174.5910  135.0940 C   0  0  0  0  0  2  0  0  0  0  0  0
  189.7480  172.3040  134.5940 C   0  0  0  0  0  2  0  0  0  0  0  0
  187.1190  172.3240  135.7460 C   0  0  0  0  0  2  0  0  0  0  0  0
  188.0160  171.1200  136.0430 C   0  0  0  0  0  2  0  0  0  0  0  0
  189.1010  170.9620  134.9740 C   0  0  0  0  0  2  0  0  0  0  0  0
  187.9260  173.5870  135.4000 C   0  0  0  0  0  2  0  0  0  0  0  0
  189.3690  173.3650  135.5280 N   0  0  0  0  0  0  0  0  0  0  0  0
  2  7  1  0  0  0  0
  3  4  2  0  0  0  0
  3  1  1  0  0  0  0
  5 13  1  0  0  0  0
  5  9  1  0  0  0  0
  7 19  1  0  0  0  0
  8 14  1  0  0  0  0
  8  9  1  0  0  0  0
  9 10  1  0  0  0  0
 10  1  1  0  0  0  0
 11 17  2  0  0  0  0
 12 15  1  0  0  0  0
 13 18  1  0  0  0  0
 14  3  1  0  0  0  0
 15 11  1  0  0  0  0
 16 32  1  0  0  0  0
 16  6  1  0  0  0  0
 17  6  1  0  0  0  0
 17 24  1  0  0  0  0
 18 10  1  0  0  0  0
 18  7  1  0  0  0  0
 19 11  1  0  0  0  0
 19 16  2  0  0  0  0
 20 21  1  0  0  0  0
 20 13  1  0  0  0  0
 20  2  1  0  0  0  0
 22  2  1  0  0  0  0
 22 12  1  0  0  0  0
 23 25  1  0  0  0  0
 24 23  2  0  0  0  0
 25 26  1  0  0  0  0
 25 27  1  0  0  0  0
 27 28  1  0  0  0  0
 27 29  1  0  0  0  0
 30 31  1  0  0  0  0
 31 25  1  0  0  0  0
 32 33  2  0  0  0  0
 34 35  1  0  0  0  0
 34  8  1  0  0  0  0
 37 38  2  0  0  0  0
 38 35  1  0  0  0  0
 38 36  1  0  0  0  0
 39 40  1  0  0  0  0
 39 22  1  0  0  0  0
 40 43  1  0  0  0  0
 43 42  2  0  0  0  0
 43 41  1  0  0  0  0
 44 50  1  0  0  0  0
 44 43  1  0  0  0  0
 45 48  1  0  0  0  0
 45 50  1  0  0  0  0
 46 47  1  0  0  0  0
 48 47  1  0  0  0  0
 49 50  1  0  0  0  0
 49 46  1  0  0  0  0
M  END
>  <MODEL>
2

>  <REMARK>
 VINA RESULT:      -6.1      1.948      2.688
  Name = 
  13 active torsions:
  status: ('A' for Active; 'I' for Inactive)
    1  A    between atoms: C_1  and  C_12
    2  A    between atoms: C_1  and  C_13
    3  A    between atoms: C_1  and  C_19
    4  A    between atoms: O_8  and  C_37
    5  A    between atoms: O_8  and  C_38
    6  A    between atoms: C_15  and  N_48
    7  A    between atoms: C_15  and  P_49
    8  A    between atoms: C_17  and  C_37
    9  A    between atoms: C_20  and  C_40
   10  A    between atoms: N_23  and  C_47
   11  A    between atoms: N_23  and  P_49
   12  A    between atoms: C_29  and  C_39
   13  A    between atoms: C_45  and  C_47
                            x       y       z     vdW  Elec       q    Type
                         _______ _______ _______ _____ _____    ______ ____

>  <TORSDO>
F 13

$$$$
=
 OpenBabel10222419503D

 50 55  0  0  1  0  0  0  0  0999 V2000
  185.7990  176.6460  137.6410 N   0  0  0  0  0  2  0  0  0  0  0  0
  188.6800  177.9240  140.7630 C   0  0  1  0  0  3  0  0  0  0  0  0
  184.4770  176.1470  137.4220 C   0  0  0  0  0  0  0  0  0  0  0  0
  184.3090  175.0970  136.7520 O   0  0  0  0  0  0  0  0  0  0  0  0
  185.3790  179.1610  140.1920 N   0  0  0  0  0  2  0  0  0  0  0  0
  190.6210  177.2080  136.6490 O   0  0  0  0  0  0  0  0  0  0  0  0
  188.2030  177.2940  139.4350 C   0  0  1  0  0  3  0  0  0  0  0  0
  183.6580  177.6750  139.2230 C   0  0  2  0  0  3  0  0  0  0  0  0
  184.8210  178.6350  138.9440 C   0  0  2  0  0  3  0  0  0  0  0  0
  185.9750  177.8630  138.3700 C   0  0  1  0  0  3  0  0  0  0  0  0
  190.6290  176.7560  138.8090 C   0  0  0  0  0  0  0  0  0  0  0  0
  190.0690  175.8040  141.0810 C   0  0  0  0  0  2  0  0  0  0  0  0
  186.6530  178.9570  140.1530 C   0  0  2  0  0  3  0  0  0  0  0  0
  183.2850  176.8850  137.9620 C   0  0  0  0  0  2  0  0  0  0  0  0
  191.1510  176.3980  140.1760 C   0  0  0  0  0  2  0  0  0  0  0  0
  189.4180  177.4810  137.1050 C   0  0  0  0  0  0  0  0  0  0  0  0
  191.3670  176.7820  137.6440 C   0  0  0  0  0  0  0  0  0  0  0  0
  187.0630  178.1610  139.0560 C   0  0  1  0  0  3  0  0  0  0  0  0
  189.3660  177.2350  138.4760 C   0  0  0  0  0  0  0  0  0  0  0  0
  187.5460  178.8110  141.3210 C   0  0  2  0  0  3  0  0  0  0  0  0
  188.0990  180.1660  141.7160 C   0  0  0  0  0  1  0  0  0  0  0  0
  189.1840  176.8710  141.7550 C   0  0  1  0  0  3  0  0  0  0  0  0
  193.1500  175.1200  137.5730 C   0  0  0  0  0  3  0  0  0  0  0  0
  192.7750  176.3940  137.5190 C   0  0  0  0  0  3  0  0  0  0  0  0
  194.5850  174.6770  137.4500 C   0  0  1  0  0  0  0  0  0  0  0  0
  195.3100  175.3210  138.4560 O   0  0  0  0  0  1  0  0  0  0  0  0
  194.7130  173.1540  137.6660 C   0  0  2  0  0  3  0  0  0  0  0  0
  195.3510  172.8810  138.8790 O   0  0  0  0  0  1  0  0  0  0  0  0
  195.4520  172.4360  136.5420 C   0  0  0  0  0  1  0  0  0  0  0  0
  196.2900  175.9000  136.2560 O   0  0  0  0  0  1  0  0  0  0  0  0
  195.1700  175.0840  136.0920 C   0  0  0  0  0  2  0  0  0  0  0  0
  188.3250  177.9720  136.2580 C   0  0  0  0  0  3  0  0  0  0  0  0
  188.1140  177.4770  135.0450 C   0  0  0  0  0  2  0  0  0  0  0  0
  182.4440  178.4140  139.7730 C   0  0  0  0  0  2  0  0  0  0  0  0
  182.3580  178.2710  141.1850 O   0  0  0  0  0  0  0  0  0  0  0  0
  179.9920  178.6720  141.3560 O   0  0  0  0  0  0  0  0  0  0  0  0
  181.4180  179.2670  143.0460 O   0  0  0  0  0  1  0  0  0  0  0  0
  181.2640  178.7530  141.9040 C   0  0  0  0  0  0  0  0  0  0  0  0
  189.9410  177.5470  142.8910 C   0  0  0  0  0  2  0  0  0  0  0  0
  190.2940  176.5700  143.9080 N   0  0  0  0  0  2  0  0  0  0  0  0
  190.4680  179.0760  145.1440 O   0  0  0  0  0  0  0  0  0  0  0  0
  191.6760  176.9910  146.1520 O   0  0  0  0  0  1  0  0  0  0  0  0
  190.4100  177.4120  145.4400 P   0  0  2  0  0  0  0  0  0  0  0  0
  188.9660  177.0400  146.4880 C   0  0  0  0  0  2  0  0  0  0  0  0
  186.9920  178.0260  147.3140 C   0  0  0  0  0  2  0  0  0  0  0  0
  185.8370  178.0030  144.6850 C   0  0  0  0  0  2  0  0  0  0  0  0
  185.6230  179.2510  145.5440 C   0  0  0  0  0  2  0  0  0  0  0  0
  185.7800  178.9320  147.0340 C   0  0  0  0  0  2  0  0  0  0  0  0
  187.1000  177.2230  145.0870 C   0  0  0  0  0  2  0  0  0  0  0  0
  187.8550  177.9100  146.1370 N   0  0  0  0  0  0  0  0  0  0  0  0
  1 10  1  0  0  0  0
  2 20  1  0  0  0  0
  2 22  1  0  0  0  0
  3  1  1  0  0  0  0
  3 14  1  0  0  0  0
  4  3  2  0  0  0  0
  6 16  1  0  0  0  0
  6 17  1  0  0  0  0
  7  2  1  0  0  0  0
  8 34  1  0  0  0  0
  9  8  1  0  0  0  0
  9  5  1  0  0  0  0
 10  9  1  0  0  0  0
 10 18  1  0  0  0  0
 11 15  1  0  0  0  0
 12 22  1  0  0  0  0
 13  5  1  0  0  0  0
 13 20  1  0  0  0  0
 14  8  1  0  0  0  0
 15 12  1  0  0  0  0
 16 19  2  0  0  0  0
 17 11  2  0  0  0  0
 18  7  1  0  0  0  0
 18 13  1  0  0  0  0
 19 11  1  0  0  0  0
 19  7  1  0  0  0  0
 20 21  1  0  0  0  0
 22 39  1  0  0  0  0
 24 23  2  0  0  0  0
 24 17  1  0  0  0  0
 25 23  1  0  0  0  0
 25 27  1  0  0  0  0
 25 26  1  0  0  0  0
 27 28  1  0  0  0  0
 29 27  1  0  0  0  0
 31 30  1  0  0  0  0
 31 25  1  0  0  0  0
 32 16  1  0  0  0  0
 33 32  2  0  0  0  0
 34 35  1  0  0  0  0
 35 38  1  0  0  0  0
 36 38  2  0  0  0  0
 38 37  1  0  0  0  0
 39 40  1  0  0  0  0
 40 43  1  0  0  0  0
 41 43  2  0  0  0  0
 43 42  1  0  0  0  0
 43 44  1  0  0  0  0
 46 49  1  0  0  0  0
 46 47  1  0  0  0  0
 47 48  1  0  0  0  0
 48 45  1  0  0  0  0
 49 50  1  0  0  0  0
 50 44  1  0  0  0  0
 50 45  1  0  0  0  0
M  END
>  <MODEL>
3

>  <REMARK>
 VINA RESULT:      -6.0      3.282      7.675
  Name = 
  13 active torsions:
  status: ('A' for Active; 'I' for Inactive)
    1  A    between atoms: C_1  and  C_12
    2  A    between atoms: C_1  and  C_13
    3  A    between atoms: C_1  and  C_19
    4  A    between atoms: O_8  and  C_37
    5  A    between atoms: O_8  and  C_38
    6  A    between atoms: C_15  and  N_48
    7  A    between atoms: C_15  and  P_49
    8  A    between atoms: C_17  and  C_37
    9  A    between atoms: C_20  and  C_40
   10  A    between atoms: N_23  and  C_47
   11  A    between atoms: N_23  and  P_49
   12  A    between atoms: C_29  and  C_39
   13  A    between atoms: C_45  and  C_47
                            x       y       z     vdW  Elec       q    Type
                         _______ _______ _______ _____ _____    ______ ____

>  <TORSDO>
F 13

$$$$
=
 OpenBabel10222419503D

 50 55  0  0  1  0  0  0  0  0999 V2000
  182.4800  180.7370  138.8820 N   0  0  0  0  0  2  0  0  0  0  0  0
  185.0530  177.3000  137.7690 C   0  0  1  0  0  3  0  0  0  0  0  0
  181.5700  181.7150  138.3700 C   0  0  0  0  0  0  0  0  0  0  0  0
  181.7730  182.9350  138.5920 O   0  0  0  0  0  0  0  0  0  0  0  0
  181.5530  177.6950  137.1830 N   0  0  0  0  0  2  0  0  0  0  0  0
  185.9560  178.9960  141.9550 O   0  0  0  0  0  0  0  0  0  0  0  0
  184.6240  178.5690  138.5400 C   0  0  1  0  0  3  0  0  0  0  0  0
  180.6020  179.9560  136.8800 C   0  0  2  0  0  3  0  0  0  0  0  0
  181.0250  178.8700  137.8780 C   0  0  2  0  0  3  0  0  0  0  0  0
  182.2160  179.3510  138.6580 C   0  0  1  0  0  3  0  0  0  0  0  0
  186.7430  178.4270  139.9730 C   0  0  0  0  0  0  0  0  0  0  0  0
  187.3330  178.4240  137.5170 C   0  0  0  0  0  2  0  0  0  0  0  0
  182.7030  177.4290  137.7070 C   0  0  2  0  0  3  0  0  0  0  0  0
  180.3550  181.2910  137.5940 C   0  0  0  0  0  2  0  0  0  0  0  0
  187.7070  177.9430  138.9210 C   0  0  0  0  0  2  0  0  0  0  0  0
  184.9390  178.9980  141.1200 C   0  0  0  0  0  0  0  0  0  0  0  0
  187.0430  178.6510  141.3010 C   0  0  0  0  0  0  0  0  0  0  0  0
  183.1510  178.4200  138.6130 C   0  0  1  0  0  3  0  0  0  0  0  0
  185.3720  178.6230  139.8490 C   0  0  0  0  0  0  0  0  0  0  0  0
  183.8190  176.7250  137.0430 C   0  0  2  0  0  3  0  0  0  0  0  0
  183.7140  175.2360  137.3050 C   0  0  0  0  0  1  0  0  0  0  0  0
  186.2470  177.5610  136.8450 C   0  0  1  0  0  3  0  0  0  0  0  0
  188.6050  177.6730  142.8980 C   0  0  0  0  0  3  0  0  0  0  0  0
  188.3720  178.5270  141.9060 C   0  0  0  0  0  3  0  0  0  0  0  0
  189.9540  177.5150  143.5500 C   0  0  1  0  0  0  0  0  0  0  0  0
  190.8390  178.3740  142.8950 O   0  0  0  0  0  1  0  0  0  0  0  0
  189.8990  177.9250  145.0370 C   0  0  2  0  0  3  0  0  0  0  0  0
  190.9730  177.3710  145.7390 O   0  0  0  0  0  1  0  0  0  0  0  0
  188.5980  177.5370  145.7320 C   0  0  0  0  0  1  0  0  0  0  0  0
  190.4700  175.6840  142.0630 O   0  0  0  0  0  1  0  0  0  0  0  0
  190.4700  176.0780  143.4010 C   0  0  0  0  0  2  0  0  0  0  0  0
  183.5700  179.3480  141.5150 C   0  0  0  0  0  3  0  0  0  0  0  0
  182.8590  178.5640  142.3150 C   0  0  0  0  0  2  0  0  0  0  0  0
  179.3730  179.5350  136.0850 C   0  0  0  0  0  2  0  0  0  0  0  0
  179.0240  180.5240  135.1250 O   0  0  0  0  0  0  0  0  0  0  0  0
  179.4380  182.8340  134.5940 O   0  0  0  0  0  0  0  0  0  0  0  0
  181.1350  181.2970  134.5940 O   0  0  0  0  0  1  0  0  0  0  0  0
  179.9100  181.5410  134.7670 C   0  0  0  0  0  0  0  0  0  0  0  0
  186.8380  176.2390  136.3720 C   0  0  0  0  0  2  0  0  0  0  0  0
  188.0750  176.4750  135.6460 N   0  0  0  0  0  2  0  0  0  0  0  0
  188.5230  173.7260  135.9370 O   0  0  0  0  0  0  0  0  0  0  0  0
  189.5690  175.4440  137.6040 O   0  0  0  0  0  1  0  0  0  0  0  0
  189.2260  175.2510  136.1430 P   0  0  2  0  0  0  0  0  0  0  0  0
  190.7440  175.3510  135.1400 C   0  0  0  0  0  2  0  0  0  0  0  0
  193.0220  175.9070  135.3800 C   0  0  0  0  0  2  0  0  0  0  0  0
  193.5280  173.4170  136.7160 C   0  0  0  0  0  2  0  0  0  0  0  0
  194.1990  174.6730  137.2770 C   0  0  0  0  0  2  0  0  0  0  0  0
  194.3100  175.7640  136.2080 C   0  0  0  0  0  2  0  0  0  0  0  0
  192.2440  173.7370  135.9320 C   0  0  0  0  0  2  0  0  0  0  0  0
  191.9140  175.1630  135.9830 N   0  0  0  0  0  0  0  0  0  0  0  0
  2  7  1  0  0  0  0
  3  4  2  0  0  0  0
  3  1  1  0  0  0  0
  5 13  1  0  0  0  0
  5  9  1  0  0  0  0
  7 18  1  0  0  0  0
  7 19  1  0  0  0  0
  8 14  1  0  0  0  0
  8  9  1  0  0  0  0
  9 10  1  0  0  0  0
 10  1  1  0  0  0  0
 11 17  2  0  0  0  0
 12 15  1  0  0  0  0
 13 18  1  0  0  0  0
 14  3  1  0  0  0  0
 15 11  1  0  0  0  0
 16 32  1  0  0  0  0
 16  6  1  0  0  0  0
 17 24  1  0  0  0  0
 17  6  1  0  0  0  0
 18 10  1  0  0  0  0
 19 11  1  0  0  0  0
 19 16  2  0  0  0  0
 20 21  1  0  0  0  0
 20 13  1  0  0  0  0
 20  2  1  0  0  0  0
 22 12  1  0  0  0  0
 22  2  1  0  0  0  0
 23 25  1  0  0  0  0
 24 23  2  0  0  0  0
 25 27  1  0  0  0  0
 26 25  1  0  0  0  0
 27 29  1  0  0  0  0
 27 28  1  0  0  0  0
 30 31  1  0  0  0  0
 31 25  1  0  0  0  0
 32 33  2  0  0  0  0
 34  8  1  0  0  0  0
 35 34  1  0  0  0  0
 36 38  2  0  0  0  0
 37 38  1  0  0  0  0
 38 35  1  0  0  0  0
 39 22  1  0  0  0  0
 40 43  1  0  0  0  0
 40 39  1  0  0  0  0
 41 43  2  0  0  0  0
 43 42  1  0  0  0  0
 44 50  1  0  0  0  0
 44 43  1  0  0  0  0
 45 50  1  0  0  0  0
 45 48  1  0  0  0  0
 46 47  1  0  0  0  0
 48 47  1  0  0  0  0
 49 50  1  0  0  0  0
 49 46  1  0  0  0  0
M  END
>  <MODEL>
4

>  <REMARK>
 VINA RESULT:      -5.9      1.608      2.137
  Name = 
  13 active torsions:
  status: ('A' for Active; 'I' for Inactive)
    1  A    between atoms: C_1  and  C_12
    2  A    between atoms: C_1  and  C_13
    3  A    between atoms: C_1  and  C_19
    4  A    between atoms: O_8  and  C_37
    5  A    between atoms: O_8  and  C_38
    6  A    between atoms: C_15  and  N_48
    7  A    between atoms: C_15  and  P_49
    8  A    between atoms: C_17  and  C_37
    9  A    between atoms: C_20  and  C_40
   10  A    between atoms: N_23  and  C_47
   11  A    between atoms: N_23  and  P_49
   12  A    between atoms: C_29  and  C_39
   13  A    between atoms: C_45  and  C_47
                            x       y       z     vdW  Elec       q    Type
                         _______ _______ _______ _____ _____    ______ ____

>  <TORSDO>
F 13

$$$$
=
 OpenBabel10222419503D

 50 55  0  0  1  0  0  0  0  0999 V2000
  186.8100  173.2890  135.9030 N   0  0  0  0  0  2  0  0  0  0  0  0
  188.3650  177.0530  137.6600 C   0  0  1  0  0  3  0  0  0  0  0  0
  185.6460  172.4690  135.7710 C   0  0  0  0  0  0  0  0  0  0  0  0
  185.6960  171.2550  136.0950 O   0  0  0  0  0  0  0  0  0  0  0  0
  185.5730  176.6490  135.4720 N   0  0  0  0  0  2  0  0  0  0  0  0
  191.6730  174.1860  136.2300 O   0  0  0  0  0  0  0  0  0  0  0  0
  188.3930  175.5820  137.1870 C   0  0  1  0  0  3  0  0  0  0  0  0
  184.2780  174.5440  135.5030 C   0  0  2  0  0  3  0  0  0  0  0  0
  185.5000  175.2840  134.9460 C   0  0  2  0  0  3  0  0  0  0  0  0
  186.7510  174.6570  135.4920 C   0  0  1  0  0  3  0  0  0  0  0  0
  190.8530  175.3960  137.8830 C   0  0  0  0  0  0  0  0  0  0  0  0
  189.4440  176.2080  139.8160 C   0  0  0  0  0  2  0  0  0  0  0  0
  186.7600  176.8060  135.9560 C   0  0  2  0  0  3  0  0  0  0  0  0
  184.3710  173.0400  135.2180 C   0  0  0  0  0  2  0  0  0  0  0  0
  190.8100  176.2450  139.1270 C   0  0  0  0  0  2  0  0  0  0  0  0
  190.3980  174.3840  135.9690 C   0  0  0  0  0  0  0  0  0  0  0  0
  191.9730  174.7850  137.3610 C   0  0  0  0  0  0  0  0  0  0  0  0
  187.5160  175.6100  135.9930 C   0  0  1  0  0  3  0  0  0  0  0  0
  189.8270  175.1650  136.9720 C   0  0  0  0  0  0  0  0  0  0  0  0
  187.1440  177.7510  137.0250 C   0  0  2  0  0  3  0  0  0  0  0  0
  187.5650  179.0730  136.4140 C   0  0  0  0  0  1  0  0  0  0  0  0
  188.4170  177.1700  139.1870 C   0  0  1  0  0  3  0  0  0  0  0  0
  194.3080  174.0860  137.4480 C   0  0  0  0  0  3  0  0  0  0  0  0
  193.3080  174.7930  137.9660 C   0  0  0  0  0  3  0  0  0  0  0  0
  195.6940  174.0640  138.0380 C   0  0  1  0  0  0  0  0  0  0  0  0
  196.1230  172.7340  138.0520 O   0  0  0  0  0  1  0  0  0  0  0  0
  196.6770  174.8750  137.1670 C   0  0  2  0  0  3  0  0  0  0  0  0
  195.9830  175.6450  136.2300 O   0  0  0  0  0  1  0  0  0  0  0  0
  197.7050  174.0140  136.4400 C   0  0  0  0  0  1  0  0  0  0  0  0
  196.8530  175.2980  139.7580 O   0  0  0  0  0  1  0  0  0  0  0  0
  195.6850  174.5890  139.4790 C   0  0  0  0  0  2  0  0  0  0  0  0
  189.7230  173.8440  134.7830 C   0  0  0  0  0  3  0  0  0  0  0  0
  189.5970  172.5370  134.5940 C   0  0  0  0  0  2  0  0  0  0  0  0
  182.9790  175.1170  134.9510 C   0  0  0  0  0  2  0  0  0  0  0  0
  181.8720  174.2940  135.2970 O   0  0  0  0  0  0  0  0  0  0  0  0
  180.3590  175.7370  136.4880 O   0  0  0  0  0  0  0  0  0  0  0  0
  181.0360  173.7390  137.3780 O   0  0  0  0  0  1  0  0  0  0  0  0
  181.0880  174.5580  136.4210 C   0  0  0  0  0  0  0  0  0  0  0  0
  188.7210  178.6070  139.5890 C   0  0  0  0  0  2  0  0  0  0  0  0
  188.6600  178.7460  141.0350 N   0  0  0  0  0  2  0  0  0  0  0  0
  186.0270  178.4360  140.1330 O   0  0  0  0  0  0  0  0  0  0  0  0
  186.6090  180.1400  142.0250 O   0  0  0  0  0  1  0  0  0  0  0  0
  186.9700  178.7690  141.4960 P   0  0  2  0  0  0  0  0  0  0  0  0
  186.6360  177.5140  142.7760 C   0  0  0  0  0  2  0  0  0  0  0  0
  188.5080  176.7410  143.9790 C   0  0  0  0  0  2  0  0  0  0  0  0
  187.3790  177.7110  146.4340 C   0  0  0  0  0  2  0  0  0  0  0  0
  188.8770  177.9280  146.2060 C   0  0  0  0  0  2  0  0  0  0  0  0
  189.4340  176.9230  145.1940 C   0  0  0  0  0  2  0  0  0  0  0  0
  186.6000  177.5660  145.1160 C   0  0  0  0  0  2  0  0  0  0  0  0
  187.4600  177.7620  143.9470 N   0  0  0  0  0  0  0  0  0  0  0  0
  2 22  1  0  0  0  0
  3  1  1  0  0  0  0
  3  4  2  0  0  0  0
  5 13  1  0  0  0  0
  6 17  1  0  0  0  0
  7  2  1  0  0  0  0
  9  5  1  0  0  0  0
  9 10  1  0  0  0  0
  9  8  1  0  0  0  0
 10  1  1  0  0  0  0
 10 18  1  0  0  0  0
 11 15  1  0  0  0  0
 13 18  1  0  0  0  0
 13 20  1  0  0  0  0
 14  8  1  0  0  0  0
 14  3  1  0  0  0  0
 15 12  1  0  0  0  0
 16  6  1  0  0  0  0
 16 19  2  0  0  0  0
 17 11  2  0  0  0  0
 17 24  1  0  0  0  0
 18  7  1  0  0  0  0
 19  7  1  0  0  0  0
 19 11  1  0  0  0  0
 20  2  1  0  0  0  0
 21 20  1  0  0  0  0
 22 39  1  0  0  0  0
 22 12  1  0  0  0  0
 23 24  2  0  0  0  0
 23 25  1  0  0  0  0
 25 26  1  0  0  0  0
 25 31  1  0  0  0  0
 27 25  1  0  0  0  0
 28 27  1  0  0  0  0
 29 27  1  0  0  0  0
 31 30  1  0  0  0  0
 32 16  1  0  0  0  0
 33 32  2  0  0  0  0
 34 35  1  0  0  0  0
 34  8  1  0  0  0  0
 35 38  1  0  0  0  0
 38 36  2  0  0  0  0
 38 37  1  0  0  0  0
 39 40  1  0  0  0  0
 40 43  1  0  0  0  0
 41 43  2  0  0  0  0
 43 42  1  0  0  0  0
 43 44  1  0  0  0  0
 44 50  1  0  0  0  0
 45 48  1  0  0  0  0
 47 46  1  0  0  0  0
 48 47  1  0  0  0  0
 49 46  1  0  0  0  0
 50 45  1  0  0  0  0
 50 49  1  0  0  0  0
M  END
>  <MODEL>
5

>  <REMARK>
 VINA RESULT:      -5.3      3.357      7.586
  Name = 
  13 active torsions:
  status: ('A' for Active; 'I' for Inactive)
    1  A    between atoms: C_1  and  C_12
    2  A    between atoms: C_1  and  C_13
    3  A    between atoms: C_1  and  C_19
    4  A    between atoms: O_8  and  C_37
    5  A    between atoms: O_8  and  C_38
    6  A    between atoms: C_15  and  N_48
    7  A    between atoms: C_15  and  P_49
    8  A    between atoms: C_17  and  C_37
    9  A    between atoms: C_20  and  C_40
   10  A    between atoms: N_23  and  C_47
   11  A    between atoms: N_23  and  P_49
   12  A    between atoms: C_29  and  C_39
   13  A    between atoms: C_45  and  C_47
                            x       y       z     vdW  Elec       q    Type
                         _______ _______ _______ _____ _____    ______ ____

>  <TORSDO>
F 13

$$$$
=
 OpenBabel10222419503D

 50 55  0  0  1  0  0  0  0  0999 V2000
  185.7570  174.9570  137.0570 N   0  0  0  0  0  2  0  0  0  0  0  0
  189.3230  177.2170  138.4190 C   0  0  1  0  0  3  0  0  0  0  0  0
  184.4050  174.6240  137.3810 C   0  0  0  0  0  0  0  0  0  0  0  0
  184.0510  173.4190  137.4290 O   0  0  0  0  0  0  0  0  0  0  0  0
  186.0220  178.4610  137.8640 N   0  0  0  0  0  2  0  0  0  0  0  0
  190.2360  174.1750  135.0840 O   0  0  0  0  0  0  0  0  0  0  0  0
  188.5310  176.0680  137.7540 C   0  0  1  0  0  3  0  0  0  0  0  0
  184.0760  176.9720  138.1770 C   0  0  2  0  0  3  0  0  0  0  0  0
  185.1740  177.4550  137.2220 C   0  0  2  0  0  3  0  0  0  0  0  0
  186.1370  176.3310  136.9650 C   0  0  1  0  0  3  0  0  0  0  0  0
  190.7270  174.9200  137.1020 C   0  0  0  0  0  0  0  0  0  0  0  0
  190.6770  175.3900  139.5840 C   0  0  0  0  0  2  0  0  0  0  0  0
  187.2460  178.0750  137.7170 C   0  0  2  0  0  3  0  0  0  0  0  0
  183.3950  175.7080  137.6350 C   0  0  0  0  0  2  0  0  0  0  0  0
  191.5400  175.2520  138.3270 C   0  0  0  0  0  2  0  0  0  0  0  0
  189.1800  174.8260  135.5240 C   0  0  0  0  0  0  0  0  0  0  0  0
  191.1770  174.2230  136.0000 C   0  0  0  0  0  0  0  0  0  0  0  0
  187.3640  176.7730  137.1740 C   0  0  1  0  0  3  0  0  0  0  0  0
  189.4390  175.3410  136.7930 C   0  0  0  0  0  0  0  0  0  0  0  0
  188.3790  178.4250  138.5980 C   0  0  2  0  0  3  0  0  0  0  0  0
  189.0530  179.6840  138.0910 C   0  0  0  0  0  1  0  0  0  0  0  0
  190.0070  176.7720  139.7160 C   0  0  1  0  0  3  0  0  0  0  0  0
  193.4960  173.9180  136.6910 C   0  0  0  0  0  3  0  0  0  0  0  0
  192.5040  173.6170  135.8590 C   0  0  0  0  0  3  0  0  0  0  0  0
  194.8740  173.3210  136.5810 C   0  0  1  0  0  0  0  0  0  0  0  0
  195.0570  172.9280  135.2530 O   0  0  0  0  0  1  0  0  0  0  0  0
  195.9570  174.3650  136.9250 C   0  0  2  0  0  3  0  0  0  0  0  0
  195.4940  175.2510  137.9010 O   0  0  0  0  0  1  0  0  0  0  0  0
  196.4440  175.1630  135.7200 C   0  0  0  0  0  1  0  0  0  0  0  0
  195.1020  172.4480  138.8200 O   0  0  0  0  0  1  0  0  0  0  0  0
  195.0090  172.0830  137.4770 C   0  0  0  0  0  2  0  0  0  0  0  0
  187.9380  174.9640  134.7550 C   0  0  0  0  0  3  0  0  0  0  0  0
  187.1050  173.9430  134.5980 C   0  0  0  0  0  2  0  0  0  0  0  0
  183.0470  178.0630  138.4440 C   0  0  0  0  0  2  0  0  0  0  0  0
  182.8240  178.2230  139.8390 O   0  0  0  0  0  0  0  0  0  0  0  0
  184.6320  179.7560  140.2500 O   0  0  0  0  0  0  0  0  0  0  0  0
  183.9770  178.2460  141.8410 O   0  0  0  0  0  1  0  0  0  0  0  0
  183.8140  178.7230  140.6860 C   0  0  0  0  0  0  0  0  0  0  0  0
  191.0280  177.8160  140.1500 C   0  0  0  0  0  2  0  0  0  0  0  0
  191.5680  177.4760  141.4560 N   0  0  0  0  0  2  0  0  0  0  0  0
  189.2170  178.9310  141.9000 O   0  0  0  0  0  0  0  0  0  0  0  0
  191.3450  179.3330  143.3610 O   0  0  0  0  0  1  0  0  0  0  0  0
  190.5590  178.2430  142.6650 P   0  0  2  0  0  0  0  0  0  0  0  0
  189.9880  177.0240  143.8940 C   0  0  0  0  0  2  0  0  0  0  0  0
  189.0470  177.1280  146.0520 C   0  0  0  0  0  2  0  0  0  0  0  0
  186.4160  177.3930  144.9330 C   0  0  0  0  0  2  0  0  0  0  0  0
  186.7680  178.2680  146.1390 C   0  0  0  0  0  2  0  0  0  0  0  0
  187.9160  177.6600  146.9490 C   0  0  0  0  0  2  0  0  0  0  0  0
  187.6600  176.9640  144.1370 C   0  0  0  0  0  2  0  0  0  0  0  0
  188.8840  177.5710  144.6660 N   0  0  0  0  0  0  0  0  0  0  0  0
  1  3  1  0  0  0  0
  2 20  1  0  0  0  0
  2 22  1  0  0  0  0
  3  4  2  0  0  0  0
  3 14  1  0  0  0  0
  6 16  1  0  0  0  0
  6 17  1  0  0  0  0
  7  2  1  0  0  0  0
  8 34  1  0  0  0  0
  9  5  1  0  0  0  0
  9  8  1  0  0  0  0
 10  1  1  0  0  0  0
 10 18  1  0  0  0  0
 10  9  1  0  0  0  0
 11 15  1  0  0  0  0
 12 22  1  0  0  0  0
 13  5  1  0  0  0  0
 13 20  1  0  0  0  0
 14  8  1  0  0  0  0
 15 12  1  0  0  0  0
 16 19  2  0  0  0  0
 17 11  2  0  0  0  0
 18 13  1  0  0  0  0
 18  7  1  0  0  0  0
 19 11  1  0  0  0  0
 19  7  1  0  0  0  0
 21 20  1  0  0  0  0
 22 39  1  0  0  0  0
 24 17  1  0  0  0  0
 24 23  2  0  0  0  0
 25 23  1  0  0  0  0
 25 27  1  0  0  0  0
 25 31  1  0  0  0  0
 26 25  1  0  0  0  0
 27 28  1  0  0  0  0
 29 27  1  0  0  0  0
 31 30  1  0  0  0  0
 32 16  1  0  0  0  0
 33 32  2  0  0  0  0
 34 35  1  0  0  0  0
 35 38  1  0  0  0  0
 36 38  2  0  0  0  0
 38 37  1  0  0  0  0
 39 40  1  0  0  0  0
 40 43  1  0  0  0  0
 41 43  2  0  0  0  0
 43 42  1  0  0  0  0
 43 44  1  0  0  0  0
 44 50  1  0  0  0  0
 45 48  1  0  0  0  0
 46 47  1  0  0  0  0
 47 48  1  0  0  0  0
 49 50  1  0  0  0  0
 49 46  1  0  0  0  0
 50 45  1  0  0  0  0
M  END
>  <MODEL>
6

>  <REMARK>
 VINA RESULT:      -5.3      2.849      7.625
  Name = 
  13 active torsions:
  status: ('A' for Active; 'I' for Inactive)
    1  A    between atoms: C_1  and  C_12
    2  A    between atoms: C_1  and  C_13
    3  A    between atoms: C_1  and  C_19
    4  A    between atoms: O_8  and  C_37
    5  A    between atoms: O_8  and  C_38
    6  A    between atoms: C_15  and  N_48
    7  A    between atoms: C_15  and  P_49
    8  A    between atoms: C_17  and  C_37
    9  A    between atoms: C_20  and  C_40
   10  A    between atoms: N_23  and  C_47
   11  A    between atoms: N_23  and  P_49
   12  A    between atoms: C_29  and  C_39
   13  A    between atoms: C_45  and  C_47
                            x       y       z     vdW  Elec       q    Type
                         _______ _______ _______ _____ _____    ______ ____

>  <TORSDO>
F 13

$$$$
=
 OpenBabel10222419503D

 50 55  0  0  1  0  0  0  0  0999 V2000
  187.0480  175.1890  136.6940 N   0  0  0  0  0  2  0  0  0  0  0  0
  189.5900  177.5570  139.4530 C   0  0  1  0  0  3  0  0  0  0  0  0
  185.8120  174.4780  136.5830 C   0  0  0  0  0  0  0  0  0  0  0  0
  185.8110  173.2850  136.1880 O   0  0  0  0  0  0  0  0  0  0  0  0
  186.1900  178.1630  138.5440 N   0  0  0  0  0  2  0  0  0  0  0  0
  191.8030  176.1400  135.6710 O   0  0  0  0  0  0  0  0  0  0  0  0
  189.2610  176.5670  138.3120 C   0  0  1  0  0  3  0  0  0  0  0  0
  184.7200  176.2710  137.9420 C   0  0  2  0  0  3  0  0  0  0  0  0
  185.7640  177.2830  137.4550 C   0  0  2  0  0  3  0  0  0  0  0  0
  187.0330  176.5580  137.1050 C   0  0  1  0  0  3  0  0  0  0  0  0
  191.7630  176.2270  137.8750 C   0  0  0  0  0  0  0  0  0  0  0  0
  191.2200  175.7820  140.3020 C   0  0  0  0  0  2  0  0  0  0  0  0
  187.4810  178.1300  138.5760 C   0  0  2  0  0  3  0  0  0  0  0  0
  184.5120  175.1580  136.9070 C   0  0  0  0  0  2  0  0  0  0  0  0
  192.2610  176.2820  139.2970 C   0  0  0  0  0  2  0  0  0  0  0  0
  190.5540  176.3500  136.0270 C   0  0  0  0  0  0  0  0  0  0  0  0
  192.5480  176.0710  136.7510 C   0  0  0  0  0  0  0  0  0  0  0  0
  188.0400  177.1560  137.7140 C   0  0  1  0  0  3  0  0  0  0  0  0
  190.4680  176.4360  137.4160 C   0  0  0  0  0  0  0  0  0  0  0  0
  188.3280  178.3910  139.7590 C   0  0  2  0  0  3  0  0  0  0  0  0
  188.6840  179.8630  139.8190 C   0  0  0  0  0  1  0  0  0  0  0  0
  190.1750  176.8510  140.6800 C   0  0  1  0  0  3  0  0  0  0  0  0
  194.5210  174.6500  136.9390 C   0  0  0  0  0  3  0  0  0  0  0  0
  193.9970  175.8580  136.7470 C   0  0  0  0  0  3  0  0  0  0  0  0
  196.0040  174.3870  136.9440 C   0  0  1  0  0  0  0  0  0  0  0  0
  196.6500  175.6190  136.8110 O   0  0  0  0  0  1  0  0  0  0  0  0
  196.4480  173.7540  138.2800 C   0  0  2  0  0  3  0  0  0  0  0  0
  195.3370  173.3980  139.0490 O   0  0  0  0  0  1  0  0  0  0  0  0
  197.3600  174.6520  139.1100 C   0  0  0  0  0  1  0  0  0  0  0  0
  195.7540  173.8930  134.5940 O   0  0  0  0  0  1  0  0  0  0  0  0
  196.4070  173.4960  135.7610 C   0  0  0  0  0  2  0  0  0  0  0  0
  189.4490  176.4710  135.0680 C   0  0  0  0  0  3  0  0  0  0  0  0
  189.0710  177.6500  134.5940 C   0  0  0  0  0  2  0  0  0  0  0  0
  183.3980  176.9490  138.2750 C   0  0  0  0  0  2  0  0  0  0  0  0
  183.1150  176.8570  139.6650 O   0  0  0  0  0  0  0  0  0  0  0  0
  184.2180  177.8530  141.5570 O   0  0  0  0  0  1  0  0  0  0  0  0
  182.6300  179.0020  140.3720 O   0  0  0  0  0  0  0  0  0  0  0  0
  183.2960  177.9420  140.5230 C   0  0  0  0  0  0  0  0  0  0  0  0
  190.7850  177.8760  141.6280 C   0  0  0  0  0  2  0  0  0  0  0  0
  191.5620  177.2060  142.6570 N   0  0  0  0  0  2  0  0  0  0  0  0
  190.7900  179.3830  144.2400 O   0  0  0  0  0  0  0  0  0  0  0  0
  191.8710  177.2570  145.3080 O   0  0  0  0  0  1  0  0  0  0  0  0
  190.9240  177.6970  144.2130 P   0  0  2  0  0  0  0  0  0  0  0  0
  189.2800  176.9620  144.4950 C   0  0  0  0  0  2  0  0  0  0  0  0
  188.8650  176.8790  146.8130 C   0  0  0  0  0  2  0  0  0  0  0  0
  186.3360  178.1880  146.4450 C   0  0  0  0  0  2  0  0  0  0  0  0
  187.1960  178.6240  147.6340 C   0  0  0  0  0  2  0  0  0  0  0  0
  188.1870  177.5260  148.0320 C   0  0  0  0  0  2  0  0  0  0  0  0
  187.1730  177.5780  145.3080 C   0  0  0  0  0  2  0  0  0  0  0  0
  188.6090  177.6420  145.5910 N   0  0  0  0  0  0  0  0  0  0  0  0
  1 10  1  0  0  0  0
  2 20  1  0  0  0  0
  2 22  1  0  0  0  0
  3  1  1  0  0  0  0
  3 14  1  0  0  0  0
  4  3  2  0  0  0  0
  5 13  1  0  0  0  0
  6 16  1  0  0  0  0
  6 17  1  0  0  0  0
  7  2  1  0  0  0  0
  8 34  1  0  0  0  0
  9  8  1  0  0  0  0
  9  5  1  0  0  0  0
 10  9  1  0  0  0  0
 10 18  1  0  0  0  0
 11 15  1  0  0  0  0
 12 22  1  0  0  0  0
 13 20  1  0  0  0  0
 14  8  1  0  0  0  0
 15 12  1  0  0  0  0
 16 19  2  0  0  0  0
 17 11  2  0  0  0  0
 18  7  1  0  0  0  0
 18 13  1  0  0  0  0
 19 11  1  0  0  0  0
 19  7  1  0  0  0  0
 20 21  1  0  0  0  0
 22 39  1  0  0  0  0
 23 25  1  0  0  0  0
 24 17  1  0  0  0  0
 24 23  2  0  0  0  0
 25 27  1  0  0  0  0
 26 25  1  0  0  0  0
 27 28  1  0  0  0  0
 27 29  1  0  0  0  0
 30 31  1  0  0  0  0
 31 25  1  0  0  0  0
 32 16  1  0  0  0  0
 33 32  2  0  0  0  0
 34 35  1  0  0  0  0
 35 38  1  0  0  0  0
 37 38  2  0  0  0  0
 38 36  1  0  0  0  0
 39 40  1  0  0  0  0
 40 43  1  0  0  0  0
 43 41  2  0  0  0  0
 43 44  1  0  0  0  0
 43 42  1  0  0  0  0
 44 50  1  0  0  0  0
 45 48  1  0  0  0  0
 46 47  1  0  0  0  0
 47 48  1  0  0  0  0
 49 50  1  0  0  0  0
 49 46  1  0  0  0  0
 50 45  1  0  0  0  0
M  END
>  <MODEL>
7

>  <REMARK>
 VINA RESULT:      -5.2      3.005      7.958
  Name = 
  13 active torsions:
  status: ('A' for Active; 'I' for Inactive)
    1  A    between atoms: C_1  and  C_12
    2  A    between atoms: C_1  and  C_13
    3  A    between atoms: C_1  and  C_19
    4  A    between atoms: O_8  and  C_37
    5  A    between atoms: O_8  and  C_38
    6  A    between atoms: C_15  and  N_48
    7  A    between atoms: C_15  and  P_49
    8  A    between atoms: C_17  and  C_37
    9  A    between atoms: C_20  and  C_40
   10  A    between atoms: N_23  and  C_47
   11  A    between atoms: N_23  and  P_49
   12  A    between atoms: C_29  and  C_39
   13  A    between atoms: C_45  and  C_47
                            x       y       z     vdW  Elec       q    Type
                         _______ _______ _______ _____ _____    ______ ____

>  <TORSDO>
F 13

$$$$
=
 OpenBabel10222419503D

 50 55  0  0  1  0  0  0  0  0999 V2000
  187.0910  177.1830  142.5250 N   0  0  0  0  0  2  0  0  0  0  0  0
  187.2300  177.8630  138.1440 C   0  0  1  0  0  3  0  0  0  0  0  0
  187.6440  176.4100  143.5940 C   0  0  0  0  0  0  0  0  0  0  0  0
  186.8810  175.7750  144.3660 O   0  0  0  0  0  0  0  0  0  0  0  0
  189.9370  178.0040  140.4690 N   0  0  0  0  0  2  0  0  0  0  0  0
  183.5540  179.7440  140.1830 O   0  0  0  0  0  0  0  0  0  0  0  0
  186.6000  177.7590  139.5520 C   0  0  1  0  0  3  0  0  0  0  0  0
  189.8860  176.6050  142.5050 C   0  0  2  0  0  3  0  0  0  0  0  0
  189.4580  177.9250  141.8500 C   0  0  2  0  0  3  0  0  0  0  0  0
  187.9660  177.9330  141.6800 C   0  0  1  0  0  3  0  0  0  0  0  0
  184.3200  178.4230  138.5900 C   0  0  0  0  0  0  0  0  0  0  0  0
  185.2650  176.4420  137.3400 C   0  0  0  0  0  2  0  0  0  0  0  0
  188.9170  178.2910  139.7300 C   0  0  2  0  0  3  0  0  0  0  0  0
  189.1290  176.3750  143.8190 C   0  0  0  0  0  2  0  0  0  0  0  0
  184.4030  177.7050  137.2680 C   0  0  0  0  0  2  0  0  0  0  0  0
  184.7570  179.3560  140.5480 C   0  0  0  0  0  0  0  0  0  0  0  0
  183.2700  179.2100  139.0160 C   0  0  0  0  0  0  0  0  0  0  0  0
  187.6870  178.2540  140.4300 C   0  0  1  0  0  3  0  0  0  0  0  0
  185.3050  178.5320  139.5660 C   0  0  0  0  0  0  0  0  0  0  0  0
  188.7630  177.9640  138.2980 C   0  0  2  0  0  3  0  0  0  0  0  0
  189.2910  179.1050  137.4510 C   0  0  0  0  0  1  0  0  0  0  0  0
  186.7760  176.7270  137.2230 C   0  0  1  0  0  3  0  0  0  0  0  0
  181.5280  180.6500  138.0990 C   0  0  0  0  0  3  0  0  0  0  0  0
  182.0180  179.4280  138.2870 C   0  0  0  0  0  3  0  0  0  0  0  0
  180.2450  180.9190  137.3570 C   0  0  1  0  0  0  0  0  0  0  0  0
  179.5820  179.6980  137.2110 O   0  0  0  0  0  1  0  0  0  0  0  0
  179.3320  181.8680  138.1610 C   0  0  2  0  0  3  0  0  0  0  0  0
  179.6710  183.2020  137.9160 O   0  0  0  0  0  1  0  0  0  0  0  0
  179.3590  181.6160  139.6650 C   0  0  0  0  0  1  0  0  0  0  0  0
  180.9740  180.4910  135.0950 O   0  0  0  0  0  1  0  0  0  0  0  0
  180.5270  181.4890  135.9610 C   0  0  0  0  0  2  0  0  0  0  0  0
  185.3890  179.7590  141.8100 C   0  0  0  0  0  3  0  0  0  0  0  0
  184.8870  179.3950  142.9820 C   0  0  0  0  0  2  0  0  0  0  0  0
  191.3910  176.5580  142.7360 C   0  0  0  0  0  2  0  0  0  0  0  0
  191.6890  176.3310  144.1080 O   0  0  0  0  0  0  0  0  0  0  0  0
  191.6960  178.6860  144.5980 O   0  0  0  0  0  0  0  0  0  0  0  0
  191.6940  177.1280  146.2760 O   0  0  0  0  0  1  0  0  0  0  0  0
  191.6910  177.3700  145.0380 C   0  0  0  0  0  0  0  0  0  0  0  0
  187.1440  177.0490  135.7800 C   0  0  0  0  0  2  0  0  0  0  0  0
  188.4960  176.5970  135.4950 N   0  0  0  0  0  2  0  0  0  0  0  0
  187.2980  174.2310  134.5960 O   0  0  0  0  0  0  0  0  0  0  0  0
  188.2270  174.4290  137.0290 O   0  0  0  0  0  1  0  0  0  0  0  0
  188.5080  174.8480  135.6030 P   0  0  2  0  0  0  0  0  0  0  0  0
  190.1210  174.1830  135.0780 C   0  0  0  0  0  2  0  0  0  0  0  0
  192.2860  175.0510  134.7380 C   0  0  0  0  0  2  0  0  0  0  0  0
  192.8900  174.7400  137.5270 C   0  0  0  0  0  2  0  0  0  0  0  0
  193.3580  176.0240  136.8370 C   0  0  0  0  0  2  0  0  0  0  0  0
  193.4780  175.8260  135.3240 C   0  0  0  0  0  2  0  0  0  0  0  0
  191.6790  174.1040  136.8240 C   0  0  0  0  0  2  0  0  0  0  0  0
  191.1990  174.9260  135.7110 N   0  0  0  0  0  0  0  0  0  0  0  0
  1  3  1  0  0  0  0
  2 20  1  0  0  0  0
  2  7  1  0  0  0  0
  3 14  1  0  0  0  0
  3  4  2  0  0  0  0
  5  9  1  0  0  0  0
  6 16  1  0  0  0  0
  7 19  1  0  0  0  0
  7 18  1  0  0  0  0
  8 34  1  0  0  0  0
  8 14  1  0  0  0  0
  9  8  1  0  0  0  0
 10  9  1  0  0  0  0
 10  1  1  0  0  0  0
 11 17  2  0  0  0  0
 11 19  1  0  0  0  0
 13 18  1  0  0  0  0
 13  5  1  0  0  0  0
 15 12  1  0  0  0  0
 15 11  1  0  0  0  0
 16 32  1  0  0  0  0
 17  6  1  0  0  0  0
 18 10  1  0  0  0  0
 19 16  2  0  0  0  0
 20 13  1  0  0  0  0
 21 20  1  0  0  0  0
 22 12  1  0  0  0  0
 22  2  1  0  0  0  0
 23 24  2  0  0  0  0
 24 17  1  0  0  0  0
 25 23  1  0  0  0  0
 25 27  1  0  0  0  0
 26 25  1  0  0  0  0
 27 29  1  0  0  0  0
 28 27  1  0  0  0  0
 30 31  1  0  0  0  0
 31 25  1  0  0  0  0
 32 33  2  0  0  0  0
 34 35  1  0  0  0  0
 35 38  1  0  0  0  0
 36 38  2  0  0  0  0
 38 37  1  0  0  0  0
 39 22  1  0  0  0  0
 40 43  1  0  0  0  0
 40 39  1  0  0  0  0
 41 43  2  0  0  0  0
 43 42  1  0  0  0  0
 44 43  1  0  0  0  0
 44 50  1  0  0  0  0
 45 48  1  0  0  0  0
 45 50  1  0  0  0  0
 47 46  1  0  0  0  0
 48 47  1  0  0  0  0
 49 46  1  0  0  0  0
 50 49  1  0  0  0  0
M  END
>  <MODEL>
8

>  <REMARK>
 VINA RESULT:      -5.1      2.192      8.349
  Name = 
  13 active torsions:
  status: ('A' for Active; 'I' for Inactive)
    1  A    between atoms: C_1  and  C_12
    2  A    between atoms: C_1  and  C_13
    3  A    between atoms: C_1  and  C_19
    4  A    between atoms: O_8  and  C_37
    5  A    between atoms: O_8  and  C_38
    6  A    between atoms: C_15  and  N_48
    7  A    between atoms: C_15  and  P_49
    8  A    between atoms: C_17  and  C_37
    9  A    between atoms: C_20  and  C_40
   10  A    between atoms: N_23  and  C_47
   11  A    between atoms: N_23  and  P_49
   12  A    between atoms: C_29  and  C_39
   13  A    between atoms: C_45  and  C_47
                            x       y       z     vdW  Elec       q    Type
                         _______ _______ _______ _____ _____    ______ ____

>  <TORSDO>
F 13

$$$$
=
 OpenBabel10222419503D

 50 55  0  0  1  0  0  0  0  0999 V2000
  187.6460  173.5210  136.5450 N   0  0  0  0  0  2  0  0  0  0  0  0
  189.3910  177.0860  138.5250 C   0  0  1  0  0  3  0  0  0  0  0  0
  186.5190  172.6400  136.5320 C   0  0  0  0  0  0  0  0  0  0  0  0
  186.6940  171.4000  136.6330 O   0  0  0  0  0  0  0  0  0  0  0  0
  186.1980  176.7980  136.9530 N   0  0  0  0  0  2  0  0  0  0  0  0
  192.4140  174.7400  135.9630 O   0  0  0  0  0  0  0  0  0  0  0  0
  189.3760  175.7110  137.8200 C   0  0  1  0  0  3  0  0  0  0  0  0
  185.0370  174.6180  136.9130 C   0  0  2  0  0  3  0  0  0  0  0  0
  186.0690  175.5280  136.2360 C   0  0  2  0  0  3  0  0  0  0  0  0
  187.4370  174.9260  136.3890 C   0  0  1  0  0  3  0  0  0  0  0  0
  191.9340  175.6170  137.9300 C   0  0  0  0  0  0  0  0  0  0  0  0
  190.9630  176.0110  140.2280 C   0  0  0  0  0  2  0  0  0  0  0  0
  187.4550  176.9740  137.1890 C   0  0  2  0  0  3  0  0  0  0  0  0
  185.1280  173.1860  136.3690 C   0  0  0  0  0  2  0  0  0  0  0  0
  192.1360  176.2600  139.2770 C   0  0  0  0  0  2  0  0  0  0  0  0
  191.1060  174.8740  136.0180 C   0  0  0  0  0  0  0  0  0  0  0  0
  192.9340  175.1820  137.0850 C   0  0  0  0  0  0  0  0  0  0  0  0
  188.2520  175.8500  136.8640 C   0  0  1  0  0  3  0  0  0  0  0  0
  190.7420  175.4460  137.2360 C   0  0  0  0  0  0  0  0  0  0  0  0
  188.0290  177.7730  138.2920 C   0  0  2  0  0  3  0  0  0  0  0  0
  188.2440  179.2010  137.8330 C   0  0  0  0  0  1  0  0  0  0  0  0
  189.7800  176.9730  140.0030 C   0  0  1  0  0  3  0  0  0  0  0  0
  195.1290  174.1250  137.2110 C   0  0  0  0  0  3  0  0  0  0  0  0
  194.3690  175.2040  137.3820 C   0  0  0  0  0  3  0  0  0  0  0  0
  196.6060  174.1030  137.5050 C   0  0  1  0  0  0  0  0  0  0  0  0
  196.8250  174.9180  138.6180 O   0  0  0  0  0  1  0  0  0  0  0  0
  197.0770  172.6760  137.8550 C   0  0  2  0  0  3  0  0  0  0  0  0
  198.2890  172.3880  137.2210 O   0  0  0  0  0  1  0  0  0  0  0  0
  196.0630  171.5920  137.5040 C   0  0  0  0  0  1  0  0  0  0  0  0
  198.5140  175.3880  136.7720 O   0  0  0  0  0  1  0  0  0  0  0  0
  197.4090  174.6650  136.3240 C   0  0  0  0  0  2  0  0  0  0  0  0
  190.2050  174.4680  134.9330 C   0  0  0  0  0  3  0  0  0  0  0  0
  190.0590  173.1940  134.5950 C   0  0  0  0  0  2  0  0  0  0  0  0
  183.6230  175.1630  136.7560 C   0  0  0  0  0  2  0  0  0  0  0  0
  182.8300  174.8580  137.8960 O   0  0  0  0  0  0  0  0  0  0  0  0
  181.2650  176.4360  138.8170 O   0  0  0  0  0  1  0  0  0  0  0  0
  180.5700  174.7520  137.4320 O   0  0  0  0  0  0  0  0  0  0  0  0
  181.5220  175.3270  138.0240 C   0  0  0  0  0  0  0  0  0  0  0  0
  190.1040  178.3520  140.5620 C   0  0  0  0  0  2  0  0  0  0  0  0
  189.3390  178.5930  141.7750 N   0  0  0  0  0  2  0  0  0  0  0  0
  190.5610  179.6550  144.0600 O   0  0  0  0  0  1  0  0  0  0  0  0
  191.7390  177.8050  142.6400 O   0  0  0  0  0  0  0  0  0  0  0  0
  190.3810  178.2470  143.1400 P   0  0  2  0  0  0  0  0  0  0  0  0
  189.6600  176.9380  144.1840 C   0  0  0  0  0  2  0  0  0  0  0  0
  189.2220  176.8950  146.4990 C   0  0  0  0  0  2  0  0  0  0  0  0
  186.4930  177.6550  146.0360 C   0  0  0  0  0  2  0  0  0  0  0  0
  187.2250  178.3150  147.2070 C   0  0  0  0  0  2  0  0  0  0  0  0
  188.4050  177.4580  147.6740 C   0  0  0  0  0  2  0  0  0  0  0  0
  187.4560  177.1650  144.9420 C   0  0  0  0  0  2  0  0  0  0  0  0
  188.8450  177.5280  145.2340 N   0  0  0  0  0  0  0  0  0  0  0  0
  2 22  1  0  0  0  0
  3  1  1  0  0  0  0
  3  4  2  0  0  0  0
  5 13  1  0  0  0  0
  6 16  1  0  0  0  0
  6 17  1  0  0  0  0
  7  2  1  0  0  0  0
  9 10  1  0  0  0  0
  9  8  1  0  0  0  0
  9  5  1  0  0  0  0
 10  1  1  0  0  0  0
 10 18  1  0  0  0  0
 11 15  1  0  0  0  0
 13 20  1  0  0  0  0
 14  3  1  0  0  0  0
 14  8  1  0  0  0  0
 15 12  1  0  0  0  0
 16 19  2  0  0  0  0
 17 24  1  0  0  0  0
 17 11  2  0  0  0  0
 18 13  1  0  0  0  0
 18  7  1  0  0  0  0
 19  7  1  0  0  0  0
 19 11  1  0  0  0  0
 20  2  1  0  0  0  0
 21 20  1  0  0  0  0
 22 12  1  0  0  0  0
 22 39  1  0  0  0  0
 23 24  2  0  0  0  0
 23 25  1  0  0  0  0
 25 27  1  0  0  0  0
 25 26  1  0  0  0  0
 28 27  1  0  0  0  0
 29 27  1  0  0  0  0
 31 30  1  0  0  0  0
 31 25  1  0  0  0  0
 32 16  1  0  0  0  0
 33 32  2  0  0  0  0
 34  8  1  0  0  0  0
 34 35  1  0  0  0  0
 35 38  1  0  0  0  0
 37 38  2  0  0  0  0
 38 36  1  0  0  0  0
 39 40  1  0  0  0  0
 40 43  1  0  0  0  0
 42 43  2  0  0  0  0
 43 41  1  0  0  0  0
 43 44  1  0  0  0  0
 44 50  1  0  0  0  0
 45 48  1  0  0  0  0
 46 47  1  0  0  0  0
 47 48  1  0  0  0  0
 49 50  1  0  0  0  0
 49 46  1  0  0  0  0
 50 45  1  0  0  0  0
M  END
>  <MODEL>
9

>  <REMARK>
 VINA RESULT:      -5.1      3.240      8.103
  Name = 
  13 active torsions:
  status: ('A' for Active; 'I' for Inactive)
    1  A    between atoms: C_1  and  C_12
    2  A    between atoms: C_1  and  C_13
    3  A    between atoms: C_1  and  C_19
    4  A    between atoms: O_8  and  C_37
    5  A    between atoms: O_8  and  C_38
    6  A    between atoms: C_15  and  N_48
    7  A    between atoms: C_15  and  P_49
    8  A    between atoms: C_17  and  C_37
    9  A    between atoms: C_20  and  C_40
   10  A    between atoms: N_23  and  C_47
   11  A    between atoms: N_23  and  P_49
   12  A    between atoms: C_29  and  C_39
   13  A    between atoms: C_45  and  C_47
                            x       y       z     vdW  Elec       q    Type
                         _______ _______ _______ _____ _____    ______ ____

>  <TORSDO>
F 13

$$$$
