=
 OpenBabel10222417213D

 43 46  0  0  1  0  0  0  0  0999 V2000
  187.1320  175.8060  136.6030 C   0  0  2  0  0  3  0  0  0  0  0  0
  189.4840  175.5200  136.4440 N   0  0  0  0  0  0  0  0  0  0  0  0
  186.2160  173.4940  137.3640 C   0  0  0  0  0  2  0  0  0  0  0  0
  183.4300  174.4150  136.8330 C   0  0  0  0  0  2  0  0  0  0  0  0
  183.6470  172.2120  136.7730 C   0  0  0  0  0  2  0  0  0  0  0  0
  183.9930  177.4240  137.6140 C   0  0  1  0  0  3  0  0  0  0  0  0
  184.9570  171.6180  136.2530 C   0  0  0  0  0  2  0  0  0  0  0  0
  188.7670  177.5860  137.5740 C   0  0  2  0  0  3  0  0  0  0  0  0
  188.3420  175.0090  136.4830 N   0  0  0  0  0  0  0  0  0  0  0  0
  187.3830  177.0110  137.4790 C   0  0  0  0  0  0  0  0  0  0  0  0
  183.1070  176.9070  135.3740 O   0  0  0  0  0  1  0  0  0  0  0  0
  189.4510  177.7110  134.9380 Cl  0  0  0  0  0  0  0  0  0  0  0  0
  189.7000  176.9530  136.5320 C   0  0  2  0  0  3  0  0  0  0  0  0
  185.9160  174.9840  137.1170 C   0  0  2  0  0  3  0  0  0  0  0  0
  184.1990  176.7460  136.2330 C   0  0  2  0  0  3  0  0  0  0  0  0
  184.6010  175.2590  136.3270 C   0  0  2  0  0  3  0  0  0  0  0  0
  185.1790  178.2730  137.9600 C   0  0  0  0  0  3  0  0  0  0  0  0
  186.0630  172.6620  136.0980 C   0  0  0  0  0  2  0  0  0  0  0  0
  183.2570  173.3060  135.9990 O   0  0  0  0  0  0  0  0  0  0  0  0
  186.3510  177.7380  137.7870 C   0  0  0  0  0  0  0  0  0  0  0  0
  189.3180  177.4530  138.9620 C   0  0  0  0  0  0  0  0  0  0  0  0
  189.0240  177.4010  141.3700 C   0  0  0  0  0  3  0  0  0  0  0  0
  191.2330  177.1460  140.4160 C   0  0  0  0  0  3  0  0  0  0  0  0
  190.4030  177.2110  141.5400 C   0  0  0  0  0  0  0  0  0  0  0  0
  190.6940  177.2670  139.1330 C   0  0  0  0  0  3  0  0  0  0  0  0
  188.4840  177.5230  140.0880 C   0  0  0  0  0  3  0  0  0  0  0  0
  191.5560  178.1790  143.5030 C   0  0  0  0  0  1  0  0  0  0  0  0
  190.9750  177.0840  142.8080 O   0  0  0  0  0  0  0  0  0  0  0  0
  182.7210  178.2580  137.7350 C   0  0  0  0  0  2  0  0  0  0  0  0
  182.0360  178.0340  139.0760 C   0  0  0  0  0  2  0  0  0  0  0  0
  182.3480  179.1700  140.0340 C   0  0  0  0  0  2  0  0  0  0  0  0
  182.2760  178.6580  141.4580 C   0  0  0  0  0  2  0  0  0  0  0  0
  183.6060  178.8680  142.1670 C   0  0  2  0  0  3  0  0  0  0  0  0
  184.5980  178.2150  141.4350 O   0  0  0  0  0  1  0  0  0  0  0  0
  182.2520  178.4240  144.1050 O   0  0  0  0  0  1  0  0  0  0  0  0
  183.5560  178.3260  143.6070 C   0  0  2  0  0  3  0  0  0  0  0  0
  184.5360  179.0350  144.5650 C   0  0  0  0  0  0  0  0  0  0  0  0
  183.8880  179.3000  145.7770 O   0  0  0  0  0  1  0  0  0  0  0  0
  184.9620  180.2450  144.0110 O   0  0  0  0  0  1  0  0  0  0  0  0
  185.7500  178.1650  144.8110 C   0  0  0  0  0  0  0  0  0  0  0  0
  186.5630  177.9580  143.8710 O   0  0  0  0  0  0  0  0  0  0  0  0
  187.2680  177.7080  146.7220 C   0  0  0  0  0  1  0  0  0  0  0  0
  186.0180  177.5880  146.0580 O   0  0  0  0  0  0  0  0  0  0  0  0
  1  9  1  1  0  0  0
  1 14  1  0  0  0  0
  1 10  1  0  0  0  0
  2  9  2  0  0  0  0
  2 13  1  0  0  0  0
  6 29  1  6  0  0  0
  6 17  1  0  0  0  0
  7  5  1  0  0  0  0
  8 21  1  1  0  0  0
 10  8  1  0  0  0  0
 10 20  2  0  0  0  0
 13 12  1  6  0  0  0
 13  8  1  0  0  0  0
 14  3  1  6  0  0  0
 15 11  1  6  0  0  0
 15 16  1  0  0  0  0
 15  6  1  0  0  0  0
 16  4  1  1  0  0  0
 16 14  1  0  0  0  0
 18  7  1  0  0  0  0
 18  3  1  0  0  0  0
 19  5  1  0  0  0  0
 19  4  1  0  0  0  0
 20 17  2  0  0  0  0
 21 25  2  0  0  0  0
 21 26  1  0  0  0  0
 22 24  1  0  0  0  0
 23 24  2  0  0  0  0
 24 28  1  0  0  0  0
 25 23  1  0  0  0  0
 26 22  2  0  0  0  0
 28 27  1  0  0  0  0
 29 30  1  0  0  0  0
 30 31  1  0  0  0  0
 31 32  1  0  0  0  0
 32 33  1  0  0  0  0
 33 34  1  6  0  0  0
 33 36  1  0  0  0  0
 36 35  1  1  0  0  0
 36 37  1  0  0  0  0
 37 40  1  0  0  0  0
 37 38  1  0  0  0  0
 39 37  1  0  0  0  0
 40 43  1  0  0  0  0
 41 40  2  0  0  0  0
 43 42  1  0  0  0  0
M  END
>  <MODEL>
1

>  <REMARK>
 VINA RESULT:      -7.2      0.000      0.000
  Name = 
  11 active torsions:
  status: ('A' for Active; 'I' for Inactive)
    1  A    between atoms: C_1  and  C_25
    2  A    between atoms: C_1  and  C_39
    3  A    between atoms: C_2  and  C_16
    4  A    between atoms: C_2  and  O_18
    5  A    between atoms: C_4  and  C_14
    6  A    between atoms: C_11  and  C_30
    7  A    between atoms: C_16  and  C_39
    8  A    between atoms: C_22  and  O_32
    9  A    between atoms: C_25  and  C_27
   10  A    between atoms: C_27  and  C_41
   11  A    between atoms: C_30  and  C_41
                            x       y       z     vdW  Elec       q    Type
                         _______ _______ _______ _____ _____    ______ ____

>  <TORSDO>
F 11

$$$$
=
 OpenBabel10222417213D

 43 46  0  0  1  0  0  0  0  0999 V2000
  183.6200  176.3780  138.3980 C   0  0  2  0  0  3  0  0  0  0  0  0
  181.7870  176.9680  139.7890 N   0  0  0  0  0  0  0  0  0  0  0  0
  182.6150  174.8200  136.5750 C   0  0  0  0  0  2  0  0  0  0  0  0
  185.3620  174.1170  135.6520 C   0  0  0  0  0  2  0  0  0  0  0  0
  183.8500  172.5830  135.1360 C   0  0  0  0  0  2  0  0  0  0  0  0
  186.5990  176.9450  136.3250 C   0  0  1  0  0  3  0  0  0  0  0  0
  182.6860  172.3480  136.1010 C   0  0  0  0  0  2  0  0  0  0  0  0
  183.2580  178.8400  139.1650 C   0  0  2  0  0  3  0  0  0  0  0  0
  182.2830  176.1930  138.9390 N   0  0  0  0  0  0  0  0  0  0  0  0
  183.9290  177.8500  138.2580 C   0  0  0  0  0  0  0  0  0  0  0  0
  187.5820  174.9270  137.3410 O   0  0  0  0  0  1  0  0  0  0  0  0
  183.6240  177.6450  141.5880 Cl  0  0  0  0  0  0  0  0  0  0  0  0
  182.4980  178.1290  140.2930 C   0  0  2  0  0  3  0  0  0  0  0  0
  183.8340  175.6300  137.0520 C   0  0  2  0  0  3  0  0  0  0  0  0
  186.4370  175.7270  137.2750 C   0  0  2  0  0  3  0  0  0  0  0  0
  185.1910  174.8690  136.9730 C   0  0  2  0  0  3  0  0  0  0  0  0
  186.1670  178.2050  137.0140 C   0  0  0  0  0  3  0  0  0  0  0  0
  182.5820  173.4230  137.1820 C   0  0  0  0  0  2  0  0  0  0  0  0
  185.0430  172.7680  135.8350 O   0  0  0  0  0  0  0  0  0  0  0  0
  185.0370  178.1620  137.6560 C   0  0  0  0  0  0  0  0  0  0  0  0
  182.3650  179.7660  138.3950 C   0  0  0  0  0  0  0  0  0  0  0  0
  180.8160  180.2040  136.5790 C   0  0  0  0  0  3  0  0  0  0  0  0
  181.4460  181.9880  138.0880 C   0  0  0  0  0  3  0  0  0  0  0  0
  180.7160  181.5450  136.9810 C   0  0  0  0  0  0  0  0  0  0  0  0
  182.2680  181.1040  138.7920 C   0  0  0  0  0  3  0  0  0  0  0  0
  181.6370  179.3200  137.2820 C   0  0  0  0  0  3  0  0  0  0  0  0
  178.9310  183.2570  136.9580 C   0  0  0  0  0  1  0  0  0  0  0  0
  179.9030  182.4550  136.3010 O   0  0  0  0  0  0  0  0  0  0  0  0
  188.0030  177.1340  135.7580 C   0  0  0  0  0  2  0  0  0  0  0  0
  188.7350  178.2690  136.4570 C   0  0  0  0  0  2  0  0  0  0  0  0
  189.7510  177.7250  137.4450 C   0  0  0  0  0  2  0  0  0  0  0  0
  189.4380  178.2570  138.8290 C   0  0  0  0  0  2  0  0  0  0  0  0
  190.0550  177.3640  139.8960 C   0  0  2  0  0  3  0  0  0  0  0  0
  190.3820  176.1430  139.3060 O   0  0  0  0  0  1  0  0  0  0  0  0
  188.2210  178.2500  141.1760 O   0  0  0  0  0  1  0  0  0  0  0  0
  189.0820  177.1510  141.0690 C   0  0  2  0  0  3  0  0  0  0  0  0
  189.7900  176.9100  142.4190 C   0  0  0  0  0  0  0  0  0  0  0  0
  190.8020  177.8610  142.5870 O   0  0  0  0  0  1  0  0  0  0  0  0
  190.3630  175.6360  142.4420 O   0  0  0  0  0  1  0  0  0  0  0  0
  188.7960  177.0110  143.5570 C   0  0  0  0  0  0  0  0  0  0  0  0
  187.8070  176.2300  143.5850 O   0  0  0  0  0  0  0  0  0  0  0  0
  189.0490  177.5650  145.9630 C   0  0  0  0  0  1  0  0  0  0  0  0
  188.9400  177.9370  144.5970 O   0  0  0  0  0  0  0  0  0  0  0  0
  1 10  1  6  0  0  0
  1  9  1  0  0  0  0
  2 13  1  0  0  0  0
  3 18  1  0  0  0  0
  4 19  1  0  0  0  0
  5 19  1  0  0  0  0
  5  7  1  0  0  0  0
  6 29  1  1  0  0  0
  6 17  1  0  0  0  0
  6 15  1  0  0  0  0
  7 18  1  0  0  0  0
  8 21  1  6  0  0  0
  8 13  1  0  0  0  0
  9  2  2  0  0  0  0
 10  8  1  0  0  0  0
 13 12  1  1  0  0  0
 14  3  1  1  0  0  0
 14  1  1  0  0  0  0
 15 11  1  6  0  0  0
 16  4  1  6  0  0  0
 16 14  1  0  0  0  0
 16 15  1  0  0  0  0
 17 20  2  0  0  0  0
 20 10  2  0  0  0  0
 21 25  1  0  0  0  0
 22 24  2  0  0  0  0
 22 26  1  0  0  0  0
 23 25  2  0  0  0  0
 24 23  1  0  0  0  0
 26 21  2  0  0  0  0
 28 27  1  0  0  0  0
 28 24  1  0  0  0  0
 29 30  1  0  0  0  0
 30 31  1  0  0  0  0
 31 32  1  0  0  0  0
 32 33  1  0  0  0  0
 33 34  1  6  0  0  0
 33 36  1  0  0  0  0
 36 35  1  1  0  0  0
 36 37  1  0  0  0  0
 37 39  1  0  0  0  0
 37 38  1  0  0  0  0
 37 40  1  0  0  0  0
 40 41  2  0  0  0  0
 40 43  1  0  0  0  0
 43 42  1  0  0  0  0
M  END
>  <MODEL>
2

>  <REMARK>
 VINA RESULT:      -7.0      3.119      6.757
  Name = 
  11 active torsions:
  status: ('A' for Active; 'I' for Inactive)
    1  A    between atoms: C_1  and  C_25
    2  A    between atoms: C_1  and  C_39
    3  A    between atoms: C_2  and  C_16
    4  A    between atoms: C_2  and  O_18
    5  A    between atoms: C_4  and  C_14
    6  A    between atoms: C_11  and  C_30
    7  A    between atoms: C_16  and  C_39
    8  A    between atoms: C_22  and  O_32
    9  A    between atoms: C_25  and  C_27
   10  A    between atoms: C_27  and  C_41
   11  A    between atoms: C_30  and  C_41
                            x       y       z     vdW  Elec       q    Type
                         _______ _______ _______ _____ _____    ______ ____

>  <TORSDO>
F 11

$$$$
=
 OpenBabel10222417213D

 43 46  0  0  1  0  0  0  0  0999 V2000
  183.8210  177.8180  139.7140 C   0  0  2  0  0  3  0  0  0  0  0  0
  182.2550  177.3140  138.0010 N   0  0  0  0  0  0  0  0  0  0  0  0
  185.8690  178.8430  138.4820 C   0  0  0  0  0  2  0  0  0  0  0  0
  187.4640  178.6970  140.9970 C   0  0  0  0  0  2  0  0  0  0  0  0
  188.7160  178.7300  139.1710 C   0  0  0  0  0  2  0  0  0  0  0  0
  184.9970  179.2080  142.9040 C   0  0  1  0  0  3  0  0  0  0  0  0
  188.1880  178.0490  137.9080 C   0  0  0  0  0  2  0  0  0  0  0  0
  181.3020  178.4200  139.9820 C   0  0  2  0  0  3  0  0  0  0  0  0
  183.4360  177.5590  138.3360 N   0  0  0  0  0  0  0  0  0  0  0  0
  182.7260  178.5740  140.4290 C   0  0  0  0  0  0  0  0  0  0  0  0
  186.3430  177.1650  143.1970 O   0  0  0  0  0  1  0  0  0  0  0  0
  181.1150  175.7080  139.7880 Cl  0  0  0  0  0  0  0  0  0  0  0  0
  181.1640  177.2850  138.9580 C   0  0  2  0  0  3  0  0  0  0  0  0
  185.1820  178.5600  139.8300 C   0  0  2  0  0  3  0  0  0  0  0  0
  185.4890  177.8530  142.3280 C   0  0  2  0  0  3  0  0  0  0  0  0
  186.1200  177.9690  140.9250 C   0  0  2  0  0  3  0  0  0  0  0  0
  183.5070  179.3170  142.7790 C   0  0  0  0  0  3  0  0  0  0  0  0
  186.7120  177.6650  138.0110 C   0  0  0  0  0  2  0  0  0  0  0  0
  188.4320  177.9650  140.3030 O   0  0  0  0  0  0  0  0  0  0  0  0
  182.9920  178.9960  141.6290 C   0  0  0  0  0  0  0  0  0  0  0  0
  180.7550  179.7120  139.4510 C   0  0  0  0  0  0  0  0  0  0  0  0
  178.9310  181.2810  139.1400 C   0  0  0  0  0  3  0  0  0  0  0  0
  181.1160  181.7710  138.2240 C   0  0  0  0  0  3  0  0  0  0  0  0
  179.7810  182.1370  138.4230 C   0  0  0  0  0  0  0  0  0  0  0  0
  181.6020  180.5640  138.7330 C   0  0  0  0  0  3  0  0  0  0  0  0
  179.4150  180.0740  139.6490 C   0  0  0  0  0  3  0  0  0  0  0  0
  180.1690  184.4900  137.7670 C   0  0  0  0  0  1  0  0  0  0  0  0
  179.3290  183.3510  137.9020 O   0  0  0  0  0  0  0  0  0  0  0  0
  185.4050  179.4770  144.3500 C   0  0  0  0  0  2  0  0  0  0  0  0
  184.4020  178.8840  145.3280 C   0  0  0  0  0  2  0  0  0  0  0  0
  185.1000  178.4070  146.5890 C   0  0  0  0  0  2  0  0  0  0  0  0
  186.2450  177.4900  146.2120 C   0  0  0  0  0  2  0  0  0  0  0  0
  187.4300  177.7070  147.1420 C   0  0  2  0  0  3  0  0  0  0  0  0
  187.2410  178.9150  147.8140 O   0  0  0  0  0  1  0  0  0  0  0  0
  188.5950  177.0500  145.1420 O   0  0  0  0  0  1  0  0  0  0  0  0
  188.7530  177.7320  146.3550 C   0  0  2  0  0  3  0  0  0  0  0  0
  189.9440  177.1390  147.1360 C   0  0  0  0  0  0  0  0  0  0  0  0
  189.6060  175.8620  147.5980 O   0  0  0  0  0  1  0  0  0  0  0  0
  190.2510  177.9460  148.2340 O   0  0  0  0  0  1  0  0  0  0  0  0
  191.1650  177.0560  146.2440 C   0  0  0  0  0  0  0  0  0  0  0  0
  191.8420  175.9930  146.2190 O   0  0  0  0  0  0  0  0  0  0  0  0
  191.7140  178.0080  144.0180 C   0  0  0  0  0  1  0  0  0  0  0  0
  191.5690  178.1190  145.4270 O   0  0  0  0  0  0  0  0  0  0  0  0
  1  9  1  6  0  0  0
  1 14  1  0  0  0  0
  1 10  1  0  0  0  0
  2  9  2  0  0  0  0
  2 13  1  0  0  0  0
  5 19  1  0  0  0  0
  6 29  1  1  0  0  0
  7 18  1  0  0  0  0
  7  5  1  0  0  0  0
  8 21  1  6  0  0  0
  8 10  1  0  0  0  0
 10 20  2  0  0  0  0
 13 12  1  1  0  0  0
 13  8  1  0  0  0  0
 14  3  1  6  0  0  0
 14 16  1  0  0  0  0
 15  6  1  0  0  0  0
 15 11  1  1  0  0  0
 16  4  1  1  0  0  0
 16 15  1  0  0  0  0
 17  6  1  0  0  0  0
 18  3  1  0  0  0  0
 19  4  1  0  0  0  0
 20 17  2  0  0  0  0
 21 26  1  0  0  0  0
 22 26  2  0  0  0  0
 23 24  2  0  0  0  0
 23 25  1  0  0  0  0
 24 22  1  0  0  0  0
 25 21  2  0  0  0  0
 27 28  1  0  0  0  0
 28 24  1  0  0  0  0
 29 30  1  0  0  0  0
 30 31  1  0  0  0  0
 32 31  1  0  0  0  0
 32 33  1  0  0  0  0
 33 34  1  6  0  0  0
 36 35  1  6  0  0  0
 36 37  1  0  0  0  0
 36 33  1  0  0  0  0
 37 38  1  0  0  0  0
 37 39  1  0  0  0  0
 40 37  1  0  0  0  0
 41 40  2  0  0  0  0
 42 43  1  0  0  0  0
 43 40  1  0  0  0  0
M  END
>  <MODEL>
3

>  <REMARK>
 VINA RESULT:      -6.7      3.759      7.816
  Name = 
  11 active torsions:
  status: ('A' for Active; 'I' for Inactive)
    1  A    between atoms: C_1  and  C_25
    2  A    between atoms: C_1  and  C_39
    3  A    between atoms: C_2  and  C_16
    4  A    between atoms: C_2  and  O_18
    5  A    between atoms: C_4  and  C_14
    6  A    between atoms: C_11  and  C_30
    7  A    between atoms: C_16  and  C_39
    8  A    between atoms: C_22  and  O_32
    9  A    between atoms: C_25  and  C_27
   10  A    between atoms: C_27  and  C_41
   11  A    between atoms: C_30  and  C_41
                            x       y       z     vdW  Elec       q    Type
                         _______ _______ _______ _____ _____    ______ ____

>  <TORSDO>
F 11

$$$$
=
 OpenBabel10222417213D

 43 46  0  0  1  0  0  0  0  0999 V2000
  187.0070  175.7670  136.5840 C   0  0  2  0  0  3  0  0  0  0  0  0
  189.3600  175.4490  136.5280 N   0  0  0  0  0  0  0  0  0  0  0  0
  186.0390  173.5210  137.4670 C   0  0  0  0  0  2  0  0  0  0  0  0
  183.2840  174.4290  136.7760 C   0  0  0  0  0  2  0  0  0  0  0  0
  183.4760  172.2250  136.8730 C   0  0  0  0  0  2  0  0  0  0  0  0
  183.8540  177.4790  137.3720 C   0  0  1  0  0  3  0  0  0  0  0  0
  184.7970  171.5860  136.4410 C   0  0  0  0  0  2  0  0  0  0  0  0
  188.6280  177.5940  137.4890 C   0  0  2  0  0  3  0  0  0  0  0  0
  188.2110  174.9530  136.5610 N   0  0  0  0  0  0  0  0  0  0  0  0
  187.2410  177.0260  137.3850 C   0  0  0  0  0  0  0  0  0  0  0  0
  183.0400  176.8190  135.1420 O   0  0  0  0  0  1  0  0  0  0  0  0
  189.4040  177.5330  134.8760 Cl  0  0  0  0  0  0  0  0  0  0  0  0
  189.5890  176.8830  136.5260 C   0  0  2  0  0  3  0  0  0  0  0  0
  185.7650  174.9930  137.1090 C   0  0  2  0  0  3  0  0  0  0  0  0
  184.1000  176.7060  136.0470 C   0  0  2  0  0  3  0  0  0  0  0  0
  184.4810  175.2260  136.2570 C   0  0  2  0  0  3  0  0  0  0  0  0
  185.0370  178.3390  137.7010 C   0  0  0  0  0  3  0  0  0  0  0  0
  185.9200  172.6060  136.2550 C   0  0  0  0  0  2  0  0  0  0  0  0
  183.1270  173.2680  136.0140 O   0  0  0  0  0  0  0  0  0  0  0  0
  186.2080  177.7820  137.6060 C   0  0  0  0  0  0  0  0  0  0  0  0
  189.1290  177.5500  138.9020 C   0  0  0  0  0  0  0  0  0  0  0  0
  188.8160  177.9140  141.2800 C   0  0  0  0  0  3  0  0  0  0  0  0
  190.9240  177.0580  140.4550 C   0  0  0  0  0  3  0  0  0  0  0  0
  190.1210  177.4620  141.5270 C   0  0  0  0  0  0  0  0  0  0  0  0
  190.4310  177.1030  139.1480 C   0  0  0  0  0  3  0  0  0  0  0  0
  188.3230  177.9600  139.9740 C   0  0  0  0  0  3  0  0  0  0  0  0
  189.9500  177.9060  143.9530 C   0  0  0  0  0  1  0  0  0  0  0  0
  190.6440  177.4020  142.8200 O   0  0  0  0  0  0  0  0  0  0  0  0
  182.5880  178.3310  137.3910 C   0  0  0  0  0  2  0  0  0  0  0  0
  181.5000  177.6890  138.2390 C   0  0  0  0  0  2  0  0  0  0  0  0
  180.3600  178.6620  138.4780 C   0  0  0  0  0  2  0  0  0  0  0  0
  180.3100  179.0240  139.9480 C   0  0  0  0  0  2  0  0  0  0  0  0
  180.9350  177.9210  140.7900 C   0  0  2  0  0  3  0  0  0  0  0  0
  179.9070  177.1970  141.3930 O   0  0  0  0  0  1  0  0  0  0  0  0
  181.4050  179.7570  142.2710 O   0  0  0  0  0  1  0  0  0  0  0  0
  181.8780  178.5070  141.8570 C   0  0  2  0  0  3  0  0  0  0  0  0
  183.3400  178.6320  141.3830 C   0  0  0  0  0  0  0  0  0  0  0  0
  183.4380  179.6710  140.4500 O   0  0  0  0  0  1  0  0  0  0  0  0
  183.7550  177.4440  140.7750 O   0  0  0  0  0  1  0  0  0  0  0  0
  184.2500  178.9130  142.5600 C   0  0  0  0  0  0  0  0  0  0  0  0
  185.1810  179.7520  142.4360 O   0  0  0  0  0  0  0  0  0  0  0  0
  183.8090  178.9830  145.0020 C   0  0  0  0  0  1  0  0  0  0  0  0
  184.0870  178.2810  143.8000 O   0  0  0  0  0  0  0  0  0  0  0  0
  1  9  1  1  0  0  0
  1 14  1  0  0  0  0
  1 10  1  0  0  0  0
  2  9  2  0  0  0  0
  6 29  1  6  0  0  0
  6 17  1  0  0  0  0
  7  5  1  0  0  0  0
  8 21  1  1  0  0  0
 10  8  1  0  0  0  0
 10 20  2  0  0  0  0
 13 12  1  6  0  0  0
 13  2  1  0  0  0  0
 13  8  1  0  0  0  0
 14  3  1  6  0  0  0
 15 11  1  6  0  0  0
 15 16  1  0  0  0  0
 15  6  1  0  0  0  0
 16  4  1  1  0  0  0
 16 14  1  0  0  0  0
 18  7  1  0  0  0  0
 18  3  1  0  0  0  0
 19  4  1  0  0  0  0
 19  5  1  0  0  0  0
 20 17  2  0  0  0  0
 21 25  2  0  0  0  0
 21 26  1  0  0  0  0
 22 24  1  0  0  0  0
 23 24  2  0  0  0  0
 24 28  1  0  0  0  0
 25 23  1  0  0  0  0
 26 22  2  0  0  0  0
 28 27  1  0  0  0  0
 29 30  1  0  0  0  0
 30 31  1  0  0  0  0
 31 32  1  0  0  0  0
 32 33  1  0  0  0  0
 33 34  1  1  0  0  0
 33 36  1  0  0  0  0
 36 35  1  6  0  0  0
 37 36  1  0  0  0  0
 37 40  1  0  0  0  0
 38 37  1  0  0  0  0
 39 37  1  0  0  0  0
 40 43  1  0  0  0  0
 41 40  2  0  0  0  0
 43 42  1  0  0  0  0
M  END
>  <MODEL>
4

>  <REMARK>
 VINA RESULT:      -6.5      1.187      1.958
  Name = 
  11 active torsions:
  status: ('A' for Active; 'I' for Inactive)
    1  A    between atoms: C_1  and  C_25
    2  A    between atoms: C_1  and  C_39
    3  A    between atoms: C_2  and  C_16
    4  A    between atoms: C_2  and  O_18
    5  A    between atoms: C_4  and  C_14
    6  A    between atoms: C_11  and  C_30
    7  A    between atoms: C_16  and  C_39
    8  A    between atoms: C_22  and  O_32
    9  A    between atoms: C_25  and  C_27
   10  A    between atoms: C_27  and  C_41
   11  A    between atoms: C_30  and  C_41
                            x       y       z     vdW  Elec       q    Type
                         _______ _______ _______ _____ _____    ______ ____

>  <TORSDO>
F 11

$$$$
=
 OpenBabel10222417213D

 43 46  0  0  1  0  0  0  0  0999 V2000
  182.1100  176.6220  138.9040 C   0  0  2  0  0  3  0  0  0  0  0  0
  180.9390  178.0040  140.4400 N   0  0  0  0  0  0  0  0  0  0  0  0
  180.2730  175.2080  137.7260 C   0  0  0  0  0  2  0  0  0  0  0  0
  182.3760  173.4950  136.4870 C   0  0  0  0  0  2  0  0  0  0  0  0
  180.4120  172.4850  136.6470 C   0  0  0  0  0  2  0  0  0  0  0  0
  184.4930  175.8260  136.2240 C   0  0  1  0  0  3  0  0  0  0  0  0
  179.5170  172.8090  137.8440 C   0  0  0  0  0  2  0  0  0  0  0  0
  182.6710  179.1560  139.1230 C   0  0  2  0  0  3  0  0  0  0  0  0
  180.9610  176.9810  139.7190 N   0  0  0  0  0  0  0  0  0  0  0  0
  182.7770  177.8650  138.3640 C   0  0  0  0  0  0  0  0  0  0  0  0
  185.0900  173.7910  137.4800 O   0  0  0  0  0  1  0  0  0  0  0  0
  183.2900  178.3200  141.6430 Cl  0  0  0  0  0  0  0  0  0  0  0  0
  182.0550  178.9300  140.5110 C   0  0  2  0  0  3  0  0  0  0  0  0
  181.7510  175.6360  137.7560 C   0  0  2  0  0  3  0  0  0  0  0  0
  184.2420  174.9030  137.4470 C   0  0  2  0  0  3  0  0  0  0  0  0
  182.7700  174.4670  137.6010 C   0  0  2  0  0  3  0  0  0  0  0  0
  184.6280  177.2520  136.6660 C   0  0  0  0  0  3  0  0  0  0  0  0
  180.0030  174.0200  138.6410 C   0  0  0  0  0  2  0  0  0  0  0  0
  181.7460  172.3760  137.0410 O   0  0  0  0  0  0  0  0  0  0  0  0
  183.7360  177.6910  137.5040 C   0  0  0  0  0  0  0  0  0  0  0  0
  181.9100  180.1860  138.3420 C   0  0  0  0  0  0  0  0  0  0  0  0
  181.2270  182.4810  137.9520 C   0  0  0  0  0  3  0  0  0  0  0  0
  180.4160  180.7160  136.5090 C   0  0  0  0  0  3  0  0  0  0  0  0
  180.4560  182.0710  136.8540 C   0  0  0  0  0  0  0  0  0  0  0  0
  181.1380  179.7770  137.2490 C   0  0  0  0  0  3  0  0  0  0  0  0
  181.9490  181.5430  138.6930 C   0  0  0  0  0  3  0  0  0  0  0  0
  180.2670  184.2160  135.6380 C   0  0  0  0  0  1  0  0  0  0  0  0
  179.7240  182.9830  136.0910 O   0  0  0  0  0  0  0  0  0  0  0  0
  185.6990  175.4440  135.3700 C   0  0  0  0  0  2  0  0  0  0  0  0
  186.3620  176.6730  134.7670 C   0  0  0  0  0  2  0  0  0  0  0  0
  187.8700  176.6050  134.9310 C   0  0  0  0  0  2  0  0  0  0  0  0
  188.3360  177.7830  135.7630 C   0  0  0  0  0  2  0  0  0  0  0  0
  189.4280  177.3530  136.7310 C   0  0  2  0  0  3  0  0  0  0  0  0
  190.0810  176.2460  136.1890 O   0  0  0  0  0  1  0  0  0  0  0  0
  187.7780  176.1050  137.9590 O   0  0  0  0  0  1  0  0  0  0  0  0
  188.8380  177.0060  138.1100 C   0  0  2  0  0  3  0  0  0  0  0  0
  188.3640  178.2410  138.9040 C   0  0  0  0  0  0  0  0  0  0  0  0
  186.9970  178.4390  138.6790 O   0  0  0  0  0  1  0  0  0  0  0  0
  189.0560  179.3800  138.4850 O   0  0  0  0  0  1  0  0  0  0  0  0
  188.6170  178.0420  140.3830 C   0  0  0  0  0  0  0  0  0  0  0  0
  188.3090  178.9570  141.1920 O   0  0  0  0  0  0  0  0  0  0  0  0
  190.3750  176.8320  141.6510 C   0  0  0  0  0  1  0  0  0  0  0  0
  189.1730  176.8630  140.8960 O   0  0  0  0  0  0  0  0  0  0  0  0
  1 10  1  6  0  0  0
  1  9  1  0  0  0  0
  2 13  1  0  0  0  0
  3 18  1  0  0  0  0
  4 19  1  0  0  0  0
  5 19  1  0  0  0  0
  5  7  1  0  0  0  0
  6 29  1  1  0  0  0
  6 17  1  0  0  0  0
  6 15  1  0  0  0  0
  7 18  1  0  0  0  0
  8 21  1  6  0  0  0
  8 13  1  0  0  0  0
  9  2  2  0  0  0  0
 10  8  1  0  0  0  0
 13 12  1  1  0  0  0
 14  3  1  1  0  0  0
 14  1  1  0  0  0  0
 15 11  1  6  0  0  0
 15 16  1  0  0  0  0
 16  4  1  6  0  0  0
 16 14  1  0  0  0  0
 17 20  2  0  0  0  0
 20 10  2  0  0  0  0
 21 26  1  0  0  0  0
 22 26  2  0  0  0  0
 23 24  2  0  0  0  0
 23 25  1  0  0  0  0
 24 22  1  0  0  0  0
 25 21  2  0  0  0  0
 27 28  1  0  0  0  0
 28 24  1  0  0  0  0
 30 31  1  0  0  0  0
 30 29  1  0  0  0  0
 31 32  1  0  0  0  0
 32 33  1  0  0  0  0
 33 34  1  6  0  0  0
 33 36  1  0  0  0  0
 36 35  1  6  0  0  0
 36 37  1  0  0  0  0
 37 40  1  0  0  0  0
 38 37  1  0  0  0  0
 39 37  1  0  0  0  0
 40 43  1  0  0  0  0
 40 41  2  0  0  0  0
 43 42  1  0  0  0  0
M  END
>  <MODEL>
5

>  <REMARK>
 VINA RESULT:      -6.4      3.801      7.448
  Name = 
  11 active torsions:
  status: ('A' for Active; 'I' for Inactive)
    1  A    between atoms: C_1  and  C_25
    2  A    between atoms: C_1  and  C_39
    3  A    between atoms: C_2  and  C_16
    4  A    between atoms: C_2  and  O_18
    5  A    between atoms: C_4  and  C_14
    6  A    between atoms: C_11  and  C_30
    7  A    between atoms: C_16  and  C_39
    8  A    between atoms: C_22  and  O_32
    9  A    between atoms: C_25  and  C_27
   10  A    between atoms: C_27  and  C_41
   11  A    between atoms: C_30  and  C_41
                            x       y       z     vdW  Elec       q    Type
                         _______ _______ _______ _____ _____    ______ ____

>  <TORSDO>
F 11

$$$$
=
 OpenBabel10222417213D

 43 46  0  0  1  0  0  0  0  0999 V2000
  182.8680  177.6870  137.5600 C   0  0  2  0  0  3  0  0  0  0  0  0
  180.5400  177.5780  137.1010 N   0  0  0  0  0  0  0  0  0  0  0  0
  183.0630  177.4410  140.1410 C   0  0  0  0  0  2  0  0  0  0  0  0
  185.9490  178.1780  140.0000 C   0  0  0  0  0  2  0  0  0  0  0  0
  185.0460  178.5680  141.9840 C   0  0  0  0  0  2  0  0  0  0  0  0
  186.4230  176.8480  137.1740 C   0  0  1  0  0  3  0  0  0  0  0  0
  183.5800  179.0000  142.0490 C   0  0  0  0  0  2  0  0  0  0  0  0
  181.9550  176.2310  135.6030 C   0  0  2  0  0  3  0  0  0  0  0  0
  181.4630  177.7740  137.9240 N   0  0  0  0  0  0  0  0  0  0  0  0
  183.0750  176.6000  136.5310 C   0  0  0  0  0  0  0  0  0  0  0  0
  186.9300  179.2400  137.4800 O   0  0  0  0  0  1  0  0  0  0  0  0
  181.1490  178.6970  134.7660 Cl  0  0  0  0  0  0  0  0  0  0  0  0
  180.7940  177.2290  135.7140 C   0  0  2  0  0  3  0  0  0  0  0  0
  183.7970  177.4790  138.7890 C   0  0  2  0  0  3  0  0  0  0  0  0
  185.9110  178.2820  137.4760 C   0  0  2  0  0  3  0  0  0  0  0  0
  185.0690  178.3790  138.7650 C   0  0  2  0  0  3  0  0  0  0  0  0
  185.5940  176.2140  136.0970 C   0  0  0  0  0  3  0  0  0  0  0  0
  182.8500  178.8360  140.7160 C   0  0  0  0  0  2  0  0  0  0  0  0
  185.7010  179.1970  140.9240 O   0  0  0  0  0  0  0  0  0  0  0  0
  184.3040  176.3160  136.2170 C   0  0  0  0  0  0  0  0  0  0  0  0
  181.4960  174.8220  135.8370 C   0  0  0  0  0  0  0  0  0  0  0  0
  180.7810  173.0370  137.3170 C   0  0  0  0  0  3  0  0  0  0  0  0
  180.9510  172.6390  134.9360 C   0  0  0  0  0  3  0  0  0  0  0  0
  180.6530  172.1710  136.2200 C   0  0  0  0  0  0  0  0  0  0  0  0
  181.3720  173.9570  134.7440 C   0  0  0  0  0  3  0  0  0  0  0  0
  181.2010  174.3550  137.1260 C   0  0  0  0  0  3  0  0  0  0  0  0
  180.4270  169.8580  135.3750 C   0  0  0  0  0  1  0  0  0  0  0  0
  180.2340  170.8480  136.3760 O   0  0  0  0  0  0  0  0  0  0  0  0
  187.8990  176.7610  136.7940 C   0  0  0  0  0  2  0  0  0  0  0  0
  188.7330  176.2000  137.9360 C   0  0  0  0  0  2  0  0  0  0  0  0
  189.5160  177.3050  138.6220 C   0  0  0  0  0  2  0  0  0  0  0  0
  190.1560  176.7580  139.8810 C   0  0  0  0  0  2  0  0  0  0  0  0
  189.5130  177.3710  141.1170 C   0  0  2  0  0  3  0  0  0  0  0  0
  189.0140  178.6270  140.7700 O   0  0  0  0  0  1  0  0  0  0  0  0
  191.8210  177.2460  141.7840 O   0  0  0  0  0  1  0  0  0  0  0  0
  190.5300  177.4950  142.2660 C   0  0  2  0  0  3  0  0  0  0  0  0
  190.2280  176.5630  143.4570 C   0  0  0  0  0  0  0  0  0  0  0  0
  191.2650  175.6340  143.5930 O   0  0  0  0  0  1  0  0  0  0  0  0
  189.0330  175.8720  143.2390 O   0  0  0  0  0  1  0  0  0  0  0  0
  190.0910  177.3690  144.7310 C   0  0  0  0  0  0  0  0  0  0  0  0
  190.1960  178.6240  144.6830 O   0  0  0  0  0  0  0  0  0  0  0  0
  190.7660  176.7710  147.0440 C   0  0  0  0  0  1  0  0  0  0  0  0
  189.8350  176.7720  145.9720 O   0  0  0  0  0  0  0  0  0  0  0  0
  1 10  1  6  0  0  0
  1  9  1  0  0  0  0
  1 14  1  0  0  0  0
  2  9  2  0  0  0  0
  3 18  1  0  0  0  0
  4 19  1  0  0  0  0
  5  7  1  0  0  0  0
  6 29  1  6  0  0  0
  6 15  1  0  0  0  0
  8 13  1  0  0  0  0
  8 21  1  1  0  0  0
  8 10  1  0  0  0  0
 13 12  1  6  0  0  0
 13  2  1  0  0  0  0
 14  3  1  1  0  0  0
 15 11  1  1  0  0  0
 15 16  1  0  0  0  0
 16 14  1  0  0  0  0
 16  4  1  1  0  0  0
 17 20  2  0  0  0  0
 17  6  1  0  0  0  0
 18  7  1  0  0  0  0
 19  5  1  0  0  0  0
 20 10  2  0  0  0  0
 21 26  1  0  0  0  0
 23 24  2  0  0  0  0
 24 28  1  0  0  0  0
 24 22  1  0  0  0  0
 25 23  1  0  0  0  0
 25 21  2  0  0  0  0
 26 22  2  0  0  0  0
 27 28  1  0  0  0  0
 29 30  1  0  0  0  0
 30 31  1  0  0  0  0
 31 32  1  0  0  0  0
 32 33  1  0  0  0  0
 33 34  1  6  0  0  0
 33 36  1  0  0  0  0
 36 35  1  6  0  0  0
 36 37  1  0  0  0  0
 37 38  1  0  0  0  0
 37 40  1  0  0  0  0
 39 37  1  0  0  0  0
 40 43  1  0  0  0  0
 41 40  2  0  0  0  0
 43 42  1  0  0  0  0
M  END
>  <MODEL>
6

>  <REMARK>
 VINA RESULT:      -6.3      3.209      7.747
  Name = 
  11 active torsions:
  status: ('A' for Active; 'I' for Inactive)
    1  A    between atoms: C_1  and  C_25
    2  A    between atoms: C_1  and  C_39
    3  A    between atoms: C_2  and  C_16
    4  A    between atoms: C_2  and  O_18
    5  A    between atoms: C_4  and  C_14
    6  A    between atoms: C_11  and  C_30
    7  A    between atoms: C_16  and  C_39
    8  A    between atoms: C_22  and  O_32
    9  A    between atoms: C_25  and  C_27
   10  A    between atoms: C_27  and  C_41
   11  A    between atoms: C_30  and  C_41
                            x       y       z     vdW  Elec       q    Type
                         _______ _______ _______ _____ _____    ______ ____

>  <TORSDO>
F 11

$$$$
=
 OpenBabel10222417213D

 43 46  0  0  1  0  0  0  0  0999 V2000
  185.3160  177.3630  137.0030 C   0  0  2  0  0  3  0  0  0  0  0  0
  186.3590  176.8790  134.9250 N   0  0  0  0  0  0  0  0  0  0  0  0
  183.8520  175.2800  137.5300 C   0  0  0  0  0  2  0  0  0  0  0  0
  182.5540  176.7510  139.7760 C   0  0  0  0  0  2  0  0  0  0  0  0
  181.3130  175.0950  138.9850 C   0  0  0  0  0  2  0  0  0  0  0  0
  185.1270  178.4290  140.5130 C   0  0  1  0  0  3  0  0  0  0  0  0
  181.3850  174.7740  137.4920 C   0  0  0  0  0  2  0  0  0  0  0  0
  187.8520  177.8260  136.6370 C   0  0  2  0  0  3  0  0  0  0  0  0
  185.4390  176.6490  135.7430 N   0  0  0  0  0  0  0  0  0  0  0  0
  186.6830  177.6710  137.5660 C   0  0  0  0  0  0  0  0  0  0  0  0
  183.0380  179.6100  139.9500 O   0  0  0  0  0  1  0  0  0  0  0  0
  186.7960  179.4970  134.7590 Cl  0  0  0  0  0  0  0  0  0  0  0  0
  187.3920  177.8690  135.1730 C   0  0  2  0  0  3  0  0  0  0  0  0
  184.4400  176.6070  138.0420 C   0  0  2  0  0  3  0  0  0  0  0  0
  184.0400  178.7680  139.4570 C   0  0  2  0  0  3  0  0  0  0  0  0
  183.4230  177.5250  138.7840 C   0  0  2  0  0  3  0  0  0  0  0  0
  186.4960  178.6610  139.9470 C   0  0  0  0  0  3  0  0  0  0  0  0
  182.5390  175.4850  136.7850 C   0  0  0  0  0  2  0  0  0  0  0  0
  181.3120  176.4750  139.1960 O   0  0  0  0  0  0  0  0  0  0  0  0
  186.7250  178.1850  138.7590 C   0  0  0  0  0  0  0  0  0  0  0  0
  188.8740  176.7530  136.8650 C   0  0  0  0  0  0  0  0  0  0  0  0
  189.7640  174.5380  136.4290 C   0  0  0  0  0  3  0  0  0  0  0  0
  190.8750  175.9980  138.0070 C   0  0  0  0  0  3  0  0  0  0  0  0
  190.8070  174.7720  137.3380 C   0  0  0  0  0  0  0  0  0  0  0  0
  189.9130  176.9840  137.7730 C   0  0  0  0  0  3  0  0  0  0  0  0
  188.8020  175.5230  136.1950 C   0  0  0  0  0  3  0  0  0  0  0  0
  193.1770  174.1010  137.5630 C   0  0  0  0  0  1  0  0  0  0  0  0
  191.7870  173.8100  137.5930 O   0  0  0  0  0  0  0  0  0  0  0  0
  184.9920  179.1800  141.8350 C   0  0  0  0  0  2  0  0  0  0  0  0
  184.7800  178.2220  142.9980 C   0  0  0  0  0  2  0  0  0  0  0  0
  185.5860  178.6600  144.2080 C   0  0  0  0  0  2  0  0  0  0  0  0
  186.4310  177.5000  144.6930 C   0  0  0  0  0  2  0  0  0  0  0  0
  187.6390  177.3050  143.7880 C   0  0  2  0  0  3  0  0  0  0  0  0
  187.5570  176.0340  143.2180 O   0  0  0  0  0  1  0  0  0  0  0  0
  188.7350  178.2530  145.7080 O   0  0  0  0  0  1  0  0  0  0  0  0
  188.9510  177.4560  144.5770 C   0  0  2  0  0  3  0  0  0  0  0  0
  190.1080  178.0420  143.7410 C   0  0  0  0  0  0  0  0  0  0  0  0
  190.5660  179.2180  144.3430 O   0  0  0  0  0  1  0  0  0  0  0  0
  189.6670  178.3420  142.4500 O   0  0  0  0  0  1  0  0  0  0  0  0
  191.2400  177.0410  143.6410 C   0  0  0  0  0  0  0  0  0  0  0  0
  192.0560  177.1240  142.6840 O   0  0  0  0  0  0  0  0  0  0  0  0
  191.9190  176.2630  145.8990 C   0  0  0  0  0  1  0  0  0  0  0  0
  191.4280  176.0260  144.5870 O   0  0  0  0  0  0  0  0  0  0  0  0
  1  9  1  6  0  0  0
  1 10  1  0  0  0  0
  1 14  1  0  0  0  0
  2 13  1  0  0  0  0
  2  9  2  0  0  0  0
  5 19  1  0  0  0  0
  6 29  1  1  0  0  0
  7  5  1  0  0  0  0
  8 21  1  6  0  0  0
  8 10  1  0  0  0  0
 10 20  2  0  0  0  0
 13 12  1  1  0  0  0
 13  8  1  0  0  0  0
 14  3  1  6  0  0  0
 14 16  1  0  0  0  0
 15 11  1  1  0  0  0
 15  6  1  0  0  0  0
 16 15  1  0  0  0  0
 16  4  1  1  0  0  0
 17  6  1  0  0  0  0
 18  7  1  0  0  0  0
 18  3  1  0  0  0  0
 19  4  1  0  0  0  0
 20 17  2  0  0  0  0
 21 25  1  0  0  0  0
 22 24  2  0  0  0  0
 24 28  1  0  0  0  0
 24 23  1  0  0  0  0
 25 23  2  0  0  0  0
 26 22  1  0  0  0  0
 26 21  2  0  0  0  0
 27 28  1  0  0  0  0
 29 30  1  0  0  0  0
 30 31  1  0  0  0  0
 31 32  1  0  0  0  0
 33 34  1  1  0  0  0
 33 36  1  0  0  0  0
 33 32  1  0  0  0  0
 36 35  1  1  0  0  0
 37 38  1  0  0  0  0
 37 36  1  0  0  0  0
 39 37  1  0  0  0  0
 40 37  1  0  0  0  0
 40 43  1  0  0  0  0
 41 40  2  0  0  0  0
 43 42  1  0  0  0  0
M  END
>  <MODEL>
7

>  <REMARK>
 VINA RESULT:      -6.3      2.576      4.509
  Name = 
  11 active torsions:
  status: ('A' for Active; 'I' for Inactive)
    1  A    between atoms: C_1  and  C_25
    2  A    between atoms: C_1  and  C_39
    3  A    between atoms: C_2  and  C_16
    4  A    between atoms: C_2  and  O_18
    5  A    between atoms: C_4  and  C_14
    6  A    between atoms: C_11  and  C_30
    7  A    between atoms: C_16  and  C_39
    8  A    between atoms: C_22  and  O_32
    9  A    between atoms: C_25  and  C_27
   10  A    between atoms: C_27  and  C_41
   11  A    between atoms: C_30  and  C_41
                            x       y       z     vdW  Elec       q    Type
                         _______ _______ _______ _____ _____    ______ ____

>  <TORSDO>
F 11

$$$$
=
 OpenBabel10222417213D

 43 46  0  0  1  0  0  0  0  0999 V2000
  181.3180  176.5850  138.0730 C   0  0  2  0  0  3  0  0  0  0  0  0
  179.4600  177.7440  138.9930 N   0  0  0  0  0  0  0  0  0  0  0  0
  180.3870  175.3700  135.9710 C   0  0  0  0  0  2  0  0  0  0  0  0
  182.9310  173.8340  135.7250 C   0  0  0  0  0  2  0  0  0  0  0  0
  181.2080  172.8280  134.7620 C   0  0  0  0  0  2  0  0  0  0  0  0
  184.7530  176.1590  136.8440 C   0  0  1  0  0  3  0  0  0  0  0  0
  179.8230  172.9850  135.3900 C   0  0  0  0  0  2  0  0  0  0  0  0
  181.5380  179.0570  138.8640 C   0  0  2  0  0  3  0  0  0  0  0  0
  179.8970  176.8340  138.2520 N   0  0  0  0  0  0  0  0  0  0  0  0
  182.0840  177.8870  138.0980 C   0  0  0  0  0  0  0  0  0  0  0  0
  184.7850  173.9610  137.9580 O   0  0  0  0  0  1  0  0  0  0  0  0
  180.8940  177.8650  141.2290 Cl  0  0  0  0  0  0  0  0  0  0  0  0
  180.3370  178.6410  139.7240 C   0  0  2  0  0  3  0  0  0  0  0  0
  181.6300  175.7770  136.7820 C   0  0  2  0  0  3  0  0  0  0  0  0
  183.9930  175.0730  137.6530 C   0  0  2  0  0  3  0  0  0  0  0  0
  182.6650  174.6330  137.0010 C   0  0  2  0  0  3  0  0  0  0  0  0
  184.5630  177.5060  137.4740 C   0  0  0  0  0  3  0  0  0  0  0  0
  179.7780  174.0660  136.4710 C   0  0  0  0  0  2  0  0  0  0  0  0
  182.1820  172.6530  135.7460 O   0  0  0  0  0  0  0  0  0  0  0  0
  183.3500  177.8290  137.8100 C   0  0  0  0  0  0  0  0  0  0  0  0
  181.1940  180.1940  137.9490 C   0  0  0  0  0  0  0  0  0  0  0  0
  180.8500  182.5600  137.5350 C   0  0  0  0  0  3  0  0  0  0  0  0
  180.5450  180.9620  135.7430 C   0  0  0  0  0  3  0  0  0  0  0  0
  180.5320  182.2860  136.1960 C   0  0  0  0  0  0  0  0  0  0  0  0
  180.8730  179.9210  136.6150 C   0  0  0  0  0  3  0  0  0  0  0  0
  181.1780  181.5200  138.4070 C   0  0  0  0  0  3  0  0  0  0  0  0
  180.7990  184.5910  135.3420 C   0  0  0  0  0  1  0  0  0  0  0  0
  180.2010  183.3020  135.2980 O   0  0  0  0  0  0  0  0  0  0  0  0
  186.2440  175.8920  136.6570 C   0  0  0  0  0  2  0  0  0  0  0  0
  187.0870  176.9840  137.2990 C   0  0  0  0  0  2  0  0  0  0  0  0
  188.2920  176.3870  138.0030 C   0  0  0  0  0  2  0  0  0  0  0  0
  188.9510  177.4510  138.8560 C   0  0  0  0  0  2  0  0  0  0  0  0
  188.2940  177.5190  140.2270 C   0  0  2  0  0  3  0  0  0  0  0  0
  187.4660  178.6420  140.2590 O   0  0  0  0  0  1  0  0  0  0  0  0
  190.5140  176.9310  140.9430 O   0  0  0  0  0  1  0  0  0  0  0  0
  189.3510  177.5990  141.3430 C   0  0  2  0  0  3  0  0  0  0  0  0
  188.8630  177.0340  142.6940 C   0  0  0  0  0  0  0  0  0  0  0  0
  189.3250  175.7220  142.8410 O   0  0  0  0  0  1  0  0  0  0  0  0
  187.4660  177.0250  142.7370 O   0  0  0  0  0  1  0  0  0  0  0  0
  189.3730  177.8900  143.8340 C   0  0  0  0  0  0  0  0  0  0  0  0
  188.9370  177.6910  144.9990 O   0  0  0  0  0  0  0  0  0  0  0  0
  191.7040  178.7330  143.9750 C   0  0  0  0  0  1  0  0  0  0  0  0
  190.3320  178.8940  143.6470 O   0  0  0  0  0  0  0  0  0  0  0  0
  1 10  1  6  0  0  0
  1  9  1  0  0  0  0
  2 13  1  0  0  0  0
  3 18  1  0  0  0  0
  4 19  1  0  0  0  0
  5  7  1  0  0  0  0
  5 19  1  0  0  0  0
  6 29  1  1  0  0  0
  6 17  1  0  0  0  0
  6 15  1  0  0  0  0
  7 18  1  0  0  0  0
  8 21  1  6  0  0  0
  8 13  1  0  0  0  0
  9  2  2  0  0  0  0
 10  8  1  0  0  0  0
 13 12  1  1  0  0  0
 14  3  1  1  0  0  0
 14 16  1  0  0  0  0
 14  1  1  0  0  0  0
 15 11  1  6  0  0  0
 16  4  1  6  0  0  0
 16 15  1  0  0  0  0
 17 20  2  0  0  0  0
 20 10  2  0  0  0  0
 21 26  1  0  0  0  0
 22 26  2  0  0  0  0
 23 24  2  0  0  0  0
 23 25  1  0  0  0  0
 24 22  1  0  0  0  0
 25 21  2  0  0  0  0
 28 27  1  0  0  0  0
 28 24  1  0  0  0  0
 29 30  1  0  0  0  0
 30 31  1  0  0  0  0
 31 32  1  0  0  0  0
 32 33  1  0  0  0  0
 33 34  1  6  0  0  0
 33 36  1  0  0  0  0
 36 35  1  6  0  0  0
 36 37  1  0  0  0  0
 37 39  1  0  0  0  0
 37 38  1  0  0  0  0
 37 40  1  0  0  0  0
 40 41  2  0  0  0  0
 43 40  1  0  0  0  0
 43 42  1  0  0  0  0
M  END
>  <MODEL>
8

>  <REMARK>
 VINA RESULT:      -6.3      3.697      7.294
  Name = 
  11 active torsions:
  status: ('A' for Active; 'I' for Inactive)
    1  A    between atoms: C_1  and  C_25
    2  A    between atoms: C_1  and  C_39
    3  A    between atoms: C_2  and  C_16
    4  A    between atoms: C_2  and  O_18
    5  A    between atoms: C_4  and  C_14
    6  A    between atoms: C_11  and  C_30
    7  A    between atoms: C_16  and  C_39
    8  A    between atoms: C_22  and  O_32
    9  A    between atoms: C_25  and  C_27
   10  A    between atoms: C_27  and  C_41
   11  A    between atoms: C_30  and  C_41
                            x       y       z     vdW  Elec       q    Type
                         _______ _______ _______ _____ _____    ______ ____

>  <TORSDO>
F 11

$$$$
=
 OpenBabel10222417213D

 43 46  0  0  1  0  0  0  0  0999 V2000
  181.2520  178.1770  138.9690 C   0  0  2  0  0  3  0  0  0  0  0  0
  178.9310  177.8560  138.5790 N   0  0  0  0  0  0  0  0  0  0  0  0
  181.6060  177.5890  141.4780 C   0  0  0  0  0  2  0  0  0  0  0  0
  184.3790  178.6800  141.3490 C   0  0  0  0  0  2  0  0  0  0  0  0
  183.5400  178.6710  143.3980 C   0  0  0  0  0  2  0  0  0  0  0  0
  184.8550  177.8340  138.3420 C   0  0  1  0  0  3  0  0  0  0  0  0
  182.0400  178.9100  143.5770 C   0  0  0  0  0  2  0  0  0  0  0  0
  180.4110  176.9170  136.8510 C   0  0  2  0  0  3  0  0  0  0  0  0
  179.8670  178.0420  139.3900 N   0  0  0  0  0  0  0  0  0  0  0  0
  181.5290  177.2810  137.7850 C   0  0  0  0  0  0  0  0  0  0  0  0
  185.1020  180.2010  138.9820 O   0  0  0  0  0  1  0  0  0  0  0  0
  179.2880  179.3630  136.4170 Cl  0  0  0  0  0  0  0  0  0  0  0  0
  179.1520  177.7430  137.1480 C   0  0  2  0  0  3  0  0  0  0  0  0
  182.2610  177.9080  140.1220 C   0  0  2  0  0  3  0  0  0  0  0  0
  184.1990  179.1390  138.8710 C   0  0  2  0  0  3  0  0  0  0  0  0
  183.4190  178.9490  140.1880 C   0  0  2  0  0  3  0  0  0  0  0  0
  184.0490  177.2660  137.2120 C   0  0  0  0  0  3  0  0  0  0  0  0
  181.2660  178.8510  142.2600 C   0  0  0  0  0  2  0  0  0  0  0  0
  184.0640  179.5190  142.4220 O   0  0  0  0  0  0  0  0  0  0  0  0
  182.7640  177.1950  137.3900 C   0  0  0  0  0  0  0  0  0  0  0  0
  180.1280  175.4450  136.8890 C   0  0  0  0  0  0  0  0  0  0  0  0
  179.9300  173.3480  138.0950 C   0  0  0  0  0  3  0  0  0  0  0  0
  179.5410  173.4110  135.7070 C   0  0  0  0  0  3  0  0  0  0  0  0
  179.6010  172.6870  136.9020 C   0  0  0  0  0  0  0  0  0  0  0  0
  179.8040  174.7840  135.7000 C   0  0  0  0  0  3  0  0  0  0  0  0
  180.1930  174.7200  138.0880 C   0  0  0  0  0  3  0  0  0  0  0  0
  179.9740  170.4240  135.9750 C   0  0  0  0  0  1  0  0  0  0  0  0
  179.3310  171.3170  136.8740 O   0  0  0  0  0  0  0  0  0  0  0  0
  186.3100  177.9800  137.9030 C   0  0  0  0  0  2  0  0  0  0  0  0
  186.9090  176.6370  137.5130 C   0  0  0  0  0  2  0  0  0  0  0  0
  188.4070  176.6270  137.7560 C   0  0  0  0  0  2  0  0  0  0  0  0
  188.7770  177.7900  138.6530 C   0  0  0  0  0  2  0  0  0  0  0  0
  189.7340  177.3370  139.7460 C   0  0  2  0  0  3  0  0  0  0  0  0
  190.2890  176.1170  139.3620 O   0  0  0  0  0  1  0  0  0  0  0  0
  188.1920  178.3130  141.3140 O   0  0  0  0  0  1  0  0  0  0  0  0
  189.0050  177.1950  141.0950 C   0  0  2  0  0  3  0  0  0  0  0  0
  189.9580  177.0010  142.2920 C   0  0  0  0  0  0  0  0  0  0  0  0
  191.1160  177.7590  142.0900 O   0  0  0  0  0  1  0  0  0  0  0  0
  190.3190  175.6550  142.4080 O   0  0  0  0  0  1  0  0  0  0  0  0
  189.2810  177.4290  143.5760 C   0  0  0  0  0  0  0  0  0  0  0  0
  189.7250  178.4250  144.2070 O   0  0  0  0  0  0  0  0  0  0  0  0
  186.9630  177.4330  144.4670 C   0  0  0  0  0  1  0  0  0  0  0  0
  188.1590  176.7660  144.0880 O   0  0  0  0  0  0  0  0  0  0  0  0
  1 10  1  6  0  0  0
  1  9  1  0  0  0  0
  1 14  1  0  0  0  0
  2  9  2  0  0  0  0
  3 18  1  0  0  0  0
  4 19  1  0  0  0  0
  5  7  1  0  0  0  0
  6 29  1  6  0  0  0
  6 15  1  0  0  0  0
  8 21  1  1  0  0  0
  8 13  1  0  0  0  0
  8 10  1  0  0  0  0
 13 12  1  1  0  0  0
 13  2  1  0  0  0  0
 14 16  1  0  0  0  0
 14  3  1  1  0  0  0
 15 11  1  1  0  0  0
 15 16  1  0  0  0  0
 16  4  1  1  0  0  0
 17 20  2  0  0  0  0
 17  6  1  0  0  0  0
 18  7  1  0  0  0  0
 19  5  1  0  0  0  0
 20 10  2  0  0  0  0
 21 26  1  0  0  0  0
 23 24  2  0  0  0  0
 24 22  1  0  0  0  0
 25 23  1  0  0  0  0
 25 21  2  0  0  0  0
 26 22  2  0  0  0  0
 27 28  1  0  0  0  0
 28 24  1  0  0  0  0
 30 31  1  0  0  0  0
 30 29  1  0  0  0  0
 31 32  1  0  0  0  0
 32 33  1  0  0  0  0
 33 34  1  6  0  0  0
 33 36  1  0  0  0  0
 36 35  1  1  0  0  0
 36 37  1  0  0  0  0
 37 39  1  0  0  0  0
 37 40  1  0  0  0  0
 38 37  1  0  0  0  0
 40 43  1  0  0  0  0
 40 41  2  0  0  0  0
 43 42  1  0  0  0  0
M  END
>  <MODEL>
9

>  <REMARK>
 VINA RESULT:      -6.2      3.480      8.197
  Name = 
  11 active torsions:
  status: ('A' for Active; 'I' for Inactive)
    1  A    between atoms: C_1  and  C_25
    2  A    between atoms: C_1  and  C_39
    3  A    between atoms: C_2  and  C_16
    4  A    between atoms: C_2  and  O_18
    5  A    between atoms: C_4  and  C_14
    6  A    between atoms: C_11  and  C_30
    7  A    between atoms: C_16  and  C_39
    8  A    between atoms: C_22  and  O_32
    9  A    between atoms: C_25  and  C_27
   10  A    between atoms: C_27  and  C_41
   11  A    between atoms: C_30  and  C_41
                            x       y       z     vdW  Elec       q    Type
                         _______ _______ _______ _____ _____    ______ ____

>  <TORSDO>
F 11

$$$$
