=
 OpenBabel10222419023D

 50 53  0  0  1  0  0  0  0  0999 V2000
  191.6050  176.5300  137.5740 C   0  0  1  0  0  3  0  0  0  0  0  0
  191.0940  174.2160  138.0270 O   0  0  0  0  0  1  0  0  0  0  0  0
  190.6860  175.4840  137.6000 C   0  0  1  0  0  0  0  0  0  0  0  0
  190.6470  176.4450  138.7360 N   0  0  0  0  0  0  0  0  0  0  0  0
  188.1410  178.0590  140.9850 C   0  0  0  0  0  3  0  0  0  0  0  0
  190.4960  176.5670  141.1690 C   0  0  0  0  0  3  0  0  0  0  0  0
  190.0180  176.9480  139.9100 C   0  0  0  0  0  0  0  0  0  0  0  0
  188.6370  177.6930  142.2480 C   0  0  0  0  0  0  0  0  0  0  0  0
  189.8170  176.9480  142.3300 C   0  0  0  0  0  3  0  0  0  0  0  0
  188.8360  177.7050  139.8090 C   0  0  0  0  0  0  0  0  0  0  0  0
  188.2800  177.9630  138.5110 N   0  0  0  0  0  0  0  0  0  0  0  0
  188.8010  179.9540  137.0730 O   0  0  0  0  0  0  0  0  0  0  0  0
  188.5530  178.9790  137.7890 C   0  0  0  0  0  0  0  0  0  0  0  0
  187.9310  178.0050  143.4160 O   0  0  0  0  0  0  0  0  0  0  0  0
  187.4880  176.9840  144.3000 C   0  0  0  0  0  2  0  0  0  0  0  0
  184.7030  178.8380  146.0650 O   0  0  0  0  0  0  0  0  0  0  0  0
  186.8880  177.5730  145.4840 N   0  0  0  0  0  0  0  0  0  0  0  0
  186.9670  177.8590  146.8590 N   0  0  0  0  0  0  0  0  0  0  0  0
  185.8340  178.2790  146.1160 C   0  0  0  0  0  0  0  0  0  0  0  0
  187.6450  177.6760  148.1000 C   0  0  0  0  0  3  0  0  0  0  0  0
  188.9800  177.7330  148.1500 C   0  0  0  0  0  3  0  0  0  0  0  0
  189.7950  177.7970  146.8850 C   0  0  0  0  0  2  0  0  0  0  0  0
  190.8320  176.6700  146.8290 C   0  0  0  0  0  3  0  0  0  0  0  0
  191.3210  176.5480  145.5280 O   0  0  0  0  0  1  0  0  0  0  0  0
  191.8950  176.9100  147.7130 O   0  0  0  0  0  1  0  0  0  0  0  0
  193.0140  176.0950  137.9880 C   0  0  2  0  0  3  0  0  0  0  0  0
  193.6030  177.0220  138.8440 O   0  0  0  0  0  1  0  0  0  0  0  0
  193.8960  175.9030  136.7610 C   0  0  0  0  0  2  0  0  0  0  0  0
  194.6840  174.5850  136.7900 C   0  0  1  0  0  3  0  0  0  0  0  0
  194.1390  173.6220  135.8380 N   0  0  0  0  0  1  0  0  0  0  0  0
  196.6220  174.2040  135.3880 O   0  0  0  0  0  1  0  0  0  0  0  0
  196.1830  174.8130  136.5690 C   0  0  2  0  0  3  0  0  0  0  0  0
  197.0150  174.3300  137.7640 C   0  0  2  0  0  3  0  0  0  0  0  0
  195.4930  173.0200  139.0470 O   0  0  0  0  0  0  0  0  0  0  0  0
  195.9890  175.0740  139.9230 O   0  0  0  0  0  1  0  0  0  0  0  0
  196.1300  174.1000  138.9460 C   0  0  0  0  0  0  0  0  0  0  0  0
  199.1380  174.5100  138.4230 C   0  0  0  0  0  1  0  0  0  0  0  0
  198.0100  175.2690  138.0850 O   0  0  0  0  0  0  0  0  0  0  0  0
  189.4380  175.5340  136.7150 C   0  0  0  0  0  2  0  0  0  0  0  0
  188.4490  173.9900  136.7090 S   0  0  0  0  0  0  0  0  0  0  0  0
  184.5290  175.1860  136.8020 C   0  0  0  0  0  0  0  0  0  0  0  0
  185.7640  177.8370  134.8540 O   0  0  0  0  0  0  0  0  0  0  0  0
  184.5860  176.3330  136.0760 N   0  0  0  0  0  0  0  0  0  0  0  0
  183.2820  174.7670  137.3540 N   0  0  0  0  0  1  0  0  0  0  0  0
  185.6910  174.4240  137.0120 C   0  0  2  0  0  3  0  0  0  0  0  0
  186.9080  174.8810  136.4690 C   0  0  0  0  0  0  0  0  0  0  0  0
  186.9350  176.0650  135.7340 C   0  0  0  0  0  3  0  0  0  0  0  0
  185.7530  176.7830  135.5370 C   0  0  0  0  0  0  0  0  0  0  0  0
  185.3320  172.0600  136.7400 N   0  0  0  0  0  1  0  0  0  0  0  0
  185.6140  173.1000  137.7150 C   0  0  0  0  0  2  0  0  0  0  0  0
  1  3  1  0  0  0  0
  1 26  1  1  0  0  0
  1  4  1  0  0  0  0
  3  2  1  1  0  0  0
  3  4  1  0  0  0  0
  4  7  1  0  0  0  0
  5  8  1  0  0  0  0
  6  9  1  0  0  0  0
  7  6  2  0  0  0  0
  8  9  2  0  0  0  0
  8 14  1  0  0  0  0
 10  7  1  0  0  0  0
 10  5  2  0  0  0  0
 11 10  1  0  0  0  0
 12 13  2  0  0  0  0
 13 11  2  0  0  0  0
 14 15  1  0  0  0  0
 15 17  1  0  0  0  0
 16 19  2  0  0  0  0
 17 19  1  0  0  0  0
 17 18  1  0  0  0  0
 18 20  1  0  0  0  0
 19 18  1  0  0  0  0
 20 21  2  0  0  0  0
 22 21  1  0  0  0  0
 23 22  1  0  0  0  0
 23 25  1  0  0  0  0
 24 23  1  0  0  0  0
 26 27  1  1  0  0  0
 28 29  1  0  0  0  0
 28 26  1  0  0  0  0
 29 30  1  6  0  0  0
 32 31  1  6  0  0  0
 32 29  1  0  0  0  0
 32 33  1  0  0  0  0
 33 38  1  1  0  0  0
 33 36  1  0  0  0  0
 36 34  2  0  0  0  0
 36 35  1  0  0  0  0
 38 37  1  0  0  0  0
 39  3  1  0  0  0  0
 40 39  1  0  0  0  0
 41 45  1  0  0  0  0
 41 44  1  0  0  0  0
 42 48  2  0  0  0  0
 43 41  2  0  0  0  0
 45 50  1  6  0  0  0
 46 40  1  0  0  0  0
 46 45  1  0  0  0  0
 47 46  2  0  0  0  0
 48 47  1  0  0  0  0
 48 43  1  0  0  0  0
 49 50  1  0  0  0  0
M  END
>  <MODEL>
1

>  <REMARK>
 VINA RESULT:      -7.9      0.000      0.000
  Name = 
  19 active torsions:
  status: ('A' for Active; 'I' for Inactive)
    1  A    between atoms: C_1  and  C_2
    2  A    between atoms: C_1  and  C_14
    3  A    between atoms: C_2  and  C_31
    4  A    between atoms: C_3  and  C_22
    5  A    between atoms: S_4  and  C_36
    6  A    between atoms: S_4  and  C_40
    7  A    between atoms: C_5  and  C_14
    8  A    between atoms: O_6  and  C_15
    9  A    between atoms: O_6  and  C_34
   10  A    between atoms: N_7  and  C_50
   11  A    between atoms: C_15  and  N_42
   12  A    between atoms: C_16  and  C_31
   13  A    between atoms: C_16  and  O_32
   14  A    between atoms: C_16  and  C_41
   15  A    between atoms: C_22  and  C_37
   16  A    between atoms: C_25  and  C_33
   17  A    between atoms: C_28  and  N_49
   18  A    between atoms: C_29  and  N_43
   19  A    between atoms: C_40  and  C_48
                            x       y       z     vdW  Elec       q    Type
                         _______ _______ _______ _____ _____    ______ ____

>  <TORSDO>
F 19

$$$$
=
 OpenBabel10222419023D

 50 53  0  0  1  0  0  0  0  0999 V2000
  189.2610  176.7190  138.0760 C   0  0  1  0  0  3  0  0  0  0  0  0
  189.2000  179.1160  138.3540 O   0  0  0  0  0  1  0  0  0  0  0  0
  188.9090  177.8340  138.8340 C   0  0  1  0  0  0  0  0  0  0  0  0
  187.8300  177.1940  138.0320 N   0  0  0  0  0  0  0  0  0  0  0  0
  184.5640  175.6900  137.0240 C   0  0  0  0  0  3  0  0  0  0  0  0
  185.5760  178.1260  137.9460 C   0  0  0  0  0  3  0  0  0  0  0  0
  186.4550  177.0700  137.6830 C   0  0  0  0  0  0  0  0  0  0  0  0
  183.6870  176.7610  137.2670 C   0  0  0  0  0  0  0  0  0  0  0  0
  184.2030  177.9770  137.7260 C   0  0  0  0  0  3  0  0  0  0  0  0
  185.9540  175.8410  137.2130 C   0  0  0  0  0  0  0  0  0  0  0  0
  186.8470  174.7230  137.0890 N   0  0  0  0  0  0  0  0  0  0  0  0
  187.2410  173.4000  134.9920 O   0  0  0  0  0  0  0  0  0  0  0  0
  187.0390  174.0590  136.0170 C   0  0  0  0  0  0  0  0  0  0  0  0
  182.3040  176.6060  137.1220 O   0  0  0  0  0  0  0  0  0  0  0  0
  181.5370  177.5290  136.3620 C   0  0  0  0  0  2  0  0  0  0  0  0
  181.0740  181.2050  137.1210 O   0  0  0  0  0  0  0  0  0  0  0  0
  181.0790  178.6160  137.2090 N   0  0  0  0  0  0  0  0  0  0  0  0
  180.4570  179.0370  138.3980 N   0  0  0  0  0  0  0  0  0  0  0  0
  180.9290  180.0010  137.4710 C   0  0  0  0  0  0  0  0  0  0  0  0
  179.7310  178.6920  139.5750 C   0  0  0  0  0  3  0  0  0  0  0  0
  180.3560  178.1050  140.6010 C   0  0  0  0  0  3  0  0  0  0  0  0
  181.7770  177.6250  140.4630 C   0  0  0  0  0  2  0  0  0  0  0  0
  182.7500  178.5320  141.2240 C   0  0  0  0  0  3  0  0  0  0  0  0
  182.1880  178.8970  142.4480 O   0  0  0  0  0  1  0  0  0  0  0  0
  183.9810  177.8930  141.4410 O   0  0  0  0  0  1  0  0  0  0  0  0
  190.0040  177.0860  136.7880 C   0  0  2  0  0  3  0  0  0  0  0  0
  189.4000  176.5160  135.6710 O   0  0  0  0  0  1  0  0  0  0  0  0
  191.4580  176.6380  136.8640 C   0  0  0  0  0  2  0  0  0  0  0  0
  191.7150  175.6250  137.9890 C   0  0  1  0  0  3  0  0  0  0  0  0
  191.4450  174.2610  137.5460 N   0  0  0  0  0  1  0  0  0  0  0  0
  193.5270  177.1030  138.6220 O   0  0  0  0  0  1  0  0  0  0  0  0
  193.1280  175.7630  138.5670 C   0  0  2  0  0  3  0  0  0  0  0  0
  194.1480  174.9300  137.7790 C   0  0  2  0  0  3  0  0  0  0  0  0
  195.1360  173.0170  138.8000 O   0  0  0  0  0  0  0  0  0  0  0  0
  195.9490  175.0310  139.5140 O   0  0  0  0  0  1  0  0  0  0  0  0
  195.1060  174.2710  138.7180 C   0  0  0  0  0  0  0  0  0  0  0  0
  194.8330  175.0310  135.6600 C   0  0  0  0  0  1  0  0  0  0  0  0
  194.8480  175.7390  136.8690 O   0  0  0  0  0  0  0  0  0  0  0  0
  188.7040  177.7030  140.3460 C   0  0  0  0  0  2  0  0  0  0  0  0
  190.1710  177.0900  141.2590 S   0  0  0  0  0  0  0  0  0  0  0  0
  189.3320  177.3350  145.2650 C   0  0  0  0  0  0  0  0  0  0  0  0
  186.0260  177.5550  144.0960 O   0  0  0  0  0  0  0  0  0  0  0  0
  187.9790  177.4550  145.2440 N   0  0  0  0  0  0  0  0  0  0  0  0
  190.0180  177.3450  146.5160 N   0  0  0  0  0  1  0  0  0  0  0  0
  190.0490  177.2060  144.0620 C   0  0  2  0  0  3  0  0  0  0  0  0
  189.3390  177.2190  142.8460 C   0  0  0  0  0  0  0  0  0  0  0  0
  187.9510  177.3520  142.8570 C   0  0  0  0  0  3  0  0  0  0  0  0
  187.2790  177.4620  144.0760 C   0  0  0  0  0  0  0  0  0  0  0  0
  191.7710  175.5240  144.0510 N   0  0  0  0  0  1  0  0  0  0  0  0
  191.5290  176.9570  144.0840 C   0  0  0  0  0  2  0  0  0  0  0  0
  1 26  1  6  0  0  0
  1  3  1  0  0  0  0
  3  2  1  6  0  0  0
  3 39  1  0  0  0  0
  4  1  1  0  0  0  0
  4  3  1  0  0  0  0
  5 10  2  0  0  0  0
  5  8  1  0  0  0  0
  7  6  2  0  0  0  0
  7  4  1  0  0  0  0
  8  9  2  0  0  0  0
  9  6  1  0  0  0  0
 10  7  1  0  0  0  0
 11 10  1  0  0  0  0
 12 13  2  0  0  0  0
 13 11  2  0  0  0  0
 14  8  1  0  0  0  0
 15 14  1  0  0  0  0
 15 17  1  0  0  0  0
 16 19  2  0  0  0  0
 17 19  1  0  0  0  0
 17 18  1  0  0  0  0
 18 20  1  0  0  0  0
 19 18  1  0  0  0  0
 20 21  2  0  0  0  0
 22 21  1  0  0  0  0
 22 23  1  0  0  0  0
 23 25  1  0  0  0  0
 23 24  1  0  0  0  0
 26 27  1  6  0  0  0
 26 28  1  0  0  0  0
 28 29  1  0  0  0  0
 29 30  1  6  0  0  0
 29 32  1  0  0  0  0
 32 31  1  6  0  0  0
 33 38  1  6  0  0  0
 33 32  1  0  0  0  0
 33 36  1  0  0  0  0
 36 34  2  0  0  0  0
 36 35  1  0  0  0  0
 37 38  1  0  0  0  0
 39 40  1  0  0  0  0
 40 46  1  0  0  0  0
 41 44  1  0  0  0  0
 43 41  2  0  0  0  0
 45 50  1  1  0  0  0
 45 41  1  0  0  0  0
 46 47  2  0  0  0  0
 46 45  1  0  0  0  0
 47 48  1  0  0  0  0
 48 42  2  0  0  0  0
 48 43  1  0  0  0  0
 49 50  1  0  0  0  0
M  END
>  <MODEL>
2

>  <REMARK>
 VINA RESULT:      -7.1      3.253      7.358
  Name = 
  19 active torsions:
  status: ('A' for Active; 'I' for Inactive)
    1  A    between atoms: C_1  and  C_2
    2  A    between atoms: C_1  and  C_14
    3  A    between atoms: C_2  and  C_31
    4  A    between atoms: C_3  and  C_22
    5  A    between atoms: S_4  and  C_36
    6  A    between atoms: S_4  and  C_40
    7  A    between atoms: C_5  and  C_14
    8  A    between atoms: O_6  and  C_15
    9  A    between atoms: O_6  and  C_34
   10  A    between atoms: N_7  and  C_50
   11  A    between atoms: C_15  and  N_42
   12  A    between atoms: C_16  and  C_31
   13  A    between atoms: C_16  and  O_32
   14  A    between atoms: C_16  and  C_41
   15  A    between atoms: C_22  and  C_37
   16  A    between atoms: C_25  and  C_33
   17  A    between atoms: C_28  and  N_49
   18  A    between atoms: C_29  and  N_43
   19  A    between atoms: C_40  and  C_48
                            x       y       z     vdW  Elec       q    Type
                         _______ _______ _______ _____ _____    ______ ____

>  <TORSDO>
F 19

$$$$
=
 OpenBabel10222419023D

 50 53  0  0  1  0  0  0  0  0999 V2000
  191.3350  176.7370  137.7280 C   0  0  1  0  0  3  0  0  0  0  0  0
  190.9450  174.3730  138.0200 O   0  0  0  0  0  1  0  0  0  0  0  0
  190.4630  175.6500  137.7120 C   0  0  1  0  0  0  0  0  0  0  0  0
  190.4380  176.5190  138.9210 N   0  0  0  0  0  0  0  0  0  0  0  0
  187.9650  177.8070  141.4040 C   0  0  0  0  0  3  0  0  0  0  0  0
  190.4210  176.4750  141.3610 C   0  0  0  0  0  3  0  0  0  0  0  0
  189.8470  176.9010  140.1590 C   0  0  0  0  0  0  0  0  0  0  0  0
  188.5560  177.3970  142.6120 C   0  0  0  0  0  0  0  0  0  0  0  0
  189.7870  176.7330  142.5800 C   0  0  0  0  0  3  0  0  0  0  0  0
  188.6120  177.5780  140.1720 C   0  0  0  0  0  0  0  0  0  0  0  0
  187.9660  177.8780  138.9260 N   0  0  0  0  0  0  0  0  0  0  0  0
  185.6340  178.7730  138.6730 O   0  0  0  0  0  0  0  0  0  0  0  0
  186.7800  178.3340  138.8100 C   0  0  0  0  0  0  0  0  0  0  0  0
  187.9010  177.5830  143.8340 O   0  0  0  0  0  0  0  0  0  0  0  0
  188.4220  177.0370  145.0380 C   0  0  0  0  0  2  0  0  0  0  0  0
  188.3770  178.4320  148.5530 O   0  0  0  0  0  0  0  0  0  0  0  0
  187.7340  177.6040  146.1840 N   0  0  0  0  0  0  0  0  0  0  0  0
  186.5340  178.0370  146.7760 N   0  0  0  0  0  0  0  0  0  0  0  0
  187.7470  178.1120  147.5070 C   0  0  0  0  0  0  0  0  0  0  0  0
  185.1470  178.3310  146.6310 C   0  0  0  0  0  3  0  0  0  0  0  0
  184.6570  178.6880  145.4390 C   0  0  0  0  0  3  0  0  0  0  0  0
  185.5800  178.9730  144.2830 C   0  0  0  0  0  2  0  0  0  0  0  0
  184.8030  179.1190  142.9690 C   0  0  0  0  0  3  0  0  0  0  0  0
  185.5260  179.9210  142.0850 O   0  0  0  0  0  1  0  0  0  0  0  0
  184.5560  177.8700  142.3800 O   0  0  0  0  0  1  0  0  0  0  0  0
  192.7790  176.3370  138.0420 C   0  0  2  0  0  3  0  0  0  0  0  0
  193.3450  177.1780  138.9950 O   0  0  0  0  0  1  0  0  0  0  0  0
  193.6270  176.3580  136.7770 C   0  0  0  0  0  2  0  0  0  0  0  0
  194.1620  174.9720  136.3910 C   0  0  1  0  0  3  0  0  0  0  0  0
  194.2510  174.8240  134.9400 N   0  0  0  0  0  1  0  0  0  0  0  0
  196.4960  175.5570  136.6610 O   0  0  0  0  0  1  0  0  0  0  0  0
  195.4990  174.6670  137.0740 C   0  0  2  0  0  3  0  0  0  0  0  0
  195.9410  173.2160  136.8370 C   0  0  2  0  0  3  0  0  0  0  0  0
  195.2470  172.7620  139.0710 O   0  0  0  0  0  1  0  0  0  0  0  0
  195.0080  171.0240  137.6040 O   0  0  0  0  0  0  0  0  0  0  0  0
  195.3760  172.3280  137.8970 C   0  0  0  0  0  0  0  0  0  0  0  0
  197.6360  172.0380  135.9920 C   0  0  0  0  0  1  0  0  0  0  0  0
  197.3430  173.1230  136.8300 O   0  0  0  0  0  0  0  0  0  0  0  0
  189.1720  175.7110  136.8910 C   0  0  0  0  0  2  0  0  0  0  0  0
  189.0530  174.4440  135.5700 S   0  0  0  0  0  0  0  0  0  0  0  0
  185.3060  172.8080  135.8700 C   0  0  0  0  0  0  0  0  0  0  0  0
  184.5090  175.9940  137.1220 O   0  0  0  0  0  0  0  0  0  0  0  0
  184.6040  173.8490  136.3900 N   0  0  0  0  0  0  0  0  0  0  0  0
  184.6410  171.5710  135.6180 N   0  0  0  0  0  1  0  0  0  0  0  0
  186.6760  172.9490  135.5880 C   0  0  2  0  0  3  0  0  0  0  0  0
  187.3010  174.1790  135.8690 C   0  0  0  0  0  0  0  0  0  0  0  0
  186.5560  175.2270  136.4100 C   0  0  0  0  0  3  0  0  0  0  0  0
  185.1940  175.0470  136.6590 C   0  0  0  0  0  0  0  0  0  0  0  0
  188.0370  170.9920  135.9150 N   0  0  0  0  0  1  0  0  0  0  0  0
  187.4280  171.8440  134.9080 C   0  0  0  0  0  2  0  0  0  0  0  0
  1 26  1  1  0  0  0
  1  4  1  0  0  0  0
  3  1  1  0  0  0  0
  3  2  1  1  0  0  0
  3  4  1  0  0  0  0
  4  7  1  0  0  0  0
  5  8  1  0  0  0  0
  6  9  1  0  0  0  0
  7 10  1  0  0  0  0
  7  6  2  0  0  0  0
  8 14  1  0  0  0  0
  9  8  2  0  0  0  0
 10  5  2  0  0  0  0
 11 10  1  0  0  0  0
 12 13  2  0  0  0  0
 13 11  2  0  0  0  0
 14 15  1  0  0  0  0
 15 17  1  0  0  0  0
 17 18  1  0  0  0  0
 17 19  1  0  0  0  0
 18 19  1  0  0  0  0
 19 16  2  0  0  0  0
 20 18  1  0  0  0  0
 21 20  2  0  0  0  0
 22 21  1  0  0  0  0
 23 22  1  0  0  0  0
 24 23  1  0  0  0  0
 25 23  1  0  0  0  0
 26 27  1  1  0  0  0
 28 26  1  0  0  0  0
 29 30  1  6  0  0  0
 29 28  1  0  0  0  0
 29 32  1  0  0  0  0
 32 31  1  6  0  0  0
 33 38  1  1  0  0  0
 33 32  1  0  0  0  0
 33 36  1  0  0  0  0
 35 36  2  0  0  0  0
 36 34  1  0  0  0  0
 37 38  1  0  0  0  0
 39  3  1  0  0  0  0
 40 46  1  0  0  0  0
 40 39  1  0  0  0  0
 41 43  2  0  0  0  0
 43 48  1  0  0  0  0
 44 41  1  0  0  0  0
 45 50  1  6  0  0  0
 45 46  1  0  0  0  0
 45 41  1  0  0  0  0
 46 47  2  0  0  0  0
 47 48  1  0  0  0  0
 48 42  2  0  0  0  0
 50 49  1  0  0  0  0
M  END
>  <MODEL>
3

>  <REMARK>
 VINA RESULT:      -7.0      1.810      2.972
  Name = 
  19 active torsions:
  status: ('A' for Active; 'I' for Inactive)
    1  A    between atoms: C_1  and  C_2
    2  A    between atoms: C_1  and  C_14
    3  A    between atoms: C_2  and  C_31
    4  A    between atoms: C_3  and  C_22
    5  A    between atoms: S_4  and  C_36
    6  A    between atoms: S_4  and  C_40
    7  A    between atoms: C_5  and  C_14
    8  A    between atoms: O_6  and  C_15
    9  A    between atoms: O_6  and  C_34
   10  A    between atoms: N_7  and  C_50
   11  A    between atoms: C_15  and  N_42
   12  A    between atoms: C_16  and  C_31
   13  A    between atoms: C_16  and  O_32
   14  A    between atoms: C_16  and  C_41
   15  A    between atoms: C_22  and  C_37
   16  A    between atoms: C_25  and  C_33
   17  A    between atoms: C_28  and  N_49
   18  A    between atoms: C_29  and  N_43
   19  A    between atoms: C_40  and  C_48
                            x       y       z     vdW  Elec       q    Type
                         _______ _______ _______ _____ _____    ______ ____

>  <TORSDO>
F 19

$$$$
=
 OpenBabel10222419023D

 50 53  0  0  1  0  0  0  0  0999 V2000
  191.3920  176.4190  137.2010 C   0  0  1  0  0  3  0  0  0  0  0  0
  191.1620  174.1170  137.8900 O   0  0  0  0  0  1  0  0  0  0  0  0
  190.5790  175.3260  137.4960 C   0  0  1  0  0  0  0  0  0  0  0  0
  190.7270  176.3630  138.5540 N   0  0  0  0  0  0  0  0  0  0  0  0
  188.6390  177.8500  141.2690 C   0  0  0  0  0  3  0  0  0  0  0  0
  191.1950  176.7790  140.9130 C   0  0  0  0  0  3  0  0  0  0  0  0
  190.3440  176.9120  139.8110 C   0  0  0  0  0  0  0  0  0  0  0  0
  189.5050  177.7350  142.3700 C   0  0  0  0  0  0  0  0  0  0  0  0
  190.7840  177.2000  142.1810 C   0  0  0  0  0  3  0  0  0  0  0  0
  189.0570  177.4560  139.9810 C   0  0  0  0  0  0  0  0  0  0  0  0
  188.1440  177.4510  138.8720 N   0  0  0  0  0  0  0  0  0  0  0  0
  185.9640  178.6920  138.7760 O   0  0  0  0  0  0  0  0  0  0  0  0
  187.0380  178.0870  138.8340 C   0  0  0  0  0  0  0  0  0  0  0  0
  189.0830  178.0840  143.6570 O   0  0  0  0  0  0  0  0  0  0  0  0
  190.0120  178.5150  144.6430 C   0  0  0  0  0  2  0  0  0  0  0  0
  190.9050  176.0650  147.3820 O   0  0  0  0  0  0  0  0  0  0  0  0
  189.7450  177.8500  145.9060 N   0  0  0  0  0  0  0  0  0  0  0  0
  188.9080  177.6750  147.0220 N   0  0  0  0  0  0  0  0  0  0  0  0
  190.1010  176.9170  146.9120 C   0  0  0  0  0  0  0  0  0  0  0  0
  187.7710  178.1090  147.7670 C   0  0  0  0  0  3  0  0  0  0  0  0
  186.6060  178.3230  147.1480 C   0  0  0  0  0  3  0  0  0  0  0  0
  186.5170  178.2990  145.6440 C   0  0  0  0  0  2  0  0  0  0  0  0
  185.2290  178.9650  145.1490 C   0  0  0  0  0  3  0  0  0  0  0  0
  184.7420  178.2740  144.0390 O   0  0  0  0  0  1  0  0  0  0  0  0
  184.2500  178.9950  146.1540 O   0  0  0  0  0  1  0  0  0  0  0  0
  192.8850  176.0950  137.3060 C   0  0  2  0  0  3  0  0  0  0  0  0
  193.5810  177.1070  137.9590 O   0  0  0  0  0  1  0  0  0  0  0  0
  193.4830  175.8770  135.9220 C   0  0  0  0  0  2  0  0  0  0  0  0
  194.4670  174.7000  135.8730 C   0  0  1  0  0  3  0  0  0  0  0  0
  194.1930  173.8260  134.7360 N   0  0  0  0  0  1  0  0  0  0  0  0
  196.5980  174.7760  134.7230 O   0  0  0  0  0  1  0  0  0  0  0  0
  195.9240  175.1750  135.8830 C   0  0  2  0  0  3  0  0  0  0  0  0
  196.6720  174.6930  137.1320 C   0  0  2  0  0  3  0  0  0  0  0  0
  198.2440  172.9400  136.7640 O   0  0  0  0  0  1  0  0  0  0  0  0
  199.0410  175.0530  136.4100 O   0  0  0  0  0  0  0  0  0  0  0  0
  198.0230  174.1780  136.7540 C   0  0  0  0  0  0  0  0  0  0  0  0
  195.8040  174.1330  139.1090 C   0  0  0  0  0  1  0  0  0  0  0  0
  195.9420  173.6870  137.7880 O   0  0  0  0  0  0  0  0  0  0  0  0
  189.1630  175.2430  136.9180 C   0  0  0  0  0  2  0  0  0  0  0  0
  189.0960  175.1420  135.0880 S   0  0  0  0  0  0  0  0  0  0  0  0
  185.5510  173.0850  134.9680 C   0  0  0  0  0  0  0  0  0  0  0  0
  187.6550  170.3270  135.5310 O   0  0  0  0  0  0  0  0  0  0  0  0
  185.9800  171.8100  135.1610 N   0  0  0  0  0  0  0  0  0  0  0  0
  184.1600  173.3370  134.7790 N   0  0  0  0  0  1  0  0  0  0  0  0
  186.4740  174.1460  134.9520 C   0  0  2  0  0  3  0  0  0  0  0  0
  187.8410  173.8560  135.1230 C   0  0  0  0  0  0  0  0  0  0  0  0
  188.2500  172.5370  135.3120 C   0  0  0  0  0  3  0  0  0  0  0  0
  187.2980  171.5160  135.3360 C   0  0  0  0  0  0  0  0  0  0  0  0
  185.5240  175.9990  136.1600 N   0  0  0  0  0  1  0  0  0  0  0  0
  185.9960  175.5650  134.8560 C   0  0  0  0  0  2  0  0  0  0  0  0
  1 26  1  1  0  0  0
  1  3  1  0  0  0  0
  1  4  1  0  0  0  0
  3  2  1  1  0  0  0
  3  4  1  0  0  0  0
  4  7  1  0  0  0  0
  5  8  1  0  0  0  0
  6  9  1  0  0  0  0
  7 10  1  0  0  0  0
  7  6  2  0  0  0  0
  8 14  1  0  0  0  0
  9  8  2  0  0  0  0
 10  5  2  0  0  0  0
 11 10  1  0  0  0  0
 12 13  2  0  0  0  0
 13 11  2  0  0  0  0
 14 15  1  0  0  0  0
 15 17  1  0  0  0  0
 17 19  1  0  0  0  0
 17 18  1  0  0  0  0
 18 20  1  0  0  0  0
 19 18  1  0  0  0  0
 19 16  2  0  0  0  0
 21 20  2  0  0  0  0
 22 21  1  0  0  0  0
 23 22  1  0  0  0  0
 23 25  1  0  0  0  0
 24 23  1  0  0  0  0
 26 27  1  6  0  0  0
 28 26  1  0  0  0  0
 29 30  1  6  0  0  0
 29 32  1  0  0  0  0
 29 28  1  0  0  0  0
 32 31  1  6  0  0  0
 32 33  1  0  0  0  0
 33 36  1  6  0  0  0
 33 38  1  0  0  0  0
 35 36  2  0  0  0  0
 36 34  1  0  0  0  0
 38 37  1  0  0  0  0
 39  3  1  0  0  0  0
 40 46  1  0  0  0  0
 40 39  1  0  0  0  0
 41 43  2  0  0  0  0
 43 48  1  0  0  0  0
 44 41  1  0  0  0  0
 45 50  1  1  0  0  0
 45 41  1  0  0  0  0
 45 46  1  0  0  0  0
 46 47  2  0  0  0  0
 47 48  1  0  0  0  0
 48 42  2  0  0  0  0
 50 49  1  0  0  0  0
M  END
>  <MODEL>
4

>  <REMARK>
 VINA RESULT:      -7.0      1.760      3.294
  Name = 
  19 active torsions:
  status: ('A' for Active; 'I' for Inactive)
    1  A    between atoms: C_1  and  C_2
    2  A    between atoms: C_1  and  C_14
    3  A    between atoms: C_2  and  C_31
    4  A    between atoms: C_3  and  C_22
    5  A    between atoms: S_4  and  C_36
    6  A    between atoms: S_4  and  C_40
    7  A    between atoms: C_5  and  C_14
    8  A    between atoms: O_6  and  C_15
    9  A    between atoms: O_6  and  C_34
   10  A    between atoms: N_7  and  C_50
   11  A    between atoms: C_15  and  N_42
   12  A    between atoms: C_16  and  C_31
   13  A    between atoms: C_16  and  O_32
   14  A    between atoms: C_16  and  C_41
   15  A    between atoms: C_22  and  C_37
   16  A    between atoms: C_25  and  C_33
   17  A    between atoms: C_28  and  N_49
   18  A    between atoms: C_29  and  N_43
   19  A    between atoms: C_40  and  C_48
                            x       y       z     vdW  Elec       q    Type
                         _______ _______ _______ _____ _____    ______ ____

>  <TORSDO>
F 19

$$$$
=
 OpenBabel10222419023D

 50 53  0  0  1  0  0  0  0  0999 V2000
  189.2680  176.7540  139.7480 C   0  0  1  0  0  3  0  0  0  0  0  0
  189.2750  178.7410  138.3790 O   0  0  0  0  0  1  0  0  0  0  0  0
  188.9230  177.4000  138.5630 C   0  0  1  0  0  0  0  0  0  0  0  0
  190.1240  176.5200  138.5280 N   0  0  0  0  0  0  0  0  0  0  0  0
  191.8890  174.0060  136.4060 C   0  0  0  0  0  3  0  0  0  0  0  0
  192.3360  176.5380  137.4980 C   0  0  0  0  0  3  0  0  0  0  0  0
  191.1520  175.8580  137.7990 C   0  0  0  0  0  0  0  0  0  0  0  0
  193.0880  174.6830  136.1250 C   0  0  0  0  0  0  0  0  0  0  0  0
  193.3040  175.9500  136.6780 C   0  0  0  0  0  3  0  0  0  0  0  0
  190.9210  174.5790  137.2570 C   0  0  0  0  0  0  0  0  0  0  0  0
  189.6430  173.9560  137.4540 N   0  0  0  0  0  0  0  0  0  0  0  0
  188.4320  172.5500  135.7640 O   0  0  0  0  0  0  0  0  0  0  0  0
  189.0370  173.2430  136.5880 C   0  0  0  0  0  0  0  0  0  0  0  0
  194.0340  174.1400  135.2490 O   0  0  0  0  0  0  0  0  0  0  0  0
  194.2020  172.7340  135.1290 C   0  0  0  0  0  2  0  0  0  0  0  0
  195.3940  171.3700  138.4490 O   0  0  0  0  0  0  0  0  0  0  0  0
  195.2470  172.2770  136.0270 N   0  0  0  0  0  0  0  0  0  0  0  0
  196.6110  172.0260  136.2590 N   0  0  0  0  0  0  0  0  0  0  0  0
  195.6650  171.7760  137.2860 C   0  0  0  0  0  0  0  0  0  0  0  0
  197.9350  171.9370  135.7360 C   0  0  0  0  0  3  0  0  0  0  0  0
  198.4540  172.9580  135.0450 C   0  0  0  0  0  3  0  0  0  0  0  0
  197.5960  174.1290  134.6440 C   0  0  0  0  0  2  0  0  0  0  0  0
  197.8440  175.3420  135.5490 C   0  0  0  0  0  3  0  0  0  0  0  0
  196.8270  175.4320  136.4990 O   0  0  0  0  0  1  0  0  0  0  0  0
  199.0870  175.2510  136.1940 O   0  0  0  0  0  1  0  0  0  0  0  0
  189.9710  177.6780  140.7470 C   0  0  2  0  0  3  0  0  0  0  0  0
  191.1930  177.1520  141.1560 O   0  0  0  0  0  1  0  0  0  0  0  0
  189.0880  177.9200  141.9640 C   0  0  0  0  0  2  0  0  0  0  0  0
  189.7900  177.5900  143.2890 C   0  0  1  0  0  3  0  0  0  0  0  0
  190.2060  178.8040  143.9850 N   0  0  0  0  0  1  0  0  0  0  0  0
  187.9430  176.0300  143.4400 O   0  0  0  0  0  1  0  0  0  0  0  0
  188.9280  176.6930  144.1820 C   0  0  2  0  0  3  0  0  0  0  0  0
  188.2910  177.4800  145.3350 C   0  0  2  0  0  3  0  0  0  0  0  0
  188.1970  176.9340  147.6530 O   0  0  0  0  0  1  0  0  0  0  0  0
  190.2880  176.8990  146.7280 O   0  0  0  0  0  0  0  0  0  0  0  0
  188.9170  177.0850  146.6330 C   0  0  0  0  0  0  0  0  0  0  0  0
  186.3210  178.5250  145.2940 C   0  0  0  0  0  1  0  0  0  0  0  0
  186.9060  177.2550  145.3820 O   0  0  0  0  0  0  0  0  0  0  0  0
  187.7610  176.8780  137.7130 C   0  0  0  0  0  2  0  0  0  0  0  0
  186.6580  178.1860  137.0530 S   0  0  0  0  0  0  0  0  0  0  0  0
  183.2600  177.0330  139.0370 C   0  0  0  0  0  0  0  0  0  0  0  0
  183.2530  174.4890  136.6130 O   0  0  0  0  0  0  0  0  0  0  0  0
  182.8900  175.9430  138.3150 N   0  0  0  0  0  0  0  0  0  0  0  0
  182.4590  177.4480  140.1410 N   0  0  0  0  0  1  0  0  0  0  0  0
  184.4220  177.7480  138.6930 C   0  0  2  0  0  3  0  0  0  0  0  0
  185.1770  177.3200  137.5840 C   0  0  0  0  0  0  0  0  0  0  0  0
  184.7670  176.2020  136.8590 C   0  0  0  0  0  3  0  0  0  0  0  0
  183.6150  175.5130  137.2450 C   0  0  0  0  0  0  0  0  0  0  0  0
  184.3280  180.1240  139.0640 N   0  0  0  0  0  1  0  0  0  0  0  0
  184.8980  178.8810  139.5550 C   0  0  0  0  0  2  0  0  0  0  0  0
  1 26  1  1  0  0  0
  3  2  1  6  0  0  0
  3  1  1  0  0  0  0
  4  3  1  0  0  0  0
  4  1  1  0  0  0  0
  5 10  1  0  0  0  0
  6  7  1  0  0  0  0
  7  4  1  0  0  0  0
  8  5  2  0  0  0  0
  8  9  1  0  0  0  0
  9  6  2  0  0  0  0
 10 11  1  0  0  0  0
 10  7  2  0  0  0  0
 12 13  2  0  0  0  0
 13 11  2  0  0  0  0
 14  8  1  0  0  0  0
 15 14  1  0  0  0  0
 15 17  1  0  0  0  0
 17 18  1  0  0  0  0
 17 19  1  0  0  0  0
 18 19  1  0  0  0  0
 19 16  2  0  0  0  0
 20 18  1  0  0  0  0
 21 20  2  0  0  0  0
 22 21  1  0  0  0  0
 22 23  1  0  0  0  0
 23 25  1  0  0  0  0
 23 24  1  0  0  0  0
 26 27  1  1  0  0  0
 26 28  1  0  0  0  0
 28 29  1  0  0  0  0
 29 30  1  1  0  0  0
 29 32  1  0  0  0  0
 32 31  1  6  0  0  0
 32 33  1  0  0  0  0
 33 38  1  1  0  0  0
 33 36  1  0  0  0  0
 36 35  2  0  0  0  0
 36 34  1  0  0  0  0
 37 38  1  0  0  0  0
 39  3  1  0  0  0  0
 40 46  1  0  0  0  0
 40 39  1  0  0  0  0
 41 44  1  0  0  0  0
 42 48  2  0  0  0  0
 43 41  2  0  0  0  0
 45 41  1  0  0  0  0
 45 50  1  1  0  0  0
 46 45  1  0  0  0  0
 47 48  1  0  0  0  0
 47 46  2  0  0  0  0
 48 43  1  0  0  0  0
 49 50  1  0  0  0  0
M  END
>  <MODEL>
5

>  <REMARK>
 VINA RESULT:      -6.8      2.481      9.412
  Name = 
  19 active torsions:
  status: ('A' for Active; 'I' for Inactive)
    1  A    between atoms: C_1  and  C_2
    2  A    between atoms: C_1  and  C_14
    3  A    between atoms: C_2  and  C_31
    4  A    between atoms: C_3  and  C_22
    5  A    between atoms: S_4  and  C_36
    6  A    between atoms: S_4  and  C_40
    7  A    between atoms: C_5  and  C_14
    8  A    between atoms: O_6  and  C_15
    9  A    between atoms: O_6  and  C_34
   10  A    between atoms: N_7  and  C_50
   11  A    between atoms: C_15  and  N_42
   12  A    between atoms: C_16  and  C_31
   13  A    between atoms: C_16  and  O_32
   14  A    between atoms: C_16  and  C_41
   15  A    between atoms: C_22  and  C_37
   16  A    between atoms: C_25  and  C_33
   17  A    between atoms: C_28  and  N_49
   18  A    between atoms: C_29  and  N_43
   19  A    between atoms: C_40  and  C_48
                            x       y       z     vdW  Elec       q    Type
                         _______ _______ _______ _____ _____    ______ ____

>  <TORSDO>
F 19

$$$$
=
 OpenBabel10222419023D

 50 53  0  0  1  0  0  0  0  0999 V2000
  188.3680  178.1830  143.6060 C   0  0  1  0  0  3  0  0  0  0  0  0
  188.8270  176.1000  142.4780 O   0  0  0  0  0  1  0  0  0  0  0  0
  188.7980  177.4980  142.4710 C   0  0  1  0  0  0  0  0  0  0  0  0
  187.3980  178.0050  142.4650 N   0  0  0  0  0  0  0  0  0  0  0  0
  183.8610  179.0000  141.8000 C   0  0  0  0  0  3  0  0  0  0  0  0
  186.1640  178.3040  140.3800 C   0  0  0  0  0  3  0  0  0  0  0  0
  186.1760  178.2570  141.7780 C   0  0  0  0  0  0  0  0  0  0  0  0
  183.8460  179.0240  140.3940 C   0  0  0  0  0  0  0  0  0  0  0  0
  185.0040  178.6720  139.6930 C   0  0  0  0  0  3  0  0  0  0  0  0
  185.0170  178.6010  142.5010 C   0  0  0  0  0  0  0  0  0  0  0  0
  185.0870  178.6890  143.9320 N   0  0  0  0  0  0  0  0  0  0  0  0
  183.1270  179.0050  145.4690 O   0  0  0  0  0  0  0  0  0  0  0  0
  184.0830  178.8490  144.7030 C   0  0  0  0  0  0  0  0  0  0  0  0
  182.7160  179.4600  139.6940 O   0  0  0  0  0  0  0  0  0  0  0  0
  181.7960  178.5320  139.1350 C   0  0  0  0  0  2  0  0  0  0  0  0
  180.8090  180.9280  136.3800 O   0  0  0  0  0  0  0  0  0  0  0  0
  181.5490  178.8510  137.7400 N   0  0  0  0  0  0  0  0  0  0  0  0
  181.5140  178.4350  136.3970 N   0  0  0  0  0  0  0  0  0  0  0  0
  181.1640  179.7690  136.7300 C   0  0  0  0  0  0  0  0  0  0  0  0
  181.8050  177.4280  135.4300 C   0  0  0  0  0  3  0  0  0  0  0  0
  182.9370  176.7210  135.5180 C   0  0  0  0  0  3  0  0  0  0  0  0
  184.0040  177.0980  136.5120 C   0  0  0  0  0  2  0  0  0  0  0  0
  184.3640  175.9170  137.4210 C   0  0  0  0  0  3  0  0  0  0  0  0
  183.2230  175.4830  138.0970 O   0  0  0  0  0  1  0  0  0  0  0  0
  184.9100  174.8540  136.6850 O   0  0  0  0  0  1  0  0  0  0  0  0
  188.0270  177.2490  144.7710 C   0  0  2  0  0  3  0  0  0  0  0  0
  186.8350  176.5660  144.5450 O   0  0  0  0  0  1  0  0  0  0  0  0
  187.9240  178.0330  146.0730 C   0  0  0  0  0  2  0  0  0  0  0  0
  189.1650  177.8790  146.9640 C   0  0  1  0  0  3  0  0  0  0  0  0
  188.8280  178.0530  148.3750 N   0  0  0  0  0  1  0  0  0  0  0  0
  189.6720  175.6510  147.7670 O   0  0  0  0  0  1  0  0  0  0  0  0
  189.8830  176.5490  146.7150 C   0  0  2  0  0  3  0  0  0  0  0  0
  191.3850  176.7500  146.4730 C   0  0  2  0  0  3  0  0  0  0  0  0
  191.8040  178.1920  144.6230 O   0  0  0  0  0  1  0  0  0  0  0  0
  191.6810  175.9670  144.1140 O   0  0  0  0  0  0  0  0  0  0  0  0
  191.6410  177.0120  145.0240 C   0  0  0  0  0  0  0  0  0  0  0  0
  192.7220  175.9990  148.0930 C   0  0  0  0  0  1  0  0  0  0  0  0
  192.1080  175.6210  146.8920 O   0  0  0  0  0  0  0  0  0  0  0  0
  189.7020  178.1940  141.4500 C   0  0  0  0  0  2  0  0  0  0  0  0
  191.0280  177.1290  140.7620 S   0  0  0  0  0  0  0  0  0  0  0  0
  190.4450  176.8020  136.7180 C   0  0  0  0  0  0  0  0  0  0  0  0
  187.9710  179.2190  137.3370 O   0  0  0  0  0  0  0  0  0  0  0  0
  189.4300  177.6840  136.5260 N   0  0  0  0  0  0  0  0  0  0  0  0
  190.9590  176.0720  135.6060 N   0  0  0  0  0  1  0  0  0  0  0  0
  190.9780  176.6080  138.0040 C   0  0  2  0  0  3  0  0  0  0  0  0
  190.4310  177.3320  139.0800 C   0  0  0  0  0  0  0  0  0  0  0  0
  189.3850  178.2250  138.8520 C   0  0  0  0  0  3  0  0  0  0  0  0
  188.8960  178.3970  137.5550 C   0  0  0  0  0  0  0  0  0  0  0  0
  193.3830  176.5170  138.0650 N   0  0  0  0  0  1  0  0  0  0  0  0
  192.1740  175.7230  138.2040 C   0  0  0  0  0  2  0  0  0  0  0  0
  1 26  1  1  0  0  0
  3  2  1  1  0  0  0
  3  1  1  0  0  0  0
  4  3  1  0  0  0  0
  4  1  1  0  0  0  0
  5 10  1  0  0  0  0
  6  7  1  0  0  0  0
  7  4  1  0  0  0  0
  7 10  2  0  0  0  0
  8  5  2  0  0  0  0
  9  6  2  0  0  0  0
  9  8  1  0  0  0  0
 10 11  1  0  0  0  0
 11 13  2  0  0  0  0
 13 12  2  0  0  0  0
 14  8  1  0  0  0  0
 15 14  1  0  0  0  0
 16 19  2  0  0  0  0
 17 15  1  0  0  0  0
 18 19  1  0  0  0  0
 18 17  1  0  0  0  0
 19 17  1  0  0  0  0
 20 21  2  0  0  0  0
 20 18  1  0  0  0  0
 21 22  1  0  0  0  0
 22 23  1  0  0  0  0
 23 24  1  0  0  0  0
 25 23  1  0  0  0  0
 26 27  1  6  0  0  0
 26 28  1  0  0  0  0
 28 29  1  0  0  0  0
 29 30  1  1  0  0  0
 32 29  1  0  0  0  0
 32 31  1  1  0  0  0
 33 36  1  6  0  0  0
 33 32  1  0  0  0  0
 33 38  1  0  0  0  0
 34 36  1  0  0  0  0
 35 36  2  0  0  0  0
 38 37  1  0  0  0  0
 39  3  1  0  0  0  0
 40 39  1  0  0  0  0
 41 45  1  0  0  0  0
 42 48  2  0  0  0  0
 43 41  2  0  0  0  0
 43 48  1  0  0  0  0
 44 41  1  0  0  0  0
 45 50  1  6  0  0  0
 45 46  1  0  0  0  0
 46 40  1  0  0  0  0
 47 46  2  0  0  0  0
 48 47  1  0  0  0  0
 49 50  1  0  0  0  0
M  END
>  <MODEL>
6

>  <REMARK>
 VINA RESULT:      -6.7      3.739      8.903
  Name = 
  19 active torsions:
  status: ('A' for Active; 'I' for Inactive)
    1  A    between atoms: C_1  and  C_2
    2  A    between atoms: C_1  and  C_14
    3  A    between atoms: C_2  and  C_31
    4  A    between atoms: C_3  and  C_22
    5  A    between atoms: S_4  and  C_36
    6  A    between atoms: S_4  and  C_40
    7  A    between atoms: C_5  and  C_14
    8  A    between atoms: O_6  and  C_15
    9  A    between atoms: O_6  and  C_34
   10  A    between atoms: N_7  and  C_50
   11  A    between atoms: C_15  and  N_42
   12  A    between atoms: C_16  and  C_31
   13  A    between atoms: C_16  and  O_32
   14  A    between atoms: C_16  and  C_41
   15  A    between atoms: C_22  and  C_37
   16  A    between atoms: C_25  and  C_33
   17  A    between atoms: C_28  and  N_49
   18  A    between atoms: C_29  and  N_43
   19  A    between atoms: C_40  and  C_48
                            x       y       z     vdW  Elec       q    Type
                         _______ _______ _______ _____ _____    ______ ____

>  <TORSDO>
F 19

$$$$
=
 OpenBabel10222419023D

 50 53  0  0  1  0  0  0  0  0999 V2000
  186.5090  179.2510  141.7490 C   0  0  1  0  0  3  0  0  0  0  0  0
  186.0290  177.1680  142.8700 O   0  0  0  0  0  1  0  0  0  0  0  0
  186.8810  178.2550  142.6500 C   0  0  1  0  0  0  0  0  0  0  0  0
  187.4860  178.1960  141.2910 N   0  0  0  0  0  0  0  0  0  0  0  0
  189.1770  177.2630  138.0950 C   0  0  0  0  0  3  0  0  0  0  0  0
  189.6600  177.1790  140.8460 C   0  0  0  0  0  3  0  0  0  0  0  0
  188.4240  177.6370  140.3770 C   0  0  0  0  0  0  0  0  0  0  0  0
  190.4090  176.7820  138.5720 C   0  0  0  0  0  0  0  0  0  0  0  0
  190.6400  176.7420  139.9510 C   0  0  0  0  0  3  0  0  0  0  0  0
  188.1710  177.6770  138.9930 C   0  0  0  0  0  0  0  0  0  0  0  0
  186.9580  178.2840  138.5210 N   0  0  0  0  0  0  0  0  0  0  0  0
  185.4260  177.3190  136.7820 O   0  0  0  0  0  0  0  0  0  0  0  0
  186.1870  177.7830  137.6370 C   0  0  0  0  0  0  0  0  0  0  0  0
  191.4270  176.4100  137.6870 O   0  0  0  0  0  0  0  0  0  0  0  0
  192.7890  176.7050  137.9690 C   0  0  0  0  0  2  0  0  0  0  0  0
  195.1170  177.4780  135.0910 O   0  0  0  0  0  0  0  0  0  0  0  0
  193.6290  176.3020  136.8550 N   0  0  0  0  0  0  0  0  0  0  0  0
  194.1640  175.2730  136.0600 N   0  0  0  0  0  0  0  0  0  0  0  0
  194.4900  176.6240  135.7760 C   0  0  0  0  0  0  0  0  0  0  0  0
  194.3500  173.8750  135.8490 C   0  0  0  0  0  3  0  0  0  0  0  0
  195.1410  173.1720  136.6670 C   0  0  0  0  0  3  0  0  0  0  0  0
  195.9920  173.8660  137.6980 C   0  0  0  0  0  2  0  0  0  0  0  0
  197.3850  174.1890  137.1460 C   0  0  0  0  0  3  0  0  0  0  0  0
  197.8370  175.3920  137.6930 O   0  0  0  0  0  1  0  0  0  0  0  0
  198.3000  173.1650  137.4370 O   0  0  0  0  0  1  0  0  0  0  0  0
  185.1220  179.0180  141.1440 C   0  0  2  0  0  3  0  0  0  0  0  0
  184.9440  179.7560  139.9780 O   0  0  0  0  0  1  0  0  0  0  0  0
  184.0340  179.3800  142.1470 C   0  0  0  0  0  2  0  0  0  0  0  0
  182.7750  178.5130  142.0050 C   0  0  1  0  0  3  0  0  0  0  0  0
  181.9920  178.5110  143.2370 N   0  0  0  0  0  1  0  0  0  0  0  0
  180.6730  179.4020  141.1960 O   0  0  0  0  0  1  0  0  0  0  0  0
  181.9290  178.9310  140.7980 C   0  0  2  0  0  3  0  0  0  0  0  0
  181.7790  177.7890  139.7850 C   0  0  2  0  0  3  0  0  0  0  0  0
  179.6130  177.7320  138.7920 O   0  0  0  0  0  0  0  0  0  0  0  0
  179.8390  176.5040  140.7080 O   0  0  0  0  0  1  0  0  0  0  0  0
  180.3550  177.3380  139.7280 C   0  0  0  0  0  0  0  0  0  0  0  0
  182.7630  175.9700  138.9500 C   0  0  0  0  0  1  0  0  0  0  0  0
  182.6100  176.7100  140.1300 O   0  0  0  0  0  0  0  0  0  0  0  0
  187.8960  178.5590  143.7560 C   0  0  0  0  0  2  0  0  0  0  0  0
  187.5760  177.6890  145.3390 S   0  0  0  0  0  0  0  0  0  0  0  0
  191.2930  176.7650  146.7990 C   0  0  0  0  0  0  0  0  0  0  0  0
  191.9240  175.9840  143.4320 O   0  0  0  0  0  0  0  0  0  0  0  0
  191.9270  176.3580  145.6690 N   0  0  0  0  0  0  0  0  0  0  0  0
  191.9940  176.7450  148.0420 N   0  0  0  0  0  1  0  0  0  0  0  0
  189.9560  177.1970  146.7440 C   0  0  2  0  0  3  0  0  0  0  0  0
  189.2920  177.1830  145.5020 C   0  0  0  0  0  0  0  0  0  0  0  0
  189.9670  176.7540  144.3610 C   0  0  0  0  0  3  0  0  0  0  0  0
  191.3000  176.3480  144.4600 C   0  0  0  0  0  0  0  0  0  0  0  0
  188.3260  176.7880  148.4670 N   0  0  0  0  0  1  0  0  0  0  0  0
  189.2880  177.7550  147.9660 C   0  0  0  0  0  2  0  0  0  0  0  0
  1 26  1  6  0  0  0
  1  3  1  0  0  0  0
  3  2  1  1  0  0  0
  3 39  1  0  0  0  0
  4  1  1  0  0  0  0
  4  3  1  0  0  0  0
  5  8  2  0  0  0  0
  5 10  1  0  0  0  0
  7  6  1  0  0  0  0
  7  4  1  0  0  0  0
  8  9  1  0  0  0  0
  9  6  2  0  0  0  0
 10  7  2  0  0  0  0
 11 10  1  0  0  0  0
 12 13  2  0  0  0  0
 13 11  2  0  0  0  0
 14 15  1  0  0  0  0
 14  8  1  0  0  0  0
 16 19  2  0  0  0  0
 17 15  1  0  0  0  0
 18 17  1  0  0  0  0
 19 18  1  0  0  0  0
 19 17  1  0  0  0  0
 20 18  1  0  0  0  0
 20 21  2  0  0  0  0
 21 22  1  0  0  0  0
 23 25  1  0  0  0  0
 23 24  1  0  0  0  0
 23 22  1  0  0  0  0
 26 27  1  6  0  0  0
 26 28  1  0  0  0  0
 29 28  1  0  0  0  0
 29 30  1  1  0  0  0
 32 31  1  1  0  0  0
 32 29  1  0  0  0  0
 33 36  1  1  0  0  0
 33 38  1  0  0  0  0
 33 32  1  0  0  0  0
 34 36  2  0  0  0  0
 36 35  1  0  0  0  0
 37 38  1  0  0  0  0
 39 40  1  0  0  0  0
 40 46  1  0  0  0  0
 41 44  1  0  0  0  0
 42 48  2  0  0  0  0
 43 41  2  0  0  0  0
 45 41  1  0  0  0  0
 45 50  1  6  0  0  0
 46 45  1  0  0  0  0
 47 48  1  0  0  0  0
 47 46  2  0  0  0  0
 48 43  1  0  0  0  0
 50 49  1  0  0  0  0
M  END
>  <MODEL>
7

>  <REMARK>
 VINA RESULT:      -6.6      3.614     11.238
  Name = 
  19 active torsions:
  status: ('A' for Active; 'I' for Inactive)
    1  A    between atoms: C_1  and  C_2
    2  A    between atoms: C_1  and  C_14
    3  A    between atoms: C_2  and  C_31
    4  A    between atoms: C_3  and  C_22
    5  A    between atoms: S_4  and  C_36
    6  A    between atoms: S_4  and  C_40
    7  A    between atoms: C_5  and  C_14
    8  A    between atoms: O_6  and  C_15
    9  A    between atoms: O_6  and  C_34
   10  A    between atoms: N_7  and  C_50
   11  A    between atoms: C_15  and  N_42
   12  A    between atoms: C_16  and  C_31
   13  A    between atoms: C_16  and  O_32
   14  A    between atoms: C_16  and  C_41
   15  A    between atoms: C_22  and  C_37
   16  A    between atoms: C_25  and  C_33
   17  A    between atoms: C_28  and  N_49
   18  A    between atoms: C_29  and  N_43
   19  A    between atoms: C_40  and  C_48
                            x       y       z     vdW  Elec       q    Type
                         _______ _______ _______ _____ _____    ______ ____

>  <TORSDO>
F 19

$$$$
=
 OpenBabel10222419023D

 50 53  0  0  1  0  0  0  0  0999 V2000
  190.6940  177.3650  139.2060 C   0  0  1  0  0  3  0  0  0  0  0  0
  191.1100  175.0410  138.7070 O   0  0  0  0  0  1  0  0  0  0  0  0
  191.2200  176.3910  138.3590 C   0  0  1  0  0  0  0  0  0  0  0  0
  189.8940  176.9610  137.9930 N   0  0  0  0  0  0  0  0  0  0  0  0
  187.0470  176.1080  135.7320 C   0  0  0  0  0  3  0  0  0  0  0  0
  188.2810  178.3670  136.8190 C   0  0  0  0  0  3  0  0  0  0  0  0
  188.8200  177.1000  137.0680 C   0  0  0  0  0  0  0  0  0  0  0  0
  186.5220  177.3850  135.4650 C   0  0  0  0  0  0  0  0  0  0  0  0
  187.1480  178.5100  136.0130 C   0  0  0  0  0  3  0  0  0  0  0  0
  188.2070  175.9580  136.5200 C   0  0  0  0  0  0  0  0  0  0  0  0
  188.6820  174.6580  136.9030 N   0  0  0  0  0  0  0  0  0  0  0  0
  188.8660  172.6690  135.3820 O   0  0  0  0  0  0  0  0  0  0  0  0
  188.7720  173.6540  136.1200 C   0  0  0  0  0  0  0  0  0  0  0  0
  185.3480  177.5390  134.7210 O   0  0  0  0  0  0  0  0  0  0  0  0
  184.1640  176.8290  135.0600 C   0  0  0  0  0  2  0  0  0  0  0  0
  184.5940  178.3750  138.4850 O   0  0  0  0  0  0  0  0  0  0  0  0
  183.6390  177.3080  136.3260 N   0  0  0  0  0  0  0  0  0  0  0  0
  182.5320  177.5230  137.1670 N   0  0  0  0  0  0  0  0  0  0  0  0
  183.8320  177.8790  137.6090 C   0  0  0  0  0  0  0  0  0  0  0  0
  181.1160  177.5240  137.3330 C   0  0  0  0  0  3  0  0  0  0  0  0
  180.5840  177.5310  138.5600 C   0  0  0  0  0  3  0  0  0  0  0  0
  181.4540  177.3440  139.7760 C   0  0  0  0  0  2  0  0  0  0  0  0
  181.5120  178.6200  140.6240 C   0  0  0  0  0  3  0  0  0  0  0  0
  182.5680  178.5290  141.5320 O   0  0  0  0  0  1  0  0  0  0  0  0
  181.6750  179.7590  139.8220 O   0  0  0  0  0  1  0  0  0  0  0  0
  190.0920  176.7780  140.4860 C   0  0  2  0  0  3  0  0  0  0  0  0
  188.8110  177.2700  140.7180 O   0  0  0  0  0  1  0  0  0  0  0  0
  190.9800  177.0860  141.6840 C   0  0  0  0  0  2  0  0  0  0  0  0
  190.3510  176.6640  143.0200 C   0  0  1  0  0  3  0  0  0  0  0  0
  191.3220  175.9820  143.8700 N   0  0  0  0  0  1  0  0  0  0  0  0
  190.6600  178.7790  144.1600 O   0  0  0  0  0  1  0  0  0  0  0  0
  189.7010  177.8490  143.7420 C   0  0  2  0  0  3  0  0  0  0  0  0
  188.8440  177.3910  144.9290 C   0  0  2  0  0  3  0  0  0  0  0  0
  186.5260  177.2620  145.4700 O   0  0  0  0  0  1  0  0  0  0  0  0
  186.9940  177.9980  143.3560 O   0  0  0  0  0  0  0  0  0  0  0  0
  187.3940  177.5510  144.6060 C   0  0  0  0  0  0  0  0  0  0  0  0
  189.4780  177.1710  147.0560 C   0  0  0  0  0  1  0  0  0  0  0  0
  189.1620  178.1280  146.0820 O   0  0  0  0  0  0  0  0  0  0  0  0
  192.3320  176.7510  137.3700 C   0  0  0  0  0  2  0  0  0  0  0  0
  192.5370  175.5570  135.9930 S   0  0  0  0  0  0  0  0  0  0  0  0
  196.5670  175.0810  136.5760 C   0  0  0  0  0  0  0  0  0  0  0  0
  195.4850  172.8120  139.0310 O   0  0  0  0  0  0  0  0  0  0  0  0
  196.5820  174.1700  137.5840 N   0  0  0  0  0  0  0  0  0  0  0  0
  197.8010  175.5830  136.0660 N   0  0  0  0  0  1  0  0  0  0  0  0
  195.3440  175.5270  136.0440 C   0  0  2  0  0  3  0  0  0  0  0  0
  194.1460  175.0230  136.5870 C   0  0  0  0  0  0  0  0  0  0  0  0
  194.1950  174.0950  137.6260 C   0  0  0  0  0  3  0  0  0  0  0  0
  195.4320  173.6680  138.1130 C   0  0  0  0  0  0  0  0  0  0  0  0
  195.4060  177.8200  135.3150 N   0  0  0  0  0  1  0  0  0  0  0  0
  195.3230  176.4430  134.8560 C   0  0  0  0  0  2  0  0  0  0  0  0
  1 26  1  1  0  0  0
  3  2  1  1  0  0  0
  3  1  1  0  0  0  0
  4  3  1  0  0  0  0
  4  1  1  0  0  0  0
  5 10  1  0  0  0  0
  6  7  1  0  0  0  0
  7  4  1  0  0  0  0
  8  5  2  0  0  0  0
  8  9  1  0  0  0  0
  9  6  2  0  0  0  0
 10 11  1  0  0  0  0
 10  7  2  0  0  0  0
 12 13  2  0  0  0  0
 13 11  2  0  0  0  0
 14 15  1  0  0  0  0
 14  8  1  0  0  0  0
 15 17  1  0  0  0  0
 17 18  1  0  0  0  0
 17 19  1  0  0  0  0
 18 20  1  0  0  0  0
 18 19  1  0  0  0  0
 19 16  2  0  0  0  0
 20 21  2  0  0  0  0
 21 22  1  0  0  0  0
 22 23  1  0  0  0  0
 23 24  1  0  0  0  0
 25 23  1  0  0  0  0
 26 27  1  1  0  0  0
 26 28  1  0  0  0  0
 28 29  1  0  0  0  0
 29 32  1  0  0  0  0
 29 30  1  1  0  0  0
 32 31  1  1  0  0  0
 32 33  1  0  0  0  0
 33 36  1  6  0  0  0
 33 38  1  0  0  0  0
 35 36  2  0  0  0  0
 36 34  1  0  0  0  0
 38 37  1  0  0  0  0
 39  3  1  0  0  0  0
 40 46  1  0  0  0  0
 40 39  1  0  0  0  0
 41 43  2  0  0  0  0
 43 48  1  0  0  0  0
 44 41  1  0  0  0  0
 45 50  1  6  0  0  0
 45 41  1  0  0  0  0
 45 46  1  0  0  0  0
 46 47  2  0  0  0  0
 47 48  1  0  0  0  0
 48 42  2  0  0  0  0
 50 49  1  0  0  0  0
M  END
>  <MODEL>
8

>  <REMARK>
 VINA RESULT:      -6.5      2.798      9.128
  Name = 
  19 active torsions:
  status: ('A' for Active; 'I' for Inactive)
    1  A    between atoms: C_1  and  C_2
    2  A    between atoms: C_1  and  C_14
    3  A    between atoms: C_2  and  C_31
    4  A    between atoms: C_3  and  C_22
    5  A    between atoms: S_4  and  C_36
    6  A    between atoms: S_4  and  C_40
    7  A    between atoms: C_5  and  C_14
    8  A    between atoms: O_6  and  C_15
    9  A    between atoms: O_6  and  C_34
   10  A    between atoms: N_7  and  C_50
   11  A    between atoms: C_15  and  N_42
   12  A    between atoms: C_16  and  C_31
   13  A    between atoms: C_16  and  O_32
   14  A    between atoms: C_16  and  C_41
   15  A    between atoms: C_22  and  C_37
   16  A    between atoms: C_25  and  C_33
   17  A    between atoms: C_28  and  N_49
   18  A    between atoms: C_29  and  N_43
   19  A    between atoms: C_40  and  C_48
                            x       y       z     vdW  Elec       q    Type
                         _______ _______ _______ _____ _____    ______ ____

>  <TORSDO>
F 19

$$$$
=
 OpenBabel10222419023D

 50 53  0  0  1  0  0  0  0  0999 V2000
  188.4710  177.0290  138.0580 C   0  0  1  0  0  3  0  0  0  0  0  0
  188.8680  179.4070  138.1770 O   0  0  0  0  0  1  0  0  0  0  0  0
  188.4700  178.2140  138.7910 C   0  0  1  0  0  0  0  0  0  0  0  0
  187.1600  177.7480  138.2580 N   0  0  0  0  0  0  0  0  0  0  0  0
  183.5700  176.8620  137.7380 C   0  0  0  0  0  3  0  0  0  0  0  0
  185.1020  178.9470  138.7910 C   0  0  0  0  0  3  0  0  0  0  0  0
  185.7420  177.8580  138.1910 C   0  0  0  0  0  0  0  0  0  0  0  0
  182.9310  177.9690  138.3220 C   0  0  0  0  0  0  0  0  0  0  0  0
  183.7070  179.0090  138.8440 C   0  0  0  0  0  3  0  0  0  0  0  0
  184.9770  176.8060  137.6520 C   0  0  0  0  0  0  0  0  0  0  0  0
  185.6460  175.6290  137.1730 N   0  0  0  0  0  0  0  0  0  0  0  0
  184.5770  173.7820  135.8500 O   0  0  0  0  0  0  0  0  0  0  0  0
  185.0920  174.6970  136.5000 C   0  0  0  0  0  0  0  0  0  0  0  0
  181.5380  178.0120  138.4480 O   0  0  0  0  0  0  0  0  0  0  0  0
  180.7280  178.6060  137.4420 C   0  0  0  0  0  2  0  0  0  0  0  0
  180.2930  181.2790  140.0820 O   0  0  0  0  0  0  0  0  0  0  0  0
  180.2390  179.8980  137.8910 N   0  0  0  0  0  0  0  0  0  0  0  0
  179.5510  181.0900  137.6070 N   0  0  0  0  0  0  0  0  0  0  0  0
  180.0830  180.8770  138.9040 C   0  0  0  0  0  0  0  0  0  0  0  0
  178.9350  181.9340  136.6370 C   0  0  0  0  0  3  0  0  0  0  0  0
  179.2750  183.2250  136.5570 C   0  0  0  0  0  3  0  0  0  0  0  0
  180.1620  183.8530  137.6000 C   0  0  0  0  0  2  0  0  0  0  0  0
  181.0000  184.9920  137.0100 C   0  0  0  0  0  3  0  0  0  0  0  0
  182.2660  184.9940  137.5980 O   0  0  0  0  0  1  0  0  0  0  0  0
  181.1260  184.8660  135.6180 O   0  0  0  0  0  1  0  0  0  0  0  0
  188.9890  177.2140  136.6290 C   0  0  2  0  0  3  0  0  0  0  0  0
  187.9860  176.9900  135.6900 O   0  0  0  0  0  1  0  0  0  0  0  0
  190.1570  176.2740  136.3590 C   0  0  0  0  0  2  0  0  0  0  0  0
  190.9770  175.9590  137.6180 C   0  0  1  0  0  3  0  0  0  0  0  0
  190.9030  174.5400  137.9570 N   0  0  0  0  0  1  0  0  0  0  0  0
  192.9230  176.2080  136.1990 O   0  0  0  0  0  1  0  0  0  0  0  0
  192.4270  176.4340  137.4880 C   0  0  2  0  0  3  0  0  0  0  0  0
  193.3370  175.7790  138.5350 C   0  0  2  0  0  3  0  0  0  0  0  0
  194.7070  176.7520  140.2250 O   0  0  0  0  0  1  0  0  0  0  0  0
  192.5720  177.5620  140.1170 O   0  0  0  0  0  0  0  0  0  0  0  0
  193.5810  176.7250  139.6660 C   0  0  0  0  0  0  0  0  0  0  0  0
  194.5910  173.9990  138.0520 C   0  0  0  0  0  1  0  0  0  0  0  0
  194.5600  175.3960  137.9580 O   0  0  0  0  0  0  0  0  0  0  0  0
  188.5560  178.1740  140.3190 C   0  0  0  0  0  2  0  0  0  0  0  0
  189.7230  176.9230  140.9800 S   0  0  0  0  0  0  0  0  0  0  0  0
  189.4340  177.2680  145.0550 C   0  0  0  0  0  0  0  0  0  0  0  0
  186.0230  177.6870  144.3240 O   0  0  0  0  0  0  0  0  0  0  0  0
  188.1000  177.4760  145.2080 N   0  0  0  0  0  0  0  0  0  0  0  0
  190.2780  177.2500  146.2050 N   0  0  0  0  0  1  0  0  0  0  0  0
  189.9780  177.0790  143.7720 C   0  0  2  0  0  3  0  0  0  0  0  0
  189.1160  177.1240  142.6590 C   0  0  0  0  0  0  0  0  0  0  0  0
  187.7530  177.3460  142.8480 C   0  0  0  0  0  3  0  0  0  0  0  0
  187.2540  177.5130  144.1420 C   0  0  0  0  0  0  0  0  0  0  0  0
  191.6290  175.3370  143.9440 N   0  0  0  0  0  1  0  0  0  0  0  0
  191.4290  176.7360  143.6060 C   0  0  0  0  0  2  0  0  0  0  0  0
  1 26  1  6  0  0  0
  1  4  1  0  0  0  0
  1  3  1  0  0  0  0
  3  2  1  6  0  0  0
  3 39  1  0  0  0  0
  4  3  1  0  0  0  0
  5  8  1  0  0  0  0
  6  9  1  0  0  0  0
  7  4  1  0  0  0  0
  7  6  2  0  0  0  0
  8 14  1  0  0  0  0
  8  9  2  0  0  0  0
 10  5  2  0  0  0  0
 10  7  1  0  0  0  0
 11 10  1  0  0  0  0
 12 13  2  0  0  0  0
 13 11  2  0  0  0  0
 15 17  1  0  0  0  0
 15 14  1  0  0  0  0
 17 19  1  0  0  0  0
 18 17  1  0  0  0  0
 18 19  1  0  0  0  0
 19 16  2  0  0  0  0
 20 18  1  0  0  0  0
 21 20  2  0  0  0  0
 21 22  1  0  0  0  0
 23 24  1  0  0  0  0
 23 22  1  0  0  0  0
 25 23  1  0  0  0  0
 26 27  1  6  0  0  0
 28 26  1  0  0  0  0
 28 29  1  0  0  0  0
 29 30  1  6  0  0  0
 32 31  1  6  0  0  0
 32 29  1  0  0  0  0
 32 33  1  0  0  0  0
 33 38  1  6  0  0  0
 33 36  1  0  0  0  0
 36 35  2  0  0  0  0
 36 34  1  0  0  0  0
 38 37  1  0  0  0  0
 39 40  1  0  0  0  0
 40 46  1  0  0  0  0
 41 43  2  0  0  0  0
 41 44  1  0  0  0  0
 45 50  1  1  0  0  0
 45 41  1  0  0  0  0
 46 47  2  0  0  0  0
 46 45  1  0  0  0  0
 47 48  1  0  0  0  0
 48 42  2  0  0  0  0
 48 43  1  0  0  0  0
 50 49  1  0  0  0  0
M  END
>  <MODEL>
9

>  <REMARK>
 VINA RESULT:      -6.5      4.376      8.493
  Name = 
  19 active torsions:
  status: ('A' for Active; 'I' for Inactive)
    1  A    between atoms: C_1  and  C_2
    2  A    between atoms: C_1  and  C_14
    3  A    between atoms: C_2  and  C_31
    4  A    between atoms: C_3  and  C_22
    5  A    between atoms: S_4  and  C_36
    6  A    between atoms: S_4  and  C_40
    7  A    between atoms: C_5  and  C_14
    8  A    between atoms: O_6  and  C_15
    9  A    between atoms: O_6  and  C_34
   10  A    between atoms: N_7  and  C_50
   11  A    between atoms: C_15  and  N_42
   12  A    between atoms: C_16  and  C_31
   13  A    between atoms: C_16  and  O_32
   14  A    between atoms: C_16  and  C_41
   15  A    between atoms: C_22  and  C_37
   16  A    between atoms: C_25  and  C_33
   17  A    between atoms: C_28  and  N_49
   18  A    between atoms: C_29  and  N_43
   19  A    between atoms: C_40  and  C_48
                            x       y       z     vdW  Elec       q    Type
                         _______ _______ _______ _____ _____    ______ ____

>  <TORSDO>
F 19

$$$$
