=
 OpenBabel10222415303D

 31 35  0  0  1  0  0  0  0  0999 V2000
  184.3670  178.1500  142.3790 C   0  0  1  0  0  3  0  0  0  0  0  0
  184.5080  177.5220  138.8920 C   0  0  2  0  0  3  0  0  0  0  0  0
  185.7360  178.5340  142.0050 C   0  0  2  0  0  0  0  0  0  0  0  0
  182.4330  179.2610  141.2170 C   0  0  0  0  0  2  0  0  0  0  0  0
  179.3360  180.6740  142.1460 N   0  0  0  0  0  0  0  0  0  0  0  0
  181.0170  175.9180  138.9660 C   0  0  2  0  0  3  0  0  0  0  0  0
  181.9940  177.9230  137.8530 C   0  0  0  0  0  0  0  0  0  0  0  0
  181.1650  179.0490  143.3940 C   0  0  0  0  0  2  0  0  0  0  0  0
  184.4630  178.6160  139.9460 C   0  0  2  0  0  3  0  0  0  0  0  0
  184.9020  179.4220  142.6980 O   0  0  0  0  0  0  0  0  0  0  0  0
  179.9440  176.4000  139.9390 C   0  0  0  0  0  2  0  0  0  0  0  0
  181.0210  176.7970  137.7040 C   0  0  1  0  0  3  0  0  0  0  0  0
  185.8520  178.8160  140.5280 C   0  0  0  0  0  2  0  0  0  0  0  0
  181.1060  180.3670  138.0560 C   0  0  0  0  0  3  0  0  0  0  0  0
  180.2460  179.8010  142.4200 C   0  0  0  0  0  0  0  0  0  0  0  0
  180.6470  177.5170  141.6330 O   0  0  0  0  0  0  0  0  0  0  0  0
  184.7210  178.0650  137.7350 O   0  0  0  0  0  0  0  0  0  0  0  0
  181.5560  179.1480  137.9410 C   0  0  0  0  0  0  0  0  0  0  0  0
  183.3940  177.6540  137.9420 N   0  0  0  0  0  0  0  0  0  0  0  0
  183.5390  178.2240  141.0950 C   0  0  1  0  0  3  0  0  0  0  0  0
  181.2430  178.7310  142.0060 C   0  0  1  0  0  0  0  0  0  0  0  0
  187.0680  177.8750  142.9750 Cl  0  0  0  0  0  0  0  0  0  0  0  0
  181.3410  176.0180  136.4330 C   0  0  0  0  0  1  0  0  0  0  0  0
  180.2240  177.6880  140.3950 O   0  0  0  0  0  0  0  0  0  0  0  0
  182.0030  181.4940  138.3160 C   0  0  0  0  0  0  0  0  0  0  0  0
  181.5770  182.8030  138.1210 O   0  0  0  0  0  0  0  0  0  0  0  0
  183.1710  181.2750  138.7270 O   0  0  0  0  0  1  0  0  0  0  0  0
  178.9310  182.1480  140.2740 C   0  0  0  0  0  1  0  0  0  0  0  0
  178.9310  180.8530  140.8460 O   0  0  0  0  0  0  0  0  0  0  0  0
  180.7630  174.5780  138.6590 O   0  0  0  0  0  0  0  0  0  0  0  0
  179.6700  174.2260  139.4540 C   0  0  0  0  0  1  0  0  0  0  0  0
  1 10  1  1  0  0  0
  2 17  1  6  0  0  0
  2  9  1  0  0  0  0
  3  1  1  0  0  0  0
  3 10  1  0  0  0  0
  3 22  1  1  0  0  0
  5 15  2  0  0  0  0
  6 30  1  6  0  0  0
  6 11  1  0  0  0  0
  7 18  2  0  0  0  0
  7 19  1  0  0  0  0
  9 13  1  1  0  0  0
  9 20  1  0  0  0  0
 11 24  1  0  0  0  0
 12 23  1  6  0  0  0
 12  7  1  0  0  0  0
 12  6  1  0  0  0  0
 13  3  1  0  0  0  0
 14 25  1  0  0  0  0
 15  8  1  0  0  0  0
 16 21  1  0  0  0  0
 17 19  1  0  0  0  0
 18 14  2  0  0  0  0
 19  2  1  0  0  0  0
 20  4  1  1  0  0  0
 20  1  1  0  0  0  0
 21  4  1  6  0  0  0
 21 15  1  0  0  0  0
 21  8  1  0  0  0  0
 24 16  1  0  0  0  0
 25 27  1  0  0  0  0
 26 25  2  0  0  0  0
 28 29  1  0  0  0  0
 29  5  1  0  0  0  0
 30 31  1  0  0  0  0
M  END
>  <MODEL>
1

>  <REMARK>
 VINA RESULT:      -5.8      0.000      0.000
  Name = 
  3 active torsions:
  status: ('A' for Active; 'I' for Inactive)
    1  A    between atoms: N_5  and  O_22
    2  A    between atoms: C_6  and  O_19
    3  A    between atoms: C_8  and  C_17
                            x       y       z     vdW  Elec       q    Type
                         _______ _______ _______ _____ _____    ______ ____

>  <TORSDO>
F 3

$$$$
=
 OpenBabel10222415303D

 31 35  0  0  1  0  0  0  0  0999 V2000
  184.8440  178.2250  140.9290 C   0  0  1  0  0  3  0  0  0  0  0  0
  183.8520  177.2750  137.6600 C   0  0  2  0  0  3  0  0  0  0  0  0
  185.9900  178.6010  140.0880 C   0  0  2  0  0  0  0  0  0  0  0  0
  182.5800  179.1820  140.3950 C   0  0  0  0  0  2  0  0  0  0  0  0
  179.9000  180.6120  142.1900 N   0  0  0  0  0  0  0  0  0  0  0  0
  180.6700  175.6140  139.0300 C   0  0  2  0  0  3  0  0  0  0  0  0
  181.1190  177.5240  137.4940 C   0  0  0  0  0  0  0  0  0  0  0  0
  182.1190  179.1500  142.8810 C   0  0  0  0  0  2  0  0  0  0  0  0
  184.1040  178.4620  138.5750 C   0  0  2  0  0  3  0  0  0  0  0  0
  185.3890  179.5330  140.9450 O   0  0  0  0  0  0  0  0  0  0  0  0
  179.9580  176.1630  140.2640 C   0  0  0  0  0  2  0  0  0  0  0  0
  180.2100  176.3700  137.7720 C   0  0  1  0  0  3  0  0  0  0  0  0
  185.5950  178.7450  138.6390 C   0  0  0  0  0  2  0  0  0  0  0  0
  180.2250  179.9580  137.7830 C   0  0  0  0  0  3  0  0  0  0  0  0
  180.8930  179.7870  142.2130 C   0  0  0  0  0  0  0  0  0  0  0  0
  181.1250  177.4480  141.5270 O   0  0  0  0  0  0  0  0  0  0  0  0
  183.6420  177.7110  136.4580 O   0  0  0  0  0  0  0  0  0  0  0  0
  180.6730  178.7440  137.6230 C   0  0  0  0  0  0  0  0  0  0  0  0
  182.4810  177.2940  137.1310 N   0  0  0  0  0  0  0  0  0  0  0  0
  183.6350  178.1610  139.9950 C   0  0  1  0  0  3  0  0  0  0  0  0
  181.7480  178.7040  141.5780 C   0  0  1  0  0  0  0  0  0  0  0  0
  187.6000  178.0630  140.6060 Cl  0  0  0  0  0  0  0  0  0  0  0  0
  180.1300  175.4820  136.5360 C   0  0  0  0  0  1  0  0  0  0  0  0
  180.3070  177.4940  140.4930 O   0  0  0  0  0  0  0  0  0  0  0  0
  181.0990  181.1230  137.6330 C   0  0  0  0  0  0  0  0  0  0  0  0
  181.9770  181.4890  138.6470 O   0  0  0  0  0  1  0  0  0  0  0  0
  181.0610  181.7950  136.5710 O   0  0  0  0  0  0  0  0  0  0  0  0
  178.9450  181.8610  140.3530 C   0  0  0  0  0  1  0  0  0  0  0  0
  179.0770  180.6590  141.0900 O   0  0  0  0  0  0  0  0  0  0  0  0
  180.3970  174.2450  138.9370 O   0  0  0  0  0  0  0  0  0  0  0  0
  179.2860  174.0420  139.7580 C   0  0  0  0  0  1  0  0  0  0  0  0
  1 10  1  1  0  0  0
  2 17  1  6  0  0  0
  2  9  1  0  0  0  0
  3 22  1  1  0  0  0
  3  1  1  0  0  0  0
  3 10  1  0  0  0  0
  5 15  2  0  0  0  0
  6 30  1  6  0  0  0
  6 11  1  0  0  0  0
  7 18  2  0  0  0  0
  7 12  1  0  0  0  0
  9 13  1  1  0  0  0
  9 20  1  0  0  0  0
 11 24  1  0  0  0  0
 12 23  1  6  0  0  0
 12  6  1  0  0  0  0
 13  3  1  0  0  0  0
 15  8  1  0  0  0  0
 16 21  1  0  0  0  0
 17 19  1  0  0  0  0
 18 14  2  0  0  0  0
 19  7  1  0  0  0  0
 19  2  1  0  0  0  0
 20  4  1  1  0  0  0
 20  1  1  0  0  0  0
 21  4  1  6  0  0  0
 21 15  1  0  0  0  0
 21  8  1  0  0  0  0
 24 16  1  0  0  0  0
 25 14  1  0  0  0  0
 25 26  1  0  0  0  0
 27 25  2  0  0  0  0
 28 29  1  0  0  0  0
 29  5  1  0  0  0  0
 30 31  1  0  0  0  0
M  END
>  <MODEL>
2

>  <REMARK>
 VINA RESULT:      -4.7      1.105      1.296
  Name = 
  3 active torsions:
  status: ('A' for Active; 'I' for Inactive)
    1  A    between atoms: N_5  and  O_22
    2  A    between atoms: C_6  and  O_19
    3  A    between atoms: C_8  and  C_17
                            x       y       z     vdW  Elec       q    Type
                         _______ _______ _______ _____ _____    ______ ____

>  <TORSDO>
F 3

$$$$
=
 OpenBabel10222415303D

 31 35  0  0  1  0  0  0  0  0999 V2000
  184.5490  179.1880  142.7420 C   0  0  1  0  0  3  0  0  0  0  0  0
  181.0370  179.5370  142.4080 C   0  0  2  0  0  3  0  0  0  0  0  0
  184.0200  178.6670  144.0110 C   0  0  2  0  0  0  0  0  0  0  0  0
  183.7750  178.1510  140.5850 C   0  0  0  0  0  2  0  0  0  0  0  0
  185.2530  177.0690  137.5700 N   0  0  0  0  0  0  0  0  0  0  0  0
  181.4660  181.4180  139.0860 C   0  0  2  0  0  3  0  0  0  0  0  0
  180.4040  179.2630  139.7480 C   0  0  0  0  0  0  0  0  0  0  0  0
  186.0830  178.6300  139.6710 C   0  0  0  0  0  2  0  0  0  0  0  0
  182.1770  178.5330  142.4450 C   0  0  2  0  0  3  0  0  0  0  0  0
  184.8990  177.9040  143.2300 O   0  0  0  0  0  0  0  0  0  0  0  0
  182.6200  181.0990  138.1380 C   0  0  0  0  0  2  0  0  0  0  0  0
  180.2970  180.4490  138.8430 C   0  0  1  0  0  3  0  0  0  0  0  0
  182.5710  178.2650  143.8880 C   0  0  0  0  0  2  0  0  0  0  0  0
  180.9420  176.9210  138.7320 C   0  0  0  0  0  3  0  0  0  0  0  0
  185.3180  177.8830  138.5690 C   0  0  0  0  0  0  0  0  0  0  0  0
  184.2870  180.0610  139.0050 O   0  0  0  0  0  0  0  0  0  0  0  0
  179.9120  178.8920  142.4100 O   0  0  0  0  0  0  0  0  0  0  0  0
  180.6590  178.0870  139.2430 C   0  0  0  0  0  0  0  0  0  0  0  0
  180.2700  179.4230  141.1600 N   0  0  0  0  0  0  0  0  0  0  0  0
  183.4080  179.0840  141.7310 C   0  0  1  0  0  3  0  0  0  0  0  0
  184.6750  178.8340  139.5650 C   0  0  1  0  0  0  0  0  0  0  0  0
  184.7310  179.2880  145.5140 Cl  0  0  0  0  0  0  0  0  0  0  0  0
  178.9310  181.1010  139.0240 C   0  0  0  0  0  1  0  0  0  0  0  0
  183.1410  179.8310  138.3930 O   0  0  0  0  0  0  0  0  0  0  0  0
  181.1680  175.7480  139.5780 C   0  0  0  0  0  0  0  0  0  0  0  0
  180.1230  175.1710  140.2910 O   0  0  0  0  0  1  0  0  0  0  0  0
  182.3210  175.2510  139.6540 O   0  0  0  0  0  0  0  0  0  0  0  0
  183.7830  175.5610  136.3830 C   0  0  0  0  0  1  0  0  0  0  0  0
  184.0440  176.8250  136.9650 O   0  0  0  0  0  0  0  0  0  0  0  0
  181.0830  182.7480  138.8830 O   0  0  0  0  0  0  0  0  0  0  0  0
  181.5230  183.0560  137.5930 C   0  0  0  0  0  1  0  0  0  0  0  0
  1 10  1  6  0  0  0
  1  3  1  0  0  0  0
  2 17  1  1  0  0  0
  2  9  1  0  0  0  0
  3 22  1  1  0  0  0
  5 15  2  0  0  0  0
  6 30  1  6  0  0  0
  7 19  1  0  0  0  0
  9 13  1  1  0  0  0
 10  3  1  0  0  0  0
 11 24  1  0  0  0  0
 11  6  1  0  0  0  0
 12 23  1  1  0  0  0
 12  6  1  0  0  0  0
 12  7  1  0  0  0  0
 13  3  1  0  0  0  0
 14 18  2  0  0  0  0
 14 25  1  0  0  0  0
 15 21  1  0  0  0  0
 15  8  1  0  0  0  0
 16 21  1  0  0  0  0
 18  7  2  0  0  0  0
 19  2  1  0  0  0  0
 19 17  1  0  0  0  0
 20  4  1  6  0  0  0
 20  9  1  0  0  0  0
 20  1  1  0  0  0  0
 21  8  1  1  0  0  0
 21  4  1  0  0  0  0
 24 16  1  0  0  0  0
 25 27  2  0  0  0  0
 25 26  1  0  0  0  0
 28 29  1  0  0  0  0
 29  5  1  0  0  0  0
 31 30  1  0  0  0  0
M  END
>  <MODEL>
3

>  <REMARK>
 VINA RESULT:      -4.4      1.646      5.516
  Name = 
  3 active torsions:
  status: ('A' for Active; 'I' for Inactive)
    1  A    between atoms: N_5  and  O_22
    2  A    between atoms: C_6  and  O_19
    3  A    between atoms: C_8  and  C_17
                            x       y       z     vdW  Elec       q    Type
                         _______ _______ _______ _____ _____    ______ ____

>  <TORSDO>
F 3

$$$$
=
 OpenBabel10222415303D

 31 35  0  0  1  0  0  0  0  0999 V2000
  180.4710  179.6580  135.6630 C   0  0  1  0  0  3  0  0  0  0  0  0
  179.6370  179.1610  139.0730 C   0  0  2  0  0  3  0  0  0  0  0  0
  180.1010  181.0000  136.1360 C   0  0  2  0  0  0  0  0  0  0  0  0
  182.3200  178.4230  136.8380 C   0  0  0  0  0  2  0  0  0  0  0  0
  185.1380  176.5130  135.9110 N   0  0  0  0  0  0  0  0  0  0  0  0
  179.9850  175.3550  138.6780 C   0  0  2  0  0  3  0  0  0  0  0  0
  181.1650  177.0860  140.0290 C   0  0  0  0  0  0  0  0  0  0  0  0
  182.9030  177.4140  134.5940 C   0  0  0  0  0  2  0  0  0  0  0  0
  180.6730  179.7530  138.1310 C   0  0  2  0  0  3  0  0  0  0  0  0
  181.3270  180.7740  135.4960 O   0  0  0  0  0  0  0  0  0  0  0  0
  180.9970  174.7480  137.7090 C   0  0  0  0  0  2  0  0  0  0  0  0
  180.6640  175.6770  140.0210 C   0  0  1  0  0  3  0  0  0  0  0  0
  180.1940  181.1070  137.6370 C   0  0  0  0  0  2  0  0  0  0  0  0
  183.7360  177.5320  140.0280 C   0  0  0  0  0  3  0  0  0  0  0  0
  183.9480  176.8990  135.5940 C   0  0  0  0  0  0  0  0  0  0  0  0
  181.7220  176.0560  136.1690 O   0  0  0  0  0  0  0  0  0  0  0  0
  179.9280  179.5090  140.2870 O   0  0  0  0  0  0  0  0  0  0  0  0
  182.4500  177.3150  140.0430 C   0  0  0  0  0  0  0  0  0  0  0  0
  180.2440  178.1750  139.9790 N   0  0  0  0  0  0  0  0  0  0  0  0
  180.8650  178.8620  136.9070 C   0  0  1  0  0  3  0  0  0  0  0  0
  182.5010  177.2010  135.9460 C   0  0  1  0  0  0  0  0  0  0  0  0
  178.9310  181.9180  135.1670 Cl  0  0  0  0  0  0  0  0  0  0  0  0
  179.7510  175.4590  141.2210 C   0  0  0  0  0  1  0  0  0  0  0  0
  182.0020  175.6630  137.3970 O   0  0  0  0  0  0  0  0  0  0  0  0
  184.2830  178.8860  139.9240 C   0  0  0  0  0  0  0  0  0  0  0  0
  185.6490  179.1130  140.0430 O   0  0  0  0  0  1  0  0  0  0  0  0
  183.5070  179.8530  139.7150 O   0  0  0  0  0  0  0  0  0  0  0  0
  186.7050  175.6690  137.5470 C   0  0  0  0  0  1  0  0  0  0  0  0
  185.4120  176.1340  137.2030 O   0  0  0  0  0  0  0  0  0  0  0  0
  178.9310  174.4500  138.8390 O   0  0  0  0  0  0  0  0  0  0  0  0
  179.2830  173.3450  138.0610 C   0  0  0  0  0  1  0  0  0  0  0  0
  1 10  1  6  0  0  0
  1  3  1  0  0  0  0
  1 20  1  0  0  0  0
  2 19  1  0  0  0  0
  2 17  1  1  0  0  0
  3 22  1  6  0  0  0
  3 13  1  0  0  0  0
  5 29  1  0  0  0  0
  6 30  1  1  0  0  0
  6 12  1  0  0  0  0
  7 18  2  0  0  0  0
  8 15  1  0  0  0  0
  9 13  1  6  0  0  0
  9  2  1  0  0  0  0
 10  3  1  0  0  0  0
 11  6  1  0  0  0  0
 12  7  1  0  0  0  0
 12 23  1  1  0  0  0
 14 18  2  0  0  0  0
 15  5  2  0  0  0  0
 15 21  1  0  0  0  0
 16 24  1  0  0  0  0
 19  7  1  0  0  0  0
 19 17  1  0  0  0  0
 20  4  1  6  0  0  0
 20  9  1  0  0  0  0
 21  8  1  6  0  0  0
 21 16  1  0  0  0  0
 21  4  1  0  0  0  0
 24 11  1  0  0  0  0
 25 14  1  0  0  0  0
 25 26  1  0  0  0  0
 27 25  2  0  0  0  0
 29 28  1  0  0  0  0
 31 30  1  0  0  0  0
M  END
>  <MODEL>
4

>  <REMARK>
 VINA RESULT:      -4.1      3.073      6.170
  Name = 
  3 active torsions:
  status: ('A' for Active; 'I' for Inactive)
    1  A    between atoms: N_5  and  O_22
    2  A    between atoms: C_6  and  O_19
    3  A    between atoms: C_8  and  C_17
                            x       y       z     vdW  Elec       q    Type
                         _______ _______ _______ _____ _____    ______ ____

>  <TORSDO>
F 3

$$$$
=
 OpenBabel10222415303D

 31 35  0  0  1  0  0  0  0  0999 V2000
  183.0520  177.3230  140.8970 C   0  0  1  0  0  3  0  0  0  0  0  0
  185.3420  177.9510  138.2630 C   0  0  2  0  0  3  0  0  0  0  0  0
  183.6350  178.6280  141.2390 C   0  0  2  0  0  0  0  0  0  0  0  0
  181.9130  177.0470  138.6710 C   0  0  0  0  0  2  0  0  0  0  0  0
  178.9310  175.5980  137.4650 N   0  0  0  0  0  0  0  0  0  0  0  0
  184.7440  174.4450  136.8100 C   0  0  2  0  0  3  0  0  0  0  0  0
  184.3640  176.7650  135.9840 C   0  0  0  0  0  0  0  0  0  0  0  0
  180.3390  175.4340  139.8170 C   0  0  0  0  0  2  0  0  0  0  0  0
  184.0070  178.3650  138.8600 C   0  0  2  0  0  3  0  0  0  0  0  0
  182.2460  178.4570  141.1640 O   0  0  0  0  0  0  0  0  0  0  0  0
  183.3850  173.7600  136.9260 C   0  0  0  0  0  2  0  0  0  0  0  0
  184.7660  175.3800  135.5890 C   0  0  1  0  0  3  0  0  0  0  0  0
  184.2440  179.3010  140.0330 C   0  0  0  0  0  2  0  0  0  0  0  0
  182.0930  177.7310  135.1390 C   0  0  0  0  0  3  0  0  0  0  0  0
  179.8540  175.5680  138.3670 C   0  0  0  0  0  0  0  0  0  0  0  0
  182.0720  174.5310  138.4380 O   0  0  0  0  0  0  0  0  0  0  0  0
  185.6490  178.7780  137.3140 O   0  0  0  0  0  0  0  0  0  0  0  0
  183.2350  177.2580  135.5530 C   0  0  0  0  0  0  0  0  0  0  0  0
  185.1900  177.5290  136.8640 N   0  0  0  0  0  0  0  0  0  0  0  0
  183.2500  177.1510  139.3900 C   0  0  1  0  0  3  0  0  0  0  0  0
  181.3090  175.6540  138.7950 C   0  0  1  0  0  0  0  0  0  0  0  0
  184.2570  178.8430  142.8870 Cl  0  0  0  0  0  0  0  0  0  0  0  0
  186.1210  175.4260  134.8940 C   0  0  0  0  0  1  0  0  0  0  0  0
  182.3740  174.6910  137.1650 O   0  0  0  0  0  0  0  0  0  0  0  0
  181.5970  179.0350  135.5830 C   0  0  0  0  0  0  0  0  0  0  0  0
  181.1530  179.9790  134.6640 O   0  0  0  0  0  0  0  0  0  0  0  0
  181.5650  179.3000  136.8120 O   0  0  0  0  0  1  0  0  0  0  0  0
  179.4390  174.6810  135.2870 C   0  0  0  0  0  1  0  0  0  0  0  0
  179.2690  175.7920  136.1480 O   0  0  0  0  0  0  0  0  0  0  0  0
  185.7290  173.4560  136.7180 O   0  0  0  0  0  0  0  0  0  0  0  0
  185.0250  172.2550  136.6050 C   0  0  0  0  0  1  0  0  0  0  0  0
  1 10  1  6  0  0  0
  1  3  1  0  0  0  0
  2 17  1  6  0  0  0
  2  9  1  0  0  0  0
  3 22  1  1  0  0  0
  5 15  2  0  0  0  0
  6 30  1  6  0  0  0
  6 11  1  0  0  0  0
  7 19  1  0  0  0  0
  9 20  1  0  0  0  0
  9 13  1  1  0  0  0
 10  3  1  0  0  0  0
 11 24  1  0  0  0  0
 12 23  1  1  0  0  0
 12  7  1  0  0  0  0
 12  6  1  0  0  0  0
 13  3  1  0  0  0  0
 14 18  2  0  0  0  0
 14 25  1  0  0  0  0
 15 21  1  0  0  0  0
 15  8  1  0  0  0  0
 16 21  1  0  0  0  0
 18  7  2  0  0  0  0
 19 17  1  0  0  0  0
 19  2  1  0  0  0  0
 20  4  1  6  0  0  0
 20  1  1  0  0  0  0
 21  4  1  6  0  0  0
 21  8  1  0  0  0  0
 24 16  1  0  0  0  0
 25 27  1  0  0  0  0
 26 25  2  0  0  0  0
 28 29  1  0  0  0  0
 29  5  1  0  0  0  0
 31 30  1  0  0  0  0
M  END
>  <MODEL>
5

>  <REMARK>
 VINA RESULT:      -3.8      2.800      4.424
  Name = 
  3 active torsions:
  status: ('A' for Active; 'I' for Inactive)
    1  A    between atoms: N_5  and  O_22
    2  A    between atoms: C_6  and  O_19
    3  A    between atoms: C_8  and  C_17
                            x       y       z     vdW  Elec       q    Type
                         _______ _______ _______ _____ _____    ______ ____

>  <TORSDO>
F 3

$$$$
=
 OpenBabel10222415303D

 31 35  0  0  1  0  0  0  0  0999 V2000
  184.8950  177.3520  138.3400 C   0  0  1  0  0  3  0  0  0  0  0  0
  183.0350  175.5210  135.9400 C   0  0  2  0  0  3  0  0  0  0  0  0
  185.7970  177.2700  137.1820 C   0  0  2  0  0  0  0  0  0  0  0  0
  182.6180  178.3790  138.0370 C   0  0  0  0  0  2  0  0  0  0  0  0
  180.5740  180.6700  139.7730 N   0  0  0  0  0  0  0  0  0  0  0  0
  180.2490  174.8540  138.5000 C   0  0  2  0  0  3  0  0  0  0  0  0
  180.3700  176.0710  136.3280 C   0  0  0  0  0  0  0  0  0  0  0  0
  182.8250  179.2310  140.4080 C   0  0  0  0  0  2  0  0  0  0  0  0
  183.5750  176.8980  136.2920 C   0  0  2  0  0  3  0  0  0  0  0  0
  185.4870  178.5050  137.7670 O   0  0  0  0  0  0  0  0  0  0  0  0
  179.9130  175.8710  139.5870 C   0  0  0  0  0  2  0  0  0  0  0  0
  179.5120  175.2070  137.1970 C   0  0  1  0  0  3  0  0  0  0  0  0
  185.0430  176.9800  135.9070 C   0  0  0  0  0  2  0  0  0  0  0  0
  179.7000  178.5610  135.9340 C   0  0  0  0  0  3  0  0  0  0  0  0
  181.4980  179.7730  139.8590 C   0  0  0  0  0  0  0  0  0  0  0  0
  181.4300  177.3300  140.0100 O   0  0  0  0  0  0  0  0  0  0  0  0
  182.5380  175.5600  134.7430 O   0  0  0  0  0  0  0  0  0  0  0  0
  180.0320  177.3130  136.1160 C   0  0  0  0  0  0  0  0  0  0  0  0
  181.5760  175.5510  135.7670 N   0  0  0  0  0  0  0  0  0  0  0  0
  183.4820  177.1490  137.7930 C   0  0  1  0  0  3  0  0  0  0  0  0
  182.1040  178.4350  139.4690 C   0  0  1  0  0  0  0  0  0  0  0  0
  187.4590  176.7200  137.4730 Cl  0  0  0  0  0  0  0  0  0  0  0  0
  179.0680  173.9810  136.4090 C   0  0  0  0  0  1  0  0  0  0  0  0
  180.3730  177.1420  139.2440 O   0  0  0  0  0  0  0  0  0  0  0  0
  180.5590  179.4810  135.1860 C   0  0  0  0  0  0  0  0  0  0  0  0
  180.2690  180.8390  135.1300 O   0  0  0  0  0  1  0  0  0  0  0  0
  181.5750  179.0370  134.5940 O   0  0  0  0  0  0  0  0  0  0  0  0
  178.9310  181.5470  138.2320 C   0  0  0  0  0  1  0  0  0  0  0  0
  179.4950  180.4640  138.9480 O   0  0  0  0  0  0  0  0  0  0  0  0
  179.8970  173.5820  138.9620 O   0  0  0  0  0  0  0  0  0  0  0  0
  179.4620  173.7830  140.2740 C   0  0  0  0  0  1  0  0  0  0  0  0
  1 10  1  6  0  0  0
  2 17  1  6  0  0  0
  2  9  1  0  0  0  0
  3 22  1  1  0  0  0
  3 10  1  0  0  0  0
  3  1  1  0  0  0  0
  5 15  2  0  0  0  0
  6 30  1  1  0  0  0
  6 11  1  0  0  0  0
  7 12  1  0  0  0  0
  9 13  1  1  0  0  0
  9 20  1  0  0  0  0
 12 23  1  6  0  0  0
 12  6  1  0  0  0  0
 13  3  1  0  0  0  0
 14 18  2  0  0  0  0
 15  8  1  0  0  0  0
 17 19  1  0  0  0  0
 18  7  2  0  0  0  0
 19  2  1  0  0  0  0
 19  7  1  0  0  0  0
 20  4  1  6  0  0  0
 20  1  1  0  0  0  0
 21  4  1  6  0  0  0
 21 15  1  0  0  0  0
 21 16  1  0  0  0  0
 21  8  1  0  0  0  0
 24 11  1  0  0  0  0
 24 16  1  0  0  0  0
 25 14  1  0  0  0  0
 26 25  1  0  0  0  0
 27 25  2  0  0  0  0
 28 29  1  0  0  0  0
 29  5  1  0  0  0  0
 30 31  1  0  0  0  0
M  END
>  <MODEL>
6

>  <REMARK>
 VINA RESULT:      -3.8      2.492      3.416
  Name = 
  3 active torsions:
  status: ('A' for Active; 'I' for Inactive)
    1  A    between atoms: N_5  and  O_22
    2  A    between atoms: C_6  and  O_19
    3  A    between atoms: C_8  and  C_17
                            x       y       z     vdW  Elec       q    Type
                         _______ _______ _______ _____ _____    ______ ____

>  <TORSDO>
F 3

$$$$
=
 OpenBabel10222415303D

 31 35  0  0  1  0  0  0  0  0999 V2000
  185.4460  177.1340  138.2370 C   0  0  1  0  0  3  0  0  0  0  0  0
  183.2000  176.4240  135.5870 C   0  0  2  0  0  3  0  0  0  0  0  0
  186.1760  177.5550  137.0320 C   0  0  2  0  0  0  0  0  0  0  0  0
  183.1940  178.1490  138.7110 C   0  0  0  0  0  2  0  0  0  0  0  0
  181.5050  179.4770  141.5100 N   0  0  0  0  0  0  0  0  0  0  0  0
  180.7670  174.7050  138.0130 C   0  0  2  0  0  3  0  0  0  0  0  0
  180.6380  176.7130  136.5420 C   0  0  0  0  0  0  0  0  0  0  0  0
  183.7610  177.9480  141.1680 C   0  0  0  0  0  2  0  0  0  0  0  0
  183.8390  177.5420  136.3940 C   0  0  2  0  0  3  0  0  0  0  0  0
  186.0010  178.4310  138.1120 O   0  0  0  0  0  0  0  0  0  0  0  0
  180.6260  175.1740  139.4590 C   0  0  0  0  0  2  0  0  0  0  0  0
  179.8730  175.5510  137.0910 C   0  0  1  0  0  3  0  0  0  0  0  0
  185.2420  177.8040  135.8730 C   0  0  0  0  0  2  0  0  0  0  0  0
  180.0250  179.1300  137.3100 C   0  0  0  0  0  3  0  0  0  0  0  0
  182.3940  178.6430  141.0850 C   0  0  0  0  0  0  0  0  0  0  0  0
  182.2460  176.3550  140.2240 O   0  0  0  0  0  0  0  0  0  0  0  0
  182.5450  176.9460  134.5970 O   0  0  0  0  0  0  0  0  0  0  0  0
  180.3260  177.9250  136.9120 C   0  0  0  0  0  0  0  0  0  0  0  0
  181.7330  176.4950  135.6520 N   0  0  0  0  0  0  0  0  0  0  0  0
  183.9640  177.1480  137.8630 C   0  0  1  0  0  3  0  0  0  0  0  0
  182.8850  177.5980  140.0970 C   0  0  1  0  0  0  0  0  0  0  0  0
  187.8380  176.9660  136.8310 Cl  0  0  0  0  0  0  0  0  0  0  0  0
  179.2740  174.7530  135.9390 C   0  0  0  0  0  1  0  0  0  0  0  0
  181.0860  176.4810  139.6080 O   0  0  0  0  0  0  0  0  0  0  0  0
  180.8100  180.2930  136.8940 C   0  0  0  0  0  0  0  0  0  0  0  0
  181.4200  181.1140  137.8350 O   0  0  0  0  0  1  0  0  0  0  0  0
  180.9400  180.5470  135.6690 O   0  0  0  0  0  0  0  0  0  0  0  0
  179.4970  180.7440  141.0560 C   0  0  0  0  0  1  0  0  0  0  0  0
  180.3160  179.6100  140.8360 O   0  0  0  0  0  0  0  0  0  0  0  0
  180.4280  173.3490  137.9540 O   0  0  0  0  0  0  0  0  0  0  0  0
  181.4980  172.7380  137.2960 C   0  0  0  0  0  1  0  0  0  0  0  0
  1 10  1  1  0  0  0
  2 17  1  6  0  0  0
  2 19  1  0  0  0  0
  2  9  1  0  0  0  0
  3 22  1  6  0  0  0
  3 10  1  0  0  0  0
  3  1  1  0  0  0  0
  6 30  1  1  0  0  0
  6 11  1  0  0  0  0
  7 18  2  0  0  0  0
  7 12  1  0  0  0  0
  9 13  1  6  0  0  0
  9 20  1  0  0  0  0
 11 24  1  0  0  0  0
 12 23  1  6  0  0  0
 12  6  1  0  0  0  0
 13  3  1  0  0  0  0
 15  8  1  0  0  0  0
 15  5  2  0  0  0  0
 17 19  1  0  0  0  0
 18 14  2  0  0  0  0
 19  7  1  0  0  0  0
 20  1  1  0  0  0  0
 20  4  1  1  0  0  0
 21  4  1  6  0  0  0
 21 16  1  0  0  0  0
 21 15  1  0  0  0  0
 21  8  1  0  0  0  0
 24 16  1  0  0  0  0
 25 14  1  0  0  0  0
 25 26  1  0  0  0  0
 27 25  2  0  0  0  0
 29 28  1  0  0  0  0
 29  5  1  0  0  0  0
 31 30  1  0  0  0  0
M  END
>  <MODEL>
7

>  <REMARK>
 VINA RESULT:      -3.7      2.328      3.188
  Name = 
  3 active torsions:
  status: ('A' for Active; 'I' for Inactive)
    1  A    between atoms: N_5  and  O_22
    2  A    between atoms: C_6  and  O_19
    3  A    between atoms: C_8  and  C_17
                            x       y       z     vdW  Elec       q    Type
                         _______ _______ _______ _____ _____    ______ ____

>  <TORSDO>
F 3

$$$$
=
 OpenBabel10222415303D

 31 35  0  0  1  0  0  0  0  0999 V2000
  185.5160  177.7630  136.7200 C   0  0  1  0  0  3  0  0  0  0  0  0
  183.6810  179.6690  139.0810 C   0  0  2  0  0  3  0  0  0  0  0  0
  186.3920  177.8020  137.9000 C   0  0  2  0  0  0  0  0  0  0  0  0
  183.1900  176.8390  136.9630 C   0  0  0  0  0  2  0  0  0  0  0  0
  181.0890  174.6450  135.1680 N   0  0  0  0  0  0  0  0  0  0  0  0
  180.9910  180.4660  136.4570 C   0  0  2  0  0  3  0  0  0  0  0  0
  181.0050  179.2380  138.6260 C   0  0  0  0  0  0  0  0  0  0  0  0
  183.4160  175.9850  134.5930 C   0  0  0  0  0  2  0  0  0  0  0  0
  184.1680  178.2700  138.7370 C   0  0  2  0  0  3  0  0  0  0  0  0
  186.0420  176.5840  137.3020 O   0  0  0  0  0  0  0  0  0  0  0  0
  180.6360  179.4680  135.3570 C   0  0  0  0  0  2  0  0  0  0  0  0
  180.2070  180.1420  137.7400 C   0  0  1  0  0  3  0  0  0  0  0  0
  185.6200  178.1210  139.1570 C   0  0  0  0  0  2  0  0  0  0  0  0
  180.2150  176.7790  138.9930 C   0  0  0  0  0  3  0  0  0  0  0  0
  182.0530  175.5010  135.1090 C   0  0  0  0  0  0  0  0  0  0  0  0
  182.0970  177.9450  134.9660 O   0  0  0  0  0  0  0  0  0  0  0  0
  183.1530  179.6470  140.2650 O   0  0  0  0  0  0  0  0  0  0  0  0
  180.6070  178.0120  138.8240 C   0  0  0  0  0  0  0  0  0  0  0  0
  182.2180  179.7030  139.2180 N   0  0  0  0  0  0  0  0  0  0  0  0
  184.1000  178.0270  137.2320 C   0  0  1  0  0  3  0  0  0  0  0  0
  182.7080  176.8090  135.5180 C   0  0  1  0  0  0  0  0  0  0  0  0
  188.0830  178.2790  137.6520 Cl  0  0  0  0  0  0  0  0  0  0  0  0
  179.7990  181.3840  138.5220 C   0  0  0  0  0  1  0  0  0  0  0  0
  181.0310  178.1770  135.7060 O   0  0  0  0  0  0  0  0  0  0  0  0
  181.0140  175.8200  139.7580 C   0  0  0  0  0  0  0  0  0  0  0  0
  180.4470  174.6460  140.2410 O   0  0  0  0  0  1  0  0  0  0  0  0
  182.2290  176.0580  139.9740 O   0  0  0  0  0  0  0  0  0  0  0  0
  179.4640  173.8700  136.7810 C   0  0  0  0  0  1  0  0  0  0  0  0
  180.0000  174.8970  135.9670 O   0  0  0  0  0  0  0  0  0  0  0  0
  180.7070  181.7540  135.9910 O   0  0  0  0  0  0  0  0  0  0  0  0
  180.7990  181.6640  134.6010 C   0  0  0  0  0  1  0  0  0  0  0  0
  1 20  1  0  0  0  0
  1 10  1  1  0  0  0
  1  3  1  0  0  0  0
  2 19  1  0  0  0  0
  2 17  1  1  0  0  0
  3 22  1  6  0  0  0
  3 13  1  0  0  0  0
  5 29  1  0  0  0  0
  6 30  1  6  0  0  0
  6 12  1  0  0  0  0
  7 18  2  0  0  0  0
  7 19  1  0  0  0  0
  8 15  1  0  0  0  0
  9  2  1  0  0  0  0
  9 13  1  6  0  0  0
 10  3  1  0  0  0  0
 11 24  1  0  0  0  0
 11  6  1  0  0  0  0
 12 23  1  1  0  0  0
 12  7  1  0  0  0  0
 14 25  1  0  0  0  0
 15  5  2  0  0  0  0
 15 21  1  0  0  0  0
 16 21  1  0  0  0  0
 16 24  1  0  0  0  0
 18 14  2  0  0  0  0
 19 17  1  0  0  0  0
 20  4  1  1  0  0  0
 20  9  1  0  0  0  0
 21  8  1  6  0  0  0
 21  4  1  0  0  0  0
 25 27  2  0  0  0  0
 25 26  1  0  0  0  0
 29 28  1  0  0  0  0
 31 30  1  0  0  0  0
M  END
>  <MODEL>
8

>  <REMARK>
 VINA RESULT:      -3.3      2.703      5.966
  Name = 
  3 active torsions:
  status: ('A' for Active; 'I' for Inactive)
    1  A    between atoms: N_5  and  O_22
    2  A    between atoms: C_6  and  O_19
    3  A    between atoms: C_8  and  C_17
                            x       y       z     vdW  Elec       q    Type
                         _______ _______ _______ _____ _____    ______ ____

>  <TORSDO>
F 3

$$$$
=
 OpenBabel10222415303D

 31 35  0  0  1  0  0  0  0  0999 V2000
  182.9600  175.3450  137.3740 C   0  0  1  0  0  3  0  0  0  0  0  0
  184.2800  178.6240  137.6540 C   0  0  2  0  0  3  0  0  0  0  0  0
  184.4130  175.1520  137.2580 C   0  0  2  0  0  0  0  0  0  0  0  0
  182.0440  176.4780  139.4240 C   0  0  0  0  0  2  0  0  0  0  0  0
  179.3730  175.9700  141.6720 N   0  0  0  0  0  0  0  0  0  0  0  0
  180.7450  180.1270  137.6240 C   0  0  2  0  0  3  0  0  0  0  0  0
  182.6080  180.0780  139.2790 C   0  0  0  0  0  0  0  0  0  0  0  0
  180.0170  174.9850  139.1910 C   0  0  0  0  0  2  0  0  0  0  0  0
  184.1360  177.2880  138.3660 C   0  0  2  0  0  3  0  0  0  0  0  0
  183.6630  174.4310  138.1980 O   0  0  0  0  0  0  0  0  0  0  0  0
  179.5600  179.3790  138.2310 C   0  0  0  0  0  2  0  0  0  0  0  0
  181.4960  180.9060  138.7170 C   0  0  1  0  0  3  0  0  0  0  0  0
  185.1780  176.3170  137.8360 C   0  0  0  0  0  2  0  0  0  0  0  0
  182.4450  179.2120  141.7350 C   0  0  0  0  0  3  0  0  0  0  0  0
  179.8120  175.8110  140.4690 C   0  0  0  0  0  0  0  0  0  0  0  0
  179.8230  177.2660  138.5000 O   0  0  0  0  0  0  0  0  0  0  0  0
  185.0780  179.3800  138.3410 O   0  0  0  0  0  0  0  0  0  0  0  0
  182.5380  179.6540  140.5110 C   0  0  0  0  0  0  0  0  0  0  0  0
  183.7190  179.7180  138.4590 N   0  0  0  0  0  0  0  0  0  0  0  0
  182.7640  176.6770  138.0990 C   0  0  1  0  0  3  0  0  0  0  0  0
  180.5420  176.3100  139.2340 C   0  0  1  0  0  0  0  0  0  0  0  0
  185.0070  174.1810  135.8970 Cl  0  0  0  0  0  0  0  0  0  0  0  0
  182.0550  182.2370  138.2280 C   0  0  0  0  0  1  0  0  0  0  0  0
  179.9900  178.4090  139.1360 O   0  0  0  0  0  0  0  0  0  0  0  0
  183.4470  178.3070  142.3000 C   0  0  0  0  0  0  0  0  0  0  0  0
  183.6700  178.2580  143.6720 O   0  0  0  0  0  1  0  0  0  0  0  0
  184.1090  177.5590  141.5360 O   0  0  0  0  0  0  0  0  0  0  0  0
  178.9370  178.3390  141.8760 C   0  0  0  0  0  1  0  0  0  0  0  0
  179.5820  177.1610  142.3240 O   0  0  0  0  0  0  0  0  0  0  0  0
  180.2630  180.9790  136.6250 O   0  0  0  0  0  0  0  0  0  0  0  0
  179.9650  180.1400  135.5490 C   0  0  0  0  0  1  0  0  0  0  0  0
  1 20  1  0  0  0  0
  1 10  1  1  0  0  0
  2 17  1  1  0  0  0
  2  9  1  0  0  0  0
  2 19  1  0  0  0  0
  3 22  1  6  0  0  0
  3  1  1  0  0  0  0
  3 13  1  0  0  0  0
  3 10  1  0  0  0  0
  5 29  1  0  0  0  0
  6 30  1  6  0  0  0
  6 11  1  0  0  0  0
  6 12  1  0  0  0  0
  7 18  2  0  0  0  0
  8 15  1  0  0  0  0
  9 13  1  6  0  0  0
 11 24  1  0  0  0  0
 12 23  1  6  0  0  0
 12  7  1  0  0  0  0
 14 25  1  0  0  0  0
 15  5  2  0  0  0  0
 16 24  1  0  0  0  0
 16 21  1  0  0  0  0
 17 19  1  0  0  0  0
 18 14  2  0  0  0  0
 19  7  1  0  0  0  0
 20  9  1  0  0  0  0
 20  4  1  1  0  0  0
 21  8  1  6  0  0  0
 21  4  1  0  0  0  0
 21 15  1  0  0  0  0
 25 26  1  0  0  0  0
 27 25  2  0  0  0  0
 28 29  1  0  0  0  0
 31 30  1  0  0  0  0
M  END
>  <MODEL>
9

>  <REMARK>
 VINA RESULT:      -2.9      2.502      4.752
  Name = 
  3 active torsions:
  status: ('A' for Active; 'I' for Inactive)
    1  A    between atoms: N_5  and  O_22
    2  A    between atoms: C_6  and  O_19
    3  A    between atoms: C_8  and  C_17
                            x       y       z     vdW  Elec       q    Type
                         _______ _______ _______ _____ _____    ______ ____

>  <TORSDO>
F 3

$$$$
