=
 OpenBabel10222420053D

 27 29  0  0  1  0  0  0  0  0999 V2000
  187.1320  178.4550  141.7640 C   0  0  0  0  0  0  0  0  0  0  0  0
  188.3170  178.6020  140.8710 C   0  0  1  0  0  3  0  0  0  0  0  0
  187.5040  178.0590  142.9620 C   0  0  0  0  0  0  0  0  0  0  0  0
  185.7110  178.8100  141.4450 C   0  0  0  0  0  2  0  0  0  0  0  0
  189.4290  178.1640  141.7890 C   0  0  0  0  0  3  0  0  0  0  0  0
  184.7540  178.1070  142.4230 C   0  0  1  0  0  3  0  0  0  0  0  0
  185.2360  178.2860  143.8710 C   0  0  0  0  0  2  0  0  0  0  0  0
  188.9410  177.8540  142.9880 C   0  0  0  0  0  0  0  0  0  0  0  0
  186.5960  177.8620  144.0070 O   0  0  0  0  0  0  0  0  0  0  0  0
  190.9620  176.7190  143.9350 C   0  0  0  0  0  3  0  0  0  0  0  0
  191.6970  176.2930  144.9970 N   0  0  0  0  0  0  0  0  0  0  0  0
  191.2850  176.4980  146.2770 C   0  0  0  0  0  0  0  0  0  0  0  0
  190.0800  177.1590  146.5260 C   0  0  0  0  0  3  0  0  0  0  0  0
  189.7460  177.3870  144.1360 C   0  0  0  0  0  0  0  0  0  0  0  0
  189.3120  177.6030  145.4500 C   0  0  0  0  0  3  0  0  0  0  0  0
  192.0880  176.0330  147.3720 C   0  0  0  0  0  0  0  0  0  0  0  0
  192.7350  175.6580  148.2560 N   0  0  0  0  0  0  0  0  0  0  0  0
  188.9580  179.2090  138.1520 O   0  0  0  0  0  0  0  0  0  0  0  0
  188.5520  178.0450  138.4140 C   0  0  0  0  0  0  0  0  0  0  0  0
  188.4340  177.0890  137.3680 N   0  0  0  0  0  1  0  0  0  0  0  0
  188.2050  177.6790  139.7500 N   0  0  0  0  0  2  0  0  0  0  0  0
  183.4690  178.6310  142.2840 O   0  0  0  0  0  0  0  0  0  0  0  0
  183.0780  178.9700  143.5810 C   0  0  0  0  0  2  0  0  0  0  0  0
  181.5650  179.0140  143.6680 C   0  0  0  0  0  2  0  0  0  0  0  0
  181.0100  178.7300  142.4200 O   0  0  0  0  0  0  0  0  0  0  0  0
  179.6290  177.7770  143.9580 O   0  0  0  0  0  1  0  0  0  0  0  0
  179.6930  178.3670  142.6970 C   0  0  0  0  0  2  0  0  0  0  0  0
  1  3  2  0  0  0  0
  2 21  1  6  0  0  0
  2  1  1  0  0  0  0
  2  5  1  0  0  0  0
  3  8  1  0  0  0  0
  3  9  1  0  0  0  0
  4  1  1  0  0  0  0
  4  6  1  0  0  0  0
  5  8  2  0  0  0  0
  6 22  1  1  0  0  0
  6  7  1  0  0  0  0
  7  9  1  0  0  0  0
  8 14  1  0  0  0  0
 10 14  2  0  0  0  0
 10 11  1  0  0  0  0
 11 12  2  0  0  0  0
 12 13  1  0  0  0  0
 12 16  1  0  0  0  0
 14 15  1  0  0  0  0
 15 13  2  0  0  0  0
 16 17  3  0  0  0  0
 18 19  2  0  0  0  0
 19 21  1  0  0  0  0
 20 19  1  0  0  0  0
 22 23  1  0  0  0  0
 23 24  1  0  0  0  0
 25 27  1  0  0  0  0
 25 24  1  0  0  0  0
 27 26  1  0  0  0  0
M  END
>  <MODEL>
1

>  <REMARK>
 VINA RESULT:      -7.6      0.000      0.000
  Name = 
  8 active torsions:
  status: ('A' for Active; 'I' for Inactive)
    1  A    between atoms: C_5  and  O_23
    2  A    between atoms: C_6  and  C_8
    3  A    between atoms: C_7  and  N_26
    4  A    between atoms: O_14  and  C_15
    5  A    between atoms: O_14  and  C_19
    6  A    between atoms: C_19  and  C_27
    7  A    between atoms: C_21  and  C_22
    8  A    between atoms: O_23  and  C_27
                            x       y       z     vdW  Elec       q    Type
                         _______ _______ _______ _____ _____    ______ ____

>  <TORSDO>
F 8

$$$$
=
 OpenBabel10222420053D

 27 29  0  0  1  0  0  0  0  0999 V2000
  186.2840  177.9640  144.5060 C   0  0  0  0  0  0  0  0  0  0  0  0
  187.2170  177.1880  145.3730 C   0  0  1  0  0  3  0  0  0  0  0  0
  186.7360  178.0120  143.2710 C   0  0  0  0  0  0  0  0  0  0  0  0
  184.9500  178.5280  144.8910 C   0  0  0  0  0  2  0  0  0  0  0  0
  188.3090  176.8460  144.3930 C   0  0  0  0  0  3  0  0  0  0  0  0
  184.5220  179.6150  143.8910 C   0  0  1  0  0  3  0  0  0  0  0  0
  184.7090  179.1230  142.4470 C   0  0  0  0  0  2  0  0  0  0  0  0
  188.0150  177.3310  143.1880 C   0  0  0  0  0  0  0  0  0  0  0  0
  186.0470  178.6590  142.2410 O   0  0  0  0  0  0  0  0  0  0  0  0
  190.0330  176.4150  142.0230 C   0  0  0  0  0  3  0  0  0  0  0  0
  190.8050  176.2830  140.9120 N   0  0  0  0  0  0  0  0  0  0  0  0
  190.4730  176.8840  139.7380 C   0  0  0  0  0  0  0  0  0  0  0  0
  189.3140  177.6580  139.6520 C   0  0  0  0  0  3  0  0  0  0  0  0
  188.8610  177.1830  141.9860 C   0  0  0  0  0  0  0  0  0  0  0  0
  188.5090  177.8050  140.7820 C   0  0  0  0  0  3  0  0  0  0  0  0
  191.3150  176.7220  138.5860 C   0  0  0  0  0  0  0  0  0  0  0  0
  191.9930  176.5910  137.6580 N   0  0  0  0  0  0  0  0  0  0  0  0
  188.8310  176.3270  147.5700 O   0  0  0  0  0  0  0  0  0  0  0  0
  188.5530  177.5540  147.4910 C   0  0  0  0  0  0  0  0  0  0  0  0
  189.0460  178.4520  148.4750 N   0  0  0  0  0  1  0  0  0  0  0  0
  187.7420  178.0480  146.4240 N   0  0  0  0  0  2  0  0  0  0  0  0
  183.1860  179.9550  144.1060 O   0  0  0  0  0  0  0  0  0  0  0  0
  182.5030  178.7370  144.1080 C   0  0  0  0  0  2  0  0  0  0  0  0
  181.1190  178.9220  143.5150 C   0  0  0  0  0  2  0  0  0  0  0  0
  181.2020  178.9680  142.1240 O   0  0  0  0  0  0  0  0  0  0  0  0
  179.9620  180.8020  142.6540 O   0  0  0  0  0  1  0  0  0  0  0  0
  180.1280  179.7660  141.7350 C   0  0  0  0  0  2  0  0  0  0  0  0
  1  4  1  0  0  0  0
  1  2  1  0  0  0  0
  2 21  1  1  0  0  0
  3  1  2  0  0  0  0
  5  2  1  0  0  0  0
  6 22  1  1  0  0  0
  6  4  1  0  0  0  0
  7  6  1  0  0  0  0
  8  3  1  0  0  0  0
  8  5  2  0  0  0  0
  9  7  1  0  0  0  0
  9  3  1  0  0  0  0
 11 10  2  0  0  0  0
 12 11  1  0  0  0  0
 13 12  2  0  0  0  0
 13 15  1  0  0  0  0
 14 10  1  0  0  0  0
 14  8  1  0  0  0  0
 15 14  2  0  0  0  0
 16 12  1  0  0  0  0
 17 16  3  0  0  0  0
 19 18  2  0  0  0  0
 19 20  1  0  0  0  0
 21 19  1  0  0  0  0
 22 23  1  0  0  0  0
 24 23  1  0  0  0  0
 25 24  1  0  0  0  0
 27 25  1  0  0  0  0
 27 26  1  0  0  0  0
M  END
>  <MODEL>
2

>  <REMARK>
 VINA RESULT:      -7.3      2.428      5.346
  Name = 
  8 active torsions:
  status: ('A' for Active; 'I' for Inactive)
    1  A    between atoms: C_5  and  O_23
    2  A    between atoms: C_6  and  C_8
    3  A    between atoms: C_7  and  N_26
    4  A    between atoms: O_14  and  C_15
    5  A    between atoms: O_14  and  C_19
    6  A    between atoms: C_19  and  C_27
    7  A    between atoms: C_21  and  C_22
    8  A    between atoms: O_23  and  C_27
                            x       y       z     vdW  Elec       q    Type
                         _______ _______ _______ _____ _____    ______ ____

>  <TORSDO>
F 8

$$$$
=
 OpenBabel10222420053D

 27 29  0  0  1  0  0  0  0  0999 V2000
  189.6010  177.6850  144.4570 C   0  0  0  0  0  0  0  0  0  0  0  0
  189.4690  177.8240  145.9360 C   0  0  1  0  0  3  0  0  0  0  0  0
  188.4360  177.8600  143.8710 C   0  0  0  0  0  0  0  0  0  0  0  0
  190.8670  177.4970  143.6770 C   0  0  0  0  0  2  0  0  0  0  0  0
  187.9880  178.0660  146.0740 C   0  0  0  0  0  3  0  0  0  0  0  0
  190.5520  176.9540  142.2730 C   0  0  1  0  0  3  0  0  0  0  0  0
  189.4170  177.7630  141.6250 C   0  0  0  0  0  2  0  0  0  0  0  0
  187.4100  178.0820  144.8750 C   0  0  0  0  0  0  0  0  0  0  0  0
  188.2730  177.8070  142.4850 O   0  0  0  0  0  0  0  0  0  0  0  0
  185.1140  178.6770  145.6760 C   0  0  0  0  0  3  0  0  0  0  0  0
  183.7880  178.8720  145.4430 N   0  0  0  0  0  0  0  0  0  0  0  0
  183.2500  178.7090  144.2050 C   0  0  0  0  0  0  0  0  0  0  0  0
  184.0630  178.3320  143.1340 C   0  0  0  0  0  3  0  0  0  0  0  0
  185.9690  178.2970  144.6310 C   0  0  0  0  0  0  0  0  0  0  0  0
  185.4250  178.1260  143.3520 C   0  0  0  0  0  3  0  0  0  0  0  0
  181.8460  178.9250  143.9990 C   0  0  0  0  0  0  0  0  0  0  0  0
  180.7140  179.0980  143.8320 N   0  0  0  0  0  0  0  0  0  0  0  0
  192.0380  177.1970  147.0210 O   0  0  0  0  0  0  0  0  0  0  0  0
  191.1330  176.3240  147.1130 C   0  0  0  0  0  0  0  0  0  0  0  0
  191.4130  175.0830  147.7460 N   0  0  0  0  0  1  0  0  0  0  0  0
  189.8300  176.5700  146.5820 N   0  0  0  0  0  2  0  0  0  0  0  0
  191.6940  177.0180  141.4750 O   0  0  0  0  0  0  0  0  0  0  0  0
  191.2390  177.4760  140.2360 C   0  0  0  0  0  2  0  0  0  0  0  0
  191.9560  176.7390  139.1200 C   0  0  0  0  0  2  0  0  0  0  0  0
  191.2020  176.8050  137.9480 O   0  0  0  0  0  0  0  0  0  0  0  0
  190.9880  174.5390  137.9660 O   0  0  0  0  0  1  0  0  0  0  0  0
  190.3000  175.7490  138.0530 C   0  0  0  0  0  2  0  0  0  0  0  0
  1  2  1  0  0  0  0
  2  5  1  0  0  0  0
  2 21  1  1  0  0  0
  3  1  2  0  0  0  0
  3  8  1  0  0  0  0
  4  1  1  0  0  0  0
  6 22  1  6  0  0  0
  6  4  1  0  0  0  0
  7  6  1  0  0  0  0
  7  9  1  0  0  0  0
  8  5  2  0  0  0  0
  9  3  1  0  0  0  0
 11 10  1  0  0  0  0
 12 11  2  0  0  0  0
 13 15  2  0  0  0  0
 13 12  1  0  0  0  0
 14  8  1  0  0  0  0
 14 10  2  0  0  0  0
 15 14  1  0  0  0  0
 16 12  1  0  0  0  0
 17 16  3  0  0  0  0
 18 19  2  0  0  0  0
 19 20  1  0  0  0  0
 21 19  1  0  0  0  0
 23 22  1  0  0  0  0
 24 23  1  0  0  0  0
 25 27  1  0  0  0  0
 25 24  1  0  0  0  0
 26 27  1  0  0  0  0
M  END
>  <MODEL>
3

>  <REMARK>
 VINA RESULT:      -7.3      3.615      8.193
  Name = 
  8 active torsions:
  status: ('A' for Active; 'I' for Inactive)
    1  A    between atoms: C_5  and  O_23
    2  A    between atoms: C_6  and  C_8
    3  A    between atoms: C_7  and  N_26
    4  A    between atoms: O_14  and  C_15
    5  A    between atoms: O_14  and  C_19
    6  A    between atoms: C_19  and  C_27
    7  A    between atoms: C_21  and  C_22
    8  A    between atoms: O_23  and  C_27
                            x       y       z     vdW  Elec       q    Type
                         _______ _______ _______ _____ _____    ______ ____

>  <TORSDO>
F 8

$$$$
=
 OpenBabel10222420053D

 27 29  0  0  1  0  0  0  0  0999 V2000
  189.2370  177.9170  143.1330 C   0  0  0  0  0  0  0  0  0  0  0  0
  188.3100  178.5430  142.1470 C   0  0  1  0  0  3  0  0  0  0  0  0
  190.2730  177.3860  142.5180 C   0  0  0  0  0  0  0  0  0  0  0  0
  189.1310  177.9590  144.6270 C   0  0  0  0  0  2  0  0  0  0  0  0
  189.0030  178.2190  140.8490 C   0  0  0  0  0  3  0  0  0  0  0  0
  189.9890  176.8480  145.2540 C   0  0  1  0  0  3  0  0  0  0  0  0
  191.3940  176.8350  144.6300 C   0  0  0  0  0  2  0  0  0  0  0  0
  190.1310  177.5510  141.0830 C   0  0  0  0  0  0  0  0  0  0  0  0
  191.3120  176.7510  143.2040 O   0  0  0  0  0  0  0  0  0  0  0  0
  192.4270  177.4030  140.0960 C   0  0  0  0  0  3  0  0  0  0  0  0
  193.2800  176.9600  139.1350 N   0  0  0  0  0  0  0  0  0  0  0  0
  192.8500  176.1900  138.1000 C   0  0  0  0  0  0  0  0  0  0  0  0
  191.5020  175.8370  138.0040 C   0  0  0  0  0  3  0  0  0  0  0  0
  191.0650  177.0740  140.0420 C   0  0  0  0  0  0  0  0  0  0  0  0
  190.6110  176.2820  138.9800 C   0  0  0  0  0  3  0  0  0  0  0  0
  193.7820  175.7410  137.1030 C   0  0  0  0  0  0  0  0  0  0  0  0
  194.5330  175.3800  136.3010 N   0  0  0  0  0  0  0  0  0  0  0  0
  185.7750  179.8210  141.8140 O   0  0  0  0  0  0  0  0  0  0  0  0
  185.7830  178.5760  142.0150 C   0  0  0  0  0  0  0  0  0  0  0  0
  184.5550  177.8620  142.0620 N   0  0  0  0  0  1  0  0  0  0  0  0
  187.0150  177.8780  142.1990 N   0  0  0  0  0  2  0  0  0  0  0  0
  190.0850  177.0460  146.6310 O   0  0  0  0  0  0  0  0  0  0  0  0
  188.7630  177.1140  147.0750 C   0  0  0  0  0  2  0  0  0  0  0  0
  188.6940  177.9090  148.3660 C   0  0  0  0  0  2  0  0  0  0  0  0
  187.6230  178.8020  148.3150 O   0  0  0  0  0  0  0  0  0  0  0  0
  185.6900  179.1320  147.1600 O   0  0  0  0  0  1  0  0  0  0  0  0
  186.7680  178.2690  147.3530 C   0  0  0  0  0  2  0  0  0  0  0  0
  1  4  1  0  0  0  0
  2 21  1  6  0  0  0
  2  1  1  0  0  0  0
  3  1  2  0  0  0  0
  3  9  1  0  0  0  0
  4  6  1  0  0  0  0
  5  8  2  0  0  0  0
  5  2  1  0  0  0  0
  6 22  1  1  0  0  0
  7  6  1  0  0  0  0
  8  3  1  0  0  0  0
  9  7  1  0  0  0  0
 11 10  2  0  0  0  0
 12 11  1  0  0  0  0
 13 12  2  0  0  0  0
 13 15  1  0  0  0  0
 14 10  1  0  0  0  0
 14  8  1  0  0  0  0
 15 14  2  0  0  0  0
 16 12  1  0  0  0  0
 17 16  3  0  0  0  0
 18 19  2  0  0  0  0
 19 20  1  0  0  0  0
 19 21  1  0  0  0  0
 22 23  1  0  0  0  0
 23 24  1  0  0  0  0
 25 24  1  0  0  0  0
 26 27  1  0  0  0  0
 27 25  1  0  0  0  0
M  END
>  <MODEL>
4

>  <REMARK>
 VINA RESULT:      -7.2      3.609      6.504
  Name = 
  8 active torsions:
  status: ('A' for Active; 'I' for Inactive)
    1  A    between atoms: C_5  and  O_23
    2  A    between atoms: C_6  and  C_8
    3  A    between atoms: C_7  and  N_26
    4  A    between atoms: O_14  and  C_15
    5  A    between atoms: O_14  and  C_19
    6  A    between atoms: C_19  and  C_27
    7  A    between atoms: C_21  and  C_22
    8  A    between atoms: O_23  and  C_27
                            x       y       z     vdW  Elec       q    Type
                         _______ _______ _______ _____ _____    ______ ____

>  <TORSDO>
F 8

$$$$
=
 OpenBabel10222420053D

 27 29  0  0  1  0  0  0  0  0999 V2000
  183.4640  178.7070  141.5920 C   0  0  0  0  0  0  0  0  0  0  0  0
  182.2520  178.6070  142.4550 C   0  0  1  0  0  3  0  0  0  0  0  0
  184.5570  178.6190  142.3200 C   0  0  0  0  0  0  0  0  0  0  0  0
  183.5050  178.7740  140.0950 C   0  0  0  0  0  2  0  0  0  0  0  0
  182.8760  178.4920  143.8220 C   0  0  0  0  0  3  0  0  0  0  0  0
  184.8650  179.3150  139.6230 C   0  0  1  0  0  3  0  0  0  0  0  0
  186.0130  178.5920  140.3450 C   0  0  0  0  0  2  0  0  0  0  0  0
  184.2040  178.5020  143.7240 C   0  0  0  0  0  0  0  0  0  0  0  0
  185.8380  178.6600  141.7640 O   0  0  0  0  0  0  0  0  0  0  0  0
  184.8570  179.0430  146.0790 C   0  0  0  0  0  3  0  0  0  0  0  0
  185.7220  178.9480  147.1240 N   0  0  0  0  0  0  0  0  0  0  0  0
  186.8780  178.2380  147.0290 C   0  0  0  0  0  0  0  0  0  0  0  0
  187.2020  177.5840  145.8380 C   0  0  0  0  0  3  0  0  0  0  0  0
  185.1390  178.4040  144.8640 C   0  0  0  0  0  0  0  0  0  0  0  0
  186.3270  177.6710  144.7550 C   0  0  0  0  0  3  0  0  0  0  0  0
  187.7670  178.1610  148.1540 C   0  0  0  0  0  0  0  0  0  0  0  0
  188.4840  178.1000  149.0600 N   0  0  0  0  0  0  0  0  0  0  0  0
  179.5470  178.8060  141.5530 O   0  0  0  0  0  0  0  0  0  0  0  0
  180.1260  179.8670  141.9110 C   0  0  0  0  0  0  0  0  0  0  0  0
  179.4250  181.1030  141.8610 N   0  0  0  0  0  1  0  0  0  0  0  0
  181.4800  179.8390  142.3630 N   0  0  0  0  0  2  0  0  0  0  0  0
  184.9890  179.1410  138.2440 O   0  0  0  0  0  0  0  0  0  0  0  0
  185.6220  177.9040  138.0960 C   0  0  0  0  0  2  0  0  0  0  0  0
  186.6280  177.9740  136.9630 C   0  0  0  0  0  2  0  0  0  0  0  0
  187.2600  179.2180  136.9670 O   0  0  0  0  0  0  0  0  0  0  0  0
  188.9710  179.1800  138.4670 O   0  0  0  0  0  1  0  0  0  0  0  0
  188.6110  178.9240  137.1450 C   0  0  0  0  0  2  0  0  0  0  0  0
  1  3  2  0  0  0  0
  1  2  1  0  0  0  0
  2 21  1  1  0  0  0
  2  5  1  0  0  0  0
  3  8  1  0  0  0  0
  4  1  1  0  0  0  0
  6 22  1  6  0  0  0
  6  4  1  0  0  0  0
  6  7  1  0  0  0  0
  7  9  1  0  0  0  0
  8  5  2  0  0  0  0
  8 14  1  0  0  0  0
  9  3  1  0  0  0  0
 10 11  1  0  0  0  0
 12 11  2  0  0  0  0
 12 16  1  0  0  0  0
 13 12  1  0  0  0  0
 14 10  2  0  0  0  0
 15 14  1  0  0  0  0
 15 13  2  0  0  0  0
 16 17  3  0  0  0  0
 18 19  2  0  0  0  0
 19 21  1  0  0  0  0
 20 19  1  0  0  0  0
 23 22  1  0  0  0  0
 24 25  1  0  0  0  0
 24 23  1  0  0  0  0
 25 27  1  0  0  0  0
 27 26  1  0  0  0  0
M  END
>  <MODEL>
5

>  <REMARK>
 VINA RESULT:      -7.2      3.578      6.565
  Name = 
  8 active torsions:
  status: ('A' for Active; 'I' for Inactive)
    1  A    between atoms: C_5  and  O_23
    2  A    between atoms: C_6  and  C_8
    3  A    between atoms: C_7  and  N_26
    4  A    between atoms: O_14  and  C_15
    5  A    between atoms: O_14  and  C_19
    6  A    between atoms: C_19  and  C_27
    7  A    between atoms: C_21  and  C_22
    8  A    between atoms: O_23  and  C_27
                            x       y       z     vdW  Elec       q    Type
                         _______ _______ _______ _____ _____    ______ ____

>  <TORSDO>
F 8

$$$$
=
 OpenBabel10222420053D

 27 29  0  0  1  0  0  0  0  0999 V2000
  187.2330  178.4030  141.6870 C   0  0  0  0  0  0  0  0  0  0  0  0
  188.4310  178.5400  140.8100 C   0  0  1  0  0  3  0  0  0  0  0  0
  187.5880  178.0180  142.8950 C   0  0  0  0  0  0  0  0  0  0  0  0
  185.8160  178.7550  141.3460 C   0  0  0  0  0  2  0  0  0  0  0  0
  189.5300  178.1110  141.7470 C   0  0  0  0  0  3  0  0  0  0  0  0
  184.8470  178.0620  142.3170 C   0  0  1  0  0  3  0  0  0  0  0  0
  185.3080  178.2550  143.7700 C   0  0  0  0  0  2  0  0  0  0  0  0
  189.0250  177.8130  142.9430 C   0  0  0  0  0  0  0  0  0  0  0  0
  186.6660  177.8310  143.9280 O   0  0  0  0  0  0  0  0  0  0  0  0
  191.0170  176.6600  143.9280 C   0  0  0  0  0  3  0  0  0  0  0  0
  191.7370  176.2450  145.0040 N   0  0  0  0  0  0  0  0  0  0  0  0
  191.3220  176.4880  146.2760 C   0  0  0  0  0  0  0  0  0  0  0  0
  190.1300  177.1790  146.5030 C   0  0  0  0  0  3  0  0  0  0  0  0
  189.8130  177.3580  144.1060 C   0  0  0  0  0  0  0  0  0  0  0  0
  189.3770  177.6130  145.4110 C   0  0  0  0  0  3  0  0  0  0  0  0
  192.1090  176.0330  147.3870 C   0  0  0  0  0  0  0  0  0  0  0  0
  192.7430  175.6660  148.2830 N   0  0  0  0  0  0  0  0  0  0  0  0
  188.8240  179.1970  138.0550 O   0  0  0  0  0  0  0  0  0  0  0  0
  188.5520  178.0000  138.3410 C   0  0  0  0  0  0  0  0  0  0  0  0
  188.4580  177.0330  137.3030 N   0  0  0  0  0  1  0  0  0  0  0  0
  188.3340  177.6070  139.6960 N   0  0  0  0  0  2  0  0  0  0  0  0
  183.5630  178.5840  142.1550 O   0  0  0  0  0  0  0  0  0  0  0  0
  183.4380  178.8060  140.7810 C   0  0  0  0  0  2  0  0  0  0  0  0
  182.3590  177.9060  140.2100 C   0  0  0  0  0  2  0  0  0  0  0  0
  182.8460  176.6050  140.0840 O   0  0  0  0  0  0  0  0  0  0  0  0
  183.6170  175.9440  138.0460 O   0  0  0  0  0  1  0  0  0  0  0  0
  182.4750  176.2150  138.7980 C   0  0  0  0  0  2  0  0  0  0  0  0
  1  3  2  0  0  0  0
  2 21  1  6  0  0  0
  2  1  1  0  0  0  0
  2  5  1  0  0  0  0
  3  8  1  0  0  0  0
  3  9  1  0  0  0  0
  4  1  1  0  0  0  0
  4  6  1  0  0  0  0
  5  8  2  0  0  0  0
  6 22  1  1  0  0  0
  6  7  1  0  0  0  0
  7  9  1  0  0  0  0
  8 14  1  0  0  0  0
 10 14  2  0  0  0  0
 10 11  1  0  0  0  0
 11 12  2  0  0  0  0
 12 13  1  0  0  0  0
 12 16  1  0  0  0  0
 14 15  1  0  0  0  0
 15 13  2  0  0  0  0
 16 17  3  0  0  0  0
 18 19  2  0  0  0  0
 19 21  1  0  0  0  0
 20 19  1  0  0  0  0
 23 22  1  0  0  0  0
 24 23  1  0  0  0  0
 25 24  1  0  0  0  0
 26 27  1  0  0  0  0
 27 25  1  0  0  0  0
M  END
>  <MODEL>
6

>  <REMARK>
 VINA RESULT:      -7.1      1.636      2.084
  Name = 
  8 active torsions:
  status: ('A' for Active; 'I' for Inactive)
    1  A    between atoms: C_5  and  O_23
    2  A    between atoms: C_6  and  C_8
    3  A    between atoms: C_7  and  N_26
    4  A    between atoms: O_14  and  C_15
    5  A    between atoms: O_14  and  C_19
    6  A    between atoms: C_19  and  C_27
    7  A    between atoms: C_21  and  C_22
    8  A    between atoms: O_23  and  C_27
                            x       y       z     vdW  Elec       q    Type
                         _______ _______ _______ _____ _____    ______ ____

>  <TORSDO>
F 8

$$$$
=
 OpenBabel10222420053D

 27 29  0  0  1  0  0  0  0  0999 V2000
  187.4890  177.9530  144.9660 C   0  0  0  0  0  0  0  0  0  0  0  0
  186.8560  178.6800  146.1030 C   0  0  1  0  0  3  0  0  0  0  0  0
  186.6540  177.8670  143.9520 C   0  0  0  0  0  0  0  0  0  0  0  0
  188.9070  177.4740  144.8750 C   0  0  0  0  0  2  0  0  0  0  0  0
  185.4800  178.9460  145.5500 C   0  0  0  0  0  3  0  0  0  0  0  0
  189.0380  176.4060  143.7770 C   0  0  1  0  0  3  0  0  0  0  0  0
  188.3500  176.8720  142.4850 C   0  0  0  0  0  2  0  0  0  0  0  0
  185.3820  178.4690  144.3110 C   0  0  0  0  0  0  0  0  0  0  0  0
  186.9950  177.2530  142.7440 O   0  0  0  0  0  0  0  0  0  0  0  0
  184.2400  178.2630  142.0920 C   0  0  0  0  0  3  0  0  0  0  0  0
  183.1250  178.3440  141.3180 N   0  0  0  0  0  0  0  0  0  0  0  0
  181.9210  178.7050  141.8380 C   0  0  0  0  0  0  0  0  0  0  0  0
  181.8080  179.0040  143.1980 C   0  0  0  0  0  3  0  0  0  0  0  0
  184.1750  178.5550  143.4620 C   0  0  0  0  0  0  0  0  0  0  0  0
  182.9410  178.9270  144.0080 C   0  0  0  0  0  3  0  0  0  0  0  0
  180.7660  178.7790  140.9890 C   0  0  0  0  0  0  0  0  0  0  0  0
  179.8340  178.8380  140.3050 N   0  0  0  0  0  0  0  0  0  0  0  0
  188.6900  178.6270  148.2950 O   0  0  0  0  0  0  0  0  0  0  0  0
  187.7130  177.8310  148.3280 C   0  0  0  0  0  0  0  0  0  0  0  0
  187.5560  176.9540  149.4350 N   0  0  0  0  0  1  0  0  0  0  0  0
  186.7660  177.8000  147.2600 N   0  0  0  0  0  2  0  0  0  0  0  0
  190.3870  176.1490  143.5290 O   0  0  0  0  0  0  0  0  0  0  0  0
  191.0780  176.9680  144.4240 C   0  0  0  0  0  2  0  0  0  0  0  0
  191.8070  176.1150  145.4450 C   0  0  0  0  0  2  0  0  0  0  0  0
  192.0520  176.8620  146.5980 O   0  0  0  0  0  0  0  0  0  0  0  0
  193.1810  176.0020  148.3780 O   0  0  0  0  0  1  0  0  0  0  0  0
  192.0030  175.9320  147.6340 C   0  0  0  0  0  2  0  0  0  0  0  0
  1  2  1  0  0  0  0
  2 21  1  1  0  0  0
  3  8  1  0  0  0  0
  3  1  2  0  0  0  0
  4  1  1  0  0  0  0
  5  2  1  0  0  0  0
  6 22  1  6  0  0  0
  6  4  1  0  0  0  0
  7  9  1  0  0  0  0
  7  6  1  0  0  0  0
  8  5  2  0  0  0  0
  9  3  1  0  0  0  0
 10 14  1  0  0  0  0
 11 12  1  0  0  0  0
 11 10  2  0  0  0  0
 12 13  2  0  0  0  0
 13 15  1  0  0  0  0
 14 15  2  0  0  0  0
 14  8  1  0  0  0  0
 16 12  1  0  0  0  0
 17 16  3  0  0  0  0
 18 19  2  0  0  0  0
 19 20  1  0  0  0  0
 21 19  1  0  0  0  0
 22 23  1  0  0  0  0
 23 24  1  0  0  0  0
 24 25  1  0  0  0  0
 25 27  1  0  0  0  0
 27 26  1  0  0  0  0
M  END
>  <MODEL>
7

>  <REMARK>
 VINA RESULT:      -7.0      3.598      8.943
  Name = 
  8 active torsions:
  status: ('A' for Active; 'I' for Inactive)
    1  A    between atoms: C_5  and  O_23
    2  A    between atoms: C_6  and  C_8
    3  A    between atoms: C_7  and  N_26
    4  A    between atoms: O_14  and  C_15
    5  A    between atoms: O_14  and  C_19
    6  A    between atoms: C_19  and  C_27
    7  A    between atoms: C_21  and  C_22
    8  A    between atoms: O_23  and  C_27
                            x       y       z     vdW  Elec       q    Type
                         _______ _______ _______ _____ _____    ______ ____

>  <TORSDO>
F 8

$$$$
=
 OpenBabel10222420053D

 27 29  0  0  1  0  0  0  0  0999 V2000
  188.8750  176.9750  144.4110 C   0  0  0  0  0  0  0  0  0  0  0  0
  188.9600  176.6750  142.9530 C   0  0  1  0  0  3  0  0  0  0  0  0
  187.6840  177.4430  144.7180 C   0  0  0  0  0  0  0  0  0  0  0  0
  189.9140  176.6910  145.4550 C   0  0  0  0  0  2  0  0  0  0  0  0
  187.5950  177.1110  142.4860 C   0  0  0  0  0  3  0  0  0  0  0  0
  189.6500  177.5360  146.7120 C   0  0  1  0  0  3  0  0  0  0  0  0
  188.1720  177.4460  147.1220 C   0  0  0  0  0  2  0  0  0  0  0  0
  186.8750  177.5520  143.5160 C   0  0  0  0  0  0  0  0  0  0  0  0
  187.3210  177.7870  146.0220 O   0  0  0  0  0  0  0  0  0  0  0  0
  184.8110  178.0770  142.2010 C   0  0  0  0  0  3  0  0  0  0  0  0
  183.5360  178.5420  142.1280 N   0  0  0  0  0  0  0  0  0  0  0  0
  182.8790  178.9990  143.2280 C   0  0  0  0  0  0  0  0  0  0  0  0
  183.5150  178.9980  144.4720 C   0  0  0  0  0  3  0  0  0  0  0  0
  185.4900  178.0570  143.4280 C   0  0  0  0  0  0  0  0  0  0  0  0
  184.8240  178.5250  144.5670 C   0  0  0  0  0  3  0  0  0  0  0  0
  181.5330  179.4840  143.1110 C   0  0  0  0  0  0  0  0  0  0  0  0
  180.4470  179.8740  143.0180 N   0  0  0  0  0  0  0  0  0  0  0  0
  190.4710  175.9950  140.6240 O   0  0  0  0  0  0  0  0  0  0  0  0
  190.6980  177.1100  141.1670 C   0  0  0  0  0  0  0  0  0  0  0  0
  191.6760  177.9790  140.6100 N   0  0  0  0  0  1  0  0  0  0  0  0
  189.9850  177.5060  142.3390 N   0  0  0  0  0  2  0  0  0  0  0  0
  190.4590  177.0910  147.7580 O   0  0  0  0  0  0  0  0  0  0  0  0
  191.3550  176.2000  147.1630 C   0  0  0  0  0  2  0  0  0  0  0  0
  192.5660  176.0120  148.0570 C   0  0  0  0  0  2  0  0  0  0  0  0
  192.7500  177.1460  148.8490 O   0  0  0  0  0  0  0  0  0  0  0  0
  194.6990  177.1320  150.0240 O   0  0  0  0  0  1  0  0  0  0  0  0
  193.3830  176.6730  149.9970 C   0  0  0  0  0  2  0  0  0  0  0  0
  1  3  2  0  0  0  0
  1  4  1  0  0  0  0
  2 21  1  6  0  0  0
  2  1  1  0  0  0  0
  3  9  1  0  0  0  0
  4  6  1  0  0  0  0
  5  2  1  0  0  0  0
  5  8  2  0  0  0  0
  6  7  1  0  0  0  0
  6 22  1  1  0  0  0
  8  3  1  0  0  0  0
  9  7  1  0  0  0  0
 10 14  1  0  0  0  0
 11 10  2  0  0  0  0
 11 12  1  0  0  0  0
 12 13  2  0  0  0  0
 13 15  1  0  0  0  0
 14  8  1  0  0  0  0
 14 15  2  0  0  0  0
 16 12  1  0  0  0  0
 17 16  3  0  0  0  0
 18 19  2  0  0  0  0
 19 21  1  0  0  0  0
 20 19  1  0  0  0  0
 23 22  1  0  0  0  0
 23 24  1  0  0  0  0
 24 25  1  0  0  0  0
 25 27  1  0  0  0  0
 27 26  1  0  0  0  0
M  END
>  <MODEL>
8

>  <REMARK>
 VINA RESULT:      -7.0      3.718      8.277
  Name = 
  8 active torsions:
  status: ('A' for Active; 'I' for Inactive)
    1  A    between atoms: C_5  and  O_23
    2  A    between atoms: C_6  and  C_8
    3  A    between atoms: C_7  and  N_26
    4  A    between atoms: O_14  and  C_15
    5  A    between atoms: O_14  and  C_19
    6  A    between atoms: C_19  and  C_27
    7  A    between atoms: C_21  and  C_22
    8  A    between atoms: O_23  and  C_27
                            x       y       z     vdW  Elec       q    Type
                         _______ _______ _______ _____ _____    ______ ____

>  <TORSDO>
F 8

$$$$
=
 OpenBabel10222420053D

 27 29  0  0  1  0  0  0  0  0999 V2000
  188.5600  177.8270  141.3600 C   0  0  0  0  0  0  0  0  0  0  0  0
  188.1760  178.6300  140.1630 C   0  0  1  0  0  3  0  0  0  0  0  0
  189.6450  177.1230  141.1140 C   0  0  0  0  0  0  0  0  0  0  0  0
  187.9220  177.8610  142.7160 C   0  0  0  0  0  2  0  0  0  0  0  0
  189.2320  178.2060  139.1760 C   0  0  0  0  0  3  0  0  0  0  0  0
  188.2940  176.6000  143.5120 C   0  0  1  0  0  3  0  0  0  0  0  0
  189.8070  176.3390  143.4330 C   0  0  0  0  0  2  0  0  0  0  0  0
  190.0680  177.3370  139.7410 C   0  0  0  0  0  0  0  0  0  0  0  0
  190.2400  176.2960  142.0690 O   0  0  0  0  0  0  0  0  0  0  0  0
  192.5330  177.1340  139.3500 C   0  0  0  0  0  3  0  0  0  0  0  0
  193.5920  176.5540  138.7260 N   0  0  0  0  0  0  0  0  0  0  0  0
  193.4260  175.5580  137.8150 C   0  0  0  0  0  0  0  0  0  0  0  0
  192.1420  175.1050  137.5010 C   0  0  0  0  0  3  0  0  0  0  0  0
  191.2250  176.7130  139.0670 C   0  0  0  0  0  0  0  0  0  0  0  0
  191.0420  175.6880  138.1310 C   0  0  0  0  0  3  0  0  0  0  0  0
  194.5700  174.9710  137.1760 C   0  0  0  0  0  0  0  0  0  0  0  0
  195.4920  174.4980  136.6620 N   0  0  0  0  0  0  0  0  0  0  0  0
  185.6850  179.7530  141.0040 O   0  0  0  0  0  0  0  0  0  0  0  0
  185.6530  178.8270  140.1500 C   0  0  0  0  0  0  0  0  0  0  0  0
  184.4030  178.3840  139.6380 N   0  0  0  0  0  1  0  0  0  0  0  0
  186.8610  178.2150  139.6950 N   0  0  0  0  0  2  0  0  0  0  0  0
  187.9100  176.7530  144.8450 O   0  0  0  0  0  0  0  0  0  0  0  0
  189.0450  177.2500  145.4890 C   0  0  0  0  0  2  0  0  0  0  0  0
  188.8470  177.2010  146.9920 C   0  0  0  0  0  2  0  0  0  0  0  0
  190.0690  177.3950  147.6370 O   0  0  0  0  0  0  0  0  0  0  0  0
  192.1030  176.3740  147.5940 O   0  0  0  0  0  1  0  0  0  0  0  0
  191.0000  176.7480  146.8270 C   0  0  0  0  0  2  0  0  0  0  0  0
  1  4  1  0  0  0  0
  2 21  1  6  0  0  0
  2  1  1  0  0  0  0
  3  1  2  0  0  0  0
  3  9  1  0  0  0  0
  4  6  1  0  0  0  0
  5  8  2  0  0  0  0
  5  2  1  0  0  0  0
  6 22  1  1  0  0  0
  7  6  1  0  0  0  0
  8  3  1  0  0  0  0
  9  7  1  0  0  0  0
 11 10  2  0  0  0  0
 12 11  1  0  0  0  0
 13 12  2  0  0  0  0
 13 15  1  0  0  0  0
 14 10  1  0  0  0  0
 14  8  1  0  0  0  0
 15 14  2  0  0  0  0
 16 12  1  0  0  0  0
 17 16  3  0  0  0  0
 19 18  2  0  0  0  0
 20 19  1  0  0  0  0
 21 19  1  0  0  0  0
 22 23  1  0  0  0  0
 23 24  1  0  0  0  0
 24 25  1  0  0  0  0
 27 26  1  0  0  0  0
 27 25  1  0  0  0  0
M  END
>  <MODEL>
9

>  <REMARK>
 VINA RESULT:      -6.9      3.707      6.941
  Name = 
  8 active torsions:
  status: ('A' for Active; 'I' for Inactive)
    1  A    between atoms: C_5  and  O_23
    2  A    between atoms: C_6  and  C_8
    3  A    between atoms: C_7  and  N_26
    4  A    between atoms: O_14  and  C_15
    5  A    between atoms: O_14  and  C_19
    6  A    between atoms: C_19  and  C_27
    7  A    between atoms: C_21  and  C_22
    8  A    between atoms: O_23  and  C_27
                            x       y       z     vdW  Elec       q    Type
                         _______ _______ _______ _____ _____    ______ ____

>  <TORSDO>
F 8

$$$$
