=
 OpenBabel10222421163D

 37 41  0  0  1  0  0  0  0  0999 V2000
  186.6850  174.2340  135.4940 C   0  0  0  0  0  2  0  0  0  0  0  0
  184.4980  177.6220  138.0740 C   0  0  1  0  0  3  0  0  0  0  0  0
  185.7680  176.2770  136.5810 C   0  0  0  0  0  0  0  0  0  0  0  0
  183.9620  176.2710  137.9460 N   0  0  0  0  0  0  0  0  0  0  0  0
  185.6910  177.6740  137.1060 C   0  0  2  0  0  3  0  0  0  0  0  0
  185.2950  173.7700  135.4550 N   0  0  0  0  0  2  0  0  0  0  0  0
  186.7350  175.7670  135.5520 C   0  0  0  0  0  2  0  0  0  0  0  0
  184.6450  174.0820  136.7330 C   0  0  0  0  0  2  0  0  0  0  0  0
  184.7750  175.5470  137.0420 C   0  0  0  0  0  0  0  0  0  0  0  0
  188.7720  178.9400  138.3130 O   0  0  0  0  0  0  0  0  0  0  0  0
  186.9360  178.0440  137.8480 C   0  0  0  0  0  0  0  0  0  0  0  0
  187.8470  178.9320  137.4030 N   0  0  0  0  0  0  0  0  0  0  0  0
  188.4570  178.1000  139.2680 C   0  0  0  0  0  0  0  0  0  0  0  0
  187.2820  177.4870  139.0260 N   0  0  0  0  0  0  0  0  0  0  0  0
  190.2780  177.5770  142.6190 C   0  0  0  0  0  0  0  0  0  0  0  0
  189.2800  177.8520  140.4520 C   0  0  0  0  0  0  0  0  0  0  0  0
  190.5580  177.4180  140.4000 N   0  0  0  0  0  0  0  0  0  0  0  0
  188.7730  178.0700  142.0440 S   0  0  0  0  0  0  0  0  0  0  0  0
  191.1120  177.2650  141.6020 N   0  0  0  0  0  0  0  0  0  0  0  0
  191.5900  176.5560  144.4520 O   0  0  0  0  0  0  0  0  0  0  0  0
  190.1240  178.2630  144.8750 O   0  0  0  0  0  1  0  0  0  0  0  0
  190.6520  177.4900  144.0320 C   0  0  0  0  0  0  0  0  0  0  0  0
  183.0850  175.6510  138.9300 C   0  0  0  0  0  2  0  0  0  0  0  0
  180.6580  175.4620  139.8700 C   0  0  0  0  0  1  0  0  0  0  0  0
  181.4250  175.4270  138.2270 S   0  0  0  0  0  0  0  0  0  0  0  0
  183.4580  178.6550  137.6580 C   0  0  0  0  0  2  0  0  0  0  0  0
  184.5850  178.5730  143.3010 C   0  0  0  0  0  0  0  0  0  0  0  0
  181.9870  179.5480  139.4440 C   0  0  0  0  0  0  0  0  0  0  0  0
  180.9970  180.4090  139.2260 C   0  0  0  0  0  2  0  0  0  0  0  0
  184.3200  179.5750  139.7390 N   0  0  0  0  0  0  0  0  0  0  0  0
  183.2860  179.7230  138.7300 C   0  0  1  0  0  3  0  0  0  0  0  0
  183.4200  178.2580  143.6570 O   0  0  0  0  0  0  0  0  0  0  0  0
  183.9220  179.1580  140.8960 C   0  0  0  0  0  0  0  0  0  0  0  0
  184.8620  179.0200  141.9680 N   0  0  0  0  0  2  0  0  0  0  0  0
  182.1720  178.7980  141.0530 S   0  0  0  0  0  0  0  0  0  0  0  0
  185.1380  178.6450  145.6950 C   0  0  0  0  0  1  0  0  0  0  0  0
  185.6930  178.5090  144.2910 C   0  0  0  0  0  2  0  0  0  0  0  0
  1  7  1  0  0  0  0
  2 26  1  6  0  0  0
  3  9  2  0  0  0  0
  3  5  1  0  0  0  0
  4  2  1  0  0  0  0
  4 23  1  0  0  0  0
  5 11  1  1  0  0  0
  5  2  1  0  0  0  0
  6  1  1  0  0  0  0
  6  8  1  0  0  0  0
  7  3  1  0  0  0  0
  8  9  1  0  0  0  0
  9  4  1  0  0  0  0
 10 13  1  0  0  0  0
 11 14  1  0  0  0  0
 12 11  2  0  0  0  0
 12 10  1  0  0  0  0
 13 16  1  0  0  0  0
 14 13  2  0  0  0  0
 15 22  1  0  0  0  0
 16 18  1  0  0  0  0
 17 16  2  0  0  0  0
 17 19  1  0  0  0  0
 18 15  1  0  0  0  0
 19 15  2  0  0  0  0
 22 20  2  0  0  0  0
 22 21  1  0  0  0  0
 25 23  1  0  0  0  0
 25 24  1  0  0  0  0
 27 32  2  0  0  0  0
 27 37  1  0  0  0  0
 28 35  1  0  0  0  0
 29 28  2  0  0  0  0
 30 33  2  0  0  0  0
 31 26  1  6  0  0  0
 31 28  1  0  0  0  0
 31 30  1  0  0  0  0
 33 35  1  0  0  0  0
 33 34  1  0  0  0  0
 34 27  1  0  0  0  0
 37 36  1  0  0  0  0
M  END
>  <MODEL>
1

>  <REMARK>
 VINA RESULT:      -7.2      0.000      0.000
  Name = 
  8 active torsions:
  status: ('A' for Active; 'I' for Inactive)
    1  A    between atoms: C_1  and  C_10
    2  A    between atoms: C_6  and  C_32
    3  A    between atoms: C_11  and  C_24
    4  A    between atoms: C_12  and  C_31
    5  A    between atoms: C_13  and  C_35
    6  A    between atoms: C_17  and  C_35
    7  A    between atoms: N_23  and  C_28
    8  A    between atoms: C_28  and  S_37
                            x       y       z     vdW  Elec       q    Type
                         _______ _______ _______ _____ _____    ______ ____

>  <TORSDO>
F 8

$$$$
=
 OpenBabel10222421163D

 37 41  0  0  1  0  0  0  0  0999 V2000
  179.1740  176.8510  140.2980 C   0  0  0  0  0  2  0  0  0  0  0  0
  182.9380  179.7630  139.7700 C   0  0  1  0  0  3  0  0  0  0  0  0
  181.3660  178.0220  140.1630 C   0  0  0  0  0  0  0  0  0  0  0  0
  181.6860  179.9670  139.0490 N   0  0  0  0  0  0  0  0  0  0  0  0
  182.7710  178.4130  140.4870 C   0  0  2  0  0  3  0  0  0  0  0  0
  178.9350  177.3840  138.9540 N   0  0  0  0  0  2  0  0  0  0  0  0
  180.6810  176.7520  140.5740 C   0  0  0  0  0  2  0  0  0  0  0  0
  179.3830  178.7810  138.9020 C   0  0  0  0  0  2  0  0  0  0  0  0
  180.8160  178.8880  139.3400 C   0  0  0  0  0  0  0  0  0  0  0  0
  182.5810  179.0940  143.9590 O   0  0  0  0  0  0  0  0  0  0  0  0
  182.9600  178.5900  141.9600 C   0  0  0  0  0  0  0  0  0  0  0  0
  182.0130  179.0700  142.7920 N   0  0  0  0  0  0  0  0  0  0  0  0
  183.8120  178.6590  143.8580 C   0  0  0  0  0  0  0  0  0  0  0  0
  184.1200  178.3190  142.5910 N   0  0  0  0  0  0  0  0  0  0  0  0
  186.5390  178.1940  146.5360 C   0  0  0  0  0  0  0  0  0  0  0  0
  184.7450  178.5570  144.9810 C   0  0  0  0  0  0  0  0  0  0  0  0
  184.4700  179.0030  146.2270 N   0  0  0  0  0  0  0  0  0  0  0  0
  186.2820  177.8740  144.9010 S   0  0  0  0  0  0  0  0  0  0  0  0
  185.4660  178.8020  147.0890 N   0  0  0  0  0  0  0  0  0  0  0  0
  187.7190  177.7140  148.6570 O   0  0  0  0  0  1  0  0  0  0  0  0
  188.8500  177.7160  146.6650 O   0  0  0  0  0  0  0  0  0  0  0  0
  187.7580  177.8650  147.2770 C   0  0  0  0  0  0  0  0  0  0  0  0
  181.2410  181.2600  138.5490 C   0  0  0  0  0  2  0  0  0  0  0  0
  180.6530  182.9170  136.6190 C   0  0  0  0  0  1  0  0  0  0  0  0
  180.7450  181.1150  136.8070 S   0  0  0  0  0  0  0  0  0  0  0  0
  184.1100  179.6850  138.8010 C   0  0  0  0  0  2  0  0  0  0  0  0
  189.5600  177.8440  138.9400 C   0  0  0  0  0  0  0  0  0  0  0  0
  185.0790  177.9120  137.3630 C   0  0  0  0  0  0  0  0  0  0  0  0
  184.3520  177.0220  136.6940 C   0  0  0  0  0  2  0  0  0  0  0  0
  185.9200  178.2340  139.5350 N   0  0  0  0  0  0  0  0  0  0  0  0
  184.6940  178.2800  138.7580 C   0  0  1  0  0  3  0  0  0  0  0  0
  189.6980  177.7650  137.6910 O   0  0  0  0  0  0  0  0  0  0  0  0
  187.0120  178.0960  138.8580 C   0  0  0  0  0  0  0  0  0  0  0  0
  188.2680  177.9990  139.5400 N   0  0  0  0  0  2  0  0  0  0  0  0
  186.8370  178.0180  137.0740 S   0  0  0  0  0  0  0  0  0  0  0  0
  190.5440  176.6730  140.8650 C   0  0  0  0  0  1  0  0  0  0  0  0
  190.7590  177.7450  139.8140 C   0  0  0  0  0  2  0  0  0  0  0  0
  1  7  1  0  0  0  0
  2 26  1  6  0  0  0
  2  5  1  0  0  0  0
  3  5  1  0  0  0  0
  3  7  1  0  0  0  0
  4  9  1  0  0  0  0
  4  2  1  0  0  0  0
  5 11  1  1  0  0  0
  6  1  1  0  0  0  0
  8  6  1  0  0  0  0
  8  9  1  0  0  0  0
  9  3  2  0  0  0  0
 11 14  1  0  0  0  0
 11 12  2  0  0  0  0
 12 10  1  0  0  0  0
 13 10  1  0  0  0  0
 13 16  1  0  0  0  0
 14 13  2  0  0  0  0
 15 19  2  0  0  0  0
 15 22  1  0  0  0  0
 16 17  2  0  0  0  0
 17 19  1  0  0  0  0
 18 16  1  0  0  0  0
 18 15  1  0  0  0  0
 21 22  2  0  0  0  0
 22 20  1  0  0  0  0
 23  4  1  0  0  0  0
 24 25  1  0  0  0  0
 25 23  1  0  0  0  0
 27 34  1  0  0  0  0
 27 37  1  0  0  0  0
 28 31  1  0  0  0  0
 29 28  2  0  0  0  0
 31 26  1  6  0  0  0
 31 30  1  0  0  0  0
 32 27  2  0  0  0  0
 33 30  2  0  0  0  0
 33 34  1  0  0  0  0
 35 28  1  0  0  0  0
 35 33  1  0  0  0  0
 37 36  1  0  0  0  0
M  END
>  <MODEL>
2

>  <REMARK>
 VINA RESULT:      -6.9      2.632      6.126
  Name = 
  8 active torsions:
  status: ('A' for Active; 'I' for Inactive)
    1  A    between atoms: C_1  and  C_10
    2  A    between atoms: C_6  and  C_32
    3  A    between atoms: C_11  and  C_24
    4  A    between atoms: C_12  and  C_31
    5  A    between atoms: C_13  and  C_35
    6  A    between atoms: C_17  and  C_35
    7  A    between atoms: N_23  and  C_28
    8  A    between atoms: C_28  and  S_37
                            x       y       z     vdW  Elec       q    Type
                         _______ _______ _______ _____ _____    ______ ____

>  <TORSDO>
F 8

$$$$
=
 OpenBabel10222421163D

 37 41  0  0  1  0  0  0  0  0999 V2000
  191.8150  174.4970  137.6070 C   0  0  0  0  0  2  0  0  0  0  0  0
  187.4750  176.4430  137.0590 C   0  0  1  0  0  3  0  0  0  0  0  0
  189.7770  175.8880  137.2880 C   0  0  0  0  0  0  0  0  0  0  0  0
  187.7430  175.0380  136.7690 N   0  0  0  0  0  0  0  0  0  0  0  0
  188.8520  177.0610  137.3540 C   0  0  2  0  0  3  0  0  0  0  0  0
  191.2340  173.6160  136.5890 N   0  0  0  0  0  2  0  0  0  0  0  0
  191.2670  175.9230  137.4550 C   0  0  0  0  0  2  0  0  0  0  0  0
  189.7990  173.4580  136.8500 C   0  0  0  0  0  2  0  0  0  0  0  0
  189.1290  174.8010  136.9280 C   0  0  0  0  0  0  0  0  0  0  0  0
  188.9350  179.1150  140.2390 O   0  0  0  0  0  0  0  0  0  0  0  0
  188.8540  177.6780  138.7160 C   0  0  0  0  0  0  0  0  0  0  0  0
  188.9310  179.0040  138.9460 N   0  0  0  0  0  0  0  0  0  0  0  0
  188.8700  177.9250  140.7830 C   0  0  0  0  0  0  0  0  0  0  0  0
  188.8170  176.9520  139.8520 N   0  0  0  0  0  0  0  0  0  0  0  0
  189.2190  177.4880  144.5920 C   0  0  0  0  0  0  0  0  0  0  0  0
  188.8590  177.6770  142.2250 C   0  0  0  0  0  0  0  0  0  0  0  0
  187.8840  176.9910  142.8610 N   0  0  0  0  0  0  0  0  0  0  0  0
  190.0440  178.1950  143.3030 S   0  0  0  0  0  0  0  0  0  0  0  0
  188.0840  176.8860  144.1740 N   0  0  0  0  0  0  0  0  0  0  0  0
  190.9550  177.1370  146.3200 O   0  0  0  0  0  0  0  0  0  0  0  0
  188.8650  177.8740  146.8960 O   0  0  0  0  0  1  0  0  0  0  0  0
  189.6600  177.5120  145.9880 C   0  0  0  0  0  0  0  0  0  0  0  0
  186.7280  173.9950  136.8090 C   0  0  0  0  0  2  0  0  0  0  0  0
  186.7470  171.7440  135.4890 C   0  0  0  0  0  1  0  0  0  0  0  0
  186.3130  173.4660  135.1220 S   0  0  0  0  0  0  0  0  0  0  0  0
  186.8540  177.1320  135.8520 C   0  0  0  0  0  2  0  0  0  0  0  0
  184.7850  178.5060  141.0430 C   0  0  0  0  0  0  0  0  0  0  0  0
  184.4610  177.1360  136.5050 C   0  0  0  0  0  0  0  0  0  0  0  0
  183.4560  177.1540  135.6350 C   0  0  0  0  0  2  0  0  0  0  0  0
  185.9450  178.6490  137.5230 N   0  0  0  0  0  0  0  0  0  0  0  0
  185.6630  177.9880  136.2610 C   0  0  1  0  0  3  0  0  0  0  0  0
  183.9300  177.5830  141.0860 O   0  0  0  0  0  0  0  0  0  0  0  0
  185.2710  178.2300  138.5420 C   0  0  0  0  0  0  0  0  0  0  0  0
  185.4500  178.8500  139.8220 N   0  0  0  0  0  2  0  0  0  0  0  0
  184.1280  176.8820  138.2400 S   0  0  0  0  0  0  0  0  0  0  0  0
  184.6880  178.4720  143.4990 C   0  0  0  0  0  1  0  0  0  0  0  0
  185.0890  179.2760  142.2780 C   0  0  0  0  0  2  0  0  0  0  0  0
  2 26  1  6  0  0  0
  2  5  1  0  0  0  0
  3  5  1  0  0  0  0
  3  7  1  0  0  0  0
  4 23  1  0  0  0  0
  4  9  1  0  0  0  0
  4  2  1  0  0  0  0
  5 11  1  1  0  0  0
  6  8  1  0  0  0  0
  6  1  1  0  0  0  0
  7  1  1  0  0  0  0
  8  9  1  0  0  0  0
  9  3  2  0  0  0  0
 10 13  1  0  0  0  0
 11 12  2  0  0  0  0
 11 14  1  0  0  0  0
 12 10  1  0  0  0  0
 13 16  1  0  0  0  0
 14 13  2  0  0  0  0
 15 22  1  0  0  0  0
 16 17  2  0  0  0  0
 16 18  1  0  0  0  0
 17 19  1  0  0  0  0
 18 15  1  0  0  0  0
 19 15  2  0  0  0  0
 22 20  2  0  0  0  0
 22 21  1  0  0  0  0
 25 24  1  0  0  0  0
 25 23  1  0  0  0  0
 27 32  2  0  0  0  0
 27 37  1  0  0  0  0
 28 35  1  0  0  0  0
 29 28  2  0  0  0  0
 30 33  2  0  0  0  0
 31 26  1  1  0  0  0
 31 28  1  0  0  0  0
 31 30  1  0  0  0  0
 33 34  1  0  0  0  0
 34 27  1  0  0  0  0
 35 33  1  0  0  0  0
 37 36  1  0  0  0  0
M  END
>  <MODEL>
3

>  <REMARK>
 VINA RESULT:      -6.8      2.675      3.809
  Name = 
  8 active torsions:
  status: ('A' for Active; 'I' for Inactive)
    1  A    between atoms: C_1  and  C_10
    2  A    between atoms: C_6  and  C_32
    3  A    between atoms: C_11  and  C_24
    4  A    between atoms: C_12  and  C_31
    5  A    between atoms: C_13  and  C_35
    6  A    between atoms: C_17  and  C_35
    7  A    between atoms: N_23  and  C_28
    8  A    between atoms: C_28  and  S_37
                            x       y       z     vdW  Elec       q    Type
                         _______ _______ _______ _____ _____    ______ ____

>  <TORSDO>
F 8

$$$$
=
 OpenBabel10222421163D

 37 41  0  0  1  0  0  0  0  0999 V2000
  180.1360  179.9420  142.8100 C   0  0  0  0  0  2  0  0  0  0  0  0
  182.8150  178.8630  138.9910 C   0  0  1  0  0  3  0  0  0  0  0  0
  181.6330  179.0190  141.0490 C   0  0  0  0  0  0  0  0  0  0  0  0
  181.6750  179.7710  138.9140 N   0  0  0  0  0  0  0  0  0  0  0  0
  182.7720  178.2870  140.4160 C   0  0  2  0  0  3  0  0  0  0  0  0
  179.1830  180.1700  141.7200 N   0  0  0  0  0  2  0  0  0  0  0  0
  181.1110  178.8150  142.4410 C   0  0  0  0  0  2  0  0  0  0  0  0
  179.8990  180.7080  140.5570 C   0  0  0  0  0  2  0  0  0  0  0  0
  181.0350  179.8000  140.1750 C   0  0  0  0  0  0  0  0  0  0  0  0
  185.9330  179.3980  141.5650 O   0  0  0  0  0  0  0  0  0  0  0  0
  184.0590  178.5720  141.1210 C   0  0  0  0  0  0  0  0  0  0  0  0
  184.9630  179.4830  140.7080 N   0  0  0  0  0  0  0  0  0  0  0  0
  185.6510  178.4820  142.4590 C   0  0  0  0  0  0  0  0  0  0  0  0
  184.4550  177.9090  142.2260 N   0  0  0  0  0  0  0  0  0  0  0  0
  187.6410  177.6650  145.6520 C   0  0  0  0  0  0  0  0  0  0  0  0
  186.5290  178.1190  143.5730 C   0  0  0  0  0  0  0  0  0  0  0  0
  187.7700  177.6090  143.4140 N   0  0  0  0  0  0  0  0  0  0  0  0
  186.1380  178.2820  145.2030 S   0  0  0  0  0  0  0  0  0  0  0  0
  188.3870  177.3570  144.5680 N   0  0  0  0  0  0  0  0  0  0  0  0
  189.2150  176.7020  147.3000 O   0  0  0  0  0  0  0  0  0  0  0  0
  187.4750  178.0240  147.9820 O   0  0  0  0  0  1  0  0  0  0  0  0
  188.0960  177.4790  147.0310 C   0  0  0  0  0  0  0  0  0  0  0  0
  181.5380  180.8130  137.9060 C   0  0  0  0  0  2  0  0  0  0  0  0
  180.2630  182.0090  135.9670 C   0  0  0  0  0  1  0  0  0  0  0  0
  180.2500  180.3540  136.7100 S   0  0  0  0  0  0  0  0  0  0  0  0
  182.6710  177.7340  137.9790 C   0  0  0  0  0  2  0  0  0  0  0  0
  183.1000  172.2480  136.2950 C   0  0  0  0  0  0  0  0  0  0  0  0
  180.8940  176.0150  138.1710 C   0  0  0  0  0  0  0  0  0  0  0  0
  179.8390  176.1260  138.9730 C   0  0  0  0  0  2  0  0  0  0  0  0
  183.1510  175.3700  138.2970 N   0  0  0  0  0  0  0  0  0  0  0  0
  182.2390  176.4410  138.6580 C   0  0  1  0  0  3  0  0  0  0  0  0
  181.9470  172.1800  135.7930 O   0  0  0  0  0  0  0  0  0  0  0  0
  182.6690  174.4560  137.5200 C   0  0  0  0  0  0  0  0  0  0  0  0
  183.4810  173.3370  137.1430 N   0  0  0  0  0  2  0  0  0  0  0  0
  180.9710  174.6800  136.9880 S   0  0  0  0  0  0  0  0  0  0  0  0
  185.4520  171.7500  135.7840 C   0  0  0  0  0  1  0  0  0  0  0  0
  184.0780  171.1600  136.0260 C   0  0  0  0  0  2  0  0  0  0  0  0
  2 26  1  6  0  0  0
  2  5  1  0  0  0  0
  3  7  1  0  0  0  0
  4  2  1  0  0  0  0
  4  9  1  0  0  0  0
  5  3  1  0  0  0  0
  5 11  1  1  0  0  0
  6  1  1  0  0  0  0
  7  1  1  0  0  0  0
  8  6  1  0  0  0  0
  9  8  1  0  0  0  0
  9  3  2  0  0  0  0
 10 13  1  0  0  0  0
 11 14  1  0  0  0  0
 12 11  2  0  0  0  0
 12 10  1  0  0  0  0
 13 16  1  0  0  0  0
 14 13  2  0  0  0  0
 15 22  1  0  0  0  0
 16 18  1  0  0  0  0
 17 16  2  0  0  0  0
 17 19  1  0  0  0  0
 18 15  1  0  0  0  0
 19 15  2  0  0  0  0
 22 20  2  0  0  0  0
 22 21  1  0  0  0  0
 23  4  1  0  0  0  0
 24 25  1  0  0  0  0
 25 23  1  0  0  0  0
 27 34  1  0  0  0  0
 28 31  1  0  0  0  0
 28 29  2  0  0  0  0
 30 31  1  0  0  0  0
 31 26  1  6  0  0  0
 32 27  2  0  0  0  0
 33 30  2  0  0  0  0
 34 33  1  0  0  0  0
 35 33  1  0  0  0  0
 35 28  1  0  0  0  0
 36 37  1  0  0  0  0
 37 27  1  0  0  0  0
M  END
>  <MODEL>
4

>  <REMARK>
 VINA RESULT:      -6.8      3.142      6.465
  Name = 
  8 active torsions:
  status: ('A' for Active; 'I' for Inactive)
    1  A    between atoms: C_1  and  C_10
    2  A    between atoms: C_6  and  C_32
    3  A    between atoms: C_11  and  C_24
    4  A    between atoms: C_12  and  C_31
    5  A    between atoms: C_13  and  C_35
    6  A    between atoms: C_17  and  C_35
    7  A    between atoms: N_23  and  C_28
    8  A    between atoms: C_28  and  S_37
                            x       y       z     vdW  Elec       q    Type
                         _______ _______ _______ _____ _____    ______ ____

>  <TORSDO>
F 8

$$$$
=
 OpenBabel10222421163D

 37 41  0  0  1  0  0  0  0  0999 V2000
  189.9580  177.8660  137.7900 C   0  0  0  0  0  2  0  0  0  0  0  0
  185.2960  176.9000  137.2830 C   0  0  1  0  0  3  0  0  0  0  0  0
  187.4850  177.8000  137.5250 C   0  0  0  0  0  0  0  0  0  0  0  0
  186.3360  175.9510  136.8990 N   0  0  0  0  0  0  0  0  0  0  0  0
  186.0480  178.1900  137.6530 C   0  0  2  0  0  3  0  0  0  0  0  0
  189.9870  176.8880  136.6990 N   0  0  0  0  0  2  0  0  0  0  0  0
  188.6690  178.6980  137.7280 C   0  0  0  0  0  2  0  0  0  0  0  0
  188.9300  175.8920  136.9150 C   0  0  0  0  0  2  0  0  0  0  0  0
  187.5980  176.5690  137.0730 C   0  0  0  0  0  0  0  0  0  0  0  0
  184.8840  179.6260  140.6750 O   0  0  0  0  0  0  0  0  0  0  0  0
  185.7160  178.5890  139.0550 C   0  0  0  0  0  0  0  0  0  0  0  0
  184.8680  179.5850  139.3780 N   0  0  0  0  0  0  0  0  0  0  0  0
  185.7020  178.7100  141.1330 C   0  0  0  0  0  0  0  0  0  0  0  0
  186.2730  178.0070  140.1360 N   0  0  0  0  0  0  0  0  0  0  0  0
  186.0100  178.2790  144.9460 C   0  0  0  0  0  0  0  0  0  0  0  0
  185.9670  178.4780  142.5540 C   0  0  0  0  0  0  0  0  0  0  0  0
  187.1060  177.9220  143.0230 N   0  0  0  0  0  0  0  0  0  0  0  0
  184.9140  178.8670  143.8090 S   0  0  0  0  0  0  0  0  0  0  0  0
  187.1290  177.8110  144.3500 N   0  0  0  0  0  0  0  0  0  0  0  0
  184.5630  178.6290  146.9220 O   0  0  0  0  0  0  0  0  0  0  0  0
  186.7300  177.9310  147.1700 O   0  0  0  0  0  1  0  0  0  0  0  0
  185.7960  178.2680  146.3950 C   0  0  0  0  0  0  0  0  0  0  0  0
  186.1360  174.5100  136.8410 C   0  0  0  0  0  2  0  0  0  0  0  0
  187.4340  172.9330  135.2160 C   0  0  0  0  0  1  0  0  0  0  0  0
  185.9550  173.9770  135.1140 S   0  0  0  0  0  0  0  0  0  0  0  0
  184.3590  177.1730  136.1140 C   0  0  0  0  0  2  0  0  0  0  0  0
  180.9120  178.9720  140.3550 C   0  0  0  0  0  0  0  0  0  0  0  0
  182.8940  175.7310  137.5020 C   0  0  0  0  0  0  0  0  0  0  0  0
  182.5330  174.4980  137.1620 C   0  0  0  0  0  2  0  0  0  0  0  0
  182.2530  177.9480  137.0520 N   0  0  0  0  0  0  0  0  0  0  0  0
  182.9240  176.8030  136.4630 C   0  0  1  0  0  3  0  0  0  0  0  0
  181.1760  178.0260  141.1420 O   0  0  0  0  0  0  0  0  0  0  0  0
  181.9830  177.8560  138.3120 C   0  0  0  0  0  0  0  0  0  0  0  0
  181.2850  178.9190  138.9730 N   0  0  0  0  0  2  0  0  0  0  0  0
  182.5110  176.3510  139.1310 S   0  0  0  0  0  0  0  0  0  0  0  0
  180.0710  180.0940  142.3740 C   0  0  0  0  0  1  0  0  0  0  0  0
  180.1710  180.1580  140.8630 C   0  0  0  0  0  2  0  0  0  0  0  0
  2 26  1  6  0  0  0
  2  5  1  0  0  0  0
  3  5  1  0  0  0  0
  3  7  1  0  0  0  0
  4  9  1  0  0  0  0
  4  2  1  0  0  0  0
  5 11  1  1  0  0  0
  6  8  1  0  0  0  0
  6  1  1  0  0  0  0
  7  1  1  0  0  0  0
  8  9  1  0  0  0  0
  9  3  2  0  0  0  0
 10 13  1  0  0  0  0
 11 12  2  0  0  0  0
 11 14  1  0  0  0  0
 12 10  1  0  0  0  0
 13 16  1  0  0  0  0
 14 13  2  0  0  0  0
 15 22  1  0  0  0  0
 16 17  2  0  0  0  0
 16 18  1  0  0  0  0
 17 19  1  0  0  0  0
 18 15  1  0  0  0  0
 19 15  2  0  0  0  0
 22 20  2  0  0  0  0
 22 21  1  0  0  0  0
 23  4  1  0  0  0  0
 25 24  1  0  0  0  0
 25 23  1  0  0  0  0
 27 37  1  0  0  0  0
 27 32  2  0  0  0  0
 28 35  1  0  0  0  0
 29 28  2  0  0  0  0
 30 33  2  0  0  0  0
 31 26  1  1  0  0  0
 31 30  1  0  0  0  0
 31 28  1  0  0  0  0
 33 34  1  0  0  0  0
 33 35  1  0  0  0  0
 34 27  1  0  0  0  0
 37 36  1  0  0  0  0
M  END
>  <MODEL>
5

>  <REMARK>
 VINA RESULT:      -6.7      2.753      4.537
  Name = 
  8 active torsions:
  status: ('A' for Active; 'I' for Inactive)
    1  A    between atoms: C_1  and  C_10
    2  A    between atoms: C_6  and  C_32
    3  A    between atoms: C_11  and  C_24
    4  A    between atoms: C_12  and  C_31
    5  A    between atoms: C_13  and  C_35
    6  A    between atoms: C_17  and  C_35
    7  A    between atoms: N_23  and  C_28
    8  A    between atoms: C_28  and  S_37
                            x       y       z     vdW  Elec       q    Type
                         _______ _______ _______ _____ _____    ______ ____

>  <TORSDO>
F 8

$$$$
=
 OpenBabel10222421163D

 37 41  0  0  1  0  0  0  0  0999 V2000
  194.6460  174.2880  137.7910 C   0  0  0  0  0  2  0  0  0  0  0  0
  190.1100  175.8030  137.5660 C   0  0  1  0  0  3  0  0  0  0  0  0
  192.4610  175.4770  137.7150 C   0  0  0  0  0  0  0  0  0  0  0  0
  190.5310  174.5170  137.0210 N   0  0  0  0  0  0  0  0  0  0  0  0
  191.4120  176.5060  137.9880 C   0  0  2  0  0  3  0  0  0  0  0  0
  194.1580  173.5540  136.6200 N   0  0  0  0  0  2  0  0  0  0  0  0
  193.9400  175.6470  137.9020 C   0  0  0  0  0  2  0  0  0  0  0  0
  192.7520  173.1900  136.8300 C   0  0  0  0  0  2  0  0  0  0  0  0
  191.9360  174.4110  137.1500 C   0  0  0  0  0  0  0  0  0  0  0  0
  191.9400  177.5100  141.3430 O   0  0  0  0  0  0  0  0  0  0  0  0
  191.3570  176.8530  139.4410 C   0  0  0  0  0  0  0  0  0  0  0  0
  192.3800  177.3990  140.1280 N   0  0  0  0  0  0  0  0  0  0  0  0
  190.7130  177.0550  141.4100 C   0  0  0  0  0  0  0  0  0  0  0  0
  190.2790  176.6120  140.2140 N   0  0  0  0  0  0  0  0  0  0  0  0
  188.9140  177.2190  144.8100 C   0  0  0  0  0  0  0  0  0  0  0  0
  189.9110  177.0240  142.6340 C   0  0  0  0  0  0  0  0  0  0  0  0
  188.7380  176.3630  142.7450 N   0  0  0  0  0  0  0  0  0  0  0  0
  190.3190  177.7920  144.0760 S   0  0  0  0  0  0  0  0  0  0  0  0
  188.1850  176.4720  143.9520 N   0  0  0  0  0  0  0  0  0  0  0  0
  189.4830  177.6500  147.1790 O   0  0  0  0  0  1  0  0  0  0  0  0
  187.2980  177.5700  146.4990 O   0  0  0  0  0  0  0  0  0  0  0  0
  188.5180  177.4870  146.1940 C   0  0  0  0  0  0  0  0  0  0  0  0
  189.6400  173.3780  136.8540 C   0  0  0  0  0  2  0  0  0  0  0  0
  188.3880  171.5970  135.4140 C   0  0  0  0  0  1  0  0  0  0  0  0
  189.1910  173.1930  135.1030 S   0  0  0  0  0  0  0  0  0  0  0  0
  189.4040  176.6330  136.5020 C   0  0  0  0  0  2  0  0  0  0  0  0
  184.7610  173.2340  136.5460 C   0  0  0  0  0  0  0  0  0  0  0  0
  187.1440  177.2550  135.6910 C   0  0  0  0  0  0  0  0  0  0  0  0
  186.7450  178.5080  135.5010 C   0  0  0  0  0  2  0  0  0  0  0  0
  187.3620  175.7170  137.4560 N   0  0  0  0  0  0  0  0  0  0  0  0
  187.9600  176.9150  136.8940 C   0  0  1  0  0  3  0  0  0  0  0  0
  184.3470  173.5720  135.4060 O   0  0  0  0  0  0  0  0  0  0  0  0
  186.4570  175.1460  136.7320 C   0  0  0  0  0  0  0  0  0  0  0  0
  185.7800  173.9810  137.2200 N   0  0  0  0  0  2  0  0  0  0  0  0
  186.1150  175.9030  135.1420 S   0  0  0  0  0  0  0  0  0  0  0  0
  183.6880  171.0520  136.1840 C   0  0  0  0  0  1  0  0  0  0  0  0
  184.1580  172.0540  137.2200 C   0  0  0  0  0  2  0  0  0  0  0  0
  1  7  1  0  0  0  0
  2 26  1  6  0  0  0
  2  5  1  0  0  0  0
  3  7  1  0  0  0  0
  3  5  1  0  0  0  0
  4  9  1  0  0  0  0
  4  2  1  0  0  0  0
  5 11  1  1  0  0  0
  6  8  1  0  0  0  0
  6  1  1  0  0  0  0
  8  9  1  0  0  0  0
  9  3  2  0  0  0  0
 10 13  1  0  0  0  0
 11 12  2  0  0  0  0
 11 14  1  0  0  0  0
 12 10  1  0  0  0  0
 13 16  1  0  0  0  0
 14 13  2  0  0  0  0
 15 22  1  0  0  0  0
 16 17  2  0  0  0  0
 16 18  1  0  0  0  0
 17 19  1  0  0  0  0
 18 15  1  0  0  0  0
 19 15  2  0  0  0  0
 22 21  2  0  0  0  0
 22 20  1  0  0  0  0
 23  4  1  0  0  0  0
 25 24  1  0  0  0  0
 25 23  1  0  0  0  0
 27 34  1  0  0  0  0
 27 37  1  0  0  0  0
 28 31  1  0  0  0  0
 29 28  2  0  0  0  0
 31 26  1  6  0  0  0
 31 30  1  0  0  0  0
 32 27  2  0  0  0  0
 33 34  1  0  0  0  0
 33 30  2  0  0  0  0
 35 28  1  0  0  0  0
 35 33  1  0  0  0  0
 36 37  1  0  0  0  0
M  END
>  <MODEL>
6

>  <REMARK>
 VINA RESULT:      -6.4      3.924      6.661
  Name = 
  8 active torsions:
  status: ('A' for Active; 'I' for Inactive)
    1  A    between atoms: C_1  and  C_10
    2  A    between atoms: C_6  and  C_32
    3  A    between atoms: C_11  and  C_24
    4  A    between atoms: C_12  and  C_31
    5  A    between atoms: C_13  and  C_35
    6  A    between atoms: C_17  and  C_35
    7  A    between atoms: N_23  and  C_28
    8  A    between atoms: C_28  and  S_37
                            x       y       z     vdW  Elec       q    Type
                         _______ _______ _______ _____ _____    ______ ____

>  <TORSDO>
F 8

$$$$
=
 OpenBabel10222421163D

 37 41  0  0  1  0  0  0  0  0999 V2000
  189.2070  173.5030  136.0240 C   0  0  0  0  0  2  0  0  0  0  0  0
  185.4240  176.2470  137.0640 C   0  0  1  0  0  3  0  0  0  0  0  0
  187.4650  175.2480  136.3630 C   0  0  0  0  0  0  0  0  0  0  0  0
  185.3330  174.7930  136.9750 N   0  0  0  0  0  0  0  0  0  0  0  0
  186.8470  176.5890  136.5910 C   0  0  2  0  0  3  0  0  0  0  0  0
  188.1040  172.6530  135.5670 N   0  0  0  0  0  2  0  0  0  0  0  0
  188.8490  174.9850  135.8450 C   0  0  0  0  0  2  0  0  0  0  0  0
  186.9530  172.8330  136.4590 C   0  0  0  0  0  2  0  0  0  0  0  0
  186.5850  174.2870  136.5520 C   0  0  0  0  0  0  0  0  0  0  0  0
  188.4390  178.9300  138.7200 O   0  0  0  0  0  0  0  0  0  0  0  0
  187.5710  177.3460  137.6580 C   0  0  0  0  0  0  0  0  0  0  0  0
  187.7440  178.6830  137.6530 N   0  0  0  0  0  0  0  0  0  0  0  0
  188.6890  177.8090  139.3510 C   0  0  0  0  0  0  0  0  0  0  0  0
  188.1580  176.7480  138.7140 N   0  0  0  0  0  0  0  0  0  0  0  0
  190.3300  177.6320  142.8290 C   0  0  0  0  0  0  0  0  0  0  0  0
  189.4560  177.7170  140.5940 C   0  0  0  0  0  0  0  0  0  0  0  0
  190.7920  177.5170  140.6380 N   0  0  0  0  0  0  0  0  0  0  0  0
  188.8060  177.8470  142.1420 S   0  0  0  0  0  0  0  0  0  0  0  0
  191.2760  177.4700  141.8780 N   0  0  0  0  0  0  0  0  0  0  0  0
  191.6800  176.8850  144.7640 O   0  0  0  0  0  0  0  0  0  0  0  0
  189.8840  178.2740  145.0600 O   0  0  0  0  0  1  0  0  0  0  0  0
  190.6110  177.6190  144.2670 C   0  0  0  0  0  0  0  0  0  0  0  0
  184.3260  174.0010  137.6670 C   0  0  0  0  0  2  0  0  0  0  0  0
  183.4500  171.6840  136.8450 C   0  0  0  0  0  1  0  0  0  0  0  0
  183.0730  173.4210  136.4870 S   0  0  0  0  0  0  0  0  0  0  0  0
  184.4070  176.9070  136.1420 C   0  0  0  0  0  2  0  0  0  0  0  0
  184.5080  178.5960  141.6420 C   0  0  0  0  0  0  0  0  0  0  0  0
  182.4350  177.1170  137.6310 C   0  0  0  0  0  0  0  0  0  0  0  0
  181.1810  177.1860  137.1940 C   0  0  0  0  0  2  0  0  0  0  0  0
  184.2810  178.5400  137.9400 N   0  0  0  0  0  0  0  0  0  0  0  0
  183.5090  177.8650  136.9120 C   0  0  1  0  0  3  0  0  0  0  0  0
  183.6770  177.7440  142.0510 O   0  0  0  0  0  0  0  0  0  0  0  0
  184.0100  178.2070  139.1590 C   0  0  0  0  0  0  0  0  0  0  0  0
  184.6910  178.8500  140.2440 N   0  0  0  0  0  2  0  0  0  0  0  0
  182.7570  176.9430  139.3780 S   0  0  0  0  0  0  0  0  0  0  0  0
  185.3460  178.6370  143.9530 C   0  0  0  0  0  1  0  0  0  0  0  0
  185.2970  179.3780  142.6320 C   0  0  0  0  0  2  0  0  0  0  0  0
  2 26  1  6  0  0  0
  3  9  2  0  0  0  0
  3  5  1  0  0  0  0
  4  2  1  0  0  0  0
  4 23  1  0  0  0  0
  5  2  1  0  0  0  0
  5 11  1  1  0  0  0
  6  1  1  0  0  0  0
  6  8  1  0  0  0  0
  7  1  1  0  0  0  0
  7  3  1  0  0  0  0
  8  9  1  0  0  0  0
  9  4  1  0  0  0  0
 10 13  1  0  0  0  0
 11 14  1  0  0  0  0
 12 11  2  0  0  0  0
 12 10  1  0  0  0  0
 13 16  1  0  0  0  0
 14 13  2  0  0  0  0
 15 22  1  0  0  0  0
 16 17  2  0  0  0  0
 16 18  1  0  0  0  0
 17 19  1  0  0  0  0
 18 15  1  0  0  0  0
 19 15  2  0  0  0  0
 22 20  2  0  0  0  0
 22 21  1  0  0  0  0
 25 24  1  0  0  0  0
 25 23  1  0  0  0  0
 27 32  2  0  0  0  0
 27 37  1  0  0  0  0
 28 35  1  0  0  0  0
 29 28  2  0  0  0  0
 30 33  2  0  0  0  0
 31 26  1  1  0  0  0
 31 28  1  0  0  0  0
 31 30  1  0  0  0  0
 33 35  1  0  0  0  0
 33 34  1  0  0  0  0
 34 27  1  0  0  0  0
 37 36  1  0  0  0  0
M  END
>  <MODEL>
7

>  <REMARK>
 VINA RESULT:      -6.4      1.530      2.124
  Name = 
  8 active torsions:
  status: ('A' for Active; 'I' for Inactive)
    1  A    between atoms: C_1  and  C_10
    2  A    between atoms: C_6  and  C_32
    3  A    between atoms: C_11  and  C_24
    4  A    between atoms: C_12  and  C_31
    5  A    between atoms: C_13  and  C_35
    6  A    between atoms: C_17  and  C_35
    7  A    between atoms: N_23  and  C_28
    8  A    between atoms: C_28  and  S_37
                            x       y       z     vdW  Elec       q    Type
                         _______ _______ _______ _____ _____    ______ ____

>  <TORSDO>
F 8

$$$$
=
 OpenBabel10222421163D

 37 41  0  0  1  0  0  0  0  0999 V2000
  184.1010  178.9490  145.0950 C   0  0  0  0  0  2  0  0  0  0  0  0
  187.2240  178.2940  141.5250 C   0  0  1  0  0  3  0  0  0  0  0  0
  185.5790  178.9960  143.0940 C   0  0  0  0  0  0  0  0  0  0  0  0
  187.3670  177.6330  142.8180 N   0  0  0  0  0  0  0  0  0  0  0  0
  186.0530  179.2760  141.7040 C   0  0  2  0  0  3  0  0  0  0  0  0
  185.3100  178.5790  145.8380 N   0  0  0  0  0  2  0  0  0  0  0  0
  184.4730  179.7090  143.8140 C   0  0  0  0  0  2  0  0  0  0  0  0
  186.0690  177.5890  145.0640 C   0  0  0  0  0  2  0  0  0  0  0  0
  186.3530  178.1100  143.6830 C   0  0  0  0  0  0  0  0  0  0  0  0
  183.7480  179.1630  139.0170 O   0  0  0  0  0  0  0  0  0  0  0  0
  184.9850  178.9850  140.6980 C   0  0  0  0  0  0  0  0  0  0  0  0
  184.7660  179.7250  139.5920 N   0  0  0  0  0  0  0  0  0  0  0  0
  183.3520  178.1360  139.7270 C   0  0  0  0  0  0  0  0  0  0  0  0
  184.1100  177.9680  140.8280 N   0  0  0  0  0  0  0  0  0  0  0  0
  180.6740  175.5500  138.7460 C   0  0  0  0  0  0  0  0  0  0  0  0
  182.2230  177.2740  139.3730 C   0  0  0  0  0  0  0  0  0  0  0  0
  180.9420  177.7010  139.3200 N   0  0  0  0  0  0  0  0  0  0  0  0
  182.3410  175.6420  138.9760 S   0  0  0  0  0  0  0  0  0  0  0  0
  180.0830  176.7440  138.9730 N   0  0  0  0  0  0  0  0  0  0  0  0
  179.9440  173.9270  137.0270 O   0  0  0  0  0  0  0  0  0  0  0  0
  179.3110  173.6770  139.2130 O   0  0  0  0  0  1  0  0  0  0  0  0
  179.9440  174.3430  138.3520 C   0  0  0  0  0  0  0  0  0  0  0  0
  188.0780  176.3780  143.0110 C   0  0  0  0  0  2  0  0  0  0  0  0
  190.5830  175.6550  142.8770 C   0  0  0  0  0  1  0  0  0  0  0  0
  189.5750  176.6580  144.0020 S   0  0  0  0  0  0  0  0  0  0  0  0
  188.4880  179.0660  141.1730 C   0  0  0  0  0  2  0  0  0  0  0  0
  186.0440  175.9150  137.0250 C   0  0  0  0  0  0  0  0  0  0  0  0
  189.6670  177.4920  139.6630 C   0  0  0  0  0  0  0  0  0  0  0  0
  190.9820  177.5010  139.4630 C   0  0  0  0  0  2  0  0  0  0  0  0
  187.7540  178.6220  138.8970 N   0  0  0  0  0  0  0  0  0  0  0  0
  188.9240  178.7840  139.7420 C   0  0  1  0  0  3  0  0  0  0  0  0
  186.7000  174.8660  137.2600 O   0  0  0  0  0  0  0  0  0  0  0  0
  187.5320  177.4250  138.4630 C   0  0  0  0  0  0  0  0  0  0  0  0
  186.4240  177.1750  137.5890 N   0  0  0  0  0  2  0  0  0  0  0  0
  188.6800  176.1580  139.0050 S   0  0  0  0  0  0  0  0  0  0  0  0
  184.2410  177.2240  135.9870 C   0  0  0  0  0  1  0  0  0  0  0  0
  184.8660  175.8500  136.1190 C   0  0  0  0  0  2  0  0  0  0  0  0
  1  6  1  0  0  0  0
  2 26  1  1  0  0  0
  2  5  1  0  0  0  0
  2  4  1  0  0  0  0
  3  9  2  0  0  0  0
  3  7  1  0  0  0  0
  4 23  1  0  0  0  0
  4  9  1  0  0  0  0
  5 11  1  6  0  0  0
  5  3  1  0  0  0  0
  7  1  1  0  0  0  0
  8  6  1  0  0  0  0
  9  8  1  0  0  0  0
 10 12  1  0  0  0  0
 10 13  1  0  0  0  0
 11 14  1  0  0  0  0
 12 11  2  0  0  0  0
 13 14  2  0  0  0  0
 15 19  2  0  0  0  0
 15 18  1  0  0  0  0
 16 13  1  0  0  0  0
 17 16  2  0  0  0  0
 18 16  1  0  0  0  0
 19 17  1  0  0  0  0
 20 22  2  0  0  0  0
 22 15  1  0  0  0  0
 22 21  1  0  0  0  0
 23 25  1  0  0  0  0
 24 25  1  0  0  0  0
 27 32  2  0  0  0  0
 27 34  1  0  0  0  0
 28 31  1  0  0  0  0
 29 28  2  0  0  0  0
 30 31  1  0  0  0  0
 31 26  1  1  0  0  0
 33 30  2  0  0  0  0
 33 35  1  0  0  0  0
 34 33  1  0  0  0  0
 35 28  1  0  0  0  0
 36 37  1  0  0  0  0
 37 27  1  0  0  0  0
M  END
>  <MODEL>
8

>  <REMARK>
 VINA RESULT:      -6.3      3.052      8.317
  Name = 
  8 active torsions:
  status: ('A' for Active; 'I' for Inactive)
    1  A    between atoms: C_1  and  C_10
    2  A    between atoms: C_6  and  C_32
    3  A    between atoms: C_11  and  C_24
    4  A    between atoms: C_12  and  C_31
    5  A    between atoms: C_13  and  C_35
    6  A    between atoms: C_17  and  C_35
    7  A    between atoms: N_23  and  C_28
    8  A    between atoms: C_28  and  S_37
                            x       y       z     vdW  Elec       q    Type
                         _______ _______ _______ _____ _____    ______ ____

>  <TORSDO>
F 8

$$$$
=
 OpenBabel10222421163D

 37 41  0  0  1  0  0  0  0  0999 V2000
  190.5060  177.5940  144.0280 C   0  0  0  0  0  2  0  0  0  0  0  0
  188.7000  178.0440  139.6160 C   0  0  1  0  0  3  0  0  0  0  0  0
  189.4170  178.2150  141.8780 C   0  0  0  0  0  0  0  0  0  0  0  0
  189.8310  177.1710  139.9110 N   0  0  0  0  0  0  0  0  0  0  0  0
  188.4370  178.8150  140.9210 C   0  0  2  0  0  3  0  0  0  0  0  0
  191.6690  177.2470  143.2070 N   0  0  0  0  0  2  0  0  0  0  0  0
  189.6300  178.6270  143.3050 C   0  0  0  0  0  2  0  0  0  0  0  0
  191.2180  176.5300  142.0080 C   0  0  0  0  0  2  0  0  0  0  0  0
  190.1880  177.3380  141.2710 C   0  0  0  0  0  0  0  0  0  0  0  0
  185.3920  177.8780  142.4690 O   0  0  0  0  0  0  0  0  0  0  0  0
  187.0300  178.5890  141.3730 C   0  0  0  0  0  0  0  0  0  0  0  0
  186.6880  177.8440  142.4430 N   0  0  0  0  0  0  0  0  0  0  0  0
  184.9510  178.5990  141.4680 C   0  0  0  0  0  0  0  0  0  0  0  0
  185.9600  179.0860  140.7210 N   0  0  0  0  0  0  0  0  0  0  0  0
  181.1500  179.1190  141.1470 C   0  0  0  0  0  0  0  0  0  0  0  0
  183.5350  178.8450  141.1910 C   0  0  0  0  0  0  0  0  0  0  0  0
  183.0680  179.2760  139.9980 N   0  0  0  0  0  0  0  0  0  0  0  0
  182.2820  178.6290  142.2950 S   0  0  0  0  0  0  0  0  0  0  0  0
  181.7450  179.4280  139.9740 N   0  0  0  0  0  0  0  0  0  0  0  0
  179.0680  178.2770  142.1860 O   0  0  0  0  0  1  0  0  0  0  0  0
  179.0330  180.1220  140.8300 O   0  0  0  0  0  0  0  0  0  0  0  0
  179.7050  179.2050  141.3730 C   0  0  0  0  0  0  0  0  0  0  0  0
  190.1810  176.0030  139.1150 C   0  0  0  0  0  2  0  0  0  0  0  0
  191.6230  174.7220  137.3560 C   0  0  0  0  0  1  0  0  0  0  0  0
  191.7680  176.2790  138.2750 S   0  0  0  0  0  0  0  0  0  0  0  0
  189.0530  179.0250  138.5070 C   0  0  0  0  0  2  0  0  0  0  0  0
  184.0570  176.2630  137.7810 C   0  0  0  0  0  0  0  0  0  0  0  0
  188.5390  177.4090  136.6980 C   0  0  0  0  0  0  0  0  0  0  0  0
  189.2410  177.3080  135.5730 C   0  0  0  0  0  2  0  0  0  0  0  0
  186.8170  178.7350  137.5940 N   0  0  0  0  0  0  0  0  0  0  0  0
  188.2290  178.7580  137.2550 C   0  0  1  0  0  3  0  0  0  0  0  0
  184.5700  175.1520  137.4850 O   0  0  0  0  0  0  0  0  0  0  0  0
  186.2410  177.5790  137.5310 C   0  0  0  0  0  0  0  0  0  0  0  0
  184.8400  177.4620  137.8070 N   0  0  0  0  0  2  0  0  0  0  0  0
  187.2850  176.1950  137.0710 S   0  0  0  0  0  0  0  0  0  0  0  0
  182.3350  175.7850  139.4680 C   0  0  0  0  0  1  0  0  0  0  0  0
  182.6030  176.3380  138.0830 C   0  0  0  0  0  2  0  0  0  0  0  0
  2 26  1  6  0  0  0
  2  4  1  0  0  0  0
  2  5  1  0  0  0  0
  3  7  1  0  0  0  0
  4  9  1  0  0  0  0
  5 11  1  1  0  0  0
  5  3  1  0  0  0  0
  6  1  1  0  0  0  0
  7  1  1  0  0  0  0
  8  6  1  0  0  0  0
  9  3  2  0  0  0  0
  9  8  1  0  0  0  0
 11 12  2  0  0  0  0
 12 10  1  0  0  0  0
 13 10  1  0  0  0  0
 14 11  1  0  0  0  0
 14 13  2  0  0  0  0
 15 22  1  0  0  0  0
 15 18  1  0  0  0  0
 16 13  1  0  0  0  0
 16 18  1  0  0  0  0
 17 16  2  0  0  0  0
 19 17  1  0  0  0  0
 19 15  2  0  0  0  0
 21 22  2  0  0  0  0
 22 20  1  0  0  0  0
 23  4  1  0  0  0  0
 24 25  1  0  0  0  0
 25 23  1  0  0  0  0
 27 34  1  0  0  0  0
 27 37  1  0  0  0  0
 28 35  1  0  0  0  0
 28 31  1  0  0  0  0
 29 28  2  0  0  0  0
 31 30  1  0  0  0  0
 31 26  1  1  0  0  0
 32 27  2  0  0  0  0
 33 30  2  0  0  0  0
 33 34  1  0  0  0  0
 35 33  1  0  0  0  0
 37 36  1  0  0  0  0
M  END
>  <MODEL>
9

>  <REMARK>
 VINA RESULT:      -6.3      2.817      7.674
  Name = 
  8 active torsions:
  status: ('A' for Active; 'I' for Inactive)
    1  A    between atoms: C_1  and  C_10
    2  A    between atoms: C_6  and  C_32
    3  A    between atoms: C_11  and  C_24
    4  A    between atoms: C_12  and  C_31
    5  A    between atoms: C_13  and  C_35
    6  A    between atoms: C_17  and  C_35
    7  A    between atoms: N_23  and  C_28
    8  A    between atoms: C_28  and  S_37
                            x       y       z     vdW  Elec       q    Type
                         _______ _______ _______ _____ _____    ______ ____

>  <TORSDO>
F 8

$$$$
