=
 OpenBabel10222420133D

 63 69  0  0  1  0  0  0  0  0999 V2000
  185.1660  175.9560  137.4940 C   0  0  1  0  0  3  0  0  0  0  0  0
  184.8390  177.4410  137.2740 C   0  0  1  0  0  3  0  0  0  0  0  0
  182.3330  178.3210  139.4820 O   0  0  0  0  0  0  0  0  0  0  0  0
  183.1340  177.3450  138.8190 C   0  0  1  0  0  3  0  0  0  0  0  0
  184.4650  174.0900  136.1350 N   0  0  0  0  0  0  0  0  0  0  0  0
  184.0530  175.0370  137.1170 C   0  0  0  0  0  0  0  0  0  0  0  0
  182.4230  176.0090  138.7230 C   0  0  0  0  0  0  0  0  0  0  0  0
  180.9610  176.7350  140.5520 C   0  0  0  0  0  3  0  0  0  0  0  0
  183.4960  177.8110  137.5420 O   0  0  0  0  0  0  0  0  0  0  0  0
  186.3140  175.5320  136.5800 C   0  0  0  0  0  2  0  0  0  0  0  0
  181.4420  177.9770  140.5040 C   0  0  0  0  0  0  0  0  0  0  0  0
  180.7590  174.5020  139.5290 O   0  0  0  0  0  1  0  0  0  0  0  0
  181.4100  175.7360  139.5660 C   0  0  0  0  0  0  0  0  0  0  0  0
  182.8640  175.0030  137.7330 C   0  0  0  0  0  3  0  0  0  0  0  0
  185.8750  174.2600  135.8460 C   0  0  1  0  0  3  0  0  0  0  0  0
  180.8900  171.1860  135.6340 O   0  0  0  0  0  0  0  0  0  0  0  0
  180.5870  172.1750  134.6950 C   0  0  0  0  0  2  0  0  0  0  0  0
  181.0930  173.5330  135.1800 C   0  0  0  0  0  2  0  0  0  0  0  0
  183.2940  170.9530  135.2830 C   0  0  0  0  0  2  0  0  0  0  0  0
  183.2500  172.0620  136.1460 O   0  0  0  0  0  0  0  0  0  0  0  0
  183.6400  173.1570  135.3570 C   0  0  1  0  0  3  0  0  0  0  0  0
  181.8880  170.3810  135.0600 C   0  0  0  0  0  2  0  0  0  0  0  0
  182.4810  173.8260  134.5940 C   0  0  0  0  0  2  0  0  0  0  0  0
  180.9620  178.9990  141.4910 C   0  0  0  0  0  2  0  0  0  0  0  0
  181.0930  178.5820  142.9310 C   0  0  0  0  0  0  0  0  0  0  0  0
  180.3520  177.6870  143.4240 O   0  0  0  0  0  0  0  0  0  0  0  0
  182.0780  179.2390  143.8040 C   0  0  0  0  0  0  0  0  0  0  0  0
  183.1670  178.4880  144.3680 N   0  0  0  0  0  2  0  0  0  0  0  0
  181.9660  180.4740  144.0380 O   0  0  0  0  0  0  0  0  0  0  0  0
  184.0910  179.0240  145.2860 N   0  0  0  0  0  2  0  0  0  0  0  0
  185.4370  178.6100  144.9030 C   0  0  2  0  0  3  0  0  0  0  0  0
  185.4270  178.0100  143.5510 N   0  0  0  0  0  0  0  0  0  0  0  0
  184.5260  179.0550  141.2650 O   0  0  0  0  0  0  0  0  0  0  0  0
  187.3970  177.8850  142.0570 C   0  0  1  0  0  3  0  0  0  0  0  0
  185.4850  179.3140  142.4060 P   0  0  1  0  0  0  0  0  0  0  0  0
  186.6550  177.2670  143.2600 C   0  0  0  0  0  2  0  0  0  0  0  0
  185.1460  180.8120  143.1120 O   0  0  0  0  0  1  0  0  0  0  0  0
  187.0650  179.2390  141.8530 O   0  0  0  0  0  0  0  0  0  0  0  0
  189.1890  177.7110  142.2880 S   0  0  0  0  0  0  0  0  0  0  0  0
  190.3350  175.4610  143.3000 C   0  0  0  0  0  1  0  0  0  0  0  0
  189.0260  175.9470  142.6990 C   0  0  0  0  0  2  0  0  0  0  0  0
  186.0850  177.7540  146.0050 C   0  0  0  0  0  2  0  0  0  0  0  0
  187.3190  178.4360  146.5720 C   0  0  0  0  0  2  0  0  0  0  0  0
  188.5040  177.4750  146.5910 C   0  0  1  0  0  3  0  0  0  0  0  0
  189.5660  177.9860  145.7400 N   0  0  0  0  0  1  0  0  0  0  0  0
  189.0240  177.2250  148.0090 C   0  0  0  0  0  2  0  0  0  0  0  0
  188.0240  177.5990  149.0040 N   0  0  0  0  0  1  0  0  0  0  0  0
  185.8520  178.3960  137.9140 C   0  0  0  0  0  2  0  0  0  0  0  0
  186.8940  178.7450  137.0110 O   0  0  0  0  0  0  0  0  0  0  0  0
  188.8810  177.4650  137.4840 O   0  0  0  0  0  0  0  0  0  0  0  0
  188.2450  178.6950  137.3580 C   0  0  0  0  0  0  0  0  0  0  0  0
  188.9020  179.7540  137.5530 O   0  0  0  0  0  1  0  0  0  0  0  0
  186.6250  173.1140  136.3710 N   0  0  0  0  0  2  0  0  0  0  0  0
  188.0380  173.1480  135.9820 C   0  0  2  0  0  0  0  0  0  0  0  0
  191.1700  174.5930  137.7230 C   0  0  0  0  0  2  0  0  0  0  0  0
  189.2900  174.7990  134.5940 C   0  0  0  0  0  3  0  0  0  0  0  0
  188.4910  171.7580  135.5370 C   0  0  0  0  0  1  0  0  0  0  0  0
  191.4060  175.7310  135.5960 C   0  0  0  0  0  2  0  0  0  0  0  0
  192.1010  175.5030  136.9330 C   0  0  0  0  0  2  0  0  0  0  0  0
  188.9120  173.6420  137.1510 C   0  0  0  0  0  2  0  0  0  0  0  0
  188.1770  174.0860  134.8060 C   0  0  0  0  0  3  0  0  0  0  0  0
  190.3900  174.7060  135.5090 N   0  0  0  0  0  0  0  0  0  0  0  0
  190.3570  173.8550  136.6830 C   0  0  1  0  0  3  0  0  0  0  0  0
  1 10  1  6  0  0  0
  2  1  1  0  0  0  0
  2  9  1  0  0  0  0
  2 48  1  1  0  0  0
  3 11  1  0  0  0  0
  4  9  1  6  0  0  0
  4  3  1  0  0  0  0
  5  6  1  0  0  0  0
  6  1  1  0  0  0  0
  6 14  2  0  0  0  0
  7  4  1  0  0  0  0
  7 13  2  0  0  0  0
 11  8  2  0  0  0  0
 11 24  1  0  0  0  0
 12 13  1  0  0  0  0
 13  8  1  0  0  0  0
 14  7  1  0  0  0  0
 15  5  1  0  0  0  0
 15 53  1  1  0  0  0
 15 10  1  0  0  0  0
 17 18  1  0  0  0  0
 17 16  1  0  0  0  0
 19 20  1  0  0  0  0
 21 23  1  1  0  0  0
 21  5  1  0  0  0  0
 21 20  1  0  0  0  0
 22 19  1  0  0  0  0
 22 16  1  0  0  0  0
 23 18  1  0  0  0  0
 24 25  1  0  0  0  0
 25 26  2  0  0  0  0
 25 27  1  0  0  0  0
 27 29  2  0  0  0  0
 27 28  1  0  0  0  0
 28 30  1  0  0  0  0
 31 30  1  0  0  0  0
 31 42  1  1  0  0  0
 32 31  1  0  0  0  0
 34 39  1  1  0  0  0
 34 36  1  0  0  0  0
 35 33  2  6  0  0  0
 35 37  1  0  0  0  0
 35 32  1  0  0  0  0
 36 32  1  0  0  0  0
 38 34  1  0  0  0  0
 38 35  1  0  0  0  0
 39 41  1  0  0  0  0
 41 40  1  0  0  0  0
 42 43  1  0  0  0  0
 43 44  1  0  0  0  0
 44 45  1  6  0  0  0
 44 46  1  0  0  0  0
 46 47  1  0  0  0  0
 49 51  1  0  0  0  0
 49 48  1  0  0  0  0
 51 50  2  0  0  0  0
 51 52  1  0  0  0  0
 54 57  1  6  0  0  0
 54 53  1  0  0  0  0
 54 60  1  0  0  0  0
 56 61  2  0  0  0  0
 56 62  1  0  0  0  0
 58 59  1  0  0  0  0
 59 55  1  0  0  0  0
 61 54  1  0  0  0  0
 62 58  1  0  0  0  0
 62 63  1  0  0  0  0
 63 60  1  1  0  0  0
 63 55  1  0  0  0  0
M  END
>  <MODEL>
1

>  <REMARK>
 VINA RESULT:      -5.7      0.000      0.000
  Name = 
  18 active torsions:
  status: ('A' for Active; 'I' for Inactive)
    1  A    between atoms: C_3  and  C_11
    2  A    between atoms: S_5  and  C_28
    3  A    between atoms: S_5  and  C_50
    4  A    between atoms: C_7  and  N_9
    5  A    between atoms: C_8  and  C_36
    6  A    between atoms: C_8  and  C_63
    7  A    between atoms: N_9  and  C_59
    8  A    between atoms: C_11  and  O_13
    9  A    between atoms: N_12  and  C_43
   10  A    between atoms: O_13  and  C_38
   11  A    between atoms: N_16  and  C_46
   12  A    between atoms: C_18  and  C_29
   13  A    between atoms: C_18  and  C_45
   14  A    between atoms: C_19  and  C_29
   15  A    between atoms: N_32  and  N_56
   16  A    between atoms: C_43  and  C_47
   17  A    between atoms: C_43  and  N_56
   18  A    between atoms: C_47  and  C_63
                            x       y       z     vdW  Elec       q    Type
                         _______ _______ _______ _____ _____    ______ ____

>  <TORSDO>
F 18

$$$$
=
 OpenBabel10222420133D

 63 69  0  0  1  0  0  0  0  0999 V2000
  186.4920  178.2340  141.4360 C   0  0  1  0  0  3  0  0  0  0  0  0
  185.6040  179.4880  141.4630 C   0  0  1  0  0  3  0  0  0  0  0  0
  182.6730  178.7570  139.7880 O   0  0  0  0  0  0  0  0  0  0  0  0
  184.0180  178.4520  140.1540 C   0  0  1  0  0  3  0  0  0  0  0  0
  188.3940  177.8230  140.0100 N   0  0  0  0  0  0  0  0  0  0  0  0
  186.9710  177.8710  140.0700 C   0  0  0  0  0  0  0  0  0  0  0  0
  184.6930  177.5730  139.1200 C   0  0  0  0  0  0  0  0  0  0  0  0
  182.4690  176.9340  138.3110 C   0  0  0  0  0  3  0  0  0  0  0  0
  184.7410  179.6420  140.3480 O   0  0  0  0  0  0  0  0  0  0  0  0
  187.7790  178.4880  142.2180 C   0  0  0  0  0  2  0  0  0  0  0  0
  181.8780  177.8540  139.0740 C   0  0  0  0  0  0  0  0  0  0  0  0
  184.5290  176.0020  137.3320 O   0  0  0  0  0  1  0  0  0  0  0  0
  183.9390  176.8500  138.2710 C   0  0  0  0  0  0  0  0  0  0  0  0
  186.1680  177.4860  139.0690 C   0  0  0  0  0  3  0  0  0  0  0  0
  188.9540  178.0750  141.3230 C   0  0  1  0  0  3  0  0  0  0  0  0
  189.5870  175.9440  135.9460 O   0  0  0  0  0  0  0  0  0  0  0  0
  189.3360  177.2700  135.5840 C   0  0  0  0  0  2  0  0  0  0  0  0
  188.2330  177.8570  136.4650 C   0  0  0  0  0  2  0  0  0  0  0  0
  190.7790  176.2700  138.0500 C   0  0  0  0  0  2  0  0  0  0  0  0
  189.4420  176.3590  138.4780 O   0  0  0  0  0  0  0  0  0  0  0  0
  189.2590  177.7070  138.8280 C   0  0  1  0  0  3  0  0  0  0  0  0
  190.8520  175.9280  136.5570 C   0  0  0  0  0  2  0  0  0  0  0  0
  188.8440  178.6120  137.6530 C   0  0  0  0  0  2  0  0  0  0  0  0
  180.3820  177.9570  139.0910 C   0  0  0  0  0  2  0  0  0  0  0  0
  179.6830  176.7500  139.6550 C   0  0  0  0  0  0  0  0  0  0  0  0
  179.4130  176.6640  140.8860 O   0  0  0  0  0  0  0  0  0  0  0  0
  179.3230  175.6270  138.7760 C   0  0  0  0  0  0  0  0  0  0  0  0
  179.3520  175.7810  137.3470 N   0  0  0  0  0  2  0  0  0  0  0  0
  179.0050  174.5190  139.2920 O   0  0  0  0  0  0  0  0  0  0  0  0
  178.9300  174.7840  136.4460 N   0  0  0  0  0  2  0  0  0  0  0  0
  180.0940  174.2620  135.7360 C   0  0  2  0  0  3  0  0  0  0  0  0
  181.1590  173.8940  136.6920 N   0  0  0  0  0  0  0  0  0  0  0  0
  181.1490  171.9760  138.5500 O   0  0  0  0  0  1  0  0  0  0  0  0
  183.1530  172.5420  136.1200 C   0  0  1  0  0  3  0  0  0  0  0  0
  180.9590  172.2100  137.0680 P   0  0  1  0  0  0  0  0  0  0  0  0
  182.4930  173.9360  136.0880 C   0  0  0  0  0  2  0  0  0  0  0  0
  179.4550  171.6130  136.5790 O   0  0  0  0  0  0  0  0  0  0  0  0
  182.2110  171.4980  136.2100 O   0  0  0  0  0  0  0  0  0  0  0  0
  184.1880  172.3210  134.6460 S   0  0  0  0  0  0  0  0  0  0  0  0
  186.8570  171.8270  134.8170 C   0  0  0  0  0  1  0  0  0  0  0  0
  185.5850  171.7190  135.6420 C   0  0  0  0  0  2  0  0  0  0  0  0
  180.5170  175.2100  134.6010 C   0  0  0  0  0  2  0  0  0  0  0  0
  179.8020  176.5470  134.7080 C   0  0  0  0  0  2  0  0  0  0  0  0
  180.7420  177.6190  135.2530 C   0  0  1  0  0  3  0  0  0  0  0  0
  182.0950  177.3730  134.7820 N   0  0  0  0  0  1  0  0  0  0  0  0
  180.2890  179.0320  134.8750 C   0  0  0  0  0  2  0  0  0  0  0  0
  179.4040  179.5850  135.8940 N   0  0  0  0  0  1  0  0  0  0  0  0
  184.8840  179.7040  142.7990 C   0  0  0  0  0  2  0  0  0  0  0  0
  185.1210  178.6350  143.7050 O   0  0  0  0  0  0  0  0  0  0  0  0
  183.9730  179.1670  145.7570 O   0  0  0  0  0  1  0  0  0  0  0  0
  185.1390  178.8070  145.0910 C   0  0  0  0  0  0  0  0  0  0  0  0
  186.2000  178.6340  145.7500 O   0  0  0  0  0  0  0  0  0  0  0  0
  189.5510  176.8420  141.8470 N   0  0  0  0  0  2  0  0  0  0  0  0
  190.5510  177.1060  142.8860 C   0  0  2  0  0  0  0  0  0  0  0  0
  192.1120  174.8530  145.6090 C   0  0  0  0  0  2  0  0  0  0  0  0
  190.2760  177.9890  145.2020 C   0  0  0  0  0  3  0  0  0  0  0  0
  191.7600  177.8170  142.2790 C   0  0  0  0  0  1  0  0  0  0  0  0
  191.3430  176.6460  147.0490 C   0  0  0  0  0  2  0  0  0  0  0  0
  192.1380  175.3460  147.0500 C   0  0  0  0  0  2  0  0  0  0  0  0
  190.9910  175.7940  143.5630 C   0  0  0  0  0  2  0  0  0  0  0  0
  189.9300  178.0270  143.9090 C   0  0  0  0  0  3  0  0  0  0  0  0
  191.2470  177.0380  145.6600 N   0  0  0  0  0  0  0  0  0  0  0  0
  191.8900  176.0910  144.7690 C   0  0  1  0  0  3  0  0  0  0  0  0
  1  2  1  0  0  0  0
  1 10  1  1  0  0  0
  2 48  1  1  0  0  0
  3  4  1  0  0  0  0
  4  7  1  6  0  0  0
  4  9  1  0  0  0  0
  5  6  1  0  0  0  0
  5 15  1  0  0  0  0
  6  1  1  0  0  0  0
  8 11  2  0  0  0  0
  9  2  1  0  0  0  0
 11 24  1  0  0  0  0
 11  3  1  0  0  0  0
 12 13  1  0  0  0  0
 13  8  1  0  0  0  0
 13  7  2  0  0  0  0
 14  7  1  0  0  0  0
 14  6  2  0  0  0  0
 15 53  1  1  0  0  0
 15 10  1  0  0  0  0
 16 22  1  0  0  0  0
 17 16  1  0  0  0  0
 17 18  1  0  0  0  0
 18 23  1  0  0  0  0
 19 20  1  0  0  0  0
 20 21  1  0  0  0  0
 21 23  1  6  0  0  0
 21  5  1  0  0  0  0
 22 19  1  0  0  0  0
 24 25  1  0  0  0  0
 25 26  2  0  0  0  0
 27 29  2  0  0  0  0
 27 25  1  0  0  0  0
 28 27  1  0  0  0  0
 30 28  1  0  0  0  0
 31 42  1  6  0  0  0
 31 30  1  0  0  0  0
 31 32  1  0  0  0  0
 32 35  1  0  0  0  0
 34 39  1  6  0  0  0
 34 38  1  0  0  0  0
 35 37  2  6  0  0  0
 35 33  1  0  0  0  0
 36 34  1  0  0  0  0
 36 32  1  0  0  0  0
 38 35  1  0  0  0  0
 39 41  1  0  0  0  0
 40 41  1  0  0  0  0
 42 43  1  0  0  0  0
 43 44  1  0  0  0  0
 44 45  1  6  0  0  0
 46 44  1  0  0  0  0
 46 47  1  0  0  0  0
 48 49  1  0  0  0  0
 49 51  1  0  0  0  0
 51 52  2  0  0  0  0
 51 50  1  0  0  0  0
 53 54  1  0  0  0  0
 54 57  1  6  0  0  0
 54 60  1  0  0  0  0
 54 61  1  0  0  0  0
 55 59  1  0  0  0  0
 56 62  1  0  0  0  0
 58 59  1  0  0  0  0
 61 56  2  0  0  0  0
 62 58  1  0  0  0  0
 63 60  1  6  0  0  0
 63 55  1  0  0  0  0
 63 62  1  0  0  0  0
M  END
>  <MODEL>
2

>  <REMARK>
 VINA RESULT:      -5.5      3.255      8.854
  Name = 
  18 active torsions:
  status: ('A' for Active; 'I' for Inactive)
    1  A    between atoms: C_3  and  C_11
    2  A    between atoms: S_5  and  C_28
    3  A    between atoms: S_5  and  C_50
    4  A    between atoms: C_7  and  N_9
    5  A    between atoms: C_8  and  C_36
    6  A    between atoms: C_8  and  C_63
    7  A    between atoms: N_9  and  C_59
    8  A    between atoms: C_11  and  O_13
    9  A    between atoms: N_12  and  C_43
   10  A    between atoms: O_13  and  C_38
   11  A    between atoms: N_16  and  C_46
   12  A    between atoms: C_18  and  C_29
   13  A    between atoms: C_18  and  C_45
   14  A    between atoms: C_19  and  C_29
   15  A    between atoms: N_32  and  N_56
   16  A    between atoms: C_43  and  C_47
   17  A    between atoms: C_43  and  N_56
   18  A    between atoms: C_47  and  C_63
                            x       y       z     vdW  Elec       q    Type
                         _______ _______ _______ _____ _____    ______ ____

>  <TORSDO>
F 18

$$$$
=
 OpenBabel10222420133D

 63 69  0  0  1  0  0  0  0  0999 V2000
  184.0950  176.8870  137.6440 C   0  0  1  0  0  3  0  0  0  0  0  0
  185.2250  176.8860  136.6020 C   0  0  1  0  0  3  0  0  0  0  0  0
  188.2190  177.2930  138.2740 O   0  0  0  0  0  0  0  0  0  0  0  0
  186.7940  177.3160  138.2320 C   0  0  1  0  0  3  0  0  0  0  0  0
  182.5930  178.7020  138.1650 N   0  0  0  0  0  0  0  0  0  0  0  0
  183.9170  178.2000  138.3300 C   0  0  0  0  0  0  0  0  0  0  0  0
  186.2180  178.2630  139.2670 C   0  0  0  0  0  0  0  0  0  0  0  0
  188.3490  178.1290  140.4720 C   0  0  0  0  0  3  0  0  0  0  0  0
  186.3600  177.6660  136.9400 O   0  0  0  0  0  0  0  0  0  0  0  0
  182.7510  176.6490  136.9580 C   0  0  0  0  0  2  0  0  0  0  0  0
  188.9270  177.4680  139.4690 C   0  0  0  0  0  0  0  0  0  0  0  0
  186.4540  179.4570  141.3190 O   0  0  0  0  0  1  0  0  0  0  0  0
  186.9670  178.6180  140.3280 C   0  0  0  0  0  0  0  0  0  0  0  0
  184.8340  178.7620  139.1280 C   0  0  0  0  0  3  0  0  0  0  0  0
  181.7890  177.7430  137.4330 C   0  0  1  0  0  3  0  0  0  0  0  0
  179.2000  181.8460  138.4220 O   0  0  0  0  0  0  0  0  0  0  0  0
  179.5410  181.6850  139.7670 C   0  0  0  0  0  2  0  0  0  0  0  0
  179.9980  180.2490  140.0260 C   0  0  0  0  0  2  0  0  0  0  0  0
  181.4120  181.8560  137.3940 C   0  0  0  0  0  2  0  0  0  0  0  0
  181.1730  180.4760  137.5110 O   0  0  0  0  0  0  0  0  0  0  0  0
  182.0680  180.0320  138.5000 C   0  0  1  0  0  3  0  0  0  0  0  0
  180.1900  182.6620  137.8520 C   0  0  0  0  0  2  0  0  0  0  0  0
  181.5280  180.1520  139.9370 C   0  0  0  0  0  2  0  0  0  0  0  0
  190.3430  176.9960  139.6070 C   0  0  0  0  0  2  0  0  0  0  0  0
  190.9550  177.2510  140.9570 C   0  0  0  0  0  0  0  0  0  0  0  0
  191.9810  177.9750  141.0870 O   0  0  0  0  0  0  0  0  0  0  0  0
  190.3760  176.6310  142.1590 C   0  0  0  0  0  0  0  0  0  0  0  0
  189.1600  177.1440  142.7300 N   0  0  0  0  0  2  0  0  0  0  0  0
  190.9500  175.6320  142.6740 O   0  0  0  0  0  0  0  0  0  0  0  0
  188.5990  176.6660  143.9300 N   0  0  0  0  0  2  0  0  0  0  0  0
  187.9520  177.7720  144.6270 C   0  0  2  0  0  3  0  0  0  0  0  0
  188.8580  178.3400  145.6480 N   0  0  0  0  0  0  0  0  0  0  0  0
  188.4770  178.5700  148.2800 O   0  0  0  0  0  1  0  0  0  0  0  0
  190.8090  177.1550  146.6080 C   0  0  1  0  0  3  0  0  0  0  0  0
  188.4940  177.5590  147.1560 P   0  0  1  0  0  0  0  0  0  0  0  0
  190.2570  177.9720  145.4200 C   0  0  0  0  0  2  0  0  0  0  0  0
  187.0270  176.7210  147.1130 O   0  0  0  0  0  0  0  0  0  0  0  0
  189.7930  176.5160  147.3440 O   0  0  0  0  0  0  0  0  0  0  0  0
  192.0060  175.9310  146.0050 S   0  0  0  0  0  0  0  0  0  0  0  0
  192.9420  175.8770  148.5580 C   0  0  0  0  0  1  0  0  0  0  0  0
  192.0470  175.0890  147.6150 C   0  0  0  0  0  2  0  0  0  0  0  0
  186.5550  177.3660  145.1290 C   0  0  0  0  0  2  0  0  0  0  0  0
  185.4670  177.9020  144.2120 C   0  0  0  0  0  2  0  0  0  0  0  0
  184.4720  178.7510  144.9980 C   0  0  1  0  0  3  0  0  0  0  0  0
  185.1870  179.6410  145.8970 N   0  0  0  0  0  1  0  0  0  0  0  0
  183.5410  179.5480  144.0800 C   0  0  0  0  0  2  0  0  0  0  0  0
  183.3950  178.8890  142.7860 N   0  0  0  0  0  1  0  0  0  0  0  0
  185.5990  175.4860  136.1020 C   0  0  0  0  0  2  0  0  0  0  0  0
  185.6610  174.5440  137.1650 O   0  0  0  0  0  0  0  0  0  0  0  0
  186.4930  172.7830  135.7440 O   0  0  0  0  0  0  0  0  0  0  0  0
  186.2080  173.2680  137.0150 C   0  0  0  0  0  0  0  0  0  0  0  0
  186.4520  172.5480  138.0220 O   0  0  0  0  0  1  0  0  0  0  0  0
  180.7900  177.1530  138.3310 N   0  0  0  0  0  2  0  0  0  0  0  0
  180.1680  175.9550  137.7610 C   0  0  2  0  0  0  0  0  0  0  0  0
  181.6290  172.5510  136.6640 C   0  0  0  0  0  2  0  0  0  0  0  0
  179.6760  175.3670  135.3880 C   0  0  0  0  0  3  0  0  0  0  0  0
  178.9380  175.5640  138.5810 C   0  0  0  0  0  1  0  0  0  0  0  0
  180.4990  173.1200  134.5960 C   0  0  0  0  0  2  0  0  0  0  0  0
  181.2810  172.0080  135.2840 C   0  0  0  0  0  2  0  0  0  0  0  0
  181.1720  174.7870  137.7210 C   0  0  0  0  0  2  0  0  0  0  0  0
  179.7120  176.2870  136.3600 C   0  0  0  0  0  3  0  0  0  0  0  0
  180.1000  174.0230  135.6530 N   0  0  0  0  0  0  0  0  0  0  0  0
  180.5780  173.5990  136.9560 C   0  0  1  0  0  3  0  0  0  0  0  0
  1 10  1  6  0  0  0
  1  6  1  0  0  0  0
  2 48  1  1  0  0  0
  2  9  1  0  0  0  0
  2  1  1  0  0  0  0
  3 11  1  0  0  0  0
  4  9  1  6  0  0  0
  4  3  1  0  0  0  0
  4  7  1  0  0  0  0
  5  6  1  0  0  0  0
  6 14  2  0  0  0  0
  7 13  2  0  0  0  0
 10 15  1  0  0  0  0
 11 24  1  0  0  0  0
 11  8  2  0  0  0  0
 13  8  1  0  0  0  0
 13 12  1  0  0  0  0
 14  7  1  0  0  0  0
 15  5  1  0  0  0  0
 15 53  1  1  0  0  0
 16 17  1  0  0  0  0
 17 18  1  0  0  0  0
 19 20  1  0  0  0  0
 19 22  1  0  0  0  0
 20 21  1  0  0  0  0
 21  5  1  6  0  0  0
 21 23  1  0  0  0  0
 22 16  1  0  0  0  0
 23 18  1  0  0  0  0
 24 25  1  0  0  0  0
 25 26  2  0  0  0  0
 25 27  1  0  0  0  0
 27 29  2  0  0  0  0
 27 28  1  0  0  0  0
 28 30  1  0  0  0  0
 30 31  1  0  0  0  0
 31 42  1  1  0  0  0
 31 32  1  0  0  0  0
 32 35  1  0  0  0  0
 34 39  1  6  0  0  0
 34 38  1  0  0  0  0
 35 37  2  6  0  0  0
 35 38  1  0  0  0  0
 35 33  1  0  0  0  0
 36 32  1  0  0  0  0
 36 34  1  0  0  0  0
 39 41  1  0  0  0  0
 41 40  1  0  0  0  0
 43 44  1  0  0  0  0
 43 42  1  0  0  0  0
 44 45  1  1  0  0  0
 46 44  1  0  0  0  0
 47 46  1  0  0  0  0
 48 49  1  0  0  0  0
 50 51  2  0  0  0  0
 51 49  1  0  0  0  0
 51 52  1  0  0  0  0
 54 53  1  0  0  0  0
 54 57  1  1  0  0  0
 56 62  1  0  0  0  0
 56 61  2  0  0  0  0
 58 59  1  0  0  0  0
 58 62  1  0  0  0  0
 59 55  1  0  0  0  0
 60 54  1  0  0  0  0
 61 54  1  0  0  0  0
 62 63  1  0  0  0  0
 63 55  1  6  0  0  0
 63 60  1  0  0  0  0
M  END
>  <MODEL>
3

>  <REMARK>
 VINA RESULT:      -5.5      3.167      7.454
  Name = 
  18 active torsions:
  status: ('A' for Active; 'I' for Inactive)
    1  A    between atoms: C_3  and  C_11
    2  A    between atoms: S_5  and  C_28
    3  A    between atoms: S_5  and  C_50
    4  A    between atoms: C_7  and  N_9
    5  A    between atoms: C_8  and  C_36
    6  A    between atoms: C_8  and  C_63
    7  A    between atoms: N_9  and  C_59
    8  A    between atoms: C_11  and  O_13
    9  A    between atoms: N_12  and  C_43
   10  A    between atoms: O_13  and  C_38
   11  A    between atoms: N_16  and  C_46
   12  A    between atoms: C_18  and  C_29
   13  A    between atoms: C_18  and  C_45
   14  A    between atoms: C_19  and  C_29
   15  A    between atoms: N_32  and  N_56
   16  A    between atoms: C_43  and  C_47
   17  A    between atoms: C_43  and  N_56
   18  A    between atoms: C_47  and  C_63
                            x       y       z     vdW  Elec       q    Type
                         _______ _______ _______ _____ _____    ______ ____

>  <TORSDO>
F 18

$$$$
=
 OpenBabel10222420133D

 63 69  0  0  1  0  0  0  0  0999 V2000
  184.3960  177.5850  139.0720 C   0  0  1  0  0  3  0  0  0  0  0  0
  185.4550  178.6560  139.3780 C   0  0  1  0  0  3  0  0  0  0  0  0
  185.1330  179.5610  142.6950 O   0  0  0  0  0  0  0  0  0  0  0  0
  184.6530  178.9070  141.5220 C   0  0  1  0  0  3  0  0  0  0  0  0
  182.3020  177.8930  137.9140 N   0  0  0  0  0  0  0  0  0  0  0  0
  182.9950  178.0940  139.1430 C   0  0  0  0  0  0  0  0  0  0  0  0
  183.1420  178.7840  141.5270 C   0  0  0  0  0  0  0  0  0  0  0  0
  183.1930  179.1180  143.9550 C   0  0  0  0  0  3  0  0  0  0  0  0
  185.0950  179.5950  140.3770 O   0  0  0  0  0  0  0  0  0  0  0  0
  184.5370  177.1070  137.6280 C   0  0  0  0  0  2  0  0  0  0  0  0
  184.4890  179.4290  143.9300 C   0  0  0  0  0  0  0  0  0  0  0  0
  181.0870  178.7230  142.7370 O   0  0  0  0  0  1  0  0  0  0  0  0
  182.4750  178.8690  142.6930 C   0  0  0  0  0  0  0  0  0  0  0  0
  182.4130  178.5400  140.2650 C   0  0  0  0  0  3  0  0  0  0  0  0
  183.1510  177.1840  136.9780 C   0  0  1  0  0  3  0  0  0  0  0  0
  179.6030  180.7720  135.4870 O   0  0  0  0  0  0  0  0  0  0  0  0
  179.2140  179.5270  134.9860 C   0  0  0  0  0  2  0  0  0  0  0  0
  180.4000  178.5630  134.9950 C   0  0  0  0  0  2  0  0  0  0  0  0
  179.7870  180.2630  137.8670 C   0  0  0  0  0  2  0  0  0  0  0  0
  181.0370  179.8220  137.3960 O   0  0  0  0  0  0  0  0  0  0  0  0
  180.9950  178.4210  137.5010 C   0  0  1  0  0  3  0  0  0  0  0  0
  178.9780  180.9140  136.7380 C   0  0  0  0  0  2  0  0  0  0  0  0
  180.3900  177.7150  136.2740 C   0  0  0  0  0  2  0  0  0  0  0  0
  185.2110  179.7100  145.2140 C   0  0  0  0  0  2  0  0  0  0  0  0
  185.2460  178.5520  146.1740 C   0  0  0  0  0  0  0  0  0  0  0  0
  184.3780  178.4250  147.0810 O   0  0  0  0  0  0  0  0  0  0  0  0
  186.3230  177.5520  146.0860 C   0  0  0  0  0  0  0  0  0  0  0  0
  187.6820  177.9170  146.3840 N   0  0  0  0  0  2  0  0  0  0  0  0
  186.0370  176.3660  145.7630 O   0  0  0  0  0  0  0  0  0  0  0  0
  188.7760  177.0440  146.2300 N   0  0  0  0  0  2  0  0  0  0  0  0
  189.8920  177.7780  145.6430 C   0  0  2  0  0  3  0  0  0  0  0  0
  189.4490  178.5150  144.4400 N   0  0  0  0  0  0  0  0  0  0  0  0
  190.5170  180.6940  143.3270 O   0  0  0  0  0  0  0  0  0  0  0  0
  189.8930  177.8000  142.1120 C   0  0  1  0  0  3  0  0  0  0  0  0
  190.8490  179.2830  143.7580 P   0  0  1  0  0  0  0  0  0  0  0  0
  189.0110  177.6210  143.3650 C   0  0  0  0  0  2  0  0  0  0  0  0
  192.1610  179.3010  144.8230 O   0  0  0  0  0  1  0  0  0  0  0  0
  191.1620  178.3320  142.4130 O   0  0  0  0  0  0  0  0  0  0  0  0
  190.0720  176.2090  141.2570 S   0  0  0  0  0  0  0  0  0  0  0  0
  190.4680  176.0640  138.5700 C   0  0  0  0  0  1  0  0  0  0  0  0
  190.6500  177.0210  139.7370 C   0  0  0  0  0  2  0  0  0  0  0  0
  191.1120  176.8630  145.4490 C   0  0  0  0  0  2  0  0  0  0  0  0
  192.0030  176.8710  146.6810 C   0  0  0  0  0  2  0  0  0  0  0  0
  192.1110  175.4700  147.2770 C   0  0  1  0  0  3  0  0  0  0  0  0
  192.7030  174.5650  146.3050 N   0  0  0  0  0  1  0  0  0  0  0  0
  192.9100  175.4560  148.5820 C   0  0  0  0  0  2  0  0  0  0  0  0
  193.1190  176.8120  149.0790 N   0  0  0  0  0  1  0  0  0  0  0  0
  186.8640  178.0880  139.5830 C   0  0  0  0  0  2  0  0  0  0  0  0
  187.5240  177.8510  138.3470 O   0  0  0  0  0  0  0  0  0  0  0  0
  189.1070  179.5490  137.6970 O   0  0  0  0  0  1  0  0  0  0  0  0
  187.9080  178.8800  137.4840 C   0  0  0  0  0  0  0  0  0  0  0  0
  187.1810  179.2080  136.5070 O   0  0  0  0  0  0  0  0  0  0  0  0
  182.6340  175.8260  136.7770 N   0  0  0  0  0  2  0  0  0  0  0  0
  183.5230  175.0100  135.9450 C   0  0  2  0  0  0  0  0  0  0  0  0
  186.6970  172.9700  136.7750 C   0  0  0  0  0  2  0  0  0  0  0  0
  185.5180  175.6590  134.5960 C   0  0  0  0  0  3  0  0  0  0  0  0
  182.6990  174.0490  135.0880 C   0  0  0  0  0  1  0  0  0  0  0  0
  187.6190  174.3240  134.9880 C   0  0  0  0  0  2  0  0  0  0  0  0
  187.9460  173.1690  135.9260 C   0  0  0  0  0  2  0  0  0  0  0  0
  184.5160  174.2220  136.8210 C   0  0  0  0  0  2  0  0  0  0  0  0
  184.2780  175.9350  135.0200 C   0  0  0  0  0  3  0  0  0  0  0  0
  186.1810  174.4670  135.0380 N   0  0  0  0  0  0  0  0  0  0  0  0
  185.5590  173.5190  135.9440 C   0  0  1  0  0  3  0  0  0  0  0  0
  1 10  1  6  0  0  0
  1  6  1  0  0  0  0
  1  2  1  0  0  0  0
  2 48  1  1  0  0  0
  2  9  1  0  0  0  0
  3 11  1  0  0  0  0
  4  9  1  6  0  0  0
  4  7  1  0  0  0  0
  4  3  1  0  0  0  0
  5  6  1  0  0  0  0
  6 14  2  0  0  0  0
  7 13  2  0  0  0  0
 11  8  2  0  0  0  0
 11 24  1  0  0  0  0
 13 12  1  0  0  0  0
 13  8  1  0  0  0  0
 14  7  1  0  0  0  0
 15 53  1  1  0  0  0
 15 10  1  0  0  0  0
 15  5  1  0  0  0  0
 16 22  1  0  0  0  0
 17 18  1  0  0  0  0
 17 16  1  0  0  0  0
 18 23  1  0  0  0  0
 20 21  1  0  0  0  0
 20 19  1  0  0  0  0
 21 23  1  6  0  0  0
 21  5  1  0  0  0  0
 22 19  1  0  0  0  0
 24 25  1  0  0  0  0
 25 26  2  0  0  0  0
 27 25  1  0  0  0  0
 27 28  1  0  0  0  0
 29 27  2  0  0  0  0
 30 28  1  0  0  0  0
 31 42  1  6  0  0  0
 31 30  1  0  0  0  0
 32 31  1  0  0  0  0
 34 39  1  1  0  0  0
 34 38  1  0  0  0  0
 34 36  1  0  0  0  0
 35 33  2  6  0  0  0
 35 32  1  0  0  0  0
 35 37  1  0  0  0  0
 36 32  1  0  0  0  0
 38 35  1  0  0  0  0
 40 41  1  0  0  0  0
 41 39  1  0  0  0  0
 42 43  1  0  0  0  0
 43 44  1  0  0  0  0
 44 45  1  6  0  0  0
 44 46  1  0  0  0  0
 46 47  1  0  0  0  0
 49 48  1  0  0  0  0
 51 50  1  0  0  0  0
 51 49  1  0  0  0  0
 52 51  2  0  0  0  0
 54 57  1  6  0  0  0
 54 53  1  0  0  0  0
 54 60  1  0  0  0  0
 56 61  2  0  0  0  0
 56 62  1  0  0  0  0
 58 62  1  0  0  0  0
 58 59  1  0  0  0  0
 59 55  1  0  0  0  0
 61 54  1  0  0  0  0
 62 63  1  0  0  0  0
 63 55  1  1  0  0  0
 63 60  1  0  0  0  0
M  END
>  <MODEL>
4

>  <REMARK>
 VINA RESULT:      -5.2      2.893      5.064
  Name = 
  18 active torsions:
  status: ('A' for Active; 'I' for Inactive)
    1  A    between atoms: C_3  and  C_11
    2  A    between atoms: S_5  and  C_28
    3  A    between atoms: S_5  and  C_50
    4  A    between atoms: C_7  and  N_9
    5  A    between atoms: C_8  and  C_36
    6  A    between atoms: C_8  and  C_63
    7  A    between atoms: N_9  and  C_59
    8  A    between atoms: C_11  and  O_13
    9  A    between atoms: N_12  and  C_43
   10  A    between atoms: O_13  and  C_38
   11  A    between atoms: N_16  and  C_46
   12  A    between atoms: C_18  and  C_29
   13  A    between atoms: C_18  and  C_45
   14  A    between atoms: C_19  and  C_29
   15  A    between atoms: N_32  and  N_56
   16  A    between atoms: C_43  and  C_47
   17  A    between atoms: C_43  and  N_56
   18  A    between atoms: C_47  and  C_63
                            x       y       z     vdW  Elec       q    Type
                         _______ _______ _______ _____ _____    ______ ____

>  <TORSDO>
F 18

$$$$
=
 OpenBabel10222420133D

 63 69  0  0  1  0  0  0  0  0999 V2000
  184.8820  175.8850  137.7210 C   0  0  1  0  0  3  0  0  0  0  0  0
  184.5250  177.3560  137.4510 C   0  0  1  0  0  3  0  0  0  0  0  0
  181.7200  178.1320  139.3100 O   0  0  0  0  0  0  0  0  0  0  0  0
  182.6400  177.1900  138.7630 C   0  0  1  0  0  3  0  0  0  0  0  0
  184.4410  173.9910  136.2940 N   0  0  0  0  0  0  0  0  0  0  0  0
  183.8660  174.9210  137.2080 C   0  0  0  0  0  0  0  0  0  0  0  0
  182.0030  175.8250  138.5840 C   0  0  0  0  0  0  0  0  0  0  0  0
  180.2880  176.4910  140.2040 C   0  0  0  0  0  3  0  0  0  0  0  0
  183.1450  177.6700  137.5410 O   0  0  0  0  0  0  0  0  0  0  0  0
  186.1550  175.5090  136.9660 C   0  0  0  0  0  2  0  0  0  0  0  0
  180.7190  177.7520  140.2100 C   0  0  0  0  0  0  0  0  0  0  0  0
  180.3120  174.2510  139.1770 O   0  0  0  0  0  1  0  0  0  0  0  0
  180.9010  175.5110  139.2900 C   0  0  0  0  0  0  0  0  0  0  0  0
  182.6090  174.8380  137.6650 C   0  0  0  0  0  3  0  0  0  0  0  0
  185.8680  174.2190  136.1890 C   0  0  1  0  0  3  0  0  0  0  0  0
  181.3030  170.6850  135.4640 O   0  0  0  0  0  0  0  0  0  0  0  0
  180.8820  171.6990  134.6000 C   0  0  0  0  0  2  0  0  0  0  0  0
  181.1910  173.0680  135.2070 C   0  0  0  0  0  2  0  0  0  0  0  0
  183.7210  170.8080  135.1600 C   0  0  0  0  0  2  0  0  0  0  0  0
  183.5140  171.8240  136.1090 O   0  0  0  0  0  0  0  0  0  0  0  0
  183.7620  173.0240  135.4210 C   0  0  1  0  0  3  0  0  0  0  0  0
  182.4100  170.0720  134.8540 C   0  0  0  0  0  2  0  0  0  0  0  0
  182.5360  173.5920  134.6840 C   0  0  0  0  0  2  0  0  0  0  0  0
  180.0740  178.7540  141.1200 C   0  0  0  0  0  2  0  0  0  0  0  0
  180.3420  178.5290  142.5830 C   0  0  0  0  0  0  0  0  0  0  0  0
  179.5860  177.8020  143.2850 O   0  0  0  0  0  0  0  0  0  0  0  0
  181.4890  179.1830  143.2330 C   0  0  0  0  0  0  0  0  0  0  0  0
  182.2220  178.5070  144.2700 N   0  0  0  0  0  2  0  0  0  0  0  0
  181.8330  180.3370  142.8570 O   0  0  0  0  0  0  0  0  0  0  0  0
  183.2670  179.1040  145.0020 N   0  0  0  0  0  2  0  0  0  0  0  0
  184.5200  178.4290  144.6780 C   0  0  2  0  0  3  0  0  0  0  0  0
  185.6680  179.1810  145.2270 N   0  0  0  0  0  0  0  0  0  0  0  0
  186.0730  180.0270  147.7260 O   0  0  0  0  0  1  0  0  0  0  0  0
  187.8520  178.1750  145.8170 C   0  0  1  0  0  3  0  0  0  0  0  0
  185.7900  178.7840  146.9130 P   0  0  1  0  0  0  0  0  0  0  0  0
  186.9490  178.7160  144.6890 C   0  0  0  0  0  2  0  0  0  0  0  0
  184.4030  178.0160  147.4990 O   0  0  0  0  0  0  0  0  0  0  0  0
  187.1190  177.7630  146.9470 O   0  0  0  0  0  0  0  0  0  0  0  0
  188.8570  176.7990  145.1910 S   0  0  0  0  0  0  0  0  0  0  0  0
  190.7630  176.1290  147.0110 C   0  0  0  0  0  1  0  0  0  0  0  0
  190.2900  177.3130  146.1840 C   0  0  0  0  0  2  0  0  0  0  0  0
  184.5960  178.0990  143.1770 C   0  0  0  0  0  2  0  0  0  0  0  0
  185.9860  177.6190  142.7920 C   0  0  0  0  0  2  0  0  0  0  0  0
  186.4080  178.2130  141.4520 C   0  0  1  0  0  3  0  0  0  0  0  0
  185.9560  179.5910  141.3590 N   0  0  0  0  0  1  0  0  0  0  0  0
  187.9210  178.1270  141.2320 C   0  0  0  0  0  2  0  0  0  0  0  0
  188.6300  179.0390  142.1230 N   0  0  0  0  0  1  0  0  0  0  0  0
  185.4070  178.3530  138.2110 C   0  0  0  0  0  2  0  0  0  0  0  0
  186.2760  179.0630  137.3380 O   0  0  0  0  0  0  0  0  0  0  0  0
  188.6540  179.2880  137.6670 O   0  0  0  0  0  1  0  0  0  0  0  0
  187.5800  178.6450  137.0630 C   0  0  0  0  0  0  0  0  0  0  0  0
  187.7970  177.6840  136.2750 O   0  0  0  0  0  0  0  0  0  0  0  0
  186.5900  173.1060  136.8140 N   0  0  0  0  0  2  0  0  0  0  0  0
  187.9880  173.0350  136.3770 C   0  0  2  0  0  0  0  0  0  0  0  0
  191.1810  174.8230  137.6150 C   0  0  0  0  0  2  0  0  0  0  0  0
  189.1880  174.2990  134.5940 C   0  0  0  0  0  3  0  0  0  0  0  0
  188.4240  171.5740  136.2590 C   0  0  0  0  0  1  0  0  0  0  0  0
  191.3400  175.4230  135.2710 C   0  0  0  0  0  2  0  0  0  0  0  0
  192.0830  175.5120  136.5980 C   0  0  0  0  0  2  0  0  0  0  0  0
  188.9050  173.7840  137.3640 C   0  0  0  0  0  2  0  0  0  0  0  0
  188.0830  173.6660  135.0090 C   0  0  0  0  0  3  0  0  0  0  0  0
  190.3210  174.4150  135.4660 N   0  0  0  0  0  0  0  0  0  0  0  0
  190.3310  173.8660  136.8080 C   0  0  1  0  0  3  0  0  0  0  0  0
  1 10  1  6  0  0  0
  2  9  1  0  0  0  0
  2  1  1  0  0  0  0
  2 48  1  1  0  0  0
  3 11  1  0  0  0  0
  4  9  1  6  0  0  0
  4  3  1  0  0  0  0
  5  6  1  0  0  0  0
  6 14  2  0  0  0  0
  6  1  1  0  0  0  0
  7  4  1  0  0  0  0
  7 13  2  0  0  0  0
  8 11  2  0  0  0  0
 11 24  1  0  0  0  0
 12 13  1  0  0  0  0
 13  8  1  0  0  0  0
 14  7  1  0  0  0  0
 15  5  1  0  0  0  0
 15 53  1  1  0  0  0
 15 10  1  0  0  0  0
 17 18  1  0  0  0  0
 17 16  1  0  0  0  0
 19 20  1  0  0  0  0
 21 23  1  1  0  0  0
 21 20  1  0  0  0  0
 21  5  1  0  0  0  0
 22 19  1  0  0  0  0
 22 16  1  0  0  0  0
 23 18  1  0  0  0  0
 24 25  1  0  0  0  0
 25 27  1  0  0  0  0
 25 26  2  0  0  0  0
 27 28  1  0  0  0  0
 28 30  1  0  0  0  0
 29 27  2  0  0  0  0
 31 42  1  6  0  0  0
 31 30  1  0  0  0  0
 31 32  1  0  0  0  0
 32 35  1  0  0  0  0
 34 39  1  6  0  0  0
 34 38  1  0  0  0  0
 35 38  1  0  0  0  0
 35 37  2  1  0  0  0
 35 33  1  0  0  0  0
 36 32  1  0  0  0  0
 36 34  1  0  0  0  0
 39 41  1  0  0  0  0
 41 40  1  0  0  0  0
 43 42  1  0  0  0  0
 44 45  1  1  0  0  0
 44 43  1  0  0  0  0
 46 44  1  0  0  0  0
 46 47  1  0  0  0  0
 49 48  1  0  0  0  0
 51 49  1  0  0  0  0
 51 50  1  0  0  0  0
 52 51  2  0  0  0  0
 54 57  1  6  0  0  0
 54 53  1  0  0  0  0
 54 60  1  0  0  0  0
 56 61  2  0  0  0  0
 56 62  1  0  0  0  0
 58 62  1  0  0  0  0
 58 59  1  0  0  0  0
 59 55  1  0  0  0  0
 61 54  1  0  0  0  0
 62 63  1  0  0  0  0
 63 60  1  1  0  0  0
 63 55  1  0  0  0  0
M  END
>  <MODEL>
5

>  <REMARK>
 VINA RESULT:      -4.8      1.624      2.524
  Name = 
  18 active torsions:
  status: ('A' for Active; 'I' for Inactive)
    1  A    between atoms: C_3  and  C_11
    2  A    between atoms: S_5  and  C_28
    3  A    between atoms: S_5  and  C_50
    4  A    between atoms: C_7  and  N_9
    5  A    between atoms: C_8  and  C_36
    6  A    between atoms: C_8  and  C_63
    7  A    between atoms: N_9  and  C_59
    8  A    between atoms: C_11  and  O_13
    9  A    between atoms: N_12  and  C_43
   10  A    between atoms: O_13  and  C_38
   11  A    between atoms: N_16  and  C_46
   12  A    between atoms: C_18  and  C_29
   13  A    between atoms: C_18  and  C_45
   14  A    between atoms: C_19  and  C_29
   15  A    between atoms: N_32  and  N_56
   16  A    between atoms: C_43  and  C_47
   17  A    between atoms: C_43  and  N_56
   18  A    between atoms: C_47  and  C_63
                            x       y       z     vdW  Elec       q    Type
                         _______ _______ _______ _____ _____    ______ ____

>  <TORSDO>
F 18

$$$$
=
 OpenBabel10222420133D

 63 69  0  0  1  0  0  0  0  0999 V2000
  188.7500  175.6430  137.6490 C   0  0  1  0  0  3  0  0  0  0  0  0
  187.7860  176.3360  136.6740 C   0  0  1  0  0  3  0  0  0  0  0  0
  185.7360  173.9200  135.2990 O   0  0  0  0  0  0  0  0  0  0  0  0
  186.8860  174.3110  136.0470 C   0  0  1  0  0  3  0  0  0  0  0  0
  191.0670  175.0900  137.2660 N   0  0  0  0  0  0  0  0  0  0  0  0
  189.7190  174.7260  136.9810 C   0  0  0  0  0  0  0  0  0  0  0  0
  187.9730  173.2550  135.9960 C   0  0  0  0  0  0  0  0  0  0  0  0
  186.2610  171.6250  135.3460 C   0  0  0  0  0  3  0  0  0  0  0  0
  187.3660  175.5460  135.5740 O   0  0  0  0  0  0  0  0  0  0  0  0
  189.6400  176.6790  138.3310 C   0  0  0  0  0  2  0  0  0  0  0  0
  185.3460  172.5810  135.1890 C   0  0  0  0  0  0  0  0  0  0  0  0
  188.6200  170.9840  135.6600 O   0  0  0  0  0  1  0  0  0  0  0  0
  187.6500  171.9870  135.6800 C   0  0  0  0  0  0  0  0  0  0  0  0
  189.3690  173.6110  136.3240 C   0  0  0  0  0  3  0  0  0  0  0  0
  191.0920  176.2090  138.1860 C   0  0  1  0  0  3  0  0  0  0  0  0
  195.4940  175.5150  135.9690 O   0  0  0  0  0  0  0  0  0  0  0  0
  195.5660  174.4650  136.8870 C   0  0  0  0  0  2  0  0  0  0  0  0
  194.5140  174.6490  137.9810 C   0  0  0  0  0  2  0  0  0  0  0  0
  193.4520  174.9270  134.7710 C   0  0  0  0  0  2  0  0  0  0  0  0
  192.9270  175.5890  135.8950 O   0  0  0  0  0  0  0  0  0  0  0  0
  192.3030  174.5850  136.6530 C   0  0  1  0  0  3  0  0  0  0  0  0
  194.9850  174.9720  134.7780 C   0  0  0  0  0  2  0  0  0  0  0  0
  193.2430  173.8620  137.6360 C   0  0  0  0  0  2  0  0  0  0  0  0
  183.9400  172.2120  134.8220 C   0  0  0  0  0  2  0  0  0  0  0  0
  182.8810  172.9040  135.6370 C   0  0  0  0  0  0  0  0  0  0  0  0
  181.8960  172.2690  136.1070 O   0  0  0  0  0  0  0  0  0  0  0  0
  182.9640  174.3530  135.8780 C   0  0  0  0  0  0  0  0  0  0  0  0
  183.2160  174.8580  137.2010 N   0  0  0  0  0  2  0  0  0  0  0  0
  182.8290  175.1470  134.9060 O   0  0  0  0  0  0  0  0  0  0  0  0
  183.2140  176.2290  137.5250 N   0  0  0  0  0  2  0  0  0  0  0  0
  181.8760  176.6100  137.9680 C   0  0  2  0  0  3  0  0  0  0  0  0
  181.2950  177.6120  137.0510 N   0  0  0  0  0  0  0  0  0  0  0  0
  178.9320  177.5700  135.8080 O   0  0  0  0  0  0  0  0  0  0  0  0
  180.2380  179.7320  137.7740 C   0  0  1  0  0  3  0  0  0  0  0  0
  179.5670  177.4920  137.1780 P   0  0  1  0  0  0  0  0  0  0  0  0
  181.5580  178.9870  137.4840 C   0  0  0  0  0  2  0  0  0  0  0  0
  179.0740  176.0770  137.9610 O   0  0  0  0  0  1  0  0  0  0  0  0
  179.1760  178.8560  138.0700 O   0  0  0  0  0  0  0  0  0  0  0  0
  180.4820  180.9000  139.1410 S   0  0  0  0  0  0  0  0  0  0  0  0
  179.7010  181.9110  136.7400 C   0  0  0  0  0  1  0  0  0  0  0  0
  180.4180  182.3260  138.0140 C   0  0  0  0  0  2  0  0  0  0  0  0
  181.8780  176.9940  139.4580 C   0  0  0  0  0  2  0  0  0  0  0  0
  183.2970  177.1710  139.9760 C   0  0  0  0  0  2  0  0  0  0  0  0
  183.4370  178.4970  140.7180 C   0  0  1  0  0  3  0  0  0  0  0  0
  183.4200  178.2630  142.1520 N   0  0  0  0  0  1  0  0  0  0  0  0
  184.7030  179.2550  140.3110 C   0  0  0  0  0  2  0  0  0  0  0  0
  184.4770  180.0340  139.0980 N   0  0  0  0  0  1  0  0  0  0  0  0
  186.6190  177.0510  137.3650 C   0  0  0  0  0  2  0  0  0  0  0  0
  186.4210  178.3610  136.8480 O   0  0  0  0  0  0  0  0  0  0  0  0
  188.4680  179.1850  137.8180 O   0  0  0  0  0  1  0  0  0  0  0  0
  187.3420  179.3940  137.0310 C   0  0  0  0  0  0  0  0  0  0  0  0
  187.1680  180.5180  136.4840 O   0  0  0  0  0  0  0  0  0  0  0  0
  191.5890  175.7610  139.4910 N   0  0  0  0  0  2  0  0  0  0  0  0
  191.5280  176.8200  140.5030 C   0  0  2  0  0  0  0  0  0  0  0  0
  191.3980  176.7070  144.3630 C   0  0  0  0  0  2  0  0  0  0  0  0
  189.5650  178.0090  141.4790 C   0  0  0  0  0  3  0  0  0  0  0  0
  192.5930  177.8780  140.2160 C   0  0  0  0  0  1  0  0  0  0  0  0
  189.4350  178.0820  143.9950 C   0  0  0  0  0  2  0  0  0  0  0  0
  190.3300  177.5140  145.0900 C   0  0  0  0  0  2  0  0  0  0  0  0
  191.7290  176.2340  141.9150 C   0  0  0  0  0  2  0  0  0  0  0  0
  190.1730  177.4790  140.4100 C   0  0  0  0  0  3  0  0  0  0  0  0
  190.1890  177.9400  142.7690 N   0  0  0  0  0  0  0  0  0  0  0  0
  191.4780  177.3100  142.9780 C   0  0  1  0  0  3  0  0  0  0  0  0
  1 10  1  6  0  0  0
  2 48  1  1  0  0  0
  2  1  1  0  0  0  0
  4  3  1  6  0  0  0
  5 15  1  0  0  0  0
  6  5  1  0  0  0  0
  6  1  1  0  0  0  0
  7  4  1  0  0  0  0
  7 14  1  0  0  0  0
  8 13  1  0  0  0  0
  9  4  1  0  0  0  0
  9  2  1  0  0  0  0
 11  3  1  0  0  0  0
 11  8  2  0  0  0  0
 12 13  1  0  0  0  0
 13  7  2  0  0  0  0
 14  6  2  0  0  0  0
 15 10  1  0  0  0  0
 15 53  1  1  0  0  0
 16 17  1  0  0  0  0
 17 18  1  0  0  0  0
 19 22  1  0  0  0  0
 19 20  1  0  0  0  0
 20 21  1  0  0  0  0
 21  5  1  1  0  0  0
 21 23  1  0  0  0  0
 22 16  1  0  0  0  0
 23 18  1  0  0  0  0
 24 11  1  0  0  0  0
 24 25  1  0  0  0  0
 25 27  1  0  0  0  0
 25 26  2  0  0  0  0
 27 28  1  0  0  0  0
 28 30  1  0  0  0  0
 29 27  2  0  0  0  0
 30 31  1  0  0  0  0
 31 42  1  1  0  0  0
 32 35  1  0  0  0  0
 32 36  1  0  0  0  0
 32 31  1  0  0  0  0
 34 38  1  0  0  0  0
 34 39  1  1  0  0  0
 35 33  2  6  0  0  0
 35 37  1  0  0  0  0
 35 38  1  0  0  0  0
 36 34  1  0  0  0  0
 40 41  1  0  0  0  0
 41 39  1  0  0  0  0
 42 43  1  0  0  0  0
 43 44  1  0  0  0  0
 44 45  1  1  0  0  0
 46 44  1  0  0  0  0
 47 46  1  0  0  0  0
 49 51  1  0  0  0  0
 49 48  1  0  0  0  0
 51 50  1  0  0  0  0
 52 51  2  0  0  0  0
 53 54  1  0  0  0  0
 54 57  1  6  0  0  0
 54 60  1  0  0  0  0
 55 59  1  0  0  0  0
 56 62  1  0  0  0  0
 58 59  1  0  0  0  0
 61 54  1  0  0  0  0
 61 56  2  0  0  0  0
 62 63  1  0  0  0  0
 62 58  1  0  0  0  0
 63 60  1  6  0  0  0
 63 55  1  0  0  0  0
M  END
>  <MODEL>
6

>  <REMARK>
 VINA RESULT:      -4.5      3.290      8.540
  Name = 
  18 active torsions:
  status: ('A' for Active; 'I' for Inactive)
    1  A    between atoms: C_3  and  C_11
    2  A    between atoms: S_5  and  C_28
    3  A    between atoms: S_5  and  C_50
    4  A    between atoms: C_7  and  N_9
    5  A    between atoms: C_8  and  C_36
    6  A    between atoms: C_8  and  C_63
    7  A    between atoms: N_9  and  C_59
    8  A    between atoms: C_11  and  O_13
    9  A    between atoms: N_12  and  C_43
   10  A    between atoms: O_13  and  C_38
   11  A    between atoms: N_16  and  C_46
   12  A    between atoms: C_18  and  C_29
   13  A    between atoms: C_18  and  C_45
   14  A    between atoms: C_19  and  C_29
   15  A    between atoms: N_32  and  N_56
   16  A    between atoms: C_43  and  C_47
   17  A    between atoms: C_43  and  N_56
   18  A    between atoms: C_47  and  C_63
                            x       y       z     vdW  Elec       q    Type
                         _______ _______ _______ _____ _____    ______ ____

>  <TORSDO>
F 18

$$$$
=
 OpenBabel10222420133D

 63 69  0  0  1  0  0  0  0  0999 V2000
  184.4070  177.2310  137.6550 C   0  0  1  0  0  3  0  0  0  0  0  0
  185.7660  177.3800  136.9530 C   0  0  1  0  0  3  0  0  0  0  0  0
  188.2230  177.4240  139.3790 O   0  0  0  0  0  0  0  0  0  0  0  0
  186.8560  177.4890  138.9780 C   0  0  1  0  0  3  0  0  0  0  0  0
  182.7850  178.9650  138.0770 N   0  0  0  0  0  0  0  0  0  0  0  0
  184.0320  178.4110  138.4870 C   0  0  0  0  0  0  0  0  0  0  0  0
  186.0150  178.2580  139.9780 C   0  0  0  0  0  0  0  0  0  0  0  0
  187.7690  177.8700  141.6460 C   0  0  0  0  0  3  0  0  0  0  0  0
  186.7600  178.0630  137.6980 O   0  0  0  0  0  0  0  0  0  0  0  0
  183.2890  177.1450  136.6190 C   0  0  0  0  0  2  0  0  0  0  0  0
  188.5980  177.3770  140.7260 C   0  0  0  0  0  0  0  0  0  0  0  0
  185.6930  179.0800  142.1950 O   0  0  0  0  0  1  0  0  0  0  0  0
  186.4600  178.4100  141.2400 C   0  0  0  0  0  0  0  0  0  0  0  0
  184.7030  178.8070  139.5770 C   0  0  0  0  0  3  0  0  0  0  0  0
  182.2140  178.1650  137.0120 C   0  0  1  0  0  3  0  0  0  0  0  0
  179.1800  181.8500  138.4660 O   0  0  0  0  0  0  0  0  0  0  0  0
  179.5060  181.6200  139.8050 C   0  0  0  0  0  2  0  0  0  0  0  0
  180.0550  180.2040  139.9770 C   0  0  0  0  0  2  0  0  0  0  0  0
  181.4060  182.0790  137.4930 C   0  0  0  0  0  2  0  0  0  0  0  0
  181.2590  180.6810  137.5110 O   0  0  0  0  0  0  0  0  0  0  0  0
  182.1630  180.2310  138.4890 C   0  0  1  0  0  3  0  0  0  0  0  0
  180.1230  182.7680  137.9760 C   0  0  0  0  0  2  0  0  0  0  0  0
  181.5890  180.2150  139.9180 C   0  0  0  0  0  2  0  0  0  0  0  0
  189.9410  176.8540  141.1390 C   0  0  0  0  0  2  0  0  0  0  0  0
  190.8250  177.8720  141.8090 C   0  0  0  0  0  0  0  0  0  0  0  0
  191.8500  178.3300  141.2330 O   0  0  0  0  0  0  0  0  0  0  0  0
  190.5190  178.3330  143.1720 C   0  0  0  0  0  0  0  0  0  0  0  0
  189.5610  177.6280  143.9820 N   0  0  0  0  0  2  0  0  0  0  0  0
  191.1200  179.3440  143.6300 O   0  0  0  0  0  0  0  0  0  0  0  0
  189.1470  178.0630  145.2560 N   0  0  0  0  0  2  0  0  0  0  0  0
  189.2450  176.9500  146.1930 C   0  0  2  0  0  3  0  0  0  0  0  0
  187.9640  176.7610  146.9070 N   0  0  0  0  0  0  0  0  0  0  0  0
  187.3890  177.2510  149.4680 O   0  0  0  0  0  1  0  0  0  0  0  0
  186.0380  178.3110  146.7670 C   0  0  1  0  0  3  0  0  0  0  0  0
  187.9260  177.9040  148.2140 P   0  0  1  0  0  0  0  0  0  0  0  0
  186.8090  177.1540  146.0970 C   0  0  0  0  0  2  0  0  0  0  0  0
  189.4420  178.5840  148.5240 O   0  0  0  0  0  0  0  0  0  0  0  0
  186.8400  179.0530  147.6570 O   0  0  0  0  0  0  0  0  0  0  0  0
  185.3440  179.4030  145.4950 S   0  0  0  0  0  0  0  0  0  0  0  0
  183.0550  178.7400  144.1840 C   0  0  0  0  0  1  0  0  0  0  0  0
  183.7560  178.5180  145.5140 C   0  0  0  0  0  2  0  0  0  0  0  0
  190.4900  177.0900  147.0860 C   0  0  0  0  0  2  0  0  0  0  0  0
  191.7660  177.0110  146.2630 C   0  0  0  0  0  2  0  0  0  0  0  0
  192.4220  175.6420  146.4180 C   0  0  1  0  0  3  0  0  0  0  0  0
  192.1620  175.1190  147.7480 N   0  0  0  0  0  1  0  0  0  0  0  0
  191.9520  174.6520  145.3480 C   0  0  0  0  0  2  0  0  0  0  0  0
  192.1320  175.2050  144.0110 N   0  0  0  0  0  1  0  0  0  0  0  0
  186.2850  176.0770  136.3340 C   0  0  0  0  0  2  0  0  0  0  0  0
  186.0510  174.9590  137.1810 O   0  0  0  0  0  0  0  0  0  0  0  0
  187.3010  173.4650  135.7620 O   0  0  0  0  0  0  0  0  0  0  0  0
  186.4990  173.6720  136.8780 C   0  0  0  0  0  0  0  0  0  0  0  0
  186.1900  172.6920  137.6090 O   0  0  0  0  0  1  0  0  0  0  0  0
  181.0320  177.4540  137.5110 N   0  0  0  0  0  2  0  0  0  0  0  0
  180.4570  176.5550  136.5050 C   0  0  2  0  0  0  0  0  0  0  0  0
  179.6110  172.7870  136.5840 C   0  0  0  0  0  2  0  0  0  0  0  0
  181.5630  175.2380  134.6990 C   0  0  0  0  0  3  0  0  0  0  0  0
  179.2060  177.1860  135.8950 C   0  0  0  0  0  1  0  0  0  0  0  0
  181.0010  172.7830  134.5980 C   0  0  0  0  0  2  0  0  0  0  0  0
  180.1060  171.8940  135.4530 C   0  0  0  0  0  2  0  0  0  0  0  0
  180.1120  175.1900  137.1310 C   0  0  0  0  0  2  0  0  0  0  0  0
  181.4760  176.3720  135.4050 C   0  0  0  0  0  3  0  0  0  0  0  0
  180.6890  174.1390  134.9920 N   0  0  0  0  0  0  0  0  0  0  0  0
  179.6890  174.1970  136.0420 C   0  0  1  0  0  3  0  0  0  0  0  0
  1 10  1  6  0  0  0
  1  6  1  0  0  0  0
  2 48  1  1  0  0  0
  2  1  1  0  0  0  0
  2  9  1  0  0  0  0
  3 11  1  0  0  0  0
  4  9  1  6  0  0  0
  4  3  1  0  0  0  0
  4  7  1  0  0  0  0
  5  6  1  0  0  0  0
  6 14  2  0  0  0  0
  7 13  2  0  0  0  0
 10 15  1  0  0  0  0
 11 24  1  0  0  0  0
 11  8  2  0  0  0  0
 13  8  1  0  0  0  0
 13 12  1  0  0  0  0
 14  7  1  0  0  0  0
 15 53  1  1  0  0  0
 15  5  1  0  0  0  0
 16 17  1  0  0  0  0
 17 18  1  0  0  0  0
 19 20  1  0  0  0  0
 19 22  1  0  0  0  0
 20 21  1  0  0  0  0
 21  5  1  6  0  0  0
 21 23  1  0  0  0  0
 22 16  1  0  0  0  0
 23 18  1  0  0  0  0
 24 25  1  0  0  0  0
 25 27  1  0  0  0  0
 26 25  2  0  0  0  0
 27 29  2  0  0  0  0
 27 28  1  0  0  0  0
 28 30  1  0  0  0  0
 30 31  1  0  0  0  0
 31 32  1  0  0  0  0
 31 42  1  1  0  0  0
 32 35  1  0  0  0  0
 34 39  1  6  0  0  0
 34 38  1  0  0  0  0
 35 37  2  1  0  0  0
 35 33  1  0  0  0  0
 36 34  1  0  0  0  0
 36 32  1  0  0  0  0
 38 35  1  0  0  0  0
 39 41  1  0  0  0  0
 40 41  1  0  0  0  0
 43 44  1  0  0  0  0
 43 42  1  0  0  0  0
 44 45  1  1  0  0  0
 46 44  1  0  0  0  0
 47 46  1  0  0  0  0
 48 49  1  0  0  0  0
 50 51  2  0  0  0  0
 51 49  1  0  0  0  0
 51 52  1  0  0  0  0
 54 57  1  6  0  0  0
 54 60  1  0  0  0  0
 54 53  1  0  0  0  0
 56 62  1  0  0  0  0
 56 61  2  0  0  0  0
 58 62  1  0  0  0  0
 58 59  1  0  0  0  0
 59 55  1  0  0  0  0
 61 54  1  0  0  0  0
 62 63  1  0  0  0  0
 63 55  1  1  0  0  0
 63 60  1  0  0  0  0
M  END
>  <MODEL>
7

>  <REMARK>
 VINA RESULT:      -4.3      3.321      7.439
  Name = 
  18 active torsions:
  status: ('A' for Active; 'I' for Inactive)
    1  A    between atoms: C_3  and  C_11
    2  A    between atoms: S_5  and  C_28
    3  A    between atoms: S_5  and  C_50
    4  A    between atoms: C_7  and  N_9
    5  A    between atoms: C_8  and  C_36
    6  A    between atoms: C_8  and  C_63
    7  A    between atoms: N_9  and  C_59
    8  A    between atoms: C_11  and  O_13
    9  A    between atoms: N_12  and  C_43
   10  A    between atoms: O_13  and  C_38
   11  A    between atoms: N_16  and  C_46
   12  A    between atoms: C_18  and  C_29
   13  A    between atoms: C_18  and  C_45
   14  A    between atoms: C_19  and  C_29
   15  A    between atoms: N_32  and  N_56
   16  A    between atoms: C_43  and  C_47
   17  A    between atoms: C_43  and  N_56
   18  A    between atoms: C_47  and  C_63
                            x       y       z     vdW  Elec       q    Type
                         _______ _______ _______ _____ _____    ______ ____

>  <TORSDO>
F 18

$$$$
=
 OpenBabel10222420133D

 63 69  0  0  1  0  0  0  0  0999 V2000
  180.3580  178.6130  138.7020 C   0  0  1  0  0  3  0  0  0  0  0  0
  180.1850  178.2480  140.1850 C   0  0  1  0  0  3  0  0  0  0  0  0
  183.2360  178.6590  141.7500 O   0  0  0  0  0  0  0  0  0  0  0  0
  182.4320  178.5630  140.5760 C   0  0  1  0  0  3  0  0  0  0  0  0
  180.5720  177.0930  136.8410 N   0  0  0  0  0  0  0  0  0  0  0  0
  181.2450  177.6730  137.9560 C   0  0  0  0  0  0  0  0  0  0  0  0
  183.2380  178.0810  139.3840 C   0  0  0  0  0  0  0  0  0  0  0  0
  185.2700  178.7690  140.5690 C   0  0  0  0  0  3  0  0  0  0  0  0
  181.3370  177.7130  140.8150 O   0  0  0  0  0  0  0  0  0  0  0  0
  179.0190  178.5050  137.9770 C   0  0  0  0  0  2  0  0  0  0  0  0
  184.5920  179.0010  141.6920 C   0  0  0  0  0  0  0  0  0  0  0  0
  185.3450  177.8080  138.3010 O   0  0  0  0  0  1  0  0  0  0  0  0
  184.5780  178.2060  139.3970 C   0  0  0  0  0  0  0  0  0  0  0  0
  182.5510  177.5110  138.2060 C   0  0  0  0  0  3  0  0  0  0  0  0
  179.2390  177.6500  136.7230 C   0  0  1  0  0  3  0  0  0  0  0  0
  182.1670  172.7980  136.1500 O   0  0  0  0  0  0  0  0  0  0  0  0
  180.9210  172.7440  135.5210 C   0  0  0  0  0  2  0  0  0  0  0  0
  179.9280  173.6550  136.2410 C   0  0  0  0  0  2  0  0  0  0  0  0
  182.9360  175.0010  135.4350 C   0  0  0  0  0  2  0  0  0  0  0  0
  182.1270  175.3380  136.5340 O   0  0  0  0  0  0  0  0  0  0  0  0
  181.0080  175.9840  135.9820 C   0  0  1  0  0  3  0  0  0  0  0  0
  183.0290  173.4790  135.2730 C   0  0  0  0  0  2  0  0  0  0  0  0
  179.8750  175.0300  135.5610 C   0  0  0  0  0  2  0  0  0  0  0  0
  185.3050  179.5460  142.8930 C   0  0  0  0  0  2  0  0  0  0  0  0
  185.1920  178.6900  144.1250 C   0  0  0  0  0  0  0  0  0  0  0  0
  184.1230  178.6420  144.7950 O   0  0  0  0  0  0  0  0  0  0  0  0
  186.3490  177.9090  144.5900 C   0  0  0  0  0  0  0  0  0  0  0  0
  187.3710  177.5000  143.6650 N   0  0  0  0  0  2  0  0  0  0  0  0
  186.4430  177.6170  145.8150 O   0  0  0  0  0  0  0  0  0  0  0  0
  188.4550  176.6720  144.0170 N   0  0  0  0  0  2  0  0  0  0  0  0
  189.2570  176.4080  142.8270 C   0  0  2  0  0  3  0  0  0  0  0  0
  190.6980  176.5130  143.1420 N   0  0  0  0  0  0  0  0  0  0  0  0
  192.3000  178.6400  142.9550 O   0  0  0  0  0  0  0  0  0  0  0  0
  191.6230  176.7260  145.4290 C   0  0  1  0  0  3  0  0  0  0  0  0
  191.0130  178.1610  143.5870 P   0  0  1  0  0  0  0  0  0  0  0  0
  191.0610  175.7730  144.3530 C   0  0  0  0  0  2  0  0  0  0  0  0
  189.7460  179.1980  143.1680 O   0  0  0  0  0  1  0  0  0  0  0  0
  191.1960  178.0560  145.2500 O   0  0  0  0  0  0  0  0  0  0  0  0
  191.1490  176.1350  147.0780 S   0  0  0  0  0  0  0  0  0  0  0  0
  189.3360  177.8880  148.0970 C   0  0  0  0  0  1  0  0  0  0  0  0
  189.5080  176.9060  146.9490 C   0  0  0  0  0  2  0  0  0  0  0  0
  188.7730  177.2550  141.6370 C   0  0  0  0  0  2  0  0  0  0  0  0
  189.5810  176.9530  140.3850 C   0  0  0  0  0  2  0  0  0  0  0  0
  188.8370  177.4240  139.1390 C   0  0  1  0  0  3  0  0  0  0  0  0
  188.7160  178.8720  139.1550 N   0  0  0  0  0  1  0  0  0  0  0  0
  189.5160  176.9550  137.8490 C   0  0  0  0  0  2  0  0  0  0  0  0
  190.9680  177.0250  137.9690 N   0  0  0  0  0  1  0  0  0  0  0  0
  179.5170  179.3490  141.0160 C   0  0  0  0  0  2  0  0  0  0  0  0
  179.0160  178.8500  142.2490 O   0  0  0  0  0  0  0  0  0  0  0  0
  179.6900  177.4560  144.0970 O   0  0  0  0  0  1  0  0  0  0  0  0
  179.8290  178.6280  143.3630 C   0  0  0  0  0  0  0  0  0  0  0  0
  180.6950  179.4770  143.7090 O   0  0  0  0  0  0  0  0  0  0  0  0
  179.1670  178.5060  135.5350 N   0  0  0  0  0  2  0  0  0  0  0  0
  179.8060  179.8080  135.7470 C   0  0  2  0  0  0  0  0  0  0  0  0
  179.1940  182.5960  138.3510 C   0  0  0  0  0  2  0  0  0  0  0  0
  179.3060  182.0340  134.7390 C   0  0  0  0  0  3  0  0  0  0  0  0
  181.3260  179.6500  135.7490 C   0  0  0  0  0  1  0  0  0  0  0  0
  178.9880  183.9480  136.3480 C   0  0  0  0  0  2  0  0  0  0  0  0
  179.0190  184.0310  137.8690 C   0  0  0  0  0  2  0  0  0  0  0  0
  179.3360  180.4330  137.0750 C   0  0  0  0  0  2  0  0  0  0  0  0
  179.4280  180.7080  134.5950 C   0  0  0  0  0  3  0  0  0  0  0  0
  179.5130  182.6400  136.0230 N   0  0  0  0  0  0  0  0  0  0  0  0
  179.8570  181.8690  137.2020 C   0  0  1  0  0  3  0  0  0  0  0  0
  1 10  1  6  0  0  0
  1  2  1  0  0  0  0
  2  9  1  0  0  0  0
  2 48  1  1  0  0  0
  4  7  1  6  0  0  0
  4  9  1  0  0  0  0
  4  3  1  0  0  0  0
  5  6  1  0  0  0  0
  6 14  2  0  0  0  0
  6  1  1  0  0  0  0
  7 13  2  0  0  0  0
  8 11  2  0  0  0  0
 11  3  1  0  0  0  0
 11 24  1  0  0  0  0
 12 13  1  0  0  0  0
 13  8  1  0  0  0  0
 14  7  1  0  0  0  0
 15 53  1  6  0  0  0
 15  5  1  0  0  0  0
 15 10  1  0  0  0  0
 17 16  1  0  0  0  0
 17 18  1  0  0  0  0
 19 20  1  0  0  0  0
 21 23  1  1  0  0  0
 21 20  1  0  0  0  0
 21  5  1  0  0  0  0
 22 19  1  0  0  0  0
 22 16  1  0  0  0  0
 23 18  1  0  0  0  0
 24 25  1  0  0  0  0
 25 27  1  0  0  0  0
 25 26  2  0  0  0  0
 27 29  2  0  0  0  0
 28 30  1  0  0  0  0
 28 27  1  0  0  0  0
 31 42  1  6  0  0  0
 31 32  1  0  0  0  0
 31 30  1  0  0  0  0
 32 35  1  0  0  0  0
 32 36  1  0  0  0  0
 34 39  1  1  0  0  0
 35 33  2  6  0  0  0
 35 38  1  0  0  0  0
 36 34  1  0  0  0  0
 37 35  1  0  0  0  0
 38 34  1  0  0  0  0
 41 39  1  0  0  0  0
 41 40  1  0  0  0  0
 43 42  1  0  0  0  0
 44 45  1  6  0  0  0
 44 43  1  0  0  0  0
 46 47  1  0  0  0  0
 46 44  1  0  0  0  0
 48 49  1  0  0  0  0
 49 51  1  0  0  0  0
 51 52  2  0  0  0  0
 51 50  1  0  0  0  0
 53 54  1  0  0  0  0
 54 57  1  1  0  0  0
 54 60  1  0  0  0  0
 56 62  1  0  0  0  0
 58 59  1  0  0  0  0
 59 55  1  0  0  0  0
 61 56  2  0  0  0  0
 61 54  1  0  0  0  0
 62 58  1  0  0  0  0
 62 63  1  0  0  0  0
 63 60  1  6  0  0  0
 63 55  1  0  0  0  0
M  END
>  <MODEL>
8

>  <REMARK>
 VINA RESULT:      -4.3      3.683      7.505
  Name = 
  18 active torsions:
  status: ('A' for Active; 'I' for Inactive)
    1  A    between atoms: C_3  and  C_11
    2  A    between atoms: S_5  and  C_28
    3  A    between atoms: S_5  and  C_50
    4  A    between atoms: C_7  and  N_9
    5  A    between atoms: C_8  and  C_36
    6  A    between atoms: C_8  and  C_63
    7  A    between atoms: N_9  and  C_59
    8  A    between atoms: C_11  and  O_13
    9  A    between atoms: N_12  and  C_43
   10  A    between atoms: O_13  and  C_38
   11  A    between atoms: N_16  and  C_46
   12  A    between atoms: C_18  and  C_29
   13  A    between atoms: C_18  and  C_45
   14  A    between atoms: C_19  and  C_29
   15  A    between atoms: N_32  and  N_56
   16  A    between atoms: C_43  and  C_47
   17  A    between atoms: C_43  and  N_56
   18  A    between atoms: C_47  and  C_63
                            x       y       z     vdW  Elec       q    Type
                         _______ _______ _______ _____ _____    ______ ____

>  <TORSDO>
F 18

$$$$
=
 OpenBabel10222420133D

 63 69  0  0  1  0  0  0  0  0999 V2000
  188.5560  175.6220  137.6270 C   0  0  1  0  0  3  0  0  0  0  0  0
  187.5840  176.2140  136.5940 C   0  0  1  0  0  3  0  0  0  0  0  0
  185.5980  173.6510  135.4050 O   0  0  0  0  0  0  0  0  0  0  0  0
  186.7340  174.1260  136.1250 C   0  0  1  0  0  3  0  0  0  0  0  0
  190.8870  175.0930  137.3010 N   0  0  0  0  0  0  0  0  0  0  0  0
  189.5500  174.6770  137.0380 C   0  0  0  0  0  0  0  0  0  0  0  0
  187.8440  173.0940  136.1640 C   0  0  0  0  0  0  0  0  0  0  0  0
  186.1730  171.3790  135.6360 C   0  0  0  0  0  3  0  0  0  0  0  0
  187.1900  175.3300  135.5580 O   0  0  0  0  0  0  0  0  0  0  0  0
  189.4190  176.7290  138.2290 C   0  0  0  0  0  2  0  0  0  0  0  0
  185.2380  172.2990  135.3990 C   0  0  0  0  0  0  0  0  0  0  0  0
  188.5430  170.8180  136.0130 O   0  0  0  0  0  1  0  0  0  0  0  0
  187.5510  171.7980  135.9470 C   0  0  0  0  0  0  0  0  0  0  0  0
  189.2300  173.5060  136.4710 C   0  0  0  0  0  3  0  0  0  0  0  0
  190.8820  176.2820  138.1300 C   0  0  1  0  0  3  0  0  0  0  0  0
  195.3550  175.4690  136.1330 O   0  0  0  0  0  0  0  0  0  0  0  0
  195.3930  174.4370  137.0740 C   0  0  0  0  0  2  0  0  0  0  0  0
  194.3090  174.6490  138.1310 C   0  0  0  0  0  2  0  0  0  0  0  0
  193.3470  174.8660  134.8840 C   0  0  0  0  0  2  0  0  0  0  0  0
  192.7920  175.5540  135.9780 O   0  0  0  0  0  0  0  0  0  0  0  0
  192.1390  174.5690  136.7370 C   0  0  1  0  0  3  0  0  0  0  0  0
  194.8800  174.9040  134.9380 C   0  0  0  0  0  2  0  0  0  0  0  0
  193.0440  173.8610  137.7630 C   0  0  0  0  0  2  0  0  0  0  0  0
  183.8430  171.8700  135.0540 C   0  0  0  0  0  2  0  0  0  0  0  0
  182.7850  172.3860  135.9900 C   0  0  0  0  0  0  0  0  0  0  0  0
  182.0610  171.5980  136.6590 O   0  0  0  0  0  0  0  0  0  0  0  0
  182.5550  173.8330  136.1200 C   0  0  0  0  0  0  0  0  0  0  0  0
  182.6360  174.4710  137.4060 N   0  0  0  0  0  2  0  0  0  0  0  0
  182.3030  174.5120  135.0860 O   0  0  0  0  0  0  0  0  0  0  0  0
  182.3360  175.8300  137.6230 N   0  0  0  0  0  2  0  0  0  0  0  0
  182.3530  176.0980  139.0570 C   0  0  2  0  0  3  0  0  0  0  0  0
  180.9770  176.1040  139.5980 N   0  0  0  0  0  0  0  0  0  0  0  0
  179.0560  177.9270  139.2590 O   0  0  0  0  0  1  0  0  0  0  0  0
  179.0990  174.7810  138.6730 C   0  0  1  0  0  3  0  0  0  0  0  0
  179.9920  177.0160  138.4960 P   0  0  1  0  0  0  0  0  0  0  0  0
  180.3580  174.7770  139.5670 C   0  0  0  0  0  2  0  0  0  0  0  0
  180.9100  177.9200  137.4030 O   0  0  0  0  0  0  0  0  0  0  0  0
  179.1160  175.8170  137.7190 O   0  0  0  0  0  0  0  0  0  0  0  0
  178.9310  173.1740  137.8470 S   0  0  0  0  0  0  0  0  0  0  0  0
  179.0770  172.8590  135.1490 C   0  0  0  0  0  1  0  0  0  0  0  0
  178.9590  173.9490  136.2020 C   0  0  0  0  0  2  0  0  0  0  0  0
  183.1980  177.3430  139.3750 C   0  0  0  0  0  2  0  0  0  0  0  0
  183.0000  177.7870  140.8160 C   0  0  0  0  0  2  0  0  0  0  0  0
  184.3010  178.3360  141.3930 C   0  0  1  0  0  3  0  0  0  0  0  0
  185.0660  178.9940  140.3470 N   0  0  0  0  0  1  0  0  0  0  0  0
  184.0550  179.2920  142.5640 C   0  0  0  0  0  2  0  0  0  0  0  0
  184.1010  178.5810  143.8360 N   0  0  0  0  0  1  0  0  0  0  0  0
  186.3970  176.9550  137.2210 C   0  0  0  0  0  2  0  0  0  0  0  0
  185.2020  176.7640  136.4740 O   0  0  0  0  0  0  0  0  0  0  0  0
  185.9090  178.2690  134.7290 O   0  0  0  0  0  1  0  0  0  0  0  0
  184.9460  177.4270  135.2720 C   0  0  0  0  0  0  0  0  0  0  0  0
  183.8500  177.2670  134.6680 O   0  0  0  0  0  0  0  0  0  0  0  0
  191.3780  175.9490  139.4690 N   0  0  0  0  0  2  0  0  0  0  0  0
  190.9330  176.9110  140.4820 C   0  0  2  0  0  0  0  0  0  0  0  0
  189.0560  176.4640  143.8290 C   0  0  0  0  0  2  0  0  0  0  0  0
  188.8240  178.2320  140.6370 C   0  0  0  0  0  3  0  0  0  0  0  0
  192.0790  177.8570  140.8430 C   0  0  0  0  0  1  0  0  0  0  0  0
  187.5700  178.0910  142.8190 C   0  0  0  0  0  2  0  0  0  0  0  0
  187.8300  177.3220  144.1090 C   0  0  0  0  0  2  0  0  0  0  0  0
  190.4320  176.1800  141.7430 C   0  0  0  0  0  2  0  0  0  0  0  0
  189.8150  177.7330  139.8880 C   0  0  0  0  0  3  0  0  0  0  0  0
  188.7870  177.9720  142.0470 N   0  0  0  0  0  0  0  0  0  0  0  0
  189.7970  177.1770  142.7190 C   0  0  1  0  0  3  0  0  0  0  0  0
  1 10  1  6  0  0  0
  2 48  1  1  0  0  0
  2  1  1  0  0  0  0
  4  3  1  6  0  0  0
  4  7  1  0  0  0  0
  5 15  1  0  0  0  0
  6  5  1  0  0  0  0
  6  1  1  0  0  0  0
  7 14  1  0  0  0  0
  8 13  1  0  0  0  0
  9  4  1  0  0  0  0
  9  2  1  0  0  0  0
 11  3  1  0  0  0  0
 11  8  2  0  0  0  0
 13 12  1  0  0  0  0
 13  7  2  0  0  0  0
 14  6  2  0  0  0  0
 15 10  1  0  0  0  0
 15 53  1  1  0  0  0
 16 17  1  0  0  0  0
 17 18  1  0  0  0  0
 19 22  1  0  0  0  0
 19 20  1  0  0  0  0
 20 21  1  0  0  0  0
 21  5  1  1  0  0  0
 21 23  1  0  0  0  0
 22 16  1  0  0  0  0
 23 18  1  0  0  0  0
 24 11  1  0  0  0  0
 24 25  1  0  0  0  0
 25 27  1  0  0  0  0
 25 26  2  0  0  0  0
 27 28  1  0  0  0  0
 28 30  1  0  0  0  0
 29 27  2  0  0  0  0
 30 31  1  0  0  0  0
 31 42  1  6  0  0  0
 31 32  1  0  0  0  0
 34 39  1  6  0  0  0
 34 36  1  0  0  0  0
 35 37  2  6  0  0  0
 35 33  1  0  0  0  0
 35 32  1  0  0  0  0
 36 32  1  0  0  0  0
 38 35  1  0  0  0  0
 38 34  1  0  0  0  0
 40 41  1  0  0  0  0
 41 39  1  0  0  0  0
 42 43  1  0  0  0  0
 43 44  1  0  0  0  0
 44 45  1  6  0  0  0
 44 46  1  0  0  0  0
 46 47  1  0  0  0  0
 49 48  1  0  0  0  0
 50 51  1  0  0  0  0
 51 49  1  0  0  0  0
 52 51  2  0  0  0  0
 53 54  1  0  0  0  0
 54 57  1  1  0  0  0
 54 60  1  0  0  0  0
 55 59  1  0  0  0  0
 56 62  1  0  0  0  0
 58 59  1  0  0  0  0
 61 54  1  0  0  0  0
 61 56  2  0  0  0  0
 62 63  1  0  0  0  0
 62 58  1  0  0  0  0
 63 60  1  6  0  0  0
 63 55  1  0  0  0  0
M  END
>  <MODEL>
9

>  <REMARK>
 VINA RESULT:      -4.3      3.263      8.393
  Name = 
  18 active torsions:
  status: ('A' for Active; 'I' for Inactive)
    1  A    between atoms: C_3  and  C_11
    2  A    between atoms: S_5  and  C_28
    3  A    between atoms: S_5  and  C_50
    4  A    between atoms: C_7  and  N_9
    5  A    between atoms: C_8  and  C_36
    6  A    between atoms: C_8  and  C_63
    7  A    between atoms: N_9  and  C_59
    8  A    between atoms: C_11  and  O_13
    9  A    between atoms: N_12  and  C_43
   10  A    between atoms: O_13  and  C_38
   11  A    between atoms: N_16  and  C_46
   12  A    between atoms: C_18  and  C_29
   13  A    between atoms: C_18  and  C_45
   14  A    between atoms: C_19  and  C_29
   15  A    between atoms: N_32  and  N_56
   16  A    between atoms: C_43  and  C_47
   17  A    between atoms: C_43  and  N_56
   18  A    between atoms: C_47  and  C_63
                            x       y       z     vdW  Elec       q    Type
                         _______ _______ _______ _____ _____    ______ ____

>  <TORSDO>
F 18

$$$$
