=
 OpenBabel10222419423D

 36 41  0  0  1  0  0  0  0  0999 V2000
  184.2840  177.7140  140.0850 C   0  0  0  0  0  1  0  0  0  0  0  0
  185.1230  178.5880  141.0040 C   0  0  2  0  0  0  0  0  0  0  0  0
  190.3540  177.0090  141.5460 O   0  0  0  0  0  0  0  0  0  0  0  0
  186.5560  178.1940  140.9510 C   0  0  0  0  0  0  0  0  0  0  0  0
  187.4360  178.2440  139.8750 C   0  0  0  0  0  3  0  0  0  0  0  0
  184.8240  178.3250  142.4630 C   0  0  0  0  0  0  0  0  0  0  0  0
  188.7580  177.8100  140.0740 C   0  0  0  0  0  0  0  0  0  0  0  0
  186.9740  177.7520  142.1770 C   0  0  0  0  0  0  0  0  0  0  0  0
  188.2630  177.3480  142.4030 N   0  0  0  0  0  0  0  0  0  0  0  0
  184.9620  179.9390  140.6900 O   0  0  0  0  0  1  0  0  0  0  0  0
  185.8730  177.8410  143.1280 C   0  0  0  0  0  3  0  0  0  0  0  0
  189.1600  177.3770  141.3610 C   0  0  0  0  0  0  0  0  0  0  0  0
  189.5860  177.3870  146.8520 C   0  0  2  0  0  3  0  0  0  0  0  0
  190.7250  176.4790  144.9490 N   0  0  0  0  0  2  0  0  0  0  0  0
  188.7920  178.2970  148.7440 C   0  0  0  0  0  3  0  0  0  0  0  0
  188.7120  176.8550  143.7150 C   0  0  1  0  0  3  0  0  0  0  0  0
  190.0920  176.2380  143.6590 C   0  0  0  0  0  2  0  0  0  0  0  0
  189.9690  178.0790  147.9110 C   0  0  0  0  0  3  0  0  0  0  0  0
  188.8080  177.9610  144.7360 C   0  0  2  0  0  3  0  0  0  0  0  0
  187.7250  177.8200  148.1160 C   0  0  0  0  0  2  0  0  0  0  0  0
  190.0960  177.6730  145.5070 C   0  0  1  0  0  3  0  0  0  0  0  0
  188.1400  177.1690  146.8390 C   0  0  1  0  0  3  0  0  0  0  0  0
  187.6650  177.8900  145.6620 N   0  0  0  0  0  2  0  0  0  0  0  0
  189.1590  178.4940  137.7160 C   0  0  0  0  0  2  0  0  0  0  0  0
  189.7580  177.8570  138.9500 C   0  0  2  0  0  3  0  0  0  0  0  0
  189.7290  177.8070  136.5690 N   0  0  0  0  0  0  0  0  0  0  0  0
  190.2180  176.4840  138.5060 C   0  0  0  0  0  2  0  0  0  0  0  0
  189.9410  176.4380  137.0170 C   0  0  0  0  0  2  0  0  0  0  0  0
  188.7090  177.7730  135.5350 C   0  0  0  0  0  2  0  0  0  0  0  0
  187.4070  178.3160  136.0990 C   0  0  0  0  0  2  0  0  0  0  0  0
  186.3280  177.2970  135.9860 C   0  0  0  0  0  0  0  0  0  0  0  0
  186.2220  176.3970  136.8600 O   0  0  0  0  0  1  0  0  0  0  0  0
  185.4380  177.3360  134.9180 O   0  0  0  0  0  0  0  0  0  0  0  0
  183.6050  178.5710  143.1040 O   0  0  0  0  0  0  0  0  0  0  0  0
  183.4580  179.5200  144.1510 C   0  0  0  0  0  2  0  0  0  0  0  0
  183.7900  178.8770  145.4840 C   0  0  0  0  0  1  0  0  0  0  0  0
  2  1  1  6  0  0  0
  2  6  1  0  0  0  0
  4  2  1  0  0  0  0
  4  8  2  0  0  0  0
  5  7  2  0  0  0  0
  5  4  1  0  0  0  0
  6 34  1  0  0  0  0
  6 11  2  0  0  0  0
  7 12  1  0  0  0  0
  8  9  1  0  0  0  0
  8 11  1  0  0  0  0
 10  2  1  0  0  0  0
 12  3  2  0  0  0  0
 12  9  1  0  0  0  0
 13 18  1  1  0  0  0
 16  9  1  6  0  0  0
 16 19  1  0  0  0  0
 17 16  1  0  0  0  0
 17 14  1  0  0  0  0
 18 15  2  0  0  0  0
 19 21  1  0  0  0  0
 19 23  1  1  0  0  0
 20 15  1  0  0  0  0
 21 14  1  6  0  0  0
 21 13  1  0  0  0  0
 22 13  1  0  0  0  0
 22 20  1  1  0  0  0
 23 22  1  0  0  0  0
 24 25  1  0  0  0  0
 25  7  1  1  0  0  0
 26 28  1  0  0  0  0
 26 24  1  0  0  0  0
 27 25  1  0  0  0  0
 28 27  1  0  0  0  0
 29 30  1  0  0  0  0
 29 26  1  0  0  0  0
 31 30  1  0  0  0  0
 31 32  1  0  0  0  0
 33 31  2  0  0  0  0
 34 35  1  0  0  0  0
 35 36  1  0  0  0  0
M  END
>  <MODEL>
1

>  <REMARK>
 VINA RESULT:      -8.5      0.000      0.000
  Name = 
  7 active torsions:
  status: ('A' for Active; 'I' for Inactive)
    1  A    between atoms: C_2  and  C_23
    2  A    between atoms: C_7  and  C_15
    3  A    between atoms: C_7  and  C_19
    4  A    between atoms: N_8  and  C_15
    5  A    between atoms: O_14  and  C_16
    6  A    between atoms: O_14  and  C_21
    7  A    between atoms: C_17  and  N_27
                            x       y       z     vdW  Elec       q    Type
                         _______ _______ _______ _____ _____    ______ ____

>  <TORSDO>
F 7

$$$$
=
 OpenBabel10222419423D

 36 41  0  0  1  0  0  0  0  0999 V2000
  189.6340  176.5280  143.2890 C   0  0  0  0  0  1  0  0  0  0  0  0
  189.8030  177.6880  142.3220 C   0  0  2  0  0  0  0  0  0  0  0  0
  185.3520  178.8600  139.3280 O   0  0  0  0  0  0  0  0  0  0  0  0
  188.5050  178.0450  141.6890 C   0  0  0  0  0  0  0  0  0  0  0  0
  187.3470  178.5320  142.2850 C   0  0  0  0  0  3  0  0  0  0  0  0
  190.6020  177.2950  141.0990 C   0  0  0  0  0  0  0  0  0  0  0  0
  186.2360  178.7970  141.4660 C   0  0  0  0  0  0  0  0  0  0  0  0
  188.5670  177.8480  140.3350 C   0  0  0  0  0  0  0  0  0  0  0  0
  187.5070  178.1230  139.5130 N   0  0  0  0  0  0  0  0  0  0  0  0
  190.3690  178.7920  142.9630 O   0  0  0  0  0  1  0  0  0  0  0  0
  189.8960  177.3760  139.9710 C   0  0  0  0  0  3  0  0  0  0  0  0
  186.3420  178.6000  140.0670 C   0  0  0  0  0  0  0  0  0  0  0  0
  188.1480  175.9450  135.4640 C   0  0  2  0  0  3  0  0  0  0  0  0
  189.1040  178.0020  136.2370 N   0  0  0  0  0  2  0  0  0  0  0  0
  187.5110  173.9770  134.5940 C   0  0  0  0  0  3  0  0  0  0  0  0
  187.5610  177.8960  138.0600 C   0  0  1  0  0  3  0  0  0  0  0  0
  188.6030  178.7550  137.3790 C   0  0  0  0  0  2  0  0  0  0  0  0
  188.6180  174.9010  134.8040 C   0  0  0  0  0  3  0  0  0  0  0  0
  187.9290  176.4730  137.7190 C   0  0  2  0  0  3  0  0  0  0  0  0
  186.4350  174.4440  135.2150 C   0  0  0  0  0  2  0  0  0  0  0  0
  188.9010  176.5890  136.5450 C   0  0  1  0  0  3  0  0  0  0  0  0
  186.7410  175.7720  135.8240 C   0  0  1  0  0  3  0  0  0  0  0  0
  186.7310  175.7360  137.2820 N   0  0  0  0  0  2  0  0  0  0  0  0
  185.1390  179.6730  143.5190 C   0  0  0  0  0  2  0  0  0  0  0  0
  184.9620  179.3400  142.0540 C   0  0  2  0  0  3  0  0  0  0  0  0
  183.8770  179.3680  144.1750 N   0  0  0  0  0  0  0  0  0  0  0  0
  183.8160  178.3520  142.0050 C   0  0  0  0  0  2  0  0  0  0  0  0
  183.3340  178.2370  143.4370 C   0  0  0  0  0  2  0  0  0  0  0  0
  184.1890  178.9040  145.5160 C   0  0  0  0  0  2  0  0  0  0  0  0
  185.5900  179.3560  145.8880 C   0  0  0  0  0  2  0  0  0  0  0  0
  186.4220  178.1870  146.2870 C   0  0  0  0  0  0  0  0  0  0  0  0
  187.0660  178.2160  147.3690 O   0  0  0  0  0  1  0  0  0  0  0  0
  186.4910  177.0650  145.4690 O   0  0  0  0  0  0  0  0  0  0  0  0
  191.9450  176.9050  141.0930 O   0  0  0  0  0  0  0  0  0  0  0  0
  192.9270  177.5230  140.2710 C   0  0  0  0  0  2  0  0  0  0  0  0
  193.1910  176.6680  139.0470 C   0  0  0  0  0  1  0  0  0  0  0  0
  2 10  1  0  0  0  0
  2  1  1  1  0  0  0
  3 12  2  0  0  0  0
  4  5  1  0  0  0  0
  4  2  1  0  0  0  0
  6  2  1  0  0  0  0
  7  5  2  0  0  0  0
  8  4  2  0  0  0  0
  9 12  1  0  0  0  0
  9  8  1  0  0  0  0
 11  8  1  0  0  0  0
 11  6  2  0  0  0  0
 12  7  1  0  0  0  0
 13 18  1  1  0  0  0
 13 22  1  0  0  0  0
 13 21  1  0  0  0  0
 14 17  1  0  0  0  0
 15 18  2  0  0  0  0
 15 20  1  0  0  0  0
 16 17  1  6  0  0  0
 16  9  1  0  0  0  0
 19 23  1  6  0  0  0
 19 16  1  0  0  0  0
 21 14  1  6  0  0  0
 21 19  1  0  0  0  0
 22 20  1  6  0  0  0
 22 23  1  0  0  0  0
 24 26  1  0  0  0  0
 25  7  1  1  0  0  0
 25 24  1  0  0  0  0
 26 29  1  0  0  0  0
 27 25  1  0  0  0  0
 27 28  1  0  0  0  0
 28 26  1  0  0  0  0
 29 30  1  0  0  0  0
 30 31  1  0  0  0  0
 31 32  1  0  0  0  0
 33 31  2  0  0  0  0
 34  6  1  0  0  0  0
 35 34  1  0  0  0  0
 36 35  1  0  0  0  0
M  END
>  <MODEL>
2

>  <REMARK>
 VINA RESULT:      -8.3      2.469      8.596
  Name = 
  7 active torsions:
  status: ('A' for Active; 'I' for Inactive)
    1  A    between atoms: C_2  and  C_23
    2  A    between atoms: C_7  and  C_15
    3  A    between atoms: C_7  and  C_19
    4  A    between atoms: N_8  and  C_15
    5  A    between atoms: O_14  and  C_16
    6  A    between atoms: O_14  and  C_21
    7  A    between atoms: C_17  and  N_27
                            x       y       z     vdW  Elec       q    Type
                         _______ _______ _______ _____ _____    ______ ____

>  <TORSDO>
F 7

$$$$
=
 OpenBabel10222419423D

 36 41  0  0  1  0  0  0  0  0999 V2000
  191.6460  177.2560  143.1080 C   0  0  0  0  0  1  0  0  0  0  0  0
  190.2990  176.5760  142.9240 C   0  0  2  0  0  0  0  0  0  0  0  0
  187.2750  178.5330  138.7780 O   0  0  0  0  0  0  0  0  0  0  0  0
  189.6320  177.0450  141.6790 C   0  0  0  0  0  0  0  0  0  0  0  0
  190.0420  176.8960  140.3590 C   0  0  0  0  0  3  0  0  0  0  0  0
  189.2900  177.0260  143.9570 C   0  0  0  0  0  0  0  0  0  0  0  0
  189.2320  177.4340  139.3440 C   0  0  0  0  0  0  0  0  0  0  0  0
  188.4590  177.6830  141.9800 C   0  0  0  0  0  0  0  0  0  0  0  0
  187.6390  178.1940  141.0090 N   0  0  0  0  0  0  0  0  0  0  0  0
  190.4380  175.1870  142.9240 O   0  0  0  0  0  1  0  0  0  0  0  0
  188.2490  177.6640  143.4220 C   0  0  0  0  0  3  0  0  0  0  0  0
  188.0150  178.0710  139.6910 C   0  0  0  0  0  0  0  0  0  0  0  0
  183.3990  178.9750  142.7260 C   0  0  2  0  0  3  0  0  0  0  0  0
  184.1750  179.1970  140.4700 N   0  0  0  0  0  2  0  0  0  0  0  0
  182.4080  178.6880  144.7200 C   0  0  0  0  0  3  0  0  0  0  0  0
  186.3860  178.8960  141.3270 C   0  0  1  0  0  3  0  0  0  0  0  0
  185.5810  179.2330  140.0920 C   0  0  0  0  0  2  0  0  0  0  0  0
  182.2970  178.4970  143.2790 C   0  0  0  0  0  3  0  0  0  0  0  0
  185.4690  178.0620  142.1880 C   0  0  2  0  0  3  0  0  0  0  0  0
  183.6070  179.1820  144.9980 C   0  0  0  0  0  2  0  0  0  0  0  0
  184.0720  178.2960  141.6150 C   0  0  1  0  0  3  0  0  0  0  0  0
  184.3570  179.4310  143.7320 C   0  0  1  0  0  3  0  0  0  0  0  0
  185.5080  178.5470  143.5790 N   0  0  0  0  0  2  0  0  0  0  0  0
  188.6850  176.3370  137.1800 C   0  0  0  0  0  2  0  0  0  0  0  0
  189.6180  177.2870  137.8970 C   0  0  2  0  0  3  0  0  0  0  0  0
  189.4860  175.6160  136.2040 N   0  0  0  0  0  0  0  0  0  0  0  0
  191.0030  176.7040  137.7070 C   0  0  0  0  0  2  0  0  0  0  0  0
  190.8030  175.4970  136.8140 C   0  0  0  0  0  2  0  0  0  0  0  0
  188.9340  174.2770  136.0970 C   0  0  0  0  0  2  0  0  0  0  0  0
  187.4870  174.2940  136.5590 C   0  0  0  0  0  2  0  0  0  0  0  0
  187.1120  172.9740  137.1360 C   0  0  0  0  0  0  0  0  0  0  0  0
  187.8290  171.9640  136.9080 O   0  0  0  0  0  0  0  0  0  0  0  0
  185.9730  172.8530  137.9250 O   0  0  0  0  0  1  0  0  0  0  0  0
  189.3780  176.8010  145.3350 O   0  0  0  0  0  0  0  0  0  0  0  0
  189.1340  177.8130  146.3020 C   0  0  0  0  0  2  0  0  0  0  0  0
  188.8500  177.1830  147.6520 C   0  0  0  0  0  1  0  0  0  0  0  0
  2 10  1  0  0  0  0
  2  1  1  1  0  0  0
  2  6  1  0  0  0  0
  3 12  2  0  0  0  0
  4  8  2  0  0  0  0
  4  2  1  0  0  0  0
  5  4  1  0  0  0  0
  6 34  1  0  0  0  0
  7 12  1  0  0  0  0
  7  5  2  0  0  0  0
  8 11  1  0  0  0  0
  9 16  1  0  0  0  0
  9  8  1  0  0  0  0
 11  6  2  0  0  0  0
 12  9  1  0  0  0  0
 13 18  1  1  0  0  0
 13 22  1  0  0  0  0
 15 20  1  0  0  0  0
 16 17  1  6  0  0  0
 16 19  1  0  0  0  0
 17 14  1  0  0  0  0
 18 15  2  0  0  0  0
 19 23  1  1  0  0  0
 21 14  1  6  0  0  0
 21 19  1  0  0  0  0
 21 13  1  0  0  0  0
 22 20  1  1  0  0  0
 23 22  1  0  0  0  0
 24 25  1  0  0  0  0
 25  7  1  1  0  0  0
 26 28  1  0  0  0  0
 26 24  1  0  0  0  0
 27 25  1  0  0  0  0
 28 27  1  0  0  0  0
 29 26  1  0  0  0  0
 29 30  1  0  0  0  0
 30 31  1  0  0  0  0
 31 33  1  0  0  0  0
 32 31  2  0  0  0  0
 34 35  1  0  0  0  0
 35 36  1  0  0  0  0
M  END
>  <MODEL>
3

>  <REMARK>
 VINA RESULT:      -8.2      2.208      5.070
  Name = 
  7 active torsions:
  status: ('A' for Active; 'I' for Inactive)
    1  A    between atoms: C_2  and  C_23
    2  A    between atoms: C_7  and  C_15
    3  A    between atoms: C_7  and  C_19
    4  A    between atoms: N_8  and  C_15
    5  A    between atoms: O_14  and  C_16
    6  A    between atoms: O_14  and  C_21
    7  A    between atoms: C_17  and  N_27
                            x       y       z     vdW  Elec       q    Type
                         _______ _______ _______ _____ _____    ______ ____

>  <TORSDO>
F 7

$$$$
=
 OpenBabel10222419423D

 36 41  0  0  1  0  0  0  0  0999 V2000
  181.6980  176.4520  139.3050 C   0  0  0  0  0  1  0  0  0  0  0  0
  182.1180  177.8850  139.5830 C   0  0  2  0  0  0  0  0  0  0  0  0
  187.5290  178.6300  140.1510 O   0  0  0  0  0  0  0  0  0  0  0  0
  183.6000  178.0220  139.5450 C   0  0  0  0  0  0  0  0  0  0  0  0
  184.4660  177.8310  138.4750 C   0  0  0  0  0  3  0  0  0  0  0  0
  181.8470  178.2870  141.0160 C   0  0  0  0  0  0  0  0  0  0  0  0
  185.8420  178.0210  138.6880 C   0  0  0  0  0  0  0  0  0  0  0  0
  184.0740  178.4050  140.7700 C   0  0  0  0  0  0  0  0  0  0  0  0
  185.4070  178.6210  140.9980 N   0  0  0  0  0  0  0  0  0  0  0  0
  181.5110  178.7660  138.6870 O   0  0  0  0  0  1  0  0  0  0  0  0
  182.9590  178.5730  141.6940 C   0  0  0  0  0  3  0  0  0  0  0  0
  186.2960  178.4360  139.9650 C   0  0  0  0  0  0  0  0  0  0  0  0
  186.9950  178.2510  145.3440 C   0  0  2  0  0  3  0  0  0  0  0  0
  185.1490  179.5370  144.5180 N   0  0  0  0  0  2  0  0  0  0  0  0
  188.5630  177.0150  146.3690 C   0  0  0  0  0  3  0  0  0  0  0  0
  185.9240  179.0160  142.3180 C   0  0  1  0  0  3  0  0  0  0  0  0
  184.9280  179.8330  143.1090 C   0  0  0  0  0  2  0  0  0  0  0  0
  187.1900  177.5020  146.4160 C   0  0  0  0  0  3  0  0  0  0  0  0
  186.2430  177.8230  143.1850 C   0  0  2  0  0  3  0  0  0  0  0  0
  189.1180  177.4000  145.2270 C   0  0  0  0  0  2  0  0  0  0  0  0
  185.7450  178.2050  144.5780 C   0  0  1  0  0  3  0  0  0  0  0  0
  188.1610  178.2520  144.4620 C   0  0  1  0  0  3  0  0  0  0  0  0
  187.7010  177.6140  143.2330 N   0  0  0  0  0  2  0  0  0  0  0  0
  187.9800  176.9630  137.9820 C   0  0  0  0  0  2  0  0  0  0  0  0
  186.8250  177.8450  137.5630 C   0  0  2  0  0  3  0  0  0  0  0  0
  189.1650  177.4760  137.3130 N   0  0  0  0  0  0  0  0  0  0  0  0
  187.4580  179.1470  137.1170 C   0  0  0  0  0  2  0  0  0  0  0  0
  188.9510  178.9130  137.2190 C   0  0  0  0  0  2  0  0  0  0  0  0
  190.2910  177.2610  138.2060 C   0  0  0  0  0  2  0  0  0  0  0  0
  189.8460  176.3980  139.3740 C   0  0  0  0  0  2  0  0  0  0  0  0
  190.6110  176.7520  140.6000 C   0  0  0  0  0  0  0  0  0  0  0  0
  190.3140  176.2160  141.7010 O   0  0  0  0  0  1  0  0  0  0  0  0
  191.6520  177.6720  140.5350 O   0  0  0  0  0  0  0  0  0  0  0  0
  180.5850  178.3900  141.6100 O   0  0  0  0  0  0  0  0  0  0  0  0
  180.3380  179.1650  142.7750 C   0  0  0  0  0  2  0  0  0  0  0  0
  180.0570  178.2540  143.9540 C   0  0  0  0  0  1  0  0  0  0  0  0
  2  1  1  6  0  0  0
  2  6  1  0  0  0  0
  4  2  1  0  0  0  0
  4  8  2  0  0  0  0
  5  7  2  0  0  0  0
  5  4  1  0  0  0  0
  6 34  1  0  0  0  0
  6 11  2  0  0  0  0
  7 12  1  0  0  0  0
  8  9  1  0  0  0  0
  8 11  1  0  0  0  0
 10  2  1  0  0  0  0
 12  3  2  0  0  0  0
 12  9  1  0  0  0  0
 13 18  1  1  0  0  0
 15 18  2  0  0  0  0
 16  9  1  6  0  0  0
 16 17  1  0  0  0  0
 16 19  1  0  0  0  0
 17 14  1  0  0  0  0
 19 23  1  1  0  0  0
 19 21  1  0  0  0  0
 20 15  1  0  0  0  0
 21 14  1  6  0  0  0
 21 13  1  0  0  0  0
 22 20  1  1  0  0  0
 22 13  1  0  0  0  0
 23 22  1  0  0  0  0
 25 24  1  0  0  0  0
 25  7  1  1  0  0  0
 26 24  1  0  0  0  0
 26 29  1  0  0  0  0
 27 28  1  0  0  0  0
 27 25  1  0  0  0  0
 28 26  1  0  0  0  0
 29 30  1  0  0  0  0
 30 31  1  0  0  0  0
 31 32  1  0  0  0  0
 33 31  2  0  0  0  0
 34 35  1  0  0  0  0
 35 36  1  0  0  0  0
M  END
>  <MODEL>
4

>  <REMARK>
 VINA RESULT:      -8.1      2.075      3.988
  Name = 
  7 active torsions:
  status: ('A' for Active; 'I' for Inactive)
    1  A    between atoms: C_2  and  C_23
    2  A    between atoms: C_7  and  C_15
    3  A    between atoms: C_7  and  C_19
    4  A    between atoms: N_8  and  C_15
    5  A    between atoms: O_14  and  C_16
    6  A    between atoms: O_14  and  C_21
    7  A    between atoms: C_17  and  N_27
                            x       y       z     vdW  Elec       q    Type
                         _______ _______ _______ _____ _____    ______ ____

>  <TORSDO>
F 7

$$$$
=
 OpenBabel10222419423D

 36 41  0  0  1  0  0  0  0  0999 V2000
  181.2990  176.5710  139.8690 C   0  0  0  0  0  1  0  0  0  0  0  0
  181.6870  178.0000  140.2120 C   0  0  2  0  0  0  0  0  0  0  0  0
  187.0950  178.9280  140.4430 O   0  0  0  0  0  0  0  0  0  0  0  0
  183.1560  178.1990  140.0770 C   0  0  0  0  0  0  0  0  0  0  0  0
  183.9480  178.1120  138.9380 C   0  0  0  0  0  3  0  0  0  0  0  0
  181.5070  178.2980  141.6840 C   0  0  0  0  0  0  0  0  0  0  0  0
  185.3280  178.3440  139.0660 C   0  0  0  0  0  0  0  0  0  0  0  0
  183.7040  178.5230  141.2890 C   0  0  0  0  0  0  0  0  0  0  0  0
  185.0420  178.7790  141.4360 N   0  0  0  0  0  0  0  0  0  0  0  0
  180.9840  178.9100  139.4210 O   0  0  0  0  0  1  0  0  0  0  0  0
  182.6550  178.5860  142.2980 C   0  0  0  0  0  3  0  0  0  0  0  0
  185.8590  178.6960  140.3320 C   0  0  0  0  0  0  0  0  0  0  0  0
  186.9180  178.1980  145.6410 C   0  0  2  0  0  3  0  0  0  0  0  0
  185.0040  179.4960  145.0110 N   0  0  0  0  0  2  0  0  0  0  0  0
  188.5660  176.9350  146.4910 C   0  0  0  0  0  3  0  0  0  0  0  0
  185.6400  179.1090  142.7390 C   0  0  1  0  0  3  0  0  0  0  0  0
  184.6870  179.8650  143.6380 C   0  0  0  0  0  2  0  0  0  0  0  0
  187.1940  177.3960  146.6550 C   0  0  0  0  0  3  0  0  0  0  0  0
  186.0310  177.8760  143.5150 C   0  0  2  0  0  3  0  0  0  0  0  0
  189.0400  177.3910  145.3390 C   0  0  0  0  0  2  0  0  0  0  0  0
  185.6210  178.1730  144.9570 C   0  0  1  0  0  3  0  0  0  0  0  0
  188.0230  178.2670  144.6870 C   0  0  1  0  0  3  0  0  0  0  0  0
  187.4910  177.6890  143.4570 N   0  0  0  0  0  2  0  0  0  0  0  0
  185.6210  177.4330  136.7700 C   0  0  0  0  0  2  0  0  0  0  0  0
  186.2310  178.2810  137.8640 C   0  0  2  0  0  3  0  0  0  0  0  0
  186.7180  176.7430  136.1110 N   0  0  0  0  0  0  0  0  0  0  0  0
  187.5720  177.6420  138.1620 C   0  0  0  0  0  2  0  0  0  0  0  0
  187.7010  176.5130  137.1590 C   0  0  0  0  0  2  0  0  0  0  0  0
  186.2200  175.4450  135.6900 C   0  0  0  0  0  2  0  0  0  0  0  0
  186.4060  174.4470  136.8190 C   0  0  0  0  0  2  0  0  0  0  0  0
  185.1150  173.7770  137.1360 C   0  0  0  0  0  0  0  0  0  0  0  0
  185.0810  172.8550  137.9930 O   0  0  0  0  0  1  0  0  0  0  0  0
  183.9470  174.1650  136.4890 O   0  0  0  0  0  0  0  0  0  0  0  0
  180.2890  178.3110  142.3710 O   0  0  0  0  0  0  0  0  0  0  0  0
  180.1940  178.5070  143.7750 C   0  0  0  0  0  2  0  0  0  0  0  0
  178.9450  179.3020  144.1040 C   0  0  0  0  0  1  0  0  0  0  0  0
  2  1  1  6  0  0  0
  2  6  1  0  0  0  0
  4  2  1  0  0  0  0
  4  8  2  0  0  0  0
  5  7  2  0  0  0  0
  5  4  1  0  0  0  0
  6 11  2  0  0  0  0
  6 34  1  0  0  0  0
  7 12  1  0  0  0  0
  8  9  1  0  0  0  0
  8 11  1  0  0  0  0
 10  2  1  0  0  0  0
 12  3  2  0  0  0  0
 12  9  1  0  0  0  0
 13 18  1  6  0  0  0
 15 18  2  0  0  0  0
 16  9  1  6  0  0  0
 16 19  1  0  0  0  0
 16 17  1  0  0  0  0
 17 14  1  0  0  0  0
 19 23  1  1  0  0  0
 19 21  1  0  0  0  0
 20 15  1  0  0  0  0
 21 14  1  6  0  0  0
 21 13  1  0  0  0  0
 22 20  1  1  0  0  0
 22 13  1  0  0  0  0
 23 22  1  0  0  0  0
 24 25  1  0  0  0  0
 25 27  1  0  0  0  0
 25  7  1  1  0  0  0
 26 24  1  0  0  0  0
 26 28  1  0  0  0  0
 28 27  1  0  0  0  0
 29 26  1  0  0  0  0
 29 30  1  0  0  0  0
 30 31  1  0  0  0  0
 31 32  1  0  0  0  0
 33 31  2  0  0  0  0
 34 35  1  0  0  0  0
 35 36  1  0  0  0  0
M  END
>  <MODEL>
5

>  <REMARK>
 VINA RESULT:      -8.0      2.497      3.757
  Name = 
  7 active torsions:
  status: ('A' for Active; 'I' for Inactive)
    1  A    between atoms: C_2  and  C_23
    2  A    between atoms: C_7  and  C_15
    3  A    between atoms: C_7  and  C_19
    4  A    between atoms: N_8  and  C_15
    5  A    between atoms: O_14  and  C_16
    6  A    between atoms: O_14  and  C_21
    7  A    between atoms: C_17  and  N_27
                            x       y       z     vdW  Elec       q    Type
                         _______ _______ _______ _____ _____    ______ ____

>  <TORSDO>
F 7

$$$$
=
 OpenBabel10222419423D

 36 41  0  0  1  0  0  0  0  0999 V2000
  191.6980  177.6730  142.1840 C   0  0  0  0  0  1  0  0  0  0  0  0
  190.3730  176.9550  142.3730 C   0  0  2  0  0  0  0  0  0  0  0  0
  186.5570  178.1250  138.6020 O   0  0  0  0  0  0  0  0  0  0  0  0
  189.4680  177.1930  141.2160 C   0  0  0  0  0  0  0  0  0  0  0  0
  189.6360  176.8210  139.8860 C   0  0  0  0  0  3  0  0  0  0  0  0
  189.5510  177.5650  143.4880 C   0  0  0  0  0  0  0  0  0  0  0  0
  188.6310  177.1650  138.9660 C   0  0  0  0  0  0  0  0  0  0  0  0
  188.3430  177.8590  141.6200 C   0  0  0  0  0  0  0  0  0  0  0  0
  187.3380  178.1820  140.7480 N   0  0  0  0  0  0  0  0  0  0  0  0
  190.5710  175.5890  142.5810 O   0  0  0  0  0  1  0  0  0  0  0  0
  188.4020  178.0880  143.0580 C   0  0  0  0  0  3  0  0  0  0  0  0
  187.4710  177.8370  139.4230 C   0  0  0  0  0  0  0  0  0  0  0  0
  183.2150  179.0190  142.7090 C   0  0  2  0  0  3  0  0  0  0  0  0
  183.9060  179.3760  140.4420 N   0  0  0  0  0  2  0  0  0  0  0  0
  182.2960  178.6270  144.7190 C   0  0  0  0  0  3  0  0  0  0  0  0
  186.1340  178.9140  141.1740 C   0  0  1  0  0  3  0  0  0  0  0  0
  185.2950  179.3790  140.0050 C   0  0  0  0  0  2  0  0  0  0  0  0
  182.1160  178.5500  143.2750 C   0  0  0  0  0  3  0  0  0  0  0  0
  185.2150  178.0590  142.0120 C   0  0  2  0  0  3  0  0  0  0  0  0
  183.5280  179.0450  144.9780 C   0  0  0  0  0  2  0  0  0  0  0  0
  183.8080  178.3970  141.5210 C   0  0  1  0  0  3  0  0  0  0  0  0
  184.2350  179.3550  143.7010 C   0  0  1  0  0  3  0  0  0  0  0  0
  185.3350  178.4350  143.4310 N   0  0  0  0  0  2  0  0  0  0  0  0
  189.6610  175.5770  137.3520 C   0  0  0  0  0  2  0  0  0  0  0  0
  188.7510  176.7740  137.5180 C   0  0  2  0  0  3  0  0  0  0  0  0
  190.3760  175.7630  136.1000 N   0  0  0  0  0  0  0  0  0  0  0  0
  189.3620  177.8610  136.6580 C   0  0  0  0  0  2  0  0  0  0  0  0
  190.5410  177.2030  135.9710 C   0  0  0  0  0  2  0  0  0  0  0  0
  191.6990  175.1870  136.2690 C   0  0  0  0  0  2  0  0  0  0  0  0
  192.1070  175.2910  137.7280 C   0  0  0  0  0  2  0  0  0  0  0  0
  193.2600  176.2200  137.8790 C   0  0  0  0  0  0  0  0  0  0  0  0
  194.0670  176.3770  136.9260 O   0  0  0  0  0  0  0  0  0  0  0  0
  193.4470  176.9160  139.0690 O   0  0  0  0  0  1  0  0  0  0  0  0
  189.9000  177.5840  144.8420 O   0  0  0  0  0  0  0  0  0  0  0  0
  189.0460  177.0960  145.8680 C   0  0  0  0  0  2  0  0  0  0  0  0
  189.2720  177.8780  147.1470 C   0  0  0  0  0  1  0  0  0  0  0  0
  2  1  1  6  0  0  0
  2 10  1  0  0  0  0
  2  6  1  0  0  0  0
  3 12  2  0  0  0  0
  4  8  2  0  0  0  0
  4  2  1  0  0  0  0
  5  4  1  0  0  0  0
  6 34  1  0  0  0  0
  7 12  1  0  0  0  0
  7  5  2  0  0  0  0
  8 11  1  0  0  0  0
  9 16  1  0  0  0  0
  9  8  1  0  0  0  0
 11  6  2  0  0  0  0
 12  9  1  0  0  0  0
 13 18  1  1  0  0  0
 13 22  1  0  0  0  0
 15 20  1  0  0  0  0
 16 17  1  6  0  0  0
 16 19  1  0  0  0  0
 17 14  1  0  0  0  0
 18 15  2  0  0  0  0
 19 23  1  1  0  0  0
 21 14  1  6  0  0  0
 21 19  1  0  0  0  0
 21 13  1  0  0  0  0
 22 20  1  1  0  0  0
 23 22  1  0  0  0  0
 24 25  1  0  0  0  0
 25  7  1  1  0  0  0
 26 29  1  0  0  0  0
 26 24  1  0  0  0  0
 27 25  1  0  0  0  0
 28 26  1  0  0  0  0
 28 27  1  0  0  0  0
 29 30  1  0  0  0  0
 30 31  1  0  0  0  0
 31 33  1  0  0  0  0
 32 31  2  0  0  0  0
 34 35  1  0  0  0  0
 35 36  1  0  0  0  0
M  END
>  <MODEL>
6

>  <REMARK>
 VINA RESULT:      -8.0      2.229      5.548
  Name = 
  7 active torsions:
  status: ('A' for Active; 'I' for Inactive)
    1  A    between atoms: C_2  and  C_23
    2  A    between atoms: C_7  and  C_15
    3  A    between atoms: C_7  and  C_19
    4  A    between atoms: N_8  and  C_15
    5  A    between atoms: O_14  and  C_16
    6  A    between atoms: O_14  and  C_21
    7  A    between atoms: C_17  and  N_27
                            x       y       z     vdW  Elec       q    Type
                         _______ _______ _______ _____ _____    ______ ____

>  <TORSDO>
F 7

$$$$
=
 OpenBabel10222419423D

 36 41  0  0  1  0  0  0  0  0999 V2000
  188.6000  176.5550  142.4590 C   0  0  0  0  0  1  0  0  0  0  0  0
  189.4460  177.5070  141.6300 C   0  0  2  0  0  0  0  0  0  0  0  0
  189.2560  176.6360  136.2110 O   0  0  0  0  0  0  0  0  0  0  0  0
  189.1950  177.3130  140.1760 C   0  0  0  0  0  0  0  0  0  0  0  0
  188.0210  177.5120  139.4580 C   0  0  0  0  0  3  0  0  0  0  0  0
  190.9180  177.1650  141.6990 C   0  0  0  0  0  0  0  0  0  0  0  0
  188.0330  177.2550  138.0760 C   0  0  0  0  0  0  0  0  0  0  0  0
  190.3380  176.8960  139.5490 C   0  0  0  0  0  0  0  0  0  0  0  0
  190.3820  176.6640  138.1990 N   0  0  0  0  0  0  0  0  0  0  0  0
  189.2170  178.8320  142.0050 O   0  0  0  0  0  1  0  0  0  0  0  0
  191.4230  176.8080  140.5180 C   0  0  0  0  0  3  0  0  0  0  0  0
  189.2390  176.8440  137.4570 C   0  0  0  0  0  0  0  0  0  0  0  0
  193.7310  173.8030  136.7350 C   0  0  2  0  0  3  0  0  0  0  0  0
  193.9300  175.8580  137.9510 N   0  0  0  0  0  2  0  0  0  0  0  0
  193.7880  171.7890  135.7460 C   0  0  0  0  0  3  0  0  0  0  0  0
  191.6030  176.1990  137.5220 C   0  0  1  0  0  3  0  0  0  0  0  0
  192.8550  176.8310  138.0870 C   0  0  0  0  0  2  0  0  0  0  0  0
  194.3250  172.6240  136.8120 C   0  0  0  0  0  3  0  0  0  0  0  0
  191.8040  174.7100  137.6700 C   0  0  2  0  0  3  0  0  0  0  0  0
  192.8220  172.4510  135.1240 C   0  0  0  0  0  2  0  0  0  0  0  0
  193.3010  174.5400  137.9270 C   0  0  1  0  0  3  0  0  0  0  0  0
  192.7040  173.8250  135.6940 C   0  0  1  0  0  3  0  0  0  0  0  0
  191.4500  174.0290  136.4120 N   0  0  0  0  0  2  0  0  0  0  0  0
  185.8210  178.3850  137.9520 C   0  0  0  0  0  2  0  0  0  0  0  0
  186.7970  177.4700  137.2460 C   0  0  2  0  0  3  0  0  0  0  0  0
  184.4860  177.9150  137.6170 N   0  0  0  0  0  0  0  0  0  0  0  0
  186.0270  176.1920  136.9850 C   0  0  0  0  0  2  0  0  0  0  0  0
  184.6210  176.4720  137.4740 C   0  0  0  0  0  2  0  0  0  0  0  0
  183.6400  178.1600  138.7730 C   0  0  0  0  0  2  0  0  0  0  0  0
  184.2000  179.3300  139.5630 C   0  0  0  0  0  2  0  0  0  0  0  0
  184.5600  178.9000  140.9410 C   0  0  0  0  0  0  0  0  0  0  0  0
  183.9540  177.9330  141.4740 O   0  0  0  0  0  0  0  0  0  0  0  0
  185.5620  179.5610  141.6420 O   0  0  0  0  0  1  0  0  0  0  0  0
  191.7160  177.2240  142.8450 O   0  0  0  0  0  0  0  0  0  0  0  0
  191.6950  176.2260  143.8570 C   0  0  0  0  0  2  0  0  0  0  0  0
  191.3470  176.8510  145.1940 C   0  0  0  0  0  1  0  0  0  0  0  0
  2  6  1  0  0  0  0
  2 10  1  0  0  0  0
  2  1  1  1  0  0  0
  3 12  2  0  0  0  0
  4  2  1  0  0  0  0
  5  4  1  0  0  0  0
  6 34  1  0  0  0  0
  7  5  2  0  0  0  0
  8  4  2  0  0  0  0
  8 11  1  0  0  0  0
  9  8  1  0  0  0  0
 11  6  2  0  0  0  0
 12  7  1  0  0  0  0
 12  9  1  0  0  0  0
 13 18  1  1  0  0  0
 13 21  1  0  0  0  0
 14 17  1  0  0  0  0
 15 18  2  0  0  0  0
 16 19  1  0  0  0  0
 16 17  1  1  0  0  0
 16  9  1  0  0  0  0
 19 23  1  6  0  0  0
 19 21  1  0  0  0  0
 20 15  1  0  0  0  0
 21 14  1  6  0  0  0
 22 20  1  1  0  0  0
 22 23  1  0  0  0  0
 22 13  1  0  0  0  0
 25 24  1  0  0  0  0
 25  7  1  1  0  0  0
 26 24  1  0  0  0  0
 26 29  1  0  0  0  0
 27 25  1  0  0  0  0
 27 28  1  0  0  0  0
 28 26  1  0  0  0  0
 29 30  1  0  0  0  0
 30 31  1  0  0  0  0
 31 32  2  0  0  0  0
 31 33  1  0  0  0  0
 34 35  1  0  0  0  0
 35 36  1  0  0  0  0
M  END
>  <MODEL>
7

>  <REMARK>
 VINA RESULT:      -7.8      3.035      7.547
  Name = 
  7 active torsions:
  status: ('A' for Active; 'I' for Inactive)
    1  A    between atoms: C_2  and  C_23
    2  A    between atoms: C_7  and  C_15
    3  A    between atoms: C_7  and  C_19
    4  A    between atoms: N_8  and  C_15
    5  A    between atoms: O_14  and  C_16
    6  A    between atoms: O_14  and  C_21
    7  A    between atoms: C_17  and  N_27
                            x       y       z     vdW  Elec       q    Type
                         _______ _______ _______ _____ _____    ______ ____

>  <TORSDO>
F 7

$$$$
=
 OpenBabel10222419423D

 36 41  0  0  1  0  0  0  0  0999 V2000
  187.5910  178.8260  136.7690 C   0  0  0  0  0  1  0  0  0  0  0  0
  187.5240  177.8230  137.9080 C   0  0  2  0  0  0  0  0  0  0  0  0
  183.4410  178.6640  141.4840 O   0  0  0  0  0  0  0  0  0  0  0  0
  186.2920  178.0200  138.7200 C   0  0  0  0  0  0  0  0  0  0  0  0
  184.9630  177.8810  138.3360 C   0  0  0  0  0  3  0  0  0  0  0  0
  188.5830  178.0840  138.9570 C   0  0  0  0  0  0  0  0  0  0  0  0
  183.9630  178.1270  139.2940 C   0  0  0  0  0  0  0  0  0  0  0  0
  186.6180  178.3690  140.0020 C   0  0  0  0  0  0  0  0  0  0  0  0
  185.6650  178.5880  140.9600 N   0  0  0  0  0  0  0  0  0  0  0  0
  187.6010  176.5150  137.4260 O   0  0  0  0  0  1  0  0  0  0  0  0
  188.0680  178.4040  140.1450 C   0  0  0  0  0  3  0  0  0  0  0  0
  184.3380  178.4660  140.6170 C   0  0  0  0  0  0  0  0  0  0  0  0
  186.7390  178.2040  145.4600 C   0  0  2  0  0  3  0  0  0  0  0  0
  184.9630  179.4440  144.4350 N   0  0  0  0  0  2  0  0  0  0  0  0
  188.2150  177.0030  146.6500 C   0  0  0  0  0  3  0  0  0  0  0  0
  186.0090  178.9800  142.3360 C   0  0  1  0  0  3  0  0  0  0  0  0
  184.9000  179.7540  143.0130 C   0  0  0  0  0  2  0  0  0  0  0  0
  186.8320  177.4470  146.5390 C   0  0  0  0  0  3  0  0  0  0  0  0
  186.2620  177.7850  143.2220 C   0  0  2  0  0  3  0  0  0  0  0  0
  188.8890  177.4220  145.5860 C   0  0  0  0  0  2  0  0  0  0  0  0
  185.5910  178.1310  144.5510 C   0  0  1  0  0  3  0  0  0  0  0  0
  188.0010  178.2550  144.7220 C   0  0  1  0  0  3  0  0  0  0  0  0
  187.7100  177.6200  143.4410 N   0  0  0  0  0  2  0  0  0  0  0  0
  181.6680  179.0210  139.6360 C   0  0  0  0  0  2  0  0  0  0  0  0
  182.5090  177.9750  138.9400 C   0  0  2  0  0  3  0  0  0  0  0  0
  180.3980  178.3920  139.9630 N   0  0  0  0  0  0  0  0  0  0  0  0
  181.9280  176.6450  139.3720 C   0  0  0  0  0  2  0  0  0  0  0  0
  180.7260  176.9980  140.2240 C   0  0  0  0  0  2  0  0  0  0  0  0
  179.9380  178.9730  141.2130 C   0  0  0  0  0  2  0  0  0  0  0  0
  179.8360  177.8800  142.2630 C   0  0  0  0  0  2  0  0  0  0  0  0
  180.0520  178.4480  143.6230 C   0  0  0  0  0  0  0  0  0  0  0  0
  181.2230  178.6360  144.0450 O   0  0  0  0  0  0  0  0  0  0  0  0
  178.9640  178.7710  144.4270 O   0  0  0  0  0  1  0  0  0  0  0  0
  189.9640  177.9890  138.7620 O   0  0  0  0  0  0  0  0  0  0  0  0
  190.7740  177.0210  139.4170 C   0  0  0  0  0  2  0  0  0  0  0  0
  191.2750  176.0000  138.4130 C   0  0  0  0  0  1  0  0  0  0  0  0
  2  1  1  6  0  0  0
  2  4  1  0  0  0  0
  2  6  1  0  0  0  0
  4  8  2  0  0  0  0
  5  4  1  0  0  0  0
  5  7  2  0  0  0  0
  6 11  2  0  0  0  0
  7 12  1  0  0  0  0
  8 11  1  0  0  0  0
  8  9  1  0  0  0  0
 10  2  1  0  0  0  0
 12  9  1  0  0  0  0
 12  3  2  0  0  0  0
 13 18  1  1  0  0  0
 16  9  1  6  0  0  0
 16 17  1  0  0  0  0
 16 19  1  0  0  0  0
 17 14  1  0  0  0  0
 18 15  2  0  0  0  0
 19 23  1  1  0  0  0
 19 21  1  0  0  0  0
 20 15  1  0  0  0  0
 21 14  1  6  0  0  0
 21 13  1  0  0  0  0
 22 13  1  0  0  0  0
 22 20  1  1  0  0  0
 23 22  1  0  0  0  0
 24 26  1  0  0  0  0
 25  7  1  1  0  0  0
 25 27  1  0  0  0  0
 25 24  1  0  0  0  0
 26 28  1  0  0  0  0
 26 29  1  0  0  0  0
 27 28  1  0  0  0  0
 29 30  1  0  0  0  0
 30 31  1  0  0  0  0
 31 32  2  0  0  0  0
 31 33  1  0  0  0  0
 34  6  1  0  0  0  0
 34 35  1  0  0  0  0
 36 35  1  0  0  0  0
M  END
>  <MODEL>
8

>  <REMARK>
 VINA RESULT:      -7.8      2.663      6.593
  Name = 
  7 active torsions:
  status: ('A' for Active; 'I' for Inactive)
    1  A    between atoms: C_2  and  C_23
    2  A    between atoms: C_7  and  C_15
    3  A    between atoms: C_7  and  C_19
    4  A    between atoms: N_8  and  C_15
    5  A    between atoms: O_14  and  C_16
    6  A    between atoms: O_14  and  C_21
    7  A    between atoms: C_17  and  N_27
                            x       y       z     vdW  Elec       q    Type
                         _______ _______ _______ _____ _____    ______ ____

>  <TORSDO>
F 7

$$$$
=
 OpenBabel10222419423D

 36 41  0  0  1  0  0  0  0  0999 V2000
  188.8920  176.6720  138.0980 C   0  0  0  0  0  1  0  0  0  0  0  0
  188.2160  178.0330  138.1320 C   0  0  2  0  0  0  0  0  0  0  0  0
  184.8230  178.8140  142.3790 O   0  0  0  0  0  0  0  0  0  0  0  0
  187.4610  178.2200  139.4010 C   0  0  0  0  0  0  0  0  0  0  0  0
  187.9430  178.2730  140.7040 C   0  0  0  0  0  3  0  0  0  0  0  0
  187.0880  178.1310  137.1290 C   0  0  0  0  0  0  0  0  0  0  0  0
  187.0220  178.4590  141.7490 C   0  0  0  0  0  0  0  0  0  0  0  0
  186.1250  178.3640  139.1420 C   0  0  0  0  0  0  0  0  0  0  0  0
  185.2100  178.5710  140.1400 N   0  0  0  0  0  0  0  0  0  0  0  0
  189.1470  179.0560  137.9480 O   0  0  0  0  0  1  0  0  0  0  0  0
  185.8980  178.3090  137.7030 C   0  0  0  0  0  3  0  0  0  0  0  0
  185.6490  178.6240  141.4430 C   0  0  0  0  0  0  0  0  0  0  0  0
  180.9640  177.5890  138.5430 C   0  0  2  0  0  3  0  0  0  0  0  0
  182.2840  179.5600  138.2010 N   0  0  0  0  0  2  0  0  0  0  0  0
  179.6190  175.7930  138.5890 C   0  0  0  0  0  3  0  0  0  0  0  0
  183.7700  178.7090  139.8690 C   0  0  1  0  0  3  0  0  0  0  0  0
  183.4580  179.9010  138.9930 C   0  0  0  0  0  2  0  0  0  0  0  0
  180.1910  176.8510  137.7650 C   0  0  0  0  0  3  0  0  0  0  0  0
  183.2120  177.5150  139.1350 C   0  0  2  0  0  3  0  0  0  0  0  0
  180.1380  175.8670  139.8080 C   0  0  0  0  0  2  0  0  0  0  0  0
  182.2610  178.1030  138.0930 C   0  0  1  0  0  3  0  0  0  0  0  0
  181.0460  177.0480  139.8990 C   0  0  1  0  0  3  0  0  0  0  0  0
  182.4450  176.6680  140.0660 N   0  0  0  0  0  2  0  0  0  0  0  0
  188.9870  178.3630  143.2700 C   0  0  0  0  0  2  0  0  0  0  0  0
  187.4890  178.5420  143.1770 C   0  0  2  0  0  3  0  0  0  0  0  0
  189.2490  177.6420  144.5060 N   0  0  0  0  0  0  0  0  0  0  0  0
  186.9020  177.4580  144.0580 C   0  0  0  0  0  2  0  0  0  0  0  0
  188.0980  176.7690  144.6830 C   0  0  0  0  0  2  0  0  0  0  0  0
  190.4060  176.7950  144.2750 C   0  0  0  0  0  2  0  0  0  0  0  0
  191.5530  177.2630  145.1540 C   0  0  0  0  0  2  0  0  0  0  0  0
  191.5620  176.5090  146.4380 C   0  0  0  0  0  0  0  0  0  0  0  0
  192.3350  175.5260  146.5820 O   0  0  0  0  0  0  0  0  0  0  0  0
  190.7190  176.8870  147.4780 O   0  0  0  0  0  1  0  0  0  0  0  0
  187.2250  178.0740  135.7390 O   0  0  0  0  0  0  0  0  0  0  0  0
  186.4280  177.2340  134.9160 C   0  0  0  0  0  2  0  0  0  0  0  0
  186.7540  175.7790  135.1900 C   0  0  0  0  0  1  0  0  0  0  0  0
  2  1  1  6  0  0  0
  2  4  1  0  0  0  0
  4  5  1  0  0  0  0
  5  7  2  0  0  0  0
  6 11  2  0  0  0  0
  6  2  1  0  0  0  0
  8  4  2  0  0  0  0
  8  9  1  0  0  0  0
  9 12  1  0  0  0  0
 10  2  1  0  0  0  0
 11  8  1  0  0  0  0
 12  7  1  0  0  0  0
 12  3  2  0  0  0  0
 13 18  1  6  0  0  0
 13 22  1  0  0  0  0
 14 17  1  0  0  0  0
 15 20  1  0  0  0  0
 16 17  1  6  0  0  0
 16  9  1  0  0  0  0
 18 15  2  0  0  0  0
 19 16  1  0  0  0  0
 19 23  1  1  0  0  0
 21 14  1  1  0  0  0
 21 13  1  0  0  0  0
 21 19  1  0  0  0  0
 22 20  1  6  0  0  0
 22 23  1  0  0  0  0
 24 26  1  0  0  0  0
 25  7  1  6  0  0  0
 25 24  1  0  0  0  0
 25 27  1  0  0  0  0
 26 28  1  0  0  0  0
 27 28  1  0  0  0  0
 29 26  1  0  0  0  0
 29 30  1  0  0  0  0
 30 31  1  0  0  0  0
 31 32  2  0  0  0  0
 31 33  1  0  0  0  0
 34  6  1  0  0  0  0
 35 36  1  0  0  0  0
 35 34  1  0  0  0  0
M  END
>  <MODEL>
9

>  <REMARK>
 VINA RESULT:      -7.8      3.138      8.535
  Name = 
  7 active torsions:
  status: ('A' for Active; 'I' for Inactive)
    1  A    between atoms: C_2  and  C_23
    2  A    between atoms: C_7  and  C_15
    3  A    between atoms: C_7  and  C_19
    4  A    between atoms: N_8  and  C_15
    5  A    between atoms: O_14  and  C_16
    6  A    between atoms: O_14  and  C_21
    7  A    between atoms: C_17  and  N_27
                            x       y       z     vdW  Elec       q    Type
                         _______ _______ _______ _____ _____    ______ ____

>  <TORSDO>
F 7

$$$$
