=
 OpenBabel10222418483D

 68 73  0  0  1  0  0  0  0  0999 V2000
  181.2290  177.8360  134.9690 C   0  0  0  0  0  2  0  0  0  0  0  0
  181.9580  179.4760  139.6890 C   0  0  0  0  0  2  0  0  0  0  0  0
  183.4920  176.9640  136.8120 C   0  0  0  0  0  0  0  0  0  0  0  0
  183.9540  178.2000  138.8430 C   0  0  0  0  0  0  0  0  0  0  0  0
  181.2800  176.5950  135.8520 C   0  0  0  0  0  2  0  0  0  0  0  0
  181.5140  180.2590  138.4610 C   0  0  0  0  0  2  0  0  0  0  0  0
  179.6520  180.7430  136.8660 C   0  0  0  0  0  2  0  0  0  0  0  0
  182.6850  176.1830  136.1430 C   0  0  0  0  0  3  0  0  0  0  0  0
  184.2960  177.7550  137.4740 C   0  0  0  0  0  0  0  0  0  0  0  0
  180.1390  179.8160  137.9510 C   0  0  1  0  0  0  0  0  0  0  0  0
  179.9500  179.2870  136.5360 C   0  0  2  0  0  3  0  0  0  0  0  0
  182.5230  178.1130  139.3200 C   0  0  0  0  0  2  0  0  0  0  0  0
  181.5310  180.1800  134.9550 F   0  0  0  0  0  0  0  0  0  0  0  0
  184.9420  178.5640  139.6730 C   0  0  0  0  0  3  0  0  0  0  0  0
  181.2770  179.1110  135.7930 C   0  0  2  0  0  3  0  0  0  0  0  0
  185.6480  178.0090  136.8930 C   0  0  0  0  0  2  0  0  0  0  0  0
  186.0600  176.9000  135.9300 C   0  0  0  0  0  2  0  0  0  0  0  0
  187.5640  176.8890  135.6590 C   0  0  0  0  0  2  0  0  0  0  0  0
  188.2390  175.6800  136.2870 C   0  0  0  0  0  2  0  0  0  0  0  0
  190.4070  173.2170  135.5770 N   0  0  0  0  0  0  0  0  0  0  0  0
  188.6930  174.7270  135.1990 C   0  0  1  0  0  3  0  0  0  0  0  0
  190.1550  174.4560  135.3060 C   0  0  0  0  0  0  0  0  0  0  0  0
  188.2250  173.3420  135.4880 C   0  0  0  0  0  0  0  0  0  0  0  0
  189.2000  172.5210  135.6790 N   0  0  0  0  0  0  0  0  0  0  0  0
  186.8600  172.9320  135.4720 N   0  0  0  0  0  1  0  0  0  0  0  0
  191.1740  175.4480  135.1480 N   0  0  0  0  0  2  0  0  0  0  0  0
  192.5960  175.1330  135.2250 C   0  0  1  0  0  3  0  0  0  0  0  0
  193.0910  175.0200  136.6650 C   0  0  2  0  0  0  0  0  0  0  0  0
  193.6740  176.3520  137.1030 C   0  0  0  0  0  1  0  0  0  0  0  0
  192.8760  172.0250  136.1860 O   0  0  0  0  0  1  0  0  0  0  0  0
  194.1390  173.9920  136.6300 N   0  0  2  0  0  0  0  0  0  0  0  0
  193.6960  173.0140  135.6220 C   0  0  2  0  0  3  0  0  0  0  0  0
  192.8860  173.7840  134.5940 C   0  0  0  0  0  2  0  0  0  0  0  0
  192.0460  174.6520  137.5280 O   0  0  0  0  0  1  0  0  0  0  0  0
  195.6840  173.9180  138.5210 C   0  0  0  0  0  2  0  0  0  0  0  0
  195.6630  172.5510  137.8780 C   0  0  0  0  0  2  0  0  0  0  0  0
  194.3890  173.3740  137.9390 C   0  0  0  0  0  3  0  0  0  0  0  0
  179.0270  179.4600  138.9260 C   0  0  0  0  0  2  0  0  0  0  0  0
  178.9680  180.4090  139.9800 O   0  0  0  0  0  0  0  0  0  0  0  0
  179.9010  180.9620  142.1250 O   0  0  0  0  0  1  0  0  0  0  0  0
  179.2600  180.0520  141.2960 C   0  0  0  0  0  0  0  0  0  0  0  0
  178.9330  178.9200  141.7490 O   0  0  0  0  0  0  0  0  0  0  0  0
  184.7250  178.9690  141.1050 C   0  0  1  0  0  3  0  0  0  0  0  0
  183.6010  178.0610  143.1710 C   0  0  0  0  0  3  0  0  0  0  0  0
  184.0500  177.8990  141.9230 C   0  0  0  0  0  3  0  0  0  0  0  0
  183.6730  179.2990  143.9790 C   0  0  0  0  0  0  0  0  0  0  0  0
  184.8050  179.5510  144.8150 N   0  0  0  0  0  2  0  0  0  0  0  0
  182.7500  180.1550  143.9320 O   0  0  0  0  0  0  0  0  0  0  0  0
  185.9660  178.6750  144.8530 C   0  0  0  0  0  2  0  0  0  0  0  0
  186.6780  178.8190  146.1820 C   0  0  1  0  0  3  0  0  0  0  0  0
  185.8420  180.1470  147.9760 O   0  0  0  0  0  1  0  0  0  0  0  0
  185.6800  179.1300  147.2530 C   0  0  0  0  0  0  0  0  0  0  0  0
  184.5770  178.3080  147.4520 O   0  0  0  0  0  0  0  0  0  0  0  0
  187.4580  177.5280  146.4790 C   0  0  0  0  0  2  0  0  0  0  0  0
  191.1730  177.3670  143.3220 C   0  0  0  0  0  1  0  0  0  0  0  0
  190.6930  177.9570  144.6340 C   0  0  2  0  0  3  0  0  0  0  0  0
  191.0400  176.2860  146.5010 C   0  0  0  0  0  2  0  0  0  0  0  0
  189.6280  176.5760  147.0500 C   0  0  0  0  0  2  0  0  0  0  0  0
  188.9130  177.6280  146.2960 N   0  0  0  0  0  0  0  0  0  0  0  0
  191.6060  177.5060  145.7800 C   0  0  0  0  0  2  0  0  0  0  0  0
  189.2290  177.5710  144.8670 C   0  0  0  0  0  2  0  0  0  0  0  0
  185.8910  179.4900  141.7100 O   0  0  0  0  0  0  0  0  0  0  0  0
  186.7770  178.4410  142.0200 C   0  0  0  0  0  2  0  0  0  0  0  0
  188.1000  178.6350  141.2950 C   0  0  0  0  0  2  0  0  0  0  0  0
  187.9300  178.5510  139.7840 C   0  0  0  0  0  2  0  0  0  0  0  0
  189.2700  178.6690  139.0650 C   0  0  0  0  0  2  0  0  0  0  0  0
  190.1030  177.4070  139.2370 C   0  0  0  0  0  2  0  0  0  0  0  0
  190.8630  177.1670  138.0940 O   0  0  0  0  0  1  0  0  0  0  0  0
  1 15  1  0  0  0  0
  1  5  1  0  0  0  0
  3  9  2  0  0  0  0
  4 12  1  0  0  0  0
  4 14  2  0  0  0  0
  5  8  1  0  0  0  0
  6  2  1  0  0  0  0
  7 10  1  0  0  0  0
  8  3  2  0  0  0  0
  9  4  1  0  0  0  0
 10  6  1  0  0  0  0
 10 38  1  1  0  0  0
 11  7  1  6  0  0  0
 11 10  1  0  0  0  0
 12  2  1  0  0  0  0
 15 13  1  6  0  0  0
 15 11  1  0  0  0  0
 16  9  1  0  0  0  0
 17 16  1  0  0  0  0
 18 17  1  0  0  0  0
 18 19  1  0  0  0  0
 20 24  1  0  0  0  0
 21 22  1  0  0  0  0
 21 23  1  0  0  0  0
 21 19  1  1  0  0  0
 22 20  2  0  0  0  0
 23 24  2  0  0  0  0
 25 23  1  0  0  0  0
 26 22  1  0  0  0  0
 27 26  1  1  0  0  0
 27 28  1  0  0  0  0
 28 29  1  1  0  0  0
 28 34  1  0  0  0  0
 31 28  1  0  0  0  0
 31 37  1  1  0  0  0
 32 30  1  1  0  0  0
 32 31  1  0  0  0  0
 33 27  1  0  0  0  0
 33 32  1  0  0  0  0
 36 37  1  0  0  0  0
 36 35  1  0  0  0  0
 37 35  1  0  0  0  0
 38 39  1  0  0  0  0
 39 41  1  0  0  0  0
 41 42  2  0  0  0  0
 41 40  1  0  0  0  0
 43 14  1  6  0  0  0
 43 62  1  0  0  0  0
 43 45  1  0  0  0  0
 44 46  1  0  0  0  0
 45 44  2  0  0  0  0
 46 47  1  0  0  0  0
 47 49  1  0  0  0  0
 48 46  2  0  0  0  0
 50 49  1  6  0  0  0
 50 54  1  0  0  0  0
 50 52  1  0  0  0  0
 52 53  2  0  0  0  0
 52 51  1  0  0  0  0
 56 55  1  6  0  0  0
 56 61  1  0  0  0  0
 56 60  1  0  0  0  0
 57 58  1  0  0  0  0
 59 54  1  0  0  0  0
 59 58  1  0  0  0  0
 60 57  1  0  0  0  0
 61 59  1  0  0  0  0
 62 63  1  0  0  0  0
 64 63  1  0  0  0  0
 65 64  1  0  0  0  0
 66 67  1  0  0  0  0
 66 65  1  0  0  0  0
 68 67  1  0  0  0  0
M  END
>  <MODEL>
1

>  <REMARK>
 VINA RESULT:      -6.6      0.000      0.000
  Name = 
  24 active torsions:
  status: ('A' for Active; 'I' for Inactive)
    1  A    between atoms: C_1  and  C_38
    2  A    between atoms: C_1  and  O_52
    3  A    between atoms: C_2  and  C_4
    4  A    between atoms: C_3  and  N_61
    5  A    between atoms: C_5  and  C_35
    6  A    between atoms: C_5  and  N_42
    7  A    between atoms: C_10  and  C_31
    8  A    between atoms: C_10  and  C_58
    9  A    between atoms: C_16  and  C_18
   10  A    between atoms: C_16  and  C_25
   11  A    between atoms: C_18  and  C_27
   12  A    between atoms: C_22  and  C_33
   13  A    between atoms: C_27  and  C_33
   14  A    between atoms: C_29  and  O_52
   15  A    between atoms: C_31  and  C_34
   16  A    between atoms: C_32  and  C_58
   17  A    between atoms: C_34  and  O_56
   18  A    between atoms: C_35  and  C_37
   19  A    between atoms: C_35  and  C_47
   20  A    between atoms: N_36  and  C_67
   21  A    between atoms: C_37  and  N_60
   22  A    between atoms: C_55  and  C_57
   23  A    between atoms: O_56  and  C_57
   24  A    between atoms: C_57  and  C_64
                            x       y       z     vdW  Elec       q    Type
                         _______ _______ _______ _____ _____    ______ ____

>  <TORSDO>
F 24

$$$$
=
 OpenBabel10222418483D

 68 73  0  0  1  0  0  0  0  0999 V2000
  191.8220  177.0430  141.6950 C   0  0  0  0  0  2  0  0  0  0  0  0
  189.6560  176.1530  137.2190 C   0  0  0  0  0  2  0  0  0  0  0  0
  188.8280  177.1150  141.1350 C   0  0  0  0  0  0  0  0  0  0  0  0
  188.0150  177.1360  138.8530 C   0  0  0  0  0  0  0  0  0  0  0  0
  190.8080  175.9270  141.9210 C   0  0  0  0  0  2  0  0  0  0  0  0
  190.9370  176.9160  137.5290 C   0  0  0  0  0  2  0  0  0  0  0  0
  193.3370  176.7600  138.2070 C   0  0  0  0  0  2  0  0  0  0  0  0
  189.4270  176.4640  142.0980 C   0  0  0  0  0  3  0  0  0  0  0  0
  188.2400  177.7720  140.1700 C   0  0  0  0  0  0  0  0  0  0  0  0
  192.0320  176.0120  138.1040 C   0  0  1  0  0  0  0  0  0  0  0  0
  192.6430  176.2760  139.4730 C   0  0  2  0  0  3  0  0  0  0  0  0
  188.8210  175.9160  138.4690 C   0  0  0  0  0  2  0  0  0  0  0  0
  192.6190  178.5990  140.1050 F   0  0  0  0  0  0  0  0  0  0  0  0
  187.0200  177.5840  138.0760 C   0  0  0  0  0  3  0  0  0  0  0  0
  191.9340  177.4060  140.2230 C   0  0  2  0  0  3  0  0  0  0  0  0
  187.6180  179.0870  140.5100 C   0  0  0  0  0  2  0  0  0  0  0  0
  186.2020  178.9140  141.0490 C   0  0  0  0  0  2  0  0  0  0  0  0
  186.1670  178.1410  142.3660 C   0  0  0  0  0  2  0  0  0  0  0  0
  185.5810  178.9760  143.4930 C   0  0  0  0  0  2  0  0  0  0  0  0
  186.7020  179.0220  146.6560 N   0  0  0  0  0  0  0  0  0  0  0  0
  185.6220  178.1880  144.7870 C   0  0  1  0  0  3  0  0  0  0  0  0
  186.8960  178.4370  145.5200 C   0  0  0  0  0  0  0  0  0  0  0  0
  184.7050  178.7910  145.7950 C   0  0  0  0  0  0  0  0  0  0  0  0
  185.3320  179.2330  146.8310 N   0  0  0  0  0  0  0  0  0  0  0  0
  183.2830  178.8070  145.6860 N   0  0  0  0  0  1  0  0  0  0  0  0
  188.1920  178.0880  145.0280 N   0  0  0  0  0  2  0  0  0  0  0  0
  189.4120  178.3160  145.7950 C   0  0  1  0  0  3  0  0  0  0  0  0
  189.6020  177.2880  146.9070 C   0  0  2  0  0  0  0  0  0  0  0  0
  189.0430  177.8410  148.2060 C   0  0  0  0  0  1  0  0  0  0  0  0
  191.5580  175.9990  144.9680 O   0  0  0  0  0  1  0  0  0  0  0  0
  191.0550  177.1040  147.0140 N   0  0  2  0  0  0  0  0  0  0  0  0
  191.5690  177.2310  145.6410 C   0  0  2  0  0  3  0  0  0  0  0  0
  190.6390  178.1850  144.9130 C   0  0  0  0  0  2  0  0  0  0  0  0
  188.9590  176.0800  146.5900 O   0  0  0  0  0  1  0  0  0  0  0  0
  192.5720  176.0620  148.6220 C   0  0  0  0  0  2  0  0  0  0  0  0
  192.8610  175.4800  147.2580 C   0  0  0  0  0  2  0  0  0  0  0  0
  191.4340  175.8300  147.6400 C   0  0  0  0  0  3  0  0  0  0  0  0
  192.2350  174.6020  137.5690 C   0  0  0  0  0  2  0  0  0  0  0  0
  193.0140  174.6280  136.3820 O   0  0  0  0  0  0  0  0  0  0  0  0
  195.0920  173.6650  137.1090 O   0  0  0  0  0  1  0  0  0  0  0  0
  194.0620  173.7300  136.1820 C   0  0  0  0  0  0  0  0  0  0  0  0
  194.0780  172.9630  135.1790 O   0  0  0  0  0  0  0  0  0  0  0  0
  186.6530  176.9750  136.7520 C   0  0  1  0  0  3  0  0  0  0  0  0
  184.1500  177.2740  136.6710 C   0  0  0  0  0  3  0  0  0  0  0  0
  185.3690  177.5260  136.1860 C   0  0  0  0  0  3  0  0  0  0  0  0
  183.8260  176.4240  137.8390 C   0  0  0  0  0  0  0  0  0  0  0  0
  183.3880  177.0180  139.0640 N   0  0  0  0  0  2  0  0  0  0  0  0
  183.9160  175.1700  137.7700 O   0  0  0  0  0  0  0  0  0  0  0  0
  183.1510  178.4460  139.2060 C   0  0  0  0  0  2  0  0  0  0  0  0
  181.7360  178.7790  138.7810 C   0  0  1  0  0  3  0  0  0  0  0  0
  179.6910  177.5930  139.0900 O   0  0  0  0  0  0  0  0  0  0  0  0
  180.7660  177.9930  139.6070 C   0  0  0  0  0  0  0  0  0  0  0  0
  181.0460  177.6980  140.9370 O   0  0  0  0  0  1  0  0  0  0  0  0
  181.5110  180.2950  138.9180 C   0  0  0  0  0  2  0  0  0  0  0  0
  180.3540  184.5220  136.7760 C   0  0  0  0  0  1  0  0  0  0  0  0
  181.1320  183.2300  136.6170 C   0  0  2  0  0  3  0  0  0  0  0  0
  179.5800  181.3880  135.8440 C   0  0  0  0  0  2  0  0  0  0  0  0
  180.1910  180.4140  136.8720 C   0  0  0  0  0  2  0  0  0  0  0  0
  181.3010  181.0060  137.6480 N   0  0  0  0  0  0  0  0  0  0  0  0
  180.6000  182.4390  135.4150 C   0  0  0  0  0  2  0  0  0  0  0  0
  181.0680  182.4270  137.9200 C   0  0  0  0  0  2  0  0  0  0  0  0
  187.7240  176.9800  135.8300 O   0  0  0  0  0  0  0  0  0  0  0  0
  187.5410  175.9560  134.8820 C   0  0  0  0  0  2  0  0  0  0  0  0
  186.8990  174.7410  135.5350 C   0  0  0  0  0  2  0  0  0  0  0  0
  187.0060  173.5060  134.6510 C   0  0  0  0  0  2  0  0  0  0  0  0
  186.8080  172.2250  135.4560 C   0  0  0  0  0  2  0  0  0  0  0  0
  185.3540  171.7780  135.4340 C   0  0  0  0  0  2  0  0  0  0  0  0
  185.2710  170.4100  135.1770 O   0  0  0  0  0  1  0  0  0  0  0  0
  1  5  1  0  0  0  0
  2  6  1  0  0  0  0
  2 12  1  0  0  0  0
  3  8  2  0  0  0  0
  4  9  1  0  0  0  0
  5  8  1  0  0  0  0
  6 10  1  0  0  0  0
  9 16  1  0  0  0  0
  9  3  2  0  0  0  0
 10 38  1  6  0  0  0
 10  7  1  0  0  0  0
 10 11  1  0  0  0  0
 11  7  1  6  0  0  0
 11 15  1  0  0  0  0
 12  4  1  0  0  0  0
 14  4  2  0  0  0  0
 15 13  1  1  0  0  0
 15  1  1  0  0  0  0
 16 17  1  0  0  0  0
 17 18  1  0  0  0  0
 18 19  1  0  0  0  0
 20 24  1  0  0  0  0
 21 19  1  6  0  0  0
 21 22  1  0  0  0  0
 21 23  1  0  0  0  0
 22 20  2  0  0  0  0
 23 24  2  0  0  0  0
 25 23  1  0  0  0  0
 26 22  1  0  0  0  0
 27 26  1  6  0  0  0
 27 28  1  0  0  0  0
 28 31  1  0  0  0  0
 28 29  1  1  0  0  0
 31 37  1  6  0  0  0
 32 30  1  6  0  0  0
 32 31  1  0  0  0  0
 33 32  1  0  0  0  0
 33 27  1  0  0  0  0
 34 28  1  0  0  0  0
 36 37  1  0  0  0  0
 36 35  1  0  0  0  0
 37 35  1  0  0  0  0
 39 38  1  0  0  0  0
 41 39  1  0  0  0  0
 41 40  1  0  0  0  0
 42 41  2  0  0  0  0
 43 45  1  6  0  0  0
 43 14  1  0  0  0  0
 44 46  1  0  0  0  0
 45 44  2  0  0  0  0
 46 47  1  0  0  0  0
 47 49  1  0  0  0  0
 48 46  2  0  0  0  0
 50 54  1  1  0  0  0
 50 49  1  0  0  0  0
 50 52  1  0  0  0  0
 51 52  2  0  0  0  0
 52 53  1  0  0  0  0
 56 55  1  1  0  0  0
 56 61  1  0  0  0  0
 57 58  1  0  0  0  0
 58 59  1  0  0  0  0
 59 61  1  0  0  0  0
 59 54  1  0  0  0  0
 60 57  1  0  0  0  0
 60 56  1  0  0  0  0
 62 43  1  0  0  0  0
 63 64  1  0  0  0  0
 63 62  1  0  0  0  0
 65 66  1  0  0  0  0
 65 64  1  0  0  0  0
 67 66  1  0  0  0  0
 68 67  1  0  0  0  0
M  END
>  <MODEL>
2

>  <REMARK>
 VINA RESULT:      -6.3      3.496     10.781
  Name = 
  24 active torsions:
  status: ('A' for Active; 'I' for Inactive)
    1  A    between atoms: C_1  and  C_38
    2  A    between atoms: C_1  and  O_52
    3  A    between atoms: C_2  and  C_4
    4  A    between atoms: C_3  and  N_61
    5  A    between atoms: C_5  and  C_35
    6  A    between atoms: C_5  and  N_42
    7  A    between atoms: C_10  and  C_31
    8  A    between atoms: C_10  and  C_58
    9  A    between atoms: C_16  and  C_18
   10  A    between atoms: C_16  and  C_25
   11  A    between atoms: C_18  and  C_27
   12  A    between atoms: C_22  and  C_33
   13  A    between atoms: C_27  and  C_33
   14  A    between atoms: C_29  and  O_52
   15  A    between atoms: C_31  and  C_34
   16  A    between atoms: C_32  and  C_58
   17  A    between atoms: C_34  and  O_56
   18  A    between atoms: C_35  and  C_37
   19  A    between atoms: C_35  and  C_47
   20  A    between atoms: N_36  and  C_67
   21  A    between atoms: C_37  and  N_60
   22  A    between atoms: C_55  and  C_57
   23  A    between atoms: O_56  and  C_57
   24  A    between atoms: C_57  and  C_64
                            x       y       z     vdW  Elec       q    Type
                         _______ _______ _______ _____ _____    ______ ____

>  <TORSDO>
F 24

$$$$
=
 OpenBabel10222418483D

 68 73  0  0  1  0  0  0  0  0999 V2000
  191.7640  177.1260  141.6280 C   0  0  0  0  0  2  0  0  0  0  0  0
  189.6870  176.1960  137.1190 C   0  0  0  0  0  2  0  0  0  0  0  0
  188.7810  177.1770  141.0130 C   0  0  0  0  0  0  0  0  0  0  0  0
  188.0100  177.1800  138.7160 C   0  0  0  0  0  0  0  0  0  0  0  0
  190.7530  176.0060  141.8430 C   0  0  0  0  0  2  0  0  0  0  0  0
  190.9570  176.9680  137.4470 C   0  0  0  0  0  2  0  0  0  0  0  0
  193.3450  176.8300  138.1710 C   0  0  0  0  0  2  0  0  0  0  0  0
  189.3660  176.5370  141.9900 C   0  0  0  0  0  3  0  0  0  0  0  0
  188.2070  177.8260  140.0330 C   0  0  0  0  0  0  0  0  0  0  0  0
  192.0470  176.0740  138.0480 C   0  0  1  0  0  0  0  0  0  0  0  0
  192.6310  176.3500  139.4270 C   0  0  2  0  0  3  0  0  0  0  0  0
  188.8290  175.9620  138.3540 C   0  0  0  0  0  2  0  0  0  0  0  0
  192.5820  178.6770  140.0430 F   0  0  0  0  0  0  0  0  0  0  0  0
  187.0270  177.6180  137.9180 C   0  0  0  0  0  3  0  0  0  0  0  0
  191.9010  177.4800  140.1570 C   0  0  2  0  0  3  0  0  0  0  0  0
  187.5720  179.1390  140.3520 C   0  0  0  0  0  2  0  0  0  0  0  0
  186.1950  178.9560  140.9830 C   0  0  0  0  0  2  0  0  0  0  0  0
  186.2590  178.2570  142.3400 C   0  0  0  0  0  2  0  0  0  0  0  0
  185.4630  179.0060  143.3960 C   0  0  0  0  0  2  0  0  0  0  0  0
  186.6380  179.0870  146.5390 N   0  0  0  0  0  0  0  0  0  0  0  0
  185.5080  178.2420  144.7050 C   0  0  1  0  0  3  0  0  0  0  0  0
  186.7990  178.4750  145.4120 C   0  0  0  0  0  0  0  0  0  0  0  0
  184.6220  178.8860  145.7160 C   0  0  0  0  0  0  0  0  0  0  0  0
  185.2770  179.3340  146.7320 N   0  0  0  0  0  0  0  0  0  0  0  0
  183.2000  178.9330  145.6290 N   0  0  0  0  0  1  0  0  0  0  0  0
  188.0790  178.0870  144.9050 N   0  0  0  0  0  2  0  0  0  0  0  0
  189.3170  178.3010  145.6480 C   0  0  1  0  0  3  0  0  0  0  0  0
  189.5030  177.2890  146.7750 C   0  0  2  0  0  0  0  0  0  0  0  0
  188.9790  177.8780  148.0730 C   0  0  0  0  0  1  0  0  0  0  0  0
  191.3960  175.9230  144.8280 O   0  0  0  0  0  1  0  0  0  0  0  0
  190.9530  177.0750  146.8610 N   0  0  2  0  0  0  0  0  0  0  0  0
  191.4470  177.1660  145.4770 C   0  0  2  0  0  3  0  0  0  0  0  0
  190.5250  178.1270  144.7480 C   0  0  0  0  0  2  0  0  0  0  0  0
  188.8280  176.0910  146.4910 O   0  0  0  0  0  1  0  0  0  0  0  0
  192.5210  176.0130  148.4050 C   0  0  0  0  0  2  0  0  0  0  0  0
  192.6980  175.3780  147.0460 C   0  0  0  0  0  2  0  0  0  0  0  0
  191.3140  175.8040  147.5040 C   0  0  0  0  0  3  0  0  0  0  0  0
  192.2670  174.6620  137.5260 C   0  0  0  0  0  2  0  0  0  0  0  0
  193.6010  174.5040  137.0660 O   0  0  0  0  0  0  0  0  0  0  0  0
  193.6430  175.0960  134.7370 O   0  0  0  0  0  0  0  0  0  0  0  0
  193.8770  174.1680  135.7410 C   0  0  0  0  0  0  0  0  0  0  0  0
  194.3550  173.0370  135.4450 O   0  0  0  0  0  1  0  0  0  0  0  0
  186.6880  176.9980  136.5910 C   0  0  1  0  0  3  0  0  0  0  0  0
  184.2170  177.4950  136.6760 C   0  0  0  0  0  3  0  0  0  0  0  0
  185.3830  177.4960  136.0250 C   0  0  0  0  0  3  0  0  0  0  0  0
  183.9810  177.0170  138.0580 C   0  0  0  0  0  0  0  0  0  0  0  0
  183.3080  177.8500  139.0050 N   0  0  0  0  0  2  0  0  0  0  0  0
  184.3550  175.8690  138.4150 O   0  0  0  0  0  0  0  0  0  0  0  0
  182.7460  179.1460  138.6550 C   0  0  0  0  0  2  0  0  0  0  0  0
  181.2540  179.1470  138.9110 C   0  0  1  0  0  3  0  0  0  0  0  0
  181.0240  181.5160  138.7720 O   0  0  0  0  0  0  0  0  0  0  0  0
  180.8400  180.4770  139.4580 C   0  0  0  0  0  0  0  0  0  0  0  0
  180.2530  180.5730  140.7150 O   0  0  0  0  0  1  0  0  0  0  0  0
  180.5170  178.8080  137.6040 C   0  0  0  0  0  2  0  0  0  0  0  0
  179.8150  174.5900  139.9530 C   0  0  0  0  0  1  0  0  0  0  0  0
  179.2010  175.5780  138.9790 C   0  0  2  0  0  3  0  0  0  0  0  0
  180.1070  175.1610  136.6540 C   0  0  0  0  0  2  0  0  0  0  0  0
  180.3190  176.6740  136.4430 C   0  0  0  0  0  2  0  0  0  0  0  0
  179.8620  177.4920  137.5870 N   0  0  0  0  0  0  0  0  0  0  0  0
  178.9580  174.9010  137.6250 C   0  0  0  0  0  2  0  0  0  0  0  0
  180.1010  176.8120  138.8620 C   0  0  0  0  0  2  0  0  0  0  0  0
  187.7590  177.0510  135.6710 O   0  0  0  0  0  0  0  0  0  0  0  0
  187.5530  176.1100  134.6450 C   0  0  0  0  0  2  0  0  0  0  0  0
  188.0120  174.7300  135.0950 C   0  0  0  0  0  2  0  0  0  0  0  0
  186.9590  173.6680  134.8100 C   0  0  0  0  0  2  0  0  0  0  0  0
  185.8120  173.7350  135.8130 C   0  0  0  0  0  2  0  0  0  0  0  0
  185.6530  172.4190  136.5600 C   0  0  0  0  0  2  0  0  0  0  0  0
  185.1390  172.6440  137.8360 O   0  0  0  0  0  1  0  0  0  0  0  0
  1  5  1  0  0  0  0
  2  6  1  0  0  0  0
  2 12  1  0  0  0  0
  3  8  2  0  0  0  0
  4  9  1  0  0  0  0
  5  8  1  0  0  0  0
  6 10  1  0  0  0  0
  9 16  1  0  0  0  0
  9  3  2  0  0  0  0
 10 38  1  6  0  0  0
 10  7  1  0  0  0  0
 10 11  1  0  0  0  0
 11  7  1  6  0  0  0
 11 15  1  0  0  0  0
 12  4  1  0  0  0  0
 14  4  2  0  0  0  0
 15 13  1  1  0  0  0
 15  1  1  0  0  0  0
 16 17  1  0  0  0  0
 17 18  1  0  0  0  0
 18 19  1  0  0  0  0
 20 24  1  0  0  0  0
 21 19  1  6  0  0  0
 21 22  1  0  0  0  0
 21 23  1  0  0  0  0
 22 20  2  0  0  0  0
 23 24  2  0  0  0  0
 25 23  1  0  0  0  0
 26 22  1  0  0  0  0
 27 26  1  6  0  0  0
 27 28  1  0  0  0  0
 28 31  1  0  0  0  0
 28 29  1  1  0  0  0
 31 37  1  6  0  0  0
 32 30  1  6  0  0  0
 32 31  1  0  0  0  0
 33 32  1  0  0  0  0
 33 27  1  0  0  0  0
 34 28  1  0  0  0  0
 36 37  1  0  0  0  0
 36 35  1  0  0  0  0
 37 35  1  0  0  0  0
 39 38  1  0  0  0  0
 40 41  2  0  0  0  0
 41 39  1  0  0  0  0
 42 41  1  0  0  0  0
 43 45  1  6  0  0  0
 43 14  1  0  0  0  0
 44 46  1  0  0  0  0
 45 44  2  0  0  0  0
 46 48  2  0  0  0  0
 46 47  1  0  0  0  0
 49 50  1  0  0  0  0
 49 47  1  0  0  0  0
 50 54  1  6  0  0  0
 50 52  1  0  0  0  0
 51 52  2  0  0  0  0
 52 53  1  0  0  0  0
 56 55  1  1  0  0  0
 57 60  1  0  0  0  0
 58 57  1  0  0  0  0
 58 59  1  0  0  0  0
 59 54  1  0  0  0  0
 59 61  1  0  0  0  0
 60 56  1  0  0  0  0
 61 56  1  0  0  0  0
 62 43  1  0  0  0  0
 63 64  1  0  0  0  0
 63 62  1  0  0  0  0
 65 64  1  0  0  0  0
 65 66  1  0  0  0  0
 66 67  1  0  0  0  0
 67 68  1  0  0  0  0
M  END
>  <MODEL>
3

>  <REMARK>
 VINA RESULT:      -5.5      3.487     10.600
  Name = 
  24 active torsions:
  status: ('A' for Active; 'I' for Inactive)
    1  A    between atoms: C_1  and  C_38
    2  A    between atoms: C_1  and  O_52
    3  A    between atoms: C_2  and  C_4
    4  A    between atoms: C_3  and  N_61
    5  A    between atoms: C_5  and  C_35
    6  A    between atoms: C_5  and  N_42
    7  A    between atoms: C_10  and  C_31
    8  A    between atoms: C_10  and  C_58
    9  A    between atoms: C_16  and  C_18
   10  A    between atoms: C_16  and  C_25
   11  A    between atoms: C_18  and  C_27
   12  A    between atoms: C_22  and  C_33
   13  A    between atoms: C_27  and  C_33
   14  A    between atoms: C_29  and  O_52
   15  A    between atoms: C_31  and  C_34
   16  A    between atoms: C_32  and  C_58
   17  A    between atoms: C_34  and  O_56
   18  A    between atoms: C_35  and  C_37
   19  A    between atoms: C_35  and  C_47
   20  A    between atoms: N_36  and  C_67
   21  A    between atoms: C_37  and  N_60
   22  A    between atoms: C_55  and  C_57
   23  A    between atoms: O_56  and  C_57
   24  A    between atoms: C_57  and  C_64
                            x       y       z     vdW  Elec       q    Type
                         _______ _______ _______ _____ _____    ______ ____

>  <TORSDO>
F 24

$$$$
=
 OpenBabel10222418483D

 68 73  0  0  1  0  0  0  0  0999 V2000
  190.2560  177.9400  145.5550 C   0  0  0  0  0  2  0  0  0  0  0  0
  186.4220  178.3410  142.2920 C   0  0  0  0  0  2  0  0  0  0  0  0
  190.5310  178.3180  142.5440 C   0  0  0  0  0  0  0  0  0  0  0  0
  188.6120  178.0110  141.0980 C   0  0  0  0  0  0  0  0  0  0  0  0
  190.4690  179.2460  144.7990 C   0  0  0  0  0  2  0  0  0  0  0  0
  186.5580  177.4270  143.5020 C   0  0  0  0  0  2  0  0  0  0  0  0
  186.5300  177.2630  145.9960 C   0  0  0  0  0  2  0  0  0  0  0  0
  191.1220  179.0180  143.4760 C   0  0  0  0  0  3  0  0  0  0  0  0
  189.9360  177.6080  141.6210 C   0  0  0  0  0  0  0  0  0  0  0  0
  186.5970  178.2060  144.8220 C   0  0  1  0  0  0  0  0  0  0  0  0
  187.7820  178.1010  145.7720 C   0  0  2  0  0  3  0  0  0  0  0  0
  187.7540  178.9630  141.8980 C   0  0  0  0  0  2  0  0  0  0  0  0
  188.9280  175.9870  145.6490 F   0  0  0  0  0  0  0  0  0  0  0  0
  188.2500  177.6140  139.8700 C   0  0  0  0  0  3  0  0  0  0  0  0
  188.9360  177.2870  145.1820 C   0  0  2  0  0  3  0  0  0  0  0  0
  190.7270  176.5210  140.9700 C   0  0  0  0  0  2  0  0  0  0  0  0
  192.1350  176.9880  140.6170 C   0  0  0  0  0  2  0  0  0  0  0  0
  192.3210  177.2060  139.1160 C   0  0  0  0  0  2  0  0  0  0  0  0
  193.4010  176.3010  138.5460 C   0  0  0  0  0  2  0  0  0  0  0  0
  193.6160  174.0990  136.0210 N   0  0  0  0  0  0  0  0  0  0  0  0
  193.1850  176.1240  137.0560 C   0  0  1  0  0  3  0  0  0  0  0  0
  194.1760  175.1680  136.4850 C   0  0  0  0  0  0  0  0  0  0  0  0
  191.9660  175.3060  136.7980 C   0  0  0  0  0  0  0  0  0  0  0  0
  192.2350  174.1910  136.2080 N   0  0  0  0  0  0  0  0  0  0  0  0
  190.6350  175.7280  137.0840 N   0  0  0  0  0  1  0  0  0  0  0  0
  195.5890  175.3890  136.4620 N   0  0  0  0  0  2  0  0  0  0  0  0
  196.5220  174.4420  135.8590 C   0  0  1  0  0  3  0  0  0  0  0  0
  197.2740  173.6200  136.9020 C   0  0  2  0  0  0  0  0  0  0  0  0
  198.6090  174.2810  137.1970 C   0  0  0  0  0  1  0  0  0  0  0  0
  195.2640  171.4490  136.2030 O   0  0  0  0  0  1  0  0  0  0  0  0
  197.4820  172.3070  136.2790 N   0  0  2  0  0  0  0  0  0  0  0  0
  196.2820  172.0670  135.4600 C   0  0  2  0  0  3  0  0  0  0  0  0
  195.7860  173.4280  135.0040 C   0  0  0  0  0  2  0  0  0  0  0  0
  196.5280  173.5080  138.0870 O   0  0  0  0  0  1  0  0  0  0  0  0
  199.1800  170.8120  137.2010 C   0  0  0  0  0  2  0  0  0  0  0  0
  198.1280  169.9660  136.5240 C   0  0  0  0  0  2  0  0  0  0  0  0
  197.7200  171.2340  137.2530 C   0  0  0  0  0  3  0  0  0  0  0  0
  185.7110  179.4250  145.0290 C   0  0  0  0  0  2  0  0  0  0  0  0
  184.5740  179.3640  144.1800 O   0  0  0  0  0  0  0  0  0  0  0  0
  182.2440  178.9120  143.8010 O   0  0  0  0  0  0  0  0  0  0  0  0
  183.3130  179.0370  144.6770 C   0  0  0  0  0  0  0  0  0  0  0  0
  183.1340  178.8350  145.9110 O   0  0  0  0  0  1  0  0  0  0  0  0
  186.9620  178.0150  139.2070 C   0  0  1  0  0  3  0  0  0  0  0  0
  184.7140  178.9220  139.9020 C   0  0  0  0  0  3  0  0  0  0  0  0
  186.0130  178.7200  140.1410 C   0  0  0  0  0  3  0  0  0  0  0  0
  183.9650  178.4970  138.6980 C   0  0  0  0  0  0  0  0  0  0  0  0
  182.9340  177.5130  138.7990 N   0  0  0  0  0  2  0  0  0  0  0  0
  184.2120  179.0050  137.5720 O   0  0  0  0  0  0  0  0  0  0  0  0
  182.5050  176.9490  140.0710 C   0  0  0  0  0  2  0  0  0  0  0  0
  181.1550  176.2820  139.9100 C   0  0  1  0  0  3  0  0  0  0  0  0
  180.4190  178.0390  141.3430 O   0  0  0  0  0  1  0  0  0  0  0  0
  180.1710  176.9100  140.8470 C   0  0  0  0  0  0  0  0  0  0  0  0
  178.9860  176.2580  141.1680 O   0  0  0  0  0  0  0  0  0  0  0  0
  180.7070  176.3950  138.4440 C   0  0  0  0  0  2  0  0  0  0  0  0
  182.4060  172.2330  136.5490 C   0  0  0  0  0  1  0  0  0  0  0  0
  181.2260  172.8800  137.2480 C   0  0  2  0  0  3  0  0  0  0  0  0
  179.8020  174.1100  135.5570 C   0  0  0  0  0  2  0  0  0  0  0  0
  179.6960  175.3260  136.5000 C   0  0  0  0  0  2  0  0  0  0  0  0
  180.3710  175.1170  137.7990 N   0  0  0  0  0  0  0  0  0  0  0  0
  179.9840  172.8190  136.3490 C   0  0  0  0  0  2  0  0  0  0  0  0
  181.5870  174.3140  137.6480 C   0  0  0  0  0  2  0  0  0  0  0  0
  187.1640  178.6990  137.9860 O   0  0  0  0  0  0  0  0  0  0  0  0
  187.4290  177.7720  136.9600 C   0  0  0  0  0  2  0  0  0  0  0  0
  186.5140  176.5640  137.0910 C   0  0  0  0  0  2  0  0  0  0  0  0
  187.1630  175.3040  136.5350 C   0  0  0  0  0  2  0  0  0  0  0  0
  186.7670  175.0660  135.0820 C   0  0  0  0  0  2  0  0  0  0  0  0
  185.5790  174.1200  134.9810 C   0  0  0  0  0  2  0  0  0  0  0  0
  185.9610  172.8230  135.3160 O   0  0  0  0  0  1  0  0  0  0  0  0
  2  6  1  0  0  0  0
  3  8  2  0  0  0  0
  4  9  1  0  0  0  0
  4 12  1  0  0  0  0
  5  1  1  0  0  0  0
  6 10  1  0  0  0  0
  8  5  1  0  0  0  0
  9  3  2  0  0  0  0
 10 38  1  1  0  0  0
 10 11  1  0  0  0  0
 10  7  1  0  0  0  0
 11  7  1  1  0  0  0
 12  2  1  0  0  0  0
 14  4  2  0  0  0  0
 15  1  1  0  0  0  0
 15 13  1  1  0  0  0
 15 11  1  0  0  0  0
 16  9  1  0  0  0  0
 17 16  1  0  0  0  0
 18 17  1  0  0  0  0
 19 18  1  0  0  0  0
 20 24  1  0  0  0  0
 20 22  2  0  0  0  0
 21 19  1  1  0  0  0
 22 21  1  0  0  0  0
 23 21  1  0  0  0  0
 23 25  1  0  0  0  0
 24 23  2  0  0  0  0
 26 22  1  0  0  0  0
 27 26  1  1  0  0  0
 27 28  1  0  0  0  0
 28 29  1  1  0  0  0
 28 34  1  0  0  0  0
 31 28  1  0  0  0  0
 31 37  1  1  0  0  0
 32 30  1  1  0  0  0
 32 31  1  0  0  0  0
 33 32  1  0  0  0  0
 33 27  1  0  0  0  0
 35 37  1  0  0  0  0
 36 35  1  0  0  0  0
 36 37  1  0  0  0  0
 39 41  1  0  0  0  0
 39 38  1  0  0  0  0
 40 41  2  0  0  0  0
 41 42  1  0  0  0  0
 43 14  1  1  0  0  0
 43 45  1  0  0  0  0
 44 45  2  0  0  0  0
 46 47  1  0  0  0  0
 46 44  1  0  0  0  0
 47 49  1  0  0  0  0
 48 46  2  0  0  0  0
 50 54  1  6  0  0  0
 50 49  1  0  0  0  0
 50 52  1  0  0  0  0
 52 53  2  0  0  0  0
 52 51  1  0  0  0  0
 56 55  1  6  0  0  0
 56 61  1  0  0  0  0
 57 60  1  0  0  0  0
 57 58  1  0  0  0  0
 58 59  1  0  0  0  0
 59 54  1  0  0  0  0
 60 56  1  0  0  0  0
 61 59  1  0  0  0  0
 62 43  1  0  0  0  0
 63 64  1  0  0  0  0
 63 62  1  0  0  0  0
 65 64  1  0  0  0  0
 66 65  1  0  0  0  0
 67 66  1  0  0  0  0
 67 68  1  0  0  0  0
M  END
>  <MODEL>
4

>  <REMARK>
 VINA RESULT:      -4.9      3.190      7.974
  Name = 
  24 active torsions:
  status: ('A' for Active; 'I' for Inactive)
    1  A    between atoms: C_1  and  C_38
    2  A    between atoms: C_1  and  O_52
    3  A    between atoms: C_2  and  C_4
    4  A    between atoms: C_3  and  N_61
    5  A    between atoms: C_5  and  C_35
    6  A    between atoms: C_5  and  N_42
    7  A    between atoms: C_10  and  C_31
    8  A    between atoms: C_10  and  C_58
    9  A    between atoms: C_16  and  C_18
   10  A    between atoms: C_16  and  C_25
   11  A    between atoms: C_18  and  C_27
   12  A    between atoms: C_22  and  C_33
   13  A    between atoms: C_27  and  C_33
   14  A    between atoms: C_29  and  O_52
   15  A    between atoms: C_31  and  C_34
   16  A    between atoms: C_32  and  C_58
   17  A    between atoms: C_34  and  O_56
   18  A    between atoms: C_35  and  C_37
   19  A    between atoms: C_35  and  C_47
   20  A    between atoms: N_36  and  C_67
   21  A    between atoms: C_37  and  N_60
   22  A    between atoms: C_55  and  C_57
   23  A    between atoms: O_56  and  C_57
   24  A    between atoms: C_57  and  C_64
                            x       y       z     vdW  Elec       q    Type
                         _______ _______ _______ _____ _____    ______ ____

>  <TORSDO>
F 24

$$$$
=
 OpenBabel10222418483D

 68 73  0  0  1  0  0  0  0  0999 V2000
  190.5280  177.8750  144.7630 C   0  0  0  0  0  2  0  0  0  0  0  0
  186.1900  178.2860  142.2090 C   0  0  0  0  0  2  0  0  0  0  0  0
  190.2810  178.2800  141.7530 C   0  0  0  0  0  0  0  0  0  0  0  0
  188.1430  177.9760  140.6550 C   0  0  0  0  0  0  0  0  0  0  0  0
  190.6040  179.1890  143.9940 C   0  0  0  0  0  2  0  0  0  0  0  0
  186.5340  177.3630  143.3700 C   0  0  0  0  0  2  0  0  0  0  0  0
  186.9350  177.1780  145.8300 C   0  0  0  0  0  2  0  0  0  0  0  0
  191.0210  178.9750  142.5770 C   0  0  0  0  0  3  0  0  0  0  0  0
  189.5390  177.5750  140.9390 C   0  0  0  0  0  0  0  0  0  0  0  0
  186.7960  178.1310  144.6700 C   0  0  1  0  0  0  0  0  0  0  0  0
  188.1260  178.0230  145.4020 C   0  0  2  0  0  3  0  0  0  0  0  0
  187.4320  178.9180  141.5980 C   0  0  0  0  0  2  0  0  0  0  0  0
  189.2420  175.9160  145.0650 F   0  0  0  0  0  0  0  0  0  0  0  0
  187.5780  177.5880  139.5030 C   0  0  0  0  0  3  0  0  0  0  0  0
  189.1650  177.2200  144.6150 C   0  0  2  0  0  3  0  0  0  0  0  0
  190.2100  176.4980  140.1520 C   0  0  0  0  0  2  0  0  0  0  0  0
  190.7660  177.0290  138.8360 C   0  0  0  0  0  2  0  0  0  0  0  0
  192.1090  176.3980  138.4690 C   0  0  0  0  0  2  0  0  0  0  0  0
  191.9380  174.9800  137.9470 C   0  0  0  0  0  2  0  0  0  0  0  0
  192.1220  173.1180  135.1600 N   0  0  0  0  0  0  0  0  0  0  0  0
  191.7550  175.0100  136.4420 C   0  0  1  0  0  3  0  0  0  0  0  0
  192.7170  174.0890  135.7720 C   0  0  0  0  0  0  0  0  0  0  0  0
  190.5080  174.2930  136.0540 C   0  0  0  0  0  0  0  0  0  0  0  0
  190.7410  173.2530  135.3280 N   0  0  0  0  0  0  0  0  0  0  0  0
  189.1900  174.7400  136.3640 N   0  0  0  0  0  1  0  0  0  0  0  0
  194.1390  174.2410  135.8070 N   0  0  0  0  0  2  0  0  0  0  0  0
  195.0430  173.3360  135.1060 C   0  0  1  0  0  3  0  0  0  0  0  0
  196.4200  173.2640  135.7600 C   0  0  2  0  0  0  0  0  0  0  0  0
  197.3550  174.2440  135.0730 C   0  0  0  0  0  1  0  0  0  0  0  0
  195.3920  170.6570  136.9380 O   0  0  0  0  0  1  0  0  0  0  0  0
  196.8760  171.8860  135.5430 N   0  0  2  0  0  0  0  0  0  0  0  0
  195.6640  171.0540  135.6200 C   0  0  2  0  0  3  0  0  0  0  0  0
  194.5130  171.9150  135.1300 C   0  0  0  0  0  2  0  0  0  0  0  0
  196.3420  173.5640  137.1300 O   0  0  0  0  0  1  0  0  0  0  0  0
  199.1770  171.0870  135.7410 C   0  0  0  0  0  2  0  0  0  0  0  0
  198.2580  170.0030  136.2520 C   0  0  0  0  0  2  0  0  0  0  0  0
  197.9110  171.4610  136.4950 C   0  0  0  0  0  3  0  0  0  0  0  0
  185.9550  179.3430  145.0380 C   0  0  0  0  0  2  0  0  0  0  0  0
  184.7820  179.3960  144.2380 O   0  0  0  0  0  0  0  0  0  0  0  0
  182.6810  178.3410  143.7390 O   0  0  0  0  0  0  0  0  0  0  0  0
  183.5810  178.8360  144.6720 C   0  0  0  0  0  0  0  0  0  0  0  0
  183.3100  178.7570  145.9030 O   0  0  0  0  0  1  0  0  0  0  0  0
  186.1940  177.9890  139.0740 C   0  0  1  0  0  3  0  0  0  0  0  0
  184.3940  179.3880  140.1520 C   0  0  0  0  0  3  0  0  0  0  0  0
  185.6730  179.1920  139.8160 C   0  0  0  0  0  3  0  0  0  0  0  0
  183.2610  178.4780  139.8700 C   0  0  0  0  0  0  0  0  0  0  0  0
  182.1320  178.9410  139.1250 N   0  0  0  0  0  2  0  0  0  0  0  0
  183.2790  177.2830  140.2680 O   0  0  0  0  0  0  0  0  0  0  0  0
  182.0690  180.2690  138.5350 C   0  0  0  0  0  2  0  0  0  0  0  0
  181.0540  180.2860  137.4110 C   0  0  1  0  0  3  0  0  0  0  0  0
  179.8380  178.3210  136.8250 O   0  0  0  0  0  1  0  0  0  0  0  0
  180.9450  178.9190  136.8130 C   0  0  0  0  0  0  0  0  0  0  0  0
  182.0550  178.3070  136.2420 O   0  0  0  0  0  0  0  0  0  0  0  0
  179.7050  180.7850  137.9560 C   0  0  0  0  0  2  0  0  0  0  0  0
  180.9950  184.7520  135.4280 C   0  0  0  0  0  1  0  0  0  0  0  0
  179.8190  183.9270  135.9160 C   0  0  2  0  0  3  0  0  0  0  0  0
  179.2850  184.5360  138.3130 C   0  0  0  0  0  2  0  0  0  0  0  0
  179.1500  183.0450  138.6820 C   0  0  0  0  0  2  0  0  0  0  0  0
  179.3260  182.1390  137.5270 N   0  0  0  0  0  0  0  0  0  0  0  0
  178.9360  184.7690  136.8460 C   0  0  0  0  0  2  0  0  0  0  0  0
  180.3310  182.6520  136.5920 C   0  0  0  0  0  2  0  0  0  0  0  0
  186.0630  178.0920  137.6710 O   0  0  0  0  0  0  0  0  0  0  0  0
  185.1900  177.0940  137.1990 C   0  0  0  0  0  2  0  0  0  0  0  0
  185.7910  176.3980  135.9870 C   0  0  0  0  0  2  0  0  0  0  0  0
  185.5570  174.8940  136.0280 C   0  0  0  0  0  2  0  0  0  0  0  0
  184.0690  174.5620  136.0820 C   0  0  0  0  0  2  0  0  0  0  0  0
  183.8180  173.0960  135.7620 C   0  0  0  0  0  2  0  0  0  0  0  0
  185.0110  172.3770  135.8090 O   0  0  0  0  0  1  0  0  0  0  0  0
  2  6  1  0  0  0  0
  3  8  2  0  0  0  0
  4  9  1  0  0  0  0
  4 12  1  0  0  0  0
  5  1  1  0  0  0  0
  6 10  1  0  0  0  0
  8  5  1  0  0  0  0
  9  3  2  0  0  0  0
 10 38  1  1  0  0  0
 10 11  1  0  0  0  0
 10  7  1  0  0  0  0
 11  7  1  1  0  0  0
 12  2  1  0  0  0  0
 14  4  2  0  0  0  0
 15  1  1  0  0  0  0
 15 13  1  1  0  0  0
 15 11  1  0  0  0  0
 16  9  1  0  0  0  0
 17 16  1  0  0  0  0
 18 17  1  0  0  0  0
 19 18  1  0  0  0  0
 20 24  1  0  0  0  0
 20 22  2  0  0  0  0
 21 19  1  1  0  0  0
 22 26  1  0  0  0  0
 22 21  1  0  0  0  0
 23 25  1  0  0  0  0
 23 21  1  0  0  0  0
 24 23  2  0  0  0  0
 27 33  1  0  0  0  0
 27 28  1  0  0  0  0
 27 26  1  1  0  0  0
 28 29  1  6  0  0  0
 28 34  1  0  0  0  0
 31 32  1  0  0  0  0
 31 28  1  0  0  0  0
 31 37  1  1  0  0  0
 32 30  1  1  0  0  0
 33 32  1  0  0  0  0
 35 36  1  0  0  0  0
 35 37  1  0  0  0  0
 36 37  1  0  0  0  0
 39 41  1  0  0  0  0
 39 38  1  0  0  0  0
 40 41  2  0  0  0  0
 41 42  1  0  0  0  0
 43 14  1  6  0  0  0
 43 45  1  0  0  0  0
 45 44  2  0  0  0  0
 46 44  1  0  0  0  0
 46 48  2  0  0  0  0
 47 46  1  0  0  0  0
 49 47  1  0  0  0  0
 50 54  1  1  0  0  0
 50 49  1  0  0  0  0
 52 51  1  0  0  0  0
 52 50  1  0  0  0  0
 53 52  2  0  0  0  0
 56 55  1  1  0  0  0
 56 61  1  0  0  0  0
 56 60  1  0  0  0  0
 57 58  1  0  0  0  0
 59 54  1  0  0  0  0
 59 58  1  0  0  0  0
 60 57  1  0  0  0  0
 61 59  1  0  0  0  0
 62 43  1  0  0  0  0
 63 62  1  0  0  0  0
 64 65  1  0  0  0  0
 64 63  1  0  0  0  0
 65 66  1  0  0  0  0
 67 68  1  0  0  0  0
 67 66  1  0  0  0  0
M  END
>  <MODEL>
5

>  <REMARK>
 VINA RESULT:      -4.9      3.252      8.333
  Name = 
  24 active torsions:
  status: ('A' for Active; 'I' for Inactive)
    1  A    between atoms: C_1  and  C_38
    2  A    between atoms: C_1  and  O_52
    3  A    between atoms: C_2  and  C_4
    4  A    between atoms: C_3  and  N_61
    5  A    between atoms: C_5  and  C_35
    6  A    between atoms: C_5  and  N_42
    7  A    between atoms: C_10  and  C_31
    8  A    between atoms: C_10  and  C_58
    9  A    between atoms: C_16  and  C_18
   10  A    between atoms: C_16  and  C_25
   11  A    between atoms: C_18  and  C_27
   12  A    between atoms: C_22  and  C_33
   13  A    between atoms: C_27  and  C_33
   14  A    between atoms: C_29  and  O_52
   15  A    between atoms: C_31  and  C_34
   16  A    between atoms: C_32  and  C_58
   17  A    between atoms: C_34  and  O_56
   18  A    between atoms: C_35  and  C_37
   19  A    between atoms: C_35  and  C_47
   20  A    between atoms: N_36  and  C_67
   21  A    between atoms: C_37  and  N_60
   22  A    between atoms: C_55  and  C_57
   23  A    between atoms: O_56  and  C_57
   24  A    between atoms: C_57  and  C_64
                            x       y       z     vdW  Elec       q    Type
                         _______ _______ _______ _____ _____    ______ ____

>  <TORSDO>
F 24

$$$$
=
 OpenBabel10222418483D

 68 73  0  0  1  0  0  0  0  0999 V2000
  192.1310  176.3750  142.4750 C   0  0  0  0  0  2  0  0  0  0  0  0
  187.5030  178.1240  143.4880 C   0  0  0  0  0  2  0  0  0  0  0  0
  190.2730  177.7210  140.4710 C   0  0  0  0  0  0  0  0  0  0  0  0
  187.9360  178.0570  141.0110 C   0  0  0  0  0  0  0  0  0  0  0  0
  192.1240  177.8400  142.0560 C   0  0  0  0  0  2  0  0  0  0  0  0
  188.1750  176.8500  143.9820 C   0  0  0  0  0  2  0  0  0  0  0  0
  189.8850  175.8610  145.5120 C   0  0  0  0  0  2  0  0  0  0  0  0
  191.5240  178.0230  140.7010 C   0  0  0  0  0  3  0  0  0  0  0  0
  189.0240  177.4070  140.2470 C   0  0  0  0  0  0  0  0  0  0  0  0
  189.3760  177.1360  144.8900 C   0  0  1  0  0  0  0  0  0  0  0  0
  190.7700  176.6320  144.5440 C   0  0  2  0  0  3  0  0  0  0  0  0
  188.2530  178.7450  142.3190 C   0  0  0  0  0  2  0  0  0  0  0  0
  190.7660  174.6050  143.2440 F   0  0  0  0  0  0  0  0  0  0  0  0
  186.7120  178.1230  140.4700 C   0  0  0  0  0  3  0  0  0  0  0  0
  190.8320  175.9830  143.1590 C   0  0  2  0  0  3  0  0  0  0  0  0
  188.7300  176.5480  139.0610 C   0  0  0  0  0  2  0  0  0  0  0  0
  189.6180  176.9070  137.8750 C   0  0  0  0  0  2  0  0  0  0  0  0
  190.4070  175.7090  137.3490 C   0  0  0  0  0  2  0  0  0  0  0  0
  191.7220  176.1370  136.7160 C   0  0  0  0  0  2  0  0  0  0  0  0
  192.4540  173.5720  134.6790 N   0  0  0  0  0  0  0  0  0  0  0  0
  191.7560  175.6990  135.2650 C   0  0  1  0  0  3  0  0  0  0  0  0
  192.8750  174.7440  135.0240 C   0  0  0  0  0  0  0  0  0  0  0  0
  190.6390  174.7550  134.9780 C   0  0  0  0  0  0  0  0  0  0  0  0
  191.0580  173.5840  134.6400 N   0  0  0  0  0  0  0  0  0  0  0  0
  189.2590  175.1120  134.9840 N   0  0  0  0  0  1  0  0  0  0  0  0
  194.2600  175.0700  135.1720 N   0  0  0  0  0  2  0  0  0  0  0  0
  195.3260  174.1140  134.8900 C   0  0  1  0  0  3  0  0  0  0  0  0
  196.3300  174.0060  136.0350 C   0  0  2  0  0  0  0  0  0  0  0  0
  197.5030  174.9320  135.7630 C   0  0  0  0  0  1  0  0  0  0  0  0
  194.8060  171.4710  136.7350 O   0  0  0  0  0  1  0  0  0  0  0  0
  196.7730  172.6070  136.0260 N   0  0  2  0  0  0  0  0  0  0  0  0
  195.5910  171.8240  135.6260 C   0  0  2  0  0  3  0  0  0  0  0  0
  194.7650  172.7150  134.7160 C   0  0  0  0  0  2  0  0  0  0  0  0
  195.7340  174.3430  137.2610 O   0  0  0  0  0  1  0  0  0  0  0  0
  198.8270  171.9420  137.1710 C   0  0  0  0  0  2  0  0  0  0  0  0
  197.8850  170.7600  137.1710 C   0  0  0  0  0  2  0  0  0  0  0  0
  197.3290  172.1660  137.3120 C   0  0  0  0  0  3  0  0  0  0  0  0
  189.3340  178.2750  145.8970 C   0  0  0  0  0  2  0  0  0  0  0  0
  189.7540  177.8230  147.1760 O   0  0  0  0  0  0  0  0  0  0  0  0
  187.6940  177.2840  148.2920 O   0  0  0  0  0  0  0  0  0  0  0  0
  188.9240  177.9280  148.2920 C   0  0  0  0  0  0  0  0  0  0  0  0
  189.2830  178.5850  149.3080 O   0  0  0  0  0  1  0  0  0  0  0  0
  185.5460  178.8160  141.1200 C   0  0  1  0  0  3  0  0  0  0  0  0
  183.3000  178.2970  140.0970 C   0  0  0  0  0  3  0  0  0  0  0  0
  184.2580  178.0440  140.9940 C   0  0  0  0  0  3  0  0  0  0  0  0
  183.3180  179.3610  139.0680 C   0  0  0  0  0  0  0  0  0  0  0  0
  182.2950  179.4170  138.0700 N   0  0  0  0  0  2  0  0  0  0  0  0
  184.2210  180.2390  139.0620 O   0  0  0  0  0  0  0  0  0  0  0  0
  181.1550  178.5130  138.0600 C   0  0  0  0  0  2  0  0  0  0  0  0
  181.6270  177.0840  138.2280 C   0  0  1  0  0  3  0  0  0  0  0  0
  179.4050  176.2240  138.1710 O   0  0  0  0  0  0  0  0  0  0  0  0
  180.5110  176.2470  138.7690 C   0  0  0  0  0  0  0  0  0  0  0  0
  180.6890  175.4940  139.9250 O   0  0  0  0  0  1  0  0  0  0  0  0
  182.1360  176.5580  136.8750 C   0  0  0  0  0  2  0  0  0  0  0  0
  186.7730  177.3470  135.5790 C   0  0  0  0  0  1  0  0  0  0  0  0
  185.8730  176.6720  136.5960 C   0  0  2  0  0  3  0  0  0  0  0  0
  185.0580  174.4590  135.6800 C   0  0  0  0  0  2  0  0  0  0  0  0
  183.6250  174.7660  136.1590 C   0  0  0  0  0  2  0  0  0  0  0  0
  183.5140  176.0470  136.8880 N   0  0  0  0  0  0  0  0  0  0  0  0
  186.0890  175.1530  136.5650 C   0  0  0  0  0  2  0  0  0  0  0  0
  184.4150  177.0600  136.3320 C   0  0  0  0  0  2  0  0  0  0  0  0
  185.8250  179.2370  142.4390 O   0  0  0  0  0  0  0  0  0  0  0  0
  184.6730  179.8100  143.0100 C   0  0  0  0  0  2  0  0  0  0  0  0
  184.1350  178.9190  144.1200 C   0  0  0  0  0  2  0  0  0  0  0  0
  182.6810  179.2360  144.4410 C   0  0  0  0  0  2  0  0  0  0  0  0
  181.7290  178.3060  143.6970 C   0  0  0  0  0  2  0  0  0  0  0  0
  180.4640  179.0360  143.2700 C   0  0  0  0  0  2  0  0  0  0  0  0
  180.7390  180.3800  143.0250 O   0  0  0  0  0  1  0  0  0  0  0  0
  1 15  1  0  0  0  0
  2  6  1  0  0  0  0
  3  8  2  0  0  0  0
  4 12  1  0  0  0  0
  5  1  1  0  0  0  0
  6 10  1  0  0  0  0
  8  5  1  0  0  0  0
  9  3  2  0  0  0  0
  9  4  1  0  0  0  0
 10  7  1  0  0  0  0
 10 38  1  1  0  0  0
 11 10  1  0  0  0  0
 11  7  1  1  0  0  0
 12  2  1  0  0  0  0
 14  4  2  0  0  0  0
 15 13  1  1  0  0  0
 15 11  1  0  0  0  0
 16  9  1  0  0  0  0
 17 16  1  0  0  0  0
 18 17  1  0  0  0  0
 19 18  1  0  0  0  0
 20 22  2  0  0  0  0
 21 19  1  1  0  0  0
 22 26  1  0  0  0  0
 22 21  1  0  0  0  0
 23 25  1  0  0  0  0
 23 21  1  0  0  0  0
 24 20  1  0  0  0  0
 24 23  2  0  0  0  0
 27 26  1  1  0  0  0
 27 28  1  0  0  0  0
 28 29  1  6  0  0  0
 28 34  1  0  0  0  0
 31 28  1  0  0  0  0
 31 37  1  1  0  0  0
 32 31  1  0  0  0  0
 32 30  1  1  0  0  0
 33 27  1  0  0  0  0
 33 32  1  0  0  0  0
 35 36  1  0  0  0  0
 35 37  1  0  0  0  0
 36 37  1  0  0  0  0
 38 39  1  0  0  0  0
 39 41  1  0  0  0  0
 41 40  2  0  0  0  0
 41 42  1  0  0  0  0
 43 14  1  1  0  0  0
 43 62  1  0  0  0  0
 44 45  2  0  0  0  0
 45 43  1  0  0  0  0
 46 44  1  0  0  0  0
 47 46  1  0  0  0  0
 48 46  2  0  0  0  0
 49 47  1  0  0  0  0
 49 50  1  0  0  0  0
 50 54  1  6  0  0  0
 50 52  1  0  0  0  0
 51 52  2  0  0  0  0
 52 53  1  0  0  0  0
 54 59  1  0  0  0  0
 56 55  1  6  0  0  0
 57 58  1  0  0  0  0
 57 60  1  0  0  0  0
 58 59  1  0  0  0  0
 60 56  1  0  0  0  0
 61 56  1  0  0  0  0
 61 59  1  0  0  0  0
 62 63  1  0  0  0  0
 63 64  1  0  0  0  0
 64 65  1  0  0  0  0
 66 65  1  0  0  0  0
 67 66  1  0  0  0  0
 68 67  1  0  0  0  0
M  END
>  <MODEL>
6

>  <REMARK>
 VINA RESULT:      -4.6      3.058      8.175
  Name = 
  24 active torsions:
  status: ('A' for Active; 'I' for Inactive)
    1  A    between atoms: C_1  and  C_38
    2  A    between atoms: C_1  and  O_52
    3  A    between atoms: C_2  and  C_4
    4  A    between atoms: C_3  and  N_61
    5  A    between atoms: C_5  and  C_35
    6  A    between atoms: C_5  and  N_42
    7  A    between atoms: C_10  and  C_31
    8  A    between atoms: C_10  and  C_58
    9  A    between atoms: C_16  and  C_18
   10  A    between atoms: C_16  and  C_25
   11  A    between atoms: C_18  and  C_27
   12  A    between atoms: C_22  and  C_33
   13  A    between atoms: C_27  and  C_33
   14  A    between atoms: C_29  and  O_52
   15  A    between atoms: C_31  and  C_34
   16  A    between atoms: C_32  and  C_58
   17  A    between atoms: C_34  and  O_56
   18  A    between atoms: C_35  and  C_37
   19  A    between atoms: C_35  and  C_47
   20  A    between atoms: N_36  and  C_67
   21  A    between atoms: C_37  and  N_60
   22  A    between atoms: C_55  and  C_57
   23  A    between atoms: O_56  and  C_57
   24  A    between atoms: C_57  and  C_64
                            x       y       z     vdW  Elec       q    Type
                         _______ _______ _______ _____ _____    ______ ____

>  <TORSDO>
F 24

$$$$
=
 OpenBabel10222418483D

 68 73  0  0  1  0  0  0  0  0999 V2000
  191.8440  176.4460  142.1080 C   0  0  0  0  0  2  0  0  0  0  0  0
  187.2530  178.1620  143.3280 C   0  0  0  0  0  2  0  0  0  0  0  0
  189.9180  177.8440  140.2070 C   0  0  0  0  0  0  0  0  0  0  0  0
  187.6010  178.1630  140.8360 C   0  0  0  0  0  0  0  0  0  0  0  0
  191.8220  177.9220  141.7290 C   0  0  0  0  0  2  0  0  0  0  0  0
  187.9410  176.8760  143.7630 C   0  0  0  0  0  2  0  0  0  0  0  0
  189.7030  175.8470  145.2060 C   0  0  0  0  0  2  0  0  0  0  0  0
  191.1760  178.1410  140.4020 C   0  0  0  0  0  3  0  0  0  0  0  0
  188.6610  177.5360  140.0170 C   0  0  0  0  0  0  0  0  0  0  0  0
  189.1730  177.1380  144.6360 C   0  0  1  0  0  0  0  0  0  0  0  0
  190.5550  176.6450  144.2290 C   0  0  2  0  0  3  0  0  0  0  0  0
  187.9620  178.8150  142.1500 C   0  0  0  0  0  2  0  0  0  0  0  0
  190.5050  174.6540  142.8750 F   0  0  0  0  0  0  0  0  0  0  0  0
  186.3580  178.2430  140.3400 C   0  0  0  0  0  3  0  0  0  0  0  0
  190.5690  176.0340  142.8250 C   0  0  2  0  0  3  0  0  0  0  0  0
  188.3270  176.7090  138.8200 C   0  0  0  0  0  2  0  0  0  0  0  0
  188.9940  177.2510  137.5600 C   0  0  0  0  0  2  0  0  0  0  0  0
  189.3400  176.1490  136.5590 C   0  0  0  0  0  2  0  0  0  0  0  0
  190.7260  176.3460  135.9660 C   0  0  0  0  0  2  0  0  0  0  0  0
  191.7550  173.1590  135.7300 N   0  0  0  0  0  0  0  0  0  0  0  0
  191.0250  175.2270  134.9880 C   0  0  1  0  0  3  0  0  0  0  0  0
  192.1380  174.3690  135.4860 C   0  0  0  0  0  0  0  0  0  0  0  0
  189.9550  174.1910  135.0360 C   0  0  0  0  0  0  0  0  0  0  0  0
  190.3930  173.0470  135.4380 N   0  0  0  0  0  0  0  0  0  0  0  0
  188.6120  174.3970  134.6060 N   0  0  0  0  0  1  0  0  0  0  0  0
  193.4790  174.8250  135.6910 N   0  0  0  0  0  2  0  0  0  0  0  0
  194.5470  173.9420  136.1460 C   0  0  1  0  0  3  0  0  0  0  0  0
  195.9310  174.5610  135.9680 C   0  0  2  0  0  0  0  0  0  0  0  0
  196.5230  174.0980  134.6480 C   0  0  0  0  0  1  0  0  0  0  0  0
  195.7190  175.1530  138.9420 O   0  0  0  0  0  1  0  0  0  0  0  0
  196.7270  174.0500  137.0910 N   0  0  2  0  0  0  0  0  0  0  0  0
  195.7910  173.9510  138.2220 C   0  0  2  0  0  3  0  0  0  0  0  0
  194.4220  173.6610  137.6320 C   0  0  0  0  0  2  0  0  0  0  0  0
  195.8610  175.9630  135.9900 O   0  0  0  0  0  1  0  0  0  0  0  0
  199.1360  174.0120  137.4970 C   0  0  0  0  0  2  0  0  0  0  0  0
  198.4550  174.4950  138.7570 C   0  0  0  0  0  2  0  0  0  0  0  0
  197.8950  174.8850  137.4000 C   0  0  0  0  0  3  0  0  0  0  0  0
  189.1660  178.2490  145.6750 C   0  0  0  0  0  2  0  0  0  0  0  0
  190.3330  178.1820  146.4820 O   0  0  0  0  0  0  0  0  0  0  0  0
  189.0310  177.9400  148.4880 O   0  0  0  0  0  0  0  0  0  0  0  0
  190.2580  177.8840  147.8420 C   0  0  0  0  0  0  0  0  0  0  0  0
  191.2880  177.5460  148.4900 O   0  0  0  0  0  1  0  0  0  0  0  0
  185.2160  178.9170  141.0480 C   0  0  1  0  0  3  0  0  0  0  0  0
  183.1500  177.8610  140.0590 C   0  0  0  0  0  3  0  0  0  0  0  0
  183.9700  178.0700  141.0930 C   0  0  0  0  0  3  0  0  0  0  0  0
  183.3030  178.4060  138.6910 C   0  0  0  0  0  0  0  0  0  0  0  0
  182.4090  178.0040  137.6500 N   0  0  0  0  0  2  0  0  0  0  0  0
  184.2090  179.2400  138.4260 O   0  0  0  0  0  0  0  0  0  0  0  0
  181.2690  177.1300  137.8850 C   0  0  0  0  0  2  0  0  0  0  0  0
  181.7340  175.6930  137.9930 C   0  0  1  0  0  3  0  0  0  0  0  0
  180.5080  175.2910  139.9980 O   0  0  0  0  0  1  0  0  0  0  0  0
  180.7650  174.9140  138.8260 C   0  0  0  0  0  0  0  0  0  0  0  0
  180.1440  173.7810  138.3120 O   0  0  0  0  0  0  0  0  0  0  0  0
  181.8850  175.1030  136.5810 C   0  0  0  0  0  2  0  0  0  0  0  0
  183.7910  170.6540  135.9690 C   0  0  0  0  0  1  0  0  0  0  0  0
  183.9640  172.1260  135.6480 C   0  0  2  0  0  3  0  0  0  0  0  0
  185.0630  173.3030  137.5990 C   0  0  0  0  0  2  0  0  0  0  0  0
  184.0540  174.4650  137.4930 C   0  0  0  0  0  2  0  0  0  0  0  0
  183.1070  174.3140  136.3670 N   0  0  0  0  0  0  0  0  0  0  0  0
  185.2810  172.6440  136.2410 C   0  0  0  0  0  2  0  0  0  0  0  0
  182.7490  172.9100  136.1530 C   0  0  0  0  0  2  0  0  0  0  0  0
  185.5850  179.4450  142.3050 O   0  0  0  0  0  0  0  0  0  0  0  0
  184.4330  179.8170  143.0230 C   0  0  0  0  0  2  0  0  0  0  0  0
  183.8900  178.6280  143.8010 C   0  0  0  0  0  2  0  0  0  0  0  0
  183.9550  178.8620  145.3040 C   0  0  0  0  0  2  0  0  0  0  0  0
  185.3100  179.4220  145.7240 C   0  0  0  0  0  2  0  0  0  0  0  0
  185.8050  178.7680  147.0060 C   0  0  0  0  0  2  0  0  0  0  0  0
  186.1560  177.4400  146.7690 O   0  0  0  0  0  1  0  0  0  0  0  0
  1 15  1  0  0  0  0
  2  6  1  0  0  0  0
  3  8  2  0  0  0  0
  4 12  1  0  0  0  0
  5  1  1  0  0  0  0
  6 10  1  0  0  0  0
  8  5  1  0  0  0  0
  9  3  2  0  0  0  0
  9  4  1  0  0  0  0
 10  7  1  0  0  0  0
 10 38  1  1  0  0  0
 11 10  1  0  0  0  0
 11  7  1  1  0  0  0
 12  2  1  0  0  0  0
 14  4  2  0  0  0  0
 15 13  1  1  0  0  0
 15 11  1  0  0  0  0
 16  9  1  0  0  0  0
 17 16  1  0  0  0  0
 18 17  1  0  0  0  0
 19 18  1  0  0  0  0
 21 23  1  0  0  0  0
 21 22  1  0  0  0  0
 21 19  1  1  0  0  0
 22 26  1  0  0  0  0
 22 20  2  0  0  0  0
 23 24  2  0  0  0  0
 24 20  1  0  0  0  0
 25 23  1  0  0  0  0
 27 26  1  1  0  0  0
 27 33  1  0  0  0  0
 28 29  1  6  0  0  0
 28 34  1  0  0  0  0
 28 27  1  0  0  0  0
 28 31  1  0  0  0  0
 31 37  1  1  0  0  0
 31 32  1  0  0  0  0
 32 30  1  6  0  0  0
 33 32  1  0  0  0  0
 35 36  1  0  0  0  0
 37 35  1  0  0  0  0
 37 36  1  0  0  0  0
 38 39  1  0  0  0  0
 39 41  1  0  0  0  0
 41 40  2  0  0  0  0
 41 42  1  0  0  0  0
 43 14  1  1  0  0  0
 43 45  1  0  0  0  0
 43 62  1  0  0  0  0
 44 45  2  0  0  0  0
 46 44  1  0  0  0  0
 47 49  1  0  0  0  0
 47 46  1  0  0  0  0
 48 46  2  0  0  0  0
 49 50  1  0  0  0  0
 50 54  1  6  0  0  0
 50 52  1  0  0  0  0
 52 51  1  0  0  0  0
 53 52  2  0  0  0  0
 56 55  1  1  0  0  0
 56 61  1  0  0  0  0
 56 60  1  0  0  0  0
 58 57  1  0  0  0  0
 59 54  1  0  0  0  0
 59 58  1  0  0  0  0
 60 57  1  0  0  0  0
 61 59  1  0  0  0  0
 62 63  1  0  0  0  0
 63 64  1  0  0  0  0
 64 65  1  0  0  0  0
 65 66  1  0  0  0  0
 66 67  1  0  0  0  0
 68 67  1  0  0  0  0
M  END
>  <MODEL>
7

>  <REMARK>
 VINA RESULT:      -4.6      3.284      8.268
  Name = 
  24 active torsions:
  status: ('A' for Active; 'I' for Inactive)
    1  A    between atoms: C_1  and  C_38
    2  A    between atoms: C_1  and  O_52
    3  A    between atoms: C_2  and  C_4
    4  A    between atoms: C_3  and  N_61
    5  A    between atoms: C_5  and  C_35
    6  A    between atoms: C_5  and  N_42
    7  A    between atoms: C_10  and  C_31
    8  A    between atoms: C_10  and  C_58
    9  A    between atoms: C_16  and  C_18
   10  A    between atoms: C_16  and  C_25
   11  A    between atoms: C_18  and  C_27
   12  A    between atoms: C_22  and  C_33
   13  A    between atoms: C_27  and  C_33
   14  A    between atoms: C_29  and  O_52
   15  A    between atoms: C_31  and  C_34
   16  A    between atoms: C_32  and  C_58
   17  A    between atoms: C_34  and  O_56
   18  A    between atoms: C_35  and  C_37
   19  A    between atoms: C_35  and  C_47
   20  A    between atoms: N_36  and  C_67
   21  A    between atoms: C_37  and  N_60
   22  A    between atoms: C_55  and  C_57
   23  A    between atoms: O_56  and  C_57
   24  A    between atoms: C_57  and  C_64
                            x       y       z     vdW  Elec       q    Type
                         _______ _______ _______ _____ _____    ______ ____

>  <TORSDO>
F 24

$$$$
=
 OpenBabel10222418483D

 68 73  0  0  1  0  0  0  0  0999 V2000
  190.5120  177.9330  144.7020 C   0  0  0  0  0  2  0  0  0  0  0  0
  186.0470  178.1360  142.3490 C   0  0  0  0  0  2  0  0  0  0  0  0
  190.1060  178.4040  141.7190 C   0  0  0  0  0  0  0  0  0  0  0  0
  187.9450  177.9940  140.7040 C   0  0  0  0  0  0  0  0  0  0  0  0
  190.4710  179.2700  143.9700 C   0  0  0  0  0  2  0  0  0  0  0  0
  186.5000  177.2050  143.4650 C   0  0  0  0  0  2  0  0  0  0  0  0
  187.0200  176.9790  145.8990 C   0  0  0  0  0  2  0  0  0  0  0  0
  190.8370  179.1220  142.5310 C   0  0  0  0  0  3  0  0  0  0  0  0
  189.3750  177.6760  140.9160 C   0  0  0  0  0  0  0  0  0  0  0  0
  186.7710  177.9530  144.7760 C   0  0  1  0  0  0  0  0  0  0  0  0
  188.1360  177.9100  145.4470 C   0  0  2  0  0  3  0  0  0  0  0  0
  187.2190  178.8620  141.7050 C   0  0  0  0  0  2  0  0  0  0  0  0
  189.3650  175.8880  144.9990 F   0  0  0  0  0  0  0  0  0  0  0  0
  187.3540  177.6030  139.5660 C   0  0  0  0  0  3  0  0  0  0  0  0
  189.1870  177.1960  144.5930 C   0  0  2  0  0  3  0  0  0  0  0  0
  190.0760  176.6650  140.0700 C   0  0  0  0  0  2  0  0  0  0  0  0
  191.0990  177.3200  139.1470 C   0  0  0  0  0  2  0  0  0  0  0  0
  192.3880  176.5080  139.0330 C   0  0  0  0  0  2  0  0  0  0  0  0
  192.2990  175.4660  137.9300 C   0  0  0  0  0  2  0  0  0  0  0  0
  193.2590  174.7420  134.7950 N   0  0  0  0  0  0  0  0  0  0  0  0
  192.7410  176.0760  136.6140 C   0  0  1  0  0  3  0  0  0  0  0  0
  193.7170  175.1900  135.9180 C   0  0  0  0  0  0  0  0  0  0  0  0
  191.6500  175.9840  135.6030 C   0  0  0  0  0  0  0  0  0  0  0  0
  191.9720  175.2470  134.5950 N   0  0  0  0  0  0  0  0  0  0  0  0
  190.4160  176.6940  135.6800 N   0  0  0  0  0  1  0  0  0  0  0  0
  195.0090  174.8530  136.4300 N   0  0  0  0  0  2  0  0  0  0  0  0
  195.9480  174.0100  135.6980 C   0  0  1  0  0  3  0  0  0  0  0  0
  196.9770  173.3510  136.6130 C   0  0  2  0  0  0  0  0  0  0  0  0
  198.2360  174.2000  136.6490 C   0  0  0  0  0  1  0  0  0  0  0  0
  195.2040  170.8970  136.3400 O   0  0  0  0  0  1  0  0  0  0  0  0
  197.2580  172.0480  135.9990 N   0  0  2  0  0  0  0  0  0  0  0  0
  195.9810  171.6070  135.4120 C   0  0  2  0  0  3  0  0  0  0  0  0
  195.2270  172.8640  135.0140 C   0  0  0  0  0  2  0  0  0  0  0  0
  196.4690  173.2010  137.9140 O   0  0  0  0  0  1  0  0  0  0  0  0
  199.0780  170.4600  136.3670 C   0  0  0  0  0  2  0  0  0  0  0  0
  197.7820  169.6850  136.3180 C   0  0  0  0  0  2  0  0  0  0  0  0
  197.8090  171.0680  136.9440 C   0  0  0  0  0  3  0  0  0  0  0  0
  185.8720  179.0980  145.2160 C   0  0  0  0  0  2  0  0  0  0  0  0
  184.5180  178.6750  145.2730 O   0  0  0  0  0  0  0  0  0  0  0  0
  182.3040  178.6350  144.3370 O   0  0  0  0  0  1  0  0  0  0  0  0
  183.5420  179.2500  144.4590 C   0  0  0  0  0  0  0  0  0  0  0  0
  183.7640  180.3320  143.8470 O   0  0  0  0  0  0  0  0  0  0  0  0
  185.9300  177.9260  139.2090 C   0  0  1  0  0  3  0  0  0  0  0  0
  184.2140  179.6210  139.9460 C   0  0  0  0  0  3  0  0  0  0  0  0
  185.4850  179.2700  139.7250 C   0  0  0  0  0  3  0  0  0  0  0  0
  183.0180  178.7740  139.7350 C   0  0  0  0  0  0  0  0  0  0  0  0
  181.8890  179.2850  139.0240 N   0  0  0  0  0  2  0  0  0  0  0  0
  182.9820  177.5910  140.1640 O   0  0  0  0  0  0  0  0  0  0  0  0
  181.8790  180.5990  138.3990 C   0  0  0  0  0  2  0  0  0  0  0  0
  180.6560  180.7430  137.5180 C   0  0  1  0  0  3  0  0  0  0  0  0
  179.3040  182.5220  138.3510 O   0  0  0  0  0  1  0  0  0  0  0  0
  180.1920  182.1660  137.5330 C   0  0  0  0  0  0  0  0  0  0  0  0
  180.7360  183.0960  136.6550 O   0  0  0  0  0  0  0  0  0  0  0  0
  180.9980  180.2650  136.0970 C   0  0  0  0  0  2  0  0  0  0  0  0
  179.3920  176.0020  137.8430 C   0  0  0  0  0  1  0  0  0  0  0  0
  179.3500  176.9440  136.6560 C   0  0  2  0  0  3  0  0  0  0  0  0
  181.4030  176.5990  135.2170 C   0  0  0  0  0  2  0  0  0  0  0  0
  181.6010  178.1240  135.0980 C   0  0  0  0  0  2  0  0  0  0  0  0
  180.5430  178.9040  135.7760 N   0  0  0  0  0  0  0  0  0  0  0  0
  179.9290  176.2540  135.4140 C   0  0  0  0  0  2  0  0  0  0  0  0
  180.0890  178.2410  137.0000 C   0  0  0  0  0  2  0  0  0  0  0  0
  185.6500  177.7270  137.8380 O   0  0  0  0  0  0  0  0  0  0  0  0
  186.8540  177.6480  137.1130 C   0  0  0  0  0  2  0  0  0  0  0  0
  187.4350  176.2450  137.2070 C   0  0  0  0  0  2  0  0  0  0  0  0
  187.0070  175.3790  136.0290 C   0  0  0  0  0  2  0  0  0  0  0  0
  185.8430  174.4680  136.4010 C   0  0  0  0  0  2  0  0  0  0  0  0
  186.1890  173.0050  136.1660 C   0  0  0  0  0  2  0  0  0  0  0  0
  186.8740  172.8560  134.9620 O   0  0  0  0  0  1  0  0  0  0  0  0
  2  6  1  0  0  0  0
  3  8  2  0  0  0  0
  4  9  1  0  0  0  0
  4 12  1  0  0  0  0
  5  1  1  0  0  0  0
  6 10  1  0  0  0  0
  8  5  1  0  0  0  0
  9  3  2  0  0  0  0
 10 38  1  1  0  0  0
 10 11  1  0  0  0  0
 10  7  1  0  0  0  0
 11  7  1  1  0  0  0
 12  2  1  0  0  0  0
 14  4  2  0  0  0  0
 15  1  1  0  0  0  0
 15 13  1  1  0  0  0
 15 11  1  0  0  0  0
 16  9  1  0  0  0  0
 17 16  1  0  0  0  0
 18 17  1  0  0  0  0
 19 18  1  0  0  0  0
 20 22  2  0  0  0  0
 21 19  1  1  0  0  0
 22 26  1  0  0  0  0
 22 21  1  0  0  0  0
 23 25  1  0  0  0  0
 23 21  1  0  0  0  0
 24 20  1  0  0  0  0
 24 23  2  0  0  0  0
 27 26  1  1  0  0  0
 27 28  1  0  0  0  0
 28 29  1  1  0  0  0
 28 34  1  0  0  0  0
 31 28  1  0  0  0  0
 31 37  1  1  0  0  0
 32 31  1  0  0  0  0
 32 30  1  1  0  0  0
 33 32  1  0  0  0  0
 33 27  1  0  0  0  0
 35 37  1  0  0  0  0
 36 35  1  0  0  0  0
 36 37  1  0  0  0  0
 38 39  1  0  0  0  0
 40 41  1  0  0  0  0
 41 39  1  0  0  0  0
 42 41  2  0  0  0  0
 43 14  1  6  0  0  0
 43 45  1  0  0  0  0
 45 44  2  0  0  0  0
 46 44  1  0  0  0  0
 46 48  2  0  0  0  0
 47 46  1  0  0  0  0
 49 47  1  0  0  0  0
 50 54  1  6  0  0  0
 50 52  1  0  0  0  0
 50 49  1  0  0  0  0
 52 51  1  0  0  0  0
 53 52  2  0  0  0  0
 56 61  1  0  0  0  0
 56 55  1  1  0  0  0
 57 60  1  0  0  0  0
 58 57  1  0  0  0  0
 58 59  1  0  0  0  0
 59 54  1  0  0  0  0
 59 61  1  0  0  0  0
 60 56  1  0  0  0  0
 62 43  1  0  0  0  0
 63 64  1  0  0  0  0
 63 62  1  0  0  0  0
 65 66  1  0  0  0  0
 65 64  1  0  0  0  0
 67 66  1  0  0  0  0
 68 67  1  0  0  0  0
M  END
>  <MODEL>
8

>  <REMARK>
 VINA RESULT:      -4.5      3.086      8.149
  Name = 
  24 active torsions:
  status: ('A' for Active; 'I' for Inactive)
    1  A    between atoms: C_1  and  C_38
    2  A    between atoms: C_1  and  O_52
    3  A    between atoms: C_2  and  C_4
    4  A    between atoms: C_3  and  N_61
    5  A    between atoms: C_5  and  C_35
    6  A    between atoms: C_5  and  N_42
    7  A    between atoms: C_10  and  C_31
    8  A    between atoms: C_10  and  C_58
    9  A    between atoms: C_16  and  C_18
   10  A    between atoms: C_16  and  C_25
   11  A    between atoms: C_18  and  C_27
   12  A    between atoms: C_22  and  C_33
   13  A    between atoms: C_27  and  C_33
   14  A    between atoms: C_29  and  O_52
   15  A    between atoms: C_31  and  C_34
   16  A    between atoms: C_32  and  C_58
   17  A    between atoms: C_34  and  O_56
   18  A    between atoms: C_35  and  C_37
   19  A    between atoms: C_35  and  C_47
   20  A    between atoms: N_36  and  C_67
   21  A    between atoms: C_37  and  N_60
   22  A    between atoms: C_55  and  C_57
   23  A    between atoms: O_56  and  C_57
   24  A    between atoms: C_57  and  C_64
                            x       y       z     vdW  Elec       q    Type
                         _______ _______ _______ _____ _____    ______ ____

>  <TORSDO>
F 24

$$$$
=
 OpenBabel10222418483D

 68 73  0  0  1  0  0  0  0  0999 V2000
  188.7470  177.7590  146.2710 C   0  0  0  0  0  2  0  0  0  0  0  0
  186.0620  178.6030  142.0780 C   0  0  0  0  0  2  0  0  0  0  0  0
  189.8930  178.0060  143.4590 C   0  0  0  0  0  0  0  0  0  0  0  0
  188.4240  177.9310  141.5350 C   0  0  0  0  0  0  0  0  0  0  0  0
  189.3470  179.0000  145.6190 C   0  0  0  0  0  2  0  0  0  0  0  0
  185.7250  177.7160  143.2680 C   0  0  0  0  0  2  0  0  0  0  0  0
  184.9870  177.6310  145.6540 C   0  0  0  0  0  2  0  0  0  0  0  0
  190.2990  178.6420  144.5260 C   0  0  0  0  0  3  0  0  0  0  0  0
  189.4800  177.3600  142.4000 C   0  0  0  0  0  0  0  0  0  0  0  0
  185.5100  178.5200  144.5550 C   0  0  1  0  0  0  0  0  0  0  0  0
  186.3590  178.2760  145.7950 C   0  0  2  0  0  3  0  0  0  0  0  0
  187.5250  179.0190  142.0760 C   0  0  0  0  0  2  0  0  0  0  0  0
  187.1770  176.0190  145.9720 F   0  0  0  0  0  0  0  0  0  0  0  0
  188.3620  177.5540  140.2500 C   0  0  0  0  0  3  0  0  0  0  0  0
  187.5010  177.2900  145.5390 C   0  0  2  0  0  3  0  0  0  0  0  0
  190.2540  176.1540  141.9810 C   0  0  0  0  0  2  0  0  0  0  0  0
  191.5100  176.5350  141.2040 C   0  0  0  0  0  2  0  0  0  0  0  0
  191.2830  176.5440  139.6930 C   0  0  0  0  0  2  0  0  0  0  0  0
  192.5870  176.3740  138.9290 C   0  0  0  0  0  2  0  0  0  0  0  0
  193.1720  173.9380  136.6950 N   0  0  0  0  0  0  0  0  0  0  0  0
  192.2930  175.9160  137.5140 C   0  0  1  0  0  3  0  0  0  0  0  0
  193.4540  175.1750  136.9430 C   0  0  0  0  0  0  0  0  0  0  0  0
  191.3300  174.7780  137.5220 C   0  0  0  0  0  0  0  0  0  0  0  0
  191.8430  173.6950  137.0470 N   0  0  0  0  0  0  0  0  0  0  0  0
  189.9660  174.8780  137.9240 N   0  0  0  0  0  1  0  0  0  0  0  0
  194.7420  175.7510  136.7080 N   0  0  0  0  0  2  0  0  0  0  0  0
  195.8410  174.9980  136.1130 C   0  0  1  0  0  3  0  0  0  0  0  0
  196.5920  174.1520  137.1390 C   0  0  2  0  0  0  0  0  0  0  0  0
  197.7970  174.9260  137.6440 C   0  0  0  0  0  1  0  0  0  0  0  0
  194.9530  171.8590  135.9990 O   0  0  0  0  0  1  0  0  0  0  0  0
  197.0240  172.9560  136.4060 N   0  0  2  0  0  0  0  0  0  0  0  0
  195.9480  172.6760  135.4410 C   0  0  2  0  0  3  0  0  0  0  0  0
  195.3260  174.0130  135.0810 C   0  0  0  0  0  2  0  0  0  0  0  0
  195.7580  173.8140  138.2170 O   0  0  0  0  0  1  0  0  0  0  0  0
  198.7970  171.5080  137.2620 C   0  0  0  0  0  2  0  0  0  0  0  0
  197.8450  170.6580  136.4520 C   0  0  0  0  0  2  0  0  0  0  0  0
  197.3070  171.8100  137.2810 C   0  0  0  0  0  3  0  0  0  0  0  0
  184.7870  179.8580  144.5230 C   0  0  0  0  0  2  0  0  0  0  0  0
  183.4170  179.6910  144.8600 O   0  0  0  0  0  0  0  0  0  0  0  0
  181.4010  178.4730  144.3840 O   0  0  0  0  0  1  0  0  0  0  0  0
  182.4970  179.1960  143.9360 C   0  0  0  0  0  0  0  0  0  0  0  0
  182.6380  179.4140  142.7010 O   0  0  0  0  0  0  0  0  0  0  0  0
  187.3790  178.1140  139.2600 C   0  0  1  0  0  3  0  0  0  0  0  0
  184.8930  178.4930  139.4460 C   0  0  0  0  0  3  0  0  0  0  0  0
  186.1350  178.6600  139.9100 C   0  0  0  0  0  3  0  0  0  0  0  0
  184.5030  177.7490  138.2270 C   0  0  0  0  0  0  0  0  0  0  0  0
  183.4160  176.8210  138.2640 N   0  0  0  0  0  2  0  0  0  0  0  0
  185.1090  177.9320  137.1380 O   0  0  0  0  0  0  0  0  0  0  0  0
  182.5900  176.6230  139.4450 C   0  0  0  0  0  2  0  0  0  0  0  0
  181.1580  176.3520  139.0330 C   0  0  1  0  0  3  0  0  0  0  0  0
  179.2860  175.6220  140.3160 O   0  0  0  0  0  0  0  0  0  0  0  0
  180.2720  176.3990  140.2390 C   0  0  0  0  0  0  0  0  0  0  0  0
  180.5330  177.2910  141.2730 O   0  0  0  0  0  1  0  0  0  0  0  0
  180.7360  177.3780  137.9690 C   0  0  0  0  0  2  0  0  0  0  0  0
  178.9360  181.5490  139.7480 C   0  0  0  0  0  1  0  0  0  0  0  0
  180.1920  180.7120  139.5940 C   0  0  2  0  0  3  0  0  0  0  0  0
  181.1910  181.0820  137.3000 C   0  0  0  0  0  2  0  0  0  0  0  0
  181.4090  179.5650  137.1280 C   0  0  0  0  0  2  0  0  0  0  0  0
  181.0110  178.7800  138.3160 N   0  0  0  0  0  0  0  0  0  0  0  0
  181.2380  181.4770  138.7730 C   0  0  0  0  0  2  0  0  0  0  0  0
  179.8360  179.3590  138.9720 C   0  0  0  0  0  2  0  0  0  0  0  0
  187.9750  179.0080  138.3420 O   0  0  0  0  0  0  0  0  0  0  0  0
  188.9150  178.3220  137.5500 C   0  0  0  0  0  2  0  0  0  0  0  0
  188.2420  177.1790  136.8040 C   0  0  0  0  0  2  0  0  0  0  0  0
  188.1940  177.4380  135.3050 C   0  0  0  0  0  2  0  0  0  0  0  0
  189.4190  176.8670  134.6000 C   0  0  0  0  0  2  0  0  0  0  0  0
  189.4420  175.3470  134.6750 C   0  0  0  0  0  2  0  0  0  0  0  0
  188.1440  174.8410  134.6510 O   0  0  0  0  0  1  0  0  0  0  0  0
  2  6  1  0  0  0  0
  3  8  2  0  0  0  0
  4 12  1  0  0  0  0
  4  9  1  0  0  0  0
  5  1  1  0  0  0  0
  6 10  1  0  0  0  0
  8  5  1  0  0  0  0
  9  3  2  0  0  0  0
 10 38  1  6  0  0  0
 10  7  1  0  0  0  0
 10 11  1  0  0  0  0
 11  7  1  1  0  0  0
 12  2  1  0  0  0  0
 14  4  2  0  0  0  0
 15 11  1  0  0  0  0
 15 13  1  1  0  0  0
 15  1  1  0  0  0  0
 16  9  1  0  0  0  0
 17 16  1  0  0  0  0
 18 17  1  0  0  0  0
 19 18  1  0  0  0  0
 20 22  2  0  0  0  0
 20 24  1  0  0  0  0
 21 23  1  0  0  0  0
 21 19  1  1  0  0  0
 22 21  1  0  0  0  0
 23 25  1  0  0  0  0
 24 23  2  0  0  0  0
 26 22  1  0  0  0  0
 27 26  1  1  0  0  0
 27 28  1  0  0  0  0
 28 29  1  1  0  0  0
 28 34  1  0  0  0  0
 31 28  1  0  0  0  0
 31 37  1  1  0  0  0
 32 30  1  1  0  0  0
 32 31  1  0  0  0  0
 33 32  1  0  0  0  0
 33 27  1  0  0  0  0
 35 37  1  0  0  0  0
 36 35  1  0  0  0  0
 36 37  1  0  0  0  0
 38 39  1  0  0  0  0
 41 40  1  0  0  0  0
 41 39  1  0  0  0  0
 42 41  2  0  0  0  0
 43 45  1  1  0  0  0
 43 14  1  0  0  0  0
 44 45  2  0  0  0  0
 46 47  1  0  0  0  0
 46 44  1  0  0  0  0
 47 49  1  0  0  0  0
 48 46  2  0  0  0  0
 50 54  1  6  0  0  0
 50 49  1  0  0  0  0
 50 52  1  0  0  0  0
 52 51  2  0  0  0  0
 52 53  1  0  0  0  0
 54 59  1  0  0  0  0
 56 55  1  6  0  0  0
 57 60  1  0  0  0  0
 58 57  1  0  0  0  0
 58 59  1  0  0  0  0
 59 61  1  0  0  0  0
 60 56  1  0  0  0  0
 61 56  1  0  0  0  0
 62 43  1  0  0  0  0
 63 62  1  0  0  0  0
 64 63  1  0  0  0  0
 65 64  1  0  0  0  0
 66 67  1  0  0  0  0
 66 65  1  0  0  0  0
 68 67  1  0  0  0  0
M  END
>  <MODEL>
9

>  <REMARK>
 VINA RESULT:      -4.1      2.930      7.593
  Name = 
  24 active torsions:
  status: ('A' for Active; 'I' for Inactive)
    1  A    between atoms: C_1  and  C_38
    2  A    between atoms: C_1  and  O_52
    3  A    between atoms: C_2  and  C_4
    4  A    between atoms: C_3  and  N_61
    5  A    between atoms: C_5  and  C_35
    6  A    between atoms: C_5  and  N_42
    7  A    between atoms: C_10  and  C_31
    8  A    between atoms: C_10  and  C_58
    9  A    between atoms: C_16  and  C_18
   10  A    between atoms: C_16  and  C_25
   11  A    between atoms: C_18  and  C_27
   12  A    between atoms: C_22  and  C_33
   13  A    between atoms: C_27  and  C_33
   14  A    between atoms: C_29  and  O_52
   15  A    between atoms: C_31  and  C_34
   16  A    between atoms: C_32  and  C_58
   17  A    between atoms: C_34  and  O_56
   18  A    between atoms: C_35  and  C_37
   19  A    between atoms: C_35  and  C_47
   20  A    between atoms: N_36  and  C_67
   21  A    between atoms: C_37  and  N_60
   22  A    between atoms: C_55  and  C_57
   23  A    between atoms: O_56  and  C_57
   24  A    between atoms: C_57  and  C_64
                            x       y       z     vdW  Elec       q    Type
                         _______ _______ _______ _____ _____    ______ ____

>  <TORSDO>
F 24

$$$$
