=
 OpenBabel10222418203D

 34 39  0  0  1  0  0  0  0  0999 V2000
  182.9200  179.0220  141.0290 C   0  0  0  0  0  2  0  0  0  0  0  0
  181.4850  178.9750  141.5720 C   0  0  1  0  0  0  0  0  0  0  0  0
  179.7880  177.5930  142.6150 C   0  0  0  0  0  2  0  0  0  0  0  0
  178.9310  179.7320  143.5510 C   0  0  0  0  0  1  0  0  0  0  0  0
  183.9400  178.4300  141.9870 C   0  0  0  0  0  2  0  0  0  0  0  0
  180.9090  177.5580  141.5900 C   0  0  1  0  0  3  0  0  0  0  0  0
  181.3530  179.4380  143.0350 C   0  0  1  0  0  3  0  0  0  0  0  0
  180.0910  178.7570  143.5530 C   0  0  2  0  0  3  0  0  0  0  0  0
  180.6470  179.9090  140.7020 C   0  0  0  0  0  1  0  0  0  0  0  0
  183.8670  179.1750  143.3090 C   0  0  1  0  0  3  0  0  0  0  0  0
  182.4990  178.9620  143.9390 C   0  0  0  0  0  2  0  0  0  0  0  0
  188.0150  177.3650  145.3600 C   0  0  0  0  0  3  0  0  0  0  0  0
  188.5450  177.3440  146.7840 C   0  0  0  0  0  2  0  0  0  0  0  0
  184.9610  178.7290  144.2330 C   0  0  0  0  0  0  0  0  0  0  0  0
  186.0120  178.5080  146.1240 C   0  0  0  0  0  0  0  0  0  0  0  0
  184.9150  178.9920  145.6450 N   0  0  0  0  0  0  0  0  0  0  0  0
  186.0840  178.0850  143.8830 C   0  0  0  0  0  0  0  0  0  0  0  0
  186.4420  178.5330  147.5200 C   0  0  0  0  0  3  0  0  0  0  0  0
  186.8320  177.9180  145.1100 C   0  0  0  0  0  0  0  0  0  0  0  0
  187.6280  177.9860  147.8220 C   0  0  0  0  0  3  0  0  0  0  0  0
  187.5860  178.5810  142.0650 N   0  0  0  0  0  1  0  0  0  0  0  0
  186.5200  177.7000  142.5070 C   0  0  0  0  0  2  0  0  0  0  0  0
  181.1140  176.2360  139.4360 C   0  0  0  0  0  0  0  0  0  0  0  0
  182.2230  175.7580  139.7990 O   0  0  0  0  0  0  0  0  0  0  0  0
  180.3980  177.1310  140.2910 N   0  0  0  0  0  2  0  0  0  0  0  0
  180.2860  177.9910  134.8760 C   0  0  0  0  0  2  0  0  0  0  0  0
  180.5700  175.8920  138.0800 C   0  0  1  0  0  3  0  0  0  0  0  0
  179.9290  176.8620  135.8460 C   0  0  0  0  0  2  0  0  0  0  0  0
  182.6040  174.8430  136.6840 O   0  0  0  0  0  0  0  0  0  0  0  0
  181.7380  178.0950  137.3360 C   0  0  0  0  0  2  0  0  0  0  0  0
  180.8820  176.8450  137.0460 C   0  0  1  0  0  0  0  0  0  0  0  0
  180.4130  179.2890  135.6240 C   0  0  0  0  0  3  0  0  0  0  0  0
  181.0890  179.3340  136.7800 C   0  0  0  0  0  3  0  0  0  0  0  0
  181.7110  175.5660  137.0980 C   0  0  0  0  0  0  0  0  0  0  0  0
  1  2  1  0  0  0  0
  1  5  1  0  0  0  0
  2  9  1  6  0  0  0
  2  6  1  0  0  0  0
  2  7  1  0  0  0  0
  3  8  1  0  0  0  0
  5 10  1  0  0  0  0
  6 25  1  6  0  0  0
  6  3  1  0  0  0  0
  7  8  1  0  0  0  0
  7 11  1  1  0  0  0
  8  4  1  6  0  0  0
 10 11  1  0  0  0  0
 10 14  1  1  0  0  0
 12 13  1  0  0  0  0
 13 20  1  0  0  0  0
 14 16  1  0  0  0  0
 15 18  1  0  0  0  0
 16 15  2  0  0  0  0
 17 14  2  0  0  0  0
 17 19  1  0  0  0  0
 18 20  2  0  0  0  0
 19 12  2  0  0  0  0
 19 15  1  0  0  0  0
 21 22  1  0  0  0  0
 22 17  1  0  0  0  0
 23 24  2  0  0  0  0
 23 25  1  0  0  0  0
 26 32  1  0  0  0  0
 26 28  1  0  0  0  0
 27 23  1  1  0  0  0
 29 34  2  0  0  0  0
 31 28  1  6  0  0  0
 31 34  1  0  0  0  0
 31 30  1  0  0  0  0
 31 27  1  0  0  0  0
 32 33  2  0  0  0  0
 33 30  1  0  0  0  0
 34 27  1  0  0  0  0
M  END
>  <MODEL>
1

>  <REMARK>
 VINA RESULT:      -8.4      0.000      0.000
  Name = 
  4 active torsions:
  status: ('A' for Active; 'I' for Inactive)
    1  A    between atoms: C_3  and  C_14
    2  A    between atoms: C_6  and  C_27
    3  A    between atoms: C_17  and  N_29
    4  A    between atoms: C_24  and  C_28
                            x       y       z     vdW  Elec       q    Type
                         _______ _______ _______ _____ _____    ______ ____

>  <TORSDO>
F 4

$$$$
=
 OpenBabel10222418203D

 34 39  0  0  1  0  0  0  0  0999 V2000
  189.7620  178.4390  138.0740 C   0  0  0  0  0  2  0  0  0  0  0  0
  189.1140  177.4120  137.1360 C   0  0  1  0  0  0  0  0  0  0  0  0
  188.6910  175.0570  136.7370 C   0  0  0  0  0  2  0  0  0  0  0  0
  186.6740  175.8500  135.5160 C   0  0  0  0  0  1  0  0  0  0  0  0
  189.4060  178.2190  139.5360 C   0  0  0  0  0  2  0  0  0  0  0  0
  189.7410  176.0220  137.2620 C   0  0  1  0  0  3  0  0  0  0  0  0
  187.6200  177.1610  137.4150 C   0  0  1  0  0  3  0  0  0  0  0  0
  187.3450  175.7630  136.8720 C   0  0  2  0  0  3  0  0  0  0  0  0
  189.2450  177.9580  135.7160 C   0  0  0  0  0  1  0  0  0  0  0  0
  187.8960  178.2640  139.6890 C   0  0  1  0  0  3  0  0  0  0  0  0
  187.2700  177.1180  138.9090 C   0  0  0  0  0  2  0  0  0  0  0  0
  185.5510  178.4260  144.0670 C   0  0  0  0  0  3  0  0  0  0  0  0
  185.9550  178.0290  145.4760 C   0  0  0  0  0  2  0  0  0  0  0  0
  187.5060  178.2060  141.1360 C   0  0  0  0  0  0  0  0  0  0  0  0
  187.7420  177.7630  143.2530 C   0  0  0  0  0  0  0  0  0  0  0  0
  188.4000  177.7030  142.1430 N   0  0  0  0  0  0  0  0  0  0  0  0
  186.3230  178.5650  141.6550 C   0  0  0  0  0  0  0  0  0  0  0  0
  188.2160  177.3560  144.5730 C   0  0  0  0  0  3  0  0  0  0  0  0
  186.4200  178.2830  143.0710 C   0  0  0  0  0  0  0  0  0  0  0  0
  187.3750  177.4840  145.6090 C   0  0  0  0  0  3  0  0  0  0  0  0
  184.0730  178.0630  140.9530 N   0  0  0  0  0  1  0  0  0  0  0  0
  185.1220  179.0660  140.9210 C   0  0  0  0  0  2  0  0  0  0  0  0
  192.2720  176.0130  137.1110 C   0  0  0  0  0  0  0  0  0  0  0  0
  192.3770  176.2320  138.3480 O   0  0  0  0  0  0  0  0  0  0  0  0
  190.9820  175.8830  136.5070 N   0  0  0  0  0  2  0  0  0  0  0  0
  196.8360  174.1000  136.8520 C   0  0  0  0  0  2  0  0  0  0  0  0
  193.5110  175.9320  136.2670 C   0  0  1  0  0  3  0  0  0  0  0  0
  195.9090  175.1620  136.2560 C   0  0  0  0  0  2  0  0  0  0  0  0
  193.1700  173.8580  134.6040 O   0  0  0  0  0  0  0  0  0  0  0  0
  194.1710  173.9980  137.8790 C   0  0  0  0  0  2  0  0  0  0  0  0
  194.4550  174.9260  136.6800 C   0  0  1  0  0  0  0  0  0  0  0  0
  196.6010  173.9860  138.3320 C   0  0  0  0  0  3  0  0  0  0  0  0
  195.3500  173.9450  138.8120 C   0  0  0  0  0  3  0  0  0  0  0  0
  193.5590  174.6030  135.4890 C   0  0  0  0  0  0  0  0  0  0  0  0
  1  5  1  0  0  0  0
  2  9  1  6  0  0  0
  2  6  1  0  0  0  0
  2  7  1  0  0  0  0
  2  1  1  0  0  0  0
  3  8  1  0  0  0  0
  3  6  1  0  0  0  0
  5 10  1  0  0  0  0
  6 25  1  6  0  0  0
  7 11  1  1  0  0  0
  8  4  1  6  0  0  0
  8  7  1  0  0  0  0
 10 14  1  1  0  0  0
 11 10  1  0  0  0  0
 12 13  1  0  0  0  0
 13 20  1  0  0  0  0
 14 17  2  0  0  0  0
 14 16  1  0  0  0  0
 15 18  1  0  0  0  0
 16 15  2  0  0  0  0
 17 19  1  0  0  0  0
 18 20  2  0  0  0  0
 19 15  1  0  0  0  0
 19 12  2  0  0  0  0
 22 21  1  0  0  0  0
 22 17  1  0  0  0  0
 23 24  2  0  0  0  0
 25 23  1  0  0  0  0
 26 32  1  0  0  0  0
 27 31  1  0  0  0  0
 27 23  1  1  0  0  0
 28 26  1  0  0  0  0
 29 34  2  0  0  0  0
 30 33  1  0  0  0  0
 31 28  1  6  0  0  0
 31 30  1  0  0  0  0
 32 33  2  0  0  0  0
 34 27  1  0  0  0  0
 34 31  1  0  0  0  0
M  END
>  <MODEL>
2

>  <REMARK>
 VINA RESULT:      -8.1      6.891      9.789
  Name = 
  4 active torsions:
  status: ('A' for Active; 'I' for Inactive)
    1  A    between atoms: C_3  and  C_14
    2  A    between atoms: C_6  and  C_27
    3  A    between atoms: C_17  and  N_29
    4  A    between atoms: C_24  and  C_28
                            x       y       z     vdW  Elec       q    Type
                         _______ _______ _______ _____ _____    ______ ____

>  <TORSDO>
F 4

$$$$
=
 OpenBabel10222418203D

 34 39  0  0  1  0  0  0  0  0999 V2000
  182.7910  178.8550  140.7640 C   0  0  0  0  0  2  0  0  0  0  0  0
  181.3750  178.9250  141.3500 C   0  0  1  0  0  0  0  0  0  0  0  0
  179.6380  177.7100  142.5290 C   0  0  0  0  0  2  0  0  0  0  0  0
  178.9310  179.9500  143.3480 C   0  0  0  0  0  1  0  0  0  0  0  0
  183.8080  178.2690  141.7300 C   0  0  0  0  0  2  0  0  0  0  0  0
  180.7220  177.5470  141.4770 C   0  0  1  0  0  3  0  0  0  0  0  0
  181.3160  179.4870  142.7830 C   0  0  1  0  0  3  0  0  0  0  0  0
  180.0350  178.9130  143.3800 C   0  0  2  0  0  3  0  0  0  0  0  0
  180.5610  179.8480  140.4450 C   0  0  0  0  0  1  0  0  0  0  0  0
  183.8190  179.1000  143.0010 C   0  0  1  0  0  3  0  0  0  0  0  0
  182.4620  179.0050  143.6820 C   0  0  0  0  0  2  0  0  0  0  0  0
  188.0060  177.3610  145.0320 C   0  0  0  0  0  3  0  0  0  0  0  0
  188.5140  177.2870  146.4620 C   0  0  0  0  0  2  0  0  0  0  0  0
  184.9150  178.6520  143.9210 C   0  0  0  0  0  0  0  0  0  0  0  0
  185.9440  178.3760  145.8170 C   0  0  0  0  0  0  0  0  0  0  0  0
  184.8350  178.8380  145.3430 N   0  0  0  0  0  0  0  0  0  0  0  0
  186.0710  178.0750  143.5590 C   0  0  0  0  0  0  0  0  0  0  0  0
  186.3500  178.3460  147.2200 C   0  0  0  0  0  3  0  0  0  0  0  0
  186.8060  177.8750  144.7890 C   0  0  0  0  0  0  0  0  0  0  0  0
  187.5540  177.8340  147.5150 C   0  0  0  0  0  3  0  0  0  0  0  0
  187.4440  178.8330  141.7290 N   0  0  0  0  0  1  0  0  0  0  0  0
  186.5450  177.7820  142.1730 C   0  0  0  0  0  2  0  0  0  0  0  0
  179.8000  175.6980  140.0080 C   0  0  0  0  0  0  0  0  0  0  0  0
  179.9610  174.8470  140.9250 O   0  0  0  0  0  0  0  0  0  0  0  0
  180.1470  177.0680  140.2250 N   0  0  0  0  0  2  0  0  0  0  0  0
  180.7630  175.6200  135.1480 C   0  0  0  0  0  2  0  0  0  0  0  0
  179.2810  175.2530  138.6720 C   0  0  1  0  0  3  0  0  0  0  0  0
  179.6560  175.4340  136.1880 C   0  0  0  0  0  2  0  0  0  0  0  0
  180.1650  172.7500  138.3030 O   0  0  0  0  0  0  0  0  0  0  0  0
  181.6910  175.7850  137.8460 C   0  0  0  0  0  2  0  0  0  0  0  0
  180.2410  175.3190  137.6000 C   0  0  1  0  0  0  0  0  0  0  0  0
  181.6770  176.7380  135.5650 C   0  0  0  0  0  3  0  0  0  0  0  0
  182.1050  176.8170  136.8320 C   0  0  0  0  0  3  0  0  0  0  0  0
  179.9720  173.9520  138.2210 C   0  0  0  0  0  0  0  0  0  0  0  0
  1  2  1  0  0  0  0
  1  5  1  0  0  0  0
  2  9  1  6  0  0  0
  2  6  1  0  0  0  0
  2  7  1  0  0  0  0
  3  8  1  0  0  0  0
  5 10  1  0  0  0  0
  6 25  1  6  0  0  0
  6  3  1  0  0  0  0
  7  8  1  0  0  0  0
  7 11  1  1  0  0  0
  8  4  1  6  0  0  0
 10 11  1  0  0  0  0
 10 14  1  1  0  0  0
 12 13  1  0  0  0  0
 13 20  1  0  0  0  0
 14 16  1  0  0  0  0
 15 18  1  0  0  0  0
 16 15  2  0  0  0  0
 17 14  2  0  0  0  0
 17 19  1  0  0  0  0
 18 20  2  0  0  0  0
 19 12  2  0  0  0  0
 19 15  1  0  0  0  0
 21 22  1  0  0  0  0
 22 17  1  0  0  0  0
 23 25  1  0  0  0  0
 23 24  2  0  0  0  0
 26 32  1  0  0  0  0
 26 28  1  0  0  0  0
 27 23  1  1  0  0  0
 31 28  1  6  0  0  0
 31 30  1  0  0  0  0
 31 34  1  0  0  0  0
 31 27  1  0  0  0  0
 32 33  2  0  0  0  0
 33 30  1  0  0  0  0
 34 29  2  0  0  0  0
 34 27  1  0  0  0  0
M  END
>  <MODEL>
3

>  <REMARK>
 VINA RESULT:      -8.0      1.228      1.397
  Name = 
  4 active torsions:
  status: ('A' for Active; 'I' for Inactive)
    1  A    between atoms: C_3  and  C_14
    2  A    between atoms: C_6  and  C_27
    3  A    between atoms: C_17  and  N_29
    4  A    between atoms: C_24  and  C_28
                            x       y       z     vdW  Elec       q    Type
                         _______ _______ _______ _____ _____    ______ ____

>  <TORSDO>
F 4

$$$$
=
 OpenBabel10222418203D

 34 39  0  0  1  0  0  0  0  0999 V2000
  182.7220  179.1220  140.7570 C   0  0  0  0  0  2  0  0  0  0  0  0
  181.4150  178.9520  141.5440 C   0  0  1  0  0  0  0  0  0  0  0  0
  179.9730  177.3910  142.7110 C   0  0  0  0  0  2  0  0  0  0  0  0
  179.2560  179.3740  144.0290 C   0  0  0  0  0  1  0  0  0  0  0  0
  183.9160  178.4740  141.4390 C   0  0  0  0  0  2  0  0  0  0  0  0
  180.8850  177.5180  141.5020 C   0  0  1  0  0  3  0  0  0  0  0  0
  181.5470  179.2460  143.0500 C   0  0  1  0  0  3  0  0  0  0  0  0
  180.4190  178.4570  143.7070 C   0  0  2  0  0  3  0  0  0  0  0  0
  180.4080  179.9390  140.9550 C   0  0  0  0  0  1  0  0  0  0  0  0
  184.0730  179.0660  142.8290 C   0  0  1  0  0  3  0  0  0  0  0  0
  182.8510  178.7250  143.6680 C   0  0  0  0  0  2  0  0  0  0  0  0
  187.6980  177.7930  145.9790 C   0  0  0  0  0  3  0  0  0  0  0  0
  189.0110  177.0490  145.8050 C   0  0  0  0  0  2  0  0  0  0  0  0
  185.3290  178.5700  143.4800 C   0  0  0  0  0  0  0  0  0  0  0  0
  187.2560  177.5680  143.6010 C   0  0  0  0  0  0  0  0  0  0  0  0
  186.3470  177.8790  142.7380 N   0  0  0  0  0  0  0  0  0  0  0  0
  185.6430  178.6700  144.7800 C   0  0  0  0  0  0  0  0  0  0  0  0
  188.4980  176.8460  143.3400 C   0  0  0  0  0  3  0  0  0  0  0  0
  186.9220  178.0080  144.9220 C   0  0  0  0  0  0  0  0  0  0  0  0
  189.3150  176.6060  144.3760 C   0  0  0  0  0  3  0  0  0  0  0  0
  184.5560  178.2540  146.8900 N   0  0  0  0  0  1  0  0  0  0  0  0
  184.8120  179.2580  145.8740 C   0  0  0  0  0  2  0  0  0  0  0  0
  180.6440  176.3070  139.2880 C   0  0  0  0  0  0  0  0  0  0  0  0
  181.7410  175.7090  139.4600 O   0  0  0  0  0  0  0  0  0  0  0  0
  180.1510  177.2140  140.2780 N   0  0  0  0  0  2  0  0  0  0  0  0
  179.2740  178.4150  135.0170 C   0  0  0  0  0  2  0  0  0  0  0  0
  179.8770  176.0910  138.0150 C   0  0  1  0  0  3  0  0  0  0  0  0
  178.9830  177.2490  135.9650 C   0  0  0  0  0  2  0  0  0  0  0  0
  181.5930  175.0070  136.2650 O   0  0  0  0  0  0  0  0  0  0  0  0
  181.0830  178.2570  137.2240 C   0  0  0  0  0  2  0  0  0  0  0  0
  180.1020  177.0880  137.0010 C   0  0  1  0  0  0  0  0  0  0  0  0
  179.6100  179.6480  135.8080 C   0  0  0  0  0  3  0  0  0  0  0  0
  180.4530  179.5710  136.8460 C   0  0  0  0  0  3  0  0  0  0  0  0
  180.8310  175.7570  136.8520 C   0  0  0  0  0  0  0  0  0  0  0  0
  1  5  1  0  0  0  0
  1  2  1  0  0  0  0
  2  9  1  6  0  0  0
  2  7  1  0  0  0  0
  3  8  1  0  0  0  0
  5 10  1  0  0  0  0
  6 25  1  6  0  0  0
  6  2  1  0  0  0  0
  6  3  1  0  0  0  0
  7 11  1  1  0  0  0
  7  8  1  0  0  0  0
  8  4  1  6  0  0  0
 10 14  1  1  0  0  0
 10 11  1  0  0  0  0
 13 12  1  0  0  0  0
 14 17  2  0  0  0  0
 15 19  1  0  0  0  0
 16 14  1  0  0  0  0
 16 15  2  0  0  0  0
 17 19  1  0  0  0  0
 17 22  1  0  0  0  0
 18 15  1  0  0  0  0
 18 20  2  0  0  0  0
 19 12  2  0  0  0  0
 20 13  1  0  0  0  0
 22 21  1  0  0  0  0
 23 24  2  0  0  0  0
 23 25  1  0  0  0  0
 26 32  1  0  0  0  0
 26 28  1  0  0  0  0
 27 23  1  1  0  0  0
 29 34  2  0  0  0  0
 31 28  1  6  0  0  0
 31 30  1  0  0  0  0
 31 27  1  0  0  0  0
 32 33  2  0  0  0  0
 33 30  1  0  0  0  0
 34 31  1  0  0  0  0
 34 27  1  0  0  0  0
M  END
>  <MODEL>
4

>  <REMARK>
 VINA RESULT:      -8.0      0.939      1.917
  Name = 
  4 active torsions:
  status: ('A' for Active; 'I' for Inactive)
    1  A    between atoms: C_3  and  C_14
    2  A    between atoms: C_6  and  C_27
    3  A    between atoms: C_17  and  N_29
    4  A    between atoms: C_24  and  C_28
                            x       y       z     vdW  Elec       q    Type
                         _______ _______ _______ _____ _____    ______ ____

>  <TORSDO>
F 4

$$$$
=
 OpenBabel10222418203D

 34 39  0  0  1  0  0  0  0  0999 V2000
  183.2690  178.7860  140.0480 C   0  0  0  0  0  2  0  0  0  0  0  0
  181.7730  178.6950  140.3790 C   0  0  1  0  0  0  0  0  0  0  0  0
  179.9940  177.2730  141.2100 C   0  0  0  0  0  2  0  0  0  0  0  0
  178.9320  179.3990  141.9440 C   0  0  0  0  0  1  0  0  0  0  0  0
  184.1600  178.2620  141.1620 C   0  0  0  0  0  2  0  0  0  0  0  0
  181.2520  177.2570  140.3590 C   0  0  1  0  0  3  0  0  0  0  0  0
  181.4130  179.1900  141.7930 C   0  0  1  0  0  3  0  0  0  0  0  0
  180.1150  178.4720  142.1450 C   0  0  2  0  0  3  0  0  0  0  0  0
  181.0370  179.5720  139.3680 C   0  0  0  0  0  1  0  0  0  0  0  0
  183.8690  179.0380  142.4340 C   0  0  1  0  0  3  0  0  0  0  0  0
  182.4320  178.7860  142.8670 C   0  0  0  0  0  2  0  0  0  0  0  0
  187.7630  177.5190  145.1190 C   0  0  0  0  0  3  0  0  0  0  0  0
  188.0590  177.5130  146.6090 C   0  0  0  0  0  2  0  0  0  0  0  0
  184.8310  178.6610  143.5210 C   0  0  0  0  0  0  0  0  0  0  0  0
  185.5800  178.4880  145.5560 C   0  0  0  0  0  0  0  0  0  0  0  0
  184.5390  178.8950  144.9080 N   0  0  0  0  0  0  0  0  0  0  0  0
  186.0440  178.1130  143.3530 C   0  0  0  0  0  0  0  0  0  0  0  0
  185.7760  178.5210  147.0020 C   0  0  0  0  0  3  0  0  0  0  0  0
  186.5970  177.9820  144.6830 C   0  0  0  0  0  0  0  0  0  0  0  0
  186.9390  178.0620  147.4890 C   0  0  0  0  0  3  0  0  0  0  0  0
  187.6980  178.8190  141.7490 N   0  0  0  0  0  1  0  0  0  0  0  0
  186.7240  177.7880  142.0640 C   0  0  0  0  0  2  0  0  0  0  0  0
  181.8060  175.8710  138.3100 C   0  0  0  0  0  0  0  0  0  0  0  0
  182.8560  175.4320  138.8520 O   0  0  0  0  0  0  0  0  0  0  0  0
  180.9520  176.7750  139.0150 N   0  0  0  0  0  2  0  0  0  0  0  0
  180.0220  172.2080  135.4880 C   0  0  0  0  0  2  0  0  0  0  0  0
  181.4790  175.4690  136.9000 C   0  0  1  0  0  3  0  0  0  0  0  0
  180.8060  173.5220  135.4510 C   0  0  0  0  0  2  0  0  0  0  0  0
  178.9650  176.2730  136.4390 O   0  0  0  0  0  0  0  0  0  0  0  0
  180.2040  173.5020  138.0300 C   0  0  0  0  0  2  0  0  0  0  0  0
  180.6890  174.2710  136.7840 C   0  0  1  0  0  0  0  0  0  0  0  0
  180.3990  171.4200  136.7120 C   0  0  0  0  0  3  0  0  0  0  0  0
  180.4890  172.0300  137.9010 C   0  0  0  0  0  3  0  0  0  0  0  0
  179.9690  175.6070  136.6270 C   0  0  0  0  0  0  0  0  0  0  0  0
  1  2  1  0  0  0  0
  1  5  1  0  0  0  0
  2  9  1  6  0  0  0
  2  7  1  0  0  0  0
  3  8  1  0  0  0  0
  5 10  1  0  0  0  0
  6 25  1  6  0  0  0
  6  2  1  0  0  0  0
  6  3  1  0  0  0  0
  7  8  1  0  0  0  0
  7 11  1  1  0  0  0
  8  4  1  6  0  0  0
 10 11  1  0  0  0  0
 10 14  1  1  0  0  0
 12 13  1  0  0  0  0
 13 20  1  0  0  0  0
 14 16  1  0  0  0  0
 15 18  1  0  0  0  0
 16 15  2  0  0  0  0
 17 14  2  0  0  0  0
 17 19  1  0  0  0  0
 18 20  2  0  0  0  0
 19 12  2  0  0  0  0
 19 15  1  0  0  0  0
 21 22  1  0  0  0  0
 22 17  1  0  0  0  0
 23 24  2  0  0  0  0
 23 25  1  0  0  0  0
 26 32  1  0  0  0  0
 27 23  1  1  0  0  0
 28 26  1  0  0  0  0
 29 34  2  0  0  0  0
 31 28  1  6  0  0  0
 31 27  1  0  0  0  0
 31 30  1  0  0  0  0
 32 33  2  0  0  0  0
 33 30  1  0  0  0  0
 34 31  1  0  0  0  0
 34 27  1  0  0  0  0
M  END
>  <MODEL>
5

>  <REMARK>
 VINA RESULT:      -7.7      1.780      2.674
  Name = 
  4 active torsions:
  status: ('A' for Active; 'I' for Inactive)
    1  A    between atoms: C_3  and  C_14
    2  A    between atoms: C_6  and  C_27
    3  A    between atoms: C_17  and  N_29
    4  A    between atoms: C_24  and  C_28
                            x       y       z     vdW  Elec       q    Type
                         _______ _______ _______ _____ _____    ______ ____

>  <TORSDO>
F 4

$$$$
=
 OpenBabel10222418203D

 34 39  0  0  1  0  0  0  0  0999 V2000
  190.3020  177.8380  138.6210 C   0  0  0  0  0  2  0  0  0  0  0  0
  189.1180  177.5050  137.7020 C   0  0  1  0  0  0  0  0  0  0  0  0
  187.5130  175.8100  137.0460 C   0  0  0  0  0  2  0  0  0  0  0  0
  186.0560  177.7340  136.4410 C   0  0  0  0  0  1  0  0  0  0  0  0
  190.0540  177.4610  140.0730 C   0  0  0  0  0  2  0  0  0  0  0  0
  188.9590  176.0020  137.4690 C   0  0  1  0  0  3  0  0  0  0  0  0
  187.7490  177.9300  138.2640 C   0  0  1  0  0  3  0  0  0  0  0  0
  186.7400  177.0100  137.5850 C   0  0  2  0  0  3  0  0  0  0  0  0
  189.3460  178.2540  136.3900 C   0  0  0  0  0  1  0  0  0  0  0  0
  188.8060  178.1760  140.5630 C   0  0  1  0  0  3  0  0  0  0  0  0
  187.5990  177.6930  139.7720 C   0  0  0  0  0  2  0  0  0  0  0  0
  189.3270  177.6200  145.4720 C   0  0  0  0  0  3  0  0  0  0  0  0
  188.3340  177.4310  146.6070 C   0  0  0  0  0  2  0  0  0  0  0  0
  188.6090  177.9560  142.0330 C   0  0  0  0  0  0  0  0  0  0  0  0
  187.4940  177.6670  143.8780 C   0  0  0  0  0  0  0  0  0  0  0  0
  187.3020  177.8030  142.6080 N   0  0  0  0  0  0  0  0  0  0  0  0
  189.5720  177.9060  142.9650 C   0  0  0  0  0  0  0  0  0  0  0  0
  186.4700  177.4880  144.9030 C   0  0  0  0  0  3  0  0  0  0  0  0
  188.8830  177.7230  144.2240 C   0  0  0  0  0  0  0  0  0  0  0  0
  186.8700  177.3780  146.1790 C   0  0  0  0  0  3  0  0  0  0  0  0
  191.7400  176.8620  143.0940 N   0  0  0  0  0  1  0  0  0  0  0  0
  191.0410  178.0920  142.7660 C   0  0  0  0  0  2  0  0  0  0  0  0
  191.0540  174.7600  136.7610 C   0  0  0  0  0  0  0  0  0  0  0  0
  191.3570  174.5230  137.9620 O   0  0  0  0  0  0  0  0  0  0  0  0
  189.8610  175.4820  136.4450 N   0  0  0  0  0  2  0  0  0  0  0  0
  195.7670  173.6820  135.6740 C   0  0  0  0  0  2  0  0  0  0  0  0
  191.9790  174.3150  135.6650 C   0  0  1  0  0  3  0  0  0  0  0  0
  194.4040  174.0080  135.0590 C   0  0  0  0  0  2  0  0  0  0  0  0
  191.9780  171.6350  135.7070 O   0  0  0  0  0  0  0  0  0  0  0  0
  193.6730  173.9320  137.6030 C   0  0  0  0  0  2  0  0  0  0  0  0
  193.2900  173.9190  136.1090 C   0  0  1  0  0  0  0  0  0  0  0  0
  195.9780  174.5020  136.9160 C   0  0  0  0  0  3  0  0  0  0  0  0
  194.9930  174.6230  137.8160 C   0  0  0  0  0  3  0  0  0  0  0  0
  192.2910  172.8110  135.7900 C   0  0  0  0  0  0  0  0  0  0  0  0
  1  5  1  0  0  0  0
  2  9  1  6  0  0  0
  2  7  1  0  0  0  0
  2  1  1  0  0  0  0
  3  6  1  0  0  0  0
  3  8  1  0  0  0  0
  5 10  1  0  0  0  0
  6 25  1  6  0  0  0
  6  2  1  0  0  0  0
  7 11  1  1  0  0  0
  8  4  1  6  0  0  0
  8  7  1  0  0  0  0
 10 14  1  1  0  0  0
 11 10  1  0  0  0  0
 12 13  1  0  0  0  0
 14 16  1  0  0  0  0
 14 17  2  0  0  0  0
 15 19  1  0  0  0  0
 15 18  1  0  0  0  0
 16 15  2  0  0  0  0
 17 19  1  0  0  0  0
 18 20  2  0  0  0  0
 19 12  2  0  0  0  0
 20 13  1  0  0  0  0
 22 17  1  0  0  0  0
 22 21  1  0  0  0  0
 23 24  2  0  0  0  0
 25 23  1  0  0  0  0
 26 32  1  0  0  0  0
 27 34  1  0  0  0  0
 27 31  1  0  0  0  0
 27 23  1  1  0  0  0
 28 26  1  0  0  0  0
 29 34  2  0  0  0  0
 30 33  1  0  0  0  0
 31 28  1  6  0  0  0
 31 30  1  0  0  0  0
 32 33  2  0  0  0  0
 34 31  1  0  0  0  0
M  END
>  <MODEL>
6

>  <REMARK>
 VINA RESULT:      -7.7      6.672      9.154
  Name = 
  4 active torsions:
  status: ('A' for Active; 'I' for Inactive)
    1  A    between atoms: C_3  and  C_14
    2  A    between atoms: C_6  and  C_27
    3  A    between atoms: C_17  and  N_29
    4  A    between atoms: C_24  and  C_28
                            x       y       z     vdW  Elec       q    Type
                         _______ _______ _______ _____ _____    ______ ____

>  <TORSDO>
F 4

$$$$
=
 OpenBabel10222418203D

 34 39  0  0  1  0  0  0  0  0999 V2000
  190.0780  178.0350  138.3970 C   0  0  0  0  0  2  0  0  0  0  0  0
  188.9380  177.5260  137.5040 C   0  0  1  0  0  0  0  0  0  0  0  0
  187.5510  175.6230  136.9260 C   0  0  0  0  0  2  0  0  0  0  0  0
  185.8600  177.3280  136.2770 C   0  0  0  0  0  1  0  0  0  0  0  0
  189.8910  177.6810  139.8630 C   0  0  0  0  0  2  0  0  0  0  0  0
  188.9660  176.0070  137.3230 C   0  0  1  0  0  3  0  0  0  0  0  0
  187.5300  177.7970  138.0690 C   0  0  1  0  0  3  0  0  0  0  0  0
  186.6380  176.7350  137.4340 C   0  0  2  0  0  3  0  0  0  0  0  0
  189.0590  178.2520  136.1660 C   0  0  0  0  0  1  0  0  0  0  0  0
  188.5690  178.2510  140.3450 C   0  0  1  0  0  3  0  0  0  0  0  0
  187.4250  177.5940  139.5870 C   0  0  0  0  0  2  0  0  0  0  0  0
  186.9010  177.7270  144.9960 C   0  0  0  0  0  3  0  0  0  0  0  0
  187.5820  177.3920  146.3120 C   0  0  0  0  0  2  0  0  0  0  0  0
  188.4140  178.0580  141.8240 C   0  0  0  0  0  0  0  0  0  0  0  0
  189.0450  177.6180  143.8590 C   0  0  0  0  0  0  0  0  0  0  0  0
  189.5330  177.7480  142.6700 N   0  0  0  0  0  0  0  0  0  0  0  0
  187.2670  178.1160  142.5170 C   0  0  0  0  0  0  0  0  0  0  0  0
  189.7830  177.2930  145.0760 C   0  0  0  0  0  3  0  0  0  0  0  0
  187.6270  177.8210  143.8870 C   0  0  0  0  0  0  0  0  0  0  0  0
  189.0920  177.1890  146.2210 C   0  0  0  0  0  3  0  0  0  0  0  0
  185.5490  179.7520  142.0930 N   0  0  0  0  0  1  0  0  0  0  0  0
  185.8910  178.3450  141.9820 C   0  0  0  0  0  2  0  0  0  0  0  0
  190.4970  174.2630  136.3030 C   0  0  0  0  0  0  0  0  0  0  0  0
  190.1780  173.4210  137.1860 O   0  0  0  0  0  0  0  0  0  0  0  0
  189.9160  175.5690  136.3060 N   0  0  0  0  0  2  0  0  0  0  0  0
  195.3520  174.2160  135.3100 C   0  0  0  0  0  2  0  0  0  0  0  0
  191.5250  173.8960  135.2710 C   0  0  1  0  0  3  0  0  0  0  0  0
  193.9630  174.1020  134.6760 C   0  0  0  0  0  2  0  0  0  0  0  0
  192.1770  171.3350  135.7190 O   0  0  0  0  0  0  0  0  0  0  0  0
  193.2220  174.2370  137.2150 C   0  0  0  0  0  2  0  0  0  0  0  0
  192.8840  173.9040  135.7470 C   0  0  1  0  0  0  0  0  0  0  0  0
  195.3320  175.2410  136.4090 C   0  0  0  0  0  3  0  0  0  0  0  0
  194.3290  175.2530  137.2980 C   0  0  0  0  0  3  0  0  0  0  0  0
  192.1920  172.5520  135.6170 C   0  0  0  0  0  0  0  0  0  0  0  0
  1  5  1  0  0  0  0
  2  9  1  6  0  0  0
  2  7  1  0  0  0  0
  2  1  1  0  0  0  0
  3  6  1  0  0  0  0
  3  8  1  0  0  0  0
  5 10  1  0  0  0  0
  6 25  1  6  0  0  0
  6  2  1  0  0  0  0
  7 11  1  1  0  0  0
  8  4  1  6  0  0  0
  8  7  1  0  0  0  0
 10 14  1  1  0  0  0
 11 10  1  0  0  0  0
 12 13  1  0  0  0  0
 14 17  2  0  0  0  0
 14 16  1  0  0  0  0
 15 19  1  0  0  0  0
 15 18  1  0  0  0  0
 16 15  2  0  0  0  0
 17 19  1  0  0  0  0
 18 20  2  0  0  0  0
 19 12  2  0  0  0  0
 20 13  1  0  0  0  0
 22 21  1  0  0  0  0
 22 17  1  0  0  0  0
 23 25  1  0  0  0  0
 23 24  2  0  0  0  0
 26 32  1  0  0  0  0
 27 34  1  0  0  0  0
 27 31  1  0  0  0  0
 27 23  1  1  0  0  0
 28 26  1  0  0  0  0
 30 33  1  0  0  0  0
 31 28  1  6  0  0  0
 31 30  1  0  0  0  0
 32 33  2  0  0  0  0
 34 29  2  0  0  0  0
 34 31  1  0  0  0  0
M  END
>  <MODEL>
7

>  <REMARK>
 VINA RESULT:      -7.6      6.541      8.930
  Name = 
  4 active torsions:
  status: ('A' for Active; 'I' for Inactive)
    1  A    between atoms: C_3  and  C_14
    2  A    between atoms: C_6  and  C_27
    3  A    between atoms: C_17  and  N_29
    4  A    between atoms: C_24  and  C_28
                            x       y       z     vdW  Elec       q    Type
                         _______ _______ _______ _____ _____    ______ ____

>  <TORSDO>
F 4

$$$$
=
 OpenBabel10222418203D

 34 39  0  0  1  0  0  0  0  0999 V2000
  183.5320  178.7190  139.6070 C   0  0  0  0  0  2  0  0  0  0  0  0
  182.0650  178.5680  140.0330 C   0  0  1  0  0  0  0  0  0  0  0  0
  180.3930  177.0660  140.9430 C   0  0  0  0  0  2  0  0  0  0  0  0
  179.3100  179.1370  141.7940 C   0  0  0  0  0  1  0  0  0  0  0  0
  184.5110  178.2040  140.6490 C   0  0  0  0  0  2  0  0  0  0  0  0
  181.5930  177.1130  140.0130 C   0  0  1  0  0  3  0  0  0  0  0  0
  181.7820  179.0210  141.4780 C   0  0  1  0  0  3  0  0  0  0  0  0
  180.5340  178.2500  141.8960 C   0  0  2  0  0  3  0  0  0  0  0  0
  181.2350  179.4390  139.0920 C   0  0  0  0  0  1  0  0  0  0  0  0
  184.2780  178.9420  141.9550 C   0  0  1  0  0  3  0  0  0  0  0  0
  182.8820  178.6300  142.4740 C   0  0  0  0  0  2  0  0  0  0  0  0
  186.9400  178.1610  146.0770 C   0  0  0  0  0  3  0  0  0  0  0  0
  188.2710  177.4780  146.3390 C   0  0  0  0  0  2  0  0  0  0  0  0
  185.3220  178.5770  142.9680 C   0  0  0  0  0  0  0  0  0  0  0  0
  187.1700  177.6980  143.7030 C   0  0  0  0  0  0  0  0  0  0  0  0
  186.5220  177.8780  142.6010 N   0  0  0  0  0  0  0  0  0  0  0  0
  185.2660  178.8120  144.2870 C   0  0  0  0  0  0  0  0  0  0  0  0
  188.4560  177.0240  143.8610 C   0  0  0  0  0  3  0  0  0  0  0  0
  186.4750  178.2370  144.8340 C   0  0  0  0  0  0  0  0  0  0  0  0
  188.9660  176.9250  145.0980 C   0  0  0  0  0  3  0  0  0  0  0  0
  183.8080  178.6280  146.1970 N   0  0  0  0  0  1  0  0  0  0  0  0
  184.1520  179.4500  145.0510 C   0  0  0  0  0  2  0  0  0  0  0  0
  182.0080  175.7100  137.9430 C   0  0  0  0  0  0  0  0  0  0  0  0
  183.0570  175.2220  138.4450 O   0  0  0  0  0  0  0  0  0  0  0  0
  181.2220  176.6500  138.6800 N   0  0  0  0  0  2  0  0  0  0  0  0
  180.0690  172.0920  135.1660 C   0  0  0  0  0  2  0  0  0  0  0  0
  181.6120  175.3270  136.5450 C   0  0  1  0  0  3  0  0  0  0  0  0
  180.8580  173.4020  135.1070 C   0  0  0  0  0  2  0  0  0  0  0  0
  179.0830  176.1510  136.2150 O   0  0  0  0  0  0  0  0  0  0  0  0
  180.3800  173.3530  137.7110 C   0  0  0  0  0  2  0  0  0  0  0  0
  180.8090  174.1350  136.4530 C   0  0  1  0  0  0  0  0  0  0  0  0
  180.5000  171.2860  136.3600 C   0  0  0  0  0  3  0  0  0  0  0  0
  180.6500  171.8810  137.5510 C   0  0  0  0  0  3  0  0  0  0  0  0
  180.0920  175.4760  136.3460 C   0  0  0  0  0  0  0  0  0  0  0  0
  1  2  1  0  0  0  0
  1  5  1  0  0  0  0
  2  9  1  6  0  0  0
  2  7  1  0  0  0  0
  3  8  1  0  0  0  0
  5 10  1  0  0  0  0
  6 25  1  6  0  0  0
  6  2  1  0  0  0  0
  6  3  1  0  0  0  0
  7  8  1  0  0  0  0
  7 11  1  1  0  0  0
  8  4  1  6  0  0  0
 10 11  1  0  0  0  0
 10 14  1  1  0  0  0
 12 13  1  0  0  0  0
 14 17  2  0  0  0  0
 15 18  1  0  0  0  0
 15 19  1  0  0  0  0
 16 14  1  0  0  0  0
 16 15  2  0  0  0  0
 17 19  1  0  0  0  0
 17 22  1  0  0  0  0
 18 20  2  0  0  0  0
 19 12  2  0  0  0  0
 20 13  1  0  0  0  0
 22 21  1  0  0  0  0
 23 24  2  0  0  0  0
 23 25  1  0  0  0  0
 26 32  1  0  0  0  0
 27 23  1  1  0  0  0
 28 26  1  0  0  0  0
 29 34  2  0  0  0  0
 31 28  1  6  0  0  0
 31 27  1  0  0  0  0
 31 30  1  0  0  0  0
 32 33  2  0  0  0  0
 33 30  1  0  0  0  0
 34 31  1  0  0  0  0
 34 27  1  0  0  0  0
M  END
>  <MODEL>
8

>  <REMARK>
 VINA RESULT:      -7.5      1.946      3.286
  Name = 
  4 active torsions:
  status: ('A' for Active; 'I' for Inactive)
    1  A    between atoms: C_3  and  C_14
    2  A    between atoms: C_6  and  C_27
    3  A    between atoms: C_17  and  N_29
    4  A    between atoms: C_24  and  C_28
                            x       y       z     vdW  Elec       q    Type
                         _______ _______ _______ _____ _____    ______ ____

>  <TORSDO>
F 4

$$$$
=
 OpenBabel10222418203D

 34 39  0  0  1  0  0  0  0  0999 V2000
  185.8990  178.2320  137.2010 C   0  0  0  0  0  2  0  0  0  0  0  0
  185.3420  176.9240  136.6230 C   0  0  1  0  0  0  0  0  0  0  0  0
  185.3260  174.5060  136.8040 C   0  0  0  0  0  2  0  0  0  0  0  0
  183.0530  174.6630  135.8060 C   0  0  0  0  0  1  0  0  0  0  0  0
  185.7860  178.3110  138.7150 C   0  0  0  0  0  2  0  0  0  0  0  0
  186.2320  175.7180  136.9290 C   0  0  1  0  0  3  0  0  0  0  0  0
  183.9720  176.5170  137.1990 C   0  0  1  0  0  3  0  0  0  0  0  0
  183.8990  175.0050  137.0160 C   0  0  2  0  0  3  0  0  0  0  0  0
  185.1800  177.1330  135.1190 C   0  0  0  0  0  1  0  0  0  0  0  0
  184.3280  178.1550  139.1110 C   0  0  1  0  0  3  0  0  0  0  0  0
  183.8360  176.7740  138.7060 C   0  0  0  0  0  2  0  0  0  0  0  0
  182.5910  179.0030  143.6880 C   0  0  0  0  0  3  0  0  0  0  0  0
  183.2400  179.0020  145.0610 C   0  0  0  0  0  2  0  0  0  0  0  0
  184.1490  178.3800  140.5820 C   0  0  0  0  0  0  0  0  0  0  0  0
  184.7350  178.4760  142.6750 C   0  0  0  0  0  0  0  0  0  0  0  0
  185.2410  178.2520  141.5080 N   0  0  0  0  0  0  0  0  0  0  0  0
  183.0010  178.6840  141.2060 C   0  0  0  0  0  0  0  0  0  0  0  0
  185.4420  178.4560  143.9520 C   0  0  0  0  0  3  0  0  0  0  0  0
  183.3310  178.7530  142.6130 C   0  0  0  0  0  0  0  0  0  0  0  0
  184.7360  178.7030  145.0650 C   0  0  0  0  0  3  0  0  0  0  0  0
  180.8970  177.5990  140.7560 N   0  0  0  0  0  1  0  0  0  0  0  0
  181.6460  178.8320  140.5950 C   0  0  0  0  0  2  0  0  0  0  0  0
  188.6750  176.0750  136.3520 C   0  0  0  0  0  0  0  0  0  0  0  0
  188.8970  176.6000  137.4770 O   0  0  0  0  0  0  0  0  0  0  0  0
  187.3680  175.6000  136.0200 N   0  0  0  0  0  2  0  0  0  0  0  0
  193.5800  175.6140  135.8130 C   0  0  0  0  0  2  0  0  0  0  0  0
  189.7860  175.9900  135.3450 C   0  0  1  0  0  3  0  0  0  0  0  0
  192.2910  176.0040  135.0850 C   0  0  0  0  0  2  0  0  0  0  0  0
  190.0530  173.3980  134.7170 O   0  0  0  0  0  0  0  0  0  0  0  0
  191.2200  175.2190  137.3760 C   0  0  0  0  0  2  0  0  0  0  0  0
  191.0550  175.5740  135.8840 C   0  0  1  0  0  0  0  0  0  0  0  0
  193.5290  176.0910  137.2370 C   0  0  0  0  0  3  0  0  0  0  0  0
  192.4190  175.9110  137.9660 C   0  0  0  0  0  3  0  0  0  0  0  0
  190.2300  174.5290  135.1410 C   0  0  0  0  0  0  0  0  0  0  0  0
  1  5  1  0  0  0  0
  2  9  1  6  0  0  0
  2  6  1  0  0  0  0
  2  7  1  0  0  0  0
  2  1  1  0  0  0  0
  3  6  1  0  0  0  0
  3  8  1  0  0  0  0
  5 10  1  0  0  0  0
  6 25  1  6  0  0  0
  7 11  1  1  0  0  0
  8  4  1  6  0  0  0
  8  7  1  0  0  0  0
 10 14  1  1  0  0  0
 11 10  1  0  0  0  0
 12 13  1  0  0  0  0
 13 20  1  0  0  0  0
 14 17  2  0  0  0  0
 14 16  1  0  0  0  0
 15 18  1  0  0  0  0
 16 15  2  0  0  0  0
 17 19  1  0  0  0  0
 18 20  2  0  0  0  0
 19 15  1  0  0  0  0
 19 12  2  0  0  0  0
 22 21  1  0  0  0  0
 22 17  1  0  0  0  0
 23 24  2  0  0  0  0
 25 23  1  0  0  0  0
 26 32  1  0  0  0  0
 27 31  1  0  0  0  0
 27 23  1  1  0  0  0
 28 26  1  0  0  0  0
 29 34  2  0  0  0  0
 30 33  1  0  0  0  0
 31 28  1  6  0  0  0
 31 30  1  0  0  0  0
 32 33  2  0  0  0  0
 34 27  1  0  0  0  0
 34 31  1  0  0  0  0
M  END
>  <MODEL>
9

>  <REMARK>
 VINA RESULT:      -7.2      5.239      7.836
  Name = 
  4 active torsions:
  status: ('A' for Active; 'I' for Inactive)
    1  A    between atoms: C_3  and  C_14
    2  A    between atoms: C_6  and  C_27
    3  A    between atoms: C_17  and  N_29
    4  A    between atoms: C_24  and  C_28
                            x       y       z     vdW  Elec       q    Type
                         _______ _______ _______ _____ _____    ______ ____

>  <TORSDO>
F 4

$$$$
