=
 OpenBabel10222416543D

 28 29  0  0  1  0  0  0  0  0999 V2000
  187.4030  176.3370  143.5800 C   0  0  1  0  0  3  0  0  0  0  0  0
  186.4570  177.6030  145.5100 O   0  0  0  0  0  1  0  0  0  0  0  0
  188.6790  176.0000  143.1210 O   0  0  0  0  0  1  0  0  0  0  0  0
  187.4640  177.5210  144.5440 C   0  0  2  0  0  0  0  0  0  0  0  0
  187.0080  177.7450  143.1100 C   0  0  2  0  0  0  0  0  0  0  0  0
  185.2380  178.0850  142.8870 S   0  0  0  0  0  3  0  0  0  0  0  0
  185.1040  179.5560  143.2590 O   0  0  0  0  0  0  0  0  0  0  0  0
  187.9320  178.4580  142.3210 O   0  0  0  0  0  0  0  0  0  0  0  0
  187.4230  178.4820  141.0180 C   0  0  0  0  0  2  0  0  0  0  0  0
  188.5500  178.2480  140.0290 C   0  0  0  0  0  2  0  0  0  0  0  0
  187.9930  177.7880  138.6910 C   0  0  1  0  0  3  0  0  0  0  0  0
  186.5260  178.1620  138.5600 C   0  0  0  0  0  1  0  0  0  0  0  0
  189.4180  177.5010  136.5270 C   0  0  0  0  0  1  0  0  0  0  0  0
  188.9170  179.6450  137.4790 N   0  0  0  0  0  2  0  0  0  0  0  0
  188.7850  178.3740  137.5620 C   0  0  0  0  0  0  0  0  0  0  0  0
  188.7760  178.0910  144.8750 N   0  0  0  0  0  2  0  0  0  0  0  0
  189.6510  177.1760  145.6270 C   0  0  1  0  0  3  0  0  0  0  0  0
  191.7870  176.1700  143.1630 N   0  0  0  0  0  2  0  0  0  0  0  0
  191.8730  175.0170  145.1760 O   0  0  0  0  0  0  0  0  0  0  0  0
  191.4390  178.5990  144.6060 C   0  0  0  0  0  3  0  0  0  0  0  0
  191.1730  177.3150  145.3660 C   0  0  1  0  0  0  0  0  0  0  0  0
  191.6460  178.6560  143.2900 C   0  0  0  0  0  3  0  0  0  0  0  0
  191.8700  177.3760  146.5750 O   0  0  0  0  0  1  0  0  0  0  0  0
  191.7130  177.4270  142.4960 C   0  0  0  0  0  0  0  0  0  0  0  0
  191.6500  176.1060  144.5850 C   0  0  0  0  0  0  0  0  0  0  0  0
  191.8480  177.4890  141.2150 N   0  0  0  0  0  2  0  0  0  0  0  0
  189.1700  176.8090  147.0410 C   0  0  0  0  0  2  0  0  0  0  0  0
  188.9580  178.0210  147.9310 C   0  0  0  0  0  1  0  0  0  0  0  0
  1  3  1  6  0  0  0
  1  4  1  0  0  0  0
  4 16  1  0  0  0  0
  4  2  1  1  0  0  0
  5  8  1  6  0  0  0
  5  1  1  0  0  0  0
  5  4  1  0  0  0  0
  6  5  1  0  0  0  0
  6  7  2  0  0  0  0
  9  8  1  0  0  0  0
 10  9  1  0  0  0  0
 11 12  1  6  0  0  0
 11 10  1  0  0  0  0
 13 15  1  0  0  0  0
 14 15  2  0  0  0  0
 15 11  1  0  0  0  0
 16 17  1  0  0  0  0
 17 27  1  1  0  0  0
 18 25  1  0  0  0  0
 20 21  1  0  0  0  0
 21 17  1  0  0  0  0
 21 23  1  1  0  0  0
 22 20  2  0  0  0  0
 24 18  1  0  0  0  0
 24 22  1  0  0  0  0
 25 19  2  0  0  0  0
 25 21  1  0  0  0  0
 26 24  2  0  0  0  0
 27 28  1  0  0  0  0
M  END
>  <MODEL>
1

>  <REMARK>
 VINA RESULT:      -6.9      0.000      0.000
  Name = 
  10 active torsions:
  status: ('A' for Active; 'I' for Inactive)
    1  A    between atoms: C_2  and  O_9
    2  A    between atoms: C_2  and  C_24
    3  A    between atoms: C_3  and  C_24
    4  A    between atoms: C_3  and  C_27
    5  A    between atoms: C_5  and  C_20
    6  A    between atoms: O_9  and  C_28
    7  A    between atoms: S_10  and  C_28
    8  A    between atoms: C_12  and  C_20
    9  A    between atoms: N_15  and  C_20
   10  A    between atoms: N_15  and  C_23
                            x       y       z     vdW  Elec       q    Type
                         _______ _______ _______ _____ _____    ______ ____

>  <TORSDO>
F 10

$$$$
=
 OpenBabel10222416543D

 28 29  0  0  1  0  0  0  0  0999 V2000
  190.0970  176.1260  142.5870 C   0  0  1  0  0  3  0  0  0  0  0  0
  191.7360  177.5660  141.3780 O   0  0  0  0  0  1  0  0  0  0  0  0
  188.7880  175.6860  142.3720 O   0  0  0  0  0  1  0  0  0  0  0  0
  190.4030  177.3630  141.7440 C   0  0  2  0  0  0  0  0  0  0  0  0
  190.1050  177.5220  143.2280 C   0  0  2  0  0  0  0  0  0  0  0  0
  191.5240  177.9510  144.2760 S   0  0  0  0  0  3  0  0  0  0  0  0
  191.6700  179.4550  144.0880 O   0  0  0  0  0  0  0  0  0  0  0  0
  188.8630  178.1280  143.4990 O   0  0  0  0  0  0  0  0  0  0  0  0
  188.5970  177.9200  144.8580 C   0  0  0  0  0  2  0  0  0  0  0  0
  187.2200  177.3000  145.0150 C   0  0  0  0  0  2  0  0  0  0  0  0
  186.6720  177.5750  146.4060 C   0  0  1  0  0  3  0  0  0  0  0  0
  187.8000  177.8740  147.3810 C   0  0  0  0  0  1  0  0  0  0  0  0
  184.7310  178.8670  145.2410 C   0  0  0  0  0  1  0  0  0  0  0  0
  185.6830  179.5590  147.3310 N   0  0  0  0  0  2  0  0  0  0  0  0
  185.6960  178.7110  146.3720 C   0  0  0  0  0  0  0  0  0  0  0  0
  189.3610  177.8740  140.8430 N   0  0  0  0  0  2  0  0  0  0  0  0
  189.4290  177.3230  139.4790 C   0  0  1  0  0  3  0  0  0  0  0  0
  189.1610  178.0420  136.1540 N   0  0  0  0  0  2  0  0  0  0  0  0
  189.0120  179.8210  137.6390 O   0  0  0  0  0  0  0  0  0  0  0  0
  187.6420  176.4490  137.9600 C   0  0  0  0  0  3  0  0  0  0  0  0
  188.2680  177.7070  138.5270 C   0  0  1  0  0  0  0  0  0  0  0  0
  187.9070  175.9690  136.7440 C   0  0  0  0  0  3  0  0  0  0  0  0
  187.2790  178.4050  139.2250 O   0  0  0  0  0  1  0  0  0  0  0  0
  188.7810  176.7070  135.8300 C   0  0  0  0  0  0  0  0  0  0  0  0
  188.8100  178.5960  137.4250 C   0  0  0  0  0  0  0  0  0  0  0  0
  189.0860  176.2090  134.6800 N   0  0  0  0  0  2  0  0  0  0  0  0
  190.8440  177.1610  138.8980 C   0  0  0  0  0  2  0  0  0  0  0  0
  191.1450  175.7410  138.4500 C   0  0  0  0  0  1  0  0  0  0  0  0
  1  3  1  6  0  0  0
  1  5  1  0  0  0  0
  4  2  1  6  0  0  0
  4  1  1  0  0  0  0
  4  5  1  0  0  0  0
  5  8  1  1  0  0  0
  5  6  1  0  0  0  0
  7  6  2  0  0  0  0
  8  9  1  0  0  0  0
  9 10  1  0  0  0  0
 10 11  1  0  0  0  0
 11 12  1  1  0  0  0
 13 15  1  0  0  0  0
 15 11  1  0  0  0  0
 15 14  2  0  0  0  0
 16  4  1  0  0  0  0
 17 27  1  6  0  0  0
 17 16  1  0  0  0  0
 18 25  1  0  0  0  0
 20 21  1  0  0  0  0
 21 23  1  1  0  0  0
 21 17  1  0  0  0  0
 22 20  2  0  0  0  0
 24 18  1  0  0  0  0
 24 22  1  0  0  0  0
 25 19  2  0  0  0  0
 25 21  1  0  0  0  0
 26 24  2  0  0  0  0
 28 27  1  0  0  0  0
M  END
>  <MODEL>
2

>  <REMARK>
 VINA RESULT:      -6.8      2.779      7.192
  Name = 
  10 active torsions:
  status: ('A' for Active; 'I' for Inactive)
    1  A    between atoms: C_2  and  O_9
    2  A    between atoms: C_2  and  C_24
    3  A    between atoms: C_3  and  C_24
    4  A    between atoms: C_3  and  C_27
    5  A    between atoms: C_5  and  C_20
    6  A    between atoms: O_9  and  C_28
    7  A    between atoms: S_10  and  C_28
    8  A    between atoms: C_12  and  C_20
    9  A    between atoms: N_15  and  C_20
   10  A    between atoms: N_15  and  C_23
                            x       y       z     vdW  Elec       q    Type
                         _______ _______ _______ _____ _____    ______ ____

>  <TORSDO>
F 10

$$$$
=
 OpenBabel10222416543D

 28 29  0  0  1  0  0  0  0  0999 V2000
  183.6520  179.4330  138.7840 C   0  0  1  0  0  3  0  0  0  0  0  0
  184.4760  177.1690  138.1400 O   0  0  0  0  0  1  0  0  0  0  0  0
  184.1940  180.7190  138.8690 O   0  0  0  0  0  1  0  0  0  0  0  0
  184.7540  178.3740  138.7890 C   0  0  2  0  0  0  0  0  0  0  0  0
  183.9520  178.6290  140.0580 C   0  0  2  0  0  0  0  0  0  0  0  0
  182.7720  177.3290  140.5210 S   0  0  0  0  0  3  0  0  0  0  0  0
  181.5260  178.1020  140.9310 O   0  0  0  0  0  0  0  0  0  0  0  0
  184.6850  179.2640  141.0790 O   0  0  0  0  0  0  0  0  0  0  0  0
  184.6830  178.3990  142.1800 C   0  0  0  0  0  2  0  0  0  0  0  0
  185.4300  179.0450  143.3320 C   0  0  0  0  0  2  0  0  0  0  0  0
  185.5770  178.0630  144.4840 C   0  0  1  0  0  3  0  0  0  0  0  0
  187.0310  177.6610  144.6690 C   0  0  0  0  0  1  0  0  0  0  0  0
  185.9060  178.8600  146.9440 C   0  0  0  0  0  1  0  0  0  0  0  0
  183.7970  178.9850  145.8070 N   0  0  0  0  0  2  0  0  0  0  0  0
  185.0320  178.6510  145.7500 C   0  0  0  0  0  0  0  0  0  0  0  0
  186.1530  178.8170  138.8400 N   0  0  0  0  0  2  0  0  0  0  0  0
  187.1300  177.7180  138.7550 C   0  0  1  0  0  3  0  0  0  0  0  0
  190.2880  177.1380  137.6010 N   0  0  0  0  0  2  0  0  0  0  0  0
  189.3910  179.2450  137.2200 O   0  0  0  0  0  0  0  0  0  0  0  0
  187.7420  175.9900  137.0520 C   0  0  0  0  0  3  0  0  0  0  0  0
  187.7640  177.4720  137.3620 C   0  0  1  0  0  0  0  0  0  0  0  0
  188.7940  175.1830  137.1950 C   0  0  0  0  0  3  0  0  0  0  0  0
  187.0320  178.1320  136.3720 O   0  0  0  0  0  1  0  0  0  0  0  0
  190.0950  175.7250  137.5920 C   0  0  0  0  0  0  0  0  0  0  0  0
  189.1810  178.0110  137.3660 C   0  0  0  0  0  0  0  0  0  0  0  0
  191.0940  174.9340  137.7930 N   0  0  0  0  0  2  0  0  0  0  0  0
  187.9870  177.4930  140.0120 C   0  0  0  0  0  2  0  0  0  0  0  0
  188.1200  178.7370  140.8730 C   0  0  0  0  0  1  0  0  0  0  0  0
  1  4  1  0  0  0  0
  1  3  1  1  0  0  0
  1  5  1  0  0  0  0
  4  2  1  6  0  0  0
  4 16  1  0  0  0  0
  4  5  1  0  0  0  0
  5  6  1  1  0  0  0
  5  8  1  0  0  0  0
  6  7  2  0  0  0  0
  8  9  1  0  0  0  0
  9 10  1  0  0  0  0
 10 11  1  0  0  0  0
 11 12  1  1  0  0  0
 11 15  1  0  0  0  0
 15 14  2  0  0  0  0
 15 13  1  0  0  0  0
 17 16  1  0  0  0  0
 17 27  1  1  0  0  0
 19 25  2  0  0  0  0
 20 22  2  0  0  0  0
 20 21  1  0  0  0  0
 21 23  1  6  0  0  0
 21 25  1  0  0  0  0
 21 17  1  0  0  0  0
 22 24  1  0  0  0  0
 24 18  1  0  0  0  0
 24 26  2  0  0  0  0
 25 18  1  0  0  0  0
 27 28  1  0  0  0  0
M  END
>  <MODEL>
3

>  <REMARK>
 VINA RESULT:      -6.7      4.125      7.194
  Name = 
  10 active torsions:
  status: ('A' for Active; 'I' for Inactive)
    1  A    between atoms: C_2  and  O_9
    2  A    between atoms: C_2  and  C_24
    3  A    between atoms: C_3  and  C_24
    4  A    between atoms: C_3  and  C_27
    5  A    between atoms: C_5  and  C_20
    6  A    between atoms: O_9  and  C_28
    7  A    between atoms: S_10  and  C_28
    8  A    between atoms: C_12  and  C_20
    9  A    between atoms: N_15  and  C_20
   10  A    between atoms: N_15  and  C_23
                            x       y       z     vdW  Elec       q    Type
                         _______ _______ _______ _____ _____    ______ ____

>  <TORSDO>
F 10

$$$$
=
 OpenBabel10222416543D

 28 29  0  0  1  0  0  0  0  0999 V2000
  191.3010  175.8550  143.2820 C   0  0  1  0  0  3  0  0  0  0  0  0
  191.8800  177.7510  141.7690 O   0  0  0  0  0  1  0  0  0  0  0  0
  190.6520  174.6240  143.1560 O   0  0  0  0  0  1  0  0  0  0  0  0
  190.9350  176.7870  142.1280 C   0  0  2  0  0  0  0  0  0  0  0  0
  190.2850  176.9890  143.4890 C   0  0  2  0  0  0  0  0  0  0  0  0
  190.8380  178.4460  144.4200 S   0  0  0  0  0  3  0  0  0  0  0  0
  191.6800  177.8580  145.5440 O   0  0  0  0  0  0  0  0  0  0  0  0
  188.9180  176.6490  143.5260 O   0  0  0  0  0  0  0  0  0  0  0  0
  188.2780  177.6200  144.3040 C   0  0  0  0  0  2  0  0  0  0  0  0
  186.8430  177.1970  144.5630 C   0  0  0  0  0  2  0  0  0  0  0  0
  186.4660  177.4650  146.0110 C   0  0  1  0  0  3  0  0  0  0  0  0
  187.7050  177.7350  146.8500 C   0  0  0  0  0  1  0  0  0  0  0  0
  184.5240  178.8890  145.0130 C   0  0  0  0  0  1  0  0  0  0  0  0
  185.5380  179.3770  147.1320 N   0  0  0  0  0  2  0  0  0  0  0  0
  185.5120  178.6160  146.1020 C   0  0  0  0  0  0  0  0  0  0  0  0
  190.0370  176.2860  141.0790 N   0  0  0  0  0  2  0  0  0  0  0  0
  189.5630  177.3270  140.1520 C   0  0  1  0  0  3  0  0  0  0  0  0
  188.5350  175.9510  137.2040 N   0  0  0  0  0  2  0  0  0  0  0  0
  190.2780  174.8950  138.3160 O   0  0  0  0  0  0  0  0  0  0  0  0
  189.6430  178.4710  137.9270 C   0  0  0  0  0  3  0  0  0  0  0  0
  190.1280  177.2680  138.7100 C   0  0  1  0  0  0  0  0  0  0  0  0
  188.6230  178.4380  137.0670 C   0  0  0  0  0  3  0  0  0  0  0  0
  191.5240  177.3020  138.7330 O   0  0  0  0  0  1  0  0  0  0  0  0
  187.9530  177.1740  136.7610 C   0  0  0  0  0  0  0  0  0  0  0  0
  189.6800  175.9730  138.0600 C   0  0  0  0  0  0  0  0  0  0  0  0
  186.9270  177.1560  135.9790 N   0  0  0  0  0  2  0  0  0  0  0  0
  188.1140  177.7960  140.3640 C   0  0  0  0  0  2  0  0  0  0  0  0
  188.0080  179.0190  141.2570 C   0  0  0  0  0  1  0  0  0  0  0  0
  1  3  1  6  0  0  0
  1  5  1  0  0  0  0
  4  2  1  6  0  0  0
  4  1  1  0  0  0  0
  4  5  1  0  0  0  0
  5  8  1  1  0  0  0
  5  6  1  0  0  0  0
  6  7  2  0  0  0  0
  8  9  1  0  0  0  0
  9 10  1  0  0  0  0
 10 11  1  0  0  0  0
 11 15  1  0  0  0  0
 11 12  1  1  0  0  0
 13 15  1  0  0  0  0
 15 14  2  0  0  0  0
 16  4  1  0  0  0  0
 17 27  1  6  0  0  0
 17 16  1  0  0  0  0
 18 25  1  0  0  0  0
 20 21  1  0  0  0  0
 21 23  1  1  0  0  0
 21 17  1  0  0  0  0
 22 20  2  0  0  0  0
 24 22  1  0  0  0  0
 24 18  1  0  0  0  0
 25 19  2  0  0  0  0
 25 21  1  0  0  0  0
 26 24  2  0  0  0  0
 27 28  1  0  0  0  0
M  END
>  <MODEL>
4

>  <REMARK>
 VINA RESULT:      -6.7      2.713      6.604
  Name = 
  10 active torsions:
  status: ('A' for Active; 'I' for Inactive)
    1  A    between atoms: C_2  and  O_9
    2  A    between atoms: C_2  and  C_24
    3  A    between atoms: C_3  and  C_24
    4  A    between atoms: C_3  and  C_27
    5  A    between atoms: C_5  and  C_20
    6  A    between atoms: O_9  and  C_28
    7  A    between atoms: S_10  and  C_28
    8  A    between atoms: C_12  and  C_20
    9  A    between atoms: N_15  and  C_20
   10  A    between atoms: N_15  and  C_23
                            x       y       z     vdW  Elec       q    Type
                         _______ _______ _______ _____ _____    ______ ____

>  <TORSDO>
F 10

$$$$
=
 OpenBabel10222416543D

 28 29  0  0  1  0  0  0  0  0999 V2000
  191.1860  177.8090  140.0700 C   0  0  1  0  0  3  0  0  0  0  0  0
  189.6480  177.1760  138.2110 O   0  0  0  0  0  1  0  0  0  0  0  0
  192.4430  177.4010  140.5250 O   0  0  0  0  0  1  0  0  0  0  0  0
  190.5510  176.7390  139.1840 C   0  0  2  0  0  0  0  0  0  0  0  0
  190.0820  176.8970  140.6230 C   0  0  2  0  0  0  0  0  0  0  0  0
  188.4310  177.6210  140.8420 S   0  0  0  0  0  3  0  0  0  0  0  0
  188.6950  178.8840  141.6500 O   0  0  0  0  0  0  0  0  0  0  0  0
  190.4660  175.8380  141.4690 O   0  0  0  0  0  0  0  0  0  0  0  0
  189.7930  176.0210  142.6820 C   0  0  0  0  0  2  0  0  0  0  0  0
  190.7630  176.5410  143.7270 C   0  0  0  0  0  2  0  0  0  0  0  0
  190.0250  177.3620  144.7720 C   0  0  1  0  0  3  0  0  0  0  0  0
  188.5280  177.1120  144.6960 C   0  0  0  0  0  1  0  0  0  0  0  0
  189.6100  176.9470  147.3120 C   0  0  0  0  0  1  0  0  0  0  0  0
  191.7940  176.8660  146.3210 N   0  0  0  0  0  2  0  0  0  0  0  0
  190.5390  177.0510  146.1450 C   0  0  0  0  0  0  0  0  0  0  0  0
  191.3110  175.5120  138.9100 N   0  0  0  0  0  2  0  0  0  0  0  0
  191.2300  175.0610  137.5100 C   0  0  1  0  0  3  0  0  0  0  0  0
  194.5510  175.0590  138.2960 N   0  0  0  0  0  2  0  0  0  0  0  0
  193.6310  177.0680  137.5840 O   0  0  0  0  0  0  0  0  0  0  0  0
  192.9780  173.6900  136.3580 C   0  0  0  0  0  3  0  0  0  0  0  0
  192.5520  175.1030  136.7010 C   0  0  1  0  0  0  0  0  0  0  0  0
  193.9120  173.0110  137.0260 C   0  0  0  0  0  3  0  0  0  0  0  0
  192.3680  175.8010  135.5060 O   0  0  0  0  0  1  0  0  0  0  0  0
  194.6610  173.6500  138.1090 C   0  0  0  0  0  0  0  0  0  0  0  0
  193.6100  175.8100  137.5250 C   0  0  0  0  0  0  0  0  0  0  0  0
  195.5170  172.9710  138.7950 N   0  0  0  0  0  2  0  0  0  0  0  0
  190.2240  173.9310  137.2330 C   0  0  0  0  0  2  0  0  0  0  0  0
  189.1060  174.3470  136.2930 C   0  0  0  0  0  1  0  0  0  0  0  0
  1  3  1  1  0  0  0
  1  5  1  0  0  0  0
  4  2  1  6  0  0  0
  4  1  1  0  0  0  0
  4  5  1  0  0  0  0
  5  6  1  1  0  0  0
  5  8  1  0  0  0  0
  6  7  2  0  0  0  0
  8  9  1  0  0  0  0
  9 10  1  0  0  0  0
 10 11  1  0  0  0  0
 11 12  1  1  0  0  0
 11 15  1  0  0  0  0
 15 14  2  0  0  0  0
 15 13  1  0  0  0  0
 16  4  1  0  0  0  0
 17 27  1  1  0  0  0
 17 16  1  0  0  0  0
 20 21  1  0  0  0  0
 20 22  2  0  0  0  0
 21 23  1  6  0  0  0
 21 17  1  0  0  0  0
 21 25  1  0  0  0  0
 22 24  1  0  0  0  0
 24 18  1  0  0  0  0
 24 26  2  0  0  0  0
 25 19  2  0  0  0  0
 25 18  1  0  0  0  0
 28 27  1  0  0  0  0
M  END
>  <MODEL>
5

>  <REMARK>
 VINA RESULT:      -6.4      4.164      7.586
  Name = 
  10 active torsions:
  status: ('A' for Active; 'I' for Inactive)
    1  A    between atoms: C_2  and  O_9
    2  A    between atoms: C_2  and  C_24
    3  A    between atoms: C_3  and  C_24
    4  A    between atoms: C_3  and  C_27
    5  A    between atoms: C_5  and  C_20
    6  A    between atoms: O_9  and  C_28
    7  A    between atoms: S_10  and  C_28
    8  A    between atoms: C_12  and  C_20
    9  A    between atoms: N_15  and  C_20
   10  A    between atoms: N_15  and  C_23
                            x       y       z     vdW  Elec       q    Type
                         _______ _______ _______ _____ _____    ______ ____

>  <TORSDO>
F 10

$$$$
=
 OpenBabel10222416543D

 28 29  0  0  1  0  0  0  0  0999 V2000
  185.0390  179.7740  143.0640 C   0  0  1  0  0  3  0  0  0  0  0  0
  182.7040  178.9050  143.1820 O   0  0  0  0  0  1  0  0  0  0  0  0
  186.0510  179.8240  142.1010 O   0  0  0  0  0  1  0  0  0  0  0  0
  184.0060  178.7040  142.7160 C   0  0  2  0  0  0  0  0  0  0  0  0
  185.0450  178.4210  143.7910 C   0  0  2  0  0  0  0  0  0  0  0  0
  184.4260  178.3880  145.4980 S   0  0  0  0  0  3  0  0  0  0  0  0
  185.3250  179.3780  146.2260 O   0  0  0  0  0  0  0  0  0  0  0  0
  186.0170  177.4740  143.4110 O   0  0  0  0  0  0  0  0  0  0  0  0
  186.7960  177.2140  144.5440 C   0  0  0  0  0  2  0  0  0  0  0  0
  188.2570  177.1240  144.1450 C   0  0  0  0  0  2  0  0  0  0  0  0
  189.1270  177.8650  145.1480 C   0  0  1  0  0  3  0  0  0  0  0  0
  188.9210  177.3150  146.5500 C   0  0  0  0  0  1  0  0  0  0  0  0
  191.2270  178.8670  143.9730 C   0  0  0  0  0  1  0  0  0  0  0  0
  191.2570  176.7550  145.1100 N   0  0  0  0  0  2  0  0  0  0  0  0
  190.5710  177.7780  144.7580 C   0  0  0  0  0  0  0  0  0  0  0  0
  184.1760  177.9420  141.4720 N   0  0  0  0  0  2  0  0  0  0  0  0
  183.1300  178.1990  140.4670 C   0  0  1  0  0  3  0  0  0  0  0  0
  182.7160  177.9950  137.0860 N   0  0  0  0  0  2  0  0  0  0  0  0
  184.8270  177.5170  137.9260 O   0  0  0  0  0  0  0  0  0  0  0  0
  182.4750  180.1040  138.9830 C   0  0  0  0  0  3  0  0  0  0  0  0
  183.5470  179.0690  139.2540 C   0  0  1  0  0  0  0  0  0  0  0  0
  181.5480  179.9850  138.0300 C   0  0  0  0  0  3  0  0  0  0  0  0
  184.7390  179.7430  139.5260 O   0  0  0  0  0  1  0  0  0  0  0  0
  181.5740  178.8470  137.1090 C   0  0  0  0  0  0  0  0  0  0  0  0
  183.7560  178.1680  138.0520 C   0  0  0  0  0  0  0  0  0  0  0  0
  180.6400  178.7010  136.2320 N   0  0  0  0  0  2  0  0  0  0  0  0
  182.1200  177.0590  140.2520 C   0  0  0  0  0  2  0  0  0  0  0  0
  180.6990  177.4460  140.6200 C   0  0  0  0  0  1  0  0  0  0  0  0
  1  3  1  6  0  0  0
  1  5  1  0  0  0  0
  4  1  1  0  0  0  0
  4  2  1  1  0  0  0
  4  5  1  0  0  0  0
  5  8  1  6  0  0  0
  5  6  1  0  0  0  0
  6  7  2  0  0  0  0
  8  9  1  0  0  0  0
 10  9  1  0  0  0  0
 10 11  1  0  0  0  0
 11 12  1  1  0  0  0
 13 15  1  0  0  0  0
 15 14  2  0  0  0  0
 15 11  1  0  0  0  0
 16  4  1  0  0  0  0
 17 27  1  6  0  0  0
 17 16  1  0  0  0  0
 18 24  1  0  0  0  0
 18 25  1  0  0  0  0
 19 25  2  0  0  0  0
 20 21  1  0  0  0  0
 21 23  1  1  0  0  0
 21 17  1  0  0  0  0
 22 20  2  0  0  0  0
 24 22  1  0  0  0  0
 25 21  1  0  0  0  0
 26 24  2  0  0  0  0
 27 28  1  0  0  0  0
M  END
>  <MODEL>
6

>  <REMARK>
 VINA RESULT:      -6.2      3.862      8.098
  Name = 
  10 active torsions:
  status: ('A' for Active; 'I' for Inactive)
    1  A    between atoms: C_2  and  O_9
    2  A    between atoms: C_2  and  C_24
    3  A    between atoms: C_3  and  C_24
    4  A    between atoms: C_3  and  C_27
    5  A    between atoms: C_5  and  C_20
    6  A    between atoms: O_9  and  C_28
    7  A    between atoms: S_10  and  C_28
    8  A    between atoms: C_12  and  C_20
    9  A    between atoms: N_15  and  C_20
   10  A    between atoms: N_15  and  C_23
                            x       y       z     vdW  Elec       q    Type
                         _______ _______ _______ _____ _____    ______ ____

>  <TORSDO>
F 10

$$$$
=
 OpenBabel10222416543D

 28 29  0  0  1  0  0  0  0  0999 V2000
  189.4860  178.1370  138.3580 C   0  0  1  0  0  3  0  0  0  0  0  0
  190.1060  175.9890  139.4650 O   0  0  0  0  0  1  0  0  0  0  0  0
  189.2320  179.4480  138.7680 O   0  0  0  0  0  1  0  0  0  0  0  0
  189.3480  177.1620  139.5260 C   0  0  2  0  0  0  0  0  0  0  0  0
  188.2290  177.2660  138.5000 C   0  0  2  0  0  0  0  0  0  0  0  0
  188.0580  175.8540  137.3710 S   0  0  0  0  0  3  0  0  0  0  0  0
  188.4870  176.4170  136.0220 O   0  0  0  0  0  0  0  0  0  0  0  0
  187.0590  177.8760  138.9920 O   0  0  0  0  0  0  0  0  0  0  0  0
  186.0960  177.7870  137.9790 C   0  0  0  0  0  2  0  0  0  0  0  0
  184.7100  177.9130  138.5850 C   0  0  0  0  0  2  0  0  0  0  0  0
  184.5900  179.2110  139.3660 C   0  0  1  0  0  3  0  0  0  0  0  0
  183.3080  179.9430  139.0030 C   0  0  0  0  0  1  0  0  0  0  0  0
  183.7590  177.9170  141.4700 C   0  0  0  0  0  1  0  0  0  0  0  0
  185.4600  179.6060  141.5710 N   0  0  0  0  0  2  0  0  0  0  0  0
  184.6420  178.9450  140.8400 C   0  0  0  0  0  0  0  0  0  0  0  0
  189.0250  177.6990  140.8540 N   0  0  0  0  0  2  0  0  0  0  0  0
  189.5410  176.8850  141.9680 C   0  0  1  0  0  3  0  0  0  0  0  0
  190.5180  178.2290  144.9480 N   0  0  0  0  0  2  0  0  0  0  0  0
  190.4590  179.6500  143.1130 O   0  0  0  0  0  0  0  0  0  0  0  0
  191.5490  176.1680  143.2780 C   0  0  0  0  0  3  0  0  0  0  0  0
  190.8910  177.3400  142.5800 C   0  0  1  0  0  0  0  0  0  0  0  0
  191.5120  175.9700  144.5970 C   0  0  0  0  0  3  0  0  0  0  0  0
  191.7540  177.7850  141.5760 O   0  0  0  0  0  1  0  0  0  0  0  0
  190.8840  176.9570  145.4770 C   0  0  0  0  0  0  0  0  0  0  0  0
  190.6330  178.4800  143.5460 C   0  0  0  0  0  0  0  0  0  0  0  0
  190.7920  176.7310  146.7440 N   0  0  0  0  0  2  0  0  0  0  0  0
  188.4750  176.2730  142.8920 C   0  0  0  0  0  2  0  0  0  0  0  0
  187.3360  177.2280  143.2020 C   0  0  0  0  0  1  0  0  0  0  0  0
  1  5  1  0  0  0  0
  1  3  1  1  0  0  0
  1  4  1  0  0  0  0
  4  2  1  6  0  0  0
  4 16  1  0  0  0  0
  5  6  1  6  0  0  0
  5  8  1  0  0  0  0
  5  4  1  0  0  0  0
  7  6  2  0  0  0  0
  9 10  1  0  0  0  0
  9  8  1  0  0  0  0
 10 11  1  0  0  0  0
 11 12  1  1  0  0  0
 11 15  1  0  0  0  0
 15 13  1  0  0  0  0
 15 14  2  0  0  0  0
 16 17  1  0  0  0  0
 17 21  1  0  0  0  0
 17 27  1  1  0  0  0
 18 24  1  0  0  0  0
 19 25  2  0  0  0  0
 20 22  2  0  0  0  0
 21 23  1  6  0  0  0
 21 20  1  0  0  0  0
 21 25  1  0  0  0  0
 22 24  1  0  0  0  0
 24 26  2  0  0  0  0
 25 18  1  0  0  0  0
 27 28  1  0  0  0  0
M  END
>  <MODEL>
7

>  <REMARK>
 VINA RESULT:      -6.2      3.035      4.924
  Name = 
  10 active torsions:
  status: ('A' for Active; 'I' for Inactive)
    1  A    between atoms: C_2  and  O_9
    2  A    between atoms: C_2  and  C_24
    3  A    between atoms: C_3  and  C_24
    4  A    between atoms: C_3  and  C_27
    5  A    between atoms: C_5  and  C_20
    6  A    between atoms: O_9  and  C_28
    7  A    between atoms: S_10  and  C_28
    8  A    between atoms: C_12  and  C_20
    9  A    between atoms: N_15  and  C_20
   10  A    between atoms: N_15  and  C_23
                            x       y       z     vdW  Elec       q    Type
                         _______ _______ _______ _____ _____    ______ ____

>  <TORSDO>
F 10

$$$$
=
 OpenBabel10222416543D

 28 29  0  0  1  0  0  0  0  0999 V2000
  183.5190  179.4940  138.7860 C   0  0  1  0  0  3  0  0  0  0  0  0
  183.2900  177.0450  138.3700 O   0  0  0  0  0  1  0  0  0  0  0  0
  184.5480  180.4370  138.7240 O   0  0  0  0  0  1  0  0  0  0  0  0
  184.0810  178.0760  138.8820 C   0  0  2  0  0  0  0  0  0  0  0  0
  183.5370  178.7530  140.1320 C   0  0  2  0  0  0  0  0  0  0  0  0
  181.9560  178.1110  140.7540 S   0  0  0  0  0  3  0  0  0  0  0  0
  181.1590  179.3670  141.0780 O   0  0  0  0  0  0  0  0  0  0  0  0
  184.5290  179.1110  141.0660 O   0  0  0  0  0  0  0  0  0  0  0  0
  184.2750  178.3780  142.2310 C   0  0  0  0  0  2  0  0  0  0  0  0
  185.4010  178.5990  143.2240 C   0  0  0  0  0  2  0  0  0  0  0  0
  184.8560  179.1740  144.5220 C   0  0  1  0  0  3  0  0  0  0  0  0
  183.3630  178.9130  144.6440 C   0  0  0  0  0  1  0  0  0  0  0  0
  186.6320  177.5480  145.5220 C   0  0  0  0  0  1  0  0  0  0  0  0
  185.3110  179.0230  146.8760 N   0  0  0  0  0  2  0  0  0  0  0  0
  185.5850  178.6010  145.6990 C   0  0  0  0  0  0  0  0  0  0  0  0
  185.5380  177.8960  138.8580 N   0  0  0  0  0  2  0  0  0  0  0  0
  186.0970  177.7370  137.5050 C   0  0  1  0  0  3  0  0  0  0  0  0
  189.1440  176.9670  138.8340 N   0  0  0  0  0  2  0  0  0  0  0  0
  188.1600  178.9550  139.5200 O   0  0  0  0  0  0  0  0  0  0  0  0
  188.2080  177.4530  136.1900 C   0  0  0  0  0  3  0  0  0  0  0  0
  187.5470  178.2460  137.2990 C   0  0  1  0  0  0  0  0  0  0  0  0
  189.0520  176.4410  136.3980 C   0  0  0  0  0  3  0  0  0  0  0  0
  187.5410  179.5910  136.9250 O   0  0  0  0  0  1  0  0  0  0  0  0
  189.4640  176.0880  137.7580 C   0  0  0  0  0  0  0  0  0  0  0  0
  188.3070  178.1030  138.6040 C   0  0  0  0  0  0  0  0  0  0  0  0
  190.2280  175.0690  137.9600 N   0  0  0  0  0  2  0  0  0  0  0  0
  185.6320  176.4890  136.7360 C   0  0  0  0  0  2  0  0  0  0  0  0
  184.9160  176.8210  135.4390 C   0  0  0  0  0  1  0  0  0  0  0  0
  1  3  1  1  0  0  0
  1  4  1  0  0  0  0
  1  5  1  0  0  0  0
  4  2  1  6  0  0  0
  4  5  1  0  0  0  0
  5  6  1  1  0  0  0
  5  8  1  0  0  0  0
  6  7  2  0  0  0  0
  8  9  1  0  0  0  0
  9 10  1  0  0  0  0
 10 11  1  0  0  0  0
 11 12  1  1  0  0  0
 11 15  1  0  0  0  0
 13 15  1  0  0  0  0
 15 14  2  0  0  0  0
 16  4  1  0  0  0  0
 17 27  1  1  0  0  0
 17 16  1  0  0  0  0
 20 22  2  0  0  0  0
 20 21  1  0  0  0  0
 21 23  1  6  0  0  0
 21 17  1  0  0  0  0
 21 25  1  0  0  0  0
 22 24  1  0  0  0  0
 24 26  2  0  0  0  0
 24 18  1  0  0  0  0
 25 18  1  0  0  0  0
 25 19  2  0  0  0  0
 28 27  1  0  0  0  0
M  END
>  <MODEL>
8

>  <REMARK>
 VINA RESULT:      -6.1      4.035      7.595
  Name = 
  10 active torsions:
  status: ('A' for Active; 'I' for Inactive)
    1  A    between atoms: C_2  and  O_9
    2  A    between atoms: C_2  and  C_24
    3  A    between atoms: C_3  and  C_24
    4  A    between atoms: C_3  and  C_27
    5  A    between atoms: C_5  and  C_20
    6  A    between atoms: O_9  and  C_28
    7  A    between atoms: S_10  and  C_28
    8  A    between atoms: C_12  and  C_20
    9  A    between atoms: N_15  and  C_20
   10  A    between atoms: N_15  and  C_23
                            x       y       z     vdW  Elec       q    Type
                         _______ _______ _______ _____ _____    ______ ____

>  <TORSDO>
F 10

$$$$
=
 OpenBabel10222416543D

 28 29  0  0  1  0  0  0  0  0999 V2000
  186.8600  176.5740  145.2210 C   0  0  1  0  0  3  0  0  0  0  0  0
  187.6550  177.5290  147.3830 O   0  0  0  0  0  1  0  0  0  0  0  0
  187.3950  176.3790  143.9450 O   0  0  0  0  0  1  0  0  0  0  0  0
  187.6500  177.6310  145.9900 C   0  0  2  0  0  0  0  0  0  0  0  0
  186.3100  178.0000  145.3700 C   0  0  2  0  0  0  0  0  0  0  0  0
  184.9410  178.2500  146.5380 S   0  0  0  0  0  3  0  0  0  0  0  0
  185.3720  179.4690  147.3430 O   0  0  0  0  0  0  0  0  0  0  0  0
  186.4110  178.8640  144.2620 O   0  0  0  0  0  0  0  0  0  0  0  0
  185.1050  179.1660  143.8600 C   0  0  0  0  0  2  0  0  0  0  0  0
  184.7780  178.4070  142.5870 C   0  0  0  0  0  2  0  0  0  0  0  0
  185.3070  179.1550  141.3740 C   0  0  1  0  0  3  0  0  0  0  0  0
  186.6730  178.6280  140.9680 C   0  0  0  0  0  1  0  0  0  0  0  0
  183.1580  178.1440  140.2990 C   0  0  0  0  0  1  0  0  0  0  0  0
  184.5390  179.7530  139.1770 N   0  0  0  0  0  2  0  0  0  0  0  0
  184.3440  179.0500  140.2300 C   0  0  0  0  0  0  0  0  0  0  0  0
  188.8210  178.2400  145.3450 N   0  0  0  0  0  2  0  0  0  0  0  0
  190.0700  177.4860  145.5440 C   0  0  1  0  0  3  0  0  0  0  0  0
  190.6360  175.8800  142.5870 N   0  0  0  0  0  2  0  0  0  0  0  0
  192.0550  175.3780  144.3550 O   0  0  0  0  0  0  0  0  0  0  0  0
  190.6580  178.6110  143.3870 C   0  0  0  0  0  3  0  0  0  0  0  0
  191.1250  177.6010  144.4150 C   0  0  1  0  0  0  0  0  0  0  0  0
  190.0840  178.2840  142.2280 C   0  0  0  0  0  3  0  0  0  0  0  0
  192.3450  178.0430  144.9320 O   0  0  0  0  0  1  0  0  0  0  0  0
  189.9500  176.8790  141.8380 C   0  0  0  0  0  0  0  0  0  0  0  0
  191.3250  176.2340  143.7880 C   0  0  0  0  0  0  0  0  0  0  0  0
  189.3370  176.5650  140.7480 N   0  0  0  0  0  2  0  0  0  0  0  0
  190.5500  177.3670  147.0000 C   0  0  0  0  0  2  0  0  0  0  0  0
  191.0730  175.9830  147.3440 C   0  0  0  0  0  1  0  0  0  0  0  0
  1  3  1  6  0  0  0
  1  5  1  0  0  0  0
  1  4  1  0  0  0  0
  4  2  1  1  0  0  0
  5  8  1  6  0  0  0
  5  4  1  0  0  0  0
  5  6  1  0  0  0  0
  6  7  2  0  0  0  0
  9  8  1  0  0  0  0
 10  9  1  0  0  0  0
 11 12  1  6  0  0  0
 11 10  1  0  0  0  0
 14 15  2  0  0  0  0
 15 13  1  0  0  0  0
 15 11  1  0  0  0  0
 16 17  1  0  0  0  0
 16  4  1  0  0  0  0
 17 27  1  1  0  0  0
 18 25  1  0  0  0  0
 20 21  1  0  0  0  0
 21 23  1  1  0  0  0
 21 17  1  0  0  0  0
 22 20  2  0  0  0  0
 24 22  1  0  0  0  0
 24 18  1  0  0  0  0
 25 19  2  0  0  0  0
 25 21  1  0  0  0  0
 26 24  2  0  0  0  0
 27 28  1  0  0  0  0
M  END
>  <MODEL>
9

>  <REMARK>
 VINA RESULT:      -6.0      2.300      2.996
  Name = 
  10 active torsions:
  status: ('A' for Active; 'I' for Inactive)
    1  A    between atoms: C_2  and  O_9
    2  A    between atoms: C_2  and  C_24
    3  A    between atoms: C_3  and  C_24
    4  A    between atoms: C_3  and  C_27
    5  A    between atoms: C_5  and  C_20
    6  A    between atoms: O_9  and  C_28
    7  A    between atoms: S_10  and  C_28
    8  A    between atoms: C_12  and  C_20
    9  A    between atoms: N_15  and  C_20
   10  A    between atoms: N_15  and  C_23
                            x       y       z     vdW  Elec       q    Type
                         _______ _______ _______ _____ _____    ______ ____

>  <TORSDO>
F 10

$$$$
