=
 OpenBabel10222418213D

 34 38  0  0  0  0  0  0  0  0999 V2000
  188.8260  177.2470  147.8090 N   0  0  0  0  0  0  0  0  0  0  0  0
  189.5800  176.9450  141.8410 N   0  0  0  0  0  2  0  0  0  0  0  0
  187.5930  177.4660  145.8770 C   0  0  0  0  0  0  0  0  0  0  0  0
  188.8140  177.2900  143.0030 C   0  0  0  0  0  0  0  0  0  0  0  0
  190.9520  177.1000  146.7890 C   0  0  0  0  0  3  0  0  0  0  0  0
  187.5470  177.5450  142.8230 N   0  0  0  0  0  0  0  0  0  0  0  0
  187.4510  177.4140  147.3630 C   0  0  0  0  0  2  0  0  0  0  0  0
  186.4790  177.8110  145.0090 C   0  0  0  0  0  3  0  0  0  0  0  0
  191.6380  177.1190  145.5770 C   0  0  0  0  0  3  0  0  0  0  0  0
  189.5220  177.3110  144.3220 C   0  0  0  0  0  0  0  0  0  0  0  0
  188.8690  177.3250  145.5710 C   0  0  0  0  0  0  0  0  0  0  0  0
  190.9470  177.2290  144.3590 C   0  0  0  0  0  0  0  0  0  0  0  0
  189.5690  177.2070  146.7580 C   0  0  0  0  0  0  0  0  0  0  0  0
  186.4470  177.8820  143.6800 C   0  0  0  0  0  0  0  0  0  0  0  0
  191.6950  177.2650  143.2290 F   0  0  0  0  0  0  0  0  0  0  0  0
  183.0830  178.9600  142.7800 O   0  0  0  0  0  0  0  0  0  0  0  0
  184.0110  178.7330  143.6750 C   0  0  0  0  0  0  0  0  0  0  0  0
  184.8760  178.2170  141.6920 C   0  0  0  0  0  3  0  0  0  0  0  0
  183.5690  178.6590  141.6000 C   0  0  0  0  0  0  0  0  0  0  0  0
  185.1590  178.2640  143.0520 C   0  0  0  0  0  0  0  0  0  0  0  0
  183.8100  178.9770  145.1300 C   0  0  0  0  0  1  0  0  0  0  0  0
  182.8080  178.8060  140.3280 C   0  0  0  0  0  2  0  0  0  0  0  0
  184.0690  178.2530  138.3840 O   0  0  0  0  0  0  0  0  0  0  0  0
  184.2010  180.4390  139.0610 O   0  0  0  0  0  1  0  0  0  0  0  0
  183.7350  179.1400  139.2110 C   0  0  0  0  0  0  0  0  0  0  0  0
  189.0700  177.0170  140.4780 C   0  0  0  0  0  2  0  0  0  0  0  0
  189.7060  178.1850  139.7360 C   0  0  0  0  0  2  0  0  0  0  0  0
  188.7600  178.7700  138.7940 N   0  0  0  0  0  2  0  0  0  0  0  0
  188.5470  178.2740  137.4700 C   0  0  0  0  0  0  0  0  0  0  0  0
  188.0840  177.3170  134.8760 C   0  0  0  0  0  3  0  0  0  0  0  0
  189.5220  177.5040  136.8150 C   0  0  0  0  0  3  0  0  0  0  0  0
  189.2910  177.0280  135.5210 C   0  0  0  0  0  3  0  0  0  0  0  0
  187.1100  178.0810  135.5260 C   0  0  0  0  0  3  0  0  0  0  0  0
  187.3420  178.5570  136.8200 C   0  0  0  0  0  3  0  0  0  0  0  0
  2  4  1  0  0  0  0
  3  7  1  0  0  0  0
  4 10  1  0  0  0  0
  6  4  2  0  0  0  0
  6 14  1  0  0  0  0
  7  1  1  0  0  0  0
  8  3  1  0  0  0  0
  9  5  2  0  0  0  0
 10 12  2  0  0  0  0
 10 11  1  0  0  0  0
 11  3  2  0  0  0  0
 11 13  1  0  0  0  0
 12  9  1  0  0  0  0
 13  5  1  0  0  0  0
 13  1  2  0  0  0  0
 14  8  2  0  0  0  0
 15 12  1  0  0  0  0
 16 17  1  0  0  0  0
 17 21  1  0  0  0  0
 18 20  1  0  0  0  0
 19 18  2  0  0  0  0
 19 16  1  0  0  0  0
 20 17  2  0  0  0  0
 20 14  1  0  0  0  0
 22 19  1  0  0  0  0
 23 25  2  0  0  0  0
 24 25  1  0  0  0  0
 25 22  1  0  0  0  0
 26  2  1  0  0  0  0
 27 26  1  0  0  0  0
 28 27  1  0  0  0  0
 29 28  1  0  0  0  0
 30 32  2  0  0  0  0
 30 33  1  0  0  0  0
 31 29  2  0  0  0  0
 32 31  1  0  0  0  0
 33 34  2  0  0  0  0
 34 29  1  0  0  0  0
M  END
>  <MODEL>
1

>  <REMARK>
 VINA RESULT:     -10.0      0.000      0.000
  Name = 
  7 active torsions:
  status: ('A' for Active; 'I' for Inactive)
    1  A    between atoms: C_2  and  C_18
    2  A    between atoms: C_2  and  C_33
    3  A    between atoms: C_5  and  N_12
    4  A    between atoms: N_6  and  C_26
    5  A    between atoms: C_10  and  N_12
    6  A    between atoms: C_10  and  C_26
    7  A    between atoms: C_28  and  C_32
                            x       y       z     vdW  Elec       q    Type
                         _______ _______ _______ _____ _____    ______ ____

>  <TORSDO>
F 7

$$$$
=
 OpenBabel10222418213D

 34 38  0  0  0  0  0  0  0  0999 V2000
  183.8280  178.9970  145.8710 N   0  0  0  0  0  0  0  0  0  0  0  0
  187.3860  178.2640  141.0660 N   0  0  0  0  0  2  0  0  0  0  0  0
  186.0250  178.5120  145.3780 C   0  0  0  0  0  0  0  0  0  0  0  0
  187.1190  178.1520  142.4710 C   0  0  0  0  0  0  0  0  0  0  0  0
  182.9970  178.8790  143.6630 C   0  0  0  0  0  3  0  0  0  0  0  0
  188.1390  177.9260  143.2520 N   0  0  0  0  0  0  0  0  0  0  0  0
  185.1160  178.8190  146.5240 C   0  0  0  0  0  2  0  0  0  0  0  0
  187.3970  178.0760  145.5800 C   0  0  0  0  0  3  0  0  0  0  0  0
  183.3260  178.6270  142.3320 C   0  0  0  0  0  3  0  0  0  0  0  0
  185.7020  178.3200  142.9240 C   0  0  0  0  0  0  0  0  0  0  0  0
  185.3200  178.5450  144.2630 C   0  0  0  0  0  0  0  0  0  0  0  0
  184.6500  178.3450  141.9590 C   0  0  0  0  0  0  0  0  0  0  0  0
  184.0120  178.8290  144.6070 C   0  0  0  0  0  0  0  0  0  0  0  0
  188.3220  177.7860  144.6680 C   0  0  0  0  0  0  0  0  0  0  0  0
  184.8780  178.0890  140.6470 F   0  0  0  0  0  0  0  0  0  0  0  0
  191.8380  177.1400  145.3840 O   0  0  0  0  0  0  0  0  0  0  0  0
  190.9020  177.7250  144.6810 C   0  0  0  0  0  0  0  0  0  0  0  0
  189.8830  176.4990  146.2310 C   0  0  0  0  0  3  0  0  0  0  0  0
  191.2600  176.4060  146.3050 C   0  0  0  0  0  0  0  0  0  0  0  0
  189.6530  177.3600  145.1650 C   0  0  0  0  0  0  0  0  0  0  0  0
  191.1970  178.6480  143.5500 C   0  0  0  0  0  1  0  0  0  0  0  0
  192.0060  175.6030  147.3130 C   0  0  0  0  0  2  0  0  0  0  0  0
  193.5730  176.1800  149.0130 O   0  0  0  0  0  1  0  0  0  0  0  0
  191.8600  177.6700  148.6980 O   0  0  0  0  0  0  0  0  0  0  0  0
  192.5210  176.4870  148.3950 C   0  0  0  0  0  0  0  0  0  0  0  0
  188.6820  177.9870  140.4590 C   0  0  0  0  0  2  0  0  0  0  0  0
  188.6920  178.4400  139.0050 C   0  0  0  0  0  2  0  0  0  0  0  0
  187.3340  178.6710  138.5310 N   0  0  0  0  0  2  0  0  0  0  0  0
  186.8150  178.1310  137.3120 C   0  0  0  0  0  0  0  0  0  0  0  0
  185.7640  177.0490  134.9500 C   0  0  0  0  0  3  0  0  0  0  0  0
  187.4860  178.3100  136.0920 C   0  0  0  0  0  3  0  0  0  0  0  0
  186.9610  177.7710  134.9140 C   0  0  0  0  0  3  0  0  0  0  0  0
  185.0940  176.8660  136.1630 C   0  0  0  0  0  3  0  0  0  0  0  0
  185.6200  177.4060  137.3410 C   0  0  0  0  0  3  0  0  0  0  0  0
  1  7  1  0  0  0  0
  2  4  1  0  0  0  0
  3  8  1  0  0  0  0
  3  7  1  0  0  0  0
  4 10  1  0  0  0  0
  4  6  2  0  0  0  0
  5 13  1  0  0  0  0
  6 14  1  0  0  0  0
  9  5  2  0  0  0  0
 10 11  1  0  0  0  0
 11 13  1  0  0  0  0
 11  3  2  0  0  0  0
 12  9  1  0  0  0  0
 12 10  2  0  0  0  0
 13  1  2  0  0  0  0
 14 20  1  0  0  0  0
 14  8  2  0  0  0  0
 15 12  1  0  0  0  0
 16 19  1  0  0  0  0
 17 20  2  0  0  0  0
 17 16  1  0  0  0  0
 18 19  2  0  0  0  0
 19 22  1  0  0  0  0
 20 18  1  0  0  0  0
 21 17  1  0  0  0  0
 22 25  1  0  0  0  0
 25 24  2  0  0  0  0
 25 23  1  0  0  0  0
 26  2  1  0  0  0  0
 27 26  1  0  0  0  0
 28 27  1  0  0  0  0
 29 34  1  0  0  0  0
 29 28  1  0  0  0  0
 30 33  1  0  0  0  0
 31 29  2  0  0  0  0
 32 30  2  0  0  0  0
 32 31  1  0  0  0  0
 33 34  2  0  0  0  0
M  END
>  <MODEL>
2

>  <REMARK>
 VINA RESULT:      -9.9      3.787      6.552
  Name = 
  7 active torsions:
  status: ('A' for Active; 'I' for Inactive)
    1  A    between atoms: C_2  and  C_18
    2  A    between atoms: C_2  and  C_33
    3  A    between atoms: C_5  and  N_12
    4  A    between atoms: N_6  and  C_26
    5  A    between atoms: C_10  and  N_12
    6  A    between atoms: C_10  and  C_26
    7  A    between atoms: C_28  and  C_32
                            x       y       z     vdW  Elec       q    Type
                         _______ _______ _______ _____ _____    ______ ____

>  <TORSDO>
F 7

$$$$
=
 OpenBabel10222418213D

 34 38  0  0  0  0  0  0  0  0999 V2000
  189.0160  177.2220  148.0660 N   0  0  0  0  0  0  0  0  0  0  0  0
  189.3930  176.9790  142.0590 N   0  0  0  0  0  2  0  0  0  0  0  0
  187.6740  177.5050  146.2150 C   0  0  0  0  0  0  0  0  0  0  0  0
  188.7100  177.3310  143.2700 C   0  0  0  0  0  0  0  0  0  0  0  0
  191.0690  177.0250  146.9150 C   0  0  0  0  0  3  0  0  0  0  0  0
  187.4430  177.6260  143.1720 N   0  0  0  0  0  0  0  0  0  0  0  0
  187.6220  177.4360  147.7070 C   0  0  0  0  0  2  0  0  0  0  0  0
  186.5200  177.8950  145.4220 C   0  0  0  0  0  3  0  0  0  0  0  0
  191.6800  177.0400  145.6630 C   0  0  0  0  0  3  0  0  0  0  0  0
  189.4980  177.3130  144.5430 C   0  0  0  0  0  0  0  0  0  0  0  0
  188.9240  177.3290  145.8300 C   0  0  0  0  0  0  0  0  0  0  0  0
  190.9200  177.1870  144.4910 C   0  0  0  0  0  0  0  0  0  0  0  0
  189.6910  177.1740  146.9690 C   0  0  0  0  0  0  0  0  0  0  0  0
  186.4090  177.9840  144.0990 C   0  0  0  0  0  0  0  0  0  0  0  0
  191.5970  177.2160  143.3170 F   0  0  0  0  0  0  0  0  0  0  0  0
  183.5330  179.1360  142.1770 O   0  0  0  0  0  0  0  0  0  0  0  0
  184.8050  178.8440  142.2680 C   0  0  0  0  0  0  0  0  0  0  0  0
  183.9030  178.4590  144.2640 C   0  0  0  0  0  3  0  0  0  0  0  0
  182.9780  178.9200  143.3460 C   0  0  0  0  0  0  0  0  0  0  0  0
  185.0970  178.4140  143.5560 C   0  0  0  0  0  0  0  0  0  0  0  0
  185.7480  178.9610  141.1210 C   0  0  0  0  0  1  0  0  0  0  0  0
  181.5290  179.1240  143.6250 C   0  0  0  0  0  2  0  0  0  0  0  0
  180.4030  178.0630  141.8130 O   0  0  0  0  0  1  0  0  0  0  0  0
  180.4020  180.3550  141.7740 O   0  0  0  0  0  0  0  0  0  0  0  0
  180.7590  179.1440  142.3500 C   0  0  0  0  0  0  0  0  0  0  0  0
  188.8030  177.0850  140.7310 C   0  0  0  0  0  2  0  0  0  0  0  0
  189.6790  177.9450  139.8300 C   0  0  0  0  0  2  0  0  0  0  0  0
  188.8570  178.7750  138.9570 N   0  0  0  0  0  2  0  0  0  0  0  0
  188.2650  178.3070  137.7420 C   0  0  0  0  0  0  0  0  0  0  0  0
  187.1480  177.3970  135.3370 C   0  0  0  0  0  3  0  0  0  0  0  0
  186.8840  178.0750  137.6470 C   0  0  0  0  0  3  0  0  0  0  0  0
  186.3280  177.6200  136.4480 C   0  0  0  0  0  3  0  0  0  0  0  0
  188.5240  177.6300  135.4280 C   0  0  0  0  0  3  0  0  0  0  0  0
  189.0800  178.0840  136.6280 C   0  0  0  0  0  3  0  0  0  0  0  0
  2  4  1  0  0  0  0
  3  7  1  0  0  0  0
  4 10  1  0  0  0  0
  5 13  1  0  0  0  0
  6  4  2  0  0  0  0
  6 14  1  0  0  0  0
  7  1  1  0  0  0  0
  8  3  1  0  0  0  0
  9  5  2  0  0  0  0
 10 11  1  0  0  0  0
 11  3  2  0  0  0  0
 11 13  1  0  0  0  0
 12 10  2  0  0  0  0
 12  9  1  0  0  0  0
 13  1  2  0  0  0  0
 14  8  2  0  0  0  0
 15 12  1  0  0  0  0
 16 17  1  0  0  0  0
 16 19  1  0  0  0  0
 17 20  2  0  0  0  0
 19 22  1  0  0  0  0
 19 18  2  0  0  0  0
 20 14  1  0  0  0  0
 20 18  1  0  0  0  0
 21 17  1  0  0  0  0
 23 25  1  0  0  0  0
 24 25  2  0  0  0  0
 25 22  1  0  0  0  0
 26  2  1  0  0  0  0
 27 26  1  0  0  0  0
 28 27  1  0  0  0  0
 29 28  1  0  0  0  0
 30 33  2  0  0  0  0
 30 32  1  0  0  0  0
 31 29  1  0  0  0  0
 32 31  2  0  0  0  0
 33 34  1  0  0  0  0
 34 29  2  0  0  0  0
M  END
>  <MODEL>
3

>  <REMARK>
 VINA RESULT:      -9.9      1.253      2.022
  Name = 
  7 active torsions:
  status: ('A' for Active; 'I' for Inactive)
    1  A    between atoms: C_2  and  C_18
    2  A    between atoms: C_2  and  C_33
    3  A    between atoms: C_5  and  N_12
    4  A    between atoms: N_6  and  C_26
    5  A    between atoms: C_10  and  N_12
    6  A    between atoms: C_10  and  C_26
    7  A    between atoms: C_28  and  C_32
                            x       y       z     vdW  Elec       q    Type
                         _______ _______ _______ _____ _____    ______ ____

>  <TORSDO>
F 7

$$$$
=
 OpenBabel10222418213D

 34 38  0  0  0  0  0  0  0  0999 V2000
  188.8640  177.2490  147.7740 N   0  0  0  0  0  0  0  0  0  0  0  0
  189.5750  176.8670  141.8050 N   0  0  0  0  0  2  0  0  0  0  0  0
  187.6210  177.4610  145.8470 C   0  0  0  0  0  0  0  0  0  0  0  0
  188.8210  177.2360  142.9680 C   0  0  0  0  0  0  0  0  0  0  0  0
  190.9810  177.0620  146.7420 C   0  0  0  0  0  3  0  0  0  0  0  0
  187.5560  177.5050  142.7930 N   0  0  0  0  0  0  0  0  0  0  0  0
  187.4880  177.4280  147.3350 C   0  0  0  0  0  2  0  0  0  0  0  0
  186.5060  177.8110  144.9830 C   0  0  0  0  0  3  0  0  0  0  0  0
  191.6590  177.0580  145.5250 C   0  0  0  0  0  3  0  0  0  0  0  0
  189.5380  177.2630  144.2820 C   0  0  0  0  0  0  0  0  0  0  0  0
  188.8940  177.3000  145.5350 C   0  0  0  0  0  0  0  0  0  0  0  0
  190.9620  177.1630  144.3110 C   0  0  0  0  0  0  0  0  0  0  0  0
  189.5990  177.1860  146.7180 C   0  0  0  0  0  0  0  0  0  0  0  0
  186.4660  177.8660  143.6530 C   0  0  0  0  0  0  0  0  0  0  0  0
  191.7020  177.1760  143.1750 F   0  0  0  0  0  0  0  0  0  0  0  0
  183.1020  178.9530  142.7650 O   0  0  0  0  0  0  0  0  0  0  0  0
  184.0270  178.7090  143.6580 C   0  0  0  0  0  0  0  0  0  0  0  0
  184.9020  178.2410  141.6670 C   0  0  0  0  0  3  0  0  0  0  0  0
  183.5940  178.6800  141.5800 C   0  0  0  0  0  0  0  0  0  0  0  0
  185.1790  178.2580  143.0290 C   0  0  0  0  0  0  0  0  0  0  0  0
  183.8190  178.9180  145.1170 C   0  0  0  0  0  1  0  0  0  0  0  0
  182.8370  178.8540  140.3090 C   0  0  0  0  0  2  0  0  0  0  0  0
  183.9640  178.2760  138.2910 O   0  0  0  0  0  0  0  0  0  0  0  0
  184.4140  180.3690  139.1120 O   0  0  0  0  0  1  0  0  0  0  0  0
  183.7750  179.1380  139.1880 C   0  0  0  0  0  0  0  0  0  0  0  0
  189.0570  176.9300  140.4440 C   0  0  0  0  0  2  0  0  0  0  0  0
  189.9270  177.8410  139.5890 C   0  0  0  0  0  2  0  0  0  0  0  0
  190.0820  177.2900  138.2480 N   0  0  0  0  0  2  0  0  0  0  0  0
  191.0100  176.2530  137.9180 C   0  0  0  0  0  0  0  0  0  0  0  0
  192.8660  174.2520  137.2790 C   0  0  0  0  0  3  0  0  0  0  0  0
  190.5760  175.0310  137.3810 C   0  0  0  0  0  3  0  0  0  0  0  0
  191.5020  174.0330  137.0630 C   0  0  0  0  0  3  0  0  0  0  0  0
  193.3030  175.4690  137.8110 C   0  0  0  0  0  3  0  0  0  0  0  0
  192.3760  176.4660  138.1290 C   0  0  0  0  0  3  0  0  0  0  0  0
  2  4  1  0  0  0  0
  3  7  1  0  0  0  0
  4 10  1  0  0  0  0
  6  4  2  0  0  0  0
  6 14  1  0  0  0  0
  7  1  1  0  0  0  0
  8  3  1  0  0  0  0
  9  5  2  0  0  0  0
 10 12  2  0  0  0  0
 10 11  1  0  0  0  0
 11  3  2  0  0  0  0
 11 13  1  0  0  0  0
 12  9  1  0  0  0  0
 13  5  1  0  0  0  0
 13  1  2  0  0  0  0
 14  8  2  0  0  0  0
 15 12  1  0  0  0  0
 16 17  1  0  0  0  0
 17 21  1  0  0  0  0
 18 20  1  0  0  0  0
 19 18  2  0  0  0  0
 19 16  1  0  0  0  0
 20 14  1  0  0  0  0
 20 17  2  0  0  0  0
 22 19  1  0  0  0  0
 23 25  2  0  0  0  0
 24 25  1  0  0  0  0
 25 22  1  0  0  0  0
 26  2  1  0  0  0  0
 27 26  1  0  0  0  0
 28 27  1  0  0  0  0
 29 34  1  0  0  0  0
 29 28  1  0  0  0  0
 30 33  1  0  0  0  0
 31 29  2  0  0  0  0
 32 30  2  0  0  0  0
 32 31  1  0  0  0  0
 33 34  2  0  0  0  0
M  END
>  <MODEL>
4

>  <REMARK>
 VINA RESULT:      -9.8      1.586      2.160
  Name = 
  7 active torsions:
  status: ('A' for Active; 'I' for Inactive)
    1  A    between atoms: C_2  and  C_18
    2  A    between atoms: C_2  and  C_33
    3  A    between atoms: C_5  and  N_12
    4  A    between atoms: N_6  and  C_26
    5  A    between atoms: C_10  and  N_12
    6  A    between atoms: C_10  and  C_26
    7  A    between atoms: C_28  and  C_32
                            x       y       z     vdW  Elec       q    Type
                         _______ _______ _______ _____ _____    ______ ____

>  <TORSDO>
F 7

$$$$
=
 OpenBabel10222418213D

 34 38  0  0  0  0  0  0  0  0999 V2000
  191.2720  176.3210  137.0390 N   0  0  0  0  0  0  0  0  0  0  0  0
  186.9790  178.5700  140.6150 N   0  0  0  0  0  2  0  0  0  0  0  0
  190.8560  176.6470  139.2810 C   0  0  0  0  0  0  0  0  0  0  0  0
  188.3110  178.0890  140.3870 C   0  0  0  0  0  0  0  0  0  0  0  0
  189.4120  177.5200  136.2150 C   0  0  0  0  0  3  0  0  0  0  0  0
  189.0240  177.7960  141.4390 N   0  0  0  0  0  0  0  0  0  0  0  0
  191.8280  176.0030  138.3470 C   0  0  0  0  0  2  0  0  0  0  0  0
  191.1100  176.7450  140.7090 C   0  0  0  0  0  3  0  0  0  0  0  0
  188.2990  178.2810  136.5660 C   0  0  0  0  0  3  0  0  0  0  0  0
  188.7630  177.9460  138.9670 C   0  0  0  0  0  0  0  0  0  0  0  0
  189.9000  177.2130  138.5680 C   0  0  0  0  0  0  0  0  0  0  0  0
  187.9750  178.5030  137.9140 C   0  0  0  0  0  0  0  0  0  0  0  0
  190.1960  177.0000  137.2350 C   0  0  0  0  0  0  0  0  0  0  0  0
  190.3400  177.2690  141.6590 C   0  0  0  0  0  0  0  0  0  0  0  0
  186.8900  179.2750  138.1670 F   0  0  0  0  0  0  0  0  0  0  0  0
  191.5700  177.8680  145.0390 O   0  0  0  0  0  0  0  0  0  0  0  0
  191.1220  178.3060  143.8900 C   0  0  0  0  0  0  0  0  0  0  0  0
  191.1750  176.0860  143.7650 C   0  0  0  0  0  3  0  0  0  0  0  0
  191.6140  176.5570  144.9890 C   0  0  0  0  0  0  0  0  0  0  0  0
  190.8580  177.2330  143.0490 C   0  0  0  0  0  0  0  0  0  0  0  0
  190.9300  179.7530  143.5940 C   0  0  0  0  0  1  0  0  0  0  0  0
  192.0550  175.7000  146.1230 C   0  0  0  0  0  2  0  0  0  0  0  0
  190.5050  176.7000  147.6320 O   0  0  0  0  0  0  0  0  0  0  0  0
  192.6520  176.4950  148.4090 O   0  0  0  0  0  1  0  0  0  0  0  0
  191.6910  176.3360  147.4200 C   0  0  0  0  0  0  0  0  0  0  0  0
  186.4450  178.8940  141.9320 C   0  0  0  0  0  2  0  0  0  0  0  0
  185.0660  178.2740  142.1110 C   0  0  0  0  0  2  0  0  0  0  0  0
  184.6920  178.2530  143.5200 N   0  0  0  0  0  2  0  0  0  0  0  0
  185.6350  178.1440  144.5900 C   0  0  0  0  0  0  0  0  0  0  0  0
  187.4550  177.9610  146.7140 C   0  0  0  0  0  3  0  0  0  0  0  0
  186.8590  177.4770  144.4180 C   0  0  0  0  0  3  0  0  0  0  0  0
  187.7650  177.3860  145.4780 C   0  0  0  0  0  3  0  0  0  0  0  0
  186.2380  178.6280  146.8880 C   0  0  0  0  0  3  0  0  0  0  0  0
  185.3310  178.7180  145.8280 C   0  0  0  0  0  3  0  0  0  0  0  0
  1 13  2  0  0  0  0
  1  7  1  0  0  0  0
  2 26  1  0  0  0  0
  3  8  1  0  0  0  0
  4  2  1  0  0  0  0
  4  6  2  0  0  0  0
  5  9  2  0  0  0  0
  5 13  1  0  0  0  0
  6 14  1  0  0  0  0
  7  3  1  0  0  0  0
  8 14  2  0  0  0  0
  9 12  1  0  0  0  0
 10  4  1  0  0  0  0
 11 10  1  0  0  0  0
 11  3  2  0  0  0  0
 12 15  1  0  0  0  0
 12 10  2  0  0  0  0
 13 11  1  0  0  0  0
 14 20  1  0  0  0  0
 17 16  1  0  0  0  0
 18 19  2  0  0  0  0
 19 16  1  0  0  0  0
 19 22  1  0  0  0  0
 20 18  1  0  0  0  0
 20 17  2  0  0  0  0
 21 17  1  0  0  0  0
 22 25  1  0  0  0  0
 25 23  2  0  0  0  0
 25 24  1  0  0  0  0
 26 27  1  0  0  0  0
 27 28  1  0  0  0  0
 28 29  1  0  0  0  0
 29 34  1  0  0  0  0
 30 33  1  0  0  0  0
 31 29  2  0  0  0  0
 31 32  1  0  0  0  0
 32 30  2  0  0  0  0
 34 33  2  0  0  0  0
M  END
>  <MODEL>
5

>  <REMARK>
 VINA RESULT:      -9.7      3.591      8.445
  Name = 
  7 active torsions:
  status: ('A' for Active; 'I' for Inactive)
    1  A    between atoms: C_2  and  C_18
    2  A    between atoms: C_2  and  C_33
    3  A    between atoms: C_5  and  N_12
    4  A    between atoms: N_6  and  C_26
    5  A    between atoms: C_10  and  N_12
    6  A    between atoms: C_10  and  C_26
    7  A    between atoms: C_28  and  C_32
                            x       y       z     vdW  Elec       q    Type
                         _______ _______ _______ _____ _____    ______ ____

>  <TORSDO>
F 7

$$$$
=
 OpenBabel10222418213D

 34 38  0  0  0  0  0  0  0  0999 V2000
  189.2650  177.0860  147.3310 N   0  0  0  0  0  0  0  0  0  0  0  0
  189.0380  177.6720  141.3410 N   0  0  0  0  0  2  0  0  0  0  0  0
  187.7210  177.4830  145.6700 C   0  0  0  0  0  0  0  0  0  0  0  0
  188.4570  177.7960  142.6470 C   0  0  0  0  0  0  0  0  0  0  0  0
  191.1970  177.2350  145.9810 C   0  0  0  0  0  3  0  0  0  0  0  0
  187.1680  177.9820  142.7070 N   0  0  0  0  0  0  0  0  0  0  0  0
  187.8290  177.2140  147.1350 C   0  0  0  0  0  2  0  0  0  0  0  0
  186.4630  177.8650  145.0480 C   0  0  0  0  0  3  0  0  0  0  0  0
  191.6730  177.4710  144.6930 C   0  0  0  0  0  3  0  0  0  0  0  0
  189.3720  177.6840  143.8270 C   0  0  0  0  0  0  0  0  0  0  0  0
  188.9340  177.4770  145.1510 C   0  0  0  0  0  0  0  0  0  0  0  0
  190.7860  177.7000  143.6280 C   0  0  0  0  0  0  0  0  0  0  0  0
  189.8250  177.2460  146.1820 C   0  0  0  0  0  0  0  0  0  0  0  0
  186.2090  178.1170  143.7660 C   0  0  0  0  0  0  0  0  0  0  0  0
  191.3340  177.9460  142.4130 F   0  0  0  0  0  0  0  0  0  0  0  0
  183.0470  179.1280  142.2600 O   0  0  0  0  0  0  0  0  0  0  0  0
  184.3290  178.8810  142.1720 C   0  0  0  0  0  0  0  0  0  0  0  0
  183.7380  178.5110  144.2840 C   0  0  0  0  0  3  0  0  0  0  0  0
  182.6740  178.9200  143.5010 C   0  0  0  0  0  0  0  0  0  0  0  0
  184.8180  178.4900  143.4110 C   0  0  0  0  0  0  0  0  0  0  0  0
  185.0910  179.0030  140.8990 C   0  0  0  0  0  1  0  0  0  0  0  0
  181.2740  179.0820  143.9830 C   0  0  0  0  0  2  0  0  0  0  0  0
  179.8590  178.4340  142.1790 O   0  0  0  0  0  0  0  0  0  0  0  0
  180.0550  180.6920  142.5210 O   0  0  0  0  0  1  0  0  0  0  0  0
  180.3680  179.3770  142.8380 C   0  0  0  0  0  0  0  0  0  0  0  0
  188.3070  177.8960  140.1000 C   0  0  0  0  0  2  0  0  0  0  0  0
  188.9720  177.1510  138.9520 C   0  0  0  0  0  2  0  0  0  0  0  0
  190.4230  177.2530  139.0470 N   0  0  0  0  0  2  0  0  0  0  0  0
  191.3270  176.3280  138.4350 C   0  0  0  0  0  0  0  0  0  0  0  0
  193.0600  174.4830  137.2300 C   0  0  0  0  0  3  0  0  0  0  0  0
  192.7130  176.5460  138.4480 C   0  0  0  0  0  3  0  0  0  0  0  0
  193.5770  175.6270  137.8470 C   0  0  0  0  0  3  0  0  0  0  0  0
  191.6800  174.2600  137.2170 C   0  0  0  0  0  3  0  0  0  0  0  0
  190.8160  175.1810  137.8190 C   0  0  0  0  0  3  0  0  0  0  0  0
  2  4  1  0  0  0  0
  3  7  1  0  0  0  0
  4  6  2  0  0  0  0
  4 10  1  0  0  0  0
  5 13  1  0  0  0  0
  6 14  1  0  0  0  0
  7  1  1  0  0  0  0
  8  3  1  0  0  0  0
  9  5  2  0  0  0  0
 10 11  1  0  0  0  0
 11  3  2  0  0  0  0
 11 13  1  0  0  0  0
 12 10  2  0  0  0  0
 12  9  1  0  0  0  0
 13  1  2  0  0  0  0
 14  8  2  0  0  0  0
 15 12  1  0  0  0  0
 16 19  1  0  0  0  0
 17 16  1  0  0  0  0
 17 20  2  0  0  0  0
 19 22  1  0  0  0  0
 19 18  2  0  0  0  0
 20 14  1  0  0  0  0
 20 18  1  0  0  0  0
 21 17  1  0  0  0  0
 23 25  2  0  0  0  0
 24 25  1  0  0  0  0
 25 22  1  0  0  0  0
 26  2  1  0  0  0  0
 27 28  1  0  0  0  0
 27 26  1  0  0  0  0
 29 31  1  0  0  0  0
 29 28  1  0  0  0  0
 30 32  1  0  0  0  0
 32 31  2  0  0  0  0
 33 30  2  0  0  0  0
 33 34  1  0  0  0  0
 34 29  2  0  0  0  0
M  END
>  <MODEL>
6

>  <REMARK>
 VINA RESULT:      -9.6      2.108      3.001
  Name = 
  7 active torsions:
  status: ('A' for Active; 'I' for Inactive)
    1  A    between atoms: C_2  and  C_18
    2  A    between atoms: C_2  and  C_33
    3  A    between atoms: C_5  and  N_12
    4  A    between atoms: N_6  and  C_26
    5  A    between atoms: C_10  and  N_12
    6  A    between atoms: C_10  and  C_26
    7  A    between atoms: C_28  and  C_32
                            x       y       z     vdW  Elec       q    Type
                         _______ _______ _______ _____ _____    ______ ____

>  <TORSDO>
F 7

$$$$
=
 OpenBabel10222418213D

 34 38  0  0  0  0  0  0  0  0999 V2000
  182.3520  178.9860  144.0740 N   0  0  0  0  0  0  0  0  0  0  0  0
  187.2450  178.5440  140.5890 N   0  0  0  0  0  2  0  0  0  0  0  0
  184.6200  178.6410  144.2780 C   0  0  0  0  0  0  0  0  0  0  0  0
  186.5690  178.3930  141.8450 C   0  0  0  0  0  0  0  0  0  0  0  0
  182.2430  178.8530  141.7180 C   0  0  0  0  0  3  0  0  0  0  0  0
  187.3140  178.2160  142.9020 N   0  0  0  0  0  0  0  0  0  0  0  0
  183.3880  178.8740  145.0900 C   0  0  0  0  0  2  0  0  0  0  0  0
  185.8890  178.2840  144.8900 C   0  0  0  0  0  3  0  0  0  0  0  0
  182.9780  178.6430  140.5520 C   0  0  0  0  0  3  0  0  0  0  0  0
  185.0740  178.4700  141.8430 C   0  0  0  0  0  0  0  0  0  0  0  0
  184.2890  178.6490  143.0000 C   0  0  0  0  0  0  0  0  0  0  0  0
  184.3680  178.4470  140.6020 C   0  0  0  0  0  0  0  0  0  0  0  0
  182.9230  178.8490  142.9270 C   0  0  0  0  0  0  0  0  0  0  0  0
  187.0650  178.0650  144.3060 C   0  0  0  0  0  0  0  0  0  0  0  0
  185.0010  178.2250  139.4240 F   0  0  0  0  0  0  0  0  0  0  0  0
  189.4270  177.3320  146.9850 O   0  0  0  0  0  0  0  0  0  0  0  0
  188.2390  177.6980  146.5750 C   0  0  0  0  0  0  0  0  0  0  0  0
  189.4680  177.3230  144.7600 C   0  0  0  0  0  3  0  0  0  0  0  0
  190.1730  177.1080  145.9290 C   0  0  0  0  0  0  0  0  0  0  0  0
  188.2040  177.7120  145.1870 C   0  0  0  0  0  0  0  0  0  0  0  0
  187.1250  178.0220  147.5080 C   0  0  0  0  0  1  0  0  0  0  0  0
  191.5900  176.6540  145.9980 C   0  0  0  0  0  2  0  0  0  0  0  0
  191.8420  174.9850  147.6810 O   0  0  0  0  0  0  0  0  0  0  0  0
  192.3440  177.1260  148.3270 O   0  0  0  0  0  1  0  0  0  0  0  0
  191.9180  176.2040  147.3800 C   0  0  0  0  0  0  0  0  0  0  0  0
  188.6790  178.3550  140.4080 C   0  0  0  0  0  2  0  0  0  0  0  0
  189.0550  178.5290  138.9430 C   0  0  0  0  0  2  0  0  0  0  0  0
  189.2810  177.2340  138.3140 N   0  0  0  0  0  2  0  0  0  0  0  0
  190.5600  176.7820  137.8630 C   0  0  0  0  0  0  0  0  0  0  0  0
  193.0880  175.9110  137.0200 C   0  0  0  0  0  3  0  0  0  0  0  0
  190.7620  176.3740  136.5340 C   0  0  0  0  0  3  0  0  0  0  0  0
  192.0220  175.9390  136.1150 C   0  0  0  0  0  3  0  0  0  0  0  0
  192.8920  176.3190  138.3430 C   0  0  0  0  0  3  0  0  0  0  0  0
  191.6310  176.7540  138.7620 C   0  0  0  0  0  3  0  0  0  0  0  0
  1  7  1  0  0  0  0
  2  4  1  0  0  0  0
  3  8  1  0  0  0  0
  3  7  1  0  0  0  0
  4  6  2  0  0  0  0
  5 13  1  0  0  0  0
  6 14  1  0  0  0  0
  9 12  1  0  0  0  0
  9  5  2  0  0  0  0
 10  4  1  0  0  0  0
 10 11  1  0  0  0  0
 11  3  2  0  0  0  0
 12 10  2  0  0  0  0
 13 11  1  0  0  0  0
 13  1  2  0  0  0  0
 14  8  2  0  0  0  0
 14 20  1  0  0  0  0
 15 12  1  0  0  0  0
 17 16  1  0  0  0  0
 17 21  1  0  0  0  0
 18 20  1  0  0  0  0
 18 19  2  0  0  0  0
 19 22  1  0  0  0  0
 19 16  1  0  0  0  0
 20 17  2  0  0  0  0
 22 25  1  0  0  0  0
 25 23  2  0  0  0  0
 25 24  1  0  0  0  0
 26  2  1  0  0  0  0
 27 26  1  0  0  0  0
 28 27  1  0  0  0  0
 29 28  1  0  0  0  0
 29 34  1  0  0  0  0
 30 33  1  0  0  0  0
 31 29  2  0  0  0  0
 32 31  1  0  0  0  0
 32 30  2  0  0  0  0
 33 34  2  0  0  0  0
M  END
>  <MODEL>
7

>  <REMARK>
 VINA RESULT:      -9.5      3.711      6.592
  Name = 
  7 active torsions:
  status: ('A' for Active; 'I' for Inactive)
    1  A    between atoms: C_2  and  C_18
    2  A    between atoms: C_2  and  C_33
    3  A    between atoms: C_5  and  N_12
    4  A    between atoms: N_6  and  C_26
    5  A    between atoms: C_10  and  N_12
    6  A    between atoms: C_10  and  C_26
    7  A    between atoms: C_28  and  C_32
                            x       y       z     vdW  Elec       q    Type
                         _______ _______ _______ _____ _____    ______ ____

>  <TORSDO>
F 7

$$$$
=
 OpenBabel10222418213D

 34 38  0  0  1  0  0  0  0  0999 V2000
  184.9010  178.8310  146.5930 N   0  0  0  0  0  0  0  0  0  0  0  0
  189.8150  176.4130  144.0860 N   0  0  0  0  0  2  0  0  0  0  0  0
  185.7790  178.4250  144.5030 C   0  0  0  0  0  0  0  0  0  0  0  0
  188.6080  177.1850  144.0140 C   0  0  0  0  0  0  0  0  0  0  0  0
  186.8110  178.2200  147.8410 C   0  0  0  0  0  3  0  0  0  0  0  0
  188.1300  177.4290  142.8260 N   0  0  0  0  0  0  0  0  0  0  0  0
  184.5400  178.9050  145.1850 C   0  0  0  0  0  3  0  0  0  0  0  0
  185.9430  178.5030  143.0610 C   0  0  0  0  0  3  0  0  0  0  0  0
  188.1300  177.7760  147.7630 C   0  0  0  0  0  3  0  0  0  0  0  0
  187.9910  177.6300  145.3040 C   0  0  1  0  0  3  0  0  0  0  0  0
  186.6730  178.1160  145.4240 C   0  0  0  0  0  0  0  0  0  0  0  0
  188.7210  177.4890  146.5230 C   0  0  0  0  0  0  0  0  0  0  0  0
  186.1080  178.3840  146.6570 C   0  0  0  0  0  0  0  0  0  0  0  0
  186.9710  178.1040  142.3160 C   0  0  0  0  0  0  0  0  0  0  0  0
  190.0160  177.0850  146.5370 F   0  0  0  0  0  0  0  0  0  0  0  0
  186.0480  178.7150  138.8420 O   0  0  0  0  0  0  0  0  0  0  0  0
  185.7330  178.6090  140.1080 C   0  0  0  0  0  0  0  0  0  0  0  0
  187.9200  178.2400  139.9460 C   0  0  0  0  0  3  0  0  0  0  0  0
  187.3360  178.4970  138.7200 C   0  0  0  0  0  0  0  0  0  0  0  0
  186.8680  178.3110  140.8500 C   0  0  0  0  0  0  0  0  0  0  0  0
  184.3480  178.8070  140.6180 C   0  0  0  0  0  1  0  0  0  0  0  0
  188.0650  178.5510  137.4230 C   0  0  0  0  0  2  0  0  0  0  0  0
  187.2170  177.9070  135.2920 O   0  0  0  0  0  0  0  0  0  0  0  0
  187.2920  176.2460  136.8700 O   0  0  0  0  0  1  0  0  0  0  0  0
  187.4910  177.5610  136.4700 C   0  0  0  0  0  0  0  0  0  0  0  0
  190.6060  176.0300  142.9240 C   0  0  0  0  0  2  0  0  0  0  0  0
  191.6150  177.1200  142.5870 C   0  0  0  0  0  2  0  0  0  0  0  0
  191.3050  177.7230  141.2970 N   0  0  0  0  0  2  0  0  0  0  0  0
  191.6040  177.1090  140.0400 C   0  0  0  0  0  0  0  0  0  0  0  0
  192.1450  175.8860  137.5760 C   0  0  0  0  0  3  0  0  0  0  0  0
  192.9050  177.1250  139.5120 C   0  0  0  0  0  3  0  0  0  0  0  0
  193.1740  176.5160  138.2840 C   0  0  0  0  0  3  0  0  0  0  0  0
  190.8490  175.8660  138.1000 C   0  0  0  0  0  3  0  0  0  0  0  0
  190.5800  176.4760  139.3290 C   0  0  0  0  0  3  0  0  0  0  0  0
  1 13  1  0  0  0  0
  3  7  1  0  0  0  0
  3 11  2  0  0  0  0
  4  2  1  0  0  0  0
  6  4  2  0  0  0  0
  7  1  2  0  0  0  0
  8  3  1  0  0  0  0
  9  5  1  0  0  0  0
 10  4  1  1  0  0  0
 10 11  1  0  0  0  0
 10 12  1  0  0  0  0
 11 13  1  0  0  0  0
 12 15  1  0  0  0  0
 12  9  2  0  0  0  0
 13  5  2  0  0  0  0
 14  6  1  0  0  0  0
 14  8  2  0  0  0  0
 16 17  1  0  0  0  0
 17 21  1  0  0  0  0
 17 20  2  0  0  0  0
 18 20  1  0  0  0  0
 19 16  1  0  0  0  0
 19 18  2  0  0  0  0
 20 14  1  0  0  0  0
 22 19  1  0  0  0  0
 23 25  2  0  0  0  0
 25 24  1  0  0  0  0
 25 22  1  0  0  0  0
 26  2  1  0  0  0  0
 27 26  1  0  0  0  0
 28 27  1  0  0  0  0
 29 28  1  0  0  0  0
 30 33  2  0  0  0  0
 30 32  1  0  0  0  0
 31 29  1  0  0  0  0
 32 31  2  0  0  0  0
 33 34  1  0  0  0  0
 34 29  2  0  0  0  0
M  END
>  <MODEL>
8

>  <REMARK>
 VINA RESULT:      -9.5      2.256      3.911
  Name = 
  7 active torsions:
  status: ('A' for Active; 'I' for Inactive)
    1  A    between atoms: C_2  and  C_18
    2  A    between atoms: C_2  and  C_33
    3  A    between atoms: C_5  and  N_12
    4  A    between atoms: N_6  and  C_26
    5  A    between atoms: C_10  and  N_12
    6  A    between atoms: C_10  and  C_26
    7  A    between atoms: C_28  and  C_32
                            x       y       z     vdW  Elec       q    Type
                         _______ _______ _______ _____ _____    ______ ____

>  <TORSDO>
F 7

$$$$
=
 OpenBabel10222418213D

 34 38  0  0  1  0  0  0  0  0999 V2000
  189.8360  177.2540  146.1930 N   0  0  0  0  0  0  0  0  0  0  0  0
  185.5880  178.7840  142.2060 N   0  0  0  0  0  2  0  0  0  0  0  0
  189.5660  177.4560  143.9150 C   0  0  0  0  0  0  0  0  0  0  0  0
  186.8600  178.2130  142.5430 C   0  0  0  0  0  0  0  0  0  0  0  0
  187.5750  177.5870  146.7900 C   0  0  0  0  0  3  0  0  0  0  0  0
  187.6980  178.0150  141.5630 N   0  0  0  0  0  0  0  0  0  0  0  0
  190.6040  177.1990  144.9580 C   0  0  0  0  0  3  0  0  0  0  0  0
  189.8490  177.3110  142.4960 C   0  0  0  0  0  3  0  0  0  0  0  0
  186.2890  177.8130  146.3040 C   0  0  0  0  0  3  0  0  0  0  0  0
  187.1260  177.9100  143.9840 C   0  0  1  0  0  3  0  0  0  0  0  0
  188.4050  177.6440  144.5140 C   0  0  0  0  0  0  0  0  0  0  0  0
  186.0550  177.9660  144.9270 C   0  0  0  0  0  0  0  0  0  0  0  0
  188.6130  177.5040  145.8740 C   0  0  0  0  0  0  0  0  0  0  0  0
  189.0410  177.5200  141.4590 C   0  0  0  0  0  0  0  0  0  0  0  0
  184.7710  178.1580  144.5390 F   0  0  0  0  0  0  0  0  0  0  0  0
  189.8110  177.1910  137.9110 O   0  0  0  0  0  0  0  0  0  0  0  0
  188.9920  177.5170  138.8790 C   0  0  0  0  0  0  0  0  0  0  0  0
  190.8710  176.7970  139.8280 C   0  0  0  0  0  3  0  0  0  0  0  0
  190.9280  176.7590  138.4470 C   0  0  0  0  0  0  0  0  0  0  0  0
  189.6020  177.2910  140.1050 C   0  0  0  0  0  0  0  0  0  0  0  0
  187.6270  178.0600  138.6370 C   0  0  0  0  0  1  0  0  0  0  0  0
  192.1070  176.3130  137.6550 C   0  0  0  0  0  2  0  0  0  0  0  0
  193.2620  174.2300  137.5830 O   0  0  0  0  0  0  0  0  0  0  0  0
  190.9740  174.0930  137.5930 O   0  0  0  0  0  1  0  0  0  0  0  0
  192.1540  174.8250  137.5960 C   0  0  0  0  0  0  0  0  0  0  0  0
  185.1290  179.0030  140.8410 C   0  0  0  0  0  2  0  0  0  0  0  0
  183.9250  178.1200  140.5390 C   0  0  0  0  0  2  0  0  0  0  0  0
  182.6940  178.9000  140.5820 N   0  0  0  0  0  2  0  0  0  0  0  0
  181.7200  178.7890  141.6240 C   0  0  0  0  0  0  0  0  0  0  0  0
  179.7760  178.5700  143.6310 C   0  0  0  0  0  3  0  0  0  0  0  0
  182.0630  179.0030  142.9680 C   0  0  0  0  0  3  0  0  0  0  0  0
  181.0940  178.8920  143.9690 C   0  0  0  0  0  3  0  0  0  0  0  0
  179.4290  178.3590  142.2930 C   0  0  0  0  0  3  0  0  0  0  0  0
  180.4000  178.4690  141.2930 C   0  0  0  0  0  3  0  0  0  0  0  0
  2  4  1  0  0  0  0
  3 11  2  0  0  0  0
  3  7  1  0  0  0  0
  6  4  2  0  0  0  0
  7  1  2  0  0  0  0
  8  3  1  0  0  0  0
  9  5  1  0  0  0  0
 10  4  1  1  0  0  0
 10 11  1  0  0  0  0
 10 12  1  0  0  0  0
 11 13  1  0  0  0  0
 12  9  2  0  0  0  0
 13  1  1  0  0  0  0
 13  5  2  0  0  0  0
 14  6  1  0  0  0  0
 14  8  2  0  0  0  0
 15 12  1  0  0  0  0
 16 19  1  0  0  0  0
 16 17  1  0  0  0  0
 17 20  2  0  0  0  0
 18 20  1  0  0  0  0
 19 18  2  0  0  0  0
 20 14  1  0  0  0  0
 21 17  1  0  0  0  0
 22 19  1  0  0  0  0
 23 25  2  0  0  0  0
 24 25  1  0  0  0  0
 25 22  1  0  0  0  0
 26  2  1  0  0  0  0
 27 28  1  0  0  0  0
 27 26  1  0  0  0  0
 28 29  1  0  0  0  0
 29 31  1  0  0  0  0
 30 32  1  0  0  0  0
 31 32  2  0  0  0  0
 33 30  2  0  0  0  0
 34 29  2  0  0  0  0
 34 33  1  0  0  0  0
M  END
>  <MODEL>
9

>  <REMARK>
 VINA RESULT:      -9.4      3.421      6.911
  Name = 
  7 active torsions:
  status: ('A' for Active; 'I' for Inactive)
    1  A    between atoms: C_2  and  C_18
    2  A    between atoms: C_2  and  C_33
    3  A    between atoms: C_5  and  N_12
    4  A    between atoms: N_6  and  C_26
    5  A    between atoms: C_10  and  N_12
    6  A    between atoms: C_10  and  C_26
    7  A    between atoms: C_28  and  C_32
                            x       y       z     vdW  Elec       q    Type
                         _______ _______ _______ _____ _____    ______ ____

>  <TORSDO>
F 7

$$$$
