=
 OpenBabel10222417463D

 52 55  0  0  1  0  0  0  0  0999 V2000
  186.7210  176.5180  136.4010 C   0  0  1  0  0  3  0  0  0  0  0  0
  185.6900  178.5650  140.3710 C   0  0  0  0  0  0  0  0  0  0  0  0
  187.8360  179.0400  140.5220 N   0  0  0  0  0  0  0  0  0  0  0  0
  187.8530  177.4620  135.9670 C   0  0  2  0  0  3  0  0  0  0  0  0
  184.3480  176.5930  137.2270 C   0  0  2  0  0  3  0  0  0  0  0  0
  183.1830  177.5630  137.3950 C   0  0  0  0  0  2  0  0  0  0  0  0
  187.9870  178.6630  136.8950 C   0  0  0  0  0  2  0  0  0  0  0  0
  184.2610  178.4270  140.6940 C   0  0  0  0  0  0  0  0  0  0  0  0
  186.2230  178.1970  139.1950 N   0  0  0  0  0  0  0  0  0  0  0  0
  187.5240  178.5140  139.3220 C   0  0  0  0  0  0  0  0  0  0  0  0
  186.6690  179.0810  141.1960 C   0  0  0  0  0  2  0  0  0  0  0  0
  187.6570  177.9070  134.6560 O   0  0  0  0  0  1  0  0  0  0  0  0
  182.6800  177.5510  138.8040 C   0  0  0  0  0  3  0  0  0  0  0  0
  185.3240  177.1000  136.1690 C   0  0  0  0  0  2  0  0  0  0  0  0
  188.5310  178.2490  138.2550 C   0  0  0  0  0  2  0  0  0  0  0  0
  183.4430  177.9840  139.7710 C   0  0  0  0  0  0  0  0  0  0  0  0
  183.8530  175.2070  136.9180 C   0  0  0  0  0  0  0  0  0  0  0  0
  183.1020  175.0160  135.9250 O   0  0  0  0  0  0  0  0  0  0  0  0
  184.4160  172.8190  137.1740 C   0  0  0  0  0  1  0  0  0  0  0  0
  184.2200  174.1190  137.7120 O   0  0  0  0  0  0  0  0  0  0  0  0
  186.8710  175.1250  135.7810 C   0  0  0  0  0  2  0  0  0  0  0  0
  187.6830  174.2970  136.5640 O   0  0  0  0  0  0  0  0  0  0  0  0
  188.8070  174.0350  135.7800 C   0  0  0  0  0  2  0  0  0  0  0  0
  190.2730  174.6570  136.5810 S   0  0  0  0  0  0  0  0  0  0  0  0
  189.9240  175.0990  137.9740 O   0  0  0  0  0  0  0  0  0  0  0  0
  190.8160  175.8230  135.8050 O   0  0  0  0  0  0  0  0  0  0  0  0
  191.4560  173.3920  136.6410 N   0  0  0  0  0  2  0  0  0  0  0  0
  192.6710  173.8850  136.0120 C   0  0  1  0  0  3  0  0  0  0  0  0
  194.5330  172.2110  136.4020 C   0  0  0  0  0  0  0  0  0  0  0  0
  193.6670  174.3130  137.0880 C   0  0  0  0  0  2  0  0  0  0  0  0
  195.2950  170.9280  136.4940 C   0  0  0  0  0  1  0  0  0  0  0  0
  193.4300  172.5420  135.0380 S   0  0  0  0  0  0  0  0  0  0  0  0
  195.4400  173.0840  138.5470 C   0  0  0  0  0  1  0  0  0  0  0  0
  194.5660  173.1530  137.3340 C   0  0  0  0  0  0  0  0  0  0  0  0
  183.7710  178.8390  141.9730 N   0  0  0  0  0  2  0  0  0  0  0  0
  184.8840  178.8390  144.1670 C   0  0  0  0  0  0  0  0  0  0  0  0
  184.1330  178.1750  143.1540 N   0  0  0  0  0  2  0  0  0  0  0  0
  185.3310  178.0990  145.3020 N   0  0  0  0  0  2  0  0  0  0  0  0
  185.1350  180.0730  144.0640 O   0  0  0  0  0  0  0  0  0  0  0  0
  185.9950  178.7380  146.4260 C   0  0  0  0  0  2  0  0  0  0  0  0
  186.7890  177.7040  147.2060 C   0  0  0  0  0  2  0  0  0  0  0  0
  188.3010  177.9160  147.1090 C   0  0  1  0  0  3  0  0  0  0  0  0
  188.1140  178.2550  149.4950 O   0  0  0  0  0  1  0  0  0  0  0  0
  188.9120  178.5100  148.3780 C   0  0  0  0  0  2  0  0  0  0  0  0
  189.0440  176.6690  146.6350 C   0  0  0  0  0  2  0  0  0  0  0  0
  187.8500  176.4100  143.4120 C   0  0  0  0  0  2  0  0  0  0  0  0
  189.0270  176.7540  142.6810 C   0  0  0  0  0  2  0  0  0  0  0  0
  189.7610  176.9350  145.3500 C   0  0  0  0  0  0  0  0  0  0  0  0
  189.1070  176.7610  144.2050 C   0  0  0  0  0  0  0  0  0  0  0  0
  191.1780  177.3350  145.3470 C   0  0  0  0  0  0  0  0  0  0  0  0
  191.6540  177.9970  144.3860 O   0  0  0  0  0  0  0  0  0  0  0  0
  192.0060  176.9900  146.4040 O   0  0  0  0  0  1  0  0  0  0  0  0
  1 21  1  6  0  0  0
  2  8  1  0  0  0  0
  2 11  1  0  0  0  0
  3 11  1  0  0  0  0
  4 12  1  6  0  0  0
  4  1  1  0  0  0  0
  4  7  1  0  0  0  0
  5 17  1  6  0  0  0
  5  6  1  0  0  0  0
  6 13  1  0  0  0  0
  7 15  1  0  0  0  0
  8 35  1  0  0  0  0
  9 10  1  0  0  0  0
  9  2  2  0  0  0  0
 10  3  2  0  0  0  0
 13 16  2  0  0  0  0
 14  1  1  0  0  0  0
 14  5  1  0  0  0  0
 15 10  1  0  0  0  0
 16  8  2  0  0  0  0
 17 20  1  0  0  0  0
 18 17  2  0  0  0  0
 19 20  1  0  0  0  0
 21 22  1  0  0  0  0
 23 22  1  0  0  0  0
 23 24  1  0  0  0  0
 24 27  1  0  0  0  0
 24 25  2  0  0  0  0
 26 24  2  0  0  0  0
 28 27  1  1  0  0  0
 28 30  1  0  0  0  0
 29 31  1  0  0  0  0
 29 34  2  0  0  0  0
 30 34  1  0  0  0  0
 32 28  1  0  0  0  0
 32 29  1  0  0  0  0
 34 33  1  0  0  0  0
 35 37  1  0  0  0  0
 36 38  1  0  0  0  0
 37 36  1  0  0  0  0
 38 40  1  0  0  0  0
 39 36  2  0  0  0  0
 40 41  1  0  0  0  0
 42 45  1  1  0  0  0
 42 41  1  0  0  0  0
 42 44  1  0  0  0  0
 44 43  1  0  0  0  0
 46 49  1  0  0  0  0
 47 46  1  0  0  0  0
 47 49  1  0  0  0  0
 48 45  1  0  0  0  0
 49 48  2  0  0  0  0
 50 48  1  0  0  0  0
 50 52  1  0  0  0  0
 51 50  2  0  0  0  0
M  END
>  <MODEL>
1

>  <REMARK>
 VINA RESULT:      -7.2      0.000      0.000
  Name = 
  17 active torsions:
  status: ('A' for Active; 'I' for Inactive)
    1  A    between atoms: C_1  and  N_22
    2  A    between atoms: C_1  and  C_49
    3  A    between atoms: C_2  and  N_14
    4  A    between atoms: O_4  and  C_11
    5  A    between atoms: O_4  and  C_35
    6  A    between atoms: N_5  and  N_18
    7  A    between atoms: N_5  and  C_36
    8  A    between atoms: S_6  and  N_14
    9  A    between atoms: S_6  and  C_35
   10  A    between atoms: C_8  and  C_28
   11  A    between atoms: C_8  and  C_31
   12  A    between atoms: C_10  and  C_28
   13  A    between atoms: C_11  and  C_12
   14  A    between atoms: C_26  and  C_30
   15  A    between atoms: C_26  and  O_45
   16  A    between atoms: C_31  and  C_44
   17  A    between atoms: C_31  and  C_49
                            x       y       z     vdW  Elec       q    Type
                         _______ _______ _______ _____ _____    ______ ____

>  <TORSDO>
F 17

$$$$
=
 OpenBabel10222417463D

 52 55  0  0  1  0  0  0  0  0999 V2000
  181.3630  178.5900  140.9650 C   0  0  1  0  0  3  0  0  0  0  0  0
  180.9860  175.0520  138.0750 C   0  0  0  0  0  0  0  0  0  0  0  0
  179.6870  174.1280  139.5960 N   0  0  0  0  0  0  0  0  0  0  0  0
  179.9500  178.5210  141.5650 C   0  0  2  0  0  3  0  0  0  0  0  0
  182.5170  178.6290  138.7330 C   0  0  2  0  0  3  0  0  0  0  0  0
  182.2140  178.7870  137.2460 C   0  0  0  0  0  2  0  0  0  0  0  0
  179.0720  177.4990  140.8520 C   0  0  0  0  0  2  0  0  0  0  0  0
  181.7980  175.2550  136.8640 C   0  0  0  0  0  0  0  0  0  0  0  0
  180.7930  176.0000  139.0050 N   0  0  0  0  0  0  0  0  0  0  0  0
  179.9890  175.4050  139.9040 C   0  0  0  0  0  0  0  0  0  0  0  0
  180.3160  173.8980  138.4260 C   0  0  0  0  0  2  0  0  0  0  0  0
  179.3310  179.7730  141.5290 O   0  0  0  0  0  1  0  0  0  0  0  0
  182.7820  177.6450  136.4630 C   0  0  0  0  0  3  0  0  0  0  0  0
  181.4010  179.2360  139.5770 C   0  0  0  0  0  2  0  0  0  0  0  0
  179.5280  176.0780  141.1520 C   0  0  0  0  0  2  0  0  0  0  0  0
  182.3120  176.4390  136.6380 C   0  0  0  0  0  0  0  0  0  0  0  0
  183.8610  179.2130  139.0720 C   0  0  0  0  0  0  0  0  0  0  0  0
  184.0470  180.4550  138.9770 O   0  0  0  0  0  0  0  0  0  0  0  0
  185.8300  178.8120  140.5040 C   0  0  0  0  0  1  0  0  0  0  0  0
  184.9100  178.3990  139.5030 O   0  0  0  0  0  0  0  0  0  0  0  0
  182.3600  179.2420  141.9280 C   0  0  0  0  0  2  0  0  0  0  0  0
  182.4460  178.5400  143.1360 O   0  0  0  0  0  0  0  0  0  0  0  0
  183.7980  178.2290  143.2860 C   0  0  0  0  0  2  0  0  0  0  0  0
  184.5050  179.1910  144.6100 S   0  0  0  0  0  0  0  0  0  0  0  0
  183.8760  178.7770  145.9110 O   0  0  0  0  0  0  0  0  0  0  0  0
  184.2450  180.6510  144.3690 O   0  0  0  0  0  0  0  0  0  0  0  0
  186.2120  178.9010  144.6610 N   0  0  0  0  0  2  0  0  0  0  0  0
  186.4210  177.5240  145.0790 C   0  0  1  0  0  3  0  0  0  0  0  0
  188.8760  177.1920  145.6140 C   0  0  0  0  0  0  0  0  0  0  0  0
  187.1900  176.7700  143.9950 C   0  0  0  0  0  2  0  0  0  0  0  0
  190.2510  177.3960  146.1630 C   0  0  0  0  0  1  0  0  0  0  0  0
  187.4230  177.5040  146.6030 S   0  0  0  0  0  0  0  0  0  0  0  0
  189.7050  176.5040  143.3720 C   0  0  0  0  0  1  0  0  0  0  0  0
  188.6310  176.8340  144.3610 C   0  0  0  0  0  0  0  0  0  0  0  0
  181.9610  174.1920  135.9210 N   0  0  0  0  0  2  0  0  0  0  0  0
  184.3480  173.6580  135.6680 C   0  0  0  0  0  0  0  0  0  0  0  0
  183.1040  174.0830  135.1170 N   0  0  0  0  0  2  0  0  0  0  0  0
  185.5150  173.6680  134.8460 N   0  0  0  0  0  2  0  0  0  0  0  0
  184.4100  173.2620  136.8660 O   0  0  0  0  0  0  0  0  0  0  0  0
  186.7870  173.1350  135.3060 C   0  0  0  0  0  2  0  0  0  0  0  0
  187.8740  174.1810  135.1260 C   0  0  0  0  0  2  0  0  0  0  0  0
  188.5500  174.5710  136.4420 C   0  0  1  0  0  3  0  0  0  0  0  0
  190.6350  173.9980  137.5210 O   0  0  0  0  0  1  0  0  0  0  0  0
  189.4460  173.4720  137.0120 C   0  0  0  0  0  2  0  0  0  0  0  0
  189.2620  175.9200  136.3630 C   0  0  0  0  0  2  0  0  0  0  0  0
  190.2570  176.7410  139.5590 C   0  0  0  0  0  2  0  0  0  0  0  0
  189.2400  177.6810  139.9040 C   0  0  0  0  0  2  0  0  0  0  0  0
  188.6460  176.9010  137.3090 C   0  0  0  0  0  0  0  0  0  0  0  0
  189.1910  177.0570  138.5120 C   0  0  0  0  0  0  0  0  0  0  0  0
  187.4310  177.6450  136.9370 C   0  0  0  0  0  0  0  0  0  0  0  0
  186.4910  177.0690  136.3250 O   0  0  0  0  0  0  0  0  0  0  0  0
  187.3060  178.9870  137.2570 O   0  0  0  0  0  1  0  0  0  0  0  0
  1  4  1  0  0  0  0
  1 21  1  1  0  0  0
  2 11  1  0  0  0  0
  2  9  2  0  0  0  0
  3 10  2  0  0  0  0
  4 12  1  6  0  0  0
  5 17  1  6  0  0  0
  5 14  1  0  0  0  0
  6  5  1  0  0  0  0
  7 15  1  0  0  0  0
  7  4  1  0  0  0  0
  8  2  1  0  0  0  0
  9 10  1  0  0  0  0
 10 15  1  0  0  0  0
 11  3  1  0  0  0  0
 13 16  2  0  0  0  0
 13  6  1  0  0  0  0
 14  1  1  0  0  0  0
 16  8  2  0  0  0  0
 17 20  1  0  0  0  0
 18 17  2  0  0  0  0
 20 19  1  0  0  0  0
 21 22  1  0  0  0  0
 22 23  1  0  0  0  0
 23 24  1  0  0  0  0
 24 27  1  0  0  0  0
 24 25  2  0  0  0  0
 26 24  2  0  0  0  0
 28 27  1  6  0  0  0
 28 32  1  0  0  0  0
 29 31  1  0  0  0  0
 29 32  1  0  0  0  0
 30 34  1  0  0  0  0
 30 28  1  0  0  0  0
 33 34  1  0  0  0  0
 34 29  2  0  0  0  0
 35  8  1  0  0  0  0
 36 39  2  0  0  0  0
 37 36  1  0  0  0  0
 37 35  1  0  0  0  0
 38 40  1  0  0  0  0
 38 36  1  0  0  0  0
 41 40  1  0  0  0  0
 42 41  1  6  0  0  0
 42 44  1  0  0  0  0
 44 43  1  0  0  0  0
 45 42  1  0  0  0  0
 45 48  1  0  0  0  0
 46 47  1  0  0  0  0
 48 49  2  0  0  0  0
 49 46  1  0  0  0  0
 49 47  1  0  0  0  0
 50 52  1  0  0  0  0
 50 48  1  0  0  0  0
 51 50  2  0  0  0  0
M  END
>  <MODEL>
2

>  <REMARK>
 VINA RESULT:      -6.9      4.031      9.194
  Name = 
  17 active torsions:
  status: ('A' for Active; 'I' for Inactive)
    1  A    between atoms: C_1  and  N_22
    2  A    between atoms: C_1  and  C_49
    3  A    between atoms: C_2  and  N_14
    4  A    between atoms: O_4  and  C_11
    5  A    between atoms: O_4  and  C_35
    6  A    between atoms: N_5  and  N_18
    7  A    between atoms: N_5  and  C_36
    8  A    between atoms: S_6  and  N_14
    9  A    between atoms: S_6  and  C_35
   10  A    between atoms: C_8  and  C_28
   11  A    between atoms: C_8  and  C_31
   12  A    between atoms: C_10  and  C_28
   13  A    between atoms: C_11  and  C_12
   14  A    between atoms: C_26  and  C_30
   15  A    between atoms: C_26  and  O_45
   16  A    between atoms: C_31  and  C_44
   17  A    between atoms: C_31  and  C_49
                            x       y       z     vdW  Elec       q    Type
                         _______ _______ _______ _____ _____    ______ ____

>  <TORSDO>
F 17

$$$$
=
 OpenBabel10222417463D

 52 55  0  0  1  0  0  0  0  0999 V2000
  182.1390  174.7520  136.8920 C   0  0  1  0  0  3  0  0  0  0  0  0
  186.6820  174.3410  136.4450 C   0  0  0  0  0  0  0  0  0  0  0  0
  186.4480  172.3360  137.3290 N   0  0  0  0  0  0  0  0  0  0  0  0
  181.7710  173.2820  136.6410 C   0  0  2  0  0  3  0  0  0  0  0  0
  183.5010  176.6060  135.8800 C   0  0  2  0  0  3  0  0  0  0  0  0
  184.2550  176.9600  134.6020 C   0  0  0  0  0  2  0  0  0  0  0  0
  182.9750  172.4530  136.2110 C   0  0  0  0  0  2  0  0  0  0  0  0
  187.2840  175.5680  135.8980 C   0  0  0  0  0  0  0  0  0  0  0  0
  185.3580  174.1380  136.5270 N   0  0  0  0  0  0  0  0  0  0  0  0
  185.2570  172.9060  137.0550 C   0  0  0  0  0  0  0  0  0  0  0  0
  187.3630  173.2450  136.9360 C   0  0  0  0  0  2  0  0  0  0  0  0
  180.7660  173.1770  135.6750 O   0  0  0  0  0  1  0  0  0  0  0  0
  185.6620  177.3650  134.9100 C   0  0  0  0  0  3  0  0  0  0  0  0
  182.4590  175.5250  135.6100 C   0  0  0  0  0  2  0  0  0  0  0  0
  183.9490  172.2600  137.3650 C   0  0  0  0  0  2  0  0  0  0  0  0
  186.4980  176.4920  135.4020 C   0  0  0  0  0  0  0  0  0  0  0  0
  182.8910  177.8330  136.5000 C   0  0  0  0  0  0  0  0  0  0  0  0
  181.9410  178.4230  135.9200 O   0  0  0  0  0  0  0  0  0  0  0  0
  184.6960  178.1490  138.1520 C   0  0  0  0  0  1  0  0  0  0  0  0
  183.3550  178.3280  137.7210 O   0  0  0  0  0  0  0  0  0  0  0  0
  181.0840  175.4670  137.7430 C   0  0  0  0  0  2  0  0  0  0  0  0
  181.2000  175.1310  139.0970 O   0  0  0  0  0  0  0  0  0  0  0  0
  181.8220  176.2270  139.6960 C   0  0  0  0  0  2  0  0  0  0  0  0
  180.6020  177.3080  140.4180 S   0  0  0  0  0  0  0  0  0  0  0  0
  179.2610  176.6280  140.3870 O   0  0  0  0  0  0  0  0  0  0  0  0
  180.5340  178.5870  139.6330 O   0  0  0  0  0  0  0  0  0  0  0  0
  181.0550  177.6480  142.0550 N   0  0  0  0  0  2  0  0  0  0  0  0
  181.7820  178.9070  142.0660 C   0  0  1  0  0  3  0  0  0  0  0  0
  184.0710  178.5220  143.0830 C   0  0  0  0  0  0  0  0  0  0  0  0
  181.9100  179.4120  143.5020 C   0  0  0  0  0  2  0  0  0  0  0  0
  185.4110  177.9320  143.3880 C   0  0  0  0  0  1  0  0  0  0  0  0
  183.4630  178.6350  141.4090 S   0  0  0  0  0  0  0  0  0  0  0  0
  183.5440  178.9510  145.4760 C   0  0  0  0  0  1  0  0  0  0  0  0
  183.2240  178.9380  144.0140 C   0  0  0  0  0  0  0  0  0  0  0  0
  188.7070  175.7110  135.8500 N   0  0  0  0  0  2  0  0  0  0  0  0
  189.7160  176.4210  137.9780 C   0  0  0  0  0  0  0  0  0  0  0  0
  189.5160  175.4410  136.9630 N   0  0  0  0  0  2  0  0  0  0  0  0
  190.6350  176.1540  139.0360 N   0  0  0  0  0  2  0  0  0  0  0  0
  189.0720  177.5080  137.9460 O   0  0  0  0  0  0  0  0  0  0  0  0
  190.7960  177.0550  140.1650 C   0  0  0  0  0  2  0  0  0  0  0  0
  190.1850  176.4310  141.4080 C   0  0  0  0  0  2  0  0  0  0  0  0
  189.5580  177.4640  142.3470 C   0  0  1  0  0  3  0  0  0  0  0  0
  187.6770  177.8430  140.8760 O   0  0  0  0  0  1  0  0  0  0  0  0
  188.6700  178.4780  141.6260 C   0  0  0  0  0  2  0  0  0  0  0  0
  188.8570  176.8260  143.5450 C   0  0  0  0  0  2  0  0  0  0  0  0
  187.5170  177.6390  146.6140 C   0  0  0  0  0  2  0  0  0  0  0  0
  188.7140  177.8770  147.3550 C   0  0  0  0  0  2  0  0  0  0  0  0
  189.5710  177.1600  144.8160 C   0  0  0  0  0  0  0  0  0  0  0  0
  188.8510  177.4570  145.8940 C   0  0  0  0  0  0  0  0  0  0  0  0
  191.0420  177.2080  144.8630 C   0  0  0  0  0  0  0  0  0  0  0  0
  191.7110  176.1510  145.0150 O   0  0  0  0  0  1  0  0  0  0  0  0
  191.7090  178.4170  144.7390 O   0  0  0  0  0  0  0  0  0  0  0  0
  1 21  1  6  0  0  0
  2  9  2  0  0  0  0
  2 11  1  0  0  0  0
  4 12  1  6  0  0  0
  4  1  1  0  0  0  0
  5 17  1  6  0  0  0
  6 13  1  0  0  0  0
  6  5  1  0  0  0  0
  7  4  1  0  0  0  0
  7 15  1  0  0  0  0
  8  2  1  0  0  0  0
  9 10  1  0  0  0  0
 10  3  2  0  0  0  0
 10 15  1  0  0  0  0
 11  3  1  0  0  0  0
 13 16  2  0  0  0  0
 14  5  1  0  0  0  0
 14  1  1  0  0  0  0
 16  8  2  0  0  0  0
 17 20  1  0  0  0  0
 18 17  2  0  0  0  0
 20 19  1  0  0  0  0
 21 22  1  0  0  0  0
 22 23  1  0  0  0  0
 23 24  1  0  0  0  0
 24 27  1  0  0  0  0
 25 24  2  0  0  0  0
 26 24  2  0  0  0  0
 28 27  1  1  0  0  0
 28 30  1  0  0  0  0
 29 31  1  0  0  0  0
 29 34  2  0  0  0  0
 30 34  1  0  0  0  0
 32 28  1  0  0  0  0
 32 29  1  0  0  0  0
 34 33  1  0  0  0  0
 35  8  1  0  0  0  0
 35 37  1  0  0  0  0
 36 38  1  0  0  0  0
 37 36  1  0  0  0  0
 38 40  1  0  0  0  0
 39 36  2  0  0  0  0
 40 41  1  0  0  0  0
 42 41  1  6  0  0  0
 42 45  1  0  0  0  0
 43 44  1  0  0  0  0
 44 42  1  0  0  0  0
 45 48  1  0  0  0  0
 46 47  1  0  0  0  0
 48 50  1  0  0  0  0
 48 49  2  0  0  0  0
 49 46  1  0  0  0  0
 49 47  1  0  0  0  0
 50 51  1  0  0  0  0
 52 50  2  0  0  0  0
M  END
>  <MODEL>
3

>  <REMARK>
 VINA RESULT:      -6.9      3.878      8.069
  Name = 
  17 active torsions:
  status: ('A' for Active; 'I' for Inactive)
    1  A    between atoms: C_1  and  N_22
    2  A    between atoms: C_1  and  C_49
    3  A    between atoms: C_2  and  N_14
    4  A    between atoms: O_4  and  C_11
    5  A    between atoms: O_4  and  C_35
    6  A    between atoms: N_5  and  N_18
    7  A    between atoms: N_5  and  C_36
    8  A    between atoms: S_6  and  N_14
    9  A    between atoms: S_6  and  C_35
   10  A    between atoms: C_8  and  C_28
   11  A    between atoms: C_8  and  C_31
   12  A    between atoms: C_10  and  C_28
   13  A    between atoms: C_11  and  C_12
   14  A    between atoms: C_26  and  C_30
   15  A    between atoms: C_26  and  O_45
   16  A    between atoms: C_31  and  C_44
   17  A    between atoms: C_31  and  C_49
                            x       y       z     vdW  Elec       q    Type
                         _______ _______ _______ _____ _____    ______ ____

>  <TORSDO>
F 17

$$$$
=
 OpenBabel10222417463D

 52 55  0  0  1  0  0  0  0  0999 V2000
  183.2200  177.4640  137.8060 C   0  0  1  0  0  3  0  0  0  0  0  0
  187.2490  178.2030  139.8640 C   0  0  0  0  0  0  0  0  0  0  0  0
  186.1210  179.3980  141.3330 N   0  0  0  0  0  0  0  0  0  0  0  0
  182.3430  177.4390  139.0670 C   0  0  2  0  0  3  0  0  0  0  0  0
  185.3310  176.4460  136.8970 C   0  0  2  0  0  3  0  0  0  0  0  0
  186.3370  175.3390  137.1980 C   0  0  0  0  0  2  0  0  0  0  0  0
  183.1720  177.4870  140.3450 C   0  0  0  0  0  2  0  0  0  0  0  0
  188.3560  177.5760  139.1250 C   0  0  0  0  0  0  0  0  0  0  0  0
  185.9550  178.0080  139.5670 N   0  0  0  0  0  0  0  0  0  0  0  0
  185.3030  178.7390  140.4890 C   0  0  0  0  0  0  0  0  0  0  0  0
  187.3660  179.0560  140.9430 C   0  0  0  0  0  2  0  0  0  0  0  0
  181.5270  176.3050  139.0850 O   0  0  0  0  0  1  0  0  0  0  0  0
  187.7310  175.8830  137.2320 C   0  0  0  0  0  3  0  0  0  0  0  0
  183.9980  176.1640  137.5830 C   0  0  0  0  0  2  0  0  0  0  0  0
  183.8160  178.8540  140.5300 C   0  0  0  0  0  2  0  0  0  0  0  0
  188.0760  176.7280  138.1660 C   0  0  0  0  0  0  0  0  0  0  0  0
  185.1710  176.6380  135.4140 C   0  0  0  0  0  0  0  0  0  0  0  0
  184.3750  175.9060  134.7680 O   0  0  0  0  0  0  0  0  0  0  0  0
  186.7430  178.5400  135.4070 C   0  0  0  0  0  1  0  0  0  0  0  0
  185.8870  177.6270  134.7360 O   0  0  0  0  0  0  0  0  0  0  0  0
  182.4220  177.8740  136.5640 C   0  0  0  0  0  2  0  0  0  0  0  0
  182.0720  179.2290  136.6010 O   0  0  0  0  0  0  0  0  0  0  0  0
  180.7330  179.2520  136.9940 C   0  0  0  0  0  2  0  0  0  0  0  0
  180.3950  180.7290  137.9340 S   0  0  0  0  0  0  0  0  0  0  0  0
  178.9840  181.1720  137.6670 O   0  0  0  0  0  0  0  0  0  0  0  0
  181.3480  181.8160  137.5260 O   0  0  0  0  0  0  0  0  0  0  0  0
  180.5960  180.3760  139.6180 N   0  0  0  0  0  2  0  0  0  0  0  0
  179.2790  180.1270  140.1830 C   0  0  1  0  0  3  0  0  0  0  0  0
  179.5450  178.8010  142.3280 C   0  0  0  0  0  0  0  0  0  0  0  0
  178.9310  178.6460  140.0380 C   0  0  0  0  0  2  0  0  0  0  0  0
  180.0270  178.3470  143.6680 C   0  0  0  0  0  1  0  0  0  0  0  0
  179.3030  180.5320  141.9620 S   0  0  0  0  0  0  0  0  0  0  0  0
  179.4480  176.4920  141.4080 C   0  0  0  0  0  1  0  0  0  0  0  0
  179.3260  177.9800  141.3100 C   0  0  0  0  0  0  0  0  0  0  0  0
  189.7110  177.8390  139.5010 N   0  0  0  0  0  2  0  0  0  0  0  0
  190.7060  177.5000  141.7240 C   0  0  0  0  0  0  0  0  0  0  0  0
  190.3960  177.0280  140.4160 N   0  0  0  0  0  2  0  0  0  0  0  0
  191.5020  176.6910  142.5890 N   0  0  0  0  0  2  0  0  0  0  0  0
  190.2650  178.6170  142.1160 O   0  0  0  0  0  0  0  0  0  0  0  0
  191.7540  177.0560  143.9730 C   0  0  0  0  0  2  0  0  0  0  0  0
  191.6580  175.8210  144.8530 C   0  0  0  0  0  2  0  0  0  0  0  0
  191.1660  176.1340  146.2670 C   0  0  1  0  0  3  0  0  0  0  0  0
  192.3900  176.8120  148.2380 O   0  0  0  0  0  1  0  0  0  0  0  0
  192.1670  175.7520  147.3570 C   0  0  0  0  0  2  0  0  0  0  0  0
  190.6650  177.5700  146.4150 C   0  0  0  0  0  2  0  0  0  0  0  0
  187.9170  177.2280  144.3630 C   0  0  0  0  0  2  0  0  0  0  0  0
  186.8700  177.3830  145.3200 C   0  0  0  0  0  2  0  0  0  0  0  0
  189.2160  177.5910  146.7840 C   0  0  0  0  0  0  0  0  0  0  0  0
  188.3090  177.4490  145.8220 C   0  0  0  0  0  0  0  0  0  0  0  0
  188.7980  177.8130  148.1790 C   0  0  0  0  0  0  0  0  0  0  0  0
  189.4440  178.6000  148.9220 O   0  0  0  0  0  1  0  0  0  0  0  0
  187.6860  177.1630  148.6890 O   0  0  0  0  0  0  0  0  0  0  0  0
  1 21  1  6  0  0  0
  1  4  1  0  0  0  0
  2 11  1  0  0  0  0
  4 12  1  1  0  0  0
  4  7  1  0  0  0  0
  5 17  1  6  0  0  0
  5  6  1  0  0  0  0
  5 14  1  0  0  0  0
  6 13  1  0  0  0  0
  7 15  1  0  0  0  0
  8 35  1  0  0  0  0
  8  2  1  0  0  0  0
  9  2  2  0  0  0  0
  9 10  1  0  0  0  0
 10 15  1  0  0  0  0
 10  3  2  0  0  0  0
 11  3  1  0  0  0  0
 13 16  2  0  0  0  0
 14  1  1  0  0  0  0
 16  8  2  0  0  0  0
 18 17  2  0  0  0  0
 20 19  1  0  0  0  0
 20 17  1  0  0  0  0
 21 22  1  0  0  0  0
 22 23  1  0  0  0  0
 23 24  1  0  0  0  0
 24 27  1  0  0  0  0
 25 24  2  0  0  0  0
 26 24  2  0  0  0  0
 28 27  1  1  0  0  0
 28 32  1  0  0  0  0
 29 31  1  0  0  0  0
 30 28  1  0  0  0  0
 30 34  1  0  0  0  0
 32 29  1  0  0  0  0
 34 33  1  0  0  0  0
 34 29  2  0  0  0  0
 35 37  1  0  0  0  0
 36 39  2  0  0  0  0
 36 38  1  0  0  0  0
 37 36  1  0  0  0  0
 38 40  1  0  0  0  0
 40 41  1  0  0  0  0
 42 41  1  6  0  0  0
 42 45  1  0  0  0  0
 42 44  1  0  0  0  0
 44 43  1  0  0  0  0
 45 48  1  0  0  0  0
 46 47  1  0  0  0  0
 46 49  1  0  0  0  0
 47 49  1  0  0  0  0
 48 50  1  0  0  0  0
 49 48  2  0  0  0  0
 50 52  2  0  0  0  0
 50 51  1  0  0  0  0
M  END
>  <MODEL>
4

>  <REMARK>
 VINA RESULT:      -6.6      4.307      8.260
  Name = 
  17 active torsions:
  status: ('A' for Active; 'I' for Inactive)
    1  A    between atoms: C_1  and  N_22
    2  A    between atoms: C_1  and  C_49
    3  A    between atoms: C_2  and  N_14
    4  A    between atoms: O_4  and  C_11
    5  A    between atoms: O_4  and  C_35
    6  A    between atoms: N_5  and  N_18
    7  A    between atoms: N_5  and  C_36
    8  A    between atoms: S_6  and  N_14
    9  A    between atoms: S_6  and  C_35
   10  A    between atoms: C_8  and  C_28
   11  A    between atoms: C_8  and  C_31
   12  A    between atoms: C_10  and  C_28
   13  A    between atoms: C_11  and  C_12
   14  A    between atoms: C_26  and  C_30
   15  A    between atoms: C_26  and  O_45
   16  A    between atoms: C_31  and  C_44
   17  A    between atoms: C_31  and  C_49
                            x       y       z     vdW  Elec       q    Type
                         _______ _______ _______ _____ _____    ______ ____

>  <TORSDO>
F 17

$$$$
=
 OpenBabel10222417463D

 52 55  0  0  1  0  0  0  0  0999 V2000
  184.9850  178.5340  139.6050 C   0  0  1  0  0  3  0  0  0  0  0  0
  185.3240  174.7160  137.0900 C   0  0  0  0  0  0  0  0  0  0  0  0
  183.2110  174.3590  137.6010 N   0  0  0  0  0  0  0  0  0  0  0  0
  183.5200  178.8670  139.2820 C   0  0  2  0  0  3  0  0  0  0  0  0
  187.1370  177.9490  138.4460 C   0  0  2  0  0  3  0  0  0  0  0  0
  187.7600  177.9110  137.0540 C   0  0  0  0  0  2  0  0  0  0  0  0
  182.9440  177.9480  138.2120 C   0  0  0  0  0  2  0  0  0  0  0  0
  186.6870  174.5350  136.5660 C   0  0  0  0  0  0  0  0  0  0  0  0
  184.9150  175.8280  137.7220 N   0  0  0  0  0  0  0  0  0  0  0  0
  183.6240  175.5770  138.0030 C   0  0  0  0  0  0  0  0  0  0  0  0
  184.2900  173.8060  137.0120 C   0  0  0  0  0  2  0  0  0  0  0  0
  183.3890  180.1970  138.8720 O   0  0  0  0  0  1  0  0  0  0  0  0
  188.3310  176.5600  136.7630 C   0  0  0  0  0  3  0  0  0  0  0  0
  185.9540  178.9120  138.4820 C   0  0  0  0  0  2  0  0  0  0  0  0
  182.7540  176.5350  138.7450 C   0  0  0  0  0  2  0  0  0  0  0  0
  187.5370  175.5280  136.6560 C   0  0  0  0  0  0  0  0  0  0  0  0
  188.1680  178.2850  139.4880 C   0  0  0  0  0  0  0  0  0  0  0  0
  188.8910  179.3070  139.3480 O   0  0  0  0  0  0  0  0  0  0  0  0
  189.1970  177.8500  141.6880 C   0  0  0  0  0  1  0  0  0  0  0  0
  188.3340  177.4850  140.6200 O   0  0  0  0  0  0  0  0  0  0  0  0
  185.4180  179.1160  140.9540 C   0  0  0  0  0  2  0  0  0  0  0  0
  185.4010  178.1450  141.9630 O   0  0  0  0  0  0  0  0  0  0  0  0
  184.1500  178.2640  142.5690 C   0  0  0  0  0  2  0  0  0  0  0  0
  184.2970  179.1330  144.1180 S   0  0  0  0  0  0  0  0  0  0  0  0
  183.3670  178.5110  145.1220 O   0  0  0  0  0  0  0  0  0  0  0  0
  183.9320  180.5770  143.9230 O   0  0  0  0  0  0  0  0  0  0  0  0
  185.9330  179.0120  144.6730 N   0  0  0  0  0  2  0  0  0  0  0  0
  186.1020  177.7050  145.2870 C   0  0  1  0  0  3  0  0  0  0  0  0
  187.9900  177.8300  146.9730 C   0  0  0  0  0  0  0  0  0  0  0  0
  187.4050  177.0740  144.7990 C   0  0  0  0  0  2  0  0  0  0  0  0
  188.8690  178.2890  148.0920 C   0  0  0  0  0  1  0  0  0  0  0  0
  186.2110  177.9020  147.0980 S   0  0  0  0  0  0  0  0  0  0  0  0
  189.9080  177.2460  145.5000 C   0  0  0  0  0  1  0  0  0  0  0  0
  188.4510  177.4030  145.8060 C   0  0  0  0  0  0  0  0  0  0  0  0
  187.0480  173.3160  135.9090 N   0  0  0  0  0  2  0  0  0  0  0  0
  189.4950  173.0770  135.9560 C   0  0  0  0  0  0  0  0  0  0  0  0
  188.2700  173.1710  135.2360 N   0  0  0  0  0  2  0  0  0  0  0  0
  190.7270  173.0450  135.2370 N   0  0  0  0  0  2  0  0  0  0  0  0
  189.4860  173.0080  137.2180 O   0  0  0  0  0  0  0  0  0  0  0  0
  192.0020  172.8290  135.9000 C   0  0  0  0  0  2  0  0  0  0  0  0
  193.0660  173.7060  135.2610 C   0  0  0  0  0  2  0  0  0  0  0  0
  193.7800  174.6080  136.2700 C   0  0  1  0  0  3  0  0  0  0  0  0
  193.5850  176.6890  137.4830 O   0  0  0  0  0  1  0  0  0  0  0  0
  193.2350  176.0350  136.3000 C   0  0  0  0  0  2  0  0  0  0  0  0
  193.8610  173.9870  137.6630 C   0  0  0  0  0  2  0  0  0  0  0  0
  195.3500  170.9380  137.0570 C   0  0  0  0  0  2  0  0  0  0  0  0
  196.6410  171.1740  137.6180 C   0  0  0  0  0  2  0  0  0  0  0  0
  195.2600  173.5540  137.9700 C   0  0  0  0  0  0  0  0  0  0  0  0
  195.6280  172.3140  137.6570 C   0  0  0  0  0  0  0  0  0  0  0  0
  196.1980  174.4630  138.6500 C   0  0  0  0  0  0  0  0  0  0  0  0
  197.2890  174.7800  138.1030 O   0  0  0  0  0  0  0  0  0  0  0  0
  195.8910  174.9820  139.8970 O   0  0  0  0  0  1  0  0  0  0  0  0
  1 21  1  1  0  0  0
  2  9  2  0  0  0  0
  3 10  2  0  0  0  0
  4 12  1  6  0  0  0
  4  1  1  0  0  0  0
  5 14  1  0  0  0  0
  5 17  1  1  0  0  0
  6  5  1  0  0  0  0
  7 15  1  0  0  0  0
  7  4  1  0  0  0  0
  8 16  2  0  0  0  0
  8  2  1  0  0  0  0
  9 10  1  0  0  0  0
 10 15  1  0  0  0  0
 11  2  1  0  0  0  0
 11  3  1  0  0  0  0
 13  6  1  0  0  0  0
 14  1  1  0  0  0  0
 16 13  2  0  0  0  0
 17 20  1  0  0  0  0
 18 17  2  0  0  0  0
 20 19  1  0  0  0  0
 21 22  1  0  0  0  0
 22 23  1  0  0  0  0
 23 24  1  0  0  0  0
 24 27  1  0  0  0  0
 24 25  2  0  0  0  0
 26 24  2  0  0  0  0
 28 27  1  6  0  0  0
 28 32  1  0  0  0  0
 29 32  1  0  0  0  0
 29 31  1  0  0  0  0
 30 28  1  0  0  0  0
 30 34  1  0  0  0  0
 33 34  1  0  0  0  0
 34 29  2  0  0  0  0
 35  8  1  0  0  0  0
 36 39  2  0  0  0  0
 37 35  1  0  0  0  0
 37 36  1  0  0  0  0
 38 40  1  0  0  0  0
 38 36  1  0  0  0  0
 41 40  1  0  0  0  0
 42 41  1  6  0  0  0
 42 44  1  0  0  0  0
 42 45  1  0  0  0  0
 44 43  1  0  0  0  0
 45 48  1  0  0  0  0
 46 47  1  0  0  0  0
 46 49  1  0  0  0  0
 47 49  1  0  0  0  0
 48 50  1  0  0  0  0
 49 48  2  0  0  0  0
 50 52  1  0  0  0  0
 51 50  2  0  0  0  0
M  END
>  <MODEL>
5

>  <REMARK>
 VINA RESULT:      -6.6      3.543      9.491
  Name = 
  17 active torsions:
  status: ('A' for Active; 'I' for Inactive)
    1  A    between atoms: C_1  and  N_22
    2  A    between atoms: C_1  and  C_49
    3  A    between atoms: C_2  and  N_14
    4  A    between atoms: O_4  and  C_11
    5  A    between atoms: O_4  and  C_35
    6  A    between atoms: N_5  and  N_18
    7  A    between atoms: N_5  and  C_36
    8  A    between atoms: S_6  and  N_14
    9  A    between atoms: S_6  and  C_35
   10  A    between atoms: C_8  and  C_28
   11  A    between atoms: C_8  and  C_31
   12  A    between atoms: C_10  and  C_28
   13  A    between atoms: C_11  and  C_12
   14  A    between atoms: C_26  and  C_30
   15  A    between atoms: C_26  and  O_45
   16  A    between atoms: C_31  and  C_44
   17  A    between atoms: C_31  and  C_49
                            x       y       z     vdW  Elec       q    Type
                         _______ _______ _______ _____ _____    ______ ____

>  <TORSDO>
F 17

$$$$
=
 OpenBabel10222417463D

 52 55  0  0  1  0  0  0  0  0999 V2000
  185.0740  176.5420  136.7920 C   0  0  1  0  0  3  0  0  0  0  0  0
  184.8140  178.7720  140.7880 C   0  0  0  0  0  0  0  0  0  0  0  0
  187.0060  178.9580  140.6670 N   0  0  0  0  0  0  0  0  0  0  0  0
  186.2580  177.3190  136.1960 C   0  0  2  0  0  3  0  0  0  0  0  0
  182.8510  176.9470  137.8920 C   0  0  2  0  0  3  0  0  0  0  0  0
  181.8520  178.0670  138.1670 C   0  0  0  0  0  2  0  0  0  0  0  0
  186.6600  178.5060  137.0620 C   0  0  0  0  0  2  0  0  0  0  0  0
  183.4300  178.8320  141.2840 C   0  0  0  0  0  0  0  0  0  0  0  0
  185.1460  178.3170  139.5700 N   0  0  0  0  0  0  0  0  0  0  0  0
  186.4830  178.4600  139.5300 C   0  0  0  0  0  0  0  0  0  0  0  0
  185.9460  179.1660  141.4730 C   0  0  0  0  0  2  0  0  0  0  0  0
  185.9630  177.7650  134.9040 O   0  0  0  0  0  1  0  0  0  0  0  0
  181.5280  178.1450  139.6250 C   0  0  0  0  0  3  0  0  0  0  0  0
  183.7470  177.3010  136.7100 C   0  0  0  0  0  2  0  0  0  0  0  0
  187.3090  178.0450  138.3600 C   0  0  0  0  0  2  0  0  0  0  0  0
  182.4540  178.4870  140.4800 C   0  0  0  0  0  0  0  0  0  0  0  0
  182.1450  175.6350  137.6900 C   0  0  0  0  0  0  0  0  0  0  0  0
  181.9020  174.8930  138.6800 O   0  0  0  0  0  0  0  0  0  0  0  0
  181.3770  173.8800  136.1340 C   0  0  0  0  0  1  0  0  0  0  0  0
  181.7420  175.2230  136.4180 O   0  0  0  0  0  0  0  0  0  0  0  0
  184.9630  175.1320  136.2040 C   0  0  0  0  0  2  0  0  0  0  0  0
  186.2080  174.6510  135.7800 O   0  0  0  0  0  0  0  0  0  0  0  0
  186.7550  174.0110  136.8920 C   0  0  0  0  0  2  0  0  0  0  0  0
  188.1520  173.0170  136.4040 S   0  0  0  0  0  0  0  0  0  0  0  0
  188.3050  173.0820  134.9090 O   0  0  0  0  0  0  0  0  0  0  0  0
  187.9300  171.5920  136.8250 O   0  0  0  0  0  0  0  0  0  0  0  0
  189.5750  173.6400  137.1710 N   0  0  0  0  0  2  0  0  0  0  0  0
  189.7670  175.0080  136.7160 C   0  0  1  0  0  3  0  0  0  0  0  0
  191.9780  175.8660  137.6100 C   0  0  0  0  0  0  0  0  0  0  0  0
  189.6230  175.9650  137.8970 C   0  0  0  0  0  2  0  0  0  0  0  0
  193.4250  175.9560  137.9750 C   0  0  0  0  0  1  0  0  0  0  0  0
  191.4540  175.1860  136.0440 S   0  0  0  0  0  0  0  0  0  0  0  0
  191.2120  176.8260  139.7730 C   0  0  0  0  0  1  0  0  0  0  0  0
  190.9920  176.2150  138.4240 C   0  0  0  0  0  0  0  0  0  0  0  0
  183.1580  179.3260  142.5990 N   0  0  0  0  0  2  0  0  0  0  0  0
  184.2980  178.9840  144.7520 C   0  0  0  0  0  0  0  0  0  0  0  0
  184.1870  179.6480  143.4960 N   0  0  0  0  0  2  0  0  0  0  0  0
  185.2870  179.4160  145.6850 N   0  0  0  0  0  2  0  0  0  0  0  0
  183.5380  178.0120  145.0250 O   0  0  0  0  0  0  0  0  0  0  0  0
  185.5350  178.7080  146.9300 C   0  0  0  0  0  2  0  0  0  0  0  0
  186.4500  177.5230  146.6700 C   0  0  0  0  0  2  0  0  0  0  0  0
  187.8790  177.7540  147.1630 C   0  0  1  0  0  3  0  0  0  0  0  0
  189.2520  178.6350  148.9460 O   0  0  0  0  0  1  0  0  0  0  0  0
  187.9500  178.2650  148.6010 C   0  0  0  0  0  2  0  0  0  0  0  0
  188.7870  176.5480  146.9290 C   0  0  0  0  0  2  0  0  0  0  0  0
  188.2870  177.4210  143.6320 C   0  0  0  0  0  2  0  0  0  0  0  0
  189.6400  177.5190  143.1910 C   0  0  0  0  0  2  0  0  0  0  0  0
  189.8080  176.8480  145.8780 C   0  0  0  0  0  0  0  0  0  0  0  0
  189.3920  177.1570  144.6530 C   0  0  0  0  0  0  0  0  0  0  0  0
  191.2470  176.7560  146.1770 C   0  0  0  0  0  0  0  0  0  0  0  0
  192.0590  176.3640  145.2970 O   0  0  0  0  0  0  0  0  0  0  0  0
  191.7260  177.1030  147.4310 O   0  0  0  0  0  1  0  0  0  0  0  0
  1 21  1  6  0  0  0
  2  8  1  0  0  0  0
  2 11  1  0  0  0  0
  3 11  1  0  0  0  0
  4 12  1  6  0  0  0
  4  1  1  0  0  0  0
  4  7  1  0  0  0  0
  5 17  1  6  0  0  0
  5  6  1  0  0  0  0
  6 13  1  0  0  0  0
  7 15  1  0  0  0  0
  8 35  1  0  0  0  0
  9  2  2  0  0  0  0
 10  9  1  0  0  0  0
 10  3  2  0  0  0  0
 13 16  2  0  0  0  0
 14  1  1  0  0  0  0
 14  5  1  0  0  0  0
 15 10  1  0  0  0  0
 16  8  2  0  0  0  0
 17 18  2  0  0  0  0
 19 20  1  0  0  0  0
 20 17  1  0  0  0  0
 22 21  1  0  0  0  0
 22 23  1  0  0  0  0
 24 26  2  0  0  0  0
 24 23  1  0  0  0  0
 24 27  1  0  0  0  0
 25 24  2  0  0  0  0
 28 27  1  1  0  0  0
 28 30  1  0  0  0  0
 29 31  1  0  0  0  0
 29 34  2  0  0  0  0
 30 34  1  0  0  0  0
 32 28  1  0  0  0  0
 32 29  1  0  0  0  0
 34 33  1  0  0  0  0
 35 37  1  0  0  0  0
 36 39  2  0  0  0  0
 36 38  1  0  0  0  0
 37 36  1  0  0  0  0
 38 40  1  0  0  0  0
 41 40  1  0  0  0  0
 42 41  1  1  0  0  0
 42 44  1  0  0  0  0
 44 43  1  0  0  0  0
 45 42  1  0  0  0  0
 46 49  1  0  0  0  0
 47 46  1  0  0  0  0
 47 49  1  0  0  0  0
 48 50  1  0  0  0  0
 48 45  1  0  0  0  0
 49 48  2  0  0  0  0
 50 52  1  0  0  0  0
 51 50  2  0  0  0  0
M  END
>  <MODEL>
6

>  <REMARK>
 VINA RESULT:      -6.5      1.972      2.432
  Name = 
  17 active torsions:
  status: ('A' for Active; 'I' for Inactive)
    1  A    between atoms: C_1  and  N_22
    2  A    between atoms: C_1  and  C_49
    3  A    between atoms: C_2  and  N_14
    4  A    between atoms: O_4  and  C_11
    5  A    between atoms: O_4  and  C_35
    6  A    between atoms: N_5  and  N_18
    7  A    between atoms: N_5  and  C_36
    8  A    between atoms: S_6  and  N_14
    9  A    between atoms: S_6  and  C_35
   10  A    between atoms: C_8  and  C_28
   11  A    between atoms: C_8  and  C_31
   12  A    between atoms: C_10  and  C_28
   13  A    between atoms: C_11  and  C_12
   14  A    between atoms: C_26  and  C_30
   15  A    between atoms: C_26  and  O_45
   16  A    between atoms: C_31  and  C_44
   17  A    between atoms: C_31  and  C_49
                            x       y       z     vdW  Elec       q    Type
                         _______ _______ _______ _____ _____    ______ ____

>  <TORSDO>
F 17

$$$$
=
 OpenBabel10222417463D

 52 55  0  0  1  0  0  0  0  0999 V2000
  190.8290  175.4740  137.6200 C   0  0  1  0  0  3  0  0  0  0  0  0
  187.5500  178.0360  139.5430 C   0  0  0  0  0  0  0  0  0  0  0  0
  188.8420  178.1020  141.3270 N   0  0  0  0  0  0  0  0  0  0  0  0
  192.0380  176.1400  138.2970 C   0  0  2  0  0  3  0  0  0  0  0  0
  188.7550  176.0790  136.3350 C   0  0  2  0  0  3  0  0  0  0  0  0
  188.0980  177.2670  135.6380 C   0  0  0  0  0  2  0  0  0  0  0  0
  191.6400  177.3730  139.0990 C   0  0  0  0  0  2  0  0  0  0  0  0
  186.3990  178.2050  138.6420 C   0  0  0  0  0  0  0  0  0  0  0  0
  188.7060  177.4660  139.1700 N   0  0  0  0  0  0  0  0  0  0  0  0
  189.4680  177.5380  140.2760 C   0  0  0  0  0  0  0  0  0  0  0  0
  187.6180  178.4280  140.8650 C   0  0  0  0  0  2  0  0  0  0  0  0
  193.0070  176.4920  137.3530 O   0  0  0  0  0  1  0  0  0  0  0  0
  186.7080  177.4810  136.1480 C   0  0  0  0  0  3  0  0  0  0  0  0
  190.2610  176.2900  136.4550 C   0  0  0  0  0  2  0  0  0  0  0  0
  190.8530  176.9880  140.3440 C   0  0  0  0  0  2  0  0  0  0  0  0
  186.5190  177.8450  137.3880 C   0  0  0  0  0  0  0  0  0  0  0  0
  188.4210  174.7920  135.6330 C   0  0  0  0  0  0  0  0  0  0  0  0
  189.0800  174.4420  134.6180 O   0  0  0  0  0  0  0  0  0  0  0  0
  186.6940  174.2280  137.3030 C   0  0  0  0  0  1  0  0  0  0  0  0
  187.3940  173.9670  136.0950 O   0  0  0  0  0  0  0  0  0  0  0  0
  191.1280  174.0280  137.2130 C   0  0  0  0  0  2  0  0  0  0  0  0
  192.2180  173.9530  136.3380 O   0  0  0  0  0  0  0  0  0  0  0  0
  192.4300  172.5900  136.1290 C   0  0  0  0  0  2  0  0  0  0  0  0
  194.1670  172.2680  135.8910 S   0  0  0  0  0  0  0  0  0  0  0  0
  194.6580  173.0590  134.7110 O   0  0  0  0  0  0  0  0  0  0  0  0
  194.3780  170.8020  135.6360 O   0  0  0  0  0  0  0  0  0  0  0  0
  195.0230  172.7430  137.3190 N   0  0  0  0  0  2  0  0  0  0  0  0
  195.3900  174.1430  137.1770 C   0  0  1  0  0  3  0  0  0  0  0  0
  197.7240  174.4780  138.1070 C   0  0  0  0  0  0  0  0  0  0  0  0
  195.4140  174.8090  138.5510 C   0  0  0  0  0  2  0  0  0  0  0  0
  199.1790  174.2940  138.3960 C   0  0  0  0  0  1  0  0  0  0  0  0
  197.0650  174.2550  136.4630 S   0  0  0  0  0  0  0  0  0  0  0  0
  197.1610  174.9970  140.4740 C   0  0  0  0  0  1  0  0  0  0  0  0
  196.8200  174.7510  139.0380 C   0  0  0  0  0  0  0  0  0  0  0  0
  185.1970  178.8190  139.1180 N   0  0  0  0  0  2  0  0  0  0  0  0
  184.6100  178.9600  141.5020 C   0  0  0  0  0  0  0  0  0  0  0  0
  184.5040  178.3240  140.2320 N   0  0  0  0  0  2  0  0  0  0  0  0
  183.9830  178.3630  142.6360 N   0  0  0  0  0  2  0  0  0  0  0  0
  185.2410  180.0490  141.6160 O   0  0  0  0  0  0  0  0  0  0  0  0
  183.9490  179.0190  143.9330 C   0  0  0  0  0  2  0  0  0  0  0  0
  184.5090  178.0850  144.9930 C   0  0  0  0  0  2  0  0  0  0  0  0
  185.9590  178.4050  145.3630 C   0  0  1  0  0  3  0  0  0  0  0  0
  185.3700  178.9400  147.6450 O   0  0  0  0  0  1  0  0  0  0  0  0
  186.0840  179.3840  146.5300 C   0  0  0  0  0  2  0  0  0  0  0  0
  186.8090  177.1520  145.5600 C   0  0  0  0  0  2  0  0  0  0  0  0
  189.8100  177.8810  144.0300 C   0  0  0  0  0  2  0  0  0  0  0  0
  190.6370  178.0670  145.1770 C   0  0  0  0  0  2  0  0  0  0  0  0
  188.1200  177.4950  146.1930 C   0  0  0  0  0  0  0  0  0  0  0  0
  189.1660  177.7330  145.4060 C   0  0  0  0  0  0  0  0  0  0  0  0
  188.2660  177.5210  147.6580 C   0  0  0  0  0  0  0  0  0  0  0  0
  187.7030  176.6480  148.3720 O   0  0  0  0  0  1  0  0  0  0  0  0
  189.0280  178.5040  148.2690 O   0  0  0  0  0  0  0  0  0  0  0  0
  1 21  1  6  0  0  0
  1  4  1  0  0  0  0
  2 11  1  0  0  0  0
  4 12  1  6  0  0  0
  4  7  1  0  0  0  0
  5 17  1  6  0  0  0
  5 14  1  0  0  0  0
  6 13  1  0  0  0  0
  6  5  1  0  0  0  0
  7 15  1  0  0  0  0
  8 35  1  0  0  0  0
  8  2  1  0  0  0  0
  9  2  2  0  0  0  0
  9 10  1  0  0  0  0
 10 15  1  0  0  0  0
 10  3  2  0  0  0  0
 11  3  1  0  0  0  0
 13 16  2  0  0  0  0
 14  1  1  0  0  0  0
 16  8  2  0  0  0  0
 17 20  1  0  0  0  0
 18 17  2  0  0  0  0
 20 19  1  0  0  0  0
 22 21  1  0  0  0  0
 23 22  1  0  0  0  0
 24 23  1  0  0  0  0
 24 27  1  0  0  0  0
 25 24  2  0  0  0  0
 26 24  2  0  0  0  0
 28 27  1  1  0  0  0
 28 30  1  0  0  0  0
 29 31  1  0  0  0  0
 29 34  2  0  0  0  0
 30 34  1  0  0  0  0
 32 28  1  0  0  0  0
 32 29  1  0  0  0  0
 34 33  1  0  0  0  0
 35 37  1  0  0  0  0
 36 39  2  0  0  0  0
 36 38  1  0  0  0  0
 37 36  1  0  0  0  0
 38 40  1  0  0  0  0
 40 41  1  0  0  0  0
 42 41  1  1  0  0  0
 42 45  1  0  0  0  0
 42 44  1  0  0  0  0
 44 43  1  0  0  0  0
 45 48  1  0  0  0  0
 46 47  1  0  0  0  0
 46 49  1  0  0  0  0
 47 49  1  0  0  0  0
 48 50  1  0  0  0  0
 49 48  2  0  0  0  0
 50 52  2  0  0  0  0
 50 51  1  0  0  0  0
M  END
>  <MODEL>
7

>  <REMARK>
 VINA RESULT:      -5.9      2.304      3.895
  Name = 
  17 active torsions:
  status: ('A' for Active; 'I' for Inactive)
    1  A    between atoms: C_1  and  N_22
    2  A    between atoms: C_1  and  C_49
    3  A    between atoms: C_2  and  N_14
    4  A    between atoms: O_4  and  C_11
    5  A    between atoms: O_4  and  C_35
    6  A    between atoms: N_5  and  N_18
    7  A    between atoms: N_5  and  C_36
    8  A    between atoms: S_6  and  N_14
    9  A    between atoms: S_6  and  C_35
   10  A    between atoms: C_8  and  C_28
   11  A    between atoms: C_8  and  C_31
   12  A    between atoms: C_10  and  C_28
   13  A    between atoms: C_11  and  C_12
   14  A    between atoms: C_26  and  C_30
   15  A    between atoms: C_26  and  O_45
   16  A    between atoms: C_31  and  C_44
   17  A    between atoms: C_31  and  C_49
                            x       y       z     vdW  Elec       q    Type
                         _______ _______ _______ _____ _____    ______ ____

>  <TORSDO>
F 17

$$$$
=
 OpenBabel10222417463D

 52 55  0  0  1  0  0  0  0  0999 V2000
  190.3150  177.0060  139.9230 C   0  0  1  0  0  3  0  0  0  0  0  0
  186.3550  178.3470  141.8040 C   0  0  0  0  0  0  0  0  0  0  0  0
  185.7620  178.9660  139.7740 N   0  0  0  0  0  0  0  0  0  0  0  0
  189.7580  176.5570  138.5630 C   0  0  2  0  0  3  0  0  0  0  0  0
  189.8950  176.7010  142.3820 C   0  0  2  0  0  3  0  0  0  0  0  0
  189.0880  175.8390  143.3480 C   0  0  0  0  0  2  0  0  0  0  0  0
  188.2350  176.5890  138.5260 C   0  0  0  0  0  2  0  0  0  0  0  0
  186.3530  178.1420  143.2610 C   0  0  0  0  0  0  0  0  0  0  0  0
  187.3250  177.8960  140.9930 N   0  0  0  0  0  0  0  0  0  0  0  0
  186.9210  178.2790  139.7690 C   0  0  0  0  0  0  0  0  0  0  0  0
  185.3910  179.0080  141.0700 C   0  0  0  0  0  2  0  0  0  0  0  0
  190.2030  175.2710  138.2420 O   0  0  0  0  0  1  0  0  0  0  0  0
  188.2790  176.6910  144.2740 C   0  0  0  0  0  3  0  0  0  0  0  0
  190.0710  175.9920  141.0430 C   0  0  0  0  0  2  0  0  0  0  0  0
  187.7160  178.0210  138.5340 C   0  0  0  0  0  2  0  0  0  0  0  0
  187.3080  177.4260  143.8010 C   0  0  0  0  0  0  0  0  0  0  0  0
  191.2140  177.0960  142.9880 C   0  0  0  0  0  0  0  0  0  0  0  0
  191.9490  176.2190  143.5150 O   0  0  0  0  0  0  0  0  0  0  0  0
  191.3310  179.3400  144.0060 C   0  0  0  0  0  1  0  0  0  0  0  0
  191.6460  178.4230  142.9680 O   0  0  0  0  0  0  0  0  0  0  0  0
  191.7890  177.4130  139.8290 C   0  0  0  0  0  2  0  0  0  0  0  0
  192.2230  177.4760  138.5000 O   0  0  0  0  0  0  0  0  0  0  0  0
  193.2260  176.5110  138.3940 C   0  0  0  0  0  2  0  0  0  0  0  0
  193.5770  176.1770  136.6790 S   0  0  0  0  0  0  0  0  0  0  0  0
  194.4670  177.2600  136.1370 O   0  0  0  0  0  0  0  0  0  0  0  0
  192.2930  176.1450  135.8980 O   0  0  0  0  0  0  0  0  0  0  0  0
  194.3720  174.6430  136.5610 N   0  0  0  0  0  2  0  0  0  0  0  0
  194.9930  174.3600  137.8450 C   0  0  1  0  0  3  0  0  0  0  0  0
  196.8910  172.7170  137.4940 C   0  0  0  0  0  0  0  0  0  0  0  0
  194.6580  172.9330  138.2730 C   0  0  0  0  0  2  0  0  0  0  0  0
  198.1090  172.0480  136.9420 C   0  0  0  0  0  1  0  0  0  0  0  0
  196.8060  174.4910  137.6770 S   0  0  0  0  0  0  0  0  0  0  0  0
  195.6500  170.5790  137.7660 C   0  0  0  0  0  1  0  0  0  0  0  0
  195.7830  172.0680  137.8230 C   0  0  0  0  0  0  0  0  0  0  0  0
  185.2840  178.6600  144.0590 N   0  0  0  0  0  2  0  0  0  0  0  0
  182.8710  179.0970  143.8710 C   0  0  0  0  0  0  0  0  0  0  0  0
  183.9690  178.1910  143.9290 N   0  0  0  0  0  2  0  0  0  0  0  0
  181.5410  178.5810  143.8530 N   0  0  0  0  0  2  0  0  0  0  0  0
  183.0780  180.3420  143.8200 O   0  0  0  0  0  0  0  0  0  0  0  0
  180.3820  179.4410  143.6730 C   0  0  0  0  0  2  0  0  0  0  0  0
  180.3230  179.9240  142.2340 C   0  0  0  0  0  2  0  0  0  0  0  0
  180.0570  178.7950  141.2360 C   0  0  1  0  0  3  0  0  0  0  0  0
  179.3250  176.5190  141.5910 O   0  0  0  0  0  1  0  0  0  0  0  0
  178.9310  177.8570  141.6680 C   0  0  0  0  0  2  0  0  0  0  0  0
  179.8770  179.3000  139.8060 C   0  0  0  0  0  2  0  0  0  0  0  0
  181.5260  176.4030  138.9300 C   0  0  0  0  0  2  0  0  0  0  0  0
  182.6540  176.9530  138.2510 C   0  0  0  0  0  2  0  0  0  0  0  0
  181.1440  179.1470  139.0260 C   0  0  0  0  0  0  0  0  0  0  0  0
  181.6160  177.9230  138.8080 C   0  0  0  0  0  0  0  0  0  0  0  0
  181.8820  180.3280  138.5490 C   0  0  0  0  0  0  0  0  0  0  0  0
  183.1230  180.4300  138.7490 O   0  0  0  0  0  1  0  0  0  0  0  0
  181.2220  181.3410  137.8710 O   0  0  0  0  0  0  0  0  0  0  0  0
  1 21  1  6  0  0  0
  1 14  1  0  0  0  0
  2  8  1  0  0  0  0
  3 11  1  0  0  0  0
  4 12  1  1  0  0  0
  4  1  1  0  0  0  0
  5 17  1  1  0  0  0
  5  6  1  0  0  0  0
  6 13  1  0  0  0  0
  7 15  1  0  0  0  0
  7  4  1  0  0  0  0
  8 16  2  0  0  0  0
  8 35  1  0  0  0  0
  9  2  2  0  0  0  0
 10  3  2  0  0  0  0
 10  9  1  0  0  0  0
 11  2  1  0  0  0  0
 14  5  1  0  0  0  0
 15 10  1  0  0  0  0
 16 13  2  0  0  0  0
 17 18  2  0  0  0  0
 20 17  1  0  0  0  0
 20 19  1  0  0  0  0
 22 21  1  0  0  0  0
 23 22  1  0  0  0  0
 24 23  1  0  0  0  0
 25 24  2  0  0  0  0
 26 24  2  0  0  0  0
 27 24  1  0  0  0  0
 28 27  1  6  0  0  0
 28 30  1  0  0  0  0
 29 32  1  0  0  0  0
 29 34  2  0  0  0  0
 31 29  1  0  0  0  0
 32 28  1  0  0  0  0
 33 34  1  0  0  0  0
 34 30  1  0  0  0  0
 36 37  1  0  0  0  0
 37 35  1  0  0  0  0
 38 36  1  0  0  0  0
 39 36  2  0  0  0  0
 40 38  1  0  0  0  0
 41 40  1  0  0  0  0
 42 45  1  6  0  0  0
 42 44  1  0  0  0  0
 42 41  1  0  0  0  0
 43 44  1  0  0  0  0
 47 49  1  0  0  0  0
 47 46  1  0  0  0  0
 48 45  1  0  0  0  0
 49 46  1  0  0  0  0
 49 48  2  0  0  0  0
 50 51  1  0  0  0  0
 50 48  1  0  0  0  0
 52 50  2  0  0  0  0
M  END
>  <MODEL>
8

>  <REMARK>
 VINA RESULT:      -5.8      2.847      6.969
  Name = 
  17 active torsions:
  status: ('A' for Active; 'I' for Inactive)
    1  A    between atoms: C_1  and  N_22
    2  A    between atoms: C_1  and  C_49
    3  A    between atoms: C_2  and  N_14
    4  A    between atoms: O_4  and  C_11
    5  A    between atoms: O_4  and  C_35
    6  A    between atoms: N_5  and  N_18
    7  A    between atoms: N_5  and  C_36
    8  A    between atoms: S_6  and  N_14
    9  A    between atoms: S_6  and  C_35
   10  A    between atoms: C_8  and  C_28
   11  A    between atoms: C_8  and  C_31
   12  A    between atoms: C_10  and  C_28
   13  A    between atoms: C_11  and  C_12
   14  A    between atoms: C_26  and  C_30
   15  A    between atoms: C_26  and  O_45
   16  A    between atoms: C_31  and  C_44
   17  A    between atoms: C_31  and  C_49
                            x       y       z     vdW  Elec       q    Type
                         _______ _______ _______ _____ _____    ______ ____

>  <TORSDO>
F 17

$$$$
=
 OpenBabel10222417463D

 52 55  0  0  1  0  0  0  0  0999 V2000
  190.0920  177.3580  140.4880 C   0  0  1  0  0  3  0  0  0  0  0  0
  186.0800  178.7660  142.2010 C   0  0  0  0  0  0  0  0  0  0  0  0
  185.5300  179.2680  140.1270 N   0  0  0  0  0  0  0  0  0  0  0  0
  189.5700  176.8290  139.1430 C   0  0  2  0  0  3  0  0  0  0  0  0
  189.6170  177.1840  142.9500 C   0  0  2  0  0  3  0  0  0  0  0  0
  188.7930  176.3690  143.9430 C   0  0  0  0  0  2  0  0  0  0  0  0
  188.0480  176.8470  139.0690 C   0  0  0  0  0  2  0  0  0  0  0  0
  186.0450  178.6410  143.6670 C   0  0  0  0  0  0  0  0  0  0  0  0
  187.0710  178.2790  141.4390 N   0  0  0  0  0  0  0  0  0  0  0  0
  186.6930  178.5920  140.1870 C   0  0  0  0  0  0  0  0  0  0  0  0
  185.1290  179.3780  141.4100 C   0  0  0  0  0  2  0  0  0  0  0  0
  190.0320  175.5320  138.9030 O   0  0  0  0  0  1  0  0  0  0  0  0
  187.9570  177.2640  144.8020 C   0  0  0  0  0  3  0  0  0  0  0  0
  189.8290  176.4040  141.6570 C   0  0  0  0  0  2  0  0  0  0  0  0
  187.5190  178.2720  138.9860 C   0  0  0  0  0  2  0  0  0  0  0  0
  186.9920  177.9630  144.2670 C   0  0  0  0  0  0  0  0  0  0  0  0
  190.9180  177.6220  143.5640 C   0  0  0  0  0  0  0  0  0  0  0  0
  191.2720  178.8290  143.4870 O   0  0  0  0  0  0  0  0  0  0  0  0
  191.6120  176.4460  145.6180 C   0  0  0  0  0  1  0  0  0  0  0  0
  191.7420  176.7130  144.2290 O   0  0  0  0  0  0  0  0  0  0  0  0
  191.5650  177.7710  140.4070 C   0  0  0  0  0  2  0  0  0  0  0  0
  192.1250  177.4400  139.1670 O   0  0  0  0  0  0  0  0  0  0  0  0
  193.3820  176.9110  139.4600 C   0  0  0  0  0  2  0  0  0  0  0  0
  193.9250  175.8500  138.1340 S   0  0  0  0  0  0  0  0  0  0  0  0
  195.1870  175.1470  138.5510 O   0  0  0  0  0  0  0  0  0  0  0  0
  194.1910  176.6730  136.9050 O   0  0  0  0  0  0  0  0  0  0  0  0
  192.6830  174.6890  137.8030 N   0  0  0  0  0  2  0  0  0  0  0  0
  192.5760  174.5460  136.3600 C   0  0  1  0  0  3  0  0  0  0  0  0
  190.1990  175.0780  135.6570 C   0  0  0  0  0  0  0  0  0  0  0  0
  191.7420  173.3100  136.0280 C   0  0  0  0  0  2  0  0  0  0  0  0
  188.8740  175.7570  135.5250 C   0  0  0  0  0  1  0  0  0  0  0  0
  191.7240  176.0060  135.6730 S   0  0  0  0  0  0  0  0  0  0  0  0
  189.1940  172.8090  135.8290 C   0  0  0  0  0  1  0  0  0  0  0  0
  190.3400  173.7710  135.8330 C   0  0  0  0  0  0  0  0  0  0  0  0
  184.9540  179.1930  144.4100 N   0  0  0  0  0  2  0  0  0  0  0  0
  182.5330  178.9760  144.0310 C   0  0  0  0  0  0  0  0  0  0  0  0
  183.7520  178.4930  144.5900 N   0  0  0  0  0  2  0  0  0  0  0  0
  181.3130  178.3000  144.3300 N   0  0  0  0  0  2  0  0  0  0  0  0
  182.5400  179.9820  143.2670 O   0  0  0  0  0  0  0  0  0  0  0  0
  180.0550  178.6640  143.7000 C   0  0  0  0  0  2  0  0  0  0  0  0
  180.0490  178.1870  142.2570 C   0  0  0  0  0  2  0  0  0  0  0  0
  179.1450  179.0280  141.3540 C   0  0  1  0  0  3  0  0  0  0  0  0
  179.4360  180.9850  139.9660 O   0  0  0  0  0  1  0  0  0  0  0  0
  179.5710  180.4930  141.2660 C   0  0  0  0  0  2  0  0  0  0  0  0
  178.9340  178.4000  139.9780 C   0  0  0  0  0  2  0  0  0  0  0  0
  182.1250  179.1090  138.8880 C   0  0  0  0  0  2  0  0  0  0  0  0
  182.6360  177.7860  138.7330 C   0  0  0  0  0  2  0  0  0  0  0  0
  180.0420  177.4500  139.6540 C   0  0  0  0  0  0  0  0  0  0  0  0
  181.2040  177.9420  139.2350 C   0  0  0  0  0  0  0  0  0  0  0  0
  179.8380  175.9940  139.7480 C   0  0  0  0  0  0  0  0  0  0  0  0
  178.9310  175.5220  140.4850 O   0  0  0  0  0  1  0  0  0  0  0  0
  180.6400  175.1260  139.0250 O   0  0  0  0  0  0  0  0  0  0  0  0
  1 21  1  6  0  0  0
  1 14  1  0  0  0  0
  2  8  1  0  0  0  0
  3 10  2  0  0  0  0
  3 11  1  0  0  0  0
  4 12  1  1  0  0  0
  4  1  1  0  0  0  0
  5 17  1  1  0  0  0
  5  6  1  0  0  0  0
  6 13  1  0  0  0  0
  7  4  1  0  0  0  0
  8 16  2  0  0  0  0
  8 35  1  0  0  0  0
  9  2  2  0  0  0  0
 10  9  1  0  0  0  0
 11  2  1  0  0  0  0
 14  5  1  0  0  0  0
 15  7  1  0  0  0  0
 15 10  1  0  0  0  0
 16 13  2  0  0  0  0
 17 20  1  0  0  0  0
 18 17  2  0  0  0  0
 20 19  1  0  0  0  0
 22 23  1  0  0  0  0
 22 21  1  0  0  0  0
 24 25  2  0  0  0  0
 24 23  1  0  0  0  0
 26 24  2  0  0  0  0
 27 24  1  0  0  0  0
 28 27  1  1  0  0  0
 29 32  1  0  0  0  0
 29 34  2  0  0  0  0
 30 28  1  0  0  0  0
 31 29  1  0  0  0  0
 32 28  1  0  0  0  0
 33 34  1  0  0  0  0
 34 30  1  0  0  0  0
 35 37  1  0  0  0  0
 36 38  1  0  0  0  0
 36 37  1  0  0  0  0
 39 36  2  0  0  0  0
 40 38  1  0  0  0  0
 41 40  1  0  0  0  0
 42 45  1  6  0  0  0
 42 41  1  0  0  0  0
 43 44  1  0  0  0  0
 44 42  1  0  0  0  0
 46 49  1  0  0  0  0
 47 46  1  0  0  0  0
 47 49  1  0  0  0  0
 48 50  1  0  0  0  0
 48 45  1  0  0  0  0
 49 48  2  0  0  0  0
 50 51  1  0  0  0  0
 52 50  2  0  0  0  0
M  END
>  <MODEL>
9

>  <REMARK>
 VINA RESULT:      -5.4      2.820      7.407
  Name = 
  17 active torsions:
  status: ('A' for Active; 'I' for Inactive)
    1  A    between atoms: C_1  and  N_22
    2  A    between atoms: C_1  and  C_49
    3  A    between atoms: C_2  and  N_14
    4  A    between atoms: O_4  and  C_11
    5  A    between atoms: O_4  and  C_35
    6  A    between atoms: N_5  and  N_18
    7  A    between atoms: N_5  and  C_36
    8  A    between atoms: S_6  and  N_14
    9  A    between atoms: S_6  and  C_35
   10  A    between atoms: C_8  and  C_28
   11  A    between atoms: C_8  and  C_31
   12  A    between atoms: C_10  and  C_28
   13  A    between atoms: C_11  and  C_12
   14  A    between atoms: C_26  and  C_30
   15  A    between atoms: C_26  and  O_45
   16  A    between atoms: C_31  and  C_44
   17  A    between atoms: C_31  and  C_49
                            x       y       z     vdW  Elec       q    Type
                         _______ _______ _______ _____ _____    ______ ____

>  <TORSDO>
F 17

$$$$
