=
 OpenBabel10222419343D

 39 41  0  0  1  0  0  0  0  0999 V2000
  186.2500  177.9270  144.1860 C   0  0  0  0  0  0  0  0  0  0  0  0
  187.1300  177.7150  145.2520 C   0  0  0  0  0  3  0  0  0  0  0  0
  188.9040  177.1870  143.6940 C   0  0  0  0  0  3  0  0  0  0  0  0
  188.0270  177.3920  142.6230 C   0  0  0  0  0  0  0  0  0  0  0  0
  186.7010  177.7530  142.8700 C   0  0  0  0  0  3  0  0  0  0  0  0
  188.4610  177.3290  145.0190 C   0  0  0  0  0  0  0  0  0  0  0  0
  184.6360  178.6670  145.9430 C   0  0  0  0  0  1  0  0  0  0  0  0
  184.8320  178.3030  144.4760 C   0  0  1  0  0  3  0  0  0  0  0  0
  184.4250  179.4100  143.6230 N   0  0  0  0  0  2  0  0  0  0  0  0
  183.4620  178.8800  142.6710 C   0  0  0  0  0  2  0  0  0  0  0  0
  183.9790  179.0160  141.3180 N   0  0  0  0  0  2  0  0  0  0  0  0
  181.8870  178.8380  140.2890 O   0  0  0  0  0  0  0  0  0  0  0  0
  183.1330  178.9820  140.1640 C   0  0  0  0  0  0  0  0  0  0  0  0
  185.1300  179.1360  138.8630 O   0  0  0  0  0  0  0  0  0  0  0  0
  183.7210  179.0880  138.7970 C   0  0  1  0  0  3  0  0  0  0  0  0
  183.3040  177.9240  137.9440 C   0  0  0  0  0  2  0  0  0  0  0  0
  184.6140  177.4610  137.4130 C   0  0  0  0  0  2  0  0  0  0  0  0
  185.5960  177.9520  138.3600 N   0  0  0  0  0  0  0  0  0  0  0  0
  186.8000  178.2530  137.6010 C   0  0  0  0  0  2  0  0  0  0  0  0
  187.2870  177.0040  136.8940 C   0  0  0  0  0  1  0  0  0  0  0  0
  190.7620  177.1770  145.9580 C   0  0  0  0  0  0  0  0  0  0  0  0
  189.4160  177.1360  146.1450 C   0  0  0  0  0  0  0  0  0  0  0  0
  191.7000  176.9570  147.0290 N   0  0  0  0  0  2  0  0  0  0  0  0
  193.1850  175.6430  148.2970 N   0  0  0  0  0  2  0  0  0  0  0  0
  192.4120  175.7430  147.2690 C   0  0  0  0  0  3  0  0  0  0  0  0
  188.9150  178.3070  148.2750 C   0  0  0  0  0  1  0  0  0  0  0  0
  188.8310  176.9910  147.5220 C   0  0  0  0  0  2  0  0  0  0  0  0
  191.7030  178.9020  144.3680 C   0  0  0  0  0  1  0  0  0  0  0  0
  191.2840  177.5450  144.6780 N   0  0  0  0  0  2  0  0  0  0  0  0
  188.5250  177.3200  141.2190 C   0  0  0  0  0  2  0  0  0  0  0  0
  193.1220  176.3100  138.0840 C   0  0  0  0  0  0  0  0  0  0  0  0
  189.9780  177.4470  141.1970 N   0  0  0  0  0  2  0  0  0  0  0  0
  192.1300  177.3330  140.1490 C   0  0  0  0  0  3  0  0  0  0  0  0
  194.1970  176.2110  137.4360 O   0  0  0  0  0  0  0  0  0  0  0  0
  192.0050  175.6770  137.5610 C   0  0  0  0  0  3  0  0  0  0  0  0
  190.2180  176.1820  139.1740 N   0  0  0  0  0  0  0  0  0  0  0  0
  190.7930  176.9600  140.1260 C   0  0  0  0  0  0  0  0  0  0  0  0
  190.7090  175.6130  138.0480 C   0  0  0  0  0  3  0  0  0  0  0  0
  193.1530  177.0480  139.2580 C   0  0  0  0  0  3  0  0  0  0  0  0
  1  8  1  0  0  0  0
  1  2  1  0  0  0  0
  3  6  1  0  0  0  0
  4  5  1  0  0  0  0
  4  3  2  0  0  0  0
  5  1  2  0  0  0  0
  6  2  2  0  0  0  0
  6 22  1  0  0  0  0
  8  7  1  1  0  0  0
  9  8  1  0  0  0  0
 10  9  1  0  0  0  0
 11 10  1  0  0  0  0
 13 12  2  0  0  0  0
 13 11  1  0  0  0  0
 15 14  1  0  0  0  0
 15 13  1  1  0  0  0
 16 15  1  0  0  0  0
 17 16  1  0  0  0  0
 17 18  1  0  0  0  0
 18 14  1  0  0  0  0
 19 18  1  0  0  0  0
 20 19  1  0  0  0  0
 21 22  2  0  0  0  0
 21 23  1  0  0  0  0
 22 27  1  0  0  0  0
 23 25  1  0  0  0  0
 25 24  2  0  0  0  0
 27 26  1  0  0  0  0
 28 29  1  0  0  0  0
 29 21  1  0  0  0  0
 30  4  1  0  0  0  0
 31 39  1  0  0  0  0
 32 30  1  0  0  0  0
 34 31  2  0  0  0  0
 35 38  2  0  0  0  0
 35 31  1  0  0  0  0
 36 37  2  0  0  0  0
 37 33  1  0  0  0  0
 37 32  1  0  0  0  0
 38 36  1  0  0  0  0
 39 33  2  0  0  0  0
M  END
>  <MODEL>
1

>  <REMARK>
 VINA RESULT:      -9.4      0.000      0.000
  Name = 
  12 active torsions:
  status: ('A' for Active; 'I' for Inactive)
    1  A    between atoms: N_2  and  C_27
    2  A    between atoms: N_3  and  C_9
    3  A    between atoms: N_6  and  C_9
    4  A    between atoms: N_6  and  C_11
    5  A    between atoms: C_7  and  C_11
    6  A    between atoms: C_10  and  N_17
    7  A    between atoms: C_10  and  N_34
    8  A    between atoms: C_15  and  N_36
    9  A    between atoms: C_19  and  C_30
   10  A    between atoms: C_21  and  C_32
   11  A    between atoms: C_27  and  C_29
   12  A    between atoms: C_30  and  C_39
                            x       y       z     vdW  Elec       q    Type
                         _______ _______ _______ _____ _____    ______ ____

>  <TORSDO>
F 12

$$$$
=
 OpenBabel10222419343D

 39 41  0  0  1  0  0  0  0  0999 V2000
  186.2290  177.9690  144.2700 C   0  0  0  0  0  0  0  0  0  0  0  0
  187.1290  177.7230  145.3120 C   0  0  0  0  0  3  0  0  0  0  0  0
  188.8810  177.2760  143.7050 C   0  0  0  0  0  3  0  0  0  0  0  0
  187.9840  177.5130  142.6570 C   0  0  0  0  0  0  0  0  0  0  0  0
  186.6590  177.8510  142.9410 C   0  0  0  0  0  3  0  0  0  0  0  0
  188.4590  177.3600  145.0420 C   0  0  0  0  0  0  0  0  0  0  0  0
  184.6470  178.6690  146.0720 C   0  0  0  0  0  1  0  0  0  0  0  0
  184.8120  178.3190  144.5980 C   0  0  1  0  0  3  0  0  0  0  0  0
  184.3660  179.4250  143.7640 N   0  0  0  0  0  2  0  0  0  0  0  0
  182.9510  179.2160  143.5040 C   0  0  0  0  0  2  0  0  0  0  0  0
  182.7690  178.6850  142.1620 N   0  0  0  0  0  2  0  0  0  0  0  0
  180.4640  179.0780  142.1050 O   0  0  0  0  0  0  0  0  0  0  0  0
  181.4910  178.6410  141.5190 C   0  0  0  0  0  0  0  0  0  0  0  0
  182.5740  177.4750  139.7380 O   0  0  0  0  0  0  0  0  0  0  0  0
  181.3560  178.0510  140.1550 C   0  0  1  0  0  3  0  0  0  0  0  0
  180.2790  177.0030  140.1320 C   0  0  0  0  0  2  0  0  0  0  0  0
  180.9880  175.8620  139.4940 C   0  0  0  0  0  2  0  0  0  0  0  0
  182.3960  176.1180  139.7300 N   0  0  0  0  0  0  0  0  0  0  0  0
  183.1190  175.5970  138.5800 C   0  0  0  0  0  2  0  0  0  0  0  0
  183.5810  176.7430  137.7020 C   0  0  0  0  0  1  0  0  0  0  0  0
  190.7770  177.1720  145.9310 C   0  0  0  0  0  0  0  0  0  0  0  0
  189.4350  177.1330  146.1430 C   0  0  0  0  0  0  0  0  0  0  0  0
  191.7350  176.9190  146.9770 N   0  0  0  0  0  2  0  0  0  0  0  0
  193.1110  175.5310  148.2880 N   0  0  0  0  0  2  0  0  0  0  0  0
  192.3040  175.6470  147.2880 C   0  0  0  0  0  3  0  0  0  0  0  0
  188.9260  178.2650  148.2930 C   0  0  0  0  0  1  0  0  0  0  0  0
  188.8760  176.9540  147.5270 C   0  0  0  0  0  2  0  0  0  0  0  0
  191.7930  178.9070  144.3980 C   0  0  0  0  0  1  0  0  0  0  0  0
  191.2760  177.5720  144.6510 N   0  0  0  0  0  2  0  0  0  0  0  0
  188.4590  177.5020  141.2440 C   0  0  0  0  0  2  0  0  0  0  0  0
  192.9120  176.4740  137.9130 C   0  0  0  0  0  0  0  0  0  0  0  0
  189.9170  177.5010  141.2060 N   0  0  0  0  0  2  0  0  0  0  0  0
  192.0380  177.3230  140.1060 C   0  0  0  0  0  3  0  0  0  0  0  0
  193.9660  176.3590  137.2350 O   0  0  0  0  0  0  0  0  0  0  0  0
  191.7370  176.0110  137.3420 C   0  0  0  0  0  3  0  0  0  0  0  0
  190.0190  176.4730  139.0410 N   0  0  0  0  0  0  0  0  0  0  0  0
  190.6730  177.0760  140.0670 C   0  0  0  0  0  0  0  0  0  0  0  0
  190.4450  176.0040  137.8460 C   0  0  0  0  0  3  0  0  0  0  0  0
  193.0220  177.0580  139.1660 C   0  0  0  0  0  3  0  0  0  0  0  0
  1  8  1  0  0  0  0
  1  2  1  0  0  0  0
  3  6  1  0  0  0  0
  4  5  1  0  0  0  0
  4  3  2  0  0  0  0
  5  1  2  0  0  0  0
  6  2  2  0  0  0  0
  6 22  1  0  0  0  0
  8  7  1  1  0  0  0
  9  8  1  0  0  0  0
 10  9  1  0  0  0  0
 11 10  1  0  0  0  0
 13 12  2  0  0  0  0
 13 11  1  0  0  0  0
 14 15  1  0  0  0  0
 15 13  1  1  0  0  0
 16 15  1  0  0  0  0
 17 18  1  0  0  0  0
 17 16  1  0  0  0  0
 18 14  1  0  0  0  0
 19 18  1  0  0  0  0
 20 19  1  0  0  0  0
 21 22  2  0  0  0  0
 21 23  1  0  0  0  0
 22 27  1  0  0  0  0
 23 25  1  0  0  0  0
 25 24  2  0  0  0  0
 27 26  1  0  0  0  0
 28 29  1  0  0  0  0
 29 21  1  0  0  0  0
 30  4  1  0  0  0  0
 31 39  1  0  0  0  0
 32 30  1  0  0  0  0
 34 31  2  0  0  0  0
 35 38  2  0  0  0  0
 35 31  1  0  0  0  0
 36 37  2  0  0  0  0
 37 33  1  0  0  0  0
 37 32  1  0  0  0  0
 38 36  1  0  0  0  0
 39 33  2  0  0  0  0
M  END
>  <MODEL>
2

>  <REMARK>
 VINA RESULT:      -9.2      1.351      1.750
  Name = 
  12 active torsions:
  status: ('A' for Active; 'I' for Inactive)
    1  A    between atoms: N_2  and  C_27
    2  A    between atoms: N_3  and  C_9
    3  A    between atoms: N_6  and  C_9
    4  A    between atoms: N_6  and  C_11
    5  A    between atoms: C_7  and  C_11
    6  A    between atoms: C_10  and  N_17
    7  A    between atoms: C_10  and  N_34
    8  A    between atoms: C_15  and  N_36
    9  A    between atoms: C_19  and  C_30
   10  A    between atoms: C_21  and  C_32
   11  A    between atoms: C_27  and  C_29
   12  A    between atoms: C_30  and  C_39
                            x       y       z     vdW  Elec       q    Type
                         _______ _______ _______ _____ _____    ______ ____

>  <TORSDO>
F 12

$$$$
=
 OpenBabel10222419343D

 39 41  0  0  1  0  0  0  0  0999 V2000
  186.0300  178.0460  144.2350 C   0  0  0  0  0  0  0  0  0  0  0  0
  187.0140  177.7610  145.1870 C   0  0  0  0  0  3  0  0  0  0  0  0
  188.6640  177.5470  143.4300 C   0  0  0  0  0  3  0  0  0  0  0  0
  187.6830  177.8250  142.4720 C   0  0  0  0  0  0  0  0  0  0  0  0
  186.3680  178.0660  142.8740 C   0  0  0  0  0  3  0  0  0  0  0  0
  188.3370  177.4940  144.7950 C   0  0  0  0  0  0  0  0  0  0  0  0
  184.5790  178.7630  146.1370 C   0  0  0  0  0  1  0  0  0  0  0  0
  184.6260  178.2900  144.6890 C   0  0  1  0  0  3  0  0  0  0  0  0
  183.9830  179.2630  143.8190 N   0  0  0  0  0  2  0  0  0  0  0  0
  182.5520  179.0170  143.8930 C   0  0  0  0  0  2  0  0  0  0  0  0
  181.9970  178.9210  142.5510 N   0  0  0  0  0  2  0  0  0  0  0  0
  180.2980  180.4830  142.9290 O   0  0  0  0  0  0  0  0  0  0  0  0
  180.8600  179.6830  142.1330 C   0  0  0  0  0  0  0  0  0  0  0  0
  180.0080  180.7700  140.1850 O   0  0  0  0  0  0  0  0  0  0  0  0
  180.3100  179.5160  140.7560 C   0  0  1  0  0  3  0  0  0  0  0  0
  181.2870  178.7920  139.8750 C   0  0  0  0  0  2  0  0  0  0  0  0
  181.3440  179.6920  138.6930 C   0  0  0  0  0  2  0  0  0  0  0  0
  180.9190  180.9870  139.1870 N   0  0  0  0  0  0  0  0  0  0  0  0
  180.2150  181.6450  138.0980 C   0  0  0  0  0  2  0  0  0  0  0  0
  181.0140  182.8410  137.6180 C   0  0  0  0  0  1  0  0  0  0  0  0
  190.7200  177.3680  145.5070 C   0  0  0  0  0  0  0  0  0  0  0  0
  189.4000  177.2270  145.8020 C   0  0  0  0  0  0  0  0  0  0  0  0
  191.7620  177.0790  146.4580 N   0  0  0  0  0  2  0  0  0  0  0  0
  193.0220  175.6480  147.8390 N   0  0  0  0  0  2  0  0  0  0  0  0
  192.1050  175.7790  146.9400 C   0  0  0  0  0  3  0  0  0  0  0  0
  188.9760  178.1210  148.0780 C   0  0  0  0  0  1  0  0  0  0  0  0
  188.9530  176.8850  147.1960 C   0  0  0  0  0  2  0  0  0  0  0  0
  191.7350  179.2190  144.1160 C   0  0  0  0  0  1  0  0  0  0  0  0
  191.1030  177.9160  144.2420 N   0  0  0  0  0  2  0  0  0  0  0  0
  188.0540  177.9610  141.0330 C   0  0  0  0  0  2  0  0  0  0  0  0
  191.7200  176.2970  137.0620 C   0  0  0  0  0  0  0  0  0  0  0  0
  189.4200  177.4930  140.8230 N   0  0  0  0  0  2  0  0  0  0  0  0
  191.2960  176.8810  139.4650 C   0  0  0  0  0  3  0  0  0  0  0  0
  192.6370  175.9970  136.2550 O   0  0  0  0  0  0  0  0  0  0  0  0
  190.4320  176.3790  136.5570 C   0  0  0  0  0  3  0  0  0  0  0  0
  189.0600  176.9900  138.5060 N   0  0  0  0  0  0  0  0  0  0  0  0
  189.9290  177.1070  139.5430 C   0  0  0  0  0  0  0  0  0  0  0  0
  189.2420  176.6820  137.2010 C   0  0  0  0  0  3  0  0  0  0  0  0
  192.0840  176.5230  138.3820 C   0  0  0  0  0  3  0  0  0  0  0  0
  1  8  1  0  0  0  0
  1  2  1  0  0  0  0
  3  6  1  0  0  0  0
  4  5  1  0  0  0  0
  4  3  2  0  0  0  0
  5  1  2  0  0  0  0
  6  2  2  0  0  0  0
  6 22  1  0  0  0  0
  8  7  1  1  0  0  0
  9 10  1  0  0  0  0
  9  8  1  0  0  0  0
 11 10  1  0  0  0  0
 13 11  1  0  0  0  0
 13 12  2  0  0  0  0
 14 15  1  0  0  0  0
 15 13  1  1  0  0  0
 16 15  1  0  0  0  0
 17 18  1  0  0  0  0
 17 16  1  0  0  0  0
 18 14  1  0  0  0  0
 19 18  1  0  0  0  0
 20 19  1  0  0  0  0
 21 22  2  0  0  0  0
 21 23  1  0  0  0  0
 22 27  1  0  0  0  0
 23 25  1  0  0  0  0
 25 24  2  0  0  0  0
 27 26  1  0  0  0  0
 28 29  1  0  0  0  0
 29 21  1  0  0  0  0
 30  4  1  0  0  0  0
 31 39  1  0  0  0  0
 32 30  1  0  0  0  0
 33 37  1  0  0  0  0
 34 31  2  0  0  0  0
 35 31  1  0  0  0  0
 35 38  2  0  0  0  0
 36 37  2  0  0  0  0
 37 32  1  0  0  0  0
 38 36  1  0  0  0  0
 39 33  2  0  0  0  0
M  END
>  <MODEL>
3

>  <REMARK>
 VINA RESULT:      -9.0      1.855      2.722
  Name = 
  12 active torsions:
  status: ('A' for Active; 'I' for Inactive)
    1  A    between atoms: N_2  and  C_27
    2  A    between atoms: N_3  and  C_9
    3  A    between atoms: N_6  and  C_9
    4  A    between atoms: N_6  and  C_11
    5  A    between atoms: C_7  and  C_11
    6  A    between atoms: C_10  and  N_17
    7  A    between atoms: C_10  and  N_34
    8  A    between atoms: C_15  and  N_36
    9  A    between atoms: C_19  and  C_30
   10  A    between atoms: C_21  and  C_32
   11  A    between atoms: C_27  and  C_29
   12  A    between atoms: C_30  and  C_39
                            x       y       z     vdW  Elec       q    Type
                         _______ _______ _______ _____ _____    ______ ____

>  <TORSDO>
F 12

$$$$
=
 OpenBabel10222419343D

 39 41  0  0  1  0  0  0  0  0999 V2000
  186.3740  178.1220  144.5440 C   0  0  0  0  0  0  0  0  0  0  0  0
  187.5780  177.8900  145.2180 C   0  0  0  0  0  3  0  0  0  0  0  0
  188.7480  177.7660  143.1040 C   0  0  0  0  0  3  0  0  0  0  0  0
  187.5470  177.9910  142.4230 C   0  0  0  0  0  0  0  0  0  0  0  0
  186.3620  178.1600  143.1420 C   0  0  0  0  0  3  0  0  0  0  0  0
  188.7740  177.6950  144.5070 C   0  0  0  0  0  0  0  0  0  0  0  0
  185.4070  178.4560  146.8220 C   0  0  0  0  0  1  0  0  0  0  0  0
  185.1160  178.2900  145.3350 C   0  0  1  0  0  3  0  0  0  0  0  0
  184.3630  179.4310  144.8380 N   0  0  0  0  0  2  0  0  0  0  0  0
  183.0110  178.9650  144.5780 C   0  0  0  0  0  2  0  0  0  0  0  0
  182.7910  178.8630  143.1430 N   0  0  0  0  0  2  0  0  0  0  0  0
  180.4880  179.2510  143.2680 O   0  0  0  0  0  0  0  0  0  0  0  0
  181.4970  179.0120  142.5500 C   0  0  0  0  0  0  0  0  0  0  0  0
  182.5750  178.8600  140.4240 O   0  0  0  0  0  0  0  0  0  0  0  0
  181.3240  178.8600  141.0760 C   0  0  1  0  0  3  0  0  0  0  0  0
  180.5970  177.5850  140.7530 C   0  0  0  0  0  2  0  0  0  0  0  0
  181.4910  176.9840  139.7290 C   0  0  0  0  0  2  0  0  0  0  0  0
  182.7880  177.5890  139.9630 N   0  0  0  0  0  0  0  0  0  0  0  0
  183.4410  177.7060  138.6680 C   0  0  0  0  0  2  0  0  0  0  0  0
  184.5190  178.7700  138.7310 C   0  0  0  0  0  1  0  0  0  0  0  0
  190.1180  177.1820  146.5390 C   0  0  0  0  0  0  0  0  0  0  0  0
  190.0660  177.4840  145.2140 C   0  0  0  0  0  0  0  0  0  0  0  0
  191.3600  177.0100  147.2470 N   0  0  0  0  0  2  0  0  0  0  0  0
  193.1130  175.7270  148.1550 N   0  0  0  0  0  2  0  0  0  0  0  0
  192.0310  175.7660  147.4510 C   0  0  0  0  0  3  0  0  0  0  0  0
  191.7390  178.9610  144.1280 C   0  0  0  0  0  1  0  0  0  0  0  0
  191.3170  177.5240  144.3820 C   0  0  0  0  0  2  0  0  0  0  0  0
  188.5520  177.6300  148.4730 C   0  0  0  0  0  1  0  0  0  0  0  0
  188.9020  176.9260  147.2500 N   0  0  0  0  0  2  0  0  0  0  0  0
  187.5400  178.1460  140.9400 C   0  0  0  0  0  2  0  0  0  0  0  0
  189.9880  176.7250  136.0440 C   0  0  0  0  0  0  0  0  0  0  0  0
  188.6980  177.4730  140.3620 N   0  0  0  0  0  2  0  0  0  0  0  0
  190.1200  176.8200  138.5480 C   0  0  0  0  0  3  0  0  0  0  0  0
  190.6590  176.4370  135.0190 O   0  0  0  0  0  0  0  0  0  0  0  0
  188.6930  177.1790  135.8480 C   0  0  0  0  0  3  0  0  0  0  0  0
  187.8510  177.5940  138.1210 N   0  0  0  0  0  0  0  0  0  0  0  0
  188.8810  177.2930  138.9530 C   0  0  0  0  0  0  0  0  0  0  0  0
  187.7350  177.5610  136.7740 C   0  0  0  0  0  3  0  0  0  0  0  0
  190.6080  176.5670  137.2750 C   0  0  0  0  0  3  0  0  0  0  0  0
  1  2  1  0  0  0  0
  1  8  1  0  0  0  0
  3  6  1  0  0  0  0
  4  3  2  0  0  0  0
  4  5  1  0  0  0  0
  5  1  2  0  0  0  0
  6 22  1  0  0  0  0
  6  2  2  0  0  0  0
  8  7  1  1  0  0  0
  9  8  1  0  0  0  0
 10  9  1  0  0  0  0
 11 10  1  0  0  0  0
 13 11  1  0  0  0  0
 13 12  2  0  0  0  0
 14 15  1  0  0  0  0
 15 13  1  1  0  0  0
 16 15  1  0  0  0  0
 17 18  1  0  0  0  0
 17 16  1  0  0  0  0
 18 14  1  0  0  0  0
 19 20  1  0  0  0  0
 19 18  1  0  0  0  0
 21 23  1  0  0  0  0
 21 29  1  0  0  0  0
 22 21  2  0  0  0  0
 23 25  1  0  0  0  0
 25 24  2  0  0  0  0
 26 27  1  0  0  0  0
 27 22  1  0  0  0  0
 29 28  1  0  0  0  0
 30  4  1  0  0  0  0
 31 39  1  0  0  0  0
 32 30  1  0  0  0  0
 33 37  1  0  0  0  0
 34 31  2  0  0  0  0
 35 31  1  0  0  0  0
 35 38  2  0  0  0  0
 36 37  2  0  0  0  0
 37 32  1  0  0  0  0
 38 36  1  0  0  0  0
 39 33  2  0  0  0  0
M  END
>  <MODEL>
4

>  <REMARK>
 VINA RESULT:      -8.9      1.706      2.803
  Name = 
  12 active torsions:
  status: ('A' for Active; 'I' for Inactive)
    1  A    between atoms: N_2  and  C_27
    2  A    between atoms: N_3  and  C_9
    3  A    between atoms: N_6  and  C_9
    4  A    between atoms: N_6  and  C_11
    5  A    between atoms: C_7  and  C_11
    6  A    between atoms: C_10  and  N_17
    7  A    between atoms: C_10  and  N_34
    8  A    between atoms: C_15  and  N_36
    9  A    between atoms: C_19  and  C_30
   10  A    between atoms: C_21  and  C_32
   11  A    between atoms: C_27  and  C_29
   12  A    between atoms: C_30  and  C_39
                            x       y       z     vdW  Elec       q    Type
                         _______ _______ _______ _____ _____    ______ ____

>  <TORSDO>
F 12

$$$$
=
 OpenBabel10222419343D

 39 41  0  0  1  0  0  0  0  0999 V2000
  189.1110  177.6970  138.2450 C   0  0  0  0  0  0  0  0  0  0  0  0
  189.7920  176.9220  137.3020 C   0  0  0  0  0  3  0  0  0  0  0  0
  191.4630  176.3590  138.9590 C   0  0  0  0  0  3  0  0  0  0  0  0
  190.7910  177.1390  139.9060 C   0  0  0  0  0  0  0  0  0  0  0  0
  189.6220  177.8130  139.5460 C   0  0  0  0  0  3  0  0  0  0  0  0
  190.9820  176.2560  137.6430 C   0  0  0  0  0  0  0  0  0  0  0  0
  188.0330  179.0980  136.4800 C   0  0  0  0  0  1  0  0  0  0  0  0
  187.8670  178.4180  137.8340 C   0  0  1  0  0  3  0  0  0  0  0  0
  186.7440  177.4940  137.8000 N   0  0  0  0  0  2  0  0  0  0  0  0
  185.6080  178.1860  138.3860 C   0  0  0  0  0  2  0  0  0  0  0  0
  185.9200  178.5810  139.7520 N   0  0  0  0  0  2  0  0  0  0  0  0
  183.6870  178.8430  140.3970 O   0  0  0  0  0  0  0  0  0  0  0  0
  184.9070  178.9020  140.7110 C   0  0  0  0  0  0  0  0  0  0  0  0
  184.1450  179.4300  142.9120 O   0  0  0  0  0  0  0  0  0  0  0  0
  185.2860  179.3360  142.0870 C   0  0  1  0  0  3  0  0  0  0  0  0
  186.2640  178.3750  142.7000 C   0  0  0  0  0  2  0  0  0  0  0  0
  185.6250  178.0990  144.0140 C   0  0  0  0  0  2  0  0  0  0  0  0
  184.2220  178.4100  143.8210 N   0  0  0  0  0  0  0  0  0  0  0  0
  183.7250  178.9250  145.0870 C   0  0  0  0  0  2  0  0  0  0  0  0
  184.6450  178.4960  146.2130 C   0  0  0  0  0  1  0  0  0  0  0  0
  191.4470  174.0650  136.5550 C   0  0  0  0  0  0  0  0  0  0  0  0
  191.6950  175.3980  136.6570 C   0  0  0  0  0  0  0  0  0  0  0  0
  192.1520  173.2140  135.6330 N   0  0  0  0  0  2  0  0  0  0  0  0
  193.5950  171.4370  135.0810 N   0  0  0  0  0  2  0  0  0  0  0  0
  192.9620  172.0940  135.9940 C   0  0  0  0  0  3  0  0  0  0  0  0
  194.0110  176.2290  136.3370 C   0  0  0  0  0  1  0  0  0  0  0  0
  192.6370  176.0830  135.7080 C   0  0  0  0  0  2  0  0  0  0  0  0
  189.0900  173.1640  136.7280 C   0  0  0  0  0  1  0  0  0  0  0  0
  190.3810  173.4880  137.3160 N   0  0  0  0  0  2  0  0  0  0  0  0
  191.2620  177.1770  141.3200 C   0  0  0  0  0  2  0  0  0  0  0  0
  189.7670  177.2010  146.7740 C   0  0  0  0  0  0  0  0  0  0  0  0
  190.1240  177.3270  142.2220 N   0  0  0  0  0  2  0  0  0  0  0  0
  189.1090  177.5580  144.3790 C   0  0  0  0  0  3  0  0  0  0  0  0
  189.3410  177.3130  147.9530 O   0  0  0  0  0  0  0  0  0  0  0  0
  191.0600  176.7330  146.6070 C   0  0  0  0  0  3  0  0  0  0  0  0
  191.3840  176.7150  144.1690 N   0  0  0  0  0  0  0  0  0  0  0  0
  190.2250  177.1880  143.6420 C   0  0  0  0  0  0  0  0  0  0  0  0
  191.7830  176.5090  145.4450 C   0  0  0  0  0  3  0  0  0  0  0  0
  188.9030  177.5620  145.7500 C   0  0  0  0  0  3  0  0  0  0  0  0
  1  5  1  0  0  0  0
  2  6  1  0  0  0  0
  2  1  2  0  0  0  0
  3  4  1  0  0  0  0
  4 30  1  0  0  0  0
  5  4  2  0  0  0  0
  6  3  2  0  0  0  0
  8  7  1  6  0  0  0
  8  1  1  0  0  0  0
  9  8  1  0  0  0  0
  9 10  1  0  0  0  0
 10 11  1  0  0  0  0
 11 13  1  0  0  0  0
 12 13  2  0  0  0  0
 14 18  1  0  0  0  0
 15 13  1  6  0  0  0
 15 16  1  0  0  0  0
 15 14  1  0  0  0  0
 16 17  1  0  0  0  0
 18 17  1  0  0  0  0
 18 19  1  0  0  0  0
 19 20  1  0  0  0  0
 21 22  2  0  0  0  0
 21 29  1  0  0  0  0
 22  6  1  0  0  0  0
 23 25  1  0  0  0  0
 23 21  1  0  0  0  0
 24 25  2  0  0  0  0
 27 26  1  0  0  0  0
 27 22  1  0  0  0  0
 28 29  1  0  0  0  0
 30 32  1  0  0  0  0
 31 34  2  0  0  0  0
 32 37  1  0  0  0  0
 33 39  2  0  0  0  0
 35 31  1  0  0  0  0
 36 38  1  0  0  0  0
 37 36  2  0  0  0  0
 37 33  1  0  0  0  0
 38 35  2  0  0  0  0
 39 31  1  0  0  0  0
M  END
>  <MODEL>
5

>  <REMARK>
 VINA RESULT:      -8.7      2.731      7.920
  Name = 
  12 active torsions:
  status: ('A' for Active; 'I' for Inactive)
    1  A    between atoms: N_2  and  C_27
    2  A    between atoms: N_3  and  C_9
    3  A    between atoms: N_6  and  C_9
    4  A    between atoms: N_6  and  C_11
    5  A    between atoms: C_7  and  C_11
    6  A    between atoms: C_10  and  N_17
    7  A    between atoms: C_10  and  N_34
    8  A    between atoms: C_15  and  N_36
    9  A    between atoms: C_19  and  C_30
   10  A    between atoms: C_21  and  C_32
   11  A    between atoms: C_27  and  C_29
   12  A    between atoms: C_30  and  C_39
                            x       y       z     vdW  Elec       q    Type
                         _______ _______ _______ _____ _____    ______ ____

>  <TORSDO>
F 12

$$$$
=
 OpenBabel10222419343D

 39 41  0  0  1  0  0  0  0  0999 V2000
  188.2940  177.3320  142.3980 C   0  0  0  0  0  0  0  0  0  0  0  0
  189.1350  177.1470  143.5000 C   0  0  0  0  0  3  0  0  0  0  0  0
  187.3340  177.7730  144.9890 C   0  0  0  0  0  3  0  0  0  0  0  0
  186.4890  177.9660  143.8910 C   0  0  0  0  0  0  0  0  0  0  0  0
  186.9720  177.7540  142.5980 C   0  0  0  0  0  3  0  0  0  0  0  0
  188.6700  177.3780  144.8060 C   0  0  0  0  0  0  0  0  0  0  0  0
  188.7930  178.3820  140.1880 C   0  0  0  0  0  1  0  0  0  0  0  0
  188.8370  177.1080  141.0220 C   0  0  1  0  0  3  0  0  0  0  0  0
  190.1980  176.6020  141.1000 N   0  0  0  0  0  2  0  0  0  0  0  0
  191.0110  177.4380  140.2320 C   0  0  0  0  0  2  0  0  0  0  0  0
  191.4430  176.6720  139.0720 N   0  0  0  0  0  2  0  0  0  0  0  0
  193.6380  177.4780  139.1100 O   0  0  0  0  0  0  0  0  0  0  0  0
  192.7770  176.7420  138.5570 C   0  0  0  0  0  0  0  0  0  0  0  0
  194.5560  175.8350  137.2470 O   0  0  0  0  0  0  0  0  0  0  0  0
  193.1540  175.9640  137.3410 C   0  0  1  0  0  3  0  0  0  0  0  0
  192.5310  174.5980  137.3670 C   0  0  0  0  0  2  0  0  0  0  0  0
  193.7070  173.7290  137.0980 C   0  0  0  0  0  2  0  0  0  0  0  0
  194.8560  174.5220  137.4920 N   0  0  0  0  0  0  0  0  0  0  0  0
  195.9470  174.1580  136.6020 C   0  0  0  0  0  2  0  0  0  0  0  0
  196.7340  175.3960  136.2200 C   0  0  0  0  0  1  0  0  0  0  0  0
  190.9000  177.1770  145.8940 C   0  0  0  0  0  0  0  0  0  0  0  0
  189.5440  177.1490  145.9880 C   0  0  0  0  0  0  0  0  0  0  0  0
  191.7610  176.9220  147.0190 N   0  0  0  0  0  2  0  0  0  0  0  0
  193.1050  175.5490  148.3810 N   0  0  0  0  0  2  0  0  0  0  0  0
  192.4000  175.6770  147.3080 C   0  0  0  0  0  3  0  0  0  0  0  0
  188.9010  178.2790  148.1020 C   0  0  0  0  0  1  0  0  0  0  0  0
  188.8660  176.9780  147.3190 C   0  0  0  0  0  2  0  0  0  0  0  0
  191.8150  178.9560  144.3470 C   0  0  0  0  0  1  0  0  0  0  0  0
  191.5110  177.5690  144.6610 N   0  0  0  0  0  2  0  0  0  0  0  0
  185.0510  178.3050  144.0980 C   0  0  0  0  0  2  0  0  0  0  0  0
  180.0090  179.1660  141.6880 C   0  0  0  0  0  0  0  0  0  0  0  0
  184.3430  178.2770  142.8230 N   0  0  0  0  0  2  0  0  0  0  0  0
  182.4530  178.6740  141.4060 C   0  0  0  0  0  3  0  0  0  0  0  0
  178.9590  179.4130  141.0390 O   0  0  0  0  0  0  0  0  0  0  0  0
  179.9090  179.1390  143.0700 C   0  0  0  0  0  3  0  0  0  0  0  0
  182.1940  178.6300  143.8270 N   0  0  0  0  0  0  0  0  0  0  0  0
  182.9410  178.5350  142.6970 C   0  0  0  0  0  0  0  0  0  0  0  0
  180.8820  178.8950  144.0270 C   0  0  0  0  0  3  0  0  0  0  0  0
  181.1690  178.9460  140.9590 C   0  0  0  0  0  3  0  0  0  0  0  0
  1  5  2  0  0  0  0
  1  2  1  0  0  0  0
  2  6  2  0  0  0  0
  4 30  1  0  0  0  0
  4  3  2  0  0  0  0
  5  4  1  0  0  0  0
  6  3  1  0  0  0  0
  6 22  1  0  0  0  0
  8  7  1  6  0  0  0
  8  9  1  0  0  0  0
  8  1  1  0  0  0  0
 10  9  1  0  0  0  0
 11 10  1  0  0  0  0
 13 11  1  0  0  0  0
 13 12  2  0  0  0  0
 14 15  1  0  0  0  0
 14 18  1  0  0  0  0
 15 16  1  0  0  0  0
 15 13  1  1  0  0  0
 17 16  1  0  0  0  0
 17 18  1  0  0  0  0
 19 18  1  0  0  0  0
 20 19  1  0  0  0  0
 21 22  2  0  0  0  0
 21 23  1  0  0  0  0
 22 27  1  0  0  0  0
 23 25  1  0  0  0  0
 25 24  2  0  0  0  0
 27 26  1  0  0  0  0
 28 29  1  0  0  0  0
 29 21  1  0  0  0  0
 31 35  1  0  0  0  0
 32 30  1  0  0  0  0
 33 37  1  0  0  0  0
 34 31  2  0  0  0  0
 35 38  2  0  0  0  0
 36 38  1  0  0  0  0
 37 32  1  0  0  0  0
 37 36  2  0  0  0  0
 39 33  2  0  0  0  0
 39 31  1  0  0  0  0
M  END
>  <MODEL>
6

>  <REMARK>
 VINA RESULT:      -8.6      2.075      7.942
  Name = 
  12 active torsions:
  status: ('A' for Active; 'I' for Inactive)
    1  A    between atoms: N_2  and  C_27
    2  A    between atoms: N_3  and  C_9
    3  A    between atoms: N_6  and  C_9
    4  A    between atoms: N_6  and  C_11
    5  A    between atoms: C_7  and  C_11
    6  A    between atoms: C_10  and  N_17
    7  A    between atoms: C_10  and  N_34
    8  A    between atoms: C_15  and  N_36
    9  A    between atoms: C_19  and  C_30
   10  A    between atoms: C_21  and  C_32
   11  A    between atoms: C_27  and  C_29
   12  A    between atoms: C_30  and  C_39
                            x       y       z     vdW  Elec       q    Type
                         _______ _______ _______ _____ _____    ______ ____

>  <TORSDO>
F 12

$$$$
=
 OpenBabel10222419343D

 39 41  0  0  1  0  0  0  0  0999 V2000
  187.0420  177.5340  137.4530 C   0  0  0  0  0  0  0  0  0  0  0  0
  186.2620  176.7230  136.6220 C   0  0  0  0  0  3  0  0  0  0  0  0
  184.2730  177.3810  137.8320 C   0  0  0  0  0  3  0  0  0  0  0  0
  185.0470  178.1890  138.6710 C   0  0  0  0  0  0  0  0  0  0  0  0
  186.4300  178.2580  138.4870 C   0  0  0  0  0  3  0  0  0  0  0  0
  184.8730  176.6260  136.8100 C   0  0  0  0  0  0  0  0  0  0  0  0
  189.0620  179.0020  137.3870 C   0  0  0  0  0  1  0  0  0  0  0  0
  188.5220  177.5840  137.2430 C   0  0  1  0  0  3  0  0  0  0  0  0
  189.1890  176.6920  138.1790 N   0  0  0  0  0  2  0  0  0  0  0  0
  189.7370  177.5230  139.2380 C   0  0  0  0  0  2  0  0  0  0  0  0
  189.3930  176.9600  140.5350 N   0  0  0  0  0  2  0  0  0  0  0  0
  191.5550  177.1410  141.4090 O   0  0  0  0  0  0  0  0  0  0  0  0
  190.3560  176.7920  141.5810 C   0  0  0  0  0  0  0  0  0  0  0  0
  190.9450  176.3900  143.8600 O   0  0  0  0  0  0  0  0  0  0  0  0
  189.9550  176.1750  142.8790 C   0  0  1  0  0  3  0  0  0  0  0  0
  188.6490  176.7410  143.3590 C   0  0  0  0  0  2  0  0  0  0  0  0
  188.9850  177.1190  144.7570 C   0  0  0  0  0  2  0  0  0  0  0  0
  190.4270  177.2760  144.7660 N   0  0  0  0  0  0  0  0  0  0  0  0
  190.8890  176.8630  146.0820 C   0  0  0  0  0  2  0  0  0  0  0  0
  189.8080  177.1270  147.1120 C   0  0  0  0  0  1  0  0  0  0  0  0
  183.7320  174.5000  136.1940 C   0  0  0  0  0  0  0  0  0  0  0  0
  184.0290  175.7960  135.9080 C   0  0  0  0  0  0  0  0  0  0  0  0
  182.9480  173.6720  135.3160 N   0  0  0  0  0  2  0  0  0  0  0  0
  181.5240  171.8590  134.8360 N   0  0  0  0  0  2  0  0  0  0  0  0
  182.1390  172.5670  135.7230 C   0  0  0  0  0  3  0  0  0  0  0  0
  182.0770  177.0680  135.0530 C   0  0  0  0  0  1  0  0  0  0  0  0
  183.4330  176.4780  134.7080 C   0  0  0  0  0  2  0  0  0  0  0  0
  185.2570  173.0500  137.5970 C   0  0  0  0  0  1  0  0  0  0  0  0
  184.1250  173.9510  137.4570 N   0  0  0  0  0  2  0  0  0  0  0  0
  184.3940  179.0500  139.6990 C   0  0  0  0  0  2  0  0  0  0  0  0
  184.3410  178.7600  145.3470 C   0  0  0  0  0  0  0  0  0  0  0  0
  185.2400  179.1420  140.8850 N   0  0  0  0  0  2  0  0  0  0  0  0
  185.6780  178.9510  143.2320 C   0  0  0  0  0  3  0  0  0  0  0  0
  184.4570  178.6290  146.5930 O   0  0  0  0  0  0  0  0  0  0  0  0
  183.0550  178.8200  144.8320 C   0  0  0  0  0  3  0  0  0  0  0  0
  183.3890  179.0640  142.4070 N   0  0  0  0  0  0  0  0  0  0  0  0
  184.7340  179.0510  142.2200 C   0  0  0  0  0  0  0  0  0  0  0  0
  182.6280  178.9620  143.5210 C   0  0  0  0  0  3  0  0  0  0  0  0
  185.5100  178.8270  144.6030 C   0  0  0  0  0  3  0  0  0  0  0  0
  1  5  1  0  0  0  0
  2  6  1  0  0  0  0
  2  1  2  0  0  0  0
  3  4  1  0  0  0  0
  4 30  1  0  0  0  0
  5  4  2  0  0  0  0
  6  3  2  0  0  0  0
  8  7  1  1  0  0  0
  8  1  1  0  0  0  0
  8  9  1  0  0  0  0
  9 10  1  0  0  0  0
 10 11  1  0  0  0  0
 11 13  1  0  0  0  0
 12 13  2  0  0  0  0
 14 18  1  0  0  0  0
 15 13  1  6  0  0  0
 15 16  1  0  0  0  0
 15 14  1  0  0  0  0
 16 17  1  0  0  0  0
 17 18  1  0  0  0  0
 18 19  1  0  0  0  0
 19 20  1  0  0  0  0
 21 29  1  0  0  0  0
 22 21  2  0  0  0  0
 22  6  1  0  0  0  0
 23 25  1  0  0  0  0
 23 21  1  0  0  0  0
 24 25  2  0  0  0  0
 27 26  1  0  0  0  0
 27 22  1  0  0  0  0
 29 28  1  0  0  0  0
 30 32  1  0  0  0  0
 31 34  2  0  0  0  0
 32 37  1  0  0  0  0
 33 39  2  0  0  0  0
 35 31  1  0  0  0  0
 36 38  1  0  0  0  0
 37 36  2  0  0  0  0
 37 33  1  0  0  0  0
 38 35  2  0  0  0  0
 39 31  1  0  0  0  0
M  END
>  <MODEL>
7

>  <REMARK>
 VINA RESULT:      -8.4      3.095     10.019
  Name = 
  12 active torsions:
  status: ('A' for Active; 'I' for Inactive)
    1  A    between atoms: N_2  and  C_27
    2  A    between atoms: N_3  and  C_9
    3  A    between atoms: N_6  and  C_9
    4  A    between atoms: N_6  and  C_11
    5  A    between atoms: C_7  and  C_11
    6  A    between atoms: C_10  and  N_17
    7  A    between atoms: C_10  and  N_34
    8  A    between atoms: C_15  and  N_36
    9  A    between atoms: C_19  and  C_30
   10  A    between atoms: C_21  and  C_32
   11  A    between atoms: C_27  and  C_29
   12  A    between atoms: C_30  and  C_39
                            x       y       z     vdW  Elec       q    Type
                         _______ _______ _______ _____ _____    ______ ____

>  <TORSDO>
F 12

$$$$
=
 OpenBabel10222419343D

 39 41  0  0  1  0  0  0  0  0999 V2000
  186.2330  178.0200  144.2130 C   0  0  0  0  0  0  0  0  0  0  0  0
  187.1480  177.8120  145.2500 C   0  0  0  0  0  3  0  0  0  0  0  0
  188.9720  177.8480  143.6610 C   0  0  0  0  0  3  0  0  0  0  0  0
  188.0620  178.0490  142.6170 C   0  0  0  0  0  0  0  0  0  0  0  0
  186.6960  178.1260  142.8930 C   0  0  0  0  0  3  0  0  0  0  0  0
  188.5240  177.7090  144.9850 C   0  0  0  0  0  0  0  0  0  0  0  0
  184.5300  178.6330  145.9330 C   0  0  0  0  0  1  0  0  0  0  0  0
  184.7740  178.0880  144.5310 C   0  0  1  0  0  3  0  0  0  0  0  0
  184.0870  178.9080  143.5450 N   0  0  0  0  0  2  0  0  0  0  0  0
  182.6980  179.0000  143.9640 C   0  0  0  0  0  2  0  0  0  0  0  0
  181.8290  179.0040  142.7960 N   0  0  0  0  0  2  0  0  0  0  0  0
  179.9350  178.2710  143.9570 O   0  0  0  0  0  0  0  0  0  0  0  0
  180.4510  178.6220  142.8610 C   0  0  0  0  0  0  0  0  0  0  0  0
  180.0050  179.6450  140.7500 O   0  0  0  0  0  0  0  0  0  0  0  0
  179.6160  178.6100  141.6250 C   0  0  1  0  0  3  0  0  0  0  0  0
  179.7330  177.2910  140.9150 C   0  0  0  0  0  2  0  0  0  0  0  0
  180.0470  177.7260  139.5290 C   0  0  0  0  0  2  0  0  0  0  0  0
  180.6080  179.0550  139.6720 N   0  0  0  0  0  0  0  0  0  0  0  0
  180.2140  179.8100  138.4930 C   0  0  0  0  0  2  0  0  0  0  0  0
  180.7800  181.2150  138.5690 C   0  0  0  0  0  1  0  0  0  0  0  0
  190.7800  177.1040  145.8480 C   0  0  0  0  0  0  0  0  0  0  0  0
  189.5100  177.5260  146.0860 C   0  0  0  0  0  0  0  0  0  0  0  0
  191.7350  176.8870  146.9040 N   0  0  0  0  0  2  0  0  0  0  0  0
  192.8910  175.5560  148.4650 N   0  0  0  0  0  2  0  0  0  0  0  0
  192.0590  175.6210  147.4800 C   0  0  0  0  0  3  0  0  0  0  0  0
  188.3040  176.7850  148.1250 C   0  0  0  0  0  1  0  0  0  0  0  0
  189.0730  177.9190  147.4690 C   0  0  0  0  0  2  0  0  0  0  0  0
  191.6770  175.6840  143.9580 C   0  0  0  0  0  1  0  0  0  0  0  0
  191.2320  176.9590  144.4980 N   0  0  0  0  0  2  0  0  0  0  0  0
  188.5510  178.2770  141.2270 C   0  0  0  0  0  2  0  0  0  0  0  0
  187.1270  177.8160  135.7740 C   0  0  0  0  0  0  0  0  0  0  0  0
  187.4230  178.3280  140.3030 N   0  0  0  0  0  2  0  0  0  0  0  0
  186.3880  178.0630  138.1590 C   0  0  0  0  0  3  0  0  0  0  0  0
  186.6900  177.6460  134.6050 O   0  0  0  0  0  0  0  0  0  0  0  0
  188.5020  177.9000  135.9310 C   0  0  0  0  0  3  0  0  0  0  0  0
  188.8110  178.2160  138.3510 N   0  0  0  0  0  0  0  0  0  0  0  0
  187.5630  178.1990  138.8850 C   0  0  0  0  0  0  0  0  0  0  0  0
  189.2560  178.0850  137.0800 C   0  0  0  0  0  3  0  0  0  0  0  0
  186.1930  177.8980  136.7960 C   0  0  0  0  0  3  0  0  0  0  0  0
  1  8  1  0  0  0  0
  1  2  1  0  0  0  0
  3  6  1  0  0  0  0
  4  5  1  0  0  0  0
  4  3  2  0  0  0  0
  5  1  2  0  0  0  0
  6  2  2  0  0  0  0
  6 22  1  0  0  0  0
  8  7  1  1  0  0  0
  9 10  1  0  0  0  0
  9  8  1  0  0  0  0
 11 13  1  0  0  0  0
 11 10  1  0  0  0  0
 13 12  2  0  0  0  0
 14 15  1  0  0  0  0
 15 13  1  1  0  0  0
 16 15  1  0  0  0  0
 17 18  1  0  0  0  0
 17 16  1  0  0  0  0
 18 14  1  0  0  0  0
 19 20  1  0  0  0  0
 19 18  1  0  0  0  0
 21 22  2  0  0  0  0
 21 23  1  0  0  0  0
 22 27  1  0  0  0  0
 23 25  1  0  0  0  0
 25 24  2  0  0  0  0
 27 26  1  0  0  0  0
 28 29  1  0  0  0  0
 29 21  1  0  0  0  0
 30  4  1  0  0  0  0
 31 35  1  0  0  0  0
 31 39  1  0  0  0  0
 32 30  1  0  0  0  0
 33 37  1  0  0  0  0
 34 31  2  0  0  0  0
 35 38  2  0  0  0  0
 36 37  2  0  0  0  0
 37 32  1  0  0  0  0
 38 36  1  0  0  0  0
 39 33  2  0  0  0  0
M  END
>  <MODEL>
8

>  <REMARK>
 VINA RESULT:      -8.4      2.558      3.785
  Name = 
  12 active torsions:
  status: ('A' for Active; 'I' for Inactive)
    1  A    between atoms: N_2  and  C_27
    2  A    between atoms: N_3  and  C_9
    3  A    between atoms: N_6  and  C_9
    4  A    between atoms: N_6  and  C_11
    5  A    between atoms: C_7  and  C_11
    6  A    between atoms: C_10  and  N_17
    7  A    between atoms: C_10  and  N_34
    8  A    between atoms: C_15  and  N_36
    9  A    between atoms: C_19  and  C_30
   10  A    between atoms: C_21  and  C_32
   11  A    between atoms: C_27  and  C_29
   12  A    between atoms: C_30  and  C_39
                            x       y       z     vdW  Elec       q    Type
                         _______ _______ _______ _____ _____    ______ ____

>  <TORSDO>
F 12

$$$$
=
 OpenBabel10222419343D

 39 41  0  0  1  0  0  0  0  0999 V2000
  181.8230  178.9800  142.8030 C   0  0  0  0  0  0  0  0  0  0  0  0
  182.4120  178.7730  141.5510 C   0  0  0  0  0  3  0  0  0  0  0  0
  184.5730  178.5000  142.6040 C   0  0  0  0  0  3  0  0  0  0  0  0
  183.9920  178.7130  143.8590 C   0  0  0  0  0  0  0  0  0  0  0  0
  182.6210  178.9610  143.9560 C   0  0  0  0  0  3  0  0  0  0  0  0
  183.7940  178.5450  141.4360 C   0  0  0  0  0  0  0  0  0  0  0  0
  179.8490  179.2030  144.3170 C   0  0  0  0  0  1  0  0  0  0  0  0
  180.3550  179.2540  142.8800 C   0  0  1  0  0  3  0  0  0  0  0  0
  180.0570  180.5470  142.2860 N   0  0  0  0  0  2  0  0  0  0  0  0
  178.9400  180.3490  141.3760 C   0  0  0  0  0  2  0  0  0  0  0  0
  178.9720  181.3570  140.3270 N   0  0  0  0  0  2  0  0  0  0  0  0
  179.2460  179.8210  138.5850 O   0  0  0  0  0  0  0  0  0  0  0  0
  179.1330  181.0240  138.9450 C   0  0  0  0  0  0  0  0  0  0  0  0
  180.0420  183.1480  138.3400 O   0  0  0  0  0  0  0  0  0  0  0  0
  179.1960  182.1020  137.9150 C   0  0  1  0  0  3  0  0  0  0  0  0
  179.6960  181.5610  136.6060 C   0  0  0  0  0  2  0  0  0  0  0  0
  180.7780  182.5270  136.2790 C   0  0  0  0  0  2  0  0  0  0  0  0
  181.1600  183.1060  137.5520 N   0  0  0  0  0  0  0  0  0  0  0  0
  181.5530  184.4820  137.2900 C   0  0  0  0  0  2  0  0  0  0  0  0
  180.8170  185.0030  136.0720 C   0  0  0  0  0  1  0  0  0  0  0  0
  185.7140  178.6330  139.8530 C   0  0  0  0  0  0  0  0  0  0  0  0
  184.4250  178.2870  140.1130 C   0  0  0  0  0  0  0  0  0  0  0  0
  186.3290  178.4230  138.5690 N   0  0  0  0  0  2  0  0  0  0  0  0
  188.0620  177.6920  137.1520 N   0  0  0  0  0  2  0  0  0  0  0  0
  187.5810  177.7710  138.3470 C   0  0  0  0  0  3  0  0  0  0  0  0
  182.8200  178.5020  138.2330 C   0  0  0  0  0  1  0  0  0  0  0  0
  183.6080  177.5360  139.1000 C   0  0  0  0  0  2  0  0  0  0  0  0
  187.6810  178.4060  141.4270 C   0  0  0  0  0  1  0  0  0  0  0  0
  186.5340  179.1370  140.9120 N   0  0  0  0  0  2  0  0  0  0  0  0
  184.8090  178.5830  145.0990 C   0  0  0  0  0  2  0  0  0  0  0  0
  189.8440  177.2710  147.3150 C   0  0  0  0  0  0  0  0  0  0  0  0
  186.1840  178.2330  144.7570 N   0  0  0  0  0  2  0  0  0  0  0  0
  188.4070  177.5030  145.2720 C   0  0  0  0  0  3  0  0  0  0  0  0
  190.9790  176.8850  147.6990 O   0  0  0  0  0  0  0  0  0  0  0  0
  188.9770  177.7530  148.2830 C   0  0  0  0  0  3  0  0  0  0  0  0
  186.9470  178.3500  147.0280 N   0  0  0  0  0  0  0  0  0  0  0  0
  187.2090  178.0280  145.7350 C   0  0  0  0  0  0  0  0  0  0  0  0
  187.6860  178.2420  148.1560 C   0  0  0  0  0  3  0  0  0  0  0  0
  189.5640  177.1730  145.9600 C   0  0  0  0  0  3  0  0  0  0  0  0
  1  8  1  0  0  0  0
  1  5  1  0  0  0  0
  2  1  2  0  0  0  0
  3  4  1  0  0  0  0
  4  5  2  0  0  0  0
  4 30  1  0  0  0  0
  6  2  1  0  0  0  0
  6  3  2  0  0  0  0
  8  7  1  1  0  0  0
  9  8  1  0  0  0  0
 10  9  1  0  0  0  0
 11 10  1  0  0  0  0
 12 13  2  0  0  0  0
 13 11  1  0  0  0  0
 15 14  1  0  0  0  0
 15 13  1  1  0  0  0
 16 15  1  0  0  0  0
 17 16  1  0  0  0  0
 17 18  1  0  0  0  0
 18 14  1  0  0  0  0
 19 18  1  0  0  0  0
 20 19  1  0  0  0  0
 21 22  2  0  0  0  0
 21 29  1  0  0  0  0
 22  6  1  0  0  0  0
 23 21  1  0  0  0  0
 24 25  2  0  0  0  0
 25 23  1  0  0  0  0
 26 27  1  0  0  0  0
 27 22  1  0  0  0  0
 29 28  1  0  0  0  0
 31 34  2  0  0  0  0
 31 35  1  0  0  0  0
 32 30  1  0  0  0  0
 32 37  1  0  0  0  0
 33 37  1  0  0  0  0
 33 39  2  0  0  0  0
 36 38  1  0  0  0  0
 37 36  2  0  0  0  0
 38 35  2  0  0  0  0
 39 31  1  0  0  0  0
M  END
>  <MODEL>
9

>  <REMARK>
 VINA RESULT:      -8.3      3.755      7.526
  Name = 
  12 active torsions:
  status: ('A' for Active; 'I' for Inactive)
    1  A    between atoms: N_2  and  C_27
    2  A    between atoms: N_3  and  C_9
    3  A    between atoms: N_6  and  C_9
    4  A    between atoms: N_6  and  C_11
    5  A    between atoms: C_7  and  C_11
    6  A    between atoms: C_10  and  N_17
    7  A    between atoms: C_10  and  N_34
    8  A    between atoms: C_15  and  N_36
    9  A    between atoms: C_19  and  C_30
   10  A    between atoms: C_21  and  C_32
   11  A    between atoms: C_27  and  C_29
   12  A    between atoms: C_30  and  C_39
                            x       y       z     vdW  Elec       q    Type
                         _______ _______ _______ _____ _____    ______ ____

>  <TORSDO>
F 12

$$$$
