=
 OpenBabel10222415433D

 44 50  0  0  1  0  0  0  0  0999 V2000
  189.0710  177.5230  141.4350 C   0  0  0  0  0  0  0  0  0  0  0  0
  192.3560  176.0760  135.6630 C   0  0  0  0  0  0  0  0  0  0  0  0
  188.9440  177.4730  138.2220 C   0  0  0  0  0  0  0  0  0  0  0  0
  188.2460  178.2840  140.6080 C   0  0  0  0  0  3  0  0  0  0  0  0
  188.6470  177.1560  136.9610 N   0  0  0  0  0  0  0  0  0  0  0  0
  190.0750  176.6690  134.9940 C   0  0  0  0  0  3  0  0  0  0  0  0
  189.8060  176.9100  136.4060 C   0  0  0  0  0  0  0  0  0  0  0  0
  190.1410  176.9550  138.4780 C   0  0  0  0  0  0  0  0  0  0  0  0
  192.0700  176.2610  137.0730 C   0  0  0  0  0  3  0  0  0  0  0  0
  190.1930  176.4400  140.9930 C   0  0  0  0  0  2  0  0  0  0  0  0
  190.7750  176.7010  137.3670 C   0  0  0  0  0  0  0  0  0  0  0  0
  188.1440  178.1200  138.9740 C   0  0  0  0  0  3  0  0  0  0  0  0
  191.3490  176.2930  134.6520 C   0  0  0  0  0  3  0  0  0  0  0  0
  190.6180  176.3610  139.5150 C   0  0  0  0  0  3  0  0  0  0  0  0
  195.7690  175.5600  136.3850 O   0  0  0  0  0  0  0  0  0  0  0  0
  195.0170  177.6040  135.3910 N   0  0  0  0  0  1  0  0  0  0  0  0
  194.8960  176.1710  135.6580 C   0  0  0  0  0  0  0  0  0  0  0  0
  193.6340  175.5280  135.2340 N   0  0  0  0  0  2  0  0  0  0  0  0
  188.8720  177.4060  142.8430 C   0  0  0  0  0  0  0  0  0  0  0  0
  187.7930  176.9030  143.3050 O   0  0  0  0  0  0  0  0  0  0  0  0
  189.9430  178.0010  143.6880 N   0  0  0  0  0  2  0  0  0  0  0  0
  190.8560  176.6990  147.5890 C   0  0  0  0  0  3  0  0  0  0  0  0
  189.5810  177.1840  147.3440 C   0  0  0  0  0  3  0  0  0  0  0  0
  188.0810  178.3460  145.8900 F   0  0  0  0  0  0  0  0  0  0  0  0
  189.3150  177.8500  146.1570 C   0  0  0  0  0  0  0  0  0  0  0  0
  190.2370  177.7010  145.0870 C   0  0  0  0  0  0  0  0  0  0  0  0
  191.4810  177.1240  145.3210 C   0  0  0  0  0  3  0  0  0  0  0  0
  191.7240  176.4570  146.5030 C   0  0  0  0  0  3  0  0  0  0  0  0
  187.6150  176.2620  136.5780 C   0  0  0  0  0  2  0  0  0  0  0  0
  186.3450  176.8870  136.2180 C   0  0  0  0  0  2  0  0  0  0  0  0
  185.2810  176.8050  137.2750 N   0  0  0  0  0  2  0  0  0  0  0  0
  183.8770  177.2660  136.9840 C   0  0  0  0  0  2  0  0  0  0  0  0
  181.8310  177.4770  138.7180 C   0  0  0  0  0  3  0  0  0  0  0  0
  184.6590  179.0140  141.7190 C   0  0  0  0  0  2  0  0  0  0  0  0
  181.4700  177.8910  140.0460 C   0  0  0  0  0  3  0  0  0  0  0  0
  183.8400  178.3190  140.6040 C   0  0  0  0  0  0  0  0  0  0  0  0
  184.2820  178.0550  139.3680 C   0  0  0  0  0  3  0  0  0  0  0  0
  182.4290  178.8630  142.2780 C   0  0  0  0  0  2  0  0  0  0  0  0
  183.7480  178.7590  142.8230 N   0  0  2  0  0  0  0  0  0  0  0  0
  182.5130  178.2930  140.9320 C   0  0  0  0  0  0  0  0  0  0  0  0
  183.2960  177.5890  138.3720 C   0  0  0  0  0  0  0  0  0  0  0  0
  185.1870  178.9700  144.6850 C   0  0  0  0  0  2  0  0  0  0  0  0
  184.1540  179.6230  143.9360 C   0  0  0  0  0  3  0  0  0  0  0  0
  183.8510  178.7400  145.3050 C   0  0  0  0  0  2  0  0  0  0  0  0
  1 19  1  0  0  0  0
  2  9  1  0  0  0  0
  3  8  1  0  0  0  0
  3 12  2  0  0  0  0
  4  1  2  0  0  0  0
  5  3  1  0  0  0  0
  6  7  2  0  0  0  0
  7  5  1  0  0  0  0
  7 11  1  0  0  0  0
  8 14  2  0  0  0  0
  9 11  2  0  0  0  0
 10  1  1  0  0  0  0
 11  8  1  0  0  0  0
 12  4  1  0  0  0  0
 13  6  1  0  0  0  0
 13  2  2  0  0  0  0
 14 10  1  0  0  0  0
 16 17  1  0  0  0  0
 17 15  2  0  0  0  0
 18 17  1  0  0  0  0
 18  2  1  0  0  0  0
 19 20  2  0  0  0  0
 19 21  1  0  0  0  0
 21 26  1  0  0  0  0
 23 22  1  0  0  0  0
 24 25  1  0  0  0  0
 25 23  2  0  0  0  0
 26 27  2  0  0  0  0
 26 25  1  0  0  0  0
 27 28  1  0  0  0  0
 28 22  2  0  0  0  0
 29  5  1  0  0  0  0
 30 29  1  0  0  0  0
 30 31  1  0  0  0  0
 32 31  1  0  0  0  0
 32 41  1  0  0  0  0
 33 35  1  0  0  0  0
 34 39  1  0  0  0  0
 35 40  2  0  0  0  0
 36 40  1  0  0  0  0
 36 34  1  0  0  0  0
 37 36  2  0  0  0  0
 38 39  1  0  0  0  0
 39 43  1  1  0  0  0
 40 38  1  0  0  0  0
 41 33  2  0  0  0  0
 41 37  1  0  0  0  0
 42 44  1  0  0  0  0
 43 42  1  0  0  0  0
 43 44  1  0  0  0  0
M  END
>  <MODEL>
1

>  <REMARK>
 VINA RESULT:      -9.6      0.000      0.000
  Name = 
  9 active torsions:
  status: ('A' for Active; 'I' for Inactive)
    1  A    between atoms: C_1  and  C_7
    2  A    between atoms: C_2  and  N_44
    3  A    between atoms: C_10  and  N_35
    4  A    between atoms: N_11  and  C_43
    5  A    between atoms: N_19  and  C_24
    6  A    between atoms: N_19  and  C_26
    7  A    between atoms: C_24  and  C_37
    8  A    between atoms: C_25  and  N_42
    9  A    between atoms: C_26  and  C_43
                            x       y       z     vdW  Elec       q    Type
                         _______ _______ _______ _____ _____    ______ ____

>  <TORSDO>
F 9

$$$$
=
 OpenBabel10222415433D

 44 50  0  0  1  0  0  0  0  0999 V2000
  185.1970  178.4420  141.9490 C   0  0  0  0  0  0  0  0  0  0  0  0
  190.4890  177.2090  146.0330 C   0  0  0  0  0  0  0  0  0  0  0  0
  188.3920  178.1530  142.1790 C   0  0  0  0  0  0  0  0  0  0  0  0
  186.1600  178.9880  141.1020 C   0  0  0  0  0  3  0  0  0  0  0  0
  189.6430  177.7040  142.0770 N   0  0  0  0  0  0  0  0  0  0  0  0
  191.4180  177.3440  143.7700 C   0  0  0  0  0  3  0  0  0  0  0  0
  190.0640  177.6290  143.3140 C   0  0  0  0  0  0  0  0  0  0  0  0
  187.9810  177.8720  143.4120 C   0  0  0  0  0  0  0  0  0  0  0  0
  189.1330  177.4360  145.5700 C   0  0  0  0  0  3  0  0  0  0  0  0
  185.4370  177.5460  143.2790 C   0  0  0  0  0  2  0  0  0  0  0  0
  189.0020  177.6600  144.1950 C   0  0  0  0  0  0  0  0  0  0  0  0
  187.7760  178.6990  141.2050 C   0  0  0  0  0  3  0  0  0  0  0  0
  191.6060  177.1760  145.1180 C   0  0  0  0  0  3  0  0  0  0  0  0
  186.8570  177.4440  143.8680 C   0  0  0  0  0  3  0  0  0  0  0  0
  192.8590  176.8270  148.6160 O   0  0  0  0  0  0  0  0  0  0  0  0
  192.4290  175.0520  147.0690 N   0  0  0  0  0  1  0  0  0  0  0  0
  192.0350  176.2500  147.8080 C   0  0  0  0  0  0  0  0  0  0  0  0
  190.7470  176.8670  147.4240 N   0  0  0  0  0  2  0  0  0  0  0  0
  183.8090  178.3870  141.6220 C   0  0  0  0  0  0  0  0  0  0  0  0
  182.9410  178.9190  142.3930 O   0  0  0  0  0  0  0  0  0  0  0  0
  183.4720  177.5910  140.4100 N   0  0  0  0  0  2  0  0  0  0  0  0
  180.0830  177.4200  137.9140 C   0  0  0  0  0  3  0  0  0  0  0  0
  181.0080  178.4270  137.6920 C   0  0  0  0  0  3  0  0  0  0  0  0
  182.9120  179.6600  138.4510 F   0  0  0  0  0  0  0  0  0  0  0  0
  181.9970  178.6740  138.6330 C   0  0  0  0  0  0  0  0  0  0  0  0
  182.2570  177.6730  139.6070 C   0  0  0  0  0  0  0  0  0  0  0  0
  181.3710  176.6100  139.7590 C   0  0  0  0  0  3  0  0  0  0  0  0
  180.4010  176.3740  138.8080 C   0  0  0  0  0  3  0  0  0  0  0  0
  190.0440  176.6180  141.2580 C   0  0  0  0  0  2  0  0  0  0  0  0
  190.9650  176.9560  140.1760 C   0  0  0  0  0  2  0  0  0  0  0  0
  190.9310  176.0160  139.0040 N   0  0  0  0  0  2  0  0  0  0  0  0
  190.8800  176.5500  137.5960 C   0  0  0  0  0  2  0  0  0  0  0  0
  188.9880  178.4530  137.3990 C   0  0  0  0  0  3  0  0  0  0  0  0
  185.9500  175.2750  137.1960 C   0  0  0  0  0  2  0  0  0  0  0  0
  187.5720  178.6790  137.3020 C   0  0  0  0  0  3  0  0  0  0  0  0
  187.1510  176.2500  137.1250 C   0  0  0  0  0  0  0  0  0  0  0  0
  188.4350  175.9140  137.3100 C   0  0  0  0  0  3  0  0  0  0  0  0
  185.2550  177.4710  137.1620 C   0  0  0  0  0  2  0  0  0  0  0  0
  184.9370  176.1700  136.6600 N   0  0  2  0  0  0  0  0  0  0  0  0
  186.7180  177.5460  137.1650 C   0  0  0  0  0  0  0  0  0  0  0  0
  189.4200  177.0070  137.4240 C   0  0  0  0  0  0  0  0  0  0  0  0
  183.3470  174.5690  135.9610 C   0  0  0  0  0  2  0  0  0  0  0  0
  183.6280  175.5720  136.9450 C   0  0  0  0  0  3  0  0  0  0  0  0
  182.7130  175.8680  135.5960 C   0  0  0  0  0  2  0  0  0  0  0  0
  1 10  1  0  0  0  0
  2 18  1  0  0  0  0
  3  8  1  0  0  0  0
  4 12  1  0  0  0  0
  4  1  2  0  0  0  0
  5  3  1  0  0  0  0
  5  7  1  0  0  0  0
  6 13  1  0  0  0  0
  7  6  2  0  0  0  0
  7 11  1  0  0  0  0
  8 14  2  0  0  0  0
  8 11  1  0  0  0  0
  9  2  1  0  0  0  0
 10 14  1  0  0  0  0
 11  9  2  0  0  0  0
 12  3  2  0  0  0  0
 13  2  2  0  0  0  0
 16 17  1  0  0  0  0
 17 15  2  0  0  0  0
 18 17  1  0  0  0  0
 19  1  1  0  0  0  0
 19 20  2  0  0  0  0
 21 19  1  0  0  0  0
 22 28  1  0  0  0  0
 23 22  2  0  0  0  0
 23 25  1  0  0  0  0
 24 25  1  0  0  0  0
 25 26  2  0  0  0  0
 26 27  1  0  0  0  0
 26 21  1  0  0  0  0
 28 27  2  0  0  0  0
 29  5  1  0  0  0  0
 30 29  1  0  0  0  0
 31 30  1  0  0  0  0
 32 31  1  0  0  0  0
 33 41  1  0  0  0  0
 35 33  2  0  0  0  0
 36 40  2  0  0  0  0
 36 34  1  0  0  0  0
 36 37  1  0  0  0  0
 37 41  2  0  0  0  0
 38 40  1  0  0  0  0
 39 43  1  1  0  0  0
 39 38  1  0  0  0  0
 39 34  1  0  0  0  0
 40 35  1  0  0  0  0
 41 32  1  0  0  0  0
 42 43  1  0  0  0  0
 44 42  1  0  0  0  0
 44 43  1  0  0  0  0
M  END
>  <MODEL>
2

>  <REMARK>
 VINA RESULT:      -9.5      3.191      8.432
  Name = 
  9 active torsions:
  status: ('A' for Active; 'I' for Inactive)
    1  A    between atoms: C_1  and  C_7
    2  A    between atoms: C_2  and  N_44
    3  A    between atoms: C_10  and  N_35
    4  A    between atoms: N_11  and  C_43
    5  A    between atoms: N_19  and  C_24
    6  A    between atoms: N_19  and  C_26
    7  A    between atoms: C_24  and  C_37
    8  A    between atoms: C_25  and  N_42
    9  A    between atoms: C_26  and  C_43
                            x       y       z     vdW  Elec       q    Type
                         _______ _______ _______ _____ _____    ______ ____

>  <TORSDO>
F 9

$$$$
=
 OpenBabel10222415433D

 44 50  0  0  1  0  0  0  0  0999 V2000
  189.8500  177.9900  141.8420 C   0  0  0  0  0  0  0  0  0  0  0  0
  192.4110  175.8840  135.9080 C   0  0  0  0  0  0  0  0  0  0  0  0
  189.2380  177.2560  138.7710 C   0  0  0  0  0  0  0  0  0  0  0  0
  188.7820  178.4310  141.0610 C   0  0  0  0  0  3  0  0  0  0  0  0
  188.8130  176.6430  137.6650 N   0  0  0  0  0  0  0  0  0  0  0  0
  189.9840  175.9780  135.5840 C   0  0  0  0  0  3  0  0  0  0  0  0
  189.8970  176.4640  136.9550 C   0  0  0  0  0  0  0  0  0  0  0  0
  190.5350  176.9870  138.8860 C   0  0  0  0  0  0  0  0  0  0  0  0
  192.3170  176.3130  137.2910 C   0  0  0  0  0  3  0  0  0  0  0  0
  191.0690  177.0190  141.3970 C   0  0  0  0  0  2  0  0  0  0  0  0
  191.0250  176.6060  137.7390 C   0  0  0  0  0  0  0  0  0  0  0  0
  188.4590  177.9190  139.5320 C   0  0  0  0  0  3  0  0  0  0  0  0
  191.2360  175.7340  135.0810 C   0  0  0  0  0  3  0  0  0  0  0  0
  191.2680  176.6990  139.9040 C   0  0  0  0  0  3  0  0  0  0  0  0
  195.9000  175.6000  136.3300 O   0  0  0  0  0  0  0  0  0  0  0  0
  194.9220  177.6230  135.5050 N   0  0  0  0  0  1  0  0  0  0  0  0
  194.9280  176.1750  135.7060 C   0  0  0  0  0  0  0  0  0  0  0  0
  193.6860  175.4560  135.3510 N   0  0  0  0  0  2  0  0  0  0  0  0
  189.8960  178.1390  143.2600 C   0  0  0  0  0  0  0  0  0  0  0  0
  190.5830  179.0760  143.7910 O   0  0  0  0  0  0  0  0  0  0  0  0
  189.1920  177.0800  144.0340 N   0  0  0  0  0  2  0  0  0  0  0  0
  187.7090  177.7420  147.9210 C   0  0  0  0  0  3  0  0  0  0  0  0
  189.0610  177.4740  147.7740 C   0  0  0  0  0  3  0  0  0  0  0  0
  190.8580  176.7260  146.3860 F   0  0  0  0  0  0  0  0  0  0  0  0
  189.5420  177.0070  146.5600 C   0  0  0  0  0  0  0  0  0  0  0  0
  188.7190  177.1580  145.4130 C   0  0  0  0  0  0  0  0  0  0  0  0
  187.3840  177.5220  145.5620 C   0  0  0  0  0  3  0  0  0  0  0  0
  186.9260  177.9940  146.7740 C   0  0  0  0  0  3  0  0  0  0  0  0
  187.9160  175.5460  137.6480 C   0  0  0  0  0  2  0  0  0  0  0  0
  186.6570  175.7760  136.9450 C   0  0  0  0  0  2  0  0  0  0  0  0
  185.9570  177.0550  137.3080 N   0  0  0  0  0  2  0  0  0  0  0  0
  184.5950  177.3670  136.7470 C   0  0  0  0  0  2  0  0  0  0  0  0
  182.2350  177.3680  138.0390 C   0  0  0  0  0  3  0  0  0  0  0  0
  184.2730  179.0390  141.5630 C   0  0  0  0  0  2  0  0  0  0  0  0
  181.5840  177.7150  139.2730 C   0  0  0  0  0  3  0  0  0  0  0  0
  183.7520  178.3130  140.2990 C   0  0  0  0  0  0  0  0  0  0  0  0
  184.4510  178.1180  139.1730 C   0  0  0  0  0  3  0  0  0  0  0  0
  181.9970  178.6970  141.6630 C   0  0  0  0  0  2  0  0  0  0  0  0
  183.1850  178.6820  142.4600 N   0  0  2  0  0  0  0  0  0  0  0  0
  182.3930  178.1730  140.3540 C   0  0  0  0  0  0  0  0  0  0  0  0
  183.7240  177.6040  137.9950 C   0  0  0  0  0  0  0  0  0  0  0  0
  184.6460  179.5460  144.1030 C   0  0  0  0  0  2  0  0  0  0  0  0
  183.2890  179.5440  143.6410 C   0  0  0  0  0  3  0  0  0  0  0  0
  183.8260  178.5550  144.8560 C   0  0  0  0  0  2  0  0  0  0  0  0
  1 19  1  0  0  0  0
  2  9  1  0  0  0  0
  3  8  1  0  0  0  0
  3 12  2  0  0  0  0
  4  1  2  0  0  0  0
  5  3  1  0  0  0  0
  6  7  2  0  0  0  0
  7  5  1  0  0  0  0
  7 11  1  0  0  0  0
  8 14  2  0  0  0  0
  9 11  2  0  0  0  0
 10  1  1  0  0  0  0
 11  8  1  0  0  0  0
 12  4  1  0  0  0  0
 13  6  1  0  0  0  0
 13  2  2  0  0  0  0
 14 10  1  0  0  0  0
 16 17  1  0  0  0  0
 17 15  2  0  0  0  0
 18 17  1  0  0  0  0
 18  2  1  0  0  0  0
 19 20  2  0  0  0  0
 19 21  1  0  0  0  0
 21 26  1  0  0  0  0
 23 22  1  0  0  0  0
 24 25  1  0  0  0  0
 25 23  2  0  0  0  0
 26 27  2  0  0  0  0
 26 25  1  0  0  0  0
 27 28  1  0  0  0  0
 28 22  2  0  0  0  0
 29  5  1  0  0  0  0
 30 31  1  0  0  0  0
 30 29  1  0  0  0  0
 32 31  1  0  0  0  0
 32 41  1  0  0  0  0
 33 35  1  0  0  0  0
 34 39  1  0  0  0  0
 35 40  2  0  0  0  0
 36 40  1  0  0  0  0
 36 34  1  0  0  0  0
 37 36  2  0  0  0  0
 38 39  1  0  0  0  0
 39 43  1  1  0  0  0
 40 38  1  0  0  0  0
 41 33  2  0  0  0  0
 41 37  1  0  0  0  0
 42 44  1  0  0  0  0
 43 42  1  0  0  0  0
 43 44  1  0  0  0  0
M  END
>  <MODEL>
3

>  <REMARK>
 VINA RESULT:      -9.5      1.175      1.525
  Name = 
  9 active torsions:
  status: ('A' for Active; 'I' for Inactive)
    1  A    between atoms: C_1  and  C_7
    2  A    between atoms: C_2  and  N_44
    3  A    between atoms: C_10  and  N_35
    4  A    between atoms: N_11  and  C_43
    5  A    between atoms: N_19  and  C_24
    6  A    between atoms: N_19  and  C_26
    7  A    between atoms: C_24  and  C_37
    8  A    between atoms: C_25  and  N_42
    9  A    between atoms: C_26  and  C_43
                            x       y       z     vdW  Elec       q    Type
                         _______ _______ _______ _____ _____    ______ ____

>  <TORSDO>
F 9

$$$$
=
 OpenBabel10222415433D

 44 50  0  0  1  0  0  0  0  0999 V2000
  192.4080  175.2780  136.8510 C   0  0  0  0  0  0  0  0  0  0  0  0
  190.2930  177.9790  142.7190 C   0  0  0  0  0  0  0  0  0  0  0  0
  189.8990  176.3420  138.5600 C   0  0  0  0  0  0  0  0  0  0  0  0
  191.0660  174.9330  136.6910 C   0  0  0  0  0  3  0  0  0  0  0  0
  188.8770  177.0730  139.0070 N   0  0  0  0  0  0  0  0  0  0  0  0
  188.3240  177.9450  141.2610 C   0  0  0  0  0  3  0  0  0  0  0  0
  189.1750  177.3170  140.2580 C   0  0  0  0  0  0  0  0  0  0  0  0
  190.9280  176.5850  139.3650 C   0  0  0  0  0  0  0  0  0  0  0  0
  191.1510  177.4070  141.6990 C   0  0  0  0  0  3  0  0  0  0  0  0
  193.0510  176.2800  137.9520 C   0  0  0  0  0  2  0  0  0  0  0  0
  190.5130  177.0810  140.4970 C   0  0  0  0  0  0  0  0  0  0  0  0
  189.8160  175.6090  137.5190 C   0  0  0  0  0  3  0  0  0  0  0  0
  188.8920  178.2290  142.4770 C   0  0  0  0  0  3  0  0  0  0  0  0
  192.1820  176.7540  139.1320 C   0  0  0  0  0  3  0  0  0  0  0  0
  191.8590  177.1710  145.7740 O   0  0  0  0  0  0  0  0  0  0  0  0
  189.4760  177.0850  145.5520 N   0  0  0  0  0  1  0  0  0  0  0  0
  190.7950  177.5980  145.1820 C   0  0  0  0  0  0  0  0  0  0  0  0
  190.8530  178.4520  143.9770 N   0  0  0  0  0  2  0  0  0  0  0  0
  193.4130  174.9780  135.8840 C   0  0  0  0  0  0  0  0  0  0  0  0
  193.1460  175.0270  134.6360 O   0  0  0  0  0  0  0  0  0  0  0  0
  194.7130  174.5150  136.4410 N   0  0  0  0  0  2  0  0  0  0  0  0
  198.6420  174.3840  134.9260 C   0  0  0  0  0  3  0  0  0  0  0  0
  198.0230  175.6200  135.0320 C   0  0  0  0  0  3  0  0  0  0  0  0
  196.0230  176.8810  135.3820 F   0  0  0  0  0  0  0  0  0  0  0  0
  196.6610  175.6870  135.2830 C   0  0  0  0  0  0  0  0  0  0  0  0
  196.0140  174.5250  135.7790 C   0  0  0  0  0  0  0  0  0  0  0  0
  196.6790  173.3020  135.7580 C   0  0  0  0  0  3  0  0  0  0  0  0
  198.0350  173.2540  135.5170 C   0  0  0  0  0  3  0  0  0  0  0  0
  188.3130  178.1750  138.3160 C   0  0  0  0  0  2  0  0  0  0  0  0
  186.9710  177.9600  137.7810 C   0  0  0  0  0  2  0  0  0  0  0  0
  185.8830  178.7170  138.4880 N   0  0  0  0  0  2  0  0  0  0  0  0
  184.4420  178.3030  138.3380 C   0  0  0  0  0  2  0  0  0  0  0  0
  182.3980  178.3810  140.0850 C   0  0  0  0  0  3  0  0  0  0  0  0
  185.3070  179.0890  143.3110 C   0  0  0  0  0  2  0  0  0  0  0  0
  182.0560  178.5790  141.4670 C   0  0  0  0  0  3  0  0  0  0  0  0
  184.4460  178.6830  142.0890 C   0  0  0  0  0  0  0  0  0  0  0  0
  184.8800  178.6080  140.8250 C   0  0  0  0  0  3  0  0  0  0  0  0
  183.0650  179.0420  143.8370 C   0  0  0  0  0  2  0  0  0  0  0  0
  184.3610  178.7220  144.3520 N   0  0  2  0  0  0  0  0  0  0  0  0
  183.1170  178.7190  142.4090 C   0  0  0  0  0  0  0  0  0  0  0  0
  183.8720  178.4200  139.7630 C   0  0  0  0  0  0  0  0  0  0  0  0
  186.0530  178.7070  145.9990 C   0  0  0  0  0  2  0  0  0  0  0  0
  184.8250  179.3300  145.6020 C   0  0  0  0  0  3  0  0  0  0  0  0
  184.8900  178.0860  146.6940 C   0  0  0  0  0  2  0  0  0  0  0  0
  1 10  1  0  0  0  0
  2 18  1  0  0  0  0
  3  5  1  0  0  0  0
  3  8  1  0  0  0  0
  4  1  2  0  0  0  0
  4 12  1  0  0  0  0
  5  7  1  0  0  0  0
  6 13  2  0  0  0  0
  7 11  2  0  0  0  0
  7  6  1  0  0  0  0
  8 11  1  0  0  0  0
  9  2  2  0  0  0  0
 10 14  1  0  0  0  0
 11  9  1  0  0  0  0
 12  3  2  0  0  0  0
 13  2  1  0  0  0  0
 14  8  2  0  0  0  0
 17 16  1  0  0  0  0
 17 15  2  0  0  0  0
 18 17  1  0  0  0  0
 19 21  1  0  0  0  0
 19  1  1  0  0  0  0
 20 19  2  0  0  0  0
 22 23  2  0  0  0  0
 22 28  1  0  0  0  0
 23 25  1  0  0  0  0
 25 24  1  0  0  0  0
 25 26  2  0  0  0  0
 26 21  1  0  0  0  0
 27 26  1  0  0  0  0
 28 27  2  0  0  0  0
 29  5  1  0  0  0  0
 30 29  1  0  0  0  0
 30 31  1  0  0  0  0
 32 31  1  0  0  0  0
 32 41  1  0  0  0  0
 33 35  1  0  0  0  0
 34 39  1  0  0  0  0
 35 40  2  0  0  0  0
 36 40  1  0  0  0  0
 36 34  1  0  0  0  0
 37 36  2  0  0  0  0
 38 39  1  0  0  0  0
 39 43  1  1  0  0  0
 40 38  1  0  0  0  0
 41 33  2  0  0  0  0
 41 37  1  0  0  0  0
 42 44  1  0  0  0  0
 43 42  1  0  0  0  0
 43 44  1  0  0  0  0
M  END
>  <MODEL>
4

>  <REMARK>
 VINA RESULT:      -9.0      2.766      7.289
  Name = 
  9 active torsions:
  status: ('A' for Active; 'I' for Inactive)
    1  A    between atoms: C_1  and  C_7
    2  A    between atoms: C_2  and  N_44
    3  A    between atoms: C_10  and  N_35
    4  A    between atoms: N_11  and  C_43
    5  A    between atoms: N_19  and  C_24
    6  A    between atoms: N_19  and  C_26
    7  A    between atoms: C_24  and  C_37
    8  A    between atoms: C_25  and  N_42
    9  A    between atoms: C_26  and  C_43
                            x       y       z     vdW  Elec       q    Type
                         _______ _______ _______ _____ _____    ______ ____

>  <TORSDO>
F 9

$$$$
=
 OpenBabel10222415433D

 44 50  0  0  1  0  0  0  0  0999 V2000
  186.3170  178.2140  140.5770 C   0  0  0  0  0  0  0  0  0  0  0  0
  192.7480  176.8550  138.8450 C   0  0  0  0  0  0  0  0  0  0  0  0
  189.2900  177.5660  141.6170 C   0  0  0  0  0  0  0  0  0  0  0  0
  186.6850  177.6760  141.8090 C   0  0  0  0  0  2  0  0  0  0  0  0
  190.5080  177.6740  142.1500 N   0  0  0  0  0  0  0  0  0  0  0  0
  192.7550  177.0820  141.2850 C   0  0  0  0  0  3  0  0  0  0  0  0
  191.3170  177.3030  141.1910 C   0  0  0  0  0  0  0  0  0  0  0  0
  189.4430  177.6090  140.2970 C   0  0  0  0  0  0  0  0  0  0  0  0
  191.3270  177.1310  138.7490 C   0  0  0  0  0  3  0  0  0  0  0  0
  187.2860  178.6270  139.3440 C   0  0  0  0  0  3  0  0  0  0  0  0
  190.6720  177.3240  139.9700 C   0  0  0  0  0  0  0  0  0  0  0  0
  188.2340  177.4850  142.3270 C   0  0  0  0  0  3  0  0  0  0  0  0
  193.4290  176.8300  140.1180 C   0  0  0  0  0  3  0  0  0  0  0  0
  188.7610  178.1850  139.3700 C   0  0  0  0  0  3  0  0  0  0  0  0
  193.1190  175.4560  135.6290 O   0  0  0  0  0  0  0  0  0  0  0  0
  193.7890  174.2450  137.5820 N   0  0  0  0  0  1  0  0  0  0  0  0
  193.5290  175.4850  136.8520 C   0  0  0  0  0  0  0  0  0  0  0  0
  193.5600  176.7330  137.6430 N   0  0  0  0  0  2  0  0  0  0  0  0
  185.0120  178.7230  140.3040 C   0  0  0  0  0  0  0  0  0  0  0  0
  184.8620  179.7720  139.5910 O   0  0  0  0  0  0  0  0  0  0  0  0
  183.8970  178.0150  140.9900 N   0  0  0  0  0  2  0  0  0  0  0  0
  179.7300  177.9860  140.3730 C   0  0  0  0  0  3  0  0  0  0  0  0
  180.4760  176.9430  139.8470 C   0  0  0  0  0  3  0  0  0  0  0  0
  182.6180  176.0390  139.2890 F   0  0  0  0  0  0  0  0  0  0  0  0
  181.8590  177.0380  139.8070 C   0  0  0  0  0  0  0  0  0  0  0  0
  182.4850  178.0190  140.6200 C   0  0  0  0  0  0  0  0  0  0  0  0
  181.7160  179.0090  141.2250 C   0  0  0  0  0  3  0  0  0  0  0  0
  180.3430  178.8920  141.2650 C   0  0  0  0  0  3  0  0  0  0  0  0
  190.9630  178.7900  142.8970 C   0  0  0  0  0  2  0  0  0  0  0  0
  191.4800  178.4850  144.2280 C   0  0  0  0  0  2  0  0  0  0  0  0
  191.0690  177.1460  144.7710 N   0  0  0  0  0  2  0  0  0  0  0  0
  191.0810  176.8870  146.2550 C   0  0  0  0  0  2  0  0  0  0  0  0
  189.4400  177.8480  148.1570 C   0  0  0  0  0  3  0  0  0  0  0  0
  186.1890  177.9000  145.1910 C   0  0  0  0  0  2  0  0  0  0  0  0
  188.0880  178.2540  148.4310 C   0  0  0  0  0  3  0  0  0  0  0  0
  187.4720  177.9610  146.0550 C   0  0  0  0  0  0  0  0  0  0  0  0
  188.6680  177.4720  145.7030 C   0  0  0  0  0  3  0  0  0  0  0  0
  185.7220  178.5480  147.3520 C   0  0  0  0  0  2  0  0  0  0  0  0
  185.3700  178.7990  145.9880 N   0  0  2  0  0  0  0  0  0  0  0  0
  187.1640  178.2910  147.3460 C   0  0  0  0  0  0  0  0  0  0  0  0
  189.7210  177.4230  146.7370 C   0  0  0  0  0  0  0  0  0  0  0  0
  183.9690  178.2870  144.1560 C   0  0  0  0  0  2  0  0  0  0  0  0
  183.9810  178.6360  145.5460 C   0  0  0  0  0  3  0  0  0  0  0  0
  183.7740  179.7530  144.3410 C   0  0  0  0  0  2  0  0  0  0  0  0
  1  4  1  0  0  0  0
  2 13  1  0  0  0  0
  3  5  1  0  0  0  0
  3 12  2  0  0  0  0
  4 12  1  0  0  0  0
  5 29  1  0  0  0  0
  7  6  1  0  0  0  0
  7  5  1  0  0  0  0
  8  3  1  0  0  0  0
  9  2  2  0  0  0  0
  9 11  1  0  0  0  0
 10 14  1  0  0  0  0
 10  1  2  0  0  0  0
 11  8  1  0  0  0  0
 11  7  2  0  0  0  0
 13  6  2  0  0  0  0
 14  8  2  0  0  0  0
 15 17  2  0  0  0  0
 17 16  1  0  0  0  0
 17 18  1  0  0  0  0
 18  2  1  0  0  0  0
 19  1  1  0  0  0  0
 19 21  1  0  0  0  0
 20 19  2  0  0  0  0
 22 28  1  0  0  0  0
 23 22  2  0  0  0  0
 24 25  1  0  0  0  0
 25 23  1  0  0  0  0
 25 26  2  0  0  0  0
 26 21  1  0  0  0  0
 26 27  1  0  0  0  0
 27 28  2  0  0  0  0
 29 30  1  0  0  0  0
 30 31  1  0  0  0  0
 31 32  1  0  0  0  0
 32 41  1  0  0  0  0
 33 35  1  0  0  0  0
 34 39  1  0  0  0  0
 34 36  1  0  0  0  0
 36 40  1  0  0  0  0
 37 36  2  0  0  0  0
 37 41  1  0  0  0  0
 39 43  1  1  0  0  0
 39 38  1  0  0  0  0
 40 38  1  0  0  0  0
 40 35  2  0  0  0  0
 41 33  2  0  0  0  0
 42 44  1  0  0  0  0
 42 43  1  0  0  0  0
 44 43  1  0  0  0  0
M  END
>  <MODEL>
5

>  <REMARK>
 VINA RESULT:      -9.0      2.609      7.066
  Name = 
  9 active torsions:
  status: ('A' for Active; 'I' for Inactive)
    1  A    between atoms: C_1  and  C_7
    2  A    between atoms: C_2  and  N_44
    3  A    between atoms: C_10  and  N_35
    4  A    between atoms: N_11  and  C_43
    5  A    between atoms: N_19  and  C_24
    6  A    between atoms: N_19  and  C_26
    7  A    between atoms: C_24  and  C_37
    8  A    between atoms: C_25  and  N_42
    9  A    between atoms: C_26  and  C_43
                            x       y       z     vdW  Elec       q    Type
                         _______ _______ _______ _____ _____    ______ ____

>  <TORSDO>
F 9

$$$$
=
 OpenBabel10222415433D

 44 50  0  0  1  0  0  0  0  0999 V2000
  185.2760  178.4140  142.1030 C   0  0  0  0  0  0  0  0  0  0  0  0
  190.5970  177.1700  146.1450 C   0  0  0  0  0  0  0  0  0  0  0  0
  188.4700  178.1060  142.3050 C   0  0  0  0  0  0  0  0  0  0  0  0
  186.2350  178.9490  141.2440 C   0  0  0  0  0  3  0  0  0  0  0  0
  189.7180  177.6480  142.1940 N   0  0  0  0  0  0  0  0  0  0  0  0
  191.5070  177.2870  143.8730 C   0  0  0  0  0  3  0  0  0  0  0  0
  190.1490  177.5770  143.4270 C   0  0  0  0  0  0  0  0  0  0  0  0
  188.0690  177.8340  143.5430 C   0  0  0  0  0  0  0  0  0  0  0  0
  189.2380  177.4030  145.6930 C   0  0  0  0  0  3  0  0  0  0  0  0
  185.5220  177.5240  143.4350 C   0  0  0  0  0  2  0  0  0  0  0  0
  189.0960  177.6200  144.3180 C   0  0  0  0  0  0  0  0  0  0  0  0
  187.8490  178.6500  141.3340 C   0  0  0  0  0  3  0  0  0  0  0  0
  191.7050  177.1250  145.2200 C   0  0  0  0  0  3  0  0  0  0  0  0
  186.9460  177.4160  144.0120 C   0  0  0  0  0  3  0  0  0  0  0  0
  193.0010  176.6300  148.6680 O   0  0  0  0  0  0  0  0  0  0  0  0
  192.3700  174.8700  147.1730 N   0  0  0  0  0  1  0  0  0  0  0  0
  192.1060  176.1130  147.8970 C   0  0  0  0  0  0  0  0  0  0  0  0
  190.8660  176.8340  147.5350 N   0  0  0  0  0  2  0  0  0  0  0  0
  183.8840  178.3660  141.7890 C   0  0  0  0  0  0  0  0  0  0  0  0
  183.4590  177.6190  140.8450 O   0  0  0  0  0  0  0  0  0  0  0  0
  183.0270  179.3110  142.5570 N   0  0  0  0  0  2  0  0  0  0  0  0
  178.9310  178.6250  143.2620 C   0  0  0  0  0  3  0  0  0  0  0  0
  179.3240  178.9710  141.9790 C   0  0  0  0  0  3  0  0  0  0  0  0
  181.0210  179.8040  140.5150 F   0  0  0  0  0  0  0  0  0  0  0  0
  180.6080  179.4460  141.7580 C   0  0  0  0  0  0  0  0  0  0  0  0
  181.5840  179.2270  142.7640 C   0  0  0  0  0  0  0  0  0  0  0  0
  181.1910  178.7860  144.0250 C   0  0  0  0  0  3  0  0  0  0  0  0
  179.9140  178.3070  144.2240 C   0  0  0  0  0  3  0  0  0  0  0  0
  190.1050  176.5550  141.3770 C   0  0  0  0  0  2  0  0  0  0  0  0
  190.6210  176.9100  140.0580 C   0  0  0  0  0  2  0  0  0  0  0  0
  189.5810  176.9940  138.9770 N   0  0  0  0  0  2  0  0  0  0  0  0
  189.7980  177.8760  137.7750 C   0  0  0  0  0  2  0  0  0  0  0  0
  188.6060  177.5350  135.3880 C   0  0  0  0  0  3  0  0  0  0  0  0
  184.7410  177.2270  137.4690 C   0  0  0  0  0  2  0  0  0  0  0  0
  187.3370  177.3550  134.7360 C   0  0  0  0  0  3  0  0  0  0  0  0
  186.1880  177.2040  136.9190 C   0  0  0  0  0  0  0  0  0  0  0  0
  187.2920  177.4670  137.6300 C   0  0  0  0  0  3  0  0  0  0  0  0
  184.7680  177.1100  135.1690 C   0  0  0  0  0  2  0  0  0  0  0  0
  184.0830  176.6180  136.3250 N   0  0  2  0  0  0  0  0  0  0  0  0
  186.1790  177.1940  135.5520 C   0  0  0  0  0  0  0  0  0  0  0  0
  188.5630  177.6140  136.8940 C   0  0  0  0  0  0  0  0  0  0  0  0
  182.2380  176.4280  137.7880 C   0  0  0  0  0  2  0  0  0  0  0  0
  182.6420  176.8410  136.4760 C   0  0  0  0  0  3  0  0  0  0  0  0
  182.0010  175.3470  136.7900 C   0  0  0  0  0  2  0  0  0  0  0  0
  1 10  1  0  0  0  0
  2 18  1  0  0  0  0
  3  8  1  0  0  0  0
  4 12  1  0  0  0  0
  4  1  2  0  0  0  0
  5  3  1  0  0  0  0
  5  7  1  0  0  0  0
  6 13  1  0  0  0  0
  7  6  2  0  0  0  0
  7 11  1  0  0  0  0
  8 14  2  0  0  0  0
  8 11  1  0  0  0  0
  9  2  1  0  0  0  0
 10 14  1  0  0  0  0
 11  9  2  0  0  0  0
 12  3  2  0  0  0  0
 13  2  2  0  0  0  0
 16 17  1  0  0  0  0
 17 15  2  0  0  0  0
 18 17  1  0  0  0  0
 19  1  1  0  0  0  0
 19 21  1  0  0  0  0
 20 19  2  0  0  0  0
 21 26  1  0  0  0  0
 22 28  1  0  0  0  0
 23 22  2  0  0  0  0
 24 25  1  0  0  0  0
 25 23  1  0  0  0  0
 25 26  2  0  0  0  0
 26 27  1  0  0  0  0
 27 28  2  0  0  0  0
 29  5  1  0  0  0  0
 30 29  1  0  0  0  0
 31 30  1  0  0  0  0
 32 31  1  0  0  0  0
 33 41  1  0  0  0  0
 35 33  2  0  0  0  0
 35 40  1  0  0  0  0
 36 34  1  0  0  0  0
 36 37  1  0  0  0  0
 38 40  1  0  0  0  0
 38 39  1  0  0  0  0
 39 43  1  6  0  0  0
 39 34  1  0  0  0  0
 40 36  2  0  0  0  0
 41 37  2  0  0  0  0
 41 32  1  0  0  0  0
 43 44  1  0  0  0  0
 43 42  1  0  0  0  0
 44 42  1  0  0  0  0
M  END
>  <MODEL>
6

>  <REMARK>
 VINA RESULT:      -8.9      3.325      8.126
  Name = 
  9 active torsions:
  status: ('A' for Active; 'I' for Inactive)
    1  A    between atoms: C_1  and  C_7
    2  A    between atoms: C_2  and  N_44
    3  A    between atoms: C_10  and  N_35
    4  A    between atoms: N_11  and  C_43
    5  A    between atoms: N_19  and  C_24
    6  A    between atoms: N_19  and  C_26
    7  A    between atoms: C_24  and  C_37
    8  A    between atoms: C_25  and  N_42
    9  A    between atoms: C_26  and  C_43
                            x       y       z     vdW  Elec       q    Type
                         _______ _______ _______ _____ _____    ______ ____

>  <TORSDO>
F 9

$$$$
=
 OpenBabel10222415433D

 44 50  0  0  1  0  0  0  0  0999 V2000
  189.3440  177.8580  141.7960 C   0  0  0  0  0  0  0  0  0  0  0  0
  193.6130  176.0170  136.8370 C   0  0  0  0  0  0  0  0  0  0  0  0
  189.6570  177.0070  138.7100 C   0  0  0  0  0  0  0  0  0  0  0  0
  188.4740  178.1460  140.7450 C   0  0  0  0  0  3  0  0  0  0  0  0
  189.6150  176.3280  137.5630 N   0  0  0  0  0  0  0  0  0  0  0  0
  191.3640  175.7910  135.8910 C   0  0  0  0  0  3  0  0  0  0  0  0
  190.8610  176.2810  137.1680 C   0  0  0  0  0  0  0  0  0  0  0  0
  190.9000  176.9090  139.1700 C   0  0  0  0  0  0  0  0  0  0  0  0
  193.1070  176.4500  138.1270 C   0  0  0  0  0  3  0  0  0  0  0  0
  190.7460  177.0460  141.7300 C   0  0  0  0  0  2  0  0  0  0  0  0
  191.7170  176.5790  138.2090 C   0  0  0  0  0  0  0  0  0  0  0  0
  188.6300  177.5730  139.2110 C   0  0  0  0  0  3  0  0  0  0  0  0
  192.7250  175.7040  135.7430 C   0  0  0  0  0  3  0  0  0  0  0  0
  191.3680  176.7340  140.3560 C   0  0  0  0  0  3  0  0  0  0  0  0
  196.1100  173.7230  135.8680 O   0  0  0  0  0  0  0  0  0  0  0  0
  195.2340  173.7200  138.0960 N   0  0  0  0  0  1  0  0  0  0  0  0
  195.5570  174.3790  136.8310 C   0  0  0  0  0  0  0  0  0  0  0  0
  195.0320  175.7500  136.6510 N   0  0  0  0  0  2  0  0  0  0  0  0
  188.9970  178.0320  143.1690 C   0  0  0  0  0  0  0  0  0  0  0  0
  189.7890  178.6390  143.9650 O   0  0  0  0  0  0  0  0  0  0  0  0
  187.7320  177.3710  143.5940 N   0  0  0  0  0  2  0  0  0  0  0  0
  185.3760  178.7100  146.8190 C   0  0  0  0  0  3  0  0  0  0  0  0
  186.6500  178.2370  147.0920 C   0  0  0  0  0  3  0  0  0  0  0  0
  188.6030  177.0760  146.3480 F   0  0  0  0  0  0  0  0  0  0  0  0
  187.3580  177.5610  146.1100 C   0  0  0  0  0  0  0  0  0  0  0  0
  186.9200  177.6850  144.7650 C   0  0  0  0  0  0  0  0  0  0  0  0
  185.6780  178.2500  144.4920 C   0  0  0  0  0  3  0  0  0  0  0  0
  184.9930  178.9280  145.4780 C   0  0  0  0  0  3  0  0  0  0  0  0
  188.8940  175.1230  137.3660 C   0  0  0  0  0  2  0  0  0  0  0  0
  187.4750  175.2840  137.0630 C   0  0  0  0  0  2  0  0  0  0  0  0
  187.1800  176.1320  135.8580 N   0  0  0  0  0  2  0  0  0  0  0  0
  186.8110  177.5840  136.0170 C   0  0  0  0  0  2  0  0  0  0  0  0
  184.2200  176.8680  135.9280 C   0  0  0  0  0  3  0  0  0  0  0  0
  183.5800  179.0730  139.6820 C   0  0  0  0  0  2  0  0  0  0  0  0
  182.9530  177.0000  136.5940 C   0  0  0  0  0  3  0  0  0  0  0  0
  184.0130  178.2250  138.4610 C   0  0  0  0  0  0  0  0  0  0  0  0
  185.2220  178.2530  137.8870 C   0  0  0  0  0  3  0  0  0  0  0  0
  181.7730  178.0580  138.6770 C   0  0  0  0  0  2  0  0  0  0  0  0
  182.3190  178.4020  139.9540 N   0  0  2  0  0  0  0  0  0  0  0  0
  182.9200  177.6810  137.8470 C   0  0  0  0  0  0  0  0  0  0  0  0
  185.3880  177.5440  136.6020 C   0  0  0  0  0  0  0  0  0  0  0  0
  181.9920  179.0010  142.2150 C   0  0  0  0  0  2  0  0  0  0  0  0
  181.5570  179.2540  140.8730 C   0  0  0  0  0  3  0  0  0  0  0  0
  180.7740  178.2050  141.8890 C   0  0  0  0  0  2  0  0  0  0  0  0
  1 19  1  0  0  0  0
  2  9  1  0  0  0  0
  3  8  1  0  0  0  0
  3 12  2  0  0  0  0
  4  1  2  0  0  0  0
  5  3  1  0  0  0  0
  6  7  2  0  0  0  0
  7  5  1  0  0  0  0
  7 11  1  0  0  0  0
  8 14  2  0  0  0  0
  9 11  2  0  0  0  0
 10  1  1  0  0  0  0
 11  8  1  0  0  0  0
 12  4  1  0  0  0  0
 13  6  1  0  0  0  0
 13  2  2  0  0  0  0
 14 10  1  0  0  0  0
 15 17  2  0  0  0  0
 17 16  1  0  0  0  0
 18 17  1  0  0  0  0
 18  2  1  0  0  0  0
 19 21  1  0  0  0  0
 19 20  2  0  0  0  0
 21 26  1  0  0  0  0
 22 23  1  0  0  0  0
 25 24  1  0  0  0  0
 25 23  2  0  0  0  0
 26 25  1  0  0  0  0
 27 26  2  0  0  0  0
 27 28  1  0  0  0  0
 28 22  2  0  0  0  0
 29  5  1  0  0  0  0
 30 29  1  0  0  0  0
 31 32  1  0  0  0  0
 31 30  1  0  0  0  0
 32 41  1  0  0  0  0
 33 35  2  0  0  0  0
 33 41  1  0  0  0  0
 34 39  1  0  0  0  0
 35 40  1  0  0  0  0
 36 34  1  0  0  0  0
 37 36  1  0  0  0  0
 38 39  1  0  0  0  0
 39 43  1  6  0  0  0
 40 36  2  0  0  0  0
 40 38  1  0  0  0  0
 41 37  2  0  0  0  0
 43 44  1  0  0  0  0
 43 42  1  0  0  0  0
 44 42  1  0  0  0  0
M  END
>  <MODEL>
7

>  <REMARK>
 VINA RESULT:      -8.7      1.828      2.950
  Name = 
  9 active torsions:
  status: ('A' for Active; 'I' for Inactive)
    1  A    between atoms: C_1  and  C_7
    2  A    between atoms: C_2  and  N_44
    3  A    between atoms: C_10  and  N_35
    4  A    between atoms: N_11  and  C_43
    5  A    between atoms: N_19  and  C_24
    6  A    between atoms: N_19  and  C_26
    7  A    between atoms: C_24  and  C_37
    8  A    between atoms: C_25  and  N_42
    9  A    between atoms: C_26  and  C_43
                            x       y       z     vdW  Elec       q    Type
                         _______ _______ _______ _____ _____    ______ ____

>  <TORSDO>
F 9

$$$$
=
 OpenBabel10222415433D

 44 50  0  0  1  0  0  0  0  0999 V2000
  188.0260  177.4860  146.1700 C   0  0  0  0  0  0  0  0  0  0  0  0
  182.2480  178.9700  142.9120 C   0  0  0  0  0  0  0  0  0  0  0  0
  186.5100  177.6300  143.3370 C   0  0  0  0  0  0  0  0  0  0  0  0
  188.3330  176.7800  145.0080 C   0  0  0  0  0  3  0  0  0  0  0  0
  186.1230  177.9930  142.1140 N   0  0  0  0  0  0  0  0  0  0  0  0
  183.8880  178.4810  141.1580 C   0  0  0  0  0  3  0  0  0  0  0  0
  184.8380  178.2110  142.2300 C   0  0  0  0  0  0  0  0  0  0  0  0
  185.5980  178.0970  144.1840 C   0  0  0  0  0  0  0  0  0  0  0  0
  183.2110  178.7570  143.9760 C   0  0  0  0  0  3  0  0  0  0  0  0
  186.8150  178.5390  146.4010 C   0  0  0  0  0  2  0  0  0  0  0  0
  184.4840  178.3570  143.5560 C   0  0  0  0  0  0  0  0  0  0  0  0
  187.5930  176.9930  143.5540 C   0  0  0  0  0  3  0  0  0  0  0  0
  182.6090  178.8180  141.5220 C   0  0  0  0  0  3  0  0  0  0  0  0
  185.6990  178.6430  145.3440 C   0  0  0  0  0  3  0  0  0  0  0  0
  179.1540  178.4650  144.5280 O   0  0  0  0  0  0  0  0  0  0  0  0
  179.5640  177.5670  142.3470 N   0  0  0  0  0  1  0  0  0  0  0  0
  179.7910  178.5460  143.4090 C   0  0  0  0  0  0  0  0  0  0  0  0
  180.9180  179.4820  143.2100 N   0  0  0  0  0  2  0  0  0  0  0  0
  188.9080  177.5720  147.2890 C   0  0  0  0  0  0  0  0  0  0  0  0
  188.4700  177.9380  148.4310 O   0  0  0  0  0  0  0  0  0  0  0  0
  190.3430  177.3150  146.9880 N   0  0  0  0  0  2  0  0  0  0  0  0
  193.5650  176.6200  149.6120 C   0  0  0  0  0  3  0  0  0  0  0  0
  193.4180  175.7790  148.5200 C   0  0  0  0  0  3  0  0  0  0  0  0
  192.0660  174.9930  146.7110 F   0  0  0  0  0  0  0  0  0  0  0  0
  192.2460  175.8110  147.7800 C   0  0  0  0  0  0  0  0  0  0  0  0
  191.3900  176.9340  147.9310 C   0  0  0  0  0  0  0  0  0  0  0  0
  191.6020  177.8290  148.9750 C   0  0  0  0  0  3  0  0  0  0  0  0
  192.7790  177.7900  149.6940 C   0  0  0  0  0  3  0  0  0  0  0  0
  186.8030  178.9350  141.3010 C   0  0  0  0  0  2  0  0  0  0  0  0
  187.7900  178.3740  140.3820 C   0  0  0  0  0  2  0  0  0  0  0  0
  187.5130  178.6290  138.9280 N   0  0  0  0  0  2  0  0  0  0  0  0
  187.8250  177.5780  137.8950 C   0  0  0  0  0  2  0  0  0  0  0  0
  186.2510  175.6540  136.8660 C   0  0  0  0  0  3  0  0  0  0  0  0
  182.7620  178.2180  137.6580 C   0  0  0  0  0  2  0  0  0  0  0  0
  184.8930  175.3120  136.5410 C   0  0  0  0  0  3  0  0  0  0  0  0
  184.0710  177.3920  137.5930 C   0  0  0  0  0  0  0  0  0  0  0  0
  185.2980  177.8610  137.8560 C   0  0  0  0  0  3  0  0  0  0  0  0
  182.4260  176.1810  136.6350 C   0  0  0  0  0  2  0  0  0  0  0  0
  181.8240  177.1140  137.5380 N   0  0  2  0  0  0  0  0  0  0  0  0
  183.8600  176.2150  136.9310 C   0  0  0  0  0  0  0  0  0  0  0  0
  186.4470  176.9940  137.5310 C   0  0  0  0  0  0  0  0  0  0  0  0
  180.2050  178.7010  138.2000 C   0  0  0  0  0  2  0  0  0  0  0  0
  180.5090  177.6850  137.2350 C   0  0  0  0  0  3  0  0  0  0  0  0
  179.5890  177.3990  138.5830 C   0  0  0  0  0  2  0  0  0  0  0  0
  1 10  1  0  0  0  0
  1 19  1  0  0  0  0
  2 18  1  0  0  0  0
  2  9  1  0  0  0  0
  3 12  2  0  0  0  0
  3  8  1  0  0  0  0
  4  1  2  0  0  0  0
  5  7  1  0  0  0  0
  5  3  1  0  0  0  0
  6 13  1  0  0  0  0
  6  7  2  0  0  0  0
  7 11  1  0  0  0  0
  8 14  2  0  0  0  0
 11  9  2  0  0  0  0
 11  8  1  0  0  0  0
 12  4  1  0  0  0  0
 13  2  2  0  0  0  0
 14 10  1  0  0  0  0
 16 17  1  0  0  0  0
 17 15  2  0  0  0  0
 18 17  1  0  0  0  0
 19 20  2  0  0  0  0
 21 19  1  0  0  0  0
 21 26  1  0  0  0  0
 22 28  1  0  0  0  0
 23 22  2  0  0  0  0
 24 25  1  0  0  0  0
 25 26  2  0  0  0  0
 25 23  1  0  0  0  0
 26 27  1  0  0  0  0
 27 28  2  0  0  0  0
 29  5  1  0  0  0  0
 30 29  1  0  0  0  0
 31 30  1  0  0  0  0
 32 31  1  0  0  0  0
 33 41  1  0  0  0  0
 35 33  2  0  0  0  0
 35 40  1  0  0  0  0
 36 34  1  0  0  0  0
 36 37  1  0  0  0  0
 38 40  1  0  0  0  0
 38 39  1  0  0  0  0
 39 43  1  6  0  0  0
 39 34  1  0  0  0  0
 40 36  2  0  0  0  0
 41 37  2  0  0  0  0
 41 32  1  0  0  0  0
 42 44  1  0  0  0  0
 43 42  1  0  0  0  0
 43 44  1  0  0  0  0
M  END
>  <MODEL>
8

>  <REMARK>
 VINA RESULT:      -8.5      3.883      7.913
  Name = 
  9 active torsions:
  status: ('A' for Active; 'I' for Inactive)
    1  A    between atoms: C_1  and  C_7
    2  A    between atoms: C_2  and  N_44
    3  A    between atoms: C_10  and  N_35
    4  A    between atoms: N_11  and  C_43
    5  A    between atoms: N_19  and  C_24
    6  A    between atoms: N_19  and  C_26
    7  A    between atoms: C_24  and  C_37
    8  A    between atoms: C_25  and  N_42
    9  A    between atoms: C_26  and  C_43
                            x       y       z     vdW  Elec       q    Type
                         _______ _______ _______ _____ _____    ______ ____

>  <TORSDO>
F 9

$$$$
=
 OpenBabel10222415433D

 44 50  0  0  1  0  0  0  0  0999 V2000
  187.3200  177.2780  137.2960 C   0  0  0  0  0  0  0  0  0  0  0  0
  181.4550  174.1880  135.7930 C   0  0  0  0  0  0  0  0  0  0  0  0
  184.1570  177.1180  137.8560 C   0  0  0  0  0  0  0  0  0  0  0  0
  186.4960  178.2850  137.7970 C   0  0  0  0  0  2  0  0  0  0  0  0
  182.9710  176.9020  138.4270 N   0  0  0  0  0  0  0  0  0  0  0  0
  180.9430  175.7150  137.6390 C   0  0  0  0  0  3  0  0  0  0  0  0
  182.3400  176.1270  137.5830 C   0  0  0  0  0  0  0  0  0  0  0  0
  184.3540  176.1270  136.9920 C   0  0  0  0  0  0  0  0  0  0  0  0
  182.8580  174.5580  135.7780 C   0  0  0  0  0  3  0  0  0  0  0  0
  186.8940  175.7810  136.8420 C   0  0  0  0  0  3  0  0  0  0  0  0
  183.2230  175.5530  136.6900 C   0  0  0  0  0  0  0  0  0  0  0  0
  184.9070  178.0980  138.1780 C   0  0  0  0  0  3  0  0  0  0  0  0
  180.5260  174.7830  136.7230 C   0  0  0  0  0  3  0  0  0  0  0  0
  185.4000  175.4380  136.6960 C   0  0  0  0  0  3  0  0  0  0  0  0
  179.3990  171.3350  135.5230 O   0  0  0  0  0  0  0  0  0  0  0  0
  181.6080  171.1780  136.4310 N   0  0  0  0  0  1  0  0  0  0  0  0
  180.6000  171.8040  135.5770 C   0  0  0  0  0  0  0  0  0  0  0  0
  180.9700  173.0960  134.9610 N   0  0  0  0  0  2  0  0  0  0  0  0
  188.7450  177.3400  137.3380 C   0  0  0  0  0  0  0  0  0  0  0  0
  189.3850  178.0890  136.5250 O   0  0  0  0  0  0  0  0  0  0  0  0
  189.3940  176.4070  138.2990 N   0  0  0  0  0  2  0  0  0  0  0  0
  193.1860  177.1440  139.9790 C   0  0  0  0  0  3  0  0  0  0  0  0
  193.1260  176.7350  138.6570 C   0  0  0  0  0  3  0  0  0  0  0  0
  191.8450  175.8250  136.8540 F   0  0  0  0  0  0  0  0  0  0  0  0
  191.9350  176.2440  138.1420 C   0  0  0  0  0  0  0  0  0  0  0  0
  190.7390  176.5070  138.8590 C   0  0  0  0  0  0  0  0  0  0  0  0
  190.8050  177.0100  140.1550 C   0  0  0  0  0  3  0  0  0  0  0  0
  191.9950  177.5040  140.6460 C   0  0  0  0  0  3  0  0  0  0  0  0
  182.7860  176.5560  139.7890 C   0  0  0  0  0  2  0  0  0  0  0  0
  182.5840  177.6790  140.7000 C   0  0  0  0  0  2  0  0  0  0  0  0
  183.6740  177.8690  141.7160 N   0  0  0  0  0  2  0  0  0  0  0  0
  184.6080  179.0480  141.6240 C   0  0  0  0  0  2  0  0  0  0  0  0
  187.1560  178.1880  141.6440 C   0  0  0  0  0  3  0  0  0  0  0  0
  186.8750  177.7530  146.0140 C   0  0  0  0  0  2  0  0  0  0  0  0
  188.2130  177.7000  142.4880 C   0  0  0  0  0  3  0  0  0  0  0  0
  186.8490  178.1100  144.5080 C   0  0  0  0  0  0  0  0  0  0  0  0
  185.7630  178.4860  143.8190 C   0  0  0  0  0  3  0  0  0  0  0  0
  188.8370  177.1500  144.9690 C   0  0  0  0  0  2  0  0  0  0  0  0
  188.3190  177.7050  146.1820 N   0  0  2  0  0  0  0  0  0  0  0  0
  187.9980  177.6910  143.8970 C   0  0  0  0  0  0  0  0  0  0  0  0
  185.8800  178.5730  142.3500 C   0  0  0  0  0  0  0  0  0  0  0  0
  187.7470  177.6220  148.4720 C   0  0  0  0  0  2  0  0  0  0  0  0
  188.5910  177.0490  147.4650 C   0  0  0  0  0  3  0  0  0  0  0  0
  189.0930  178.2620  148.4750 C   0  0  0  0  0  2  0  0  0  0  0  0
  1 19  1  0  0  0  0
  1  4  1  0  0  0  0
  2 13  1  0  0  0  0
  3 12  2  0  0  0  0
  3  5  1  0  0  0  0
  4 12  1  0  0  0  0
  5 29  1  0  0  0  0
  7  6  1  0  0  0  0
  7  5  1  0  0  0  0
  8  3  1  0  0  0  0
  9  2  2  0  0  0  0
  9 11  1  0  0  0  0
 10  1  2  0  0  0  0
 11  8  1  0  0  0  0
 11  7  2  0  0  0  0
 13  6  2  0  0  0  0
 14 10  1  0  0  0  0
 14  8  2  0  0  0  0
 15 17  2  0  0  0  0
 17 16  1  0  0  0  0
 18 17  1  0  0  0  0
 18  2  1  0  0  0  0
 19 21  1  0  0  0  0
 20 19  2  0  0  0  0
 21 26  1  0  0  0  0
 22 28  1  0  0  0  0
 23 22  2  0  0  0  0
 24 25  1  0  0  0  0
 25 23  1  0  0  0  0
 25 26  2  0  0  0  0
 26 27  1  0  0  0  0
 27 28  2  0  0  0  0
 29 30  1  0  0  0  0
 30 31  1  0  0  0  0
 32 31  1  0  0  0  0
 32 41  1  0  0  0  0
 33 41  2  0  0  0  0
 33 35  1  0  0  0  0
 34 39  1  0  0  0  0
 35 40  2  0  0  0  0
 36 34  1  0  0  0  0
 37 36  2  0  0  0  0
 38 39  1  0  0  0  0
 39 43  1  1  0  0  0
 40 36  1  0  0  0  0
 40 38  1  0  0  0  0
 41 37  1  0  0  0  0
 42 44  1  0  0  0  0
 43 42  1  0  0  0  0
 43 44  1  0  0  0  0
M  END
>  <MODEL>
9

>  <REMARK>
 VINA RESULT:      -8.5      3.613      7.848
  Name = 
  9 active torsions:
  status: ('A' for Active; 'I' for Inactive)
    1  A    between atoms: C_1  and  C_7
    2  A    between atoms: C_2  and  N_44
    3  A    between atoms: C_10  and  N_35
    4  A    between atoms: N_11  and  C_43
    5  A    between atoms: N_19  and  C_24
    6  A    between atoms: N_19  and  C_26
    7  A    between atoms: C_24  and  C_37
    8  A    between atoms: C_25  and  N_42
    9  A    between atoms: C_26  and  C_43
                            x       y       z     vdW  Elec       q    Type
                         _______ _______ _______ _____ _____    ______ ____

>  <TORSDO>
F 9

$$$$
