=
 OpenBabel10222416533D

 28 30  0  0  1  0  0  0  0  0999 V2000
  183.0710  178.9920  139.1090 C   0  0  0  0  0  0  0  0  0  0  0  0
  181.0150  179.7790  137.3640 C   0  0  0  0  0  3  0  0  0  0  0  0
  181.6430  180.7240  138.1750 C   0  0  0  0  0  0  0  0  0  0  0  0
  181.4090  178.4410  137.4170 C   0  0  0  0  0  3  0  0  0  0  0  0
  182.6630  180.3300  139.0430 C   0  0  0  0  0  3  0  0  0  0  0  0
  182.4300  178.0300  138.2880 C   0  0  0  0  0  0  0  0  0  0  0  0
  182.7980  176.6470  138.3190 N   0  0  0  0  0  0  0  0  0  0  0  0
  181.2800  174.7620  138.0980 C   0  0  0  0  0  2  0  0  0  0  0  0
  182.2600  174.1230  137.2190 N   0  0  0  0  0  2  0  0  0  0  0  0
  182.9050  175.1520  136.4030 C   0  0  0  0  0  2  0  0  0  0  0  0
  181.9890  175.6970  139.0750 C   0  0  0  0  0  2  0  0  0  0  0  0
  183.6910  176.1100  137.2960 C   0  0  0  0  0  2  0  0  0  0  0  0
  184.2160  178.6760  140.0310 C   0  0  1  0  0  3  0  0  0  0  0  0
  185.3500  179.4350  139.7270 O   0  0  0  0  0  1  0  0  0  0  0  0
  181.8320  178.7600  142.9900 C   0  0  0  0  0  3  0  0  0  0  0  0
  183.8450  178.7320  141.4890 C   0  0  0  0  0  0  0  0  0  0  0  0
  184.8670  178.8200  142.4330 C   0  0  0  0  0  3  0  0  0  0  0  0
  183.7000  178.9200  144.6600 C   0  0  0  0  0  0  0  0  0  0  0  0
  182.4850  178.7060  141.7680 C   0  0  0  0  0  3  0  0  0  0  0  0
  182.3700  178.8540  144.2640 C   0  0  0  0  0  3  0  0  0  0  0  0
  184.8030  178.9020  143.8160 C   0  0  0  0  0  3  0  0  0  0  0  0
  183.9240  179.0030  145.8940 O   0  0  0  0  0  0  0  0  0  0  0  0
  181.2050  182.1450  138.1400 C   0  0  0  0  0  2  0  0  0  0  0  0
  180.8680  182.5020  136.8330 O   0  0  0  0  0  0  0  0  0  0  0  0
  180.9410  184.1960  136.7970 P   0  0  1  0  0  0  0  0  0  0  0  0
  182.2350  184.6480  137.4330 O   0  0  0  0  0  0  0  0  0  0  0  0
  180.8890  184.7610  135.1390 N   0  0  0  0  0  1  0  0  0  0  0  0
  179.6400  184.8490  137.6590 O   0  0  0  0  0  1  0  0  0  0  0  0
  1 13  1  0  0  0  0
  2  4  2  0  0  0  0
  2  3  1  0  0  0  0
  3  5  2  0  0  0  0
  4  6  1  0  0  0  0
  5  1  1  0  0  0  0
  6  7  1  0  0  0  0
  6  1  2  0  0  0  0
  7 11  1  0  0  0  0
  8 11  1  0  0  0  0
  9  8  1  0  0  0  0
 10  9  1  0  0  0  0
 10 12  1  0  0  0  0
 12  7  1  0  0  0  0
 13 14  1  1  0  0  0
 13 16  1  0  0  0  0
 15 20  2  0  0  0  0
 16 19  2  0  0  0  0
 16 17  1  0  0  0  0
 17 21  2  0  0  0  0
 18 22  2  0  0  0  0
 19 15  1  0  0  0  0
 20 18  1  0  0  0  0
 21 18  1  0  0  0  0
 23  3  1  0  0  0  0
 24 23  1  0  0  0  0
 25 27  1  6  0  0  0
 25 24  1  0  0  0  0
 25 26  2  0  0  0  0
 25 28  1  0  0  0  0
M  END
>  <MODEL>
1

>  <REMARK>
 VINA RESULT:      -7.1      0.000      0.000
  Name = 
  6 active torsions:
  status: ('A' for Active; 'I' for Inactive)
    1  A    between atoms: N_2  and  C_24
    2  A    between atoms: O_3  and  P_6
    3  A    between atoms: O_3  and  C_17
    4  A    between atoms: C_4  and  C_9
    5  A    between atoms: C_8  and  C_9
    6  A    between atoms: C_12  and  C_17
                            x       y       z     vdW  Elec       q    Type
                         _______ _______ _______ _____ _____    ______ ____

>  <TORSDO>
F 6

$$$$
=
 OpenBabel10222416533D

 28 30  0  0  1  0  0  0  0  0999 V2000
  186.9650  177.6230  144.1930 C   0  0  0  0  0  0  0  0  0  0  0  0
  184.8210  179.1370  145.1940 C   0  0  0  0  0  3  0  0  0  0  0  0
  184.7030  178.4850  143.9660 C   0  0  0  0  0  0  0  0  0  0  0  0
  186.0040  179.0360  145.9270 C   0  0  0  0  0  3  0  0  0  0  0  0
  185.7710  177.7350  143.4700 C   0  0  0  0  0  3  0  0  0  0  0  0
  187.0870  178.2900  145.4380 C   0  0  0  0  0  0  0  0  0  0  0  0
  188.2860  178.2190  146.2170 N   0  0  0  0  0  0  0  0  0  0  0  0
  188.9360  176.3800  147.6680 C   0  0  0  0  0  2  0  0  0  0  0  0
  190.2980  176.4990  147.1460 N   0  0  0  0  0  2  0  0  0  0  0  0
  190.2320  176.8440  145.7260 C   0  0  0  0  0  2  0  0  0  0  0  0
  188.2310  177.7320  147.5910 C   0  0  0  0  0  2  0  0  0  0  0  0
  189.5860  178.2170  145.5520 C   0  0  0  0  0  2  0  0  0  0  0  0
  188.0350  176.7470  143.6040 C   0  0  1  0  0  3  0  0  0  0  0  0
  187.6560  175.4020  143.5930 O   0  0  0  0  0  1  0  0  0  0  0  0
  190.5540  177.0960  140.7790 C   0  0  0  0  0  3  0  0  0  0  0  0
  188.5350  177.2260  142.2670 C   0  0  0  0  0  0  0  0  0  0  0  0
  187.7060  178.0430  141.5000 C   0  0  0  0  0  3  0  0  0  0  0  0
  189.0330  178.5680  139.4270 C   0  0  0  0  0  0  0  0  0  0  0  0
  189.8150  176.8140  141.9180 C   0  0  0  0  0  3  0  0  0  0  0  0
  190.2070  177.8700  139.6820 C   0  0  0  0  0  3  0  0  0  0  0  0
  187.9240  178.6280  140.2610 C   0  0  0  0  0  3  0  0  0  0  0  0
  188.9700  179.2010  138.3430 O   0  0  0  0  0  0  0  0  0  0  0  0
  183.4530  178.6140  143.1700 C   0  0  0  0  0  2  0  0  0  0  0  0
  182.3950  178.9680  144.0100 O   0  0  0  0  0  0  0  0  0  0  0  0
  181.0130  178.9360  143.0280 P   0  0  1  0  0  0  0  0  0  0  0  0
  181.3820  178.3810  141.6720 O   0  0  0  0  0  0  0  0  0  0  0  0
  179.7880  177.9150  143.7520 N   0  0  0  0  0  1  0  0  0  0  0  0
  180.4020  180.5030  142.8380 O   0  0  0  0  0  1  0  0  0  0  0  0
  1  6  1  0  0  0  0
  2  4  1  0  0  0  0
  3  2  2  0  0  0  0
  5  3  1  0  0  0  0
  5  1  2  0  0  0  0
  6  4  2  0  0  0  0
  6  7  1  0  0  0  0
  7 11  1  0  0  0  0
  9  8  1  0  0  0  0
 10  9  1  0  0  0  0
 11  8  1  0  0  0  0
 12 10  1  0  0  0  0
 12  7  1  0  0  0  0
 13 14  1  6  0  0  0
 13  1  1  0  0  0  0
 15 19  1  0  0  0  0
 16 13  1  0  0  0  0
 17 16  1  0  0  0  0
 18 20  1  0  0  0  0
 18 21  1  0  0  0  0
 19 16  2  0  0  0  0
 20 15  2  0  0  0  0
 21 17  2  0  0  0  0
 22 18  2  0  0  0  0
 23  3  1  0  0  0  0
 23 24  1  0  0  0  0
 25 26  2  6  0  0  0
 25 27  1  0  0  0  0
 25 24  1  0  0  0  0
 28 25  1  0  0  0  0
M  END
>  <MODEL>
2

>  <REMARK>
 VINA RESULT:      -6.8      5.508      8.541
  Name = 
  6 active torsions:
  status: ('A' for Active; 'I' for Inactive)
    1  A    between atoms: N_2  and  C_24
    2  A    between atoms: O_3  and  P_6
    3  A    between atoms: O_3  and  C_17
    4  A    between atoms: C_4  and  C_9
    5  A    between atoms: C_8  and  C_9
    6  A    between atoms: C_12  and  C_17
                            x       y       z     vdW  Elec       q    Type
                         _______ _______ _______ _____ _____    ______ ____

>  <TORSDO>
F 6

$$$$
=
 OpenBabel10222416533D

 28 30  0  0  1  0  0  0  0  0999 V2000
  186.0950  178.1650  142.4880 C   0  0  0  0  0  0  0  0  0  0  0  0
  184.1250  178.7700  144.3960 C   0  0  0  0  0  3  0  0  0  0  0  0
  185.4490  178.5810  144.7940 C   0  0  0  0  0  0  0  0  0  0  0  0
  183.7790  178.6590  143.0490 C   0  0  0  0  0  3  0  0  0  0  0  0
  186.4260  178.2790  143.8430 C   0  0  0  0  0  3  0  0  0  0  0  0
  184.7490  178.3510  142.0840 C   0  0  0  0  0  0  0  0  0  0  0  0
  184.3510  178.2390  140.7130 N   0  0  0  0  0  0  0  0  0  0  0  0
  182.1260  177.6670  139.9180 C   0  0  0  0  0  2  0  0  0  0  0  0
  182.2600  178.7140  138.9040 N   0  0  0  0  0  2  0  0  0  0  0  0
  182.9960  179.8390  139.4810 C   0  0  0  0  0  2  0  0  0  0  0  0
  183.5050  177.1270  140.2930 C   0  0  0  0  0  2  0  0  0  0  0  0
  184.4160  179.4060  139.8390 C   0  0  0  0  0  2  0  0  0  0  0  0
  187.2260  177.8940  141.5340 C   0  0  1  0  0  3  0  0  0  0  0  0
  187.3680  178.9200  140.5950 O   0  0  0  0  0  1  0  0  0  0  0  0
  190.6110  178.6150  143.1030 C   0  0  0  0  0  3  0  0  0  0  0  0
  188.5190  177.5430  142.2200 C   0  0  1  0  0  3  0  0  0  0  0  0
  188.7810  176.2030  142.5020 C   0  0  0  0  0  3  0  0  0  0  0  0
  191.0490  176.1920  143.5930 C   0  0  0  0  0  0  0  0  0  0  0  0
  189.3620  178.6110  142.5020 C   0  0  0  0  0  3  0  0  0  0  0  0
  191.3530  177.5470  143.5840 C   0  0  0  0  0  2  0  0  0  0  0  0
  189.8850  175.6150  143.1020 C   0  0  0  0  0  3  0  0  0  0  0  0
  191.9050  175.4180  144.0940 O   0  0  0  0  0  0  0  0  0  0  0  0
  185.8150  178.6710  146.2330 C   0  0  0  0  0  2  0  0  0  0  0  0
  186.2850  177.4330  146.6780 O   0  0  0  0  0  0  0  0  0  0  0  0
  187.8170  177.7450  147.3340 P   0  0  1  0  0  0  0  0  0  0  0  0
  187.7160  178.9030  148.2990 O   0  0  0  0  0  1  0  0  0  0  0  0
  188.3980  176.3320  148.1920 N   0  0  0  0  0  1  0  0  0  0  0  0
  188.9050  178.1430  146.1000 O   0  0  0  0  0  0  0  0  0  0  0  0
  1  5  1  0  0  0  0
  2  3  1  0  0  0  0
  3 23  1  0  0  0  0
  4  2  2  0  0  0  0
  5  3  2  0  0  0  0
  6  1  2  0  0  0  0
  6  4  1  0  0  0  0
  7  6  1  0  0  0  0
  8 11  1  0  0  0  0
  9 10  1  0  0  0  0
  9  8  1  0  0  0  0
 10 12  1  0  0  0  0
 11  7  1  0  0  0  0
 12  7  1  0  0  0  0
 13 14  1  1  0  0  0
 13  1  1  0  0  0  0
 15 20  1  0  0  0  0
 16 13  1  6  0  0  0
 16 17  1  0  0  0  0
 16 19  1  0  0  0  0
 17 21  2  0  0  0  0
 18 22  2  0  0  0  0
 19 15  2  0  0  0  0
 20 18  1  0  0  0  0
 21 18  1  0  0  0  0
 23 24  1  0  0  0  0
 24 25  1  0  0  0  0
 25 28  2  6  0  0  0
 25 27  1  0  0  0  0
 25 26  1  0  0  0  0
M  END
>  <MODEL>
3

>  <REMARK>
 VINA RESULT:      -6.7      5.106      8.296
  Name = 
  6 active torsions:
  status: ('A' for Active; 'I' for Inactive)
    1  A    between atoms: N_2  and  C_24
    2  A    between atoms: O_3  and  P_6
    3  A    between atoms: O_3  and  C_17
    4  A    between atoms: C_4  and  C_9
    5  A    between atoms: C_8  and  C_9
    6  A    between atoms: C_12  and  C_17
                            x       y       z     vdW  Elec       q    Type
                         _______ _______ _______ _____ _____    ______ ____

>  <TORSDO>
F 6

$$$$
=
 OpenBabel10222416533D

 28 30  0  0  1  0  0  0  0  0999 V2000
  186.9660  177.6980  143.9180 C   0  0  0  0  0  0  0  0  0  0  0  0
  184.6310  179.0670  144.6700 C   0  0  0  0  0  3  0  0  0  0  0  0
  184.7160  178.4690  143.4120 C   0  0  0  0  0  0  0  0  0  0  0  0
  185.7060  178.9850  145.5560 C   0  0  0  0  0  3  0  0  0  0  0  0
  185.8790  177.7900  143.0410 C   0  0  0  0  0  3  0  0  0  0  0  0
  186.8820  178.3100  145.1940 C   0  0  0  0  0  0  0  0  0  0  0  0
  187.9650  178.2550  146.1290 N   0  0  0  0  0  0  0  0  0  0  0  0
  188.4190  176.4380  147.6780 C   0  0  0  0  0  2  0  0  0  0  0  0
  189.8390  176.5580  147.3440 N   0  0  0  0  0  2  0  0  0  0  0  0
  189.9650  176.8860  145.9230 C   0  0  0  0  0  2  0  0  0  0  0  0
  187.7250  177.7850  147.4890 C   0  0  0  0  0  2  0  0  0  0  0  0
  189.3430  178.2530  145.6460 C   0  0  0  0  0  2  0  0  0  0  0  0
  188.1500  176.8970  143.4500 C   0  0  1  0  0  3  0  0  0  0  0  0
  187.9300  175.5230  143.5810 O   0  0  0  0  0  1  0  0  0  0  0  0
  190.5910  176.9750  140.5380 C   0  0  0  0  0  3  0  0  0  0  0  0
  188.6320  177.2860  142.0770 C   0  0  0  0  0  0  0  0  0  0  0  0
  187.8250  178.1140  141.2980 C   0  0  0  0  0  3  0  0  0  0  0  0
  189.1110  178.4670  139.1640 C   0  0  0  0  0  0  0  0  0  0  0  0
  189.8750  176.7870  141.7100 C   0  0  0  0  0  3  0  0  0  0  0  0
  190.2520  177.7170  139.4160 C   0  0  0  0  0  3  0  0  0  0  0  0
  188.0350  178.6280  140.0260 C   0  0  0  0  0  3  0  0  0  0  0  0
  189.0470  179.0530  138.0530 O   0  0  0  0  0  0  0  0  0  0  0  0
  183.5820  178.5800  142.4550 C   0  0  0  0  0  2  0  0  0  0  0  0
  183.8060  177.7440  141.3600 O   0  0  0  0  0  0  0  0  0  0  0  0
  183.4820  178.6970  139.9950 P   0  0  1  0  0  0  0  0  0  0  0  0
  184.5550  179.7530  139.8630 O   0  0  0  0  0  0  0  0  0  0  0  0
  183.4810  177.6980  138.5560 N   0  0  0  0  0  1  0  0  0  0  0  0
  181.9770  179.4510  140.1610 O   0  0  0  0  0  1  0  0  0  0  0  0
  1  6  1  0  0  0  0
  2  4  1  0  0  0  0
  3  2  2  0  0  0  0
  5  3  1  0  0  0  0
  5  1  2  0  0  0  0
  6  4  2  0  0  0  0
  6  7  1  0  0  0  0
  7 11  1  0  0  0  0
  9  8  1  0  0  0  0
 10  9  1  0  0  0  0
 11  8  1  0  0  0  0
 12 10  1  0  0  0  0
 12  7  1  0  0  0  0
 13 14  1  6  0  0  0
 13  1  1  0  0  0  0
 15 19  1  0  0  0  0
 16 13  1  0  0  0  0
 17 16  1  0  0  0  0
 18 20  1  0  0  0  0
 18 21  1  0  0  0  0
 19 16  2  0  0  0  0
 20 15  2  0  0  0  0
 21 17  2  0  0  0  0
 22 18  2  0  0  0  0
 23  3  1  0  0  0  0
 24 23  1  0  0  0  0
 25 27  1  6  0  0  0
 25 28  1  0  0  0  0
 25 24  1  0  0  0  0
 26 25  2  0  0  0  0
M  END
>  <MODEL>
4

>  <REMARK>
 VINA RESULT:      -6.7      4.882      8.195
  Name = 
  6 active torsions:
  status: ('A' for Active; 'I' for Inactive)
    1  A    between atoms: N_2  and  C_24
    2  A    between atoms: O_3  and  P_6
    3  A    between atoms: O_3  and  C_17
    4  A    between atoms: C_4  and  C_9
    5  A    between atoms: C_8  and  C_9
    6  A    between atoms: C_12  and  C_17
                            x       y       z     vdW  Elec       q    Type
                         _______ _______ _______ _____ _____    ______ ____

>  <TORSDO>
F 6

$$$$
=
 OpenBabel10222416533D

 28 30  0  0  1  0  0  0  0  0999 V2000
  183.9020  178.7050  141.2230 C   0  0  0  0  0  0  0  0  0  0  0  0
  184.6730  178.3360  143.8990 C   0  0  0  0  0  3  0  0  0  0  0  0
  185.6190  178.2360  142.8790 C   0  0  0  0  0  0  0  0  0  0  0  0
  183.3420  178.6210  143.5910 C   0  0  0  0  0  3  0  0  0  0  0  0
  185.2330  178.4180  141.5500 C   0  0  0  0  0  3  0  0  0  0  0  0
  182.9390  178.8020  142.2590 C   0  0  0  0  0  0  0  0  0  0  0  0
  181.5630  179.0850  141.9840 N   0  0  0  0  0  0  0  0  0  0  0  0
  179.8280  177.4380  141.5520 C   0  0  0  0  0  2  0  0  0  0  0  0
  178.9310  178.2140  142.4100 N   0  0  0  0  0  2  0  0  0  0  0  0
  179.7030  178.7720  143.5210 C   0  0  0  0  0  2  0  0  0  0  0  0
  180.8710  178.3600  140.9240 C   0  0  0  0  0  2  0  0  0  0  0  0
  180.7440  179.7560  142.9890 C   0  0  0  0  0  2  0  0  0  0  0  0
  183.5960  178.9420  139.7700 C   0  0  1  0  0  3  0  0  0  0  0  0
  184.2090  180.1050  139.2950 O   0  0  0  0  0  1  0  0  0  0  0  0
  185.3080  176.9970  136.9900 C   0  0  0  0  0  3  0  0  0  0  0  0
  183.8570  177.7420  138.8990 C   0  0  0  0  0  0  0  0  0  0  0  0
  183.0910  176.5950  139.0990 C   0  0  0  0  0  3  0  0  0  0  0  0
  183.9070  174.9500  137.3780 C   0  0  0  0  0  0  0  0  0  0  0  0
  184.8510  177.8960  137.9400 C   0  0  0  0  0  3  0  0  0  0  0  0
  184.8900  175.6980  136.7430 C   0  0  0  0  0  3  0  0  0  0  0  0
  183.1130  175.3770  138.4350 C   0  0  0  0  0  3  0  0  0  0  0  0
  183.7190  173.7800  136.9570 O   0  0  0  0  0  0  0  0  0  0  0  0
  187.0330  177.9040  143.2040 C   0  0  0  0  0  2  0  0  0  0  0  0
  187.8040  177.9380  142.0410 O   0  0  0  0  0  0  0  0  0  0  0  0
  189.2580  177.1650  142.4440 P   0  0  1  0  0  0  0  0  0  0  0  0
  188.9480  175.8670  143.1520 O   0  0  0  0  0  0  0  0  0  0  0  0
  190.1750  176.8210  140.9920 N   0  0  0  0  0  1  0  0  0  0  0  0
  190.1730  178.1530  143.4700 O   0  0  0  0  0  1  0  0  0  0  0  0
  1  5  2  0  0  0  0
  1  6  1  0  0  0  0
  3 23  1  0  0  0  0
  3  2  2  0  0  0  0
  4  2  1  0  0  0  0
  5  3  1  0  0  0  0
  6  4  2  0  0  0  0
  7  6  1  0  0  0  0
  7 12  1  0  0  0  0
  8  9  1  0  0  0  0
  9 10  1  0  0  0  0
 11  8  1  0  0  0  0
 11  7  1  0  0  0  0
 12 10  1  0  0  0  0
 13 14  1  6  0  0  0
 13  1  1  0  0  0  0
 15 19  1  0  0  0  0
 16 17  1  0  0  0  0
 16 13  1  0  0  0  0
 18 21  1  0  0  0  0
 19 16  2  0  0  0  0
 20 15  2  0  0  0  0
 20 18  1  0  0  0  0
 21 17  2  0  0  0  0
 22 18  2  0  0  0  0
 24 25  1  0  0  0  0
 24 23  1  0  0  0  0
 25 27  1  6  0  0  0
 25 26  2  0  0  0  0
 25 28  1  0  0  0  0
M  END
>  <MODEL>
5

>  <REMARK>
 VINA RESULT:      -6.7      4.232      7.715
  Name = 
  6 active torsions:
  status: ('A' for Active; 'I' for Inactive)
    1  A    between atoms: N_2  and  C_24
    2  A    between atoms: O_3  and  P_6
    3  A    between atoms: O_3  and  C_17
    4  A    between atoms: C_4  and  C_9
    5  A    between atoms: C_8  and  C_9
    6  A    between atoms: C_12  and  C_17
                            x       y       z     vdW  Elec       q    Type
                         _______ _______ _______ _____ _____    ______ ____

>  <TORSDO>
F 6

$$$$
=
 OpenBabel10222416533D

 28 30  0  0  1  0  0  0  0  0999 V2000
  189.2680  177.4380  141.7370 C   0  0  0  0  0  0  0  0  0  0  0  0
  186.5960  178.2960  141.6240 C   0  0  0  0  0  3  0  0  0  0  0  0
  187.1680  177.9520  142.8490 C   0  0  0  0  0  0  0  0  0  0  0  0
  187.3510  178.2160  140.4530 C   0  0  0  0  0  3  0  0  0  0  0  0
  188.4950  177.5240  142.9020 C   0  0  0  0  0  3  0  0  0  0  0  0
  188.6860  177.7830  140.4920 C   0  0  0  0  0  0  0  0  0  0  0  0
  189.4240  177.7070  139.2680 N   0  0  0  0  0  0  0  0  0  0  0  0
  189.0260  176.1330  137.4590 C   0  0  0  0  0  2  0  0  0  0  0  0
  189.2180  177.2320  136.5110 N   0  0  0  0  0  2  0  0  0  0  0  0
  188.6560  178.4550  137.0840 C   0  0  0  0  0  2  0  0  0  0  0  0
  189.8160  176.4060  138.7370 C   0  0  0  0  0  2  0  0  0  0  0  0
  189.4240  178.8400  138.3470 C   0  0  0  0  0  2  0  0  0  0  0  0
  190.7040  177.0230  141.9040 C   0  0  1  0  0  3  0  0  0  0  0  0
  191.5760  177.9080  141.2650 O   0  0  0  0  0  1  0  0  0  0  0  0
  192.0520  174.9420  144.7850 C   0  0  0  0  0  3  0  0  0  0  0  0
  191.0870  176.7510  143.3350 C   0  0  0  0  0  0  0  0  0  0  0  0
  190.8670  177.7480  144.2840 C   0  0  0  0  0  3  0  0  0  0  0  0
  191.6390  176.7610  146.4660 C   0  0  0  0  0  0  0  0  0  0  0  0
  191.6230  175.4950  143.5880 C   0  0  0  0  0  3  0  0  0  0  0  0
  192.0580  175.5030  146.0530 C   0  0  0  0  0  3  0  0  0  0  0  0
  191.1090  177.7510  145.6500 C   0  0  0  0  0  3  0  0  0  0  0  0
  191.7520  177.0260  147.6900 O   0  0  0  0  0  0  0  0  0  0  0  0
  186.3540  178.0100  144.0930 C   0  0  0  0  0  2  0  0  0  0  0  0
  185.0110  177.7830  143.7890 O   0  0  0  0  0  0  0  0  0  0  0  0
  184.1570  179.0140  144.5850 P   0  0  1  0  0  0  0  0  0  0  0  0
  184.5630  180.3500  144.0080 O   0  0  0  0  0  0  0  0  0  0  0  0
  182.4350  178.7890  144.3580 N   0  0  0  0  0  1  0  0  0  0  0  0
  184.5180  178.9900  146.2380 O   0  0  0  0  0  1  0  0  0  0  0  0
  1 13  1  0  0  0  0
  1  5  1  0  0  0  0
  2  3  1  0  0  0  0
  3  5  2  0  0  0  0
  3 23  1  0  0  0  0
  4  6  1  0  0  0  0
  4  2  2  0  0  0  0
  6  1  2  0  0  0  0
  7  6  1  0  0  0  0
  8 11  1  0  0  0  0
  9 10  1  0  0  0  0
  9  8  1  0  0  0  0
 10 12  1  0  0  0  0
 11  7  1  0  0  0  0
 12  7  1  0  0  0  0
 13 14  1  1  0  0  0
 13 16  1  0  0  0  0
 15 20  2  0  0  0  0
 16 19  2  0  0  0  0
 16 17  1  0  0  0  0
 17 21  2  0  0  0  0
 18 22  2  0  0  0  0
 19 15  1  0  0  0  0
 20 18  1  0  0  0  0
 21 18  1  0  0  0  0
 24 23  1  0  0  0  0
 24 25  1  0  0  0  0
 25 26  2  6  0  0  0
 25 28  1  0  0  0  0
 27 25  1  0  0  0  0
M  END
>  <MODEL>
6

>  <REMARK>
 VINA RESULT:      -6.7      6.190      8.258
  Name = 
  6 active torsions:
  status: ('A' for Active; 'I' for Inactive)
    1  A    between atoms: N_2  and  C_24
    2  A    between atoms: O_3  and  P_6
    3  A    between atoms: O_3  and  C_17
    4  A    between atoms: C_4  and  C_9
    5  A    between atoms: C_8  and  C_9
    6  A    between atoms: C_12  and  C_17
                            x       y       z     vdW  Elec       q    Type
                         _______ _______ _______ _____ _____    ______ ____

>  <TORSDO>
F 6

$$$$
=
 OpenBabel10222416533D

 28 30  0  0  1  0  0  0  0  0999 V2000
  185.1940  178.7390  141.0890 C   0  0  0  0  0  0  0  0  0  0  0  0
  186.7020  178.2070  138.7800 C   0  0  0  0  0  3  0  0  0  0  0  0
  187.3420  178.3870  140.0070 C   0  0  0  0  0  0  0  0  0  0  0  0
  185.3110  178.2900  138.6990 C   0  0  0  0  0  3  0  0  0  0  0  0
  186.5900  178.6530  141.1520 C   0  0  0  0  0  3  0  0  0  0  0  0
  184.5440  178.5620  139.8420 C   0  0  0  0  0  0  0  0  0  0  0  0
  183.1200  178.6470  139.7150 N   0  0  0  0  0  0  0  0  0  0  0  0
  181.9130  179.8040  137.9510 C   0  0  0  0  0  2  0  0  0  0  0  0
  180.9950  178.6660  137.8840 N   0  0  0  0  0  2  0  0  0  0  0  0
  181.7510  177.4340  138.1120 C   0  0  0  0  0  2  0  0  0  0  0  0
  182.4990  179.9180  139.3570 C   0  0  0  0  0  2  0  0  0  0  0  0
  182.3330  177.4330  139.5240 C   0  0  0  0  0  2  0  0  0  0  0  0
  184.4690  178.9720  142.3860 C   0  0  1  0  0  3  0  0  0  0  0  0
  183.2040  178.3790  142.3850 O   0  0  0  0  0  1  0  0  0  0  0  0
  187.1310  177.0780  144.3280 C   0  0  0  0  0  3  0  0  0  0  0  0
  185.2840  178.6160  143.6010 C   0  0  1  0  0  3  0  0  0  0  0  0
  185.0110  179.2710  144.8010 C   0  0  0  0  0  3  0  0  0  0  0  0
  186.6100  178.2780  146.4710 C   0  0  0  0  0  0  0  0  0  0  0  0
  186.2460  177.6310  143.4160 C   0  0  0  0  0  3  0  0  0  0  0  0
  187.2900  177.3650  145.6750 C   0  0  0  0  0  2  0  0  0  0  0  0
  185.5910  179.1230  146.0530 C   0  0  0  0  0  3  0  0  0  0  0  0
  186.9500  178.3450  147.6800 O   0  0  0  0  0  0  0  0  0  0  0  0
  188.8260  178.3260  140.0890 C   0  0  0  0  0  2  0  0  0  0  0  0
  189.2160  178.1070  141.4110 O   0  0  0  0  0  0  0  0  0  0  0  0
  190.4430  176.9390  141.3290 P   0  0  1  0  0  0  0  0  0  0  0  0
  191.7780  177.6070  141.5570 O   0  0  0  0  0  1  0  0  0  0  0  0
  190.1920  175.7210  142.5640 N   0  0  0  0  0  1  0  0  0  0  0  0
  190.4420  176.2060  139.8040 O   0  0  0  0  0  0  0  0  0  0  0  0
  1  5  1  0  0  0  0
  1 13  1  0  0  0  0
  2  3  1  0  0  0  0
  3 23  1  0  0  0  0
  3  5  2  0  0  0  0
  4  2  2  0  0  0  0
  4  6  1  0  0  0  0
  6  1  2  0  0  0  0
  7  6  1  0  0  0  0
  8 11  1  0  0  0  0
  9  8  1  0  0  0  0
  9 10  1  0  0  0  0
 10 12  1  0  0  0  0
 11  7  1  0  0  0  0
 12  7  1  0  0  0  0
 13 14  1  6  0  0  0
 15 20  1  0  0  0  0
 16 13  1  1  0  0  0
 16 17  1  0  0  0  0
 17 21  2  0  0  0  0
 18 22  2  0  0  0  0
 19 16  1  0  0  0  0
 19 15  2  0  0  0  0
 20 18  1  0  0  0  0
 21 18  1  0  0  0  0
 23 24  1  0  0  0  0
 25 28  2  6  0  0  0
 25 24  1  0  0  0  0
 25 26  1  0  0  0  0
 25 27  1  0  0  0  0
M  END
>  <MODEL>
7

>  <REMARK>
 VINA RESULT:      -6.5      4.305      6.792
  Name = 
  6 active torsions:
  status: ('A' for Active; 'I' for Inactive)
    1  A    between atoms: N_2  and  C_24
    2  A    between atoms: O_3  and  P_6
    3  A    between atoms: O_3  and  C_17
    4  A    between atoms: C_4  and  C_9
    5  A    between atoms: C_8  and  C_9
    6  A    between atoms: C_12  and  C_17
                            x       y       z     vdW  Elec       q    Type
                         _______ _______ _______ _____ _____    ______ ____

>  <TORSDO>
F 6

$$$$
=
 OpenBabel10222416533D

 28 30  0  0  1  0  0  0  0  0999 V2000
  188.2440  178.0170  140.3150 C   0  0  0  0  0  0  0  0  0  0  0  0
  190.6680  176.6200  140.0580 C   0  0  0  0  0  3  0  0  0  0  0  0
  190.3120  177.1840  141.2840 C   0  0  0  0  0  0  0  0  0  0  0  0
  189.8190  176.7490  138.9580 C   0  0  0  0  0  3  0  0  0  0  0  0
  189.1080  177.8800  141.4080 C   0  0  0  0  0  3  0  0  0  0  0  0
  188.6070  177.4490  139.0680 C   0  0  0  0  0  0  0  0  0  0  0  0
  187.7680  177.5650  137.9140 N   0  0  0  0  0  0  0  0  0  0  0  0
  188.5170  178.0290  135.6480 C   0  0  0  0  0  2  0  0  0  0  0  0
  187.5810  177.0100  135.1700 N   0  0  0  0  0  2  0  0  0  0  0  0
  187.5380  175.9160  136.1400 C   0  0  0  0  0  2  0  0  0  0  0  0
  188.0020  178.6360  136.9510 C   0  0  0  0  0  2  0  0  0  0  0  0
  186.9790  176.4190  137.4700 C   0  0  0  0  0  2  0  0  0  0  0  0
  186.9450  178.7330  140.5620 C   0  0  1  0  0  3  0  0  0  0  0  0
  185.9770  178.3920  139.6130 O   0  0  0  0  0  1  0  0  0  0  0  0
  186.8390  177.2640  144.0660 C   0  0  0  0  0  3  0  0  0  0  0  0
  186.4490  178.6040  141.9780 C   0  0  1  0  0  3  0  0  0  0  0  0
  185.4120  179.4350  142.3990 C   0  0  0  0  0  3  0  0  0  0  0  0
  184.9680  178.7760  144.7870 C   0  0  0  0  0  0  0  0  0  0  0  0
  187.0750  177.6330  142.7510 C   0  0  0  0  0  3  0  0  0  0  0  0
  185.9090  177.7690  144.9620 C   0  0  0  0  0  2  0  0  0  0  0  0
  184.7670  179.5090  143.6250 C   0  0  0  0  0  3  0  0  0  0  0  0
  184.2330  179.0480  145.7700 O   0  0  0  0  0  0  0  0  0  0  0  0
  191.2300  177.0730  142.4500 C   0  0  0  0  0  2  0  0  0  0  0  0
  190.5210  176.6240  143.5660 O   0  0  0  0  0  0  0  0  0  0  0  0
  190.9470  177.6800  144.8220 P   0  0  1  0  0  0  0  0  0  0  0  0
  189.6910  178.2570  145.4310 O   0  0  0  0  0  1  0  0  0  0  0  0
  191.8370  176.8120  146.0570 N   0  0  0  0  0  1  0  0  0  0  0  0
  191.9010  178.9410  144.2190 O   0  0  0  0  0  0  0  0  0  0  0  0
  1 13  1  0  0  0  0
  1  5  1  0  0  0  0
  2  3  1  0  0  0  0
  3  5  2  0  0  0  0
  3 23  1  0  0  0  0
  4  6  1  0  0  0  0
  4  2  2  0  0  0  0
  6  1  2  0  0  0  0
  7  6  1  0  0  0  0
  8 11  1  0  0  0  0
  9  8  1  0  0  0  0
  9 10  1  0  0  0  0
 10 12  1  0  0  0  0
 11  7  1  0  0  0  0
 12  7  1  0  0  0  0
 13 14  1  6  0  0  0
 15 20  1  0  0  0  0
 16 13  1  6  0  0  0
 16 17  1  0  0  0  0
 16 19  1  0  0  0  0
 17 21  2  0  0  0  0
 18 20  1  0  0  0  0
 18 22  2  0  0  0  0
 19 15  2  0  0  0  0
 21 18  1  0  0  0  0
 23 24  1  0  0  0  0
 24 25  1  0  0  0  0
 25 28  2  6  0  0  0
 25 26  1  0  0  0  0
 25 27  1  0  0  0  0
M  END
>  <MODEL>
8

>  <REMARK>
 VINA RESULT:      -6.5      5.747      8.289
  Name = 
  6 active torsions:
  status: ('A' for Active; 'I' for Inactive)
    1  A    between atoms: N_2  and  C_24
    2  A    between atoms: O_3  and  P_6
    3  A    between atoms: O_3  and  C_17
    4  A    between atoms: C_4  and  C_9
    5  A    between atoms: C_8  and  C_9
    6  A    between atoms: C_12  and  C_17
                            x       y       z     vdW  Elec       q    Type
                         _______ _______ _______ _____ _____    ______ ____

>  <TORSDO>
F 6

$$$$
=
 OpenBabel10222416533D

 28 30  0  0  1  0  0  0  0  0999 V2000
  188.3900  177.6740  140.1650 C   0  0  0  0  0  0  0  0  0  0  0  0
  185.8770  178.6270  139.3480 C   0  0  0  0  0  3  0  0  0  0  0  0
  186.2400  178.6800  140.6940 C   0  0  0  0  0  0  0  0  0  0  0  0
  186.7620  178.1020  138.4060 C   0  0  0  0  0  3  0  0  0  0  0  0
  187.4890  178.2030  141.0970 C   0  0  0  0  0  3  0  0  0  0  0  0
  188.0190  177.6150  138.7980 C   0  0  0  0  0  0  0  0  0  0  0  0
  188.8940  177.0770  137.8020 N   0  0  0  0  0  0  0  0  0  0  0  0
  188.3250  175.3530  136.1850 C   0  0  0  0  0  2  0  0  0  0  0  0
  189.0330  176.1290  135.1650 N   0  0  0  0  0  2  0  0  0  0  0  0
  188.8140  177.5530  135.4180 C   0  0  0  0  0  2  0  0  0  0  0  0
  188.9220  175.6380  137.5620 C   0  0  0  0  0  2  0  0  0  0  0  0
  189.4310  177.9460  136.7590 C   0  0  0  0  0  2  0  0  0  0  0  0
  189.7310  177.2400  140.6880 C   0  0  1  0  0  3  0  0  0  0  0  0
  190.7790  177.8680  140.0090 O   0  0  0  0  0  1  0  0  0  0  0  0
  191.4090  178.2100  143.9580 C   0  0  0  0  0  3  0  0  0  0  0  0
  189.8540  177.3460  142.1850 C   0  0  0  0  0  0  0  0  0  0  0  0
  188.8430  176.8030  142.9760 C   0  0  0  0  0  3  0  0  0  0  0  0
  189.5690  177.2200  145.3490 C   0  0  0  0  0  0  0  0  0  0  0  0
  191.0010  177.9740  142.6540 C   0  0  0  0  0  3  0  0  0  0  0  0
  190.7760  177.8760  145.1450 C   0  0  0  0  0  3  0  0  0  0  0  0
  188.7190  176.7490  144.3570 C   0  0  0  0  0  3  0  0  0  0  0  0
  189.2140  177.0370  146.5420 O   0  0  0  0  0  0  0  0  0  0  0  0
  185.2870  179.2130  141.7030 C   0  0  0  0  0  2  0  0  0  0  0  0
  184.8350  178.1740  142.5200 O   0  0  0  0  0  0  0  0  0  0  0  0
  184.6010  178.8730  144.0470 P   0  0  1  0  0  0  0  0  0  0  0  0
  184.9300  180.3460  143.9720 O   0  0  0  0  0  0  0  0  0  0  0  0
  182.9310  178.6830  144.5420 N   0  0  0  0  0  1  0  0  0  0  0  0
  185.6150  178.1350  145.1820 O   0  0  0  0  0  1  0  0  0  0  0  0
  1 13  1  0  0  0  0
  1  5  1  0  0  0  0
  2  3  1  0  0  0  0
  3  5  2  0  0  0  0
  3 23  1  0  0  0  0
  4  6  1  0  0  0  0
  4  2  2  0  0  0  0
  6  1  2  0  0  0  0
  7  6  1  0  0  0  0
  8 11  1  0  0  0  0
  9 10  1  0  0  0  0
  9  8  1  0  0  0  0
 10 12  1  0  0  0  0
 11  7  1  0  0  0  0
 12  7  1  0  0  0  0
 13 14  1  6  0  0  0
 13 16  1  0  0  0  0
 15 20  2  0  0  0  0
 16 19  2  0  0  0  0
 16 17  1  0  0  0  0
 17 21  2  0  0  0  0
 18 22  2  0  0  0  0
 19 15  1  0  0  0  0
 20 18  1  0  0  0  0
 21 18  1  0  0  0  0
 23 24  1  0  0  0  0
 24 25  1  0  0  0  0
 25 26  2  6  0  0  0
 25 27  1  0  0  0  0
 25 28  1  0  0  0  0
M  END
>  <MODEL>
9

>  <REMARK>
 VINA RESULT:      -6.5      5.548      7.188
  Name = 
  6 active torsions:
  status: ('A' for Active; 'I' for Inactive)
    1  A    between atoms: N_2  and  C_24
    2  A    between atoms: O_3  and  P_6
    3  A    between atoms: O_3  and  C_17
    4  A    between atoms: C_4  and  C_9
    5  A    between atoms: C_8  and  C_9
    6  A    between atoms: C_12  and  C_17
                            x       y       z     vdW  Elec       q    Type
                         _______ _______ _______ _____ _____    ______ ____

>  <TORSDO>
F 6

$$$$
