=
 OpenBabel10222420353D

 41 46  0  0  1  0  0  0  0  0999 V2000
  186.8950  178.0050  143.6380 C   0  0  0  0  0  0  0  0  0  0  0  0
  190.0190  177.2180  146.3340 C   0  0  0  0  0  0  0  0  0  0  0  0
  188.9600  177.4810  145.4440 C   0  0  0  0  0  0  0  0  0  0  0  0
  185.7570  178.1930  142.6650 C   0  0  0  0  0  2  0  0  0  0  0  0
  189.1690  177.4210  144.1040 N   0  0  0  0  0  0  0  0  0  0  0  0
  191.3770  176.8580  145.8380 C   0  0  0  0  0  1  0  0  0  0  0  0
  188.5460  177.6280  148.2110 C   0  0  0  0  0  3  0  0  0  0  0  0
  186.6320  178.0710  145.0280 C   0  0  0  0  0  0  0  0  0  0  0  0
  184.8090  179.2820  143.1490 C   0  0  0  0  0  2  0  0  0  0  0  0
  189.8050  177.2930  147.7120 C   0  0  0  0  0  3  0  0  0  0  0  0
  184.3300  178.9570  144.4840 N   0  0  0  0  0  0  0  0  0  0  0  0
  184.8630  178.2470  146.6450 O   0  0  0  0  0  0  0  0  0  0  0  0
  187.6800  177.8140  145.9430 C   0  0  0  0  0  0  0  0  0  0  0  0
  185.2470  178.4330  145.4580 C   0  0  0  0  0  0  0  0  0  0  0  0
  188.1950  177.6700  143.1890 C   0  0  0  0  0  0  0  0  0  0  0  0
  187.4930  177.8870  147.3320 C   0  0  0  0  0  3  0  0  0  0  0  0
  189.5910  176.7910  141.3300 N   0  0  0  0  0  0  0  0  0  0  0  0
  187.9520  178.2580  140.7610 N   0  0  0  0  0  0  0  0  0  0  0  0
  191.1550  176.2400  136.6130 C   0  0  0  0  0  1  0  0  0  0  0  0
  189.5060  177.9690  137.3380 C   0  0  0  0  0  2  0  0  0  0  0  0
  189.5970  176.9850  140.0020 C   0  0  1  0  0  3  0  0  0  0  0  0
  188.5670  177.5720  141.7570 C   0  0  0  0  0  0  0  0  0  0  0  0
  188.6320  177.8880  139.6650 C   0  0  0  0  0  0  0  0  0  0  0  0
  188.3190  178.2870  138.2570 C   0  0  0  0  0  2  0  0  0  0  0  0
  190.5800  176.4090  139.0320 C   0  0  0  0  0  2  0  0  0  0  0  0
  190.0480  176.5530  137.5970 C   0  0  2  0  0  3  0  0  0  0  0  0
  182.9040  179.0580  144.7570 C   0  0  0  0  0  2  0  0  0  0  0  0
  182.1130  178.9520  143.4630 C   0  0  0  0  0  2  0  0  0  0  0  0
  180.6680  178.5940  143.7580 C   0  0  0  0  0  2  0  0  0  0  0  0
  179.9590  178.1780  142.4810 C   0  0  0  0  0  2  0  0  0  0  0  0
  179.9150  179.2550  141.5960 O   0  0  0  0  0  0  0  0  0  0  0  0
  180.5810  178.1500  137.8690 S   0  0  0  0  0  0  0  0  0  0  0  0
  179.6490  178.6800  140.3480 C   0  0  2  0  0  3  0  0  0  0  0  0
  180.0140  177.2170  140.3470 C   0  0  0  0  0  2  0  0  0  0  0  0
  180.4530  179.3440  139.2390 C   0  0  1  0  0  3  0  0  0  0  0  0
  179.9670  176.7790  138.9010 C   0  0  0  0  0  2  0  0  0  0  0  0
  181.7910  179.6850  139.7000 N   0  0  0  0  0  2  0  0  0  0  0  0
  182.7070  179.3390  138.6250 C   0  0  0  0  0  2  0  0  0  0  0  0
  183.9870  178.7650  139.2020 C   0  0  2  0  0  3  0  0  0  0  0  0
  184.8710  179.7990  139.5110 O   0  0  0  0  0  1  0  0  0  0  0  0
  184.6270  177.8470  138.1820 C   0  0  0  0  0  1  0  0  0  0  0  0
  1  8  1  0  0  0  0
  2 10  2  0  0  0  0
  3 13  1  0  0  0  0
  3  2  1  0  0  0  0
  4  9  1  0  0  0  0
  4  1  1  0  0  0  0
  5  3  2  0  0  0  0
  6  2  1  0  0  0  0
  8 14  1  0  0  0  0
  8 13  2  0  0  0  0
  9 11  1  0  0  0  0
 10  7  1  0  0  0  0
 11 27  1  0  0  0  0
 11 14  1  0  0  0  0
 13 16  1  0  0  0  0
 14 12  2  0  0  0  0
 15  1  2  0  0  0  0
 15  5  1  0  0  0  0
 16  7  2  0  0  0  0
 17 22  2  0  0  0  0
 18 22  1  0  0  0  0
 20 26  1  0  0  0  0
 20 24  1  0  0  0  0
 21 25  1  1  0  0  0
 21 17  1  0  0  0  0
 22 15  1  0  0  0  0
 23 21  1  0  0  0  0
 23 18  2  0  0  0  0
 24 23  1  0  0  0  0
 26 19  1  6  0  0  0
 26 25  1  0  0  0  0
 28 29  1  0  0  0  0
 28 27  1  0  0  0  0
 30 29  1  0  0  0  0
 31 30  1  0  0  0  0
 32 36  1  0  0  0  0
 32 35  1  0  0  0  0
 33 31  1  1  0  0  0
 34 33  1  0  0  0  0
 35 37  1  1  0  0  0
 35 33  1  0  0  0  0
 36 34  1  0  0  0  0
 38 39  1  0  0  0  0
 38 37  1  0  0  0  0
 39 41  1  6  0  0  0
 39 40  1  0  0  0  0
M  END
>  <MODEL>
1

>  <REMARK>
 VINA RESULT:     -10.1      0.000      0.000
  Name = 
  10 active torsions:
  status: ('A' for Active; 'I' for Inactive)
    1  A    between atoms: C_1  and  C_33
    2  A    between atoms: C_4  and  C_21
    3  A    between atoms: C_4  and  C_29
    4  A    between atoms: N_6  and  C_33
    5  A    between atoms: N_6  and  C_40
    6  A    between atoms: C_8  and  O_28
    7  A    between atoms: C_8  and  C_29
    8  A    between atoms: C_11  and  O_28
    9  A    between atoms: C_21  and  N_22
   10  A    between atoms: C_30  and  C_37
                            x       y       z     vdW  Elec       q    Type
                         _______ _______ _______ _____ _____    ______ ____

>  <TORSDO>
F 10

$$$$
=
 OpenBabel10222420353D

 41 46  0  0  1  0  0  0  0  0999 V2000
  186.9520  177.9830  143.6730 C   0  0  0  0  0  0  0  0  0  0  0  0
  190.0480  177.2040  146.4040 C   0  0  0  0  0  0  0  0  0  0  0  0
  188.9990  177.4650  145.5010 C   0  0  0  0  0  0  0  0  0  0  0  0
  185.8250  178.1690  142.6880 C   0  0  0  0  0  2  0  0  0  0  0  0
  189.2210  177.4000  144.1640 N   0  0  0  0  0  0  0  0  0  0  0  0
  191.4110  176.8420  145.9220 C   0  0  0  0  0  1  0  0  0  0  0  0
  188.5560  177.6200  148.2640 C   0  0  0  0  0  3  0  0  0  0  0  0
  186.6750  178.0540  145.0600 C   0  0  0  0  0  0  0  0  0  0  0  0
  184.8720  179.2600  143.1580 C   0  0  0  0  0  2  0  0  0  0  0  0
  189.8200  177.2830  147.7790 C   0  0  0  0  0  3  0  0  0  0  0  0
  184.3790  178.9390  144.4900 N   0  0  0  0  0  0  0  0  0  0  0  0
  184.8900  178.2350  146.6580 O   0  0  0  0  0  0  0  0  0  0  0  0
  187.7130  177.7990  145.9860 C   0  0  0  0  0  0  0  0  0  0  0  0
  185.2860  178.4170  145.4750 C   0  0  0  0  0  0  0  0  0  0  0  0
  188.2570  177.6460  143.2390 C   0  0  0  0  0  0  0  0  0  0  0  0
  187.5130  177.8770  147.3730 C   0  0  0  0  0  3  0  0  0  0  0  0
  187.9860  178.2200  140.8360 N   0  0  0  0  0  0  0  0  0  0  0  0
  189.6520  176.7640  141.3480 N   0  0  0  0  0  2  0  0  0  0  0  0
  188.9720  178.0990  135.9350 C   0  0  0  0  0  1  0  0  0  0  0  0
  190.0010  176.5480  137.6000 C   0  0  0  0  0  2  0  0  0  0  0  0
  188.6310  177.8590  139.7170 C   0  0  0  0  0  0  0  0  0  0  0  0
  188.6440  177.5440  141.8100 C   0  0  0  0  0  0  0  0  0  0  0  0
  189.6130  176.9620  140.0210 C   0  0  0  0  0  0  0  0  0  0  0  0
  190.5710  176.4010  139.0180 C   0  0  0  0  0  2  0  0  0  0  0  0
  188.2720  178.2640  138.3220 C   0  0  0  0  0  2  0  0  0  0  0  0
  189.4390  177.9610  137.3690 C   0  0  2  0  0  3  0  0  0  0  0  0
  182.9500  179.0410  144.7470 C   0  0  0  0  0  2  0  0  0  0  0  0
  182.1700  178.8710  143.4540 C   0  0  0  0  0  2  0  0  0  0  0  0
  180.7100  178.5860  143.7540 C   0  0  0  0  0  2  0  0  0  0  0  0
  179.9680  178.2460  142.4740 C   0  0  0  0  0  2  0  0  0  0  0  0
  180.1940  179.2380  141.5210 O   0  0  0  0  0  0  0  0  0  0  0  0
  180.6750  178.1760  137.7540 S   0  0  0  0  0  0  0  0  0  0  0  0
  179.8880  178.6340  140.2970 C   0  0  2  0  0  3  0  0  0  0  0  0
  180.3850  177.2100  140.2670 C   0  0  0  0  0  2  0  0  0  0  0  0
  180.5420  179.3620  139.1300 C   0  0  1  0  0  3  0  0  0  0  0  0
  180.2700  176.7610  138.8290 C   0  0  0  0  0  2  0  0  0  0  0  0
  181.8730  179.8260  139.4890 N   0  0  0  0  0  2  0  0  0  0  0  0
  182.7850  179.3160  138.4770 C   0  0  0  0  0  2  0  0  0  0  0  0
  184.0040  178.7060  139.1400 C   0  0  2  0  0  3  0  0  0  0  0  0
  184.8710  179.7170  139.5560 O   0  0  0  0  0  1  0  0  0  0  0  0
  184.7180  177.8110  138.1480 C   0  0  0  0  0  1  0  0  0  0  0  0
  1  8  1  0  0  0  0
  2 10  2  0  0  0  0
  3 13  1  0  0  0  0
  3  2  1  0  0  0  0
  4  9  1  0  0  0  0
  4  1  1  0  0  0  0
  5  3  2  0  0  0  0
  6  2  1  0  0  0  0
  8 14  1  0  0  0  0
  8 13  2  0  0  0  0
  9 11  1  0  0  0  0
 10  7  1  0  0  0  0
 11 27  1  0  0  0  0
 11 14  1  0  0  0  0
 13 16  1  0  0  0  0
 14 12  2  0  0  0  0
 15  1  2  0  0  0  0
 15  5  1  0  0  0  0
 16  7  2  0  0  0  0
 17 22  2  0  0  0  0
 18 22  1  0  0  0  0
 20 24  1  0  0  0  0
 21 23  2  0  0  0  0
 21 17  1  0  0  0  0
 22 15  1  0  0  0  0
 23 18  1  0  0  0  0
 24 23  1  0  0  0  0
 25 21  1  0  0  0  0
 26 19  1  6  0  0  0
 26 20  1  0  0  0  0
 26 25  1  0  0  0  0
 28 29  1  0  0  0  0
 28 27  1  0  0  0  0
 30 29  1  0  0  0  0
 31 30  1  0  0  0  0
 32 36  1  0  0  0  0
 32 35  1  0  0  0  0
 33 31  1  1  0  0  0
 34 33  1  0  0  0  0
 35 37  1  1  0  0  0
 35 33  1  0  0  0  0
 36 34  1  0  0  0  0
 38 39  1  0  0  0  0
 38 37  1  0  0  0  0
 39 41  1  6  0  0  0
 39 40  1  0  0  0  0
M  END
>  <MODEL>
2

>  <REMARK>
 VINA RESULT:     -10.0      0.274      1.066
  Name = 
  10 active torsions:
  status: ('A' for Active; 'I' for Inactive)
    1  A    between atoms: C_1  and  C_33
    2  A    between atoms: C_4  and  C_21
    3  A    between atoms: C_4  and  C_29
    4  A    between atoms: N_6  and  C_33
    5  A    between atoms: N_6  and  C_40
    6  A    between atoms: C_8  and  O_28
    7  A    between atoms: C_8  and  C_29
    8  A    between atoms: C_11  and  O_28
    9  A    between atoms: C_21  and  N_22
   10  A    between atoms: C_30  and  C_37
                            x       y       z     vdW  Elec       q    Type
                         _______ _______ _______ _____ _____    ______ ____

>  <TORSDO>
F 10

$$$$
=
 OpenBabel10222420353D

 41 46  0  0  1  0  0  0  0  0999 V2000
  188.4740  177.6390  142.8040 C   0  0  0  0  0  0  0  0  0  0  0  0
  189.1870  177.1380  146.9130 C   0  0  0  0  0  0  0  0  0  0  0  0
  188.9650  177.3060  145.5330 C   0  0  0  0  0  0  0  0  0  0  0  0
  188.2270  177.9130  141.3410 C   0  0  0  0  0  2  0  0  0  0  0  0
  187.7190  177.5940  145.0760 N   0  0  0  0  0  0  0  0  0  0  0  0
  188.0790  177.2820  147.8990 C   0  0  0  0  0  1  0  0  0  0  0  0
  191.5270  176.6890  146.4860 C   0  0  0  0  0  3  0  0  0  0  0  0
  189.7890  177.3480  143.2400 C   0  0  0  0  0  0  0  0  0  0  0  0
  189.0660  176.9860  140.4710 C   0  0  0  0  0  2  0  0  0  0  0  0
  190.4660  176.8310  147.3810 C   0  0  0  0  0  3  0  0  0  0  0  0
  190.4720  177.1270  140.8180 N   0  0  0  0  0  0  0  0  0  0  0  0
  192.0760  177.2410  142.5120 O   0  0  0  0  0  0  0  0  0  0  0  0
  190.0370  177.1720  144.6210 C   0  0  0  0  0  0  0  0  0  0  0  0
  190.8550  177.2230  142.2000 C   0  0  0  0  0  0  0  0  0  0  0  0
  187.4340  177.7610  143.7570 C   0  0  0  0  0  0  0  0  0  0  0  0
  191.3110  176.8580  145.1170 C   0  0  0  0  0  3  0  0  0  0  0  0
  185.0770  178.2870  144.3430 N   0  0  0  0  0  0  0  0  0  0  0  0
  185.5590  178.1270  142.1290 N   0  0  0  0  0  0  0  0  0  0  0  0
  180.2480  179.3000  143.5280 C   0  0  0  0  0  1  0  0  0  0  0  0
  181.8330  178.5550  141.7480 C   0  0  0  0  0  2  0  0  0  0  0  0
  183.9700  178.5170  143.6200 C   0  0  1  0  0  3  0  0  0  0  0  0
  186.0270  178.0660  143.4010 C   0  0  0  0  0  0  0  0  0  0  0  0
  184.2540  178.3920  142.2920 C   0  0  0  0  0  0  0  0  0  0  0  0
  183.2640  178.6470  141.2000 C   0  0  0  0  0  2  0  0  0  0  0  0
  182.5960  178.7530  144.1630 C   0  0  0  0  0  2  0  0  0  0  0  0
  181.6890  179.3340  143.0660 C   0  0  2  0  0  3  0  0  0  0  0  0
  191.4410  177.2930  139.7450 C   0  0  0  0  0  2  0  0  0  0  0  0
  190.7880  177.0230  138.4000 C   0  0  0  0  0  2  0  0  0  0  0  0
  191.5370  175.9290  137.6610 C   0  0  0  0  0  2  0  0  0  0  0  0
  190.5920  174.7980  137.2980 C   0  0  0  0  0  2  0  0  0  0  0  0
  189.4210  175.3210  136.7500 O   0  0  0  0  0  0  0  0  0  0  0  0
  185.7970  173.7840  136.9930 S   0  0  0  0  0  0  0  0  0  0  0  0
  188.4140  174.4360  137.1500 C   0  0  2  0  0  3  0  0  0  0  0  0
  188.3360  173.2570  136.2130 C   0  0  0  0  0  2  0  0  0  0  0  0
  187.0450  175.1030  137.1470 C   0  0  1  0  0  3  0  0  0  0  0  0
  187.0530  172.5380  136.5580 C   0  0  0  0  0  2  0  0  0  0  0  0
  186.9140  176.0160  136.0220 N   0  0  0  0  0  2  0  0  0  0  0  0
  186.1720  177.1710  136.5000 C   0  0  0  0  0  2  0  0  0  0  0  0
  186.9710  177.8930  137.5680 C   0  0  2  0  0  3  0  0  0  0  0  0
  186.1140  178.6500  138.3680 O   0  0  0  0  0  1  0  0  0  0  0  0
  187.9780  178.8090  136.9060 C   0  0  0  0  0  1  0  0  0  0  0  0
  1  8  2  0  0  0  0
  1 15  1  0  0  0  0
  2 10  1  0  0  0  0
  2  6  1  0  0  0  0
  3  2  2  0  0  0  0
  4  1  1  0  0  0  0
  5  3  1  0  0  0  0
  7 10  2  0  0  0  0
  8 13  1  0  0  0  0
  9 11  1  0  0  0  0
  9  4  1  0  0  0  0
 11 14  1  0  0  0  0
 13 16  2  0  0  0  0
 13  3  1  0  0  0  0
 14 12  2  0  0  0  0
 14  8  1  0  0  0  0
 15  5  2  0  0  0  0
 16  7  1  0  0  0  0
 18 23  2  0  0  0  0
 18 22  1  0  0  0  0
 20 26  1  0  0  0  0
 21 25  1  1  0  0  0
 21 17  1  0  0  0  0
 22 15  1  0  0  0  0
 22 17  2  0  0  0  0
 23 21  1  0  0  0  0
 24 20  1  0  0  0  0
 24 23  1  0  0  0  0
 26 19  1  1  0  0  0
 26 25  1  0  0  0  0
 27 11  1  0  0  0  0
 28 27  1  0  0  0  0
 29 28  1  0  0  0  0
 30 29  1  0  0  0  0
 31 30  1  0  0  0  0
 32 35  1  0  0  0  0
 33 31  1  6  0  0  0
 34 36  1  0  0  0  0
 34 33  1  0  0  0  0
 35 37  1  6  0  0  0
 35 33  1  0  0  0  0
 36 32  1  0  0  0  0
 37 38  1  0  0  0  0
 38 39  1  0  0  0  0
 39 41  1  6  0  0  0
 39 40  1  0  0  0  0
M  END
>  <MODEL>
3

>  <REMARK>
 VINA RESULT:      -9.4      2.771      7.067
  Name = 
  10 active torsions:
  status: ('A' for Active; 'I' for Inactive)
    1  A    between atoms: C_1  and  C_33
    2  A    between atoms: C_4  and  C_21
    3  A    between atoms: C_4  and  C_29
    4  A    between atoms: N_6  and  C_33
    5  A    between atoms: N_6  and  C_40
    6  A    between atoms: C_8  and  O_28
    7  A    between atoms: C_8  and  C_29
    8  A    between atoms: C_11  and  O_28
    9  A    between atoms: C_21  and  N_22
   10  A    between atoms: C_30  and  C_37
                            x       y       z     vdW  Elec       q    Type
                         _______ _______ _______ _____ _____    ______ ____

>  <TORSDO>
F 10

$$$$
=
 OpenBabel10222420353D

 41 46  0  0  1  0  0  0  0  0999 V2000
  186.8220  178.0460  143.5260 C   0  0  0  0  0  0  0  0  0  0  0  0
  189.8020  177.2370  146.3730 C   0  0  0  0  0  0  0  0  0  0  0  0
  188.7910  177.5070  145.4310 C   0  0  0  0  0  0  0  0  0  0  0  0
  185.7350  178.2420  142.4980 C   0  0  0  0  0  2  0  0  0  0  0  0
  189.0640  177.4390  144.1030 N   0  0  0  0  0  0  0  0  0  0  0  0
  191.1790  176.8590  145.9440 C   0  0  0  0  0  1  0  0  0  0  0  0
  188.2450  177.6700  148.1740 C   0  0  0  0  0  3  0  0  0  0  0  0
  186.4930  178.1210  144.9010 C   0  0  0  0  0  0  0  0  0  0  0  0
  184.7770  179.3440  142.9310 C   0  0  0  0  0  2  0  0  0  0  0  0
  189.5230  177.3190  147.7390 C   0  0  0  0  0  3  0  0  0  0  0  0
  184.2300  179.0290  144.2430 N   0  0  0  0  0  0  0  0  0  0  0  0
  184.6490  178.3220  146.4290 O   0  0  0  0  0  0  0  0  0  0  0  0
  187.4920  177.8560  145.8660 C   0  0  0  0  0  0  0  0  0  0  0  0
  185.0930  178.4990  145.2620 C   0  0  0  0  0  0  0  0  0  0  0  0
  188.1380  177.6950  143.1420 C   0  0  0  0  0  0  0  0  0  0  0  0
  187.2390  177.9370  147.2440 C   0  0  0  0  0  3  0  0  0  0  0  0
  189.6080  176.7870  141.3540 N   0  0  0  0  0  0  0  0  0  0  0  0
  188.0260  178.2820  140.7030 N   0  0  0  0  0  0  0  0  0  0  0  0
  191.3920  176.1980  136.7200 C   0  0  0  0  0  1  0  0  0  0  0  0
  189.7400  177.9580  137.3620 C   0  0  0  0  0  2  0  0  0  0  0  0
  189.6830  176.9780  140.0280 C   0  0  1  0  0  3  0  0  0  0  0  0
  188.5790  177.5880  141.7290 C   0  0  0  0  0  0  0  0  0  0  0  0
  188.7520  177.8980  139.6430 C   0  0  0  0  0  0  0  0  0  0  0  0
  188.5150  178.2990  138.2210 C   0  0  0  0  0  2  0  0  0  0  0  0
  190.7010  176.3830  139.1080 C   0  0  0  0  0  2  0  0  0  0  0  0
  190.2440  176.5330  137.6490 C   0  0  2  0  0  3  0  0  0  0  0  0
  182.7930  179.1470  144.4450 C   0  0  0  0  0  2  0  0  0  0  0  0
  182.0470  178.6470  143.2190 C   0  0  0  0  0  2  0  0  0  0  0  0
  180.9410  179.6170  142.8450 C   0  0  0  0  0  2  0  0  0  0  0  0
  180.2620  179.1690  141.5630 C   0  0  0  0  0  2  0  0  0  0  0  0
  180.4890  180.1080  140.5570 O   0  0  0  0  0  0  0  0  0  0  0  0
  180.9920  179.3370  136.7220 S   0  0  0  0  0  0  0  0  0  0  0  0
  180.4440  179.3740  139.3670 C   0  0  2  0  0  3  0  0  0  0  0  0
  181.6850  178.5310  139.2130 C   0  0  0  0  0  2  0  0  0  0  0  0
  180.3640  180.2820  138.1470 C   0  0  1  0  0  3  0  0  0  0  0  0
  181.6680  178.0240  137.7890 C   0  0  0  0  0  2  0  0  0  0  0  0
  181.1840  181.4700  138.3300 N   0  0  0  0  0  2  0  0  0  0  0  0
  180.3220  182.6170  138.0920 C   0  0  0  0  0  2  0  0  0  0  0  0
  181.0690  183.6670  137.2920 C   0  0  2  0  0  3  0  0  0  0  0  0
  180.5330  184.9290  137.5540 O   0  0  0  0  0  1  0  0  0  0  0  0
  180.9310  183.3620  135.8150 C   0  0  0  0  0  1  0  0  0  0  0  0
  1  8  1  0  0  0  0
  2 10  2  0  0  0  0
  3 13  1  0  0  0  0
  3  2  1  0  0  0  0
  4  9  1  0  0  0  0
  4  1  1  0  0  0  0
  5  3  2  0  0  0  0
  6  2  1  0  0  0  0
  8 14  1  0  0  0  0
  8 13  2  0  0  0  0
  9 11  1  0  0  0  0
 10  7  1  0  0  0  0
 11 27  1  0  0  0  0
 11 14  1  0  0  0  0
 13 16  1  0  0  0  0
 14 12  2  0  0  0  0
 15  1  2  0  0  0  0
 15  5  1  0  0  0  0
 16  7  2  0  0  0  0
 17 22  2  0  0  0  0
 18 22  1  0  0  0  0
 20 26  1  0  0  0  0
 20 24  1  0  0  0  0
 21 25  1  1  0  0  0
 21 17  1  0  0  0  0
 22 15  1  0  0  0  0
 23 21  1  0  0  0  0
 23 18  2  0  0  0  0
 24 23  1  0  0  0  0
 26 19  1  6  0  0  0
 26 25  1  0  0  0  0
 28 27  1  0  0  0  0
 29 28  1  0  0  0  0
 30 29  1  0  0  0  0
 31 30  1  0  0  0  0
 32 36  1  0  0  0  0
 32 35  1  0  0  0  0
 33 31  1  1  0  0  0
 34 33  1  0  0  0  0
 35 37  1  1  0  0  0
 35 33  1  0  0  0  0
 36 34  1  0  0  0  0
 38 37  1  0  0  0  0
 39 41  1  6  0  0  0
 39 40  1  0  0  0  0
 39 38  1  0  0  0  0
M  END
>  <MODEL>
4

>  <REMARK>
 VINA RESULT:      -9.3      1.811      2.112
  Name = 
  10 active torsions:
  status: ('A' for Active; 'I' for Inactive)
    1  A    between atoms: C_1  and  C_33
    2  A    between atoms: C_4  and  C_21
    3  A    between atoms: C_4  and  C_29
    4  A    between atoms: N_6  and  C_33
    5  A    between atoms: N_6  and  C_40
    6  A    between atoms: C_8  and  O_28
    7  A    between atoms: C_8  and  C_29
    8  A    between atoms: C_11  and  O_28
    9  A    between atoms: C_21  and  N_22
   10  A    between atoms: C_30  and  C_37
                            x       y       z     vdW  Elec       q    Type
                         _______ _______ _______ _____ _____    ______ ____

>  <TORSDO>
F 10

$$$$
=
 OpenBabel10222420353D

 41 46  0  0  1  0  0  0  0  0999 V2000
  188.3770  177.6700  143.0730 C   0  0  0  0  0  0  0  0  0  0  0  0
  189.0530  177.3880  147.2100 C   0  0  0  0  0  0  0  0  0  0  0  0
  188.8430  177.4820  145.8210 C   0  0  0  0  0  0  0  0  0  0  0  0
  188.1450  177.8660  141.5950 C   0  0  0  0  0  2  0  0  0  0  0  0
  187.6040  177.7550  145.3370 N   0  0  0  0  0  0  0  0  0  0  0  0
  187.9370  177.5950  148.1760 C   0  0  0  0  0  1  0  0  0  0  0  0
  191.3910  176.8960  146.8270 C   0  0  0  0  0  3  0  0  0  0  0  0
  189.6860  177.3920  143.5350 C   0  0  0  0  0  0  0  0  0  0  0  0
  188.9820  176.8860  140.7840 C   0  0  0  0  0  2  0  0  0  0  0  0
  190.3250  177.0960  147.7050 C   0  0  0  0  0  3  0  0  0  0  0  0
  190.3870  177.0340  141.1350 N   0  0  0  0  0  0  0  0  0  0  0  0
  191.9780  177.2260  142.8340 O   0  0  0  0  0  0  0  0  0  0  0  0
  189.9210  177.2890  144.9260 C   0  0  0  0  0  0  0  0  0  0  0  0
  190.7590  177.2010  142.5130 C   0  0  0  0  0  0  0  0  0  0  0  0
  187.3310  177.8530  144.0090 C   0  0  0  0  0  0  0  0  0  0  0  0
  191.1890  176.9920  145.4490 C   0  0  0  0  0  3  0  0  0  0  0  0
  184.9540  178.3430  144.5480 N   0  0  0  0  0  0  0  0  0  0  0  0
  185.4910  178.2290  142.3430 N   0  0  0  0  0  2  0  0  0  0  0  0
  180.1360  179.3220  143.6350 C   0  0  0  0  0  1  0  0  0  0  0  0
  181.7710  178.6260  141.8810 C   0  0  0  0  0  2  0  0  0  0  0  0
  183.8630  178.5760  143.8030 C   0  0  0  0  0  0  0  0  0  0  0  0
  185.9290  178.1500  143.6250 C   0  0  0  0  0  0  0  0  0  0  0  0
  184.1790  178.4780  142.4800 C   0  0  0  0  0  0  0  0  0  0  0  0
  183.2130  178.7430  141.3690 C   0  0  0  0  0  2  0  0  0  0  0  0
  182.4740  178.7880  144.3160 C   0  0  0  0  0  2  0  0  0  0  0  0
  181.5880  179.3790  143.2090 C   0  0  2  0  0  3  0  0  0  0  0  0
  191.3660  177.1320  140.0630 C   0  0  0  0  0  2  0  0  0  0  0  0
  191.0540  176.1220  138.9710 C   0  0  0  0  0  2  0  0  0  0  0  0
  191.1140  176.7860  137.6080 C   0  0  0  0  0  2  0  0  0  0  0  0
  189.7950  177.4710  137.2990 C   0  0  0  0  0  2  0  0  0  0  0  0
  188.9010  176.5470  136.7580 O   0  0  0  0  0  0  0  0  0  0  0  0
  185.0050  177.1200  136.5360 S   0  0  0  0  0  0  0  0  0  0  0  0
  187.7020  177.2540  136.6140 C   0  0  2  0  0  3  0  0  0  0  0  0
  187.2230  177.7690  137.9480 C   0  0  0  0  0  2  0  0  0  0  0  0
  186.5940  176.3750  136.0480 C   0  0  1  0  0  3  0  0  0  0  0  0
  185.8070  178.2460  137.7240 C   0  0  0  0  0  2  0  0  0  0  0  0
  186.6740  175.0270  136.5890 N   0  0  0  0  0  2  0  0  0  0  0  0
  185.3440  174.4490  136.4770 C   0  0  0  0  0  2  0  0  0  0  0  0
  185.1200  173.4480  137.5950 C   0  0  2  0  0  3  0  0  0  0  0  0
  186.3370  172.8760  137.9680 O   0  0  0  0  0  1  0  0  0  0  0  0
  184.1830  172.3610  137.1120 C   0  0  0  0  0  1  0  0  0  0  0  0
  1  8  2  0  0  0  0
  1 15  1  0  0  0  0
  2 10  1  0  0  0  0
  2  6  1  0  0  0  0
  3  2  2  0  0  0  0
  4  1  1  0  0  0  0
  5  3  1  0  0  0  0
  7 10  2  0  0  0  0
  8 13  1  0  0  0  0
  9 11  1  0  0  0  0
  9  4  1  0  0  0  0
 11 14  1  0  0  0  0
 13 16  2  0  0  0  0
 13  3  1  0  0  0  0
 14 12  2  0  0  0  0
 14  8  1  0  0  0  0
 15  5  2  0  0  0  0
 16  7  1  0  0  0  0
 18 23  1  0  0  0  0
 18 22  1  0  0  0  0
 20 26  1  0  0  0  0
 21 25  1  0  0  0  0
 21 17  1  0  0  0  0
 22 15  1  0  0  0  0
 22 17  2  0  0  0  0
 23 21  2  0  0  0  0
 24 20  1  0  0  0  0
 24 23  1  0  0  0  0
 26 19  1  1  0  0  0
 26 25  1  0  0  0  0
 27 11  1  0  0  0  0
 28 27  1  0  0  0  0
 29 28  1  0  0  0  0
 30 29  1  0  0  0  0
 31 30  1  0  0  0  0
 32 36  1  0  0  0  0
 33 31  1  1  0  0  0
 33 34  1  0  0  0  0
 35 32  1  0  0  0  0
 35 37  1  1  0  0  0
 35 33  1  0  0  0  0
 36 34  1  0  0  0  0
 38 37  1  0  0  0  0
 38 39  1  0  0  0  0
 39 41  1  6  0  0  0
 39 40  1  0  0  0  0
M  END
>  <MODEL>
5

>  <REMARK>
 VINA RESULT:      -9.2      2.856      6.917
  Name = 
  10 active torsions:
  status: ('A' for Active; 'I' for Inactive)
    1  A    between atoms: C_1  and  C_33
    2  A    between atoms: C_4  and  C_21
    3  A    between atoms: C_4  and  C_29
    4  A    between atoms: N_6  and  C_33
    5  A    between atoms: N_6  and  C_40
    6  A    between atoms: C_8  and  O_28
    7  A    between atoms: C_8  and  C_29
    8  A    between atoms: C_11  and  O_28
    9  A    between atoms: C_21  and  N_22
   10  A    between atoms: C_30  and  C_37
                            x       y       z     vdW  Elec       q    Type
                         _______ _______ _______ _____ _____    ______ ____

>  <TORSDO>
F 10

$$$$
=
 OpenBabel10222420353D

 41 46  0  0  1  0  0  0  0  0999 V2000
  188.4600  177.6250  142.8690 C   0  0  0  0  0  0  0  0  0  0  0  0
  189.2180  177.1840  146.9770 C   0  0  0  0  0  0  0  0  0  0  0  0
  188.9810  177.3320  145.5970 C   0  0  0  0  0  0  0  0  0  0  0  0
  188.1980  177.8780  141.4050 C   0  0  0  0  0  2  0  0  0  0  0  0
  187.7320  177.6180  145.1490 N   0  0  0  0  0  0  0  0  0  0  0  0
  188.1210  177.3470  147.9730 C   0  0  0  0  0  1  0  0  0  0  0  0
  191.5510  176.7180  146.5300 C   0  0  0  0  0  3  0  0  0  0  0  0
  189.7790  177.3350  143.2940 C   0  0  0  0  0  0  0  0  0  0  0  0
  189.0230  176.9340  140.5390 C   0  0  0  0  0  2  0  0  0  0  0  0
  190.5010  176.8780  147.4350 C   0  0  0  0  0  3  0  0  0  0  0  0
  190.4340  177.0750  140.8680 N   0  0  0  0  0  0  0  0  0  0  0  0
  192.0570  177.2070  142.5420 O   0  0  0  0  0  0  0  0  0  0  0  0
  190.0420  177.1790  144.6750 C   0  0  0  0  0  0  0  0  0  0  0  0
  190.8320  177.1890  142.2440 C   0  0  0  0  0  0  0  0  0  0  0  0
  187.4320  177.7670  143.8320 C   0  0  0  0  0  0  0  0  0  0  0  0
  191.3210  176.8660  145.1610 C   0  0  0  0  0  3  0  0  0  0  0  0
  185.0780  178.2870  144.4360 N   0  0  0  0  0  0  0  0  0  0  0  0
  185.5450  178.1400  142.2180 N   0  0  0  0  0  2  0  0  0  0  0  0
  180.2440  179.3010  143.6610 C   0  0  0  0  0  1  0  0  0  0  0  0
  181.8160  178.5670  141.8650 C   0  0  0  0  0  2  0  0  0  0  0  0
  183.9660  178.5210  143.7230 C   0  0  0  0  0  0  0  0  0  0  0  0
  186.0220  178.0720  143.4860 C   0  0  0  0  0  0  0  0  0  0  0  0
  184.2410  178.4030  142.3920 C   0  0  0  0  0  0  0  0  0  0  0  0
  183.2430  178.6640  141.3080 C   0  0  0  0  0  2  0  0  0  0  0  0
  182.5960  178.7530  144.2760 C   0  0  0  0  0  2  0  0  0  0  0  0
  181.6820  179.3390  143.1890 C   0  0  2  0  0  3  0  0  0  0  0  0
  191.3910  177.2200  139.7820 C   0  0  0  0  0  2  0  0  0  0  0  0
  190.9850  176.3510  138.6030 C   0  0  0  0  0  2  0  0  0  0  0  0
  191.9530  176.5430  137.4500 C   0  0  0  0  0  2  0  0  0  0  0  0
  193.0880  175.5390  137.5460 C   0  0  0  0  0  2  0  0  0  0  0  0
  194.0130  175.7760  136.5290 O   0  0  0  0  0  0  0  0  0  0  0  0
  196.4790  172.7010  136.4170 S   0  0  0  0  0  0  0  0  0  0  0  0
  194.4870  174.5090  136.1740 C   0  0  2  0  0  3  0  0  0  0  0  0
  193.9820  173.4630  137.1370 C   0  0  0  0  0  2  0  0  0  0  0  0
  196.0080  174.4480  136.2020 C   0  0  1  0  0  3  0  0  0  0  0  0
  194.7770  172.2110  136.8430 C   0  0  0  0  0  2  0  0  0  0  0  0
  196.5390  175.2250  137.3120 N   0  0  0  0  0  2  0  0  0  0  0  0
  197.2910  174.3030  138.1500 C   0  0  0  0  0  2  0  0  0  0  0  0
  196.9310  174.5190  139.6070 C   0  0  2  0  0  3  0  0  0  0  0  0
  195.7240  175.2140  139.6980 O   0  0  0  0  0  1  0  0  0  0  0  0
  198.0240  175.3230  140.2780 C   0  0  0  0  0  1  0  0  0  0  0  0
  1  8  2  0  0  0  0
  1 15  1  0  0  0  0
  2 10  1  0  0  0  0
  2  6  1  0  0  0  0
  3  2  2  0  0  0  0
  4  1  1  0  0  0  0
  5  3  1  0  0  0  0
  7 10  2  0  0  0  0
  8 13  1  0  0  0  0
  9 11  1  0  0  0  0
  9  4  1  0  0  0  0
 11 14  1  0  0  0  0
 13 16  2  0  0  0  0
 13  3  1  0  0  0  0
 14 12  2  0  0  0  0
 14  8  1  0  0  0  0
 15  5  2  0  0  0  0
 16  7  1  0  0  0  0
 18 23  1  0  0  0  0
 18 22  1  0  0  0  0
 20 26  1  0  0  0  0
 21 25  1  0  0  0  0
 21 17  1  0  0  0  0
 22 15  1  0  0  0  0
 22 17  2  0  0  0  0
 23 21  2  0  0  0  0
 24 20  1  0  0  0  0
 24 23  1  0  0  0  0
 26 19  1  1  0  0  0
 26 25  1  0  0  0  0
 27 11  1  0  0  0  0
 28 27  1  0  0  0  0
 29 30  1  0  0  0  0
 29 28  1  0  0  0  0
 31 30  1  0  0  0  0
 32 36  1  0  0  0  0
 33 35  1  0  0  0  0
 33 31  1  1  0  0  0
 33 34  1  0  0  0  0
 35 32  1  0  0  0  0
 35 37  1  1  0  0  0
 36 34  1  0  0  0  0
 37 38  1  0  0  0  0
 38 39  1  0  0  0  0
 39 40  1  0  0  0  0
 39 41  1  6  0  0  0
M  END
>  <MODEL>
6

>  <REMARK>
 VINA RESULT:      -9.1      4.809      9.880
  Name = 
  10 active torsions:
  status: ('A' for Active; 'I' for Inactive)
    1  A    between atoms: C_1  and  C_33
    2  A    between atoms: C_4  and  C_21
    3  A    between atoms: C_4  and  C_29
    4  A    between atoms: N_6  and  C_33
    5  A    between atoms: N_6  and  C_40
    6  A    between atoms: C_8  and  O_28
    7  A    between atoms: C_8  and  C_29
    8  A    between atoms: C_11  and  O_28
    9  A    between atoms: C_21  and  N_22
   10  A    between atoms: C_30  and  C_37
                            x       y       z     vdW  Elec       q    Type
                         _______ _______ _______ _____ _____    ______ ____

>  <TORSDO>
F 10

$$$$
=
 OpenBabel10222420353D

 41 46  0  0  1  0  0  0  0  0999 V2000
  186.9150  178.0310  143.6290 C   0  0  0  0  0  0  0  0  0  0  0  0
  190.0100  177.1600  146.3320 C   0  0  0  0  0  0  0  0  0  0  0  0
  188.9610  177.4520  145.4390 C   0  0  0  0  0  0  0  0  0  0  0  0
  185.7850  178.2500  142.6540 C   0  0  0  0  0  2  0  0  0  0  0  0
  189.1690  177.3790  144.0990 N   0  0  0  0  0  0  0  0  0  0  0  0
  191.3570  176.7550  145.8390 C   0  0  0  0  0  1  0  0  0  0  0  0
  188.5490  177.6240  148.2050 C   0  0  0  0  0  3  0  0  0  0  0  0
  186.6530  178.1120  145.0180 C   0  0  0  0  0  0  0  0  0  0  0  0
  184.8710  179.3710  143.1310 C   0  0  0  0  0  2  0  0  0  0  0  0
  189.7980  177.2480  147.7090 C   0  0  0  0  0  3  0  0  0  0  0  0
  184.3800  179.0670  144.4680 N   0  0  0  0  0  0  0  0  0  0  0  0
  184.8890  178.3510  146.6320 O   0  0  0  0  0  0  0  0  0  0  0  0
  187.6910  177.8260  145.9350 C   0  0  0  0  0  0  0  0  0  0  0  0
  185.2800  178.5190  145.4450 C   0  0  0  0  0  0  0  0  0  0  0  0
  188.2040  177.6540  143.1830 C   0  0  0  0  0  0  0  0  0  0  0  0
  187.5060  177.9120  147.3230 C   0  0  0  0  0  3  0  0  0  0  0  0
  189.5920  176.7450  141.3320 N   0  0  0  0  0  0  0  0  0  0  0  0
  187.9640  178.2180  140.7480 N   0  0  0  0  0  2  0  0  0  0  0  0
  191.1490  176.1320  136.6200 C   0  0  0  0  0  1  0  0  0  0  0  0
  189.5130  177.8810  137.3280 C   0  0  0  0  0  2  0  0  0  0  0  0
  189.5990  176.9240  140.0030 C   0  0  0  0  0  0  0  0  0  0  0  0
  188.5750  177.5380  141.7510 C   0  0  0  0  0  0  0  0  0  0  0  0
  188.6410  177.8310  139.6560 C   0  0  0  0  0  0  0  0  0  0  0  0
  188.3290  178.2170  138.2450 C   0  0  0  0  0  2  0  0  0  0  0  0
  190.5770  176.3310  139.0380 C   0  0  0  0  0  2  0  0  0  0  0  0
  190.0450  176.4640  137.6020 C   0  0  2  0  0  3  0  0  0  0  0  0
  182.9570  179.2140  144.7380 C   0  0  0  0  0  2  0  0  0  0  0  0
  182.1430  178.6630  143.5800 C   0  0  0  0  0  2  0  0  0  0  0  0
  180.6750  178.5880  143.9570 C   0  0  0  0  0  2  0  0  0  0  0  0
  179.8130  178.5560  142.7080 C   0  0  0  0  0  2  0  0  0  0  0  0
  180.3080  177.6030  141.8180 O   0  0  0  0  0  0  0  0  0  0  0  0
  180.9280  178.0810  137.9520 S   0  0  0  0  0  0  0  0  0  0  0  0
  180.4240  178.2800  140.5990 C   0  0  2  0  0  3  0  0  0  0  0  0
  179.0830  178.3750  139.9140 C   0  0  0  0  0  2  0  0  0  0  0  0
  181.3670  177.5620  139.6430 C   0  0  1  0  0  3  0  0  0  0  0  0
  179.3700  178.8460  138.5060 C   0  0  0  0  0  2  0  0  0  0  0  0
  181.2170  176.1190  139.7520 N   0  0  0  0  0  2  0  0  0  0  0  0
  180.9170  175.6240  138.4180 C   0  0  0  0  0  2  0  0  0  0  0  0
  179.9180  174.4860  138.5010 C   0  0  2  0  0  3  0  0  0  0  0  0
  178.9540  174.6300  137.5020 O   0  0  0  0  0  1  0  0  0  0  0  0
  179.2430  174.5120  139.8560 C   0  0  0  0  0  1  0  0  0  0  0  0
  1  8  1  0  0  0  0
  2 10  2  0  0  0  0
  3 13  1  0  0  0  0
  3  2  1  0  0  0  0
  4  9  1  0  0  0  0
  4  1  1  0  0  0  0
  5  3  2  0  0  0  0
  6  2  1  0  0  0  0
  8 14  1  0  0  0  0
  8 13  2  0  0  0  0
  9 11  1  0  0  0  0
 10  7  1  0  0  0  0
 11 27  1  0  0  0  0
 11 14  1  0  0  0  0
 13 16  1  0  0  0  0
 14 12  2  0  0  0  0
 15  1  2  0  0  0  0
 15  5  1  0  0  0  0
 16  7  2  0  0  0  0
 17 22  2  0  0  0  0
 18 22  1  0  0  0  0
 20 26  1  0  0  0  0
 20 24  1  0  0  0  0
 21 17  1  0  0  0  0
 22 15  1  0  0  0  0
 23 21  2  0  0  0  0
 23 18  1  0  0  0  0
 24 23  1  0  0  0  0
 25 21  1  0  0  0  0
 26 19  1  6  0  0  0
 26 25  1  0  0  0  0
 28 29  1  0  0  0  0
 28 27  1  0  0  0  0
 30 29  1  0  0  0  0
 31 30  1  0  0  0  0
 32 36  1  0  0  0  0
 32 35  1  0  0  0  0
 33 31  1  1  0  0  0
 34 33  1  0  0  0  0
 35 37  1  6  0  0  0
 35 33  1  0  0  0  0
 36 34  1  0  0  0  0
 38 39  1  0  0  0  0
 38 37  1  0  0  0  0
 39 41  1  1  0  0  0
 40 39  1  0  0  0  0
M  END
>  <MODEL>
7

>  <REMARK>
 VINA RESULT:      -9.0      1.408      2.152
  Name = 
  10 active torsions:
  status: ('A' for Active; 'I' for Inactive)
    1  A    between atoms: C_1  and  C_33
    2  A    between atoms: C_4  and  C_21
    3  A    between atoms: C_4  and  C_29
    4  A    between atoms: N_6  and  C_33
    5  A    between atoms: N_6  and  C_40
    6  A    between atoms: C_8  and  O_28
    7  A    between atoms: C_8  and  C_29
    8  A    between atoms: C_11  and  O_28
    9  A    between atoms: C_21  and  N_22
   10  A    between atoms: C_30  and  C_37
                            x       y       z     vdW  Elec       q    Type
                         _______ _______ _______ _____ _____    ______ ____

>  <TORSDO>
F 10

$$$$
=
 OpenBabel10222420353D

 41 46  0  0  1  0  0  0  0  0999 V2000
  187.7950  178.0460  142.5450 C   0  0  0  0  0  0  0  0  0  0  0  0
  186.6140  178.0180  146.5760 C   0  0  0  0  0  0  0  0  0  0  0  0
  187.0260  178.0280  145.2300 C   0  0  0  0  0  0  0  0  0  0  0  0
  188.2260  178.1510  141.1040 C   0  0  0  0  0  2  0  0  0  0  0  0
  186.1190  178.2430  144.2430 N   0  0  0  0  0  0  0  0  0  0  0  0
  185.1900  178.2540  146.9520 C   0  0  0  0  0  1  0  0  0  0  0  0
  188.8850  177.5590  147.2730 C   0  0  0  0  0  3  0  0  0  0  0  0
  188.7740  177.8250  143.5440 C   0  0  0  0  0  0  0  0  0  0  0  0
  189.3280  177.1450  140.7960 C   0  0  0  0  0  2  0  0  0  0  0  0
  187.5450  177.7840  147.5900 C   0  0  0  0  0  3  0  0  0  0  0  0
  190.4430  177.3460  141.7100 N   0  0  0  0  0  0  0  0  0  0  0  0
  191.1430  177.6720  143.9140 O   0  0  0  0  0  0  0  0  0  0  0  0
  188.3840  177.8080  144.9030 C   0  0  0  0  0  0  0  0  0  0  0  0
  190.1830  177.6010  143.1000 C   0  0  0  0  0  0  0  0  0  0  0  0
  186.4480  178.2580  142.9250 C   0  0  0  0  0  0  0  0  0  0  0  0
  189.2990  177.5700  145.9400 C   0  0  0  0  0  3  0  0  0  0  0  0
  184.1520  177.8770  142.0530 N   0  0  0  0  0  0  0  0  0  0  0  0
  185.4500  179.3280  140.8840 N   0  0  0  0  0  2  0  0  0  0  0  0
  180.2530  178.4070  138.9680 C   0  0  0  0  0  1  0  0  0  0  0  0
  182.5300  179.3160  138.4990 C   0  0  0  0  0  2  0  0  0  0  0  0
  183.4640  178.3580  141.0070 C   0  0  0  0  0  0  0  0  0  0  0  0
  185.3520  178.5000  141.9540 C   0  0  0  0  0  0  0  0  0  0  0  0
  184.2540  179.2070  140.2890 C   0  0  0  0  0  0  0  0  0  0  0  0
  183.7840  179.9740  139.0930 C   0  0  0  0  0  2  0  0  0  0  0  0
  182.0850  177.9490  140.5940 C   0  0  0  0  0  2  0  0  0  0  0  0
  181.5110  178.9670  139.5960 C   0  0  2  0  0  3  0  0  0  0  0  0
  191.7910  177.4050  141.1620 C   0  0  0  0  0  2  0  0  0  0  0  0
  191.7480  177.2950  139.6470 C   0  0  0  0  0  2  0  0  0  0  0  0
  193.0640  176.7530  139.1220 C   0  0  0  0  0  2  0  0  0  0  0  0
  192.9320  176.3820  137.6550 C   0  0  0  0  0  2  0  0  0  0  0  0
  191.5970  176.4800  137.2640 O   0  0  0  0  0  0  0  0  0  0  0  0
  189.5670  173.8100  135.1890 S   0  0  0  0  0  0  0  0  0  0  0  0
  191.3040  175.2420  136.6830 C   0  0  2  0  0  3  0  0  0  0  0  0
  191.9250  175.1360  135.3120 C   0  0  0  0  0  2  0  0  0  0  0  0
  189.8050  175.0390  136.5130 C   0  0  1  0  0  3  0  0  0  0  0  0
  191.3120  173.9120  134.6720 C   0  0  0  0  0  2  0  0  0  0  0  0
  189.1530  176.2830  136.1300 N   0  0  0  0  0  2  0  0  0  0  0  0
  188.5000  176.8000  137.3220 C   0  0  0  0  0  2  0  0  0  0  0  0
  187.9600  178.1910  137.0530 C   0  0  2  0  0  3  0  0  0  0  0  0
  188.6770  179.1290  137.7970 O   0  0  0  0  0  1  0  0  0  0  0  0
  186.5000  178.2460  137.4510 C   0  0  0  0  0  1  0  0  0  0  0  0
  1 15  2  0  0  0  0
  1  8  1  0  0  0  0
  2  6  1  0  0  0  0
  2 10  2  0  0  0  0
  3  2  1  0  0  0  0
  4  1  1  0  0  0  0
  5  3  2  0  0  0  0
  7 10  1  0  0  0  0
  8 13  2  0  0  0  0
  9  4  1  0  0  0  0
  9 11  1  0  0  0  0
 11 14  1  0  0  0  0
 13  3  1  0  0  0  0
 13 16  1  0  0  0  0
 14  8  1  0  0  0  0
 14 12  2  0  0  0  0
 15  5  1  0  0  0  0
 16  7  2  0  0  0  0
 18 22  1  0  0  0  0
 20 24  1  0  0  0  0
 20 26  1  0  0  0  0
 21 17  1  0  0  0  0
 22 17  2  0  0  0  0
 22 15  1  0  0  0  0
 23 18  1  0  0  0  0
 23 21  2  0  0  0  0
 24 23  1  0  0  0  0
 25 21  1  0  0  0  0
 26 19  1  6  0  0  0
 26 25  1  0  0  0  0
 27 11  1  0  0  0  0
 28 27  1  0  0  0  0
 29 28  1  0  0  0  0
 30 29  1  0  0  0  0
 31 30  1  0  0  0  0
 32 35  1  0  0  0  0
 33 31  1  6  0  0  0
 34 33  1  0  0  0  0
 35 37  1  6  0  0  0
 35 33  1  0  0  0  0
 36 32  1  0  0  0  0
 36 34  1  0  0  0  0
 37 38  1  0  0  0  0
 39 38  1  0  0  0  0
 39 41  1  1  0  0  0
 39 40  1  0  0  0  0
M  END
>  <MODEL>
8

>  <REMARK>
 VINA RESULT:      -9.0      3.051      7.565
  Name = 
  10 active torsions:
  status: ('A' for Active; 'I' for Inactive)
    1  A    between atoms: C_1  and  C_33
    2  A    between atoms: C_4  and  C_21
    3  A    between atoms: C_4  and  C_29
    4  A    between atoms: N_6  and  C_33
    5  A    between atoms: N_6  and  C_40
    6  A    between atoms: C_8  and  O_28
    7  A    between atoms: C_8  and  C_29
    8  A    between atoms: C_11  and  O_28
    9  A    between atoms: C_21  and  N_22
   10  A    between atoms: C_30  and  C_37
                            x       y       z     vdW  Elec       q    Type
                         _______ _______ _______ _____ _____    ______ ____

>  <TORSDO>
F 10

$$$$
=
 OpenBabel10222420353D

 41 46  0  0  1  0  0  0  0  0999 V2000
  183.9250  178.4850  141.9580 C   0  0  0  0  0  0  0  0  0  0  0  0
  179.8100  178.9450  141.2500 C   0  0  0  0  0  0  0  0  0  0  0  0
  181.1870  178.7970  141.5030 C   0  0  0  0  0  0  0  0  0  0  0  0
  185.4140  178.4120  142.1900 C   0  0  0  0  0  2  0  0  0  0  0  0
  182.0420  178.5360  140.4810 N   0  0  0  0  0  0  0  0  0  0  0  0
  179.2610  178.8350  139.8690 C   0  0  0  0  0  1  0  0  0  0  0  0
  179.4120  179.3100  143.6090 C   0  0  0  0  0  3  0  0  0  0  0  0
  183.0690  178.7640  143.0520 C   0  0  0  0  0  0  0  0  0  0  0  0
  185.7200  177.7240  143.5130 C   0  0  0  0  0  2  0  0  0  0  0  0
  178.9310  179.2010  142.3040 C   0  0  0  0  0  3  0  0  0  0  0  0
  185.0380  178.4180  144.5960 N   0  0  0  0  0  0  0  0  0  0  0  0
  183.0550  179.3750  145.3750 O   0  0  0  0  0  0  0  0  0  0  0  0
  181.6820  178.9140  142.8230 C   0  0  0  0  0  0  0  0  0  0  0  0
  183.6860  178.8670  144.4090 C   0  0  0  0  0  0  0  0  0  0  0  0
  183.3800  178.3750  140.6560 C   0  0  0  0  0  0  0  0  0  0  0  0
  180.7760  179.1660  143.8650 C   0  0  0  0  0  3  0  0  0  0  0  0
  185.4230  178.6290  139.2640 N   0  0  0  0  0  0  0  0  0  0  0  0
  183.7850  177.2980  138.4250 N   0  0  0  0  0  2  0  0  0  0  0  0
  188.4270  177.9300  135.3280 C   0  0  0  0  0  1  0  0  0  0  0  0
  186.0450  177.1860  135.4100 C   0  0  0  0  0  2  0  0  0  0  0  0
  185.8060  178.1330  138.0780 C   0  0  0  0  0  0  0  0  0  0  0  0
  184.1930  178.0890  139.4490 C   0  0  0  0  0  0  0  0  0  0  0  0
  184.8100  177.3570  137.5610 C   0  0  0  0  0  0  0  0  0  0  0  0
  184.9260  176.5950  136.2790 C   0  0  0  0  0  2  0  0  0  0  0  0
  187.0720  178.4620  137.3520 C   0  0  0  0  0  2  0  0  0  0  0  0
  187.3190  177.4360  136.2340 C   0  0  2  0  0  3  0  0  0  0  0  0
  185.7920  178.7480  145.7960 C   0  0  0  0  0  2  0  0  0  0  0  0
  186.4400  177.4990  146.3710 C   0  0  0  0  0  2  0  0  0  0  0  0
  187.6100  177.8740  147.2610 C   0  0  0  0  0  2  0  0  0  0  0  0
  188.8790  177.2030  146.7700 C   0  0  0  0  0  2  0  0  0  0  0  0
  188.7910  176.9760  145.3970 O   0  0  0  0  0  0  0  0  0  0  0  0
  191.6950  177.3260  142.7510 S   0  0  0  0  0  0  0  0  0  0  0  0
  190.0930  177.1620  144.9200 C   0  0  2  0  0  3  0  0  0  0  0  0
  190.3880  178.6290  144.7330 C   0  0  0  0  0  2  0  0  0  0  0  0
  190.3020  176.4870  143.5710 C   0  0  1  0  0  3  0  0  0  0  0  0
  191.6800  178.6960  143.9520 C   0  0  0  0  0  2  0  0  0  0  0  0
  189.1140  176.6110  142.7400 N   0  0  0  0  0  2  0  0  0  0  0  0
  189.5390  176.4030  141.3640 C   0  0  0  0  0  2  0  0  0  0  0  0
  188.9260  177.4620  140.4680 C   0  0  2  0  0  3  0  0  0  0  0  0
  189.8590  177.8720  139.5150 O   0  0  0  0  0  1  0  0  0  0  0  0
  188.5140  178.6520  141.3100 C   0  0  0  0  0  1  0  0  0  0  0  0
  1  4  1  0  0  0  0
  1  8  1  0  0  0  0
  2  3  1  0  0  0  0
  2 10  2  0  0  0  0
  3 13  1  0  0  0  0
  4  9  1  0  0  0  0
  5 15  1  0  0  0  0
  5  3  2  0  0  0  0
  6  2  1  0  0  0  0
  7 16  2  0  0  0  0
  8 14  1  0  0  0  0
  9 11  1  0  0  0  0
 10  7  1  0  0  0  0
 11 27  1  0  0  0  0
 13  8  2  0  0  0  0
 13 16  1  0  0  0  0
 14 11  1  0  0  0  0
 14 12  2  0  0  0  0
 15  1  2  0  0  0  0
 17 22  2  0  0  0  0
 18 22  1  0  0  0  0
 20 26  1  0  0  0  0
 20 24  1  0  0  0  0
 21 17  1  0  0  0  0
 22 15  1  0  0  0  0
 23 21  2  0  0  0  0
 23 18  1  0  0  0  0
 24 23  1  0  0  0  0
 25 21  1  0  0  0  0
 26 19  1  6  0  0  0
 26 25  1  0  0  0  0
 27 28  1  0  0  0  0
 28 29  1  0  0  0  0
 30 29  1  0  0  0  0
 31 30  1  0  0  0  0
 32 35  1  0  0  0  0
 32 36  1  0  0  0  0
 33 31  1  6  0  0  0
 34 33  1  0  0  0  0
 35 37  1  6  0  0  0
 35 33  1  0  0  0  0
 36 34  1  0  0  0  0
 38 37  1  0  0  0  0
 39 41  1  1  0  0  0
 39 38  1  0  0  0  0
 40 39  1  0  0  0  0
M  END
>  <MODEL>
9

>  <REMARK>
 VINA RESULT:      -8.7      2.722      7.493
  Name = 
  10 active torsions:
  status: ('A' for Active; 'I' for Inactive)
    1  A    between atoms: C_1  and  C_33
    2  A    between atoms: C_4  and  C_21
    3  A    between atoms: C_4  and  C_29
    4  A    between atoms: N_6  and  C_33
    5  A    between atoms: N_6  and  C_40
    6  A    between atoms: C_8  and  O_28
    7  A    between atoms: C_8  and  C_29
    8  A    between atoms: C_11  and  O_28
    9  A    between atoms: C_21  and  N_22
   10  A    between atoms: C_30  and  C_37
                            x       y       z     vdW  Elec       q    Type
                         _______ _______ _______ _____ _____    ______ ____

>  <TORSDO>
F 10

$$$$
