=
 OpenBabel10222415333D

 54 58  0  0  1  0  0  0  0  0999 V2000
  189.4710  178.0340  141.0880 C   0  0  1  0  0  3  0  0  0  0  0  0
  189.4430  177.8940  142.5830 C   0  0  0  0  0  0  0  0  0  0  0  0
  189.5910  176.2560  147.3380 N   0  0  0  0  0  2  0  0  0  0  0  0
  189.3250  177.7320  145.3920 C   0  0  0  0  0  0  0  0  0  0  0  0
  186.8340  177.4810  145.2690 C   0  0  0  0  0  3  0  0  0  0  0  0
  188.1470  177.6520  144.6190 C   0  0  0  0  0  0  0  0  0  0  0  0
  187.8260  177.9720  147.5020 C   0  0  0  0  0  2  0  0  0  0  0  0
  188.2140  177.7250  143.2250 C   0  0  0  0  0  3  0  0  0  0  0  0
  190.5640  177.9280  144.7410 C   0  0  0  0  0  0  0  0  0  0  0  0
  191.7500  178.0440  145.4570 O   0  0  0  0  0  1  0  0  0  0  0  0
  190.3140  177.4590  147.7870 C   0  0  0  0  0  2  0  0  0  0  0  0
  189.1710  177.5900  146.8900 C   0  0  1  0  0  0  0  0  0  0  0  0
  190.6120  178.0130  143.3470 C   0  0  0  0  0  3  0  0  0  0  0  0
  186.6860  177.5900  146.5950 C   0  0  0  0  0  3  0  0  0  0  0  0
  190.4480  177.0580  140.5110 C   0  0  0  0  0  0  0  0  0  0  0  0
  190.4130  175.8410  140.8490 O   0  0  0  0  0  0  0  0  0  0  0  0
  191.4510  177.5280  139.6100 N   0  0  0  0  0  2  0  0  0  0  0  0
  192.8530  176.5410  139.1910 S   0  0  0  0  0  0  0  0  0  0  0  0
  190.9510  176.5230  137.2960 C   0  0  0  0  0  3  0  0  0  0  0  0
  190.4480  175.1430  135.2950 C   0  0  0  0  0  0  0  0  0  0  0  0
  192.2430  176.2750  137.5320 C   0  0  0  0  0  0  0  0  0  0  0  0
  190.3310  176.4880  135.9370 C   0  0  0  0  0  2  0  0  0  0  0  0
  192.9480  175.1400  135.3980 C   0  0  0  0  0  3  0  0  0  0  0  0
  193.2100  175.8620  136.4940 C   0  0  0  0  0  3  0  0  0  0  0  0
  191.6310  174.6050  134.9940 C   0  0  0  0  0  3  0  0  0  0  0  0
  189.2080  174.4600  134.8190 C   0  0  0  0  0  2  0  0  0  0  0  0
  189.1620  173.0110  135.2830 C   0  0  0  0  0  2  0  0  0  0  0  0
  188.5640  172.9180  136.6800 C   0  0  0  0  0  2  0  0  0  0  0  0
  187.1250  172.5300  136.6180 C   0  0  0  0  0  0  0  0  0  0  0  0
  184.0320  172.5640  136.5050 C   0  0  0  0  0  3  0  0  0  0  0  0
  186.7010  171.5650  135.5610 C   0  0  0  0  0  2  0  0  0  0  0  0
  184.8200  172.7590  137.5690 C   0  0  0  0  0  3  0  0  0  0  0  0
  186.2770  172.9950  137.5430 C   0  0  0  0  0  3  0  0  0  0  0  0
  185.6610  172.1430  134.6620 C   0  0  0  0  0  3  0  0  0  0  0  0
  184.4630  172.5410  135.0940 C   0  0  0  0  0  3  0  0  0  0  0  0
  188.0780  177.9420  140.4370 C   0  0  2  0  0  3  0  0  0  0  0  0
  188.8690  179.2280  138.4980 C   0  0  0  0  0  3  0  0  0  0  0  0
  188.1230  178.2100  138.9520 C   0  0  0  0  0  0  0  0  0  0  0  0
  189.0160  179.5090  137.1460 O   0  0  0  0  0  1  0  0  0  0  0  0
  187.7610  176.0370  137.9750 O   0  0  0  0  0  1  0  0  0  0  0  0
  187.3920  177.3340  138.0720 N   0  0  0  0  0  0  0  0  0  0  0  0
  186.2020  177.7580  137.3440 C   0  0  0  0  0  2  0  0  0  0  0  0
  185.3650  176.5540  136.9390 C   0  0  0  0  0  2  0  0  0  0  0  0
  183.9390  176.6920  137.4440 C   0  0  2  0  0  3  0  0  0  0  0  0
  182.9640  176.1850  136.3960 C   0  0  0  0  0  1  0  0  0  0  0  0
  183.6710  178.0330  137.7170 O   0  0  0  0  0  0  0  0  0  0  0  0
  182.9530  178.0130  138.9190 C   0  0  0  0  0  2  0  0  0  0  0  0
  182.6050  179.4320  139.3450 C   0  0  1  0  0  3  0  0  0  0  0  0
  183.6290  180.3120  138.9920 O   0  0  0  0  0  1  0  0  0  0  0  0
  181.2710  179.8790  138.7410 C   0  0  0  0  0  2  0  0  0  0  0  0
  181.2160  181.3770  138.4640 C   0  0  0  0  0  2  0  0  0  0  0  0
  180.8660  181.6350  137.0130 C   0  0  0  0  0  1  0  0  0  0  0  0
  185.7800  178.5290  140.7560 O   0  0  0  0  0  1  0  0  0  0  0  0
  187.0810  178.8750  141.1190 C   0  0  0  0  0  2  0  0  0  0  0  0
  1 15  1  6  0  0  0
  1  2  1  0  0  0  0
  2  8  2  0  0  0  0
  2 13  1  0  0  0  0
  3 11  1  0  0  0  0
  4 12  1  0  0  0  0
  5 14  2  0  0  0  0
  6  5  1  0  0  0  0
  6  4  2  0  0  0  0
  8  6  1  0  0  0  0
  9  4  1  0  0  0  0
  9 10  1  0  0  0  0
 12  3  1  0  0  0  0
 12  7  1  1  0  0  0
 12 11  1  0  0  0  0
 13  9  2  0  0  0  0
 14  7  1  0  0  0  0
 15 16  2  0  0  0  0
 17 15  1  0  0  0  0
 18 17  1  0  0  0  0
 19 21  2  0  0  0  0
 20 22  1  0  0  0  0
 21 18  1  0  0  0  0
 22 19  1  0  0  0  0
 23 24  2  0  0  0  0
 24 21  1  0  0  0  0
 25 20  2  0  0  0  0
 25 23  1  0  0  0  0
 26 27  1  0  0  0  0
 26 20  1  0  0  0  0
 27 28  1  0  0  0  0
 29 28  1  0  0  0  0
 29 33  2  0  0  0  0
 30 32  2  0  0  0  0
 31 29  1  0  0  0  0
 33 32  1  0  0  0  0
 34 35  2  0  0  0  0
 34 31  1  0  0  0  0
 35 30  1  0  0  0  0
 36  1  1  0  0  0  0
 36 54  1  1  0  0  0
 37 38  2  0  0  0  0
 38 36  1  0  0  0  0
 39 37  1  0  0  0  0
 40 41  1  0  0  0  0
 41 38  1  0  0  0  0
 42 41  1  0  0  0  0
 43 42  1  0  0  0  0
 43 44  1  0  0  0  0
 44 45  1  6  0  0  0
 44 46  1  0  0  0  0
 46 47  1  0  0  0  0
 47 48  1  0  0  0  0
 48 49  1  6  0  0  0
 50 48  1  0  0  0  0
 51 50  1  0  0  0  0
 52 51  1  0  0  0  0
 53 54  1  0  0  0  0
M  END
>  <MODEL>
1

>  <REMARK>
 VINA RESULT:      -7.2      0.000      0.000
  Name = 
  20 active torsions:
  status: ('A' for Active; 'I' for Inactive)
    1  A    between atoms: C_1  and  C_24
    2  A    between atoms: C_2  and  C_35
    3  A    between atoms: C_3  and  C_11
    4  A    between atoms: C_3  and  C_38
    5  A    between atoms: C_8  and  C_53
    6  A    between atoms: C_9  and  N_33
    7  A    between atoms: C_9  and  C_43
    8  A    between atoms: C_11  and  C_12
    9  A    between atoms: C_13  and  S_29
   10  A    between atoms: C_15  and  C_43
   11  A    between atoms: C_15  and  O_50
   12  A    between atoms: C_17  and  N_33
   13  A    between atoms: C_17  and  C_34
   14  A    between atoms: C_19  and  C_24
   15  A    between atoms: C_23  and  C_35
   16  A    between atoms: C_23  and  C_53
   17  A    between atoms: C_24  and  C_34
   18  A    between atoms: S_29  and  N_51
   19  A    between atoms: C_34  and  C_52
   20  A    between atoms: C_38  and  O_50
                            x       y       z     vdW  Elec       q    Type
                         _______ _______ _______ _____ _____    ______ ____

>  <TORSDO>
F 20

$$$$
=
 OpenBabel10222415333D

 54 58  0  0  1  0  0  0  0  0999 V2000
  187.6150  176.2800  136.4060 C   0  0  1  0  0  3  0  0  0  0  0  0
  186.1720  175.8820  136.5320 C   0  0  0  0  0  0  0  0  0  0  0  0
  181.5320  174.0570  135.8550 N   0  0  0  0  0  2  0  0  0  0  0  0
  183.4540  175.2220  136.8510 C   0  0  0  0  0  0  0  0  0  0  0  0
  182.8070  177.4840  135.9840 C   0  0  0  0  0  3  0  0  0  0  0  0
  183.8310  176.4870  136.3500 C   0  0  0  0  0  0  0  0  0  0  0  0
  181.0300  176.1330  137.0920 C   0  0  0  0  0  2  0  0  0  0  0  0
  185.1820  176.8050  136.1880 C   0  0  0  0  0  3  0  0  0  0  0  0
  184.4580  174.3010  137.2230 C   0  0  0  0  0  0  0  0  0  0  0  0
  184.1410  173.0540  137.7490 O   0  0  0  0  0  1  0  0  0  0  0  0
  181.4440  173.6160  137.2590 C   0  0  0  0  0  2  0  0  0  0  0  0
  181.9700  174.9390  136.9460 C   0  0  1  0  0  0  0  0  0  0  0  0
  185.8060  174.6400  137.0670 C   0  0  0  0  0  3  0  0  0  0  0  0
  181.5160  177.3110  136.2890 C   0  0  0  0  0  3  0  0  0  0  0  0
  187.9180  177.3820  137.3740 C   0  0  0  0  0  0  0  0  0  0  0  0
  188.5280  178.4200  136.9920 O   0  0  0  0  0  0  0  0  0  0  0  0
  187.5500  177.2230  138.7440 N   0  0  0  0  0  2  0  0  0  0  0  0
  188.1980  178.2770  140.0030 S   0  0  0  0  0  0  0  0  0  0  0  0
  186.4340  179.1230  141.8430 C   0  0  0  0  0  3  0  0  0  0  0  0
  184.0740  178.6090  142.4110 C   0  0  0  0  0  0  0  0  0  0  0  0
  186.5570  178.6840  140.5870 C   0  0  0  0  0  0  0  0  0  0  0  0
  185.1580  179.6390  142.4230 C   0  0  0  0  0  2  0  0  0  0  0  0
  184.1530  178.3280  139.9270 C   0  0  0  0  0  3  0  0  0  0  0  0
  185.4350  178.5790  139.6310 C   0  0  0  0  0  3  0  0  0  0  0  0
  183.5920  178.1040  141.2740 C   0  0  0  0  0  3  0  0  0  0  0  0
  183.3910  178.2660  143.6940 C   0  0  0  0  0  2  0  0  0  0  0  0
  182.2150  179.1940  143.9620 C   0  0  0  0  0  2  0  0  0  0  0  0
  180.8980  178.4520  143.7800 C   0  0  0  0  0  2  0  0  0  0  0  0
  180.2100  178.8900  142.5310 C   0  0  0  0  0  0  0  0  0  0  0  0
  179.5120  180.2040  139.8170 C   0  0  0  0  0  3  0  0  0  0  0  0
  179.5780  177.8450  141.6720 C   0  0  0  0  0  2  0  0  0  0  0  0
  179.5310  180.7740  141.0270 C   0  0  0  0  0  3  0  0  0  0  0  0
  180.1150  180.1960  142.2540 C   0  0  0  0  0  3  0  0  0  0  0  0
  180.1440  177.8380  140.2930 C   0  0  0  0  0  3  0  0  0  0  0  0
  180.0670  178.8830  139.4670 C   0  0  0  0  0  3  0  0  0  0  0  0
  188.5920  175.0950  136.5250 C   0  0  2  0  0  3  0  0  0  0  0  0
  190.4330  175.9660  135.1500 C   0  0  0  0  0  3  0  0  0  0  0  0
  190.0290  175.5200  136.3480 C   0  0  0  0  0  0  0  0  0  0  0  0
  191.7190  176.4330  134.9130 O   0  0  0  0  0  1  0  0  0  0  0  0
  191.4230  174.2760  137.8720 O   0  0  0  0  0  1  0  0  0  0  0  0
  190.9080  175.4660  137.4890 N   0  0  0  0  0  0  0  0  0  0  0  0
  191.3510  176.6590  138.2020 C   0  0  0  0  0  2  0  0  0  0  0  0
  191.0470  176.5370  139.6890 C   0  0  0  0  0  2  0  0  0  0  0  0
  191.9760  177.4200  140.5040 C   0  0  2  0  0  3  0  0  0  0  0  0
  193.3610  177.4330  139.8800 C   0  0  0  0  0  1  0  0  0  0  0  0
  192.0590  176.9300  141.8060 O   0  0  0  0  0  0  0  0  0  0  0  0
  191.2010  177.7500  142.5490 C   0  0  0  0  0  2  0  0  0  0  0  0
  190.3510  176.9060  143.4860 C   0  0  1  0  0  3  0  0  0  0  0  0
  191.1180  176.4450  144.5580 O   0  0  0  0  0  1  0  0  0  0  0  0
  189.1330  177.6880  143.9840 C   0  0  0  0  0  2  0  0  0  0  0  0
  187.9240  176.7990  144.2530 C   0  0  0  0  0  2  0  0  0  0  0  0
  186.9060  177.5320  145.1030 C   0  0  0  0  0  1  0  0  0  0  0  0
  188.5270  172.7390  136.1090 O   0  0  0  0  0  1  0  0  0  0  0  0
  188.2390  173.9800  135.5440 C   0  0  0  0  0  2  0  0  0  0  0  0
  1 36  1  0  0  0  0
  1  2  1  0  0  0  0
  1 15  1  1  0  0  0
  2 13  1  0  0  0  0
  3 12  1  0  0  0  0
  3 11  1  0  0  0  0
  4 12  1  0  0  0  0
  4  9  1  0  0  0  0
  5 14  2  0  0  0  0
  5  6  1  0  0  0  0
  6  4  2  0  0  0  0
  8  6  1  0  0  0  0
  8  2  2  0  0  0  0
  9 10  1  0  0  0  0
 12  7  1  1  0  0  0
 12 11  1  0  0  0  0
 13  9  2  0  0  0  0
 14  7  1  0  0  0  0
 15 17  1  0  0  0  0
 16 15  2  0  0  0  0
 17 18  1  0  0  0  0
 18 21  1  0  0  0  0
 19 22  1  0  0  0  0
 20 22  1  0  0  0  0
 20 26  1  0  0  0  0
 21 19  2  0  0  0  0
 23 25  1  0  0  0  0
 24 23  2  0  0  0  0
 24 21  1  0  0  0  0
 25 20  2  0  0  0  0
 26 27  1  0  0  0  0
 28 27  1  0  0  0  0
 29 28  1  0  0  0  0
 30 32  2  0  0  0  0
 31 29  1  0  0  0  0
 32 33  1  0  0  0  0
 33 29  2  0  0  0  0
 34 31  1  0  0  0  0
 35 30  1  0  0  0  0
 35 34  2  0  0  0  0
 36 54  1  6  0  0  0
 37 38  2  0  0  0  0
 38 36  1  0  0  0  0
 38 41  1  0  0  0  0
 39 37  1  0  0  0  0
 41 40  1  0  0  0  0
 41 42  1  0  0  0  0
 42 43  1  0  0  0  0
 43 44  1  0  0  0  0
 44 45  1  6  0  0  0
 44 46  1  0  0  0  0
 46 47  1  0  0  0  0
 47 48  1  0  0  0  0
 48 50  1  0  0  0  0
 48 49  1  1  0  0  0
 50 51  1  0  0  0  0
 51 52  1  0  0  0  0
 54 53  1  0  0  0  0
M  END
>  <MODEL>
2

>  <REMARK>
 VINA RESULT:      -7.1      2.692      9.243
  Name = 
  20 active torsions:
  status: ('A' for Active; 'I' for Inactive)
    1  A    between atoms: C_1  and  C_24
    2  A    between atoms: C_2  and  C_35
    3  A    between atoms: C_3  and  C_11
    4  A    between atoms: C_3  and  C_38
    5  A    between atoms: C_8  and  C_53
    6  A    between atoms: C_9  and  N_33
    7  A    between atoms: C_9  and  C_43
    8  A    between atoms: C_11  and  C_12
    9  A    between atoms: C_13  and  S_29
   10  A    between atoms: C_15  and  C_43
   11  A    between atoms: C_15  and  O_50
   12  A    between atoms: C_17  and  N_33
   13  A    between atoms: C_17  and  C_34
   14  A    between atoms: C_19  and  C_24
   15  A    between atoms: C_23  and  C_35
   16  A    between atoms: C_23  and  C_53
   17  A    between atoms: C_24  and  C_34
   18  A    between atoms: S_29  and  N_51
   19  A    between atoms: C_34  and  C_52
   20  A    between atoms: C_38  and  O_50
                            x       y       z     vdW  Elec       q    Type
                         _______ _______ _______ _____ _____    ______ ____

>  <TORSDO>
F 20

$$$$
=
 OpenBabel10222415333D

 54 58  0  0  1  0  0  0  0  0999 V2000
  183.4830  178.7530  138.9720 C   0  0  1  0  0  3  0  0  0  0  0  0
  184.1610  178.6610  140.3090 C   0  0  0  0  0  0  0  0  0  0  0  0
  186.3890  177.1550  144.5610 N   0  0  0  0  0  2  0  0  0  0  0  0
  185.3890  178.5980  142.8420 C   0  0  0  0  0  0  0  0  0  0  0  0
  183.1350  178.7020  143.9330 C   0  0  0  0  0  3  0  0  0  0  0  0
  183.9840  178.6650  142.7270 C   0  0  0  0  0  0  0  0  0  0  0  0
  185.1250  179.1100  145.3770 C   0  0  0  0  0  2  0  0  0  0  0  0
  183.3810  178.6890  141.4670 C   0  0  0  0  0  3  0  0  0  0  0  0
  186.1760  178.5960  141.6690 C   0  0  0  0  0  0  0  0  0  0  0  0
  187.5650  178.5610  141.7260 O   0  0  0  0  0  1  0  0  0  0  0  0
  187.3680  178.2550  144.5010 C   0  0  0  0  0  2  0  0  0  0  0  0
  185.9580  178.5220  144.2420 C   0  0  1  0  0  0  0  0  0  0  0  0
  185.5580  178.6340  140.4150 C   0  0  0  0  0  3  0  0  0  0  0  0
  183.6540  178.8690  145.1550 C   0  0  0  0  0  3  0  0  0  0  0  0
  183.7250  177.4940  138.1980 C   0  0  0  0  0  0  0  0  0  0  0  0
  183.3810  176.3760  138.6730 O   0  0  0  0  0  0  0  0  0  0  0  0
  184.3930  177.5700  136.9390 N   0  0  0  0  0  2  0  0  0  0  0  0
  185.0530  176.1330  136.1550 S   0  0  0  0  0  0  0  0  0  0  0  0
  187.6570  175.7230  136.6660 C   0  0  0  0  0  3  0  0  0  0  0  0
  189.4260  176.9060  137.9420 C   0  0  0  0  0  0  0  0  0  0  0  0
  186.7320  176.6650  136.4630 C   0  0  0  0  0  0  0  0  0  0  0  0
  189.1190  176.0040  136.7900 C   0  0  0  0  0  2  0  0  0  0  0  0
  187.9880  178.7600  137.0750 C   0  0  0  0  0  3  0  0  0  0  0  0
  187.0210  178.1140  136.4120 C   0  0  0  0  0  3  0  0  0  0  0  0
  188.9720  178.1590  137.9990 C   0  0  0  0  0  3  0  0  0  0  0  0
  190.4100  176.4540  138.9710 C   0  0  0  0  0  2  0  0  0  0  0  0
  190.6610  177.5360  140.0100 C   0  0  0  0  0  2  0  0  0  0  0  0
  191.8070  177.1370  140.9300 C   0  0  0  0  0  2  0  0  0  0  0  0
  191.3840  177.1840  142.3590 C   0  0  0  0  0  0  0  0  0  0  0  0
  191.3370  177.2030  145.4540 C   0  0  0  0  0  3  0  0  0  0  0  0
  190.4860  178.2950  142.7900 C   0  0  0  0  0  2  0  0  0  0  0  0
  191.4790  176.1510  144.6380 C   0  0  0  0  0  3  0  0  0  0  0  0
  191.7570  176.2040  143.1890 C   0  0  0  0  0  3  0  0  0  0  0  0
  191.0950  179.1190  143.8730 C   0  0  0  0  0  3  0  0  0  0  0  0
  191.4280  178.6240  145.0670 C   0  0  0  0  0  3  0  0  0  0  0  0
  181.9900  179.1200  139.0640 C   0  0  2  0  0  3  0  0  0  0  0  0
  181.2150  178.8810  136.7440 C   0  0  0  0  0  3  0  0  0  0  0  0
  181.1650  178.4290  138.0060 C   0  0  0  0  0  0  0  0  0  0  0  0
  180.5380  178.2700  135.6980 O   0  0  0  0  0  1  0  0  0  0  0  0
  180.0840  177.0840  139.6890 O   0  0  0  0  0  1  0  0  0  0  0  0
  180.3830  177.2800  138.3850 N   0  0  0  0  0  0  0  0  0  0  0  0
  179.8100  176.3570  137.4110 C   0  0  0  0  0  2  0  0  0  0  0  0
  180.3320  174.9460  137.6390 C   0  0  0  0  0  2  0  0  0  0  0  0
  179.6230  173.9550  136.7330 C   0  0  2  0  0  3  0  0  0  0  0  0
  179.3620  172.6600  137.4820 C   0  0  0  0  0  1  0  0  0  0  0  0
  180.4180  173.6940  135.6170 O   0  0  0  0  0  0  0  0  0  0  0  0
  180.8510  172.3740  135.7920 C   0  0  0  0  0  2  0  0  0  0  0  0
  182.3540  172.2820  135.5730 C   0  0  1  0  0  3  0  0  0  0  0  0
  182.8210  173.4210  134.9160 O   0  0  0  0  0  1  0  0  0  0  0  0
  183.0940  172.0750  136.8970 C   0  0  0  0  0  2  0  0  0  0  0  0
  184.6090  172.1490  136.7500 C   0  0  0  0  0  2  0  0  0  0  0  0
  185.2100  172.9820  137.8640 C   0  0  0  0  0  1  0  0  0  0  0  0
  182.9960  181.2700  138.7540 O   0  0  0  0  0  1  0  0  0  0  0  0
  181.7810  180.6310  139.0030 C   0  0  0  0  0  2  0  0  0  0  0  0
  1 15  1  1  0  0  0
  1 36  1  0  0  0  0
  1  2  1  0  0  0  0
  2 13  2  0  0  0  0
  2  8  1  0  0  0  0
  4 12  1  0  0  0  0
  5 14  2  0  0  0  0
  6  4  1  0  0  0  0
  6  5  1  0  0  0  0
  8  6  2  0  0  0  0
  9 10  1  0  0  0  0
  9  4  2  0  0  0  0
 11  3  1  0  0  0  0
 12 11  1  6  0  0  0
 12  3  1  0  0  0  0
 12  7  1  0  0  0  0
 13  9  1  0  0  0  0
 14  7  1  0  0  0  0
 15 16  2  0  0  0  0
 17 15  1  0  0  0  0
 18 21  1  0  0  0  0
 18 17  1  0  0  0  0
 19 22  1  0  0  0  0
 20 25  2  0  0  0  0
 20 26  1  0  0  0  0
 21 19  2  0  0  0  0
 22 20  1  0  0  0  0
 23 25  1  0  0  0  0
 24 21  1  0  0  0  0
 24 23  2  0  0  0  0
 26 27  1  0  0  0  0
 27 28  1  0  0  0  0
 28 29  1  0  0  0  0
 29 31  1  0  0  0  0
 29 33  2  0  0  0  0
 31 34  1  0  0  0  0
 32 30  2  0  0  0  0
 33 32  1  0  0  0  0
 34 35  2  0  0  0  0
 35 30  1  0  0  0  0
 36 54  1  6  0  0  0
 37 38  2  0  0  0  0
 38 41  1  0  0  0  0
 38 36  1  0  0  0  0
 39 37  1  0  0  0  0
 41 40  1  0  0  0  0
 42 43  1  0  0  0  0
 42 41  1  0  0  0  0
 44 45  1  1  0  0  0
 44 43  1  0  0  0  0
 46 47  1  0  0  0  0
 46 44  1  0  0  0  0
 48 49  1  1  0  0  0
 48 47  1  0  0  0  0
 48 50  1  0  0  0  0
 51 50  1  0  0  0  0
 51 52  1  0  0  0  0
 53 54  1  0  0  0  0
M  END
>  <MODEL>
3

>  <REMARK>
 VINA RESULT:      -7.0      2.893      7.089
  Name = 
  20 active torsions:
  status: ('A' for Active; 'I' for Inactive)
    1  A    between atoms: C_1  and  C_24
    2  A    between atoms: C_2  and  C_35
    3  A    between atoms: C_3  and  C_11
    4  A    between atoms: C_3  and  C_38
    5  A    between atoms: C_8  and  C_53
    6  A    between atoms: C_9  and  N_33
    7  A    between atoms: C_9  and  C_43
    8  A    between atoms: C_11  and  C_12
    9  A    between atoms: C_13  and  S_29
   10  A    between atoms: C_15  and  C_43
   11  A    between atoms: C_15  and  O_50
   12  A    between atoms: C_17  and  N_33
   13  A    between atoms: C_17  and  C_34
   14  A    between atoms: C_19  and  C_24
   15  A    between atoms: C_23  and  C_35
   16  A    between atoms: C_23  and  C_53
   17  A    between atoms: C_24  and  C_34
   18  A    between atoms: S_29  and  N_51
   19  A    between atoms: C_34  and  C_52
   20  A    between atoms: C_38  and  O_50
                            x       y       z     vdW  Elec       q    Type
                         _______ _______ _______ _____ _____    ______ ____

>  <TORSDO>
F 20

$$$$
=
 OpenBabel10222415333D

 54 58  0  0  1  0  0  0  0  0999 V2000
  187.3230  177.6970  141.8850 C   0  0  1  0  0  3  0  0  0  0  0  0
  188.0400  177.5520  143.1960 C   0  0  0  0  0  0  0  0  0  0  0  0
  190.2760  175.8790  147.3820 N   0  0  0  0  0  2  0  0  0  0  0  0
  189.3540  177.3950  145.6820 C   0  0  0  0  0  0  0  0  0  0  0  0
  187.1660  177.7310  146.8560 C   0  0  0  0  0  3  0  0  0  0  0  0
  187.9590  177.5990  145.6190 C   0  0  0  0  0  0  0  0  0  0  0  0
  189.2410  177.9570  148.2170 C   0  0  0  0  0  2  0  0  0  0  0  0
  187.3120  177.6680  144.3830 C   0  0  0  0  0  3  0  0  0  0  0  0
  190.0910  177.3040  144.4790 C   0  0  0  0  0  0  0  0  0  0  0  0
  191.4710  177.1340  144.4840 O   0  0  0  0  0  1  0  0  0  0  0  0
  191.3550  176.8770  147.2680 C   0  0  0  0  0  2  0  0  0  0  0  0
  189.9680  177.2790  147.0600 C   0  0  1  0  0  0  0  0  0  0  0  0
  189.4310  177.3890  143.2500 C   0  0  0  0  0  3  0  0  0  0  0  0
  187.7470  177.8590  148.0550 C   0  0  0  0  0  3  0  0  0  0  0  0
  186.1580  178.6230  142.0490 C   0  0  0  0  0  0  0  0  0  0  0  0
  186.3120  179.8720  141.9390 O   0  0  0  0  0  0  0  0  0  0  0  0
  184.8800  178.0800  142.3800 N   0  0  0  0  0  2  0  0  0  0  0  0
  183.5640  179.1010  142.9620 S   0  0  0  0  0  0  0  0  0  0  0  0
  182.9990  177.8340  140.6640 C   0  0  0  0  0  3  0  0  0  0  0  0
  181.3390  178.1150  138.8400 C   0  0  0  0  0  0  0  0  0  0  0  0
  182.4630  178.5110  141.6830 C   0  0  0  0  0  0  0  0  0  0  0  0
  182.1970  177.1560  139.6010 C   0  0  0  0  0  2  0  0  0  0  0  0
  180.1040  178.8710  140.8790 C   0  0  0  0  0  3  0  0  0  0  0  0
  181.0130  178.7430  141.8540 C   0  0  0  0  0  3  0  0  0  0  0  0
  180.3600  178.8060  139.4260 C   0  0  0  0  0  3  0  0  0  0  0  0
  181.4660  178.1740  137.3530 C   0  0  0  0  0  2  0  0  0  0  0  0
  180.3350  178.9810  136.7320 C   0  0  0  0  0  2  0  0  0  0  0  0
  180.8860  179.9950  135.7390 C   0  0  0  0  0  2  0  0  0  0  0  0
  180.6020  181.3880  136.1890 C   0  0  0  0  0  0  0  0  0  0  0  0
  180.8420  184.2730  137.2870 C   0  0  0  0  0  3  0  0  0  0  0  0
  179.8490  182.2870  135.2660 C   0  0  0  0  0  2  0  0  0  0  0  0
  180.8140  183.1270  137.9790 C   0  0  0  0  0  3  0  0  0  0  0  0
  180.9620  181.7680  137.4210 C   0  0  0  0  0  3  0  0  0  0  0  0
  180.6270  183.5110  134.9200 C   0  0  0  0  0  3  0  0  0  0  0  0
  181.0230  184.4050  135.8280 C   0  0  0  0  0  3  0  0  0  0  0  0
  188.2480  178.1010  140.7200 C   0  0  2  0  0  3  0  0  0  0  0  0
  186.1670  178.1170  139.4120 C   0  0  0  0  0  3  0  0  0  0  0  0
  187.5060  178.1970  139.4090 C   0  0  0  0  0  0  0  0  0  0  0  0
  185.4020  178.2550  138.2620 O   0  0  0  0  0  1  0  0  0  0  0  0
  189.0430  179.5120  138.0990 O   0  0  0  0  0  1  0  0  0  0  0  0
  188.2650  178.4110  138.2030 N   0  0  0  0  0  0  0  0  0  0  0  0
  188.3110  177.4410  137.1150 C   0  0  0  0  0  2  0  0  0  0  0  0
  188.0540  176.0360  137.6400 C   0  0  0  0  0  2  0  0  0  0  0  0
  188.3260  174.9990  136.5630 C   0  0  2  0  0  3  0  0  0  0  0  0
  188.1840  175.6280  135.1880 C   0  0  0  0  0  1  0  0  0  0  0  0
  187.4190  173.9480  136.6890 O   0  0  0  0  0  0  0  0  0  0  0  0
  186.1660  174.5340  136.4720 C   0  0  0  0  0  2  0  0  0  0  0  0
  185.0780  173.7060  137.1400 C   0  0  1  0  0  3  0  0  0  0  0  0
  185.6250  172.8930  138.1350 O   0  0  0  0  0  1  0  0  0  0  0  0
  183.9760  174.6000  137.7130 C   0  0  0  0  0  2  0  0  0  0  0  0
  182.7650  174.7150  136.7940 C   0  0  0  0  0  2  0  0  0  0  0  0
  182.5970  173.4490  135.9780 C   0  0  0  0  0  1  0  0  0  0  0  0
  190.5760  177.8590  140.2230 O   0  0  0  0  0  1  0  0  0  0  0  0
  189.4350  177.1500  140.5960 C   0  0  0  0  0  2  0  0  0  0  0  0
  1 15  1  1  0  0  0
  1  2  1  0  0  0  0
  2 13  2  0  0  0  0
  2  8  1  0  0  0  0
  4 12  1  0  0  0  0
  5 14  2  0  0  0  0
  6  4  1  0  0  0  0
  6  5  1  0  0  0  0
  8  6  2  0  0  0  0
  9 10  1  0  0  0  0
  9  4  2  0  0  0  0
 11  3  1  0  0  0  0
 12 11  1  6  0  0  0
 12  3  1  0  0  0  0
 12  7  1  0  0  0  0
 13  9  1  0  0  0  0
 14  7  1  0  0  0  0
 15 17  1  0  0  0  0
 16 15  2  0  0  0  0
 17 18  1  0  0  0  0
 19 21  2  0  0  0  0
 20 25  2  0  0  0  0
 20 22  1  0  0  0  0
 21 24  1  0  0  0  0
 21 18  1  0  0  0  0
 22 19  1  0  0  0  0
 23 24  2  0  0  0  0
 25 23  1  0  0  0  0
 26 20  1  0  0  0  0
 27 26  1  0  0  0  0
 28 29  1  0  0  0  0
 28 27  1  0  0  0  0
 29 33  2  0  0  0  0
 30 32  2  0  0  0  0
 31 29  1  0  0  0  0
 33 32  1  0  0  0  0
 34 31  1  0  0  0  0
 34 35  2  0  0  0  0
 35 30  1  0  0  0  0
 36 54  1  6  0  0  0
 36  1  1  0  0  0  0
 38 37  2  0  0  0  0
 38 36  1  0  0  0  0
 39 37  1  0  0  0  0
 40 41  1  0  0  0  0
 41 38  1  0  0  0  0
 42 43  1  0  0  0  0
 42 41  1  0  0  0  0
 44 45  1  6  0  0  0
 44 46  1  0  0  0  0
 44 43  1  0  0  0  0
 47 46  1  0  0  0  0
 47 48  1  0  0  0  0
 48 50  1  0  0  0  0
 48 49  1  1  0  0  0
 51 50  1  0  0  0  0
 52 51  1  0  0  0  0
 53 54  1  0  0  0  0
M  END
>  <MODEL>
4

>  <REMARK>
 VINA RESULT:      -6.8      2.495      7.345
  Name = 
  20 active torsions:
  status: ('A' for Active; 'I' for Inactive)
    1  A    between atoms: C_1  and  C_24
    2  A    between atoms: C_2  and  C_35
    3  A    between atoms: C_3  and  C_11
    4  A    between atoms: C_3  and  C_38
    5  A    between atoms: C_8  and  C_53
    6  A    between atoms: C_9  and  N_33
    7  A    between atoms: C_9  and  C_43
    8  A    between atoms: C_11  and  C_12
    9  A    between atoms: C_13  and  S_29
   10  A    between atoms: C_15  and  C_43
   11  A    between atoms: C_15  and  O_50
   12  A    between atoms: C_17  and  N_33
   13  A    between atoms: C_17  and  C_34
   14  A    between atoms: C_19  and  C_24
   15  A    between atoms: C_23  and  C_35
   16  A    between atoms: C_23  and  C_53
   17  A    between atoms: C_24  and  C_34
   18  A    between atoms: S_29  and  N_51
   19  A    between atoms: C_34  and  C_52
   20  A    between atoms: C_38  and  O_50
                            x       y       z     vdW  Elec       q    Type
                         _______ _______ _______ _____ _____    ______ ____

>  <TORSDO>
F 20

$$$$
=
 OpenBabel10222415333D

 54 58  0  0  1  0  0  0  0  0999 V2000
  182.8620  178.6770  139.2060 C   0  0  1  0  0  3  0  0  0  0  0  0
  183.3650  178.6520  140.6210 C   0  0  0  0  0  0  0  0  0  0  0  0
  185.0230  179.7820  145.2350 N   0  0  0  0  0  2  0  0  0  0  0  0
  184.3450  178.4930  143.2560 C   0  0  0  0  0  0  0  0  0  0  0  0
  186.6730  178.2190  142.3690 C   0  0  0  0  0  3  0  0  0  0  0  0
  185.2250  178.4000  142.1560 C   0  0  0  0  0  0  0  0  0  0  0  0
  186.3020  177.7210  144.7830 C   0  0  0  0  0  2  0  0  0  0  0  0
  184.7330  178.4870  140.8520 C   0  0  0  0  0  3  0  0  0  0  0  0
  182.9590  178.6340  143.0190 C   0  0  0  0  0  0  0  0  0  0  0  0
  182.0460  178.7000  144.0650 O   0  0  0  0  0  1  0  0  0  0  0  0
  184.2040  178.7200  145.8470 C   0  0  0  0  0  2  0  0  0  0  0  0
  184.9650  178.4420  144.6350 C   0  0  1  0  0  0  0  0  0  0  0  0
  182.4810  178.7060  141.7070 C   0  0  0  0  0  3  0  0  0  0  0  0
  187.1780  177.9440  143.5780 C   0  0  0  0  0  3  0  0  0  0  0  0
  183.1210  177.3520  138.5590 C   0  0  0  0  0  0  0  0  0  0  0  0
  182.7470  176.2830  139.1170 O   0  0  0  0  0  0  0  0  0  0  0  0
  183.8380  177.3100  137.3260 N   0  0  0  0  0  2  0  0  0  0  0  0
  184.5130  175.8040  136.7000 S   0  0  0  0  0  0  0  0  0  0  0  0
  186.9640  176.0910  137.7590 C   0  0  0  0  0  3  0  0  0  0  0  0
  188.6410  177.9150  137.8920 C   0  0  0  0  0  0  0  0  0  0  0  0
  186.1750  176.4620  136.7460 C   0  0  0  0  0  0  0  0  0  0  0  0
  188.4140  176.4380  137.8560 C   0  0  0  0  0  2  0  0  0  0  0  0
  187.5330  178.2970  135.6820 C   0  0  0  0  0  3  0  0  0  0  0  0
  186.6110  177.3260  135.6300 C   0  0  0  0  0  3  0  0  0  0  0  0
  188.3090  178.7060  136.8690 C   0  0  0  0  0  3  0  0  0  0  0  0
  189.4180  178.4990  139.0250 C   0  0  0  0  0  2  0  0  0  0  0  0
  189.2880  177.6490  140.2810 C   0  0  0  0  0  2  0  0  0  0  0  0
  190.6450  177.0950  140.6930 C   0  0  0  0  0  2  0  0  0  0  0  0
  190.9040  177.3410  142.1400 C   0  0  0  0  0  0  0  0  0  0  0  0
  190.7070  178.2710  145.0860 C   0  0  0  0  0  3  0  0  0  0  0  0
  191.2310  176.1700  143.0060 C   0  0  0  0  0  2  0  0  0  0  0  0
  191.0720  178.9900  144.0180 C   0  0  0  0  0  3  0  0  0  0  0  0
  190.9060  178.5960  142.6050 C   0  0  0  0  0  3  0  0  0  0  0  0
  190.2570  176.0130  144.1250 C   0  0  0  0  0  3  0  0  0  0  0  0
  190.0690  176.9400  145.0650 C   0  0  0  0  0  3  0  0  0  0  0  0
  181.3930  179.1250  139.0840 C   0  0  2  0  0  3  0  0  0  0  0  0
  181.1730  179.7440  136.7160 C   0  0  0  0  0  3  0  0  0  0  0  0
  180.8390  178.8950  137.6990 C   0  0  0  0  0  0  0  0  0  0  0  0
  180.7590  179.5750  135.4020 O   0  0  0  0  0  1  0  0  0  0  0  0
  178.9320  177.5400  138.2780 O   0  0  0  0  0  1  0  0  0  0  0  0
  180.0010  177.7450  137.4750 N   0  0  0  0  0  0  0  0  0  0  0  0
  180.1940  176.8320  136.3550 C   0  0  0  0  0  2  0  0  0  0  0  0
  180.1850  175.3880  136.8330 C   0  0  0  0  0  2  0  0  0  0  0  0
  181.0140  174.5080  135.9130 C   0  0  2  0  0  3  0  0  0  0  0  0
  181.4550  175.3010  134.6950 C   0  0  0  0  0  1  0  0  0  0  0  0
  180.2520  173.4140  135.5040 O   0  0  0  0  0  0  0  0  0  0  0  0
  181.1320  172.3270  135.5670 C   0  0  0  0  0  2  0  0  0  0  0  0
  181.6440  172.1500  136.9890 C   0  0  1  0  0  3  0  0  0  0  0  0
  180.6190  171.7010  137.8240 O   0  0  0  0  0  1  0  0  0  0  0  0
  182.8390  171.1940  137.0320 C   0  0  0  0  0  2  0  0  0  0  0  0
  183.2360  170.6770  135.6540 C   0  0  0  0  0  2  0  0  0  0  0  0
  184.7350  170.7880  135.4580 C   0  0  0  0  0  1  0  0  0  0  0  0
  179.9050  180.9910  139.2650 O   0  0  0  0  0  1  0  0  0  0  0  0
  181.2190  180.5850  139.4940 C   0  0  0  0  0  2  0  0  0  0  0  0
  1 15  1  1  0  0  0
  1  2  1  0  0  0  0
  2  8  2  0  0  0  0
  2 13  1  0  0  0  0
  3 11  1  0  0  0  0
  4 12  1  0  0  0  0
  5 14  2  0  0  0  0
  6  5  1  0  0  0  0
  6  4  2  0  0  0  0
  8  6  1  0  0  0  0
  9  4  1  0  0  0  0
  9 10  1  0  0  0  0
 12  7  1  1  0  0  0
 12  3  1  0  0  0  0
 12 11  1  0  0  0  0
 13  9  2  0  0  0  0
 14  7  1  0  0  0  0
 15 16  2  0  0  0  0
 17 15  1  0  0  0  0
 18 21  1  0  0  0  0
 18 17  1  0  0  0  0
 19 22  1  0  0  0  0
 20 26  1  0  0  0  0
 21 19  2  0  0  0  0
 22 20  1  0  0  0  0
 23 25  1  0  0  0  0
 24 23  2  0  0  0  0
 24 21  1  0  0  0  0
 25 20  2  0  0  0  0
 26 27  1  0  0  0  0
 27 28  1  0  0  0  0
 28 29  1  0  0  0  0
 29 33  2  0  0  0  0
 29 31  1  0  0  0  0
 31 34  1  0  0  0  0
 32 30  2  0  0  0  0
 33 32  1  0  0  0  0
 34 35  2  0  0  0  0
 35 30  1  0  0  0  0
 36  1  1  0  0  0  0
 36 54  1  6  0  0  0
 37 38  2  0  0  0  0
 38 36  1  0  0  0  0
 39 37  1  0  0  0  0
 41 38  1  0  0  0  0
 41 40  1  0  0  0  0
 42 43  1  0  0  0  0
 42 41  1  0  0  0  0
 44 45  1  6  0  0  0
 44 43  1  0  0  0  0
 46 47  1  0  0  0  0
 46 44  1  0  0  0  0
 47 48  1  0  0  0  0
 48 50  1  0  0  0  0
 48 49  1  1  0  0  0
 51 50  1  0  0  0  0
 52 51  1  0  0  0  0
 53 54  1  0  0  0  0
M  END
>  <MODEL>
5

>  <REMARK>
 VINA RESULT:      -6.8      3.676      7.440
  Name = 
  20 active torsions:
  status: ('A' for Active; 'I' for Inactive)
    1  A    between atoms: C_1  and  C_24
    2  A    between atoms: C_2  and  C_35
    3  A    between atoms: C_3  and  C_11
    4  A    between atoms: C_3  and  C_38
    5  A    between atoms: C_8  and  C_53
    6  A    between atoms: C_9  and  N_33
    7  A    between atoms: C_9  and  C_43
    8  A    between atoms: C_11  and  C_12
    9  A    between atoms: C_13  and  S_29
   10  A    between atoms: C_15  and  C_43
   11  A    between atoms: C_15  and  O_50
   12  A    between atoms: C_17  and  N_33
   13  A    between atoms: C_17  and  C_34
   14  A    between atoms: C_19  and  C_24
   15  A    between atoms: C_23  and  C_35
   16  A    between atoms: C_23  and  C_53
   17  A    between atoms: C_24  and  C_34
   18  A    between atoms: S_29  and  N_51
   19  A    between atoms: C_34  and  C_52
   20  A    between atoms: C_38  and  O_50
                            x       y       z     vdW  Elec       q    Type
                         _______ _______ _______ _____ _____    ______ ____

>  <TORSDO>
F 20

$$$$
=
 OpenBabel10222415333D

 54 58  0  0  1  0  0  0  0  0999 V2000
  189.8610  176.8020  139.0760 C   0  0  1  0  0  3  0  0  0  0  0  0
  189.8780  177.0050  140.5640 C   0  0  0  0  0  0  0  0  0  0  0  0
  190.3950  176.5560  145.5490 N   0  0  0  0  0  2  0  0  0  0  0  0
  189.8260  177.4710  143.3400 C   0  0  0  0  0  0  0  0  0  0  0  0
  187.4300  176.7400  143.4150 C   0  0  0  0  0  3  0  0  0  0  0  0
  188.6770  176.9990  142.6710 C   0  0  0  0  0  0  0  0  0  0  0  0
  188.3330  177.9050  145.4240 C   0  0  0  0  0  2  0  0  0  0  0  0
  188.7120  176.7620  141.2940 C   0  0  0  0  0  3  0  0  0  0  0  0
  190.9960  177.7400  142.5950 C   0  0  0  0  0  0  0  0  0  0  0  0
  192.1450  178.2360  143.2000 O   0  0  0  0  0  1  0  0  0  0  0  0
  190.8770  177.9430  145.6770 C   0  0  0  0  0  2  0  0  0  0  0  0
  189.7190  177.6500  144.8390 C   0  0  1  0  0  0  0  0  0  0  0  0
  191.0110  177.5110  141.2160 C   0  0  0  0  0  3  0  0  0  0  0  0
  187.2790  177.1200  144.6890 C   0  0  0  0  0  3  0  0  0  0  0  0
  189.0340  177.8720  138.4330 C   0  0  0  0  0  0  0  0  0  0  0  0
  189.1190  179.0700  138.8260 O   0  0  0  0  0  0  0  0  0  0  0  0
  188.1140  177.5140  137.4030 N   0  0  0  0  0  2  0  0  0  0  0  0
  186.8470  178.6210  136.8690 S   0  0  0  0  0  0  0  0  0  0  0  0
  184.3510  177.6330  136.8240 C   0  0  0  0  0  3  0  0  0  0  0  0
  183.2370  175.5760  137.6550 C   0  0  0  0  0  0  0  0  0  0  0  0
  185.6440  177.3000  136.7940 C   0  0  0  0  0  0  0  0  0  0  0  0
  183.2350  176.6590  136.6240 C   0  0  0  0  0  2  0  0  0  0  0  0
  185.5380  174.7970  137.0570 C   0  0  0  0  0  3  0  0  0  0  0  0
  186.1410  175.9170  136.6360 C   0  0  0  0  0  3  0  0  0  0  0  0
  184.2470  174.7110  137.7680 C   0  0  0  0  0  3  0  0  0  0  0  0
  182.0030  175.3470  138.4630 C   0  0  0  0  0  2  0  0  0  0  0  0
  182.1170  175.9820  139.8410 C   0  0  0  0  0  2  0  0  0  0  0  0
  181.5580  177.3980  139.8230 C   0  0  0  0  0  2  0  0  0  0  0  0
  182.1170  178.2050  140.9450 C   0  0  0  0  0  0  0  0  0  0  0  0
  183.0080  179.2210  143.7300 C   0  0  0  0  0  3  0  0  0  0  0  0
  183.5080  178.7290  140.8110 C   0  0  0  0  0  2  0  0  0  0  0  0
  181.7750  179.2190  143.2100 C   0  0  0  0  0  3  0  0  0  0  0  0
  181.3420  178.4960  141.9970 C   0  0  0  0  0  3  0  0  0  0  0  0
  184.3970  178.2400  141.9040 C   0  0  0  0  0  3  0  0  0  0  0  0
  184.1810  178.5050  143.1940 C   0  0  0  0  0  3  0  0  0  0  0  0
  191.2670  176.6800  138.4570 C   0  0  2  0  0  3  0  0  0  0  0  0
  190.5820  174.4860  137.5880 C   0  0  0  0  0  3  0  0  0  0  0  0
  191.3450  175.5780  137.4300 C   0  0  0  0  0  0  0  0  0  0  0  0
  190.5450  173.4520  136.6630 O   0  0  0  0  0  1  0  0  0  0  0  0
  191.7260  176.3580  135.1820 O   0  0  0  0  0  1  0  0  0  0  0  0
  192.2100  175.7570  136.2920 N   0  0  0  0  0  0  0  0  0  0  0  0
  193.6250  175.4040  136.3110 C   0  0  0  0  0  2  0  0  0  0  0  0
  193.8510  174.1460  137.1380 C   0  0  0  0  0  2  0  0  0  0  0  0
  195.3040  174.0380  137.5700 C   0  0  2  0  0  3  0  0  0  0  0  0
  195.4080  174.1630  139.0800 C   0  0  0  0  0  1  0  0  0  0  0  0
  196.0450  175.0540  136.9680 O   0  0  0  0  0  0  0  0  0  0  0  0
  196.9620  174.3850  136.1480 C   0  0  0  0  0  2  0  0  0  0  0  0
  198.3660  174.5120  136.7230 C   0  0  1  0  0  3  0  0  0  0  0  0
  198.3540  175.3080  137.8690 O   0  0  0  0  0  1  0  0  0  0  0  0
  198.9670  173.1360  137.0210 C   0  0  0  0  0  2  0  0  0  0  0  0
  198.0160  171.9890  136.6990 C   0  0  0  0  0  2  0  0  0  0  0  0
  198.5640  170.6810  137.2350 C   0  0  0  0  0  1  0  0  0  0  0  0
  193.5000  177.1630  139.1700 O   0  0  0  0  0  1  0  0  0  0  0  0
  192.3340  176.4880  139.5310 C   0  0  0  0  0  2  0  0  0  0  0  0
  1 15  1  6  0  0  0
  1  2  1  0  0  0  0
  2 13  2  0  0  0  0
  2  8  1  0  0  0  0
  3 11  1  0  0  0  0
  4 12  1  0  0  0  0
  5 14  2  0  0  0  0
  6  4  1  0  0  0  0
  6  5  1  0  0  0  0
  8  6  2  0  0  0  0
  9 10  1  0  0  0  0
  9  4  2  0  0  0  0
 12  7  1  1  0  0  0
 12  3  1  0  0  0  0
 12 11  1  0  0  0  0
 13  9  1  0  0  0  0
 14  7  1  0  0  0  0
 15 16  2  0  0  0  0
 17 15  1  0  0  0  0
 18 17  1  0  0  0  0
 20 25  2  0  0  0  0
 20 26  1  0  0  0  0
 21 19  2  0  0  0  0
 21 18  1  0  0  0  0
 22 19  1  0  0  0  0
 22 20  1  0  0  0  0
 23 25  1  0  0  0  0
 24 21  1  0  0  0  0
 24 23  2  0  0  0  0
 26 27  1  0  0  0  0
 28 27  1  0  0  0  0
 28 29  1  0  0  0  0
 29 33  2  0  0  0  0
 31 29  1  0  0  0  0
 31 34  1  0  0  0  0
 32 30  2  0  0  0  0
 33 32  1  0  0  0  0
 34 35  2  0  0  0  0
 35 30  1  0  0  0  0
 36  1  1  0  0  0  0
 36 54  1  1  0  0  0
 38 37  2  0  0  0  0
 38 36  1  0  0  0  0
 39 37  1  0  0  0  0
 40 41  1  0  0  0  0
 41 42  1  0  0  0  0
 41 38  1  0  0  0  0
 42 43  1  0  0  0  0
 43 44  1  0  0  0  0
 44 45  1  1  0  0  0
 46 44  1  0  0  0  0
 47 48  1  0  0  0  0
 47 46  1  0  0  0  0
 48 50  1  0  0  0  0
 48 49  1  1  0  0  0
 51 50  1  0  0  0  0
 51 52  1  0  0  0  0
 53 54  1  0  0  0  0
M  END
>  <MODEL>
6

>  <REMARK>
 VINA RESULT:      -6.6      3.265      8.737
  Name = 
  20 active torsions:
  status: ('A' for Active; 'I' for Inactive)
    1  A    between atoms: C_1  and  C_24
    2  A    between atoms: C_2  and  C_35
    3  A    between atoms: C_3  and  C_11
    4  A    between atoms: C_3  and  C_38
    5  A    between atoms: C_8  and  C_53
    6  A    between atoms: C_9  and  N_33
    7  A    between atoms: C_9  and  C_43
    8  A    between atoms: C_11  and  C_12
    9  A    between atoms: C_13  and  S_29
   10  A    between atoms: C_15  and  C_43
   11  A    between atoms: C_15  and  O_50
   12  A    between atoms: C_17  and  N_33
   13  A    between atoms: C_17  and  C_34
   14  A    between atoms: C_19  and  C_24
   15  A    between atoms: C_23  and  C_35
   16  A    between atoms: C_23  and  C_53
   17  A    between atoms: C_24  and  C_34
   18  A    between atoms: S_29  and  N_51
   19  A    between atoms: C_34  and  C_52
   20  A    between atoms: C_38  and  O_50
                            x       y       z     vdW  Elec       q    Type
                         _______ _______ _______ _____ _____    ______ ____

>  <TORSDO>
F 20

$$$$
=
 OpenBabel10222415333D

 54 58  0  0  1  0  0  0  0  0999 V2000
  185.1140  178.9990  140.4490 C   0  0  1  0  0  3  0  0  0  0  0  0
  186.0690  178.4760  139.4140 C   0  0  0  0  0  0  0  0  0  0  0  0
  189.5850  177.8990  135.8620 N   0  0  0  0  0  2  0  0  0  0  0  0
  187.7880  177.3990  137.4610 C   0  0  0  0  0  0  0  0  0  0  0  0
  185.9460  177.5420  135.7670 C   0  0  0  0  0  3  0  0  0  0  0  0
  186.4580  177.7410  137.1360 C   0  0  0  0  0  0  0  0  0  0  0  0
  187.9500  176.1870  135.1670 C   0  0  0  0  0  2  0  0  0  0  0  0
  185.6120  178.2820  138.1080 C   0  0  0  0  0  3  0  0  0  0  0  0
  188.2390  177.5720  138.7890 C   0  0  0  0  0  0  0  0  0  0  0  0
  189.5290  177.2230  139.1700 O   0  0  0  0  0  1  0  0  0  0  0  0
  190.0880  176.6610  136.4860 C   0  0  0  0  0  2  0  0  0  0  0  0
  188.6520  176.8690  136.3380 C   0  0  1  0  0  0  0  0  0  0  0  0
  187.3760  178.1020  139.7540 C   0  0  0  0  0  3  0  0  0  0  0  0
  186.6420  176.8610  134.8480 C   0  0  0  0  0  3  0  0  0  0  0  0
  183.7380  179.0840  139.8660 C   0  0  0  0  0  0  0  0  0  0  0  0
  183.2550  180.2000  139.5250 O   0  0  0  0  0  0  0  0  0  0  0  0
  182.9610  177.8930  139.7430 N   0  0  0  0  0  2  0  0  0  0  0  0
  181.2240  177.9500  139.4340 S   0  0  0  0  0  0  0  0  0  0  0  0
  180.6140  175.9780  137.7160 C   0  0  0  0  0  3  0  0  0  0  0  0
  181.8640  174.6010  136.0740 C   0  0  0  0  0  0  0  0  0  0  0  0
  181.4070  177.0360  137.9080 C   0  0  0  0  0  0  0  0  0  0  0  0
  180.5480  175.2080  136.4380 C   0  0  0  0  0  2  0  0  0  0  0  0
  183.0390  176.8080  136.0040 C   0  0  0  0  0  3  0  0  0  0  0  0
  182.3770  177.5360  136.9120 C   0  0  0  0  0  3  0  0  0  0  0  0
  182.9370  175.3480  135.8070 C   0  0  0  0  0  3  0  0  0  0  0  0
  181.9390  173.1290  135.8320 C   0  0  0  0  0  2  0  0  0  0  0  0
  182.2340  172.3700  137.1170 C   0  0  0  0  0  2  0  0  0  0  0  0
  183.3510  171.3590  136.8940 C   0  0  0  0  0  2  0  0  0  0  0  0
  184.6470  172.0480  136.6300 C   0  0  0  0  0  0  0  0  0  0  0  0
  187.5280  173.1590  136.8420 C   0  0  0  0  0  3  0  0  0  0  0  0
  185.3240  171.7960  135.3250 C   0  0  0  0  0  2  0  0  0  0  0  0
  186.4230  173.6170  137.4410 C   0  0  0  0  0  3  0  0  0  0  0  0
  185.1250  172.9170  137.5280 C   0  0  0  0  0  3  0  0  0  0  0  0
  186.6900  171.2250  135.5050 C   0  0  0  0  0  3  0  0  0  0  0  0
  187.6700  171.8650  136.1460 C   0  0  0  0  0  3  0  0  0  0  0  0
  185.1540  178.2130  141.7740 C   0  0  2  0  0  3  0  0  0  0  0  0
  182.8630  178.6820  142.5290 C   0  0  0  0  0  3  0  0  0  0  0  0
  184.1770  178.7540  142.7890 C   0  0  0  0  0  0  0  0  0  0  0  0
  181.8930  179.1000  143.4300 O   0  0  0  0  0  1  0  0  0  0  0  0
  185.0750  180.5900  144.0660 O   0  0  0  0  0  1  0  0  0  0  0  0
  184.6930  179.2940  144.0210 N   0  0  0  0  0  0  0  0  0  0  0  0
  184.7360  178.5290  145.2620 C   0  0  0  0  0  2  0  0  0  0  0  0
  185.8180  179.0690  146.1860 C   0  0  0  0  0  2  0  0  0  0  0  0
  186.8670  178.0070  146.4690 C   0  0  2  0  0  3  0  0  0  0  0  0
  187.4100  178.1740  147.8770 C   0  0  0  0  0  1  0  0  0  0  0  0
  187.9100  178.1280  145.5510 O   0  0  0  0  0  0  0  0  0  0  0  0
  188.8630  177.1940  145.9730 C   0  0  0  0  0  2  0  0  0  0  0  0
  189.9580  177.0530  144.9260 C   0  0  1  0  0  3  0  0  0  0  0  0
  189.9120  178.1200  144.0270 O   0  0  0  0  0  1  0  0  0  0  0  0
  191.3380  176.9510  145.5790 C   0  0  0  0  0  2  0  0  0  0  0  0
  191.2680  176.7380  147.0870 C   0  0  0  0  0  2  0  0  0  0  0  0
  192.3020  175.7220  147.5280 C   0  0  0  0  0  1  0  0  0  0  0  0
  186.7940  176.9410  142.9670 O   0  0  0  0  0  1  0  0  0  0  0  0
  186.5650  178.1730  142.3570 C   0  0  0  0  0  2  0  0  0  0  0  0
  1 15  1  6  0  0  0
  1 36  1  0  0  0  0
  2 13  1  0  0  0  0
  2  1  1  0  0  0  0
  3 12  1  0  0  0  0
  3 11  1  0  0  0  0
  4  9  1  0  0  0  0
  5  6  1  0  0  0  0
  6  4  2  0  0  0  0
  6  8  1  0  0  0  0
  8  2  2  0  0  0  0
  9 10  1  0  0  0  0
  9 13  2  0  0  0  0
 12  7  1  6  0  0  0
 12 11  1  0  0  0  0
 12  4  1  0  0  0  0
 14  7  1  0  0  0  0
 14  5  2  0  0  0  0
 16 15  2  0  0  0  0
 17 15  1  0  0  0  0
 18 17  1  0  0  0  0
 19 21  2  0  0  0  0
 20 22  1  0  0  0  0
 21 18  1  0  0  0  0
 22 19  1  0  0  0  0
 23 24  2  0  0  0  0
 24 21  1  0  0  0  0
 25 23  1  0  0  0  0
 25 20  2  0  0  0  0
 26 20  1  0  0  0  0
 26 27  1  0  0  0  0
 28 27  1  0  0  0  0
 29 28  1  0  0  0  0
 29 33  2  0  0  0  0
 30 32  2  0  0  0  0
 31 34  1  0  0  0  0
 31 29  1  0  0  0  0
 32 33  1  0  0  0  0
 34 35  2  0  0  0  0
 35 30  1  0  0  0  0
 36 54  1  1  0  0  0
 36 38  1  0  0  0  0
 37 38  2  0  0  0  0
 37 39  1  0  0  0  0
 38 41  1  0  0  0  0
 41 40  1  0  0  0  0
 41 42  1  0  0  0  0
 42 43  1  0  0  0  0
 43 44  1  0  0  0  0
 44 45  1  1  0  0  0
 46 47  1  0  0  0  0
 46 44  1  0  0  0  0
 48 49  1  6  0  0  0
 48 50  1  0  0  0  0
 48 47  1  0  0  0  0
 50 51  1  0  0  0  0
 51 52  1  0  0  0  0
 54 53  1  0  0  0  0
M  END
>  <MODEL>
7

>  <REMARK>
 VINA RESULT:      -6.6      2.760      8.541
  Name = 
  20 active torsions:
  status: ('A' for Active; 'I' for Inactive)
    1  A    between atoms: C_1  and  C_24
    2  A    between atoms: C_2  and  C_35
    3  A    between atoms: C_3  and  C_11
    4  A    between atoms: C_3  and  C_38
    5  A    between atoms: C_8  and  C_53
    6  A    between atoms: C_9  and  N_33
    7  A    between atoms: C_9  and  C_43
    8  A    between atoms: C_11  and  C_12
    9  A    between atoms: C_13  and  S_29
   10  A    between atoms: C_15  and  C_43
   11  A    between atoms: C_15  and  O_50
   12  A    between atoms: C_17  and  N_33
   13  A    between atoms: C_17  and  C_34
   14  A    between atoms: C_19  and  C_24
   15  A    between atoms: C_23  and  C_35
   16  A    between atoms: C_23  and  C_53
   17  A    between atoms: C_24  and  C_34
   18  A    between atoms: S_29  and  N_51
   19  A    between atoms: C_34  and  C_52
   20  A    between atoms: C_38  and  O_50
                            x       y       z     vdW  Elec       q    Type
                         _______ _______ _______ _____ _____    ______ ____

>  <TORSDO>
F 20

$$$$
=
 OpenBabel10222415333D

 54 58  0  0  1  0  0  0  0  0999 V2000
  184.4730  179.1910  141.1610 C   0  0  1  0  0  3  0  0  0  0  0  0
  185.7120  178.6780  141.8390 C   0  0  0  0  0  0  0  0  0  0  0  0
  189.5180  175.9020  143.6050 N   0  0  0  0  0  2  0  0  0  0  0  0
  188.0270  177.8100  143.1850 C   0  0  0  0  0  0  0  0  0  0  0  0
  186.6900  177.5050  145.2820 C   0  0  0  0  0  3  0  0  0  0  0  0
  186.7900  177.8830  143.8600 C   0  0  0  0  0  0  0  0  0  0  0  0
  189.1730  177.4550  145.4910 C   0  0  0  0  0  2  0  0  0  0  0  0
  185.6440  178.3080  143.1840 C   0  0  0  0  0  3  0  0  0  0  0  0
  188.0980  178.2090  141.8310 C   0  0  0  0  0  0  0  0  0  0  0  0
  189.2970  178.1860  141.1280 O   0  0  0  0  0  1  0  0  0  0  0  0
  190.4910  176.9800  143.3540 C   0  0  0  0  0  2  0  0  0  0  0  0
  189.2080  177.2900  143.9750 C   0  0  1  0  0  0  0  0  0  0  0  0
  186.9440  178.6450  141.1730 C   0  0  0  0  0  3  0  0  0  0  0  0
  187.7770  177.2710  146.0270 C   0  0  0  0  0  3  0  0  0  0  0  0
  184.6070  179.0250  139.6790 C   0  0  0  0  0  0  0  0  0  0  0  0
  184.5520  180.0290  138.9150 O   0  0  0  0  0  0  0  0  0  0  0  0
  184.7490  177.7120  139.1380 N   0  0  0  0  0  2  0  0  0  0  0  0
  184.5280  177.3930  137.4160 S   0  0  0  0  0  0  0  0  0  0  0  0
  186.9080  176.1670  137.2180 C   0  0  0  0  0  3  0  0  0  0  0  0
  189.2630  176.7650  137.7210 C   0  0  0  0  0  0  0  0  0  0  0  0
  186.2930  177.3500  137.1380 C   0  0  0  0  0  0  0  0  0  0  0  0
  188.3450  175.9490  136.8700 C   0  0  0  0  0  2  0  0  0  0  0  0
  188.2450  178.9370  137.0130 C   0  0  0  0  0  3  0  0  0  0  0  0
  186.9690  178.6120  136.7700 C   0  0  0  0  0  3  0  0  0  0  0  0
  189.2480  178.0990  137.7010 C   0  0  0  0  0  3  0  0  0  0  0  0
  190.3450  176.0730  138.4830 C   0  0  0  0  0  2  0  0  0  0  0  0
  191.6530  176.0640  137.7040 C   0  0  0  0  0  2  0  0  0  0  0  0
  191.9070  174.6870  137.1050 C   0  0  0  0  0  2  0  0  0  0  0  0
  193.3400  174.3030  137.2460 C   0  0  0  0  0  0  0  0  0  0  0  0
  196.0730  173.3300  138.3280 C   0  0  0  0  0  3  0  0  0  0  0  0
  193.9230  173.3750  136.2320 C   0  0  0  0  0  2  0  0  0  0  0  0
  195.4810  174.5140  138.5290 C   0  0  0  0  0  3  0  0  0  0  0  0
  194.0760  174.8490  138.2210 C   0  0  0  0  0  3  0  0  0  0  0  0
  194.4550  172.1290  136.8560 C   0  0  0  0  0  3  0  0  0  0  0  0
  195.4410  172.1260  137.7540 C   0  0  0  0  0  3  0  0  0  0  0  0
  183.1720  178.5810  141.7160 C   0  0  2  0  0  3  0  0  0  0  0  0
  181.8490  179.8000  140.0420 C   0  0  0  0  0  3  0  0  0  0  0  0
  182.0360  178.6620  140.7260 C   0  0  0  0  0  0  0  0  0  0  0  0
  180.8680  179.9430  139.0700 O   0  0  0  0  0  1  0  0  0  0  0  0
  180.0090  177.4220  141.1300 O   0  0  0  0  0  1  0  0  0  0  0  0
  181.2150  177.4950  140.5230 N   0  0  0  0  0  0  0  0  0  0  0  0
  181.5840  176.4180  139.6120 C   0  0  0  0  0  2  0  0  0  0  0  0
  180.7460  176.4810  138.3430 C   0  0  0  0  0  2  0  0  0  0  0  0
  179.7850  175.3070  138.2710 C   0  0  2  0  0  3  0  0  0  0  0  0
  180.0900  174.3160  139.3800 C   0  0  0  0  0  1  0  0  0  0  0  0
  179.9140  174.6750  137.0350 O   0  0  0  0  0  0  0  0  0  0  0  0
  180.8520  173.6590  137.2530 C   0  0  0  0  0  2  0  0  0  0  0  0
  182.0190  173.8080  136.2880 C   0  0  1  0  0  3  0  0  0  0  0  0
  183.1850  174.1420  136.9790 O   0  0  0  0  0  1  0  0  0  0  0  0
  182.2210  172.5340  135.4640 C   0  0  0  0  0  2  0  0  0  0  0  0
  183.5400  171.8320  135.7670 C   0  0  0  0  0  2  0  0  0  0  0  0
  183.3370  170.7480  136.8060 C   0  0  0  0  0  1  0  0  0  0  0  0
  182.4550  178.2410  143.9740 O   0  0  0  0  0  1  0  0  0  0  0  0
  182.7740  179.2270  143.0410 C   0  0  0  0  0  2  0  0  0  0  0  0
  1 15  1  6  0  0  0
  1 36  1  0  0  0  0
  1  2  1  0  0  0  0
  2  8  1  0  0  0  0
  3 12  1  0  0  0  0
  4  6  1  0  0  0  0
  4 12  1  0  0  0  0
  5 14  2  0  0  0  0
  6  5  1  0  0  0  0
  7 14  1  0  0  0  0
  8  6  2  0  0  0  0
  9  4  2  0  0  0  0
 10  9  1  0  0  0  0
 11  3  1  0  0  0  0
 12 11  1  6  0  0  0
 12  7  1  0  0  0  0
 13  9  1  0  0  0  0
 13  2  2  0  0  0  0
 16 15  2  0  0  0  0
 17 15  1  0  0  0  0
 18 17  1  0  0  0  0
 20 26  1  0  0  0  0
 21 19  2  0  0  0  0
 21 18  1  0  0  0  0
 22 19  1  0  0  0  0
 22 20  1  0  0  0  0
 23 25  1  0  0  0  0
 24 23  2  0  0  0  0
 24 21  1  0  0  0  0
 25 20  2  0  0  0  0
 27 26  1  0  0  0  0
 28 29  1  0  0  0  0
 28 27  1  0  0  0  0
 29 33  2  0  0  0  0
 30 32  2  0  0  0  0
 31 34  1  0  0  0  0
 31 29  1  0  0  0  0
 33 32  1  0  0  0  0
 34 35  2  0  0  0  0
 35 30  1  0  0  0  0
 36 54  1  1  0  0  0
 37 38  2  0  0  0  0
 38 36  1  0  0  0  0
 39 37  1  0  0  0  0
 41 38  1  0  0  0  0
 41 40  1  0  0  0  0
 42 41  1  0  0  0  0
 43 42  1  0  0  0  0
 44 43  1  0  0  0  0
 44 45  1  1  0  0  0
 46 47  1  0  0  0  0
 46 44  1  0  0  0  0
 48 49  1  1  0  0  0
 48 47  1  0  0  0  0
 50 51  1  0  0  0  0
 50 48  1  0  0  0  0
 51 52  1  0  0  0  0
 54 53  1  0  0  0  0
M  END
>  <MODEL>
8

>  <REMARK>
 VINA RESULT:      -6.5      2.949      6.267
  Name = 
  20 active torsions:
  status: ('A' for Active; 'I' for Inactive)
    1  A    between atoms: C_1  and  C_24
    2  A    between atoms: C_2  and  C_35
    3  A    between atoms: C_3  and  C_11
    4  A    between atoms: C_3  and  C_38
    5  A    between atoms: C_8  and  C_53
    6  A    between atoms: C_9  and  N_33
    7  A    between atoms: C_9  and  C_43
    8  A    between atoms: C_11  and  C_12
    9  A    between atoms: C_13  and  S_29
   10  A    between atoms: C_15  and  C_43
   11  A    between atoms: C_15  and  O_50
   12  A    between atoms: C_17  and  N_33
   13  A    between atoms: C_17  and  C_34
   14  A    between atoms: C_19  and  C_24
   15  A    between atoms: C_23  and  C_35
   16  A    between atoms: C_23  and  C_53
   17  A    between atoms: C_24  and  C_34
   18  A    between atoms: S_29  and  N_51
   19  A    between atoms: C_34  and  C_52
   20  A    between atoms: C_38  and  O_50
                            x       y       z     vdW  Elec       q    Type
                         _______ _______ _______ _____ _____    ______ ____

>  <TORSDO>
F 20

$$$$
=
 OpenBabel10222415333D

 54 58  0  0  1  0  0  0  0  0999 V2000
  186.7840  177.7570  142.0190 C   0  0  1  0  0  3  0  0  0  0  0  0
  187.3320  177.6780  143.4160 C   0  0  0  0  0  0  0  0  0  0  0  0
  189.1680  178.6290  148.0020 N   0  0  0  0  0  2  0  0  0  0  0  0
  188.3930  177.4170  146.0100 C   0  0  0  0  0  0  0  0  0  0  0  0
  190.6830  177.1120  145.0390 C   0  0  0  0  0  3  0  0  0  0  0  0
  189.2340  177.3350  144.8800 C   0  0  0  0  0  0  0  0  0  0  0  0
  190.3790  176.5520  147.4480 C   0  0  0  0  0  2  0  0  0  0  0  0
  188.7020  177.4730  143.5960 C   0  0  0  0  0  3  0  0  0  0  0  0
  187.0040  177.5990  145.8240 C   0  0  0  0  0  0  0  0  0  0  0  0
  186.1280  177.6570  146.9020 O   0  0  0  0  0  1  0  0  0  0  0  0
  188.3430  177.5710  148.6110 C   0  0  0  0  0  2  0  0  0  0  0  0
  189.0570  177.3100  147.3660 C   0  0  1  0  0  0  0  0  0  0  0  0
  186.4850  177.7220  144.5320 C   0  0  0  0  0  3  0  0  0  0  0  0
  191.2200  176.7890  146.2210 C   0  0  0  0  0  3  0  0  0  0  0  0
  185.5810  178.6480  142.0020 C   0  0  0  0  0  0  0  0  0  0  0  0
  185.7100  179.9010  142.1030 O   0  0  0  0  0  0  0  0  0  0  0  0
  184.2830  178.0600  141.9180 N   0  0  0  0  0  2  0  0  0  0  0  0
  182.8230  178.9870  142.2740 S   0  0  0  0  0  0  0  0  0  0  0  0
  182.6470  177.5880  139.9890 C   0  0  0  0  0  3  0  0  0  0  0  0
  181.1360  177.5810  138.0210 C   0  0  0  0  0  0  0  0  0  0  0  0
  181.9340  178.2120  140.9310 C   0  0  0  0  0  0  0  0  0  0  0  0
  182.0450  176.7740  138.8900 C   0  0  0  0  0  2  0  0  0  0  0  0
  179.6290  178.2140  139.9150 C   0  0  0  0  0  3  0  0  0  0  0  0
  180.4570  178.2420  140.9680 C   0  0  0  0  0  3  0  0  0  0  0  0
  180.0220  178.1440  138.4930 C   0  0  0  0  0  3  0  0  0  0  0  0
  181.3860  177.6140  136.5490 C   0  0  0  0  0  2  0  0  0  0  0  0
  182.8420  177.3080  136.2280 C   0  0  0  0  0  2  0  0  0  0  0  0
  182.9360  176.2000  135.1870 C   0  0  0  0  0  2  0  0  0  0  0  0
  183.7490  175.0590  135.6980 C   0  0  0  0  0  0  0  0  0  0  0  0
  185.1930  173.0030  137.5060 C   0  0  0  0  0  3  0  0  0  0  0  0
  183.4860  173.7010  135.1370 C   0  0  0  0  0  2  0  0  0  0  0  0
  185.5630  174.2590  137.2290 C   0  0  0  0  0  3  0  0  0  0  0  0
  184.7270  175.2900  136.5820 C   0  0  0  0  0  3  0  0  0  0  0  0
  183.0890  172.7270  136.1940 C   0  0  0  0  0  3  0  0  0  0  0  0
  183.8790  172.3970  137.2170 C   0  0  0  0  0  3  0  0  0  0  0  0
  187.8380  178.1560  140.9680 C   0  0  2  0  0  3  0  0  0  0  0  0
  185.9600  178.6270  139.4550 C   0  0  0  0  0  3  0  0  0  0  0  0
  187.2480  178.2750  139.5840 C   0  0  0  0  0  0  0  0  0  0  0  0
  185.3520  178.8180  138.2210 O   0  0  0  0  0  1  0  0  0  0  0  0
  189.0270  178.9730  138.1160 O   0  0  0  0  0  1  0  0  0  0  0  0
  188.1030  178.0430  138.4490 N   0  0  0  0  0  0  0  0  0  0  0  0
  188.0870  176.7990  137.6880 C   0  0  0  0  0  2  0  0  0  0  0  0
  188.0480  177.0860  136.1940 C   0  0  0  0  0  2  0  0  0  0  0  0
  189.1440  176.3250  135.4680 C   0  0  2  0  0  3  0  0  0  0  0  0
  189.1120  174.8600  135.8660 C   0  0  0  0  0  1  0  0  0  0  0  0
  190.3850  176.8690  135.7990 O   0  0  0  0  0  0  0  0  0  0  0  0
  191.1010  175.8030  136.3580 C   0  0  0  0  0  2  0  0  0  0  0  0
  191.6540  176.2010  137.7180 C   0  0  1  0  0  3  0  0  0  0  0  0
  191.1080  175.3980  138.7210 O   0  0  0  0  0  1  0  0  0  0  0  0
  193.1830  176.1290  137.7360 C   0  0  0  0  0  2  0  0  0  0  0  0
  193.7900  176.0250  136.3410 C   0  0  0  0  0  2  0  0  0  0  0  0
  194.5680  174.7330  136.1960 C   0  0  0  0  0  1  0  0  0  0  0  0
  190.2150  177.8950  140.8640 O   0  0  0  0  0  1  0  0  0  0  0  0
  189.0170  177.1880  140.9660 C   0  0  0  0  0  2  0  0  0  0  0  0
  1 15  1  1  0  0  0
  1  2  1  0  0  0  0
  2  8  2  0  0  0  0
  2 13  1  0  0  0  0
  3 11  1  0  0  0  0
  4 12  1  0  0  0  0
  5 14  2  0  0  0  0
  6  5  1  0  0  0  0
  6  4  2  0  0  0  0
  8  6  1  0  0  0  0
  9  4  1  0  0  0  0
  9 10  1  0  0  0  0
 12  7  1  1  0  0  0
 12  3  1  0  0  0  0
 12 11  1  0  0  0  0
 13  9  2  0  0  0  0
 14  7  1  0  0  0  0
 15 16  2  0  0  0  0
 17 15  1  0  0  0  0
 17 18  1  0  0  0  0
 19 21  2  0  0  0  0
 20 25  2  0  0  0  0
 20 22  1  0  0  0  0
 21 24  1  0  0  0  0
 21 18  1  0  0  0  0
 22 19  1  0  0  0  0
 23 24  2  0  0  0  0
 25 23  1  0  0  0  0
 26 20  1  0  0  0  0
 27 26  1  0  0  0  0
 28 29  1  0  0  0  0
 28 27  1  0  0  0  0
 29 33  2  0  0  0  0
 31 29  1  0  0  0  0
 31 34  1  0  0  0  0
 32 30  2  0  0  0  0
 33 32  1  0  0  0  0
 34 35  2  0  0  0  0
 35 30  1  0  0  0  0
 36 54  1  6  0  0  0
 36  1  1  0  0  0  0
 37 38  2  0  0  0  0
 38 36  1  0  0  0  0
 39 37  1  0  0  0  0
 40 41  1  0  0  0  0
 41 38  1  0  0  0  0
 42 41  1  0  0  0  0
 43 42  1  0  0  0  0
 44 46  1  0  0  0  0
 44 45  1  1  0  0  0
 44 43  1  0  0  0  0
 46 47  1  0  0  0  0
 47 48  1  0  0  0  0
 48 50  1  0  0  0  0
 48 49  1  1  0  0  0
 51 50  1  0  0  0  0
 52 51  1  0  0  0  0
 53 54  1  0  0  0  0
M  END
>  <MODEL>
9

>  <REMARK>
 VINA RESULT:      -6.5      2.375      6.922
  Name = 
  20 active torsions:
  status: ('A' for Active; 'I' for Inactive)
    1  A    between atoms: C_1  and  C_24
    2  A    between atoms: C_2  and  C_35
    3  A    between atoms: C_3  and  C_11
    4  A    between atoms: C_3  and  C_38
    5  A    between atoms: C_8  and  C_53
    6  A    between atoms: C_9  and  N_33
    7  A    between atoms: C_9  and  C_43
    8  A    between atoms: C_11  and  C_12
    9  A    between atoms: C_13  and  S_29
   10  A    between atoms: C_15  and  C_43
   11  A    between atoms: C_15  and  O_50
   12  A    between atoms: C_17  and  N_33
   13  A    between atoms: C_17  and  C_34
   14  A    between atoms: C_19  and  C_24
   15  A    between atoms: C_23  and  C_35
   16  A    between atoms: C_23  and  C_53
   17  A    between atoms: C_24  and  C_34
   18  A    between atoms: S_29  and  N_51
   19  A    between atoms: C_34  and  C_52
   20  A    between atoms: C_38  and  O_50
                            x       y       z     vdW  Elec       q    Type
                         _______ _______ _______ _____ _____    ______ ____

>  <TORSDO>
F 20

$$$$
