=
 OpenBabel10222418313D

 68 75  0  0  1  0  0  0  0  0999 V2000
  188.2790  176.6000  135.9820 C   0  0  0  0  0  0  0  0  0  0  0  0
  188.9470  176.1420  134.7870 N   0  0  0  0  0  0  0  0  0  0  0  0
  190.7960  177.4790  141.9770 C   0  0  1  0  0  3  0  0  0  0  0  0
  189.1490  177.2750  139.4400 C   0  0  0  0  0  2  0  0  0  0  0  0
  193.1710  175.8380  136.9660 O   0  0  0  0  0  0  0  0  0  0  0  0
  183.2180  178.3120  142.2580 C   0  0  1  0  0  3  0  0  0  0  0  0
  185.2940  177.5430  143.4240 C   0  0  1  0  0  3  0  0  0  0  0  0
  184.9840  178.7140  144.2610 N   0  0  0  0  0  0  0  0  0  0  0  0
  192.6380  176.3060  138.1770 C   0  0  0  0  0  0  0  0  0  0  0  0
  184.1710  177.6210  137.7560 C   0  0  0  0  0  2  0  0  0  0  0  0
  184.5730  179.9810  143.6500 C   0  0  0  0  0  2  0  0  0  0  0  0
  191.4150  177.1140  140.6590 C   0  0  0  0  0  0  0  0  0  0  0  0
  190.6720  177.4560  139.3890 C   0  0  1  0  0  3  0  0  0  0  0  0
  183.3980  179.7750  142.6760 C   0  0  0  0  0  2  0  0  0  0  0  0
  191.0440  175.9630  135.8910 C   0  0  0  0  0  0  0  0  0  0  0  0
  188.6000  177.5810  138.1730 O   0  0  0  0  0  0  0  0  0  0  0  0
  185.4680  179.8020  146.4440 N   0  0  0  0  0  2  0  0  0  0  0  0
  182.2350  178.1370  141.0910 C   0  0  0  0  0  2  0  0  0  0  0  0
  191.2360  176.7300  138.2000 C   0  0  0  0  0  0  0  0  0  0  0  0
  188.9740  176.5320  137.3080 C   0  0  2  0  0  3  0  0  0  0  0  0
  189.5110  175.9950  143.5290 C   0  0  0  0  0  2  0  0  0  0  0  0
  184.5560  177.5960  142.0840 C   0  0  0  0  0  2  0  0  0  0  0  0
  185.6820  176.7270  136.0360 C   0  0  0  0  0  3  0  0  0  0  0  0
  192.3590  175.6800  135.8230 C   0  0  0  0  0  0  0  0  0  0  0  0
  181.4710  179.3870  137.6090 C   0  0  0  0  0  2  0  0  0  0  0  0
  190.1890  175.8450  134.7470 N   0  0  0  0  0  0  0  0  0  0  0  0
  182.0110  180.7730  138.0070 C   0  0  0  0  0  2  0  0  0  0  0  0
  181.4240  178.4260  138.8000 C   0  0  0  0  0  2  0  0  0  0  0  0
  190.4670  176.4720  137.1420 C   0  0  0  0  0  0  0  0  0  0  0  0
  187.5150  176.8820  144.3710 C   0  0  0  0  0  2  0  0  0  0  0  0
  182.3620  180.8540  139.3720 O   0  0  0  0  0  0  0  0  0  0  0  0
  193.3310  176.2780  139.3250 C   0  0  0  0  0  0  0  0  0  0  0  0
  185.0270  177.5200  146.2710 O   0  0  0  0  0  0  0  0  0  0  0  0
  183.3390  179.8730  139.6000 C   0  0  0  0  0  2  0  0  0  0  0  0
  185.0060  176.4320  137.3290 C   0  0  0  0  0  2  0  0  0  0  0  0
  192.6740  176.6380  140.6030 C   0  0  0  0  0  3  0  0  0  0  0  0
  185.1480  178.6310  145.6870 C   0  0  0  0  0  0  0  0  0  0  0  0
  188.9430  177.1160  144.2600 N   0  0  0  0  0  2  0  0  0  0  0  0
  190.8980  176.3560  143.0050 C   0  0  0  0  0  2  0  0  0  0  0  0
  186.9790  176.6770  135.9820 C   0  0  0  0  0  0  0  0  0  0  0  0
  182.6980  178.4730  139.6620 C   0  0  1  0  0  0  0  0  0  0  0  0
  183.6840  177.3970  139.1860 C   0  0  0  0  0  2  0  0  0  0  0  0
  186.7920  177.4560  143.1610 C   0  0  0  0  0  2  0  0  0  0  0  0
  191.3530  178.7810  142.5220 C   0  0  0  0  0  2  0  0  0  0  0  0
  192.3610  178.4850  143.5300 N   0  0  0  0  0  1  0  0  0  0  0  0
  194.1200  174.3840  134.5970 C   0  0  0  0  0  1  0  0  0  0  0  0
  192.9300  175.2160  134.6020 N   0  0  0  0  0  2  0  0  0  0  0  0
  195.7400  175.2060  139.4310 C   0  0  0  0  0  0  0  0  0  0  0  0
  194.6530  175.7140  139.3680 C   0  0  0  0  0  0  0  0  0  0  0  0
  197.0560  174.5740  139.5270 C   0  0  0  0  0  2  0  0  0  0  0  0
  197.3180  173.7310  138.2970 C   0  0  0  0  0  2  0  0  0  0  0  0
  196.1340  173.1140  137.8950 O   0  0  0  0  0  0  0  0  0  0  0  0
  196.2180  173.0070  136.5030 C   0  0  1  0  0  3  0  0  0  0  0  0
  197.6300  173.3610  136.0210 C   0  0  1  0  0  3  0  0  0  0  0  0
  198.3640  172.2010  135.7700 O   0  0  0  0  0  1  0  0  0  0  0  0
  197.6610  174.2840  134.7980 C   0  0  0  0  0  2  0  0  0  0  0  0
  197.1720  176.7360  135.1810 C   0  0  0  0  0  3  0  0  0  0  0  0
  195.9320  176.5610  135.0370 O   0  0  0  0  0  0  0  0  0  0  0  0
  198.0780  175.6320  135.1530 N   0  0  0  0  0  2  0  0  0  0  0  0
  195.8010  171.6070  136.0530 C   0  0  0  0  0  2  0  0  0  0  0  0
  195.1710  170.8120  137.1850 C   0  0  0  0  0  2  0  0  0  0  0  0
  193.8950  170.3810  136.8140 O   0  0  0  0  0  0  0  0  0  0  0  0
  192.6580  169.6290  134.9510 C   0  0  0  0  0  2  0  0  0  0  0  0
  193.9760  170.1860  135.4370 C   0  0  0  0  0  3  0  0  0  0  0  0
  192.9800  171.0900  134.7310 C   0  0  0  0  0  2  0  0  0  0  0  0
  185.7480  179.7240  147.8710 C   0  0  0  0  0  2  0  0  0  0  0  0
  186.6260  178.5170  148.1700 C   0  0  0  0  0  2  0  0  0  0  0  0
  188.0770  178.8080  147.8250 C   0  0  0  0  0  1  0  0  0  0  0  0
  1 40  2  0  0  0  0
  2  1  1  0  0  0  0
  3 44  1  1  0  0  0
  3 39  1  0  0  0  0
  5  9  1  0  0  0  0
  6 18  1  6  0  0  0
  6 14  1  0  0  0  0
  7 22  1  6  0  0  0
  7  8  1  0  0  0  0
  8 37  1  0  0  0  0
  9 19  1  0  0  0  0
  9 32  2  0  0  0  0
 10 42  1  0  0  0  0
 11  8  1  0  0  0  0
 12  3  1  0  0  0  0
 13  4  1  1  0  0  0
 13 12  1  0  0  0  0
 14 11  1  0  0  0  0
 15 29  1  0  0  0  0
 16  4  1  0  0  0  0
 17 66  1  0  0  0  0
 19 13  1  0  0  0  0
 20  1  1  6  0  0  0
 20 16  1  0  0  0  0
 21 38  1  0  0  0  0
 22  6  1  0  0  0  0
 23 35  1  0  0  0  0
 24 15  2  0  0  0  0
 24  5  1  0  0  0  0
 25 27  1  0  0  0  0
 25 28  1  0  0  0  0
 26  2  2  0  0  0  0
 26 15  1  0  0  0  0
 27 31  1  0  0  0  0
 29 20  1  0  0  0  0
 29 19  2  0  0  0  0
 31 34  1  0  0  0  0
 32 49  1  0  0  0  0
 32 36  1  0  0  0  0
 34 41  1  0  0  0  0
 35 10  1  0  0  0  0
 36 12  2  0  0  0  0
 37 33  2  0  0  0  0
 37 17  1  0  0  0  0
 38 30  1  0  0  0  0
 39 21  1  0  0  0  0
 40 23  2  0  0  0  0
 41 28  1  6  0  0  0
 41 18  1  0  0  0  0
 42 41  1  0  0  0  0
 43  7  1  0  0  0  0
 43 30  1  0  0  0  0
 44 45  1  0  0  0  0
 46 47  1  0  0  0  0
 47 24  1  0  0  0  0
 48 50  1  0  0  0  0
 49 48  3  0  0  0  0
 51 50  1  0  0  0  0
 52 51  1  0  0  0  0
 53 60  1  1  0  0  0
 53 52  1  0  0  0  0
 54 55  1  6  0  0  0
 54 53  1  0  0  0  0
 56 59  1  0  0  0  0
 56 54  1  0  0  0  0
 58 57  2  0  0  0  0
 59 57  1  0  0  0  0
 60 61  1  0  0  0  0
 62 61  1  0  0  0  0
 63 64  1  0  0  0  0
 64 62  1  0  0  0  0
 65 63  1  0  0  0  0
 65 64  1  0  0  0  0
 66 67  1  0  0  0  0
 68 67  1  0  0  0  0
M  END
>  <MODEL>
1

>  <REMARK>
 VINA RESULT:      -3.6      0.000      0.000
  Name = 
  16 active torsions:
  status: ('A' for Active; 'I' for Inactive)
    1  A    between atoms: C_2  and  C_13
    2  A    between atoms: C_2  and  N_56
    3  A    between atoms: C_5  and  C_54
    4  A    between atoms: O_9  and  C_39
    5  A    between atoms: O_9  and  C_68
    6  A    between atoms: C_13  and  C_68
    7  A    between atoms: C_21  and  O_46
    8  A    between atoms: N_23  and  C_29
    9  A    between atoms: C_29  and  C_45
   10  A    between atoms: C_32  and  N_64
   11  A    between atoms: C_39  and  C_52
   12  A    between atoms: C_41  and  C_52
   13  A    between atoms: C_44  and  C_55
   14  A    between atoms: O_46  and  C_53
   15  A    between atoms: C_53  and  C_61
   16  A    between atoms: C_61  and  C_68
                            x       y       z     vdW  Elec       q    Type
                         _______ _______ _______ _____ _____    ______ ____

>  <TORSDO>
F 16

$$$$
=
 OpenBabel10222418313D

 68 75  0  0  1  0  0  0  0  0999 V2000
  184.1450  178.6510  143.5730 C   0  0  0  0  0  0  0  0  0  0  0  0
  182.8220  178.8910  144.0990 N   0  0  0  0  0  0  0  0  0  0  0  0
  185.9890  178.0040  137.3100 C   0  0  1  0  0  3  0  0  0  0  0  0
  185.6970  178.2470  140.3180 C   0  0  0  0  0  2  0  0  0  0  0  0
  180.8720  179.1230  139.7600 O   0  0  0  0  0  0  0  0  0  0  0  0
  191.8620  176.3080  141.8740 C   0  0  1  0  0  3  0  0  0  0  0  0
  190.6650  175.8440  139.7270 C   0  0  1  0  0  3  0  0  0  0  0  0
  191.8780  176.4710  139.1780 N   0  0  0  0  0  0  0  0  0  0  0  0
  182.1130  178.9280  139.1350 C   0  0  0  0  0  0  0  0  0  0  0  0
  188.4630  177.6400  144.7580 C   0  0  0  0  0  2  0  0  0  0  0  0
  192.4340  177.6820  139.7890 C   0  0  0  0  0  2  0  0  0  0  0  0
  184.6780  178.3540  137.9520 C   0  0  0  0  0  0  0  0  0  0  0  0
  184.6820  178.8920  139.3640 C   0  0  1  0  0  3  0  0  0  0  0  0
  192.6440  177.4970  141.3030 C   0  0  0  0  0  2  0  0  0  0  0  0
  181.8530  178.9730  141.9300 C   0  0  0  0  0  0  0  0  0  0  0  0
  185.5490  178.8100  141.6060 O   0  0  0  0  0  0  0  0  0  0  0  0
  193.2130  176.7780  137.1030 N   0  0  0  0  0  2  0  0  0  0  0  0
  191.8480  176.2800  143.4100 C   0  0  0  0  0  2  0  0  0  0  0  0
  183.3100  178.8620  139.9770 C   0  0  0  0  0  0  0  0  0  0  0  0
  184.3330  178.3200  142.1230 C   0  0  2  0  0  3  0  0  0  0  0  0
  187.0280  175.7380  137.0890 C   0  0  0  0  0  2  0  0  0  0  0  0
  190.4930  176.1530  141.2160 C   0  0  0  0  0  2  0  0  0  0  0  0
  186.0620  177.9460  145.1840 C   0  0  0  0  0  3  0  0  0  0  0  0
  180.7590  179.1530  141.1660 C   0  0  0  0  0  0  0  0  0  0  0  0
  191.1110  178.4180  146.4350 C   0  0  0  0  0  2  0  0  0  0  0  0
  181.7880  179.0260  143.3610 N   0  0  0  0  0  0  0  0  0  0  0  0
  191.5930  179.6550  145.6560 C   0  0  0  0  0  2  0  0  0  0  0  0
  191.3310  177.1230  145.6470 C   0  0  0  0  0  2  0  0  0  0  0  0
  183.1650  178.7860  141.3000 C   0  0  0  0  0  0  0  0  0  0  0  0
  189.2980  175.5970  137.6440 C   0  0  0  0  0  2  0  0  0  0  0  0
  192.1130  179.3350  144.3840 O   0  0  0  0  0  0  0  0  0  0  0  0
  182.2250  178.6960  137.8190 C   0  0  0  0  0  0  0  0  0  0  0  0
  192.3630  174.7000  137.7310 O   0  0  0  0  0  0  0  0  0  0  0  0
  191.0880  178.6900  143.6760 C   0  0  0  0  0  2  0  0  0  0  0  0
  187.0900  177.0070  144.6600 C   0  0  0  0  0  2  0  0  0  0  0  0
  183.5390  178.3430  137.2320 C   0  0  0  0  0  3  0  0  0  0  0  0
  192.4860  175.9270  137.9940 C   0  0  0  0  0  0  0  0  0  0  0  0
  188.3430  176.2820  136.7920 N   0  0  0  0  0  2  0  0  0  0  0  0
  185.9410  176.6720  136.5660 C   0  0  0  0  0  2  0  0  0  0  0  0
  185.0960  178.3200  144.3990 C   0  0  0  0  0  0  0  0  0  0  0  0
  190.9170  177.2400  144.1700 C   0  0  1  0  0  0  0  0  0  0  0  0
  189.4650  176.7710  144.0020 C   0  0  0  0  0  2  0  0  0  0  0  0
  189.4290  176.3230  138.9760 C   0  0  0  0  0  2  0  0  0  0  0  0
  186.4980  179.1190  136.4160 C   0  0  0  0  0  2  0  0  0  0  0  0
  187.7340  179.6500  136.9710 N   0  0  0  0  0  1  0  0  0  0  0  0
  179.3570  180.1440  142.9940 C   0  0  0  0  0  1  0  0  0  0  0  0
  179.4870  179.3660  141.7750 N   0  0  0  0  0  2  0  0  0  0  0  0
  180.0930  178.5350  136.2720 C   0  0  0  0  0  0  0  0  0  0  0  0
  181.0540  178.5900  136.9920 C   0  0  0  0  0  0  0  0  0  0  0  0
  178.9310  178.4910  135.3860 C   0  0  0  0  0  2  0  0  0  0  0  0
  178.9300  177.2000  134.5940 C   0  0  0  0  0  2  0  0  0  0  0  0
  180.1730  176.5800  134.7140 O   0  0  0  0  0  0  0  0  0  0  0  0
  179.8990  175.2280  134.9490 C   0  0  1  0  0  3  0  0  0  0  0  0
  181.1990  174.4160  135.0000 C   0  0  1  0  0  3  0  0  0  0  0  0
  182.0370  174.9030  136.0030 O   0  0  0  0  0  1  0  0  0  0  0  0
  180.9880  172.9080  135.1700 C   0  0  0  0  0  2  0  0  0  0  0  0
  182.3290  170.8790  135.8640 C   0  0  0  0  0  3  0  0  0  0  0  0
  181.6660  170.1210  135.1050 O   0  0  0  0  0  0  0  0  0  0  0  0
  182.0940  172.2880  135.8830 N   0  0  0  0  0  2  0  0  0  0  0  0
  179.0810  175.0690  136.2310 C   0  0  0  0  0  2  0  0  0  0  0  0
  179.8680  175.4910  137.4610 C   0  0  0  0  0  2  0  0  0  0  0  0
  179.0170  175.5890  138.5640 O   0  0  0  0  0  0  0  0  0  0  0  0
  180.9180  175.3110  139.9330 C   0  0  0  0  0  2  0  0  0  0  0  0
  179.5800  174.7440  139.5190 C   0  0  0  0  0  3  0  0  0  0  0  0
  179.7190  175.4820  140.8380 C   0  0  0  0  0  2  0  0  0  0  0  0
  193.7420  176.2730  135.8430 C   0  0  0  0  0  2  0  0  0  0  0  0
  192.6260  176.1510  134.8150 C   0  0  0  0  0  2  0  0  0  0  0  0
  192.2350  174.6970  134.6160 C   0  0  0  0  0  1  0  0  0  0  0  0
  1  2  1  0  0  0  0
  1 40  2  0  0  0  0
  3 44  1  6  0  0  0
  3 12  1  0  0  0  0
  4 16  1  0  0  0  0
  5 24  1  0  0  0  0
  6 22  1  1  0  0  0
  6 18  1  0  0  0  0
  7 43  1  6  0  0  0
  7 22  1  0  0  0  0
  8  7  1  0  0  0  0
  8 11  1  0  0  0  0
  9  5  1  0  0  0  0
  9 19  1  0  0  0  0
 11 14  1  0  0  0  0
 12 13  1  0  0  0  0
 13 19  1  0  0  0  0
 13  4  1  1  0  0  0
 14  6  1  0  0  0  0
 15 26  1  0  0  0  0
 16 20  1  0  0  0  0
 17 37  1  0  0  0  0
 19 29  2  0  0  0  0
 20 29  1  6  0  0  0
 20  1  1  0  0  0  0
 24 47  1  0  0  0  0
 24 15  2  0  0  0  0
 26  2  2  0  0  0  0
 27 25  1  0  0  0  0
 28 25  1  0  0  0  0
 29 15  1  0  0  0  0
 30 43  1  0  0  0  0
 31 27  1  0  0  0  0
 32  9  2  0  0  0  0
 33 37  2  0  0  0  0
 34 41  1  0  0  0  0
 34 31  1  0  0  0  0
 35 10  1  0  0  0  0
 35 23  1  0  0  0  0
 36 32  1  0  0  0  0
 36 12  2  0  0  0  0
 37  8  1  0  0  0  0
 38 21  1  0  0  0  0
 38 30  1  0  0  0  0
 39 21  1  0  0  0  0
 39  3  1  0  0  0  0
 40 23  2  0  0  0  0
 41 18  1  6  0  0  0
 41 28  1  0  0  0  0
 42 41  1  0  0  0  0
 42 10  1  0  0  0  0
 44 45  1  0  0  0  0
 47 46  1  0  0  0  0
 48 49  3  0  0  0  0
 49 32  1  0  0  0  0
 50 48  1  0  0  0  0
 51 52  1  0  0  0  0
 51 50  1  0  0  0  0
 52 53  1  0  0  0  0
 53 54  1  0  0  0  0
 53 60  1  1  0  0  0
 54 56  1  0  0  0  0
 54 55  1  1  0  0  0
 56 59  1  0  0  0  0
 57 59  1  0  0  0  0
 58 57  2  0  0  0  0
 60 61  1  0  0  0  0
 61 62  1  0  0  0  0
 62 64  1  0  0  0  0
 63 65  1  0  0  0  0
 64 63  1  0  0  0  0
 64 65  1  0  0  0  0
 66 17  1  0  0  0  0
 67 66  1  0  0  0  0
 68 67  1  0  0  0  0
M  END
>  <MODEL>
2

>  <REMARK>
 VINA RESULT:      -3.4      3.523     12.119
  Name = 
  16 active torsions:
  status: ('A' for Active; 'I' for Inactive)
    1  A    between atoms: C_2  and  C_13
    2  A    between atoms: C_2  and  N_56
    3  A    between atoms: C_5  and  C_54
    4  A    between atoms: O_9  and  C_39
    5  A    between atoms: O_9  and  C_68
    6  A    between atoms: C_13  and  C_68
    7  A    between atoms: C_21  and  O_46
    8  A    between atoms: N_23  and  C_29
    9  A    between atoms: C_29  and  C_45
   10  A    between atoms: C_32  and  N_64
   11  A    between atoms: C_39  and  C_52
   12  A    between atoms: C_41  and  C_52
   13  A    between atoms: C_44  and  C_55
   14  A    between atoms: O_46  and  C_53
   15  A    between atoms: C_53  and  C_61
   16  A    between atoms: C_61  and  C_68
                            x       y       z     vdW  Elec       q    Type
                         _______ _______ _______ _____ _____    ______ ____

>  <TORSDO>
F 16

$$$$
