=
 OpenBabel10222415523D

 29 33  0  0  1  0  0  0  0  0999 V2000
  182.1330  179.1720  140.7510 C   0  0  0  0  0  0  0  0  0  0  0  0
  183.3180  179.4460  140.0140 C   0  0  0  0  0  0  0  0  0  0  0  0
  185.0780  178.9990  145.1440 C   0  0  0  0  0  3  0  0  0  0  0  0
  186.2460  178.2070  141.9070 O   0  0  0  0  0  0  0  0  0  0  0  0
  181.9790  180.6010  138.3660 C   0  0  0  0  0  3  0  0  0  0  0  0
  185.2240  178.6580  143.8660 C   0  0  0  0  0  0  0  0  0  0  0  0
  183.0100  178.2760  142.8540 C   0  0  0  0  0  3  0  0  0  0  0  0
  182.0940  178.3570  141.9370 N   0  0  0  0  0  0  0  0  0  0  0  0
  187.1560  178.0960  146.2350 C   0  0  0  0  0  3  0  0  0  0  0  0
  187.7570  177.3290  145.1390 C   0  0  0  0  0  3  0  0  0  0  0  0
  186.0230  178.7920  146.2420 C   0  0  0  0  0  3  0  0  0  0  0  0
  184.2470  179.1040  142.8200 C   0  0  2  0  0  3  0  0  0  0  0  0
  184.6130  178.9480  140.3820 N   0  0  0  0  0  0  0  0  0  0  0  0
  187.4170  177.2750  143.8520 C   0  0  0  0  0  0  0  0  0  0  0  0
  186.3910  178.0930  143.2660 N   0  0  0  0  0  0  0  0  0  0  0  0
  180.9110  179.6240  140.2420 C   0  0  0  0  0  3  0  0  0  0  0  0
  183.2200  180.1550  138.8130 C   0  0  0  0  0  3  0  0  0  0  0  0
  185.0210  178.7660  141.5970 C   0  0  0  0  0  0  0  0  0  0  0  0
  180.8590  180.3300  139.0820 N   0  0  0  0  0  0  0  0  0  0  0  0
  188.2050  176.4180  143.0190 N   0  0  0  0  0  2  0  0  0  0  0  0
  190.1690  177.5060  140.1460 N   0  0  0  0  0  0  0  0  0  0  0  0
  189.0330  177.2240  140.7060 C   0  0  0  0  0  3  0  0  0  0  0  0
  192.3830  177.5320  140.9780 O   0  0  0  0  0  0  0  0  0  0  0  0
  191.1510  177.3440  141.1600 C   0  0  0  0  0  0  0  0  0  0  0  0
  189.2250  176.8730  142.1230 C   0  0  0  0  0  0  0  0  0  0  0  0
  190.5230  176.9300  142.3980 C   0  0  0  0  0  0  0  0  0  0  0  0
  191.7120  175.3950  143.8290 O   0  0  0  0  0  1  0  0  0  0  0  0
  191.3330  177.6120  144.6970 C   0  0  0  0  0  1  0  0  0  0  0  0
  191.1840  176.6260  143.6370 N   0  0  0  0  0  0  0  0  0  0  0  0
  1  8  1  0  0  0  0
  2 13  1  0  0  0  0
  2  1  2  0  0  0  0
  3 11  1  0  0  0  0
  4 15  1  0  0  0  0
  5 17  2  0  0  0  0
  5 19  1  0  0  0  0
  6  3  2  0  0  0  0
  8  7  2  0  0  0  0
  9 11  2  0  0  0  0
 10  9  1  0  0  0  0
 12  7  1  6  0  0  0
 12  6  1  0  0  0  0
 13 18  2  0  0  0  0
 14 10  2  0  0  0  0
 15 14  1  0  0  0  0
 15  6  1  0  0  0  0
 16  1  1  0  0  0  0
 17  2  1  0  0  0  0
 18  4  1  0  0  0  0
 18 12  1  0  0  0  0
 19 16  2  0  0  0  0
 20 14  1  0  0  0  0
 21 22  2  0  0  0  0
 21 24  1  0  0  0  0
 22 25  1  0  0  0  0
 23 24  2  0  0  0  0
 24 26  1  0  0  0  0
 25 26  2  0  0  0  0
 25 20  1  0  0  0  0
 26 29  1  0  0  0  0
 29 27  1  0  0  0  0
 29 28  1  0  0  0  0
M  END
>  <MODEL>
1

>  <REMARK>
 VINA RESULT:      -8.8      0.000      0.000
  Name = 
  3 active torsions:
  status: ('A' for Active; 'I' for Inactive)
    1  A    between atoms: N_8  and  C_29
    2  A    between atoms: N_13  and  C_22
    3  A    between atoms: N_13  and  C_23
                            x       y       z     vdW  Elec       q    Type
                         _______ _______ _______ _____ _____    ______ ____

>  <TORSDO>
F 3

$$$$
=
 OpenBabel10222415523D

 29 33  0  0  1  0  0  0  0  0999 V2000
  186.3910  178.7620  146.3110 C   0  0  0  0  0  0  0  0  0  0  0  0
  187.1070  177.8720  145.4640 C   0  0  0  0  0  0  0  0  0  0  0  0
  182.4130  178.6520  142.8250 C   0  0  0  0  0  3  0  0  0  0  0  0
  185.8150  178.1720  142.0100 O   0  0  0  0  0  0  0  0  0  0  0  0
  188.2940  177.0440  147.4020 C   0  0  0  0  0  3  0  0  0  0  0  0
  183.7420  178.6170  142.7790 C   0  0  0  0  0  0  0  0  0  0  0  0
  184.6670  179.6490  144.8170 C   0  0  0  0  0  3  0  0  0  0  0  0
  185.4660  179.7560  145.8350 N   0  0  0  0  0  0  0  0  0  0  0  0
  181.7450  178.8310  140.4070 C   0  0  0  0  0  3  0  0  0  0  0  0
  183.0440  179.0250  139.7540 C   0  0  0  0  0  3  0  0  0  0  0  0
  181.4760  178.6830  141.7010 C   0  0  0  0  0  3  0  0  0  0  0  0
  184.5630  178.3990  144.0140 C   0  0  2  0  0  3  0  0  0  0  0  0
  186.9740  177.8590  144.0350 N   0  0  0  0  0  0  0  0  0  0  0  0
  184.2720  178.9350  140.2610 C   0  0  0  0  0  0  0  0  0  0  0  0
  184.5490  178.5070  141.6040 N   0  0  0  0  0  0  0  0  0  0  0  0
  186.6780  178.7550  147.6810 C   0  0  0  0  0  3  0  0  0  0  0  0
  188.0660  177.0250  146.0270 C   0  0  0  0  0  3  0  0  0  0  0  0
  185.8810  178.1150  143.3890 C   0  0  0  0  0  0  0  0  0  0  0  0
  187.6020  177.9010  148.1940 N   0  0  0  0  0  0  0  0  0  0  0  0
  185.3550  179.1890  139.3590 N   0  0  0  0  0  2  0  0  0  0  0  0
  185.7810  176.6120  136.8140 N   0  0  0  0  0  0  0  0  0  0  0  0
  185.0370  177.4410  137.4810 C   0  0  0  0  0  3  0  0  0  0  0  0
  188.1080  176.1900  136.8500 O   0  0  0  0  0  0  0  0  0  0  0  0
  187.1070  176.8260  137.2760 C   0  0  0  0  0  0  0  0  0  0  0  0
  185.8540  178.2450  138.4050 C   0  0  0  0  0  0  0  0  0  0  0  0
  187.1190  177.8590  138.2920 C   0  0  0  0  0  0  0  0  0  0  0  0
  189.0110  179.3380  138.5250 O   0  0  0  0  0  1  0  0  0  0  0  0
  188.6330  177.7720  140.3180 C   0  0  0  0  0  1  0  0  0  0  0  0
  188.2620  178.3280  139.0260 N   0  0  0  0  0  0  0  0  0  0  0  0
  1 16  1  0  0  0  0
  2 17  1  0  0  0  0
  2  1  2  0  0  0  0
  4 18  1  0  0  0  0
  5 19  1  0  0  0  0
  6  3  2  0  0  0  0
  6 12  1  0  0  0  0
  7  8  2  0  0  0  0
  8  1  1  0  0  0  0
  9 11  2  0  0  0  0
 10 14  2  0  0  0  0
 10  9  1  0  0  0  0
 11  3  1  0  0  0  0
 12  7  1  1  0  0  0
 13  2  1  0  0  0  0
 14 15  1  0  0  0  0
 15  4  1  0  0  0  0
 15  6  1  0  0  0  0
 16 19  2  0  0  0  0
 17  5  2  0  0  0  0
 18 12  1  0  0  0  0
 18 13  2  0  0  0  0
 20 14  1  0  0  0  0
 21 24  1  0  0  0  0
 21 22  2  0  0  0  0
 22 25  1  0  0  0  0
 23 24  2  0  0  0  0
 24 26  1  0  0  0  0
 25 20  1  0  0  0  0
 26 25  2  0  0  0  0
 26 29  1  0  0  0  0
 27 29  1  0  0  0  0
 29 28  1  0  0  0  0
M  END
>  <MODEL>
2

>  <REMARK>
 VINA RESULT:      -8.4      2.511      6.247
  Name = 
  3 active torsions:
  status: ('A' for Active; 'I' for Inactive)
    1  A    between atoms: N_8  and  C_29
    2  A    between atoms: N_13  and  C_22
    3  A    between atoms: N_13  and  C_23
                            x       y       z     vdW  Elec       q    Type
                         _______ _______ _______ _____ _____    ______ ____

>  <TORSDO>
F 3

$$$$
=
 OpenBabel10222415523D

 29 33  0  0  1  0  0  0  0  0999 V2000
  190.6070  176.8540  145.5430 C   0  0  0  0  0  0  0  0  0  0  0  0
  190.5610  176.1980  144.2820 C   0  0  0  0  0  0  0  0  0  0  0  0
  185.4710  177.9900  144.9780 C   0  0  0  0  0  3  0  0  0  0  0  0
  187.7380  177.5470  142.3070 O   0  0  0  0  0  0  0  0  0  0  0  0
  192.3850  174.7810  144.9960 C   0  0  0  0  0  3  0  0  0  0  0  0
  186.5320  177.8860  144.1830 C   0  0  0  0  0  0  0  0  0  0  0  0
  188.5870  178.2350  145.4980 C   0  0  0  0  0  3  0  0  0  0  0  0
  189.8040  177.9980  145.8830 N   0  0  0  0  0  0  0  0  0  0  0  0
  183.6820  178.8900  143.4560 C   0  0  0  0  0  3  0  0  0  0  0  0
  184.4470  179.1790  142.2390 C   0  0  0  0  0  3  0  0  0  0  0  0
  184.1130  178.3980  144.6140 C   0  0  0  0  0  3  0  0  0  0  0  0
  187.8130  177.2740  144.6640 C   0  0  2  0  0  3  0  0  0  0  0  0
  189.6940  176.5990  143.2100 N   0  0  0  0  0  0  0  0  0  0  0  0
  185.7060  178.8720  141.9320 C   0  0  0  0  0  0  0  0  0  0  0  0
  186.5530  178.0630  142.7650 N   0  0  0  0  0  0  0  0  0  0  0  0
  191.5640  176.4400  146.4750 C   0  0  0  0  0  3  0  0  0  0  0  0
  191.4690  175.1670  144.0200 C   0  0  0  0  0  3  0  0  0  0  0  0
  188.5080  177.0970  143.3620 C   0  0  0  0  0  0  0  0  0  0  0  0
  192.4150  175.4190  146.1930 N   0  0  0  0  0  0  0  0  0  0  0  0
  186.1740  179.3030  140.6490 N   0  0  0  0  0  2  0  0  0  0  0  0
  184.7330  177.5170  137.8160 N   0  0  0  0  0  0  0  0  0  0  0  0
  184.6090  178.2170  138.9010 C   0  0  0  0  0  3  0  0  0  0  0  0
  186.6310  176.7870  136.6080 O   0  0  0  0  0  0  0  0  0  0  0  0
  186.1300  177.4080  137.5830 C   0  0  0  0  0  0  0  0  0  0  0  0
  185.9300  178.6070  139.4220 C   0  0  0  0  0  0  0  0  0  0  0  0
  186.8620  178.0990  138.6240 C   0  0  0  0  0  0  0  0  0  0  0  0
  188.9340  179.3120  138.3910 O   0  0  0  0  0  1  0  0  0  0  0  0
  189.0780  177.0910  139.3160 C   0  0  0  0  0  1  0  0  0  0  0  0
  188.2910  178.1810  138.7610 N   0  0  0  0  0  0  0  0  0  0  0  0
  1  8  1  0  0  0  0
  1 16  1  0  0  0  0
  2  1  2  0  0  0  0
  4 15  1  0  0  0  0
  4 18  1  0  0  0  0
  5 19  1  0  0  0  0
  6 12  1  0  0  0  0
  6  3  2  0  0  0  0
  7  8  2  0  0  0  0
  9 11  2  0  0  0  0
 10  9  1  0  0  0  0
 11  3  1  0  0  0  0
 12  7  1  1  0  0  0
 13 18  2  0  0  0  0
 13  2  1  0  0  0  0
 14 10  2  0  0  0  0
 14 15  1  0  0  0  0
 15  6  1  0  0  0  0
 17  2  1  0  0  0  0
 17  5  2  0  0  0  0
 18 12  1  0  0  0  0
 19 16  2  0  0  0  0
 20 14  1  0  0  0  0
 21 22  2  0  0  0  0
 22 25  1  0  0  0  0
 23 24  2  0  0  0  0
 24 21  1  0  0  0  0
 24 26  1  0  0  0  0
 25 20  1  0  0  0  0
 26 29  1  0  0  0  0
 26 25  2  0  0  0  0
 27 29  1  0  0  0  0
 29 28  1  0  0  0  0
M  END
>  <MODEL>
3

>  <REMARK>
 VINA RESULT:      -8.1      2.497      7.079
  Name = 
  3 active torsions:
  status: ('A' for Active; 'I' for Inactive)
    1  A    between atoms: N_8  and  C_29
    2  A    between atoms: N_13  and  C_22
    3  A    between atoms: N_13  and  C_23
                            x       y       z     vdW  Elec       q    Type
                         _______ _______ _______ _____ _____    ______ ____

>  <TORSDO>
F 3

$$$$
=
 OpenBabel10222415523D

 29 33  0  0  1  0  0  0  0  0999 V2000
  190.5170  177.1150  146.4130 C   0  0  0  0  0  0  0  0  0  0  0  0
  191.0400  176.4070  145.2960 C   0  0  0  0  0  0  0  0  0  0  0  0
  186.0000  177.7330  143.7290 C   0  0  0  0  0  3  0  0  0  0  0  0
  189.1890  177.4000  142.2500 O   0  0  0  0  0  0  0  0  0  0  0  0
  192.5040  175.2000  146.7940 C   0  0  0  0  0  3  0  0  0  0  0  0
  187.2990  177.6980  143.4440 C   0  0  0  0  0  0  0  0  0  0  0  0
  188.6020  178.2950  145.4480 C   0  0  0  0  0  3  0  0  0  0  0  0
  189.5670  178.1910  146.3110 N   0  0  0  0  0  0  0  0  0  0  0  0
  184.9360  178.3960  141.5490 C   0  0  0  0  0  3  0  0  0  0  0  0
  186.1110  178.7070  140.7280 C   0  0  0  0  0  3  0  0  0  0  0  0
  184.8870  177.9940  142.8150 C   0  0  0  0  0  3  0  0  0  0  0  0
  188.3090  177.2310  144.4480 C   0  0  2  0  0  3  0  0  0  0  0  0
  190.6630  176.6800  143.9380 N   0  0  0  0  0  0  0  0  0  0  0  0
  187.4030  178.5090  140.9830 C   0  0  0  0  0  0  0  0  0  0  0  0
  187.8870  177.8180  142.1460 N   0  0  0  0  0  0  0  0  0  0  0  0
  191.0330  176.8330  147.6830 C   0  0  0  0  0  3  0  0  0  0  0  0
  192.0440  175.4580  145.5050 C   0  0  0  0  0  3  0  0  0  0  0  0
  189.4880  177.0680  143.5570 C   0  0  0  0  0  0  0  0  0  0  0  0
  191.9950  175.8860  147.8480 N   0  0  0  0  0  0  0  0  0  0  0  0
  188.3250  178.9290  139.9710 N   0  0  0  0  0  2  0  0  0  0  0  0
  190.4620  176.7240  138.0050 N   0  0  0  0  0  0  0  0  0  0  0  0
  190.1790  177.3490  139.1070 C   0  0  0  0  0  3  0  0  0  0  0  0
  189.3250  176.5660  135.9370 O   0  0  0  0  0  0  0  0  0  0  0  0
  189.3910  177.0070  137.1140 C   0  0  0  0  0  0  0  0  0  0  0  0
  188.8980  178.0640  138.9850 C   0  0  0  0  0  0  0  0  0  0  0  0
  188.4220  177.8680  137.7610 C   0  0  0  0  0  0  0  0  0  0  0  0
  187.2390  179.6530  136.6510 O   0  0  0  0  0  1  0  0  0  0  0  0
  185.9890  177.6410  137.1020 C   0  0  0  0  0  1  0  0  0  0  0  0
  187.2240  178.4060  137.1760 N   0  0  0  0  0  0  0  0  0  0  0  0
  1 16  1  0  0  0  0
  2 17  1  0  0  0  0
  2  1  2  0  0  0  0
  4 18  1  0  0  0  0
  5 19  1  0  0  0  0
  6  3  2  0  0  0  0
  6 12  1  0  0  0  0
  7  8  2  0  0  0  0
  8  1  1  0  0  0  0
  9 11  2  0  0  0  0
 10 14  2  0  0  0  0
 10  9  1  0  0  0  0
 11  3  1  0  0  0  0
 12  7  1  1  0  0  0
 13  2  1  0  0  0  0
 14 15  1  0  0  0  0
 15  4  1  0  0  0  0
 15  6  1  0  0  0  0
 16 19  2  0  0  0  0
 17  5  2  0  0  0  0
 18 13  2  0  0  0  0
 18 12  1  0  0  0  0
 20 14  1  0  0  0  0
 21 22  2  0  0  0  0
 23 24  2  0  0  0  0
 24 26  1  0  0  0  0
 24 21  1  0  0  0  0
 25 22  1  0  0  0  0
 25 20  1  0  0  0  0
 26 25  2  0  0  0  0
 27 29  1  0  0  0  0
 28 29  1  0  0  0  0
 29 26  1  0  0  0  0
M  END
>  <MODEL>
4

>  <REMARK>
 VINA RESULT:      -8.1      2.946      7.460
  Name = 
  3 active torsions:
  status: ('A' for Active; 'I' for Inactive)
    1  A    between atoms: N_8  and  C_29
    2  A    between atoms: N_13  and  C_22
    3  A    between atoms: N_13  and  C_23
                            x       y       z     vdW  Elec       q    Type
                         _______ _______ _______ _____ _____    ______ ____

>  <TORSDO>
F 3

$$$$
=
 OpenBabel10222415523D

 29 33  0  0  1  0  0  0  0  0999 V2000
  191.6130  177.5030  140.7270 C   0  0  0  0  0  0  0  0  0  0  0  0
  190.4810  177.1240  139.9540 C   0  0  0  0  0  0  0  0  0  0  0  0
  188.6090  177.0940  145.0640 C   0  0  0  0  0  3  0  0  0  0  0  0
  187.3970  177.8990  141.8460 O   0  0  0  0  0  0  0  0  0  0  0  0
  191.9750  176.2250  138.2790 C   0  0  0  0  0  3  0  0  0  0  0  0
  188.4400  177.4780  143.8010 C   0  0  0  0  0  0  0  0  0  0  0  0
  190.6040  178.1780  142.8530 C   0  0  0  0  0  3  0  0  0  0  0  0
  191.5350  178.2550  141.9520 N   0  0  0  0  0  0  0  0  0  0  0  0
  186.4210  177.6800  146.1560 C   0  0  0  0  0  3  0  0  0  0  0  0
  185.7450  178.4220  145.0860 C   0  0  0  0  0  3  0  0  0  0  0  0
  187.6300  177.1280  146.1520 C   0  0  0  0  0  3  0  0  0  0  0  0
  189.4790  177.2080  142.7550 C   0  0  2  0  0  3  0  0  0  0  0  0
  189.1290  177.4410  140.3200 N   0  0  0  0  0  0  0  0  0  0  0  0
  186.0940  178.5830  143.8110 C   0  0  0  0  0  0  0  0  0  0  0  0
  187.2200  177.9260  143.2060 N   0  0  0  0  0  0  0  0  0  0  0  0
  192.8880  177.2290  140.2210 C   0  0  0  0  0  3  0  0  0  0  0  0
  190.6810  176.4940  138.7230 C   0  0  0  0  0  3  0  0  0  0  0  0
  188.6850  177.5100  141.5340 C   0  0  0  0  0  0  0  0  0  0  0  0
  193.0430  176.5940  139.0300 N   0  0  0  0  0  0  0  0  0  0  0  0
  185.2180  179.3780  143.0040 N   0  0  0  0  0  2  0  0  0  0  0  0
  181.6630  178.6960  143.4380 N   0  0  0  0  0  0  0  0  0  0  0  0
  182.8230  179.0300  143.9130 C   0  0  0  0  0  3  0  0  0  0  0  0
  180.9270  178.2190  141.2410 O   0  0  0  0  0  0  0  0  0  0  0  0
  181.8470  178.5450  142.0370 C   0  0  0  0  0  0  0  0  0  0  0  0
  183.8190  179.1240  142.8330 C   0  0  0  0  0  0  0  0  0  0  0  0
  183.2270  178.8120  141.6870 C   0  0  0  0  0  0  0  0  0  0  0  0
  184.5550  179.7530  139.9070 O   0  0  0  0  0  1  0  0  0  0  0  0
  183.6610  177.5450  139.5390 C   0  0  0  0  0  1  0  0  0  0  0  0
  183.8130  178.7240  140.3780 N   0  0  0  0  0  0  0  0  0  0  0  0
  1  8  1  0  0  0  0
  2 13  1  0  0  0  0
  2  1  2  0  0  0  0
  3 11  1  0  0  0  0
  4 15  1  0  0  0  0
  5 17  2  0  0  0  0
  5 19  1  0  0  0  0
  6  3  2  0  0  0  0
  8  7  2  0  0  0  0
 10  9  1  0  0  0  0
 11  9  2  0  0  0  0
 12  7  1  1  0  0  0
 12  6  1  0  0  0  0
 13 18  2  0  0  0  0
 14 10  2  0  0  0  0
 15  6  1  0  0  0  0
 15 14  1  0  0  0  0
 16  1  1  0  0  0  0
 17  2  1  0  0  0  0
 18  4  1  0  0  0  0
 18 12  1  0  0  0  0
 19 16  2  0  0  0  0
 20 14  1  0  0  0  0
 21 22  2  0  0  0  0
 23 24  2  0  0  0  0
 24 21  1  0  0  0  0
 25 20  1  0  0  0  0
 25 22  1  0  0  0  0
 26 24  1  0  0  0  0
 26 25  2  0  0  0  0
 27 29  1  0  0  0  0
 28 29  1  0  0  0  0
 29 26  1  0  0  0  0
M  END
>  <MODEL>
5

>  <REMARK>
 VINA RESULT:      -7.9      2.136      7.467
  Name = 
  3 active torsions:
  status: ('A' for Active; 'I' for Inactive)
    1  A    between atoms: N_8  and  C_29
    2  A    between atoms: N_13  and  C_22
    3  A    between atoms: N_13  and  C_23
                            x       y       z     vdW  Elec       q    Type
                         _______ _______ _______ _____ _____    ______ ____

>  <TORSDO>
F 3

$$$$
=
 OpenBabel10222415523D

 29 33  0  0  1  0  0  0  0  0999 V2000
  186.3330  177.6740  144.9610 C   0  0  0  0  0  0  0  0  0  0  0  0
  185.7840  178.3340  143.8270 C   0  0  0  0  0  0  0  0  0  0  0  0
  191.0560  177.8170  142.5800 C   0  0  0  0  0  3  0  0  0  0  0  0
  187.9550  177.7250  140.8930 O   0  0  0  0  0  0  0  0  0  0  0  0
  184.0620  179.2620  145.2480 C   0  0  0  0  0  3  0  0  0  0  0  0
  189.7870  177.6700  142.2070 C   0  0  0  0  0  0  0  0  0  0  0  0
  188.4610  176.8220  144.1030 C   0  0  0  0  0  3  0  0  0  0  0  0
  187.4380  176.7540  144.9000 N   0  0  0  0  0  0  0  0  0  0  0  0
  192.3450  177.3890  140.4640 C   0  0  0  0  0  3  0  0  0  0  0  0
  191.2860  176.9360  139.5570 C   0  0  0  0  0  3  0  0  0  0  0  0
  192.2520  177.7520  141.7400 C   0  0  0  0  0  3  0  0  0  0  0  0
  188.6560  177.9490  143.1500 C   0  0  2  0  0  3  0  0  0  0  0  0
  186.2840  178.1640  142.4920 N   0  0  0  0  0  0  0  0  0  0  0  0
  189.9640  176.9330  139.7270 C   0  0  0  0  0  0  0  0  0  0  0  0
  189.3090  177.5060  140.8700 N   0  0  0  0  0  0  0  0  0  0  0  0
  185.7000  177.8360  146.1980 C   0  0  0  0  0  3  0  0  0  0  0  0
  184.6380  179.1170  143.9870 C   0  0  0  0  0  3  0  0  0  0  0  0
  187.5260  177.9660  142.1840 C   0  0  0  0  0  0  0  0  0  0  0  0
  184.5990  178.6240  146.3190 N   0  0  0  0  0  0  0  0  0  0  0  0
  189.1830  176.4140  138.6450 N   0  0  0  0  0  2  0  0  0  0  0  0
  187.7940  179.1220  136.6360 N   0  0  0  0  0  0  0  0  0  0  0  0
  188.5810  178.6880  137.5730 C   0  0  0  0  0  3  0  0  0  0  0  0
  186.3430  178.0020  135.1410 O   0  0  0  0  0  0  0  0  0  0  0  0
  187.1790  177.9670  136.0830 C   0  0  0  0  0  0  0  0  0  0  0  0
  188.5200  177.2200  137.6650 C   0  0  0  0  0  0  0  0  0  0  0  0
  187.6500  176.7790  136.7640 C   0  0  0  0  0  0  0  0  0  0  0  0
  186.1020  174.9600  137.1000 O   0  0  0  0  0  1  0  0  0  0  0  0
  187.9730  174.5340  135.6400 C   0  0  0  0  0  1  0  0  0  0  0  0
  187.2320  175.4250  136.5200 N   0  0  0  0  0  0  0  0  0  0  0  0
  1 16  1  0  0  0  0
  2 17  1  0  0  0  0
  2  1  2  0  0  0  0
  4 18  1  0  0  0  0
  5 19  1  0  0  0  0
  6  3  2  0  0  0  0
  6 12  1  0  0  0  0
  7  8  2  0  0  0  0
  8  1  1  0  0  0  0
  9 11  2  0  0  0  0
 10 14  2  0  0  0  0
 10  9  1  0  0  0  0
 11  3  1  0  0  0  0
 12  7  1  1  0  0  0
 13  2  1  0  0  0  0
 14 15  1  0  0  0  0
 15  4  1  0  0  0  0
 15  6  1  0  0  0  0
 16 19  2  0  0  0  0
 17  5  2  0  0  0  0
 18 13  2  0  0  0  0
 18 12  1  0  0  0  0
 20 14  1  0  0  0  0
 21 22  2  0  0  0  0
 22 25  1  0  0  0  0
 23 24  2  0  0  0  0
 24 21  1  0  0  0  0
 24 26  1  0  0  0  0
 25 20  1  0  0  0  0
 26 25  2  0  0  0  0
 28 29  1  0  0  0  0
 29 26  1  0  0  0  0
 29 27  1  0  0  0  0
M  END
>  <MODEL>
6

>  <REMARK>
 VINA RESULT:      -7.9      3.224      6.247
  Name = 
  3 active torsions:
  status: ('A' for Active; 'I' for Inactive)
    1  A    between atoms: N_8  and  C_29
    2  A    between atoms: N_13  and  C_22
    3  A    between atoms: N_13  and  C_23
                            x       y       z     vdW  Elec       q    Type
                         _______ _______ _______ _____ _____    ______ ____

>  <TORSDO>
F 3

$$$$
=
 OpenBabel10222415523D

 29 33  0  0  1  0  0  0  0  0999 V2000
  181.4680  178.6040  139.3220 C   0  0  0  0  0  0  0  0  0  0  0  0
  182.2100  179.7490  138.9210 C   0  0  0  0  0  0  0  0  0  0  0  0
  184.9340  177.9110  143.2580 C   0  0  0  0  0  3  0  0  0  0  0  0
  185.6810  179.4500  140.1690 O   0  0  0  0  0  0  0  0  0  0  0  0
  180.1900  180.6790  137.9720 C   0  0  0  0  0  3  0  0  0  0  0  0
  184.9720  178.3390  141.9990 C   0  0  0  0  0  0  0  0  0  0  0  0
  183.0560  177.4150  140.7560 C   0  0  0  0  0  3  0  0  0  0  0  0
  182.0530  177.4390  139.9320 N   0  0  0  0  0  0  0  0  0  0  0  0
  187.3600  177.8000  143.9150 C   0  0  0  0  0  3  0  0  0  0  0  0
  188.0260  178.0650  142.6350 C   0  0  0  0  0  3  0  0  0  0  0  0
  186.0580  177.7260  144.1780 C   0  0  0  0  0  3  0  0  0  0  0  0
  183.7180  178.6560  141.2420 C   0  0  2  0  0  3  0  0  0  0  0  0
  183.6300  179.8730  139.0940 N   0  0  0  0  0  0  0  0  0  0  0  0
  187.5080  178.4570  141.4720 C   0  0  0  0  0  0  0  0  0  0  0  0
  186.1250  178.8030  141.2940 N   0  0  0  0  0  0  0  0  0  0  0  0
  180.1050  178.5510  139.0110 C   0  0  0  0  0  3  0  0  0  0  0  0
  181.5550  180.7750  138.2340 C   0  0  0  0  0  3  0  0  0  0  0  0
  184.3040  179.3780  140.0820 C   0  0  0  0  0  0  0  0  0  0  0  0
  179.4980  179.5790  138.3610 N   0  0  0  0  0  0  0  0  0  0  0  0
  188.4290  178.6270  140.3890 N   0  0  0  0  0  2  0  0  0  0  0  0
  190.5560  175.9680  139.0850 N   0  0  0  0  0  0  0  0  0  0  0  0
  190.2360  176.8170  140.0130 C   0  0  0  0  0  3  0  0  0  0  0  0
  189.5630  175.4480  137.0020 O   0  0  0  0  0  0  0  0  0  0  0  0
  189.5730  176.1150  138.0700 C   0  0  0  0  0  0  0  0  0  0  0  0
  189.0140  177.5520  139.6460 C   0  0  0  0  0  0  0  0  0  0  0  0
  188.6160  177.1350  138.4500 C   0  0  0  0  0  0  0  0  0  0  0  0
  186.2830  177.0370  137.8470 O   0  0  0  0  0  1  0  0  0  0  0  0
  187.6270  178.6830  136.7090 C   0  0  0  0  0  1  0  0  0  0  0  0
  187.5010  177.5990  137.6720 N   0  0  0  0  0  0  0  0  0  0  0  0
  1  8  1  0  0  0  0
  2 13  1  0  0  0  0
  2  1  2  0  0  0  0
  3 11  1  0  0  0  0
  4 15  1  0  0  0  0
  5 17  2  0  0  0  0
  5 19  1  0  0  0  0
  6  3  2  0  0  0  0
  8  7  2  0  0  0  0
  9 11  2  0  0  0  0
 10  9  1  0  0  0  0
 12  7  1  6  0  0  0
 12  6  1  0  0  0  0
 13 18  2  0  0  0  0
 14 10  2  0  0  0  0
 15 14  1  0  0  0  0
 15  6  1  0  0  0  0
 16  1  1  0  0  0  0
 17  2  1  0  0  0  0
 18  4  1  0  0  0  0
 18 12  1  0  0  0  0
 19 16  2  0  0  0  0
 20 14  1  0  0  0  0
 21 22  2  0  0  0  0
 23 24  2  0  0  0  0
 24 26  1  0  0  0  0
 24 21  1  0  0  0  0
 25 22  1  0  0  0  0
 25 20  1  0  0  0  0
 26 25  2  0  0  0  0
 28 29  1  0  0  0  0
 29 27  1  0  0  0  0
 29 26  1  0  0  0  0
M  END
>  <MODEL>
7

>  <REMARK>
 VINA RESULT:      -7.9      2.593      3.536
  Name = 
  3 active torsions:
  status: ('A' for Active; 'I' for Inactive)
    1  A    between atoms: N_8  and  C_29
    2  A    between atoms: N_13  and  C_22
    3  A    between atoms: N_13  and  C_23
                            x       y       z     vdW  Elec       q    Type
                         _______ _______ _______ _____ _____    ______ ____

>  <TORSDO>
F 3

$$$$
=
 OpenBabel10222415523D

 29 33  0  0  1  0  0  0  0  0999 V2000
  190.7820  176.0040  137.4430 C   0  0  0  0  0  0  0  0  0  0  0  0
  191.6800  176.4380  138.4570 C   0  0  0  0  0  0  0  0  0  0  0  0
  186.8860  178.4650  140.0440 C   0  0  0  0  0  3  0  0  0  0  0  0
  189.7820  177.1250  141.5580 O   0  0  0  0  0  0  0  0  0  0  0  0
  193.4770  176.3640  136.8410 C   0  0  0  0  0  3  0  0  0  0  0  0
  187.9890  177.7920  140.3620 C   0  0  0  0  0  0  0  0  0  0  0  0
  188.5980  176.2800  138.5140 C   0  0  0  0  0  3  0  0  0  0  0  0
  189.3960  175.6910  137.6770 N   0  0  0  0  0  0  0  0  0  0  0  0
  185.7680  178.8460  142.2640 C   0  0  0  0  0  3  0  0  0  0  0  0
  186.6050  178.0410  143.1600 C   0  0  0  0  0  3  0  0  0  0  0  0
  185.8790  179.0190  140.9500 C   0  0  0  0  0  3  0  0  0  0  0  0
  189.0220  177.4500  139.3320 C   0  0  2  0  0  3  0  0  0  0  0  0
  191.2980  176.6250  139.8280 N   0  0  0  0  0  0  0  0  0  0  0  0
  187.7620  177.4280  142.9200 C   0  0  0  0  0  0  0  0  0  0  0  0
  188.4820  177.5440  141.6810 N   0  0  0  0  0  0  0  0  0  0  0  0
  191.2890  175.7570  136.1630 C   0  0  0  0  0  3  0  0  0  0  0  0
  193.0320  176.6020  138.1400 C   0  0  0  0  0  3  0  0  0  0  0  0
  190.1360  177.0360  140.2250 C   0  0  0  0  0  0  0  0  0  0  0  0
  192.6060  175.9500  135.8870 N   0  0  0  0  0  0  0  0  0  0  0  0
  188.3410  176.7050  144.0120 N   0  0  0  0  0  2  0  0  0  0  0  0
  187.3970  177.9530  147.3060 N   0  0  0  0  0  0  0  0  0  0  0  0
  187.0890  177.5300  146.1180 C   0  0  0  0  0  3  0  0  0  0  0  0
  189.4730  178.1900  148.4140 O   0  0  0  0  0  0  0  0  0  0  0  0
  188.8120  177.8600  147.3940 C   0  0  0  0  0  0  0  0  0  0  0  0
  188.2970  177.1300  145.3790 C   0  0  0  0  0  0  0  0  0  0  0  0
  189.3540  177.3460  146.1530 C   0  0  0  0  0  0  0  0  0  0  0  0
  191.5110  176.3890  146.6540 O   0  0  0  0  0  1  0  0  0  0  0  0
  191.3550  177.7160  144.6470 C   0  0  0  0  0  1  0  0  0  0  0  0
  190.7420  177.1470  145.8390 N   0  0  0  0  0  0  0  0  0  0  0  0
  1  8  1  0  0  0  0
  1  2  1  0  0  0  0
  2 13  1  0  0  0  0
  3  6  2  0  0  0  0
  3 11  1  0  0  0  0
  4 15  1  0  0  0  0
  5 17  1  0  0  0  0
  6 15  1  0  0  0  0
  8  7  2  0  0  0  0
  9 10  1  0  0  0  0
 11  9  2  0  0  0  0
 12  7  1  6  0  0  0
 12 18  1  0  0  0  0
 12  6  1  0  0  0  0
 13 18  2  0  0  0  0
 14 10  2  0  0  0  0
 14 20  1  0  0  0  0
 15 14  1  0  0  0  0
 16  1  2  0  0  0  0
 17  2  2  0  0  0  0
 18  4  1  0  0  0  0
 19 16  1  0  0  0  0
 19  5  2  0  0  0  0
 20 25  1  0  0  0  0
 21 24  1  0  0  0  0
 22 21  2  0  0  0  0
 24 23  2  0  0  0  0
 25 22  1  0  0  0  0
 25 26  2  0  0  0  0
 26 24  1  0  0  0  0
 28 29  1  0  0  0  0
 29 26  1  0  0  0  0
 29 27  1  0  0  0  0
M  END
>  <MODEL>
8

>  <REMARK>
 VINA RESULT:      -7.8      3.217      6.862
  Name = 
  3 active torsions:
  status: ('A' for Active; 'I' for Inactive)
    1  A    between atoms: N_8  and  C_29
    2  A    between atoms: N_13  and  C_22
    3  A    between atoms: N_13  and  C_23
                            x       y       z     vdW  Elec       q    Type
                         _______ _______ _______ _____ _____    ______ ____

>  <TORSDO>
F 3

$$$$
=
 OpenBabel10222415523D

 29 33  0  0  1  0  0  0  0  0999 V2000
  190.6270  176.8210  145.7350 C   0  0  0  0  0  0  0  0  0  0  0  0
  190.5790  176.2090  144.4520 C   0  0  0  0  0  0  0  0  0  0  0  0
  185.4710  177.9050  145.2540 C   0  0  0  0  0  3  0  0  0  0  0  0
  187.7200  177.5870  142.5510 O   0  0  0  0  0  0  0  0  0  0  0  0
  192.4280  174.7930  145.1010 C   0  0  0  0  0  3  0  0  0  0  0  0
  186.5270  177.8430  144.4470 C   0  0  0  0  0  0  0  0  0  0  0  0
  188.5880  178.1750  145.7560 C   0  0  0  0  0  3  0  0  0  0  0  0
  189.8110  177.9420  146.1230 N   0  0  0  0  0  0  0  0  0  0  0  0
  183.6570  178.8330  143.7800 C   0  0  0  0  0  3  0  0  0  0  0  0
  184.4070  179.1750  142.5670 C   0  0  0  0  0  3  0  0  0  0  0  0
  184.1040  178.3070  144.9160 C   0  0  0  0  0  3  0  0  0  0  0  0
  187.8200  177.2330  144.8960 C   0  0  2  0  0  3  0  0  0  0  0  0
  189.6960  176.6360  143.4030 N   0  0  0  0  0  0  0  0  0  0  0  0
  185.6670  178.8960  142.2390 C   0  0  0  0  0  0  0  0  0  0  0  0
  186.5320  178.0700  143.0360 N   0  0  0  0  0  0  0  0  0  0  0  0
  191.5980  176.3890  146.6450 C   0  0  0  0  0  3  0  0  0  0  0  0
  191.4980  175.2010  144.1470 C   0  0  0  0  0  3  0  0  0  0  0  0
  188.5060  177.1110  143.5820 C   0  0  0  0  0  0  0  0  0  0  0  0
  192.4600  175.3900  146.3200 N   0  0  0  0  0  0  0  0  0  0  0  0
  186.1180  179.3780  140.9680 N   0  0  0  0  0  2  0  0  0  0  0  0
  186.7750  177.4390  137.9510 N   0  0  0  0  0  0  0  0  0  0  0  0
  187.1510  177.9300  139.0920 C   0  0  0  0  0  3  0  0  0  0  0  0
  184.7090  177.5020  136.8020 O   0  0  0  0  0  0  0  0  0  0  0  0
  185.4110  177.8070  137.8020 C   0  0  0  0  0  0  0  0  0  0  0  0
  186.0370  178.6370  139.7460 C   0  0  0  0  0  0  0  0  0  0  0  0
  184.9760  178.5760  138.9500 C   0  0  0  0  0  0  0  0  0  0  0  0
  183.5350  180.5050  139.0900 O   0  0  0  0  0  1  0  0  0  0  0  0
  182.4940  178.3510  139.3920 C   0  0  0  0  0  1  0  0  0  0  0  0
  183.6790  179.1610  139.1510 N   0  0  0  0  0  0  0  0  0  0  0  0
  1  8  1  0  0  0  0
  1 16  1  0  0  0  0
  2  1  2  0  0  0  0
  4 15  1  0  0  0  0
  4 18  1  0  0  0  0
  5 19  1  0  0  0  0
  6 12  1  0  0  0  0
  6  3  2  0  0  0  0
  7  8  2  0  0  0  0
  9 11  2  0  0  0  0
 10  9  1  0  0  0  0
 11  3  1  0  0  0  0
 12  7  1  1  0  0  0
 13 18  2  0  0  0  0
 13  2  1  0  0  0  0
 14 10  2  0  0  0  0
 14 15  1  0  0  0  0
 15  6  1  0  0  0  0
 17  2  1  0  0  0  0
 17  5  2  0  0  0  0
 18 12  1  0  0  0  0
 19 16  2  0  0  0  0
 20 14  1  0  0  0  0
 21 22  2  0  0  0  0
 22 25  1  0  0  0  0
 23 24  2  0  0  0  0
 24 21  1  0  0  0  0
 24 26  1  0  0  0  0
 25 20  1  0  0  0  0
 26 29  1  0  0  0  0
 26 25  2  0  0  0  0
 27 29  1  0  0  0  0
 29 28  1  0  0  0  0
M  END
>  <MODEL>
9

>  <REMARK>
 VINA RESULT:      -7.8      2.332      7.567
  Name = 
  3 active torsions:
  status: ('A' for Active; 'I' for Inactive)
    1  A    between atoms: N_8  and  C_29
    2  A    between atoms: N_13  and  C_22
    3  A    between atoms: N_13  and  C_23
                            x       y       z     vdW  Elec       q    Type
                         _______ _______ _______ _____ _____    ______ ____

>  <TORSDO>
F 3

$$$$
