=
 OpenBabel10222417313D

 59 66  0  0  1  0  0  0  0  0999 V2000
  188.9740  177.8000  147.3460 C   0  0  0  0  0  0  0  0  0  0  0  0
  187.5720  177.6610  147.0810 N   0  0  0  0  0  2  0  0  0  0  0  0
  189.3590  178.3500  148.4160 O   0  0  0  0  0  0  0  0  0  0  0  0
  189.7990  177.7150  145.0080 C   0  0  0  0  0  3  0  0  0  0  0  0
  189.9600  177.3660  146.3510 C   0  0  0  0  0  0  0  0  0  0  0  0
  190.6770  177.2220  144.0390 C   0  0  0  0  0  0  0  0  0  0  0  0
  191.0140  176.5240  146.7180 C   0  0  0  0  0  3  0  0  0  0  0  0
  191.7530  176.4130  144.4110 C   0  0  0  0  0  3  0  0  0  0  0  0
  191.9130  176.0400  145.7530 C   0  0  0  0  0  3  0  0  0  0  0  0
  190.4930  177.6380  142.6830 N   0  0  0  0  0  2  0  0  0  0  0  0
  189.4880  177.0620  141.7970 C   0  0  1  0  0  3  0  0  0  0  0  0
  188.1700  177.7650  142.0350 C   0  0  0  0  0  1  0  0  0  0  0  0
  189.1640  177.9300  139.4720 N   0  0  0  0  0  0  0  0  0  0  0  0
  189.7470  177.7530  138.3020 N   0  0  0  0  0  0  0  0  0  0  0  0
  190.9200  176.5960  139.8250 N   0  0  0  0  0  2  0  0  0  0  0  0
  189.8880  177.2520  140.3800 C   0  0  0  0  0  0  0  0  0  0  0  0
  190.8080  176.9560  138.5290 C   0  0  0  0  0  0  0  0  0  0  0  0
  191.5910  176.3310  137.4350 C   0  0  0  0  0  2  0  0  0  0  0  0
  193.0610  176.4570  137.7700 C   0  0  0  0  0  2  0  0  0  0  0  0
  192.7040  174.0920  137.8000 O   0  0  0  0  0  1  0  0  0  0  0  0
  193.6740  175.0900  137.9710 C   0  0  1  0  0  3  0  0  0  0  0  0
  194.8540  174.9280  136.9840 C   0  0  2  0  0  3  0  0  0  0  0  0
  195.9510  172.5580  137.2870 C   0  0  0  0  0  0  0  0  0  0  0  0
  195.0280  173.5080  136.5550 C   0  0  1  0  0  0  0  0  0  0  0  0
  195.4330  173.5560  135.2110 O   0  0  0  0  0  1  0  0  0  0  0  0
  196.0610  174.1000  137.4300 C   0  0  2  0  0  0  0  0  0  0  0  0
  196.4520  171.3470  137.5120 C   0  0  0  0  0  2  0  0  0  0  0  0
  196.1150  174.2650  138.9610 C   0  0  0  0  0  2  0  0  0  0  0  0
  197.3030  175.4330  140.7930 C   0  0  0  0  0  1  0  0  0  0  0  0
  198.0580  175.6350  138.5440 O   0  0  0  0  0  1  0  0  0  0  0  0
  197.4760  174.7500  139.4570 C   0  0  2  0  0  3  0  0  0  0  0  0
  186.6500  178.1650  147.9290 O   0  0  0  0  0  0  0  0  0  0  0  0
  185.6830  178.8020  147.1340 C   0  0  0  0  0  2  0  0  0  0  0  0
  185.5400  178.1190  145.7760 C   0  0  0  0  0  2  0  0  0  0  0  0
  184.5210  178.3450  143.5000 C   0  0  0  0  0  2  0  0  0  0  0  0
  183.4210  178.3780  144.5410 C   0  0  1  0  0  3  0  0  0  0  0  0
  184.7540  179.0240  144.8410 C   0  0  1  0  0  3  0  0  0  0  0  0
  182.7550  180.6720  143.8650 F   0  0  0  0  0  0  0  0  0  0  0  0
  182.3180  179.4120  144.2570 C   0  0  1  0  0  3  0  0  0  0  0  0
  180.2080  177.9590  144.1450 C   0  0  0  0  0  1  0  0  0  0  0  0
  181.0610  179.0030  143.6000 N   0  0  0  0  0  0  0  0  0  0  0  0
  179.6540  180.4270  142.1300 C   0  0  0  0  0  3  0  0  0  0  0  0
  181.2050  179.7130  139.9090 C   0  0  0  0  0  0  0  0  0  0  0  0
  179.3450  180.9380  140.8700 C   0  0  0  0  0  3  0  0  0  0  0  0
  181.5040  179.1880  141.1810 C   0  0  0  0  0  3  0  0  0  0  0  0
  180.1240  180.5900  139.7620 C   0  0  0  0  0  3  0  0  0  0  0  0
  180.7370  179.5420  142.2960 C   0  0  0  0  0  0  0  0  0  0  0  0
  182.0480  179.3860  138.7420 C   0  0  0  0  0  0  0  0  0  0  0  0
  181.5060  179.1650  137.6210 O   0  0  0  0  0  0  0  0  0  0  0  0
  184.2610  180.4920  138.8220 O   0  0  0  0  0  1  0  0  0  0  0  0
  185.2820  178.5790  140.3820 O   0  0  0  0  0  1  0  0  0  0  0  0
  183.4690  176.9560  137.5800 C   0  0  0  0  0  2  0  0  0  0  0  0
  183.5450  179.2970  138.8620 C   0  0  1  0  0  0  0  0  0  0  0  0
  185.7220  177.0680  136.6890 N   0  0  0  0  0  0  0  0  0  0  0  0
  186.5030  178.9320  137.8990 O   0  0  0  0  0  0  0  0  0  0  0  0
  184.1040  178.1670  139.7490 C   0  0  1  0  0  3  0  0  0  0  0  0
  184.2330  178.1040  138.2250 C   0  0  1  0  0  0  0  0  0  0  0  0
  185.5880  178.1020  137.6390 C   0  0  0  0  0  0  0  0  0  0  0  0
  184.4780  176.3060  136.6140 C   0  0  0  0  0  3  0  0  0  0  0  0
  1  3  2  0  0  0  0
  2  1  1  0  0  0  0
  2 32  1  0  0  0  0
  4  5  1  0  0  0  0
  5  7  2  0  0  0  0
  5  1  1  0  0  0  0
  6  8  1  0  0  0  0
  6  4  2  0  0  0  0
  8  9  2  0  0  0  0
  9  7  1  0  0  0  0
 10  6  1  0  0  0  0
 11 12  1  6  0  0  0
 11 10  1  0  0  0  0
 13 16  2  0  0  0  0
 14 17  2  0  0  0  0
 14 13  1  0  0  0  0
 15 16  1  0  0  0  0
 16 11  1  0  0  0  0
 17 15  1  0  0  0  0
 18 19  1  0  0  0  0
 18 17  1  0  0  0  0
 19 21  1  0  0  0  0
 21 20  1  6  0  0  0
 22 26  1  0  0  0  0
 22 21  1  1  0  0  0
 23 26  1  0  0  0  0
 23 27  2  0  0  0  0
 24 25  1  6  0  0  0
 24 22  1  0  0  0  0
 24 23  1  0  0  0  0
 24 26  1  0  0  0  0
 26 28  1  1  0  0  0
 28 31  1  0  0  0  0
 30 31  1  0  0  0  0
 31 29  1  1  0  0  0
 33 32  1  0  0  0  0
 34 33  1  0  0  0  0
 35 36  1  0  0  0  0
 35 37  1  0  0  0  0
 36 39  1  6  0  0  0
 36 37  1  0  0  0  0
 37 34  1  1  0  0  0
 39 38  1  6  0  0  0
 41 40  1  0  0  0  0
 41 39  1  0  0  0  0
 42 47  1  0  0  0  0
 43 45  1  0  0  0  0
 44 42  2  0  0  0  0
 45 47  2  0  0  0  0
 46 43  2  0  0  0  0
 46 44  1  0  0  0  0
 47 41  1  0  0  0  0
 48 53  1  0  0  0  0
 48 43  1  0  0  0  0
 49 48  2  0  0  0  0
 53 50  1  6  0  0  0
 53 56  1  0  0  0  0
 54 58  1  0  0  0  0
 56 51  1  1  0  0  0
 57 52  1  6  0  0  0
 57 53  1  0  0  0  0
 57 56  1  0  0  0  0
 58 55  2  0  0  0  0
 58 57  1  0  0  0  0
 59 54  2  0  0  0  0
 59 52  1  0  0  0  0
M  END
>  <MODEL>
1

>  <REMARK>
 VINA RESULT:      -8.9      0.000      0.000
  Name = 
  19 active torsions:
  status: ('A' for Active; 'I' for Inactive)
    1  A    between atoms: C_1  and  C_39
    2  A    between atoms: C_1  and  C_43
    3  A    between atoms: C_3  and  C_57
    4  A    between atoms: N_5  and  C_14
    5  A    between atoms: N_5  and  C_32
    6  A    between atoms: C_12  and  C_13
    7  A    between atoms: C_19  and  C_26
    8  A    between atoms: C_22  and  C_26
    9  A    between atoms: N_23  and  O_51
   10  A    between atoms: C_27  and  C_32
   11  A    between atoms: C_28  and  N_36
   12  A    between atoms: C_28  and  C_44
   13  A    between atoms: N_36  and  C_58
   14  A    between atoms: C_43  and  C_57
   15  A    between atoms: C_46  and  C_49
   16  A    between atoms: C_49  and  C_55
   17  A    between atoms: C_50  and  C_53
   18  A    between atoms: C_50  and  C_56
   19  A    between atoms: O_51  and  C_53
                            x       y       z     vdW  Elec       q    Type
                         _______ _______ _______ _____ _____    ______ ____

>  <TORSDO>
F 19

$$$$
=
 OpenBabel10222417313D

 59 66  0  0  1  0  0  0  0  0999 V2000
  190.5930  176.0860  143.0340 C   0  0  0  0  0  0  0  0  0  0  0  0
  191.2180  176.8520  144.0730 N   0  0  0  0  0  2  0  0  0  0  0  0
  190.6510  174.8250  143.0620 O   0  0  0  0  0  0  0  0  0  0  0  0
  190.5140  176.6990  140.6310 C   0  0  0  0  0  3  0  0  0  0  0  0
  189.9460  176.7640  141.9050 C   0  0  0  0  0  0  0  0  0  0  0  0
  189.9610  177.4240  139.5730 C   0  0  0  0  0  0  0  0  0  0  0  0
  188.8130  177.5560  142.1100 C   0  0  0  0  0  3  0  0  0  0  0  0
  188.8060  178.1840  139.7680 C   0  0  0  0  0  3  0  0  0  0  0  0
  188.2390  178.2720  141.0470 C   0  0  0  0  0  3  0  0  0  0  0  0
  190.5560  177.2960  138.2790 N   0  0  0  0  0  2  0  0  0  0  0  0
  189.8670  176.7140  137.1330 C   0  0  1  0  0  3  0  0  0  0  0  0
  189.5040  177.8230  136.1690 C   0  0  0  0  0  1  0  0  0  0  0  0
  191.2990  175.9480  135.2280 N   0  0  0  0  0  0  0  0  0  0  0  0
  191.8870  174.8210  134.8750 N   0  0  0  0  0  0  0  0  0  0  0  0
  190.9360  174.4900  136.8810 N   0  0  0  0  0  2  0  0  0  0  0  0
  190.7540  175.7450  136.4410 C   0  0  0  0  0  0  0  0  0  0  0  0
  191.6690  173.9540  135.8820 C   0  0  0  0  0  0  0  0  0  0  0  0
  191.9670  172.5050  135.7720 C   0  0  0  0  0  2  0  0  0  0  0  0
  193.3210  172.3460  135.1150 C   0  0  0  0  0  2  0  0  0  0  0  0
  194.5270  171.1700  136.8120 O   0  0  0  0  0  1  0  0  0  0  0  0
  194.4190  172.4020  136.1520 C   0  0  1  0  0  3  0  0  0  0  0  0
  195.7390  172.8050  135.4530 C   0  0  2  0  0  3  0  0  0  0  0  0
  197.3610  173.9260  137.1910 C   0  0  0  0  0  0  0  0  0  0  0  0
  196.9040  172.7310  136.3840 C   0  0  1  0  0  0  0  0  0  0  0  0
  197.9910  172.2890  135.6100 O   0  0  0  0  0  1  0  0  0  0  0  0
  196.4580  174.0650  135.9370 C   0  0  2  0  0  0  0  0  0  0  0  0
  198.1150  174.4900  138.1300 C   0  0  0  0  0  2  0  0  0  0  0  0
  195.3390  174.9850  136.4630 C   0  0  0  0  0  2  0  0  0  0  0  0
  196.3830  176.5850  134.8870 C   0  0  0  0  0  1  0  0  0  0  0  0
  194.5820  177.2700  136.2860 O   0  0  0  0  0  1  0  0  0  0  0  0
  195.0870  176.1900  135.5580 C   0  0  2  0  0  3  0  0  0  0  0  0
  191.9230  176.2480  145.0540 O   0  0  0  0  0  0  0  0  0  0  0  0
  191.1740  176.3940  146.2320 C   0  0  0  0  0  2  0  0  0  0  0  0
  190.2240  177.5870  146.1460 C   0  0  0  0  0  2  0  0  0  0  0  0
  187.9430  177.7030  147.1710 C   0  0  0  0  0  2  0  0  0  0  0  0
  187.8790  178.2450  145.7590 C   0  0  1  0  0  3  0  0  0  0  0  0
  188.7920  177.0820  146.0720 C   0  0  1  0  0  3  0  0  0  0  0  0
  186.5780  176.4770  144.6010 F   0  0  0  0  0  0  0  0  0  0  0  0
  186.6270  177.8140  144.9760 C   0  0  1  0  0  3  0  0  0  0  0  0
  184.8950  178.5980  146.6970 C   0  0  0  0  0  1  0  0  0  0  0  0
  185.3030  178.3690  145.3200 N   0  0  0  0  0  0  0  0  0  0  0  0
  182.9710  178.8120  144.5870 C   0  0  0  0  0  3  0  0  0  0  0  0
  183.7570  178.6570  141.9030 C   0  0  0  0  0  0  0  0  0  0  0  0
  182.0280  178.9810  143.5740 C   0  0  0  0  0  3  0  0  0  0  0  0
  184.7020  178.4730  142.9310 C   0  0  0  0  0  3  0  0  0  0  0  0
  182.4210  178.9130  142.2340 C   0  0  0  0  0  3  0  0  0  0  0  0
  184.3190  178.5520  144.2730 C   0  0  0  0  0  0  0  0  0  0  0  0
  184.1700  178.6320  140.4860 C   0  0  0  0  0  0  0  0  0  0  0  0
  185.0680  179.4250  140.0820 O   0  0  0  0  0  0  0  0  0  0  0  0
  182.8560  176.5870  140.0260 O   0  0  0  0  0  1  0  0  0  0  0  0
  181.8450  177.6110  137.7760 O   0  0  0  0  0  1  0  0  0  0  0  0
  185.5080  178.2020  137.7840 C   0  0  0  0  0  2  0  0  0  0  0  0
  183.5320  177.6880  139.5050 C   0  0  1  0  0  0  0  0  0  0  0  0
  185.3670  176.1010  136.5820 N   0  0  0  0  0  0  0  0  0  0  0  0
  183.3590  175.2850  137.5030 O   0  0  0  0  0  0  0  0  0  0  0  0
  182.9820  178.3060  138.2040 C   0  0  1  0  0  3  0  0  0  0  0  0
  184.2490  177.4480  138.1890 C   0  0  1  0  0  0  0  0  0  0  0  0
  184.2320  176.1920  137.4140 C   0  0  0  0  0  0  0  0  0  0  0  0
  186.1830  177.3020  136.7310 C   0  0  0  0  0  3  0  0  0  0  0  0
  1  3  2  0  0  0  0
  1  2  1  0  0  0  0
  2 32  1  0  0  0  0
  4  5  1  0  0  0  0
  5  7  2  0  0  0  0
  5  1  1  0  0  0  0
  6  8  1  0  0  0  0
  6  4  2  0  0  0  0
  8  9  2  0  0  0  0
  9  7  1  0  0  0  0
 10  6  1  0  0  0  0
 11 12  1  6  0  0  0
 11 10  1  0  0  0  0
 13 16  2  0  0  0  0
 14 13  1  0  0  0  0
 14 17  2  0  0  0  0
 16 15  1  0  0  0  0
 16 11  1  0  0  0  0
 17 15  1  0  0  0  0
 18 17  1  0  0  0  0
 19 18  1  0  0  0  0
 19 21  1  0  0  0  0
 21 20  1  6  0  0  0
 22 26  1  0  0  0  0
 22 21  1  1  0  0  0
 22 24  1  0  0  0  0
 23 27  2  0  0  0  0
 24 25  1  6  0  0  0
 24 23  1  0  0  0  0
 26 24  1  0  0  0  0
 26 28  1  1  0  0  0
 26 23  1  0  0  0  0
 31 29  1  1  0  0  0
 31 30  1  0  0  0  0
 31 28  1  0  0  0  0
 32 33  1  0  0  0  0
 34 33  1  0  0  0  0
 36 39  1  6  0  0  0
 36 37  1  0  0  0  0
 36 35  1  0  0  0  0
 37 34  1  1  0  0  0
 37 35  1  0  0  0  0
 39 38  1  1  0  0  0
 39 41  1  0  0  0  0
 41 40  1  0  0  0  0
 43 46  2  0  0  0  0
 43 45  1  0  0  0  0
 44 42  2  0  0  0  0
 45 47  2  0  0  0  0
 46 44  1  0  0  0  0
 47 42  1  0  0  0  0
 47 41  1  0  0  0  0
 48 43  1  0  0  0  0
 49 48  2  0  0  0  0
 53 50  1  1  0  0  0
 53 48  1  0  0  0  0
 54 59  2  0  0  0  0
 54 58  1  0  0  0  0
 56 51  1  6  0  0  0
 56 53  1  0  0  0  0
 57 52  1  6  0  0  0
 57 56  1  0  0  0  0
 57 53  1  0  0  0  0
 58 55  2  0  0  0  0
 58 57  1  0  0  0  0
 59 52  1  0  0  0  0
M  END
>  <MODEL>
2

>  <REMARK>
 VINA RESULT:      -8.7      2.310      4.320
  Name = 
  19 active torsions:
  status: ('A' for Active; 'I' for Inactive)
    1  A    between atoms: C_1  and  C_39
    2  A    between atoms: C_1  and  C_43
    3  A    between atoms: C_3  and  C_57
    4  A    between atoms: N_5  and  C_14
    5  A    between atoms: N_5  and  C_32
    6  A    between atoms: C_12  and  C_13
    7  A    between atoms: C_19  and  C_26
    8  A    between atoms: C_22  and  C_26
    9  A    between atoms: N_23  and  O_51
   10  A    between atoms: C_27  and  C_32
   11  A    between atoms: C_28  and  N_36
   12  A    between atoms: C_28  and  C_44
   13  A    between atoms: N_36  and  C_58
   14  A    between atoms: C_43  and  C_57
   15  A    between atoms: C_46  and  C_49
   16  A    between atoms: C_49  and  C_55
   17  A    between atoms: C_50  and  C_53
   18  A    between atoms: C_50  and  C_56
   19  A    between atoms: O_51  and  C_53
                            x       y       z     vdW  Elec       q    Type
                         _______ _______ _______ _____ _____    ______ ____

>  <TORSDO>
F 19

$$$$
=
 OpenBabel10222417313D

 59 66  0  0  1  0  0  0  0  0999 V2000
  189.4260  177.2470  146.1120 C   0  0  0  0  0  0  0  0  0  0  0  0
  189.8580  176.8710  144.7980 N   0  0  0  0  0  2  0  0  0  0  0  0
  190.1960  177.0790  147.0980 O   0  0  0  0  0  0  0  0  0  0  0  0
  187.3210  178.2310  145.2410 C   0  0  0  0  0  3  0  0  0  0  0  0
  188.0690  177.7610  146.3240 C   0  0  0  0  0  0  0  0  0  0  0  0
  186.0690  178.8160  145.4470 C   0  0  0  0  0  0  0  0  0  0  0  0
  187.5480  177.8750  147.6150 C   0  0  0  0  0  3  0  0  0  0  0  0
  185.5320  178.8940  146.7330 C   0  0  0  0  0  3  0  0  0  0  0  0
  186.2810  178.4440  147.8290 C   0  0  0  0  0  3  0  0  0  0  0  0
  185.3270  179.2470  144.3030 N   0  0  0  0  0  2  0  0  0  0  0  0
  184.4270  178.3760  143.5550 C   0  0  1  0  0  3  0  0  0  0  0  0
  183.0000  178.7350  143.9050 C   0  0  0  0  0  1  0  0  0  0  0  0
  185.5160  179.4220  141.5580 N   0  0  0  0  0  0  0  0  0  0  0  0
  185.3010  179.4310  140.2560 N   0  0  0  0  0  0  0  0  0  0  0  0
  183.8050  178.0360  141.1780 N   0  0  0  0  0  2  0  0  0  0  0  0
  184.6290  178.5650  142.0970 C   0  0  0  0  0  0  0  0  0  0  0  0
  184.2750  178.5870  140.0390 C   0  0  0  0  0  0  0  0  0  0  0  0
  183.5760  178.4930  138.7340 C   0  0  0  0  0  2  0  0  0  0  0  0
  184.4030  177.6220  137.8130 C   0  0  0  0  0  2  0  0  0  0  0  0
  183.9360  176.5250  135.7410 O   0  0  0  0  0  1  0  0  0  0  0  0
  183.5160  176.6480  137.0720 C   0  0  1  0  0  3  0  0  0  0  0  0
  183.5380  175.2940  137.8170 C   0  0  2  0  0  3  0  0  0  0  0  0
  182.2450  173.4840  136.4160 C   0  0  0  0  0  0  0  0  0  0  0  0
  183.5320  174.1390  136.8700 C   0  0  1  0  0  0  0  0  0  0  0  0
  184.3370  173.1500  137.4580 O   0  0  0  0  0  1  0  0  0  0  0  0
  182.3220  174.3750  137.6850 C   0  0  2  0  0  0  0  0  0  0  0  0
  181.5670  172.6340  135.6510 C   0  0  0  0  0  2  0  0  0  0  0  0
  181.1280  175.3240  137.4680 C   0  0  0  0  0  2  0  0  0  0  0  0
  180.5090  176.2250  139.6910 C   0  0  0  0  0  1  0  0  0  0  0  0
  180.0190  173.9640  139.1250 O   0  0  0  0  0  1  0  0  0  0  0  0
  180.1050  175.2570  138.6020 C   0  0  2  0  0  3  0  0  0  0  0  0
  191.0570  176.2820  144.6010 O   0  0  0  0  0  0  0  0  0  0  0  0
  191.4640  176.6280  143.3030 C   0  0  0  0  0  2  0  0  0  0  0  0
  190.4170  176.2280  142.2650 C   0  0  0  0  0  2  0  0  0  0  0  0
  191.1710  177.1850  140.0780 C   0  0  0  0  0  2  0  0  0  0  0  0
  189.7110  176.7960  139.9720 C   0  0  1  0  0  3  0  0  0  0  0  0
  190.2410  177.3620  141.2690 C   0  0  1  0  0  3  0  0  0  0  0  0
  189.0140  179.1420  139.5530 F   0  0  0  0  0  0  0  0  0  0  0  0
  188.8460  177.8080  139.2010 C   0  0  1  0  0  3  0  0  0  0  0  0
  187.9510  178.6470  136.9480 C   0  0  0  0  0  1  0  0  0  0  0  0
  188.5770  177.6170  137.7610 N   0  0  0  0  0  0  0  0  0  0  0  0
  187.7280  175.4300  136.9460 C   0  0  0  0  0  3  0  0  0  0  0  0
  190.3230  174.6630  136.2190 C   0  0  0  0  0  0  0  0  0  0  0  0
  187.9520  174.1750  136.3790 C   0  0  0  0  0  3  0  0  0  0  0  0
  190.0930  175.9230  136.8050 C   0  0  0  0  0  3  0  0  0  0  0  0
  189.2450  173.7960  136.0070 C   0  0  0  0  0  3  0  0  0  0  0  0
  188.8010  176.3150  137.1680 C   0  0  0  0  0  0  0  0  0  0  0  0
  191.6770  174.2710  135.7830 C   0  0  0  0  0  0  0  0  0  0  0  0
  191.8540  173.1500  135.2250 O   0  0  0  0  0  0  0  0  0  0  0  0
  193.0820  176.1740  135.0580 O   0  0  0  0  0  1  0  0  0  0  0  0
  193.7450  176.7840  137.5720 O   0  0  0  0  0  1  0  0  0  0  0  0
  194.1690  173.1270  137.1090 C   0  0  0  0  0  2  0  0  0  0  0  0
  192.8590  175.1740  136.0020 C   0  0  1  0  0  0  0  0  0  0  0  0
  196.4000  173.9340  136.6020 N   0  0  0  0  0  0  0  0  0  0  0  0
  195.8470  176.1040  135.8710 O   0  0  0  0  0  0  0  0  0  0  0  0
  193.2330  175.4860  137.4650 C   0  0  1  0  0  3  0  0  0  0  0  0
  194.1090  174.5650  136.6120 C   0  0  1  0  0  0  0  0  0  0  0  0
  195.4960  174.9830  136.3340 C   0  0  0  0  0  0  0  0  0  0  0  0
  195.6690  172.7740  137.1030 C   0  0  0  0  0  3  0  0  0  0  0  0
  1  5  1  0  0  0  0
  1  3  2  0  0  0  0
  2  1  1  0  0  0  0
  4  6  2  0  0  0  0
  4  5  1  0  0  0  0
  5  7  2  0  0  0  0
  6  8  1  0  0  0  0
  7  9  1  0  0  0  0
  8  9  2  0  0  0  0
 10  6  1  0  0  0  0
 11 12  1  6  0  0  0
 11 10  1  0  0  0  0
 13 16  2  0  0  0  0
 14 13  1  0  0  0  0
 15 16  1  0  0  0  0
 16 11  1  0  0  0  0
 17 14  2  0  0  0  0
 17 15  1  0  0  0  0
 18 17  1  0  0  0  0
 19 18  1  0  0  0  0
 21 20  1  6  0  0  0
 21 19  1  0  0  0  0
 22 21  1  6  0  0  0
 23 24  1  0  0  0  0
 23 26  1  0  0  0  0
 24 25  1  1  0  0  0
 24 26  1  0  0  0  0
 24 22  1  0  0  0  0
 26 28  1  6  0  0  0
 26 22  1  0  0  0  0
 27 23  2  0  0  0  0
 28 31  1  0  0  0  0
 31 30  1  0  0  0  0
 31 29  1  1  0  0  0
 32  2  1  0  0  0  0
 33 32  1  0  0  0  0
 34 33  1  0  0  0  0
 35 37  1  0  0  0  0
 36 39  1  6  0  0  0
 36 35  1  0  0  0  0
 36 37  1  0  0  0  0
 37 34  1  1  0  0  0
 39 38  1  6  0  0  0
 40 41  1  0  0  0  0
 41 39  1  0  0  0  0
 42 47  1  0  0  0  0
 43 45  1  0  0  0  0
 44 42  2  0  0  0  0
 45 47  2  0  0  0  0
 46 43  2  0  0  0  0
 46 44  1  0  0  0  0
 47 41  1  0  0  0  0
 48 53  1  0  0  0  0
 48 43  1  0  0  0  0
 49 48  2  0  0  0  0
 53 50  1  6  0  0  0
 53 57  1  0  0  0  0
 53 56  1  0  0  0  0
 54 59  2  0  0  0  0
 55 58  2  0  0  0  0
 56 51  1  6  0  0  0
 57 52  1  1  0  0  0
 57 56  1  0  0  0  0
 58 54  1  0  0  0  0
 58 57  1  0  0  0  0
 59 52  1  0  0  0  0
M  END
>  <MODEL>
3

>  <REMARK>
 VINA RESULT:      -8.5      2.967      9.794
  Name = 
  19 active torsions:
  status: ('A' for Active; 'I' for Inactive)
    1  A    between atoms: C_1  and  C_39
    2  A    between atoms: C_1  and  C_43
    3  A    between atoms: C_3  and  C_57
    4  A    between atoms: N_5  and  C_14
    5  A    between atoms: N_5  and  C_32
    6  A    between atoms: C_12  and  C_13
    7  A    between atoms: C_19  and  C_26
    8  A    between atoms: C_22  and  C_26
    9  A    between atoms: N_23  and  O_51
   10  A    between atoms: C_27  and  C_32
   11  A    between atoms: C_28  and  N_36
   12  A    between atoms: C_28  and  C_44
   13  A    between atoms: N_36  and  C_58
   14  A    between atoms: C_43  and  C_57
   15  A    between atoms: C_46  and  C_49
   16  A    between atoms: C_49  and  C_55
   17  A    between atoms: C_50  and  C_53
   18  A    between atoms: C_50  and  C_56
   19  A    between atoms: O_51  and  C_53
                            x       y       z     vdW  Elec       q    Type
                         _______ _______ _______ _____ _____    ______ ____

>  <TORSDO>
F 19

$$$$
=
 OpenBabel10222417313D

 59 66  0  0  1  0  0  0  0  0999 V2000
  187.7390  177.7860  147.2250 C   0  0  0  0  0  0  0  0  0  0  0  0
  186.6470  178.0720  146.3410 N   0  0  0  0  0  2  0  0  0  0  0  0
  187.6010  177.9570  148.4680 O   0  0  0  0  0  0  0  0  0  0  0  0
  189.1780  177.1230  145.3160 C   0  0  0  0  0  3  0  0  0  0  0  0
  189.0340  177.3580  146.6850 C   0  0  0  0  0  0  0  0  0  0  0  0
  190.3780  176.6190  144.8080 C   0  0  0  0  0  0  0  0  0  0  0  0
  190.1050  177.0910  147.5420 C   0  0  0  0  0  3  0  0  0  0  0  0
  191.4610  176.3890  145.6590 C   0  0  0  0  0  3  0  0  0  0  0  0
  191.3220  176.6030  147.0370 C   0  0  0  0  0  3  0  0  0  0  0  0
  190.4900  176.4300  143.3950 N   0  0  0  0  0  2  0  0  0  0  0  0
  190.2820  177.4990  142.4240 C   0  0  1  0  0  3  0  0  0  0  0  0
  190.9660  178.7520  142.9270 C   0  0  0  0  0  1  0  0  0  0  0  0
  192.0840  177.5150  140.6870 N   0  0  0  0  0  0  0  0  0  0  0  0
  192.1970  177.1220  139.4320 N   0  0  0  0  0  0  0  0  0  0  0  0
  190.1620  176.5080  140.1530 N   0  0  0  0  0  2  0  0  0  0  0  0
  190.8710  177.1210  141.1150 C   0  0  0  0  0  0  0  0  0  0  0  0
  191.0370  176.5100  139.1250 C   0  0  0  0  0  0  0  0  0  0  0  0
  190.6720  176.1310  137.7390 C   0  0  0  0  0  2  0  0  0  0  0  0
  191.9360  175.7440  137.0030 C   0  0  0  0  0  2  0  0  0  0  0  0
  191.0010  173.5440  136.9450 O   0  0  0  0  0  1  0  0  0  0  0  0
  192.1910  174.2600  137.1380 C   0  0  1  0  0  3  0  0  0  0  0  0
  193.2850  173.8510  136.1250 C   0  0  2  0  0  3  0  0  0  0  0  0
  194.3210  171.5360  136.8160 C   0  0  0  0  0  0  0  0  0  0  0  0
  193.3780  172.3690  135.9750 C   0  0  1  0  0  0  0  0  0  0  0  0
  193.6800  172.1330  134.6230 O   0  0  0  0  0  1  0  0  0  0  0  0
  194.4940  173.0690  136.6420 C   0  0  2  0  0  0  0  0  0  0  0  0
  194.7960  170.3690  137.2410 C   0  0  0  0  0  2  0  0  0  0  0  0
  194.6700  173.5270  138.1020 C   0  0  0  0  0  2  0  0  0  0  0  0
  197.0630  173.6340  137.4750 C   0  0  0  0  0  1  0  0  0  0  0  0
  196.3690  174.1910  139.6830 O   0  0  0  0  0  1  0  0  0  0  0  0
  195.9910  174.2570  138.3390 C   0  0  2  0  0  3  0  0  0  0  0  0
  185.4880  178.5840  146.8080 O   0  0  0  0  0  0  0  0  0  0  0  0
  184.7690  179.0320  145.6890 C   0  0  0  0  0  2  0  0  0  0  0  0
  185.0070  178.1320  144.4770 C   0  0  0  0  0  2  0  0  0  0  0  0
  186.4270  178.6710  142.4870 C   0  0  0  0  0  2  0  0  0  0  0  0
  185.1060  178.1020  142.0130 C   0  0  1  0  0  3  0  0  0  0  0  0
  185.1410  178.9950  143.2330 C   0  0  1  0  0  3  0  0  0  0  0  0
  185.3080  178.7910  139.6370 F   0  0  0  0  0  0  0  0  0  0  0  0
  184.5210  178.8140  140.7820 C   0  0  1  0  0  3  0  0  0  0  0  0
  182.0730  178.7670  141.5490 C   0  0  0  0  0  1  0  0  0  0  0  0
  183.0740  178.7400  140.4940 N   0  0  0  0  0  0  0  0  0  0  0  0
  181.9640  179.4670  138.3940 C   0  0  0  0  0  3  0  0  0  0  0  0
  182.4670  176.9680  137.2320 C   0  0  0  0  0  0  0  0  0  0  0  0
  181.5400  179.2060  137.0920 C   0  0  0  0  0  3  0  0  0  0  0  0
  182.8800  177.2320  138.5520 C   0  0  0  0  0  3  0  0  0  0  0  0
  181.7990  177.9630  136.5070 C   0  0  0  0  0  3  0  0  0  0  0  0
  182.6360  178.4780  139.1390 C   0  0  0  0  0  0  0  0  0  0  0  0
  182.7730  175.6750  136.5910 C   0  0  0  0  0  0  0  0  0  0  0  0
  181.8710  175.0640  135.9500 O   0  0  0  0  0  0  0  0  0  0  0  0
  184.4130  174.2970  137.8300 O   0  0  0  0  0  1  0  0  0  0  0  0
  185.5970  173.4840  135.5780 O   0  0  0  0  0  1  0  0  0  0  0  0
  185.1480  177.1640  135.3990 C   0  0  0  0  0  2  0  0  0  0  0  0
  184.1410  175.0580  136.6950 C   0  0  1  0  0  0  0  0  0  0  0  0
  187.3840  177.0000  136.3240 N   0  0  0  0  0  0  0  0  0  0  0  0
  187.1950  174.9000  137.3730 O   0  0  0  0  0  0  0  0  0  0  0  0
  184.8090  174.6230  135.3750 C   0  0  1  0  0  3  0  0  0  0  0  0
  185.3150  175.8460  136.1440 C   0  0  1  0  0  0  0  0  0  0  0  0
  186.6940  175.8200  136.6680 C   0  0  0  0  0  0  0  0  0  0  0  0
  186.5160  177.8620  135.5260 C   0  0  0  0  0  3  0  0  0  0  0  0
  1  3  2  0  0  0  0
  2 32  1  0  0  0  0
  2  1  1  0  0  0  0
  4  5  1  0  0  0  0
  5  1  1  0  0  0  0
  5  7  2  0  0  0  0
  6  4  2  0  0  0  0
  6  8  1  0  0  0  0
  8  9  2  0  0  0  0
  9  7  1  0  0  0  0
 10  6  1  0  0  0  0
 11 12  1  1  0  0  0
 11 10  1  0  0  0  0
 13 16  2  0  0  0  0
 14 13  1  0  0  0  0
 15 16  1  0  0  0  0
 16 11  1  0  0  0  0
 17 14  2  0  0  0  0
 17 15  1  0  0  0  0
 18 17  1  0  0  0  0
 19 21  1  0  0  0  0
 19 18  1  0  0  0  0
 21 20  1  6  0  0  0
 22 26  1  0  0  0  0
 22 21  1  1  0  0  0
 23 27  2  0  0  0  0
 24 25  1  6  0  0  0
 24 22  1  0  0  0  0
 24 26  1  0  0  0  0
 24 23  1  0  0  0  0
 26 23  1  0  0  0  0
 26 28  1  1  0  0  0
 28 31  1  0  0  0  0
 31 29  1  6  0  0  0
 31 30  1  0  0  0  0
 33 32  1  0  0  0  0
 34 33  1  0  0  0  0
 35 37  1  0  0  0  0
 36 39  1  6  0  0  0
 36 35  1  0  0  0  0
 36 37  1  0  0  0  0
 37 34  1  1  0  0  0
 39 38  1  6  0  0  0
 41 39  1  0  0  0  0
 41 40  1  0  0  0  0
 42 47  1  0  0  0  0
 43 45  1  0  0  0  0
 44 42  2  0  0  0  0
 45 47  2  0  0  0  0
 46 44  1  0  0  0  0
 46 43  2  0  0  0  0
 47 41  1  0  0  0  0
 48 53  1  0  0  0  0
 48 43  1  0  0  0  0
 49 48  2  0  0  0  0
 52 59  1  0  0  0  0
 53 50  1  1  0  0  0
 54 58  1  0  0  0  0
 56 51  1  1  0  0  0
 56 57  1  0  0  0  0
 56 53  1  0  0  0  0
 57 52  1  6  0  0  0
 57 58  1  0  0  0  0
 57 53  1  0  0  0  0
 58 55  2  0  0  0  0
 59 54  2  0  0  0  0
M  END
>  <MODEL>
4

>  <REMARK>
 VINA RESULT:      -8.4      2.249      3.051
  Name = 
  19 active torsions:
  status: ('A' for Active; 'I' for Inactive)
    1  A    between atoms: C_1  and  C_39
    2  A    between atoms: C_1  and  C_43
    3  A    between atoms: C_3  and  C_57
    4  A    between atoms: N_5  and  C_14
    5  A    between atoms: N_5  and  C_32
    6  A    between atoms: C_12  and  C_13
    7  A    between atoms: C_19  and  C_26
    8  A    between atoms: C_22  and  C_26
    9  A    between atoms: N_23  and  O_51
   10  A    between atoms: C_27  and  C_32
   11  A    between atoms: C_28  and  N_36
   12  A    between atoms: C_28  and  C_44
   13  A    between atoms: N_36  and  C_58
   14  A    between atoms: C_43  and  C_57
   15  A    between atoms: C_46  and  C_49
   16  A    between atoms: C_49  and  C_55
   17  A    between atoms: C_50  and  C_53
   18  A    between atoms: C_50  and  C_56
   19  A    between atoms: O_51  and  C_53
                            x       y       z     vdW  Elec       q    Type
                         _______ _______ _______ _____ _____    ______ ____

>  <TORSDO>
F 19

$$$$
=
 OpenBabel10222417313D

 59 66  0  0  1  0  0  0  0  0999 V2000
  186.1510  178.7180  141.7360 C   0  0  0  0  0  0  0  0  0  0  0  0
  187.1440  178.2790  140.8000 N   0  0  0  0  0  2  0  0  0  0  0  0
  185.1700  179.4030  141.3350 O   0  0  0  0  0  0  0  0  0  0  0  0
  187.4920  177.8640  143.6410 C   0  0  0  0  0  3  0  0  0  0  0  0
  186.3070  178.4310  143.1660 C   0  0  0  0  0  0  0  0  0  0  0  0
  187.6090  177.4940  144.9840 C   0  0  0  0  0  0  0  0  0  0  0  0
  185.2420  178.6320  144.0490 C   0  0  0  0  0  3  0  0  0  0  0  0
  186.5600  177.7310  145.8740 C   0  0  0  0  0  3  0  0  0  0  0  0
  185.3600  178.2820  145.4040 C   0  0  0  0  0  3  0  0  0  0  0  0
  188.8550  176.9510  145.4300 N   0  0  0  0  0  2  0  0  0  0  0  0
  190.1510  177.4140  144.9450 C   0  0  1  0  0  3  0  0  0  0  0  0
  191.2400  176.7220  145.7350 C   0  0  0  0  0  1  0  0  0  0  0  0
  190.1660  175.8390  142.9990 N   0  0  0  0  0  0  0  0  0  0  0  0
  190.5320  175.8980  141.7330 N   0  0  0  0  0  0  0  0  0  0  0  0
  190.8000  177.9460  142.6110 N   0  0  0  0  0  2  0  0  0  0  0  0
  190.3080  177.0760  143.5080 C   0  0  0  0  0  0  0  0  0  0  0  0
  190.9040  177.1730  141.5090 C   0  0  0  0  0  0  0  0  0  0  0  0
  191.6010  177.6000  140.2720 C   0  0  0  0  0  2  0  0  0  0  0  0
  191.4490  176.5060  139.2380 C   0  0  0  0  0  2  0  0  0  0  0  0
  193.7700  177.0220  138.9810 O   0  0  0  0  0  1  0  0  0  0  0  0
  192.6580  176.4650  138.3320 C   0  0  1  0  0  3  0  0  0  0  0  0
  192.9080  174.9990  137.9070 C   0  0  2  0  0  3  0  0  0  0  0  0
  194.9700  174.8820  136.2810 C   0  0  0  0  0  0  0  0  0  0  0  0
  194.3550  174.7330  137.6560 C   0  0  1  0  0  0  0  0  0  0  0  0
  194.5910  173.4200  138.0960 O   0  0  0  0  0  1  0  0  0  0  0  0
  193.4400  174.7360  136.4970 C   0  0  2  0  0  0  0  0  0  0  0  0
  196.0140  174.9120  135.4580 C   0  0  0  0  0  2  0  0  0  0  0  0
  192.8950  175.8970  135.6430 C   0  0  0  0  0  2  0  0  0  0  0  0
  190.4420  175.9990  135.3200 C   0  0  0  0  0  1  0  0  0  0  0  0
  191.6720  174.0840  134.6210 O   0  0  0  0  0  1  0  0  0  0  0  0
  191.7360  175.4750  134.7410 C   0  0  2  0  0  3  0  0  0  0  0  0
  187.0820  178.6390  139.5000 O   0  0  0  0  0  0  0  0  0  0  0  0
  188.1130  177.9450  138.8440 C   0  0  0  0  0  2  0  0  0  0  0  0
  188.3400  178.4860  137.4340 C   0  0  0  0  0  2  0  0  0  0  0  0
  187.2520  177.6590  135.3360 C   0  0  0  0  0  2  0  0  0  0  0  0
  186.6430  176.9450  136.5240 C   0  0  1  0  0  3  0  0  0  0  0  0
  187.0410  178.3970  136.6490 C   0  0  1  0  0  3  0  0  0  0  0  0
  184.5250  177.1980  135.2560 F   0  0  0  0  0  0  0  0  0  0  0  0
  185.1190  176.7590  136.4330 C   0  0  1  0  0  3  0  0  0  0  0  0
  185.2210  174.3240  137.2320 C   0  0  0  0  0  1  0  0  0  0  0  0
  184.4790  175.5510  136.9920 N   0  0  0  0  0  0  0  0  0  0  0  0
  182.2850  174.4070  136.7770 C   0  0  0  0  0  3  0  0  0  0  0  0
  180.9900  176.6190  137.9080 C   0  0  0  0  0  0  0  0  0  0  0  0
  180.9000  174.3950  136.9420 C   0  0  0  0  0  3  0  0  0  0  0  0
  182.3870  176.6310  137.7260 C   0  0  0  0  0  3  0  0  0  0  0  0
  180.2540  175.4940  137.5150 C   0  0  0  0  0  3  0  0  0  0  0  0
  183.0420  175.5300  137.1650 C   0  0  0  0  0  0  0  0  0  0  0  0
  180.3050  177.7560  138.5530 C   0  0  0  0  0  0  0  0  0  0  0  0
  179.5560  178.5070  137.8640 O   0  0  0  0  0  0  0  0  0  0  0  0
  180.0870  177.0680  140.9200 O   0  0  0  0  0  1  0  0  0  0  0  0
  182.2080  178.5190  141.6500 O   0  0  0  0  0  1  0  0  0  0  0  0
  180.0270  180.6320  139.5160 C   0  0  0  0  0  2  0  0  0  0  0  0
  180.4890  178.0500  140.0160 C   0  0  1  0  0  0  0  0  0  0  0  0
  179.2120  181.1890  141.7320 N   0  0  0  0  0  0  0  0  0  0  0  0
  179.7800  179.1930  142.8450 O   0  0  0  0  0  0  0  0  0  0  0  0
  181.7080  178.9110  140.4030 C   0  0  1  0  0  3  0  0  0  0  0  0
  180.2890  179.4810  140.4780 C   0  0  1  0  0  0  0  0  0  0  0  0
  179.7740  179.8980  141.7970 C   0  0  0  0  0  0  0  0  0  0  0  0
  179.3500  181.7160  140.3760 C   0  0  0  0  0  3  0  0  0  0  0  0
  1  5  1  0  0  0  0
  2  1  1  0  0  0  0
  3  1  2  0  0  0  0
  4  6  1  0  0  0  0
  5  4  2  0  0  0  0
  5  7  1  0  0  0  0
  6 10  1  0  0  0  0
  6  8  2  0  0  0  0
  7  9  2  0  0  0  0
  9  8  1  0  0  0  0
 11 10  1  0  0  0  0
 11 12  1  1  0  0  0
 13 16  2  0  0  0  0
 14 13  1  0  0  0  0
 15 16  1  0  0  0  0
 16 11  1  0  0  0  0
 17 14  2  0  0  0  0
 17 15  1  0  0  0  0
 18 17  1  0  0  0  0
 19 18  1  0  0  0  0
 21 20  1  1  0  0  0
 21 19  1  0  0  0  0
 22 21  1  6  0  0  0
 23 26  1  0  0  0  0
 23 24  1  0  0  0  0
 24 22  1  0  0  0  0
 24 25  1  1  0  0  0
 26 28  1  1  0  0  0
 26 24  1  0  0  0  0
 26 22  1  0  0  0  0
 27 23  2  0  0  0  0
 30 31  1  0  0  0  0
 31 29  1  1  0  0  0
 31 28  1  0  0  0  0
 32  2  1  0  0  0  0
 33 32  1  0  0  0  0
 34 33  1  0  0  0  0
 35 36  1  0  0  0  0
 35 37  1  0  0  0  0
 36 39  1  6  0  0  0
 36 37  1  0  0  0  0
 37 34  1  1  0  0  0
 39 38  1  6  0  0  0
 39 41  1  0  0  0  0
 41 47  1  0  0  0  0
 41 40  1  0  0  0  0
 42 44  2  0  0  0  0
 42 47  1  0  0  0  0
 43 48  1  0  0  0  0
 44 46  1  0  0  0  0
 45 43  1  0  0  0  0
 46 43  2  0  0  0  0
 47 45  2  0  0  0  0
 48 53  1  0  0  0  0
 49 48  2  0  0  0  0
 52 59  1  0  0  0  0
 53 56  1  0  0  0  0
 53 57  1  0  0  0  0
 53 50  1  1  0  0  0
 54 58  1  0  0  0  0
 56 57  1  0  0  0  0
 56 51  1  1  0  0  0
 57 52  1  6  0  0  0
 57 58  1  0  0  0  0
 58 55  2  0  0  0  0
 59 54  2  0  0  0  0
M  END
>  <MODEL>
5

>  <REMARK>
 VINA RESULT:      -8.0      2.754      6.011
  Name = 
  19 active torsions:
  status: ('A' for Active; 'I' for Inactive)
    1  A    between atoms: C_1  and  C_39
    2  A    between atoms: C_1  and  C_43
    3  A    between atoms: C_3  and  C_57
    4  A    between atoms: N_5  and  C_14
    5  A    between atoms: N_5  and  C_32
    6  A    between atoms: C_12  and  C_13
    7  A    between atoms: C_19  and  C_26
    8  A    between atoms: C_22  and  C_26
    9  A    between atoms: N_23  and  O_51
   10  A    between atoms: C_27  and  C_32
   11  A    between atoms: C_28  and  N_36
   12  A    between atoms: C_28  and  C_44
   13  A    between atoms: N_36  and  C_58
   14  A    between atoms: C_43  and  C_57
   15  A    between atoms: C_46  and  C_49
   16  A    between atoms: C_49  and  C_55
   17  A    between atoms: C_50  and  C_53
   18  A    between atoms: C_50  and  C_56
   19  A    between atoms: O_51  and  C_53
                            x       y       z     vdW  Elec       q    Type
                         _______ _______ _______ _____ _____    ______ ____

>  <TORSDO>
F 19

$$$$
=
 OpenBabel10222417313D

 59 66  0  0  1  0  0  0  0  0999 V2000
  189.5610  177.2640  145.3630 C   0  0  0  0  0  0  0  0  0  0  0  0
  189.6890  176.6990  144.0520 N   0  0  0  0  0  2  0  0  0  0  0  0
  190.5760  177.3580  146.1080 O   0  0  0  0  0  0  0  0  0  0  0  0
  187.2980  178.2120  144.9940 C   0  0  0  0  0  3  0  0  0  0  0  0
  188.2450  177.6700  145.8670 C   0  0  0  0  0  0  0  0  0  0  0  0
  186.0810  178.6950  145.4820 C   0  0  0  0  0  0  0  0  0  0  0  0
  187.9590  177.6070  147.2330 C   0  0  0  0  0  3  0  0  0  0  0  0
  185.7800  178.5970  146.8420 C   0  0  0  0  0  3  0  0  0  0  0  0
  186.7290  178.0720  147.7290 C   0  0  0  0  0  3  0  0  0  0  0  0
  185.1300  179.2070  144.5450 N   0  0  0  0  0  2  0  0  0  0  0  0
  184.1660  178.3680  143.8420 C   0  0  1  0  0  3  0  0  0  0  0  0
  182.7690  178.8080  144.2250 C   0  0  0  0  0  1  0  0  0  0  0  0
  185.0810  179.4710  141.7890 N   0  0  0  0  0  0  0  0  0  0  0  0
  184.8640  179.3890  140.4900 N   0  0  0  0  0  0  0  0  0  0  0  0
  183.5940  177.8310  141.4880 N   0  0  0  0  0  2  0  0  0  0  0  0
  184.3330  178.5180  142.3740 C   0  0  0  0  0  0  0  0  0  0  0  0
  183.9740  178.3930  140.3210 C   0  0  0  0  0  0  0  0  0  0  0  0
  183.2930  178.1360  139.0290 C   0  0  0  0  0  2  0  0  0  0  0  0
  181.8060  178.0320  139.2880 C   0  0  0  0  0  2  0  0  0  0  0  0
  181.2130  179.8900  140.6730 O   0  0  0  0  0  1  0  0  0  0  0  0
  181.1850  179.4090  139.3560 C   0  0  1  0  0  3  0  0  0  0  0  0
  181.9420  180.3410  138.3810 C   0  0  2  0  0  3  0  0  0  0  0  0
  180.5270  182.5130  137.9450 C   0  0  0  0  0  0  0  0  0  0  0  0
  181.6480  181.7810  138.6490 C   0  0  1  0  0  0  0  0  0  0  0  0
  182.8440  182.4740  138.3970 O   0  0  0  0  0  1  0  0  0  0  0  0
  181.1220  181.1850  137.4040 C   0  0  2  0  0  0  0  0  0  0  0  0
  179.7440  183.5740  137.7720 C   0  0  0  0  0  2  0  0  0  0  0  0
  179.8470  180.3620  137.1390 C   0  0  0  0  0  2  0  0  0  0  0  0
  179.5450  178.1140  136.1440 C   0  0  0  0  0  1  0  0  0  0  0  0
  181.2130  179.5910  135.3040 O   0  0  0  0  0  1  0  0  0  0  0  0
  179.9260  179.5460  135.8490 C   0  0  2  0  0  3  0  0  0  0  0  0
  190.8700  176.2070  143.6180 O   0  0  0  0  0  0  0  0  0  0  0  0
  191.1000  176.7770  142.3560 C   0  0  0  0  0  2  0  0  0  0  0  0
  189.9130  176.5600  141.4200 C   0  0  0  0  0  2  0  0  0  0  0  0
  191.3610  177.2590  139.5020 C   0  0  0  0  0  2  0  0  0  0  0  0
  190.0800  176.6580  138.9620 C   0  0  1  0  0  3  0  0  0  0  0  0
  190.0420  177.4880  140.2240 C   0  0  1  0  0  3  0  0  0  0  0  0
  189.5030  178.7920  137.8330 F   0  0  0  0  0  0  0  0  0  0  0  0
  189.4970  177.4050  137.7500 C   0  0  1  0  0  3  0  0  0  0  0  0
  189.0420  177.4590  135.2270 C   0  0  0  0  0  1  0  0  0  0  0  0
  189.7300  176.9030  136.3810 N   0  0  0  0  0  0  0  0  0  0  0  0
  189.9630  174.4690  135.9440 C   0  0  0  0  0  3  0  0  0  0  0  0
  192.7540  174.6890  136.0540 C   0  0  0  0  0  0  0  0  0  0  0  0
  190.7590  173.3380  135.7670 C   0  0  0  0  0  3  0  0  0  0  0  0
  191.9440  175.8250  136.2460 C   0  0  0  0  0  3  0  0  0  0  0  0
  192.1520  173.4480  135.8120 C   0  0  0  0  0  3  0  0  0  0  0  0
  190.5510  175.7260  136.1900 C   0  0  0  0  0  0  0  0  0  0  0  0
  194.2250  174.8030  136.0550 C   0  0  0  0  0  0  0  0  0  0  0  0
  194.8340  175.0510  134.9760 O   0  0  0  0  0  0  0  0  0  0  0  0
  194.7320  175.4640  138.3860 O   0  0  0  0  0  1  0  0  0  0  0  0
  195.4770  172.9840  139.0420 O   0  0  0  0  0  1  0  0  0  0  0  0
  197.1220  173.8880  135.8410 C   0  0  0  0  0  2  0  0  0  0  0  0
  195.0200  174.6160  137.3180 C   0  0  1  0  0  0  0  0  0  0  0  0
  198.8160  174.5420  137.4490 N   0  0  0  0  0  0  0  0  0  0  0  0
  197.4210  174.9670  139.2990 O   0  0  0  0  0  0  0  0  0  0  0  0
  195.4580  173.1770  137.6560 C   0  0  1  0  0  3  0  0  0  0  0  0
  196.4770  174.2140  137.1810 C   0  0  1  0  0  0  0  0  0  0  0  0
  197.5670  174.5940  138.1010 C   0  0  0  0  0  0  0  0  0  0  0  0
  198.6310  174.0940  136.0710 C   0  0  0  0  0  3  0  0  0  0  0  0
  1  5  1  0  0  0  0
  1  3  2  0  0  0  0
  2  1  1  0  0  0  0
  4  6  2  0  0  0  0
  4  5  1  0  0  0  0
  5  7  2  0  0  0  0
  6  8  1  0  0  0  0
  7  9  1  0  0  0  0
  8  9  2  0  0  0  0
 10  6  1  0  0  0  0
 11 12  1  1  0  0  0
 11 10  1  0  0  0  0
 13 16  2  0  0  0  0
 14 13  1  0  0  0  0
 15 16  1  0  0  0  0
 16 11  1  0  0  0  0
 17 14  2  0  0  0  0
 17 15  1  0  0  0  0
 18 19  1  0  0  0  0
 18 17  1  0  0  0  0
 19 21  1  0  0  0  0
 21 20  1  1  0  0  0
 22 24  1  0  0  0  0
 22 21  1  1  0  0  0
 23 24  1  0  0  0  0
 24 25  1  6  0  0  0
 26 28  1  1  0  0  0
 26 23  1  0  0  0  0
 26 22  1  0  0  0  0
 26 24  1  0  0  0  0
 27 23  2  0  0  0  0
 30 31  1  0  0  0  0
 31 29  1  1  0  0  0
 31 28  1  0  0  0  0
 32  2  1  0  0  0  0
 33 32  1  0  0  0  0
 34 33  1  0  0  0  0
 35 37  1  0  0  0  0
 36 39  1  6  0  0  0
 36 35  1  0  0  0  0
 36 37  1  0  0  0  0
 37 34  1  1  0  0  0
 39 38  1  6  0  0  0
 40 41  1  0  0  0  0
 41 39  1  0  0  0  0
 42 47  1  0  0  0  0
 43 48  1  0  0  0  0
 43 45  1  0  0  0  0
 44 46  1  0  0  0  0
 44 42  2  0  0  0  0
 46 43  2  0  0  0  0
 47 45  2  0  0  0  0
 47 41  1  0  0  0  0
 48 53  1  0  0  0  0
 49 48  2  0  0  0  0
 52 59  1  0  0  0  0
 53 56  1  0  0  0  0
 53 50  1  1  0  0  0
 54 58  1  0  0  0  0
 56 51  1  1  0  0  0
 57 52  1  6  0  0  0
 57 53  1  0  0  0  0
 57 56  1  0  0  0  0
 57 58  1  0  0  0  0
 58 55  2  0  0  0  0
 59 54  2  0  0  0  0
M  END
>  <MODEL>
6

>  <REMARK>
 VINA RESULT:      -8.0      2.832     11.600
  Name = 
  19 active torsions:
  status: ('A' for Active; 'I' for Inactive)
    1  A    between atoms: C_1  and  C_39
    2  A    between atoms: C_1  and  C_43
    3  A    between atoms: C_3  and  C_57
    4  A    between atoms: N_5  and  C_14
    5  A    between atoms: N_5  and  C_32
    6  A    between atoms: C_12  and  C_13
    7  A    between atoms: C_19  and  C_26
    8  A    between atoms: C_22  and  C_26
    9  A    between atoms: N_23  and  O_51
   10  A    between atoms: C_27  and  C_32
   11  A    between atoms: C_28  and  N_36
   12  A    between atoms: C_28  and  C_44
   13  A    between atoms: N_36  and  C_58
   14  A    between atoms: C_43  and  C_57
   15  A    between atoms: C_46  and  C_49
   16  A    between atoms: C_49  and  C_55
   17  A    between atoms: C_50  and  C_53
   18  A    between atoms: C_50  and  C_56
   19  A    between atoms: O_51  and  C_53
                            x       y       z     vdW  Elec       q    Type
                         _______ _______ _______ _____ _____    ______ ____

>  <TORSDO>
F 19

$$$$
=
 OpenBabel10222417313D

 59 66  0  0  1  0  0  0  0  0999 V2000
  180.4990  178.7150  142.0610 C   0  0  0  0  0  0  0  0  0  0  0  0
  181.7150  179.1030  142.7140 N   0  0  0  0  0  2  0  0  0  0  0  0
  179.5120  178.3290  142.7480 O   0  0  0  0  0  0  0  0  0  0  0  0
  181.1670  177.7750  139.8640 C   0  0  0  0  0  3  0  0  0  0  0  0
  180.4200  178.7010  140.5960 C   0  0  0  0  0  0  0  0  0  0  0  0
  181.1760  177.8220  138.4670 C   0  0  0  0  0  0  0  0  0  0  0  0
  179.6760  179.6700  139.9180 C   0  0  0  0  0  3  0  0  0  0  0  0
  180.4010  178.7650  137.7890 C   0  0  0  0  0  3  0  0  0  0  0  0
  179.6640  179.7110  138.5140 C   0  0  0  0  0  3  0  0  0  0  0  0
  181.9260  176.8290  137.7610 N   0  0  0  0  0  2  0  0  0  0  0  0
  183.0960  177.1370  136.9470 C   0  0  1  0  0  3  0  0  0  0  0  0
  184.1630  177.7390  137.8360 C   0  0  0  0  0  1  0  0  0  0  0  0
  183.1810  175.3740  135.1720 N   0  0  0  0  0  0  0  0  0  0  0  0
  183.7720  174.2030  135.0240 N   0  0  0  0  0  0  0  0  0  0  0  0
  184.4750  175.0750  136.9680 N   0  0  0  0  0  2  0  0  0  0  0  0
  183.6280  175.8970  136.3280 C   0  0  0  0  0  0  0  0  0  0  0  0
  184.5540  174.0380  136.1070 C   0  0  0  0  0  0  0  0  0  0  0  0
  185.2080  172.7480  136.4360 C   0  0  0  0  0  2  0  0  0  0  0  0
  186.5050  172.6610  135.6620 C   0  0  0  0  0  2  0  0  0  0  0  0
  187.9470  172.1330  137.4950 O   0  0  0  0  0  1  0  0  0  0  0  0
  187.6640  173.1050  136.5250 C   0  0  1  0  0  3  0  0  0  0  0  0
  188.8800  173.3880  135.6130 C   0  0  2  0  0  3  0  0  0  0  0  0
  190.8070  174.4970  137.0150 C   0  0  0  0  0  0  0  0  0  0  0  0
  190.1690  173.2920  136.3610 C   0  0  1  0  0  0  0  0  0  0  0  0
  191.0990  172.7440  135.4620 O   0  0  0  0  0  1  0  0  0  0  0  0
  189.7300  174.6260  135.9040 C   0  0  2  0  0  0  0  0  0  0  0  0
  191.7250  175.0630  137.7930 C   0  0  0  0  0  2  0  0  0  0  0  0
  188.7560  175.6390  136.5350 C   0  0  0  0  0  2  0  0  0  0  0  0
  189.6910  176.9940  134.6840 C   0  0  0  0  0  1  0  0  0  0  0  0
  188.4840  178.0360  136.4520 O   0  0  0  0  0  1  0  0  0  0  0  0
  188.5500  176.8810  135.6680 C   0  0  2  0  0  3  0  0  0  0  0  0
  181.8460  179.0040  144.0550 O   0  0  0  0  0  0  0  0  0  0  0  0
  183.1420  179.4490  144.3620 C   0  0  0  0  0  2  0  0  0  0  0  0
  183.6300  178.8700  145.6890 C   0  0  0  0  0  2  0  0  0  0  0  0
  186.0730  179.4090  145.7860 C   0  0  0  0  0  2  0  0  0  0  0  0
  185.7530  178.3710  146.8410 C   0  0  1  0  0  3  0  0  0  0  0  0
  185.0390  178.3280  145.5100 C   0  0  1  0  0  3  0  0  0  0  0  0
  186.9250  176.3990  145.8930 F   0  0  0  0  0  0  0  0  0  0  0  0
  186.8110  177.2630  146.9760 C   0  0  1  0  0  3  0  0  0  0  0  0
  188.1820  178.1290  148.9630 C   0  0  0  0  0  1  0  0  0  0  0  0
  188.1030  177.5410  147.6350 N   0  0  0  0  0  0  0  0  0  0  0  0
  190.3320  176.4870  147.3380 C   0  0  0  0  0  3  0  0  0  0  0  0
  190.7180  177.9120  144.9570 C   0  0  0  0  0  0  0  0  0  0  0  0
  191.5140  176.3290  146.6140 C   0  0  0  0  0  3  0  0  0  0  0  0
  189.5330  178.0780  145.6990 C   0  0  0  0  0  3  0  0  0  0  0  0
  191.7040  177.0320  145.4210 C   0  0  0  0  0  3  0  0  0  0  0  0
  189.3300  177.3680  146.8870 C   0  0  0  0  0  0  0  0  0  0  0  0
  190.9080  178.6160  143.6740 C   0  0  0  0  0  0  0  0  0  0  0  0
  191.1730  179.8520  143.6720 O   0  0  0  0  0  0  0  0  0  0  0  0
  191.8780  177.9290  141.5030 O   0  0  0  0  0  1  0  0  0  0  0  0
  190.4340  175.6840  141.4440 O   0  0  0  0  0  1  0  0  0  0  0  0
  188.1800  178.4970  142.3250 C   0  0  0  0  0  2  0  0  0  0  0  0
  190.7810  177.8930  142.3610 C   0  0  1  0  0  0  0  0  0  0  0  0
  187.9230  178.4160  139.9150 N   0  0  0  0  0  0  0  0  0  0  0  0
  190.0100  177.4800  139.3530 O   0  0  0  0  0  0  0  0  0  0  0  0
  189.9190  176.6140  142.3540 C   0  0  1  0  0  3  0  0  0  0  0  0
  189.4230  177.8970  141.6830 C   0  0  1  0  0  0  0  0  0  0  0  0
  189.1870  177.8760  140.2260 C   0  0  0  0  0  0  0  0  0  0  0  0
  187.2340  178.7950  141.1460 C   0  0  0  0  0  3  0  0  0  0  0  0
  1  2  1  0  0  0  0
  1  3  2  0  0  0  0
  2 32  1  0  0  0  0
  4  5  1  0  0  0  0
  5  1  1  0  0  0  0
  6  4  2  0  0  0  0
  7  5  2  0  0  0  0
  8  6  1  0  0  0  0
  8  9  2  0  0  0  0
  9  7  1  0  0  0  0
 10  6  1  0  0  0  0
 11 10  1  0  0  0  0
 11 12  1  1  0  0  0
 13 16  2  0  0  0  0
 14 13  1  0  0  0  0
 14 17  2  0  0  0  0
 16 11  1  0  0  0  0
 16 15  1  0  0  0  0
 17 18  1  0  0  0  0
 17 15  1  0  0  0  0
 19 18  1  0  0  0  0
 19 21  1  0  0  0  0
 21 20  1  1  0  0  0
 22 26  1  0  0  0  0
 22 24  1  0  0  0  0
 22 21  1  1  0  0  0
 23 27  2  0  0  0  0
 24 25  1  6  0  0  0
 24 23  1  0  0  0  0
 26 24  1  0  0  0  0
 26 28  1  1  0  0  0
 26 23  1  0  0  0  0
 31 29  1  6  0  0  0
 31 30  1  0  0  0  0
 31 28  1  0  0  0  0
 32 33  1  0  0  0  0
 33 34  1  0  0  0  0
 35 36  1  0  0  0  0
 36 39  1  6  0  0  0
 37 34  1  1  0  0  0
 37 35  1  0  0  0  0
 37 36  1  0  0  0  0
 39 38  1  6  0  0  0
 39 41  1  0  0  0  0
 41 40  1  0  0  0  0
 43 46  2  0  0  0  0
 43 45  1  0  0  0  0
 44 42  2  0  0  0  0
 45 47  2  0  0  0  0
 46 44  1  0  0  0  0
 47 42  1  0  0  0  0
 47 41  1  0  0  0  0
 48 43  1  0  0  0  0
 49 48  2  0  0  0  0
 53 50  1  6  0  0  0
 53 48  1  0  0  0  0
 54 58  1  0  0  0  0
 54 59  2  0  0  0  0
 55 58  2  0  0  0  0
 56 51  1  6  0  0  0
 56 53  1  0  0  0  0
 57 52  1  1  0  0  0
 57 56  1  0  0  0  0
 57 53  1  0  0  0  0
 58 57  1  0  0  0  0
 59 52  1  0  0  0  0
M  END
>  <MODEL>
7

>  <REMARK>
 VINA RESULT:      -7.8      3.157      8.439
  Name = 
  19 active torsions:
  status: ('A' for Active; 'I' for Inactive)
    1  A    between atoms: C_1  and  C_39
    2  A    between atoms: C_1  and  C_43
    3  A    between atoms: C_3  and  C_57
    4  A    between atoms: N_5  and  C_14
    5  A    between atoms: N_5  and  C_32
    6  A    between atoms: C_12  and  C_13
    7  A    between atoms: C_19  and  C_26
    8  A    between atoms: C_22  and  C_26
    9  A    between atoms: N_23  and  O_51
   10  A    between atoms: C_27  and  C_32
   11  A    between atoms: C_28  and  N_36
   12  A    between atoms: C_28  and  C_44
   13  A    between atoms: N_36  and  C_58
   14  A    between atoms: C_43  and  C_57
   15  A    between atoms: C_46  and  C_49
   16  A    between atoms: C_49  and  C_55
   17  A    between atoms: C_50  and  C_53
   18  A    between atoms: C_50  and  C_56
   19  A    between atoms: O_51  and  C_53
                            x       y       z     vdW  Elec       q    Type
                         _______ _______ _______ _____ _____    ______ ____

>  <TORSDO>
F 19

$$$$
=
 OpenBabel10222417313D

 59 66  0  0  1  0  0  0  0  0999 V2000
  190.3480  177.1560  145.3210 C   0  0  0  0  0  0  0  0  0  0  0  0
  190.2640  176.4430  144.0790 N   0  0  0  0  0  2  0  0  0  0  0  0
  191.4780  177.4400  145.8060 O   0  0  0  0  0  0  0  0  0  0  0  0
  188.0660  178.1280  145.4050 C   0  0  0  0  0  3  0  0  0  0  0  0
  189.1280  177.4980  146.0590 C   0  0  0  0  0  0  0  0  0  0  0  0
  186.9430  178.5480  146.1220 C   0  0  0  0  0  0  0  0  0  0  0  0
  189.0510  177.2840  147.4380 C   0  0  0  0  0  3  0  0  0  0  0  0
  186.8500  178.2990  147.4930 C   0  0  0  0  0  3  0  0  0  0  0  0
  187.9160  177.6840  148.1630 C   0  0  0  0  0  3  0  0  0  0  0  0
  185.8670  179.1550  145.4010 N   0  0  0  0  0  2  0  0  0  0  0  0
  184.8060  178.3940  144.7530 C   0  0  1  0  0  3  0  0  0  0  0  0
  183.4720  179.0030  145.1260 C   0  0  0  0  0  1  0  0  0  0  0  0
  186.1200  178.7420  142.6500 N   0  0  0  0  0  0  0  0  0  0  0  0
  185.8430  178.8530  141.3650 N   0  0  0  0  0  0  0  0  0  0  0  0
  183.9220  178.4040  142.4350 N   0  0  0  0  0  2  0  0  0  0  0  0
  184.9660  178.4500  143.2780 C   0  0  0  0  0  0  0  0  0  0  0  0
  184.5190  178.6390  141.2470 C   0  0  0  0  0  0  0  0  0  0  0  0
  183.7720  178.9040  139.9930 C   0  0  0  0  0  2  0  0  0  0  0  0
  182.2960  178.7210  140.2710 C   0  0  0  0  0  2  0  0  0  0  0  0
  181.8310  178.4780  137.9380 O   0  0  0  0  0  1  0  0  0  0  0  0
  181.6580  177.8760  139.1920 C   0  0  1  0  0  3  0  0  0  0  0  0
  182.2730  176.4580  139.2460 C   0  0  2  0  0  3  0  0  0  0  0  0
  181.5670  175.0990  137.1100 C   0  0  0  0  0  0  0  0  0  0  0  0
  182.5690  175.9290  137.8820 C   0  0  1  0  0  0  0  0  0  0  0  0
  183.7510  175.1790  138.0040 O   0  0  0  0  0  1  0  0  0  0  0  0
  181.4740  175.3000  138.6460 C   0  0  2  0  0  0  0  0  0  0  0  0
  181.1570  174.4800  136.0070 C   0  0  0  0  0  2  0  0  0  0  0  0
  179.9970  175.7060  138.8150 C   0  0  0  0  0  2  0  0  0  0  0  0
  179.3790  174.7430  141.0110 C   0  0  0  0  0  1  0  0  0  0  0  0
  179.5180  173.3550  139.0810 O   0  0  0  0  0  1  0  0  0  0  0  0
  179.1650  174.6350  139.5190 C   0  0  2  0  0  3  0  0  0  0  0  0
  191.3770  176.0130  143.4480 O   0  0  0  0  0  0  0  0  0  0  0  0
  191.4430  176.7140  142.2330 C   0  0  0  0  0  2  0  0  0  0  0  0
  190.0530  176.9380  141.6420 C   0  0  0  0  0  2  0  0  0  0  0  0
  191.3670  177.2260  139.5310 C   0  0  0  0  0  2  0  0  0  0  0  0
  189.9630  176.7780  139.1830 C   0  0  1  0  0  3  0  0  0  0  0  0
  190.1810  177.7190  140.3450 C   0  0  1  0  0  3  0  0  0  0  0  0
  189.3280  178.8750  138.0170 F   0  0  0  0  0  0  0  0  0  0  0  0
  189.3620  177.4870  137.9570 C   0  0  1  0  0  3  0  0  0  0  0  0
  188.9520  177.5210  135.4260 C   0  0  0  0  0  1  0  0  0  0  0  0
  189.6130  176.9690  136.5970 N   0  0  0  0  0  0  0  0  0  0  0  0
  189.8230  174.5180  136.2580 C   0  0  0  0  0  3  0  0  0  0  0  0
  192.6160  174.7270  136.2750 C   0  0  0  0  0  0  0  0  0  0  0  0
  190.6080  173.3760  136.1060 C   0  0  0  0  0  3  0  0  0  0  0  0
  191.8180  175.8750  136.4430 C   0  0  0  0  0  3  0  0  0  0  0  0
  192.0020  173.4800  136.1040 C   0  0  0  0  0  3  0  0  0  0  0  0
  190.4230  175.7800  136.4320 C   0  0  0  0  0  0  0  0  0  0  0  0
  194.0870  174.8330  136.2280 C   0  0  0  0  0  0  0  0  0  0  0  0
  194.6610  175.0960  135.1320 O   0  0  0  0  0  0  0  0  0  0  0  0
  194.6250  175.3960  138.5770 O   0  0  0  0  0  1  0  0  0  0  0  0
  195.5050  172.9260  139.0820 O   0  0  0  0  0  1  0  0  0  0  0  0
  197.0180  174.0740  135.8940 C   0  0  0  0  0  2  0  0  0  0  0  0
  194.9240  174.6200  137.4590 C   0  0  1  0  0  0  0  0  0  0  0  0
  198.7210  174.7270  137.4930 N   0  0  0  0  0  0  0  0  0  0  0  0
  197.3590  174.9860  139.3960 O   0  0  0  0  0  0  0  0  0  0  0  0
  195.4400  173.1890  137.7090 C   0  0  1  0  0  3  0  0  0  0  0  0
  196.3950  174.2990  137.2650 C   0  0  1  0  0  0  0  0  0  0  0  0
  197.4890  174.6830  138.1770 C   0  0  0  0  0  0  0  0  0  0  0  0
  198.5210  174.3420  136.0980 C   0  0  0  0  0  3  0  0  0  0  0  0
  1  3  2  0  0  0  0
  1  5  1  0  0  0  0
  2  1  1  0  0  0  0
  4  5  2  0  0  0  0
  4  6  1  0  0  0  0
  5  7  1  0  0  0  0
  6  8  2  0  0  0  0
  7  9  2  0  0  0  0
  8  9  1  0  0  0  0
 10  6  1  0  0  0  0
 11 12  1  6  0  0  0
 11 10  1  0  0  0  0
 13 16  2  0  0  0  0
 14 13  1  0  0  0  0
 15 16  1  0  0  0  0
 16 11  1  0  0  0  0
 17 14  2  0  0  0  0
 17 15  1  0  0  0  0
 18 19  1  0  0  0  0
 18 17  1  0  0  0  0
 21 20  1  6  0  0  0
 21 19  1  0  0  0  0
 22 21  1  6  0  0  0
 23 24  1  0  0  0  0
 23 26  1  0  0  0  0
 24 25  1  1  0  0  0
 24 26  1  0  0  0  0
 24 22  1  0  0  0  0
 26 28  1  6  0  0  0
 26 22  1  0  0  0  0
 27 23  2  0  0  0  0
 28 31  1  0  0  0  0
 30 31  1  0  0  0  0
 31 29  1  1  0  0  0
 32  2  1  0  0  0  0
 33 32  1  0  0  0  0
 34 33  1  0  0  0  0
 35 37  1  0  0  0  0
 36 39  1  6  0  0  0
 36 35  1  0  0  0  0
 36 37  1  0  0  0  0
 37 34  1  1  0  0  0
 39 38  1  6  0  0  0
 40 41  1  0  0  0  0
 41 39  1  0  0  0  0
 42 47  1  0  0  0  0
 43 45  1  0  0  0  0
 44 42  2  0  0  0  0
 46 44  1  0  0  0  0
 46 43  2  0  0  0  0
 47 45  2  0  0  0  0
 47 41  1  0  0  0  0
 48 43  1  0  0  0  0
 48 53  1  0  0  0  0
 49 48  2  0  0  0  0
 52 59  1  0  0  0  0
 53 56  1  0  0  0  0
 53 50  1  1  0  0  0
 54 58  1  0  0  0  0
 56 51  1  1  0  0  0
 57 52  1  6  0  0  0
 57 53  1  0  0  0  0
 57 56  1  0  0  0  0
 57 58  1  0  0  0  0
 58 55  2  0  0  0  0
 59 54  2  0  0  0  0
M  END
>  <MODEL>
8

>  <REMARK>
 VINA RESULT:      -7.8      3.002     10.987
  Name = 
  19 active torsions:
  status: ('A' for Active; 'I' for Inactive)
    1  A    between atoms: C_1  and  C_39
    2  A    between atoms: C_1  and  C_43
    3  A    between atoms: C_3  and  C_57
    4  A    between atoms: N_5  and  C_14
    5  A    between atoms: N_5  and  C_32
    6  A    between atoms: C_12  and  C_13
    7  A    between atoms: C_19  and  C_26
    8  A    between atoms: C_22  and  C_26
    9  A    between atoms: N_23  and  O_51
   10  A    between atoms: C_27  and  C_32
   11  A    between atoms: C_28  and  N_36
   12  A    between atoms: C_28  and  C_44
   13  A    between atoms: N_36  and  C_58
   14  A    between atoms: C_43  and  C_57
   15  A    between atoms: C_46  and  C_49
   16  A    between atoms: C_49  and  C_55
   17  A    between atoms: C_50  and  C_53
   18  A    between atoms: C_50  and  C_56
   19  A    between atoms: O_51  and  C_53
                            x       y       z     vdW  Elec       q    Type
                         _______ _______ _______ _____ _____    ______ ____

>  <TORSDO>
F 19

$$$$
=
 OpenBabel10222417313D

 59 66  0  0  1  0  0  0  0  0999 V2000
  191.6490  177.5620  142.7980 C   0  0  0  0  0  0  0  0  0  0  0  0
  191.5910  176.5840  143.8450 N   0  0  0  0  0  2  0  0  0  0  0  0
  191.8140  178.7800  143.0840 O   0  0  0  0  0  0  0  0  0  0  0  0
  192.5110  177.2340  140.4940 C   0  0  0  0  0  3  0  0  0  0  0  0
  191.4510  177.1590  141.4010 C   0  0  0  0  0  0  0  0  0  0  0  0
  192.3050  176.9500  139.1420 C   0  0  0  0  0  0  0  0  0  0  0  0
  190.1840  176.7890  140.9430 C   0  0  0  0  0  3  0  0  0  0  0  0
  191.0480  176.5420  138.6920 C   0  0  0  0  0  3  0  0  0  0  0  0
  189.9730  176.4810  139.5890 C   0  0  0  0  0  3  0  0  0  0  0  0
  193.4300  177.0040  138.2590 N   0  0  0  0  0  2  0  0  0  0  0  0
  193.9850  175.8310  137.5940 C   0  0  1  0  0  3  0  0  0  0  0  0
  194.3070  174.7860  138.6400 C   0  0  0  0  0  1  0  0  0  0  0  0
  192.4540  175.9570  135.6180 N   0  0  0  0  0  0  0  0  0  0  0  0
  191.5150  175.1920  135.0940 N   0  0  0  0  0  0  0  0  0  0  0  0
  192.4060  174.0790  136.8260 N   0  0  0  0  0  2  0  0  0  0  0  0
  192.9970  175.2700  136.6390 C   0  0  0  0  0  0  0  0  0  0  0  0
  191.5020  174.0610  135.8240 C   0  0  0  0  0  0  0  0  0  0  0  0
  190.4310  173.0420  135.7050 C   0  0  0  0  0  2  0  0  0  0  0  0
  189.3730  173.3390  136.7450 C   0  0  0  0  0  2  0  0  0  0  0  0
  187.7940  171.8370  135.7600 O   0  0  0  0  0  1  0  0  0  0  0  0
  187.9920  173.1680  136.1550 C   0  0  1  0  0  3  0  0  0  0  0  0
  186.9480  173.6250  137.2000 C   0  0  2  0  0  3  0  0  0  0  0  0
  184.7240  174.3310  135.9880 C   0  0  0  0  0  0  0  0  0  0  0  0
  185.5530  173.3260  136.7590 C   0  0  1  0  0  0  0  0  0  0  0  0
  184.8440  172.9800  137.9210 O   0  0  0  0  0  1  0  0  0  0  0  0
  185.9760  174.7400  136.8110 C   0  0  2  0  0  0  0  0  0  0  0  0
  183.6420  174.6770  135.2970 C   0  0  0  0  0  2  0  0  0  0  0  0
  186.7460  175.6030  135.7920 C   0  0  0  0  0  2  0  0  0  0  0  0
  188.4800  177.3650  135.9350 C   0  0  0  0  0  1  0  0  0  0  0  0
  186.9230  177.0560  137.7100 O   0  0  0  0  0  1  0  0  0  0  0  0
  187.0650  177.0000  136.3210 C   0  0  2  0  0  3  0  0  0  0  0  0
  191.6470  176.9520  145.1440 O   0  0  0  0  0  0  0  0  0  0  0  0
  190.4130  176.5990  145.7120 C   0  0  0  0  0  2  0  0  0  0  0  0
  189.3930  177.7290  145.5760 C   0  0  0  0  0  2  0  0  0  0  0  0
  187.6860  177.9230  147.3970 C   0  0  0  0  0  2  0  0  0  0  0  0
  187.0820  178.4140  146.0980 C   0  0  1  0  0  3  0  0  0  0  0  0
  188.0430  177.2470  146.0820 C   0  0  1  0  0  3  0  0  0  0  0  0
  184.8840  177.7300  147.0270 F   0  0  0  0  0  0  0  0  0  0  0  0
  185.6240  177.9760  145.8770 C   0  0  1  0  0  3  0  0  0  0  0  0
  183.4470  178.9950  144.9820 C   0  0  0  0  0  1  0  0  0  0  0  0
  184.8230  178.5690  144.7860 N   0  0  0  0  0  0  0  0  0  0  0  0
  186.7130  178.2590  143.2040 C   0  0  0  0  0  3  0  0  0  0  0  0
  185.0590  178.9540  141.0520 C   0  0  0  0  0  0  0  0  0  0  0  0
  187.2290  178.2870  141.9090 C   0  0  0  0  0  3  0  0  0  0  0  0
  184.5470  178.9380  142.3640 C   0  0  0  0  0  3  0  0  0  0  0  0
  186.4030  178.6240  140.8330 C   0  0  0  0  0  3  0  0  0  0  0  0
  185.3650  178.5890  143.4440 C   0  0  0  0  0  0  0  0  0  0  0  0
  184.1850  179.2650  139.9050 C   0  0  0  0  0  0  0  0  0  0  0  0
  184.5280  180.1610  139.0810 O   0  0  0  0  0  0  0  0  0  0  0  0
  182.9380  177.1800  139.4350 O   0  0  0  0  0  1  0  0  0  0  0  0
  180.8250  177.9960  140.8500 O   0  0  0  0  0  1  0  0  0  0  0  0
  181.8700  180.7660  138.6130 C   0  0  0  0  0  2  0  0  0  0  0  0
  182.8790  178.5470  139.7030 C   0  0  1  0  0  0  0  0  0  0  0  0
  180.1990  179.6560  137.2490 N   0  0  0  0  0  0  0  0  0  0  0  0
  180.3770  177.4850  138.1450 O   0  0  0  0  0  0  0  0  0  0  0  0
  181.6720  179.0570  140.5140 C   0  0  1  0  0  3  0  0  0  0  0  0
  181.7610  179.2990  139.0050 C   0  0  1  0  0  0  0  0  0  0  0  0
  180.7260  178.6980  138.1410 C   0  0  0  0  0  0  0  0  0  0  0  0
  180.8290  180.9510  137.4930 C   0  0  0  0  0  3  0  0  0  0  0  0
  1  3  2  0  0  0  0
  1  2  1  0  0  0  0
  2 32  1  0  0  0  0
  4  5  1  0  0  0  0
  5  1  1  0  0  0  0
  6  4  2  0  0  0  0
  7  5  2  0  0  0  0
  8  6  1  0  0  0  0
  8  9  2  0  0  0  0
  9  7  1  0  0  0  0
 10  6  1  0  0  0  0
 11 10  1  0  0  0  0
 11 12  1  1  0  0  0
 13 16  2  0  0  0  0
 14 13  1  0  0  0  0
 14 17  2  0  0  0  0
 16 15  1  0  0  0  0
 16 11  1  0  0  0  0
 17 15  1  0  0  0  0
 18 17  1  0  0  0  0
 18 19  1  0  0  0  0
 21 20  1  1  0  0  0
 21 19  1  0  0  0  0
 22 21  1  6  0  0  0
 23 24  1  0  0  0  0
 23 26  1  0  0  0  0
 24 26  1  0  0  0  0
 24 22  1  0  0  0  0
 24 25  1  1  0  0  0
 26 28  1  6  0  0  0
 26 22  1  0  0  0  0
 27 23  2  0  0  0  0
 28 31  1  0  0  0  0
 31 29  1  1  0  0  0
 31 30  1  0  0  0  0
 32 33  1  0  0  0  0
 34 33  1  0  0  0  0
 36 39  1  1  0  0  0
 36 35  1  0  0  0  0
 37 34  1  6  0  0  0
 37 36  1  0  0  0  0
 37 35  1  0  0  0  0
 39 38  1  1  0  0  0
 41 40  1  0  0  0  0
 41 39  1  0  0  0  0
 42 47  1  0  0  0  0
 43 45  1  0  0  0  0
 44 42  2  0  0  0  0
 45 47  2  0  0  0  0
 46 43  2  0  0  0  0
 46 44  1  0  0  0  0
 47 41  1  0  0  0  0
 48 43  1  0  0  0  0
 49 48  2  0  0  0  0
 53 50  1  6  0  0  0
 53 48  1  0  0  0  0
 53 56  1  0  0  0  0
 54 59  2  0  0  0  0
 54 58  1  0  0  0  0
 56 51  1  6  0  0  0
 57 52  1  6  0  0  0
 57 53  1  0  0  0  0
 57 56  1  0  0  0  0
 58 55  2  0  0  0  0
 58 57  1  0  0  0  0
 59 52  1  0  0  0  0
M  END
>  <MODEL>
9

>  <REMARK>
 VINA RESULT:      -7.8      2.992      6.404
  Name = 
  19 active torsions:
  status: ('A' for Active; 'I' for Inactive)
    1  A    between atoms: C_1  and  C_39
    2  A    between atoms: C_1  and  C_43
    3  A    between atoms: C_3  and  C_57
    4  A    between atoms: N_5  and  C_14
    5  A    between atoms: N_5  and  C_32
    6  A    between atoms: C_12  and  C_13
    7  A    between atoms: C_19  and  C_26
    8  A    between atoms: C_22  and  C_26
    9  A    between atoms: N_23  and  O_51
   10  A    between atoms: C_27  and  C_32
   11  A    between atoms: C_28  and  N_36
   12  A    between atoms: C_28  and  C_44
   13  A    between atoms: N_36  and  C_58
   14  A    between atoms: C_43  and  C_57
   15  A    between atoms: C_46  and  C_49
   16  A    between atoms: C_49  and  C_55
   17  A    between atoms: C_50  and  C_53
   18  A    between atoms: C_50  and  C_56
   19  A    between atoms: O_51  and  C_53
                            x       y       z     vdW  Elec       q    Type
                         _______ _______ _______ _____ _____    ______ ____

>  <TORSDO>
F 19

$$$$
