=
 OpenBabel10222417553D

 33 35  0  0  1  0  0  0  0  0999 V2000
  188.3330  178.2840  141.5560 N   0  0  0  0  0  0  0  0  0  0  0  0
  186.2680  178.8260  140.5080 C   0  0  0  0  0  3  0  0  0  0  0  0
  191.7150  177.5490  144.0240 C   0  0  1  0  0  3  0  0  0  0  0  0
  187.1750  178.2490  139.5160 N   0  0  0  0  0  0  0  0  0  0  0  0
  191.8800  177.1780  142.5450 C   0  0  0  0  0  2  0  0  0  0  0  0
  186.9960  178.7600  141.8720 C   0  0  1  0  0  3  0  0  0  0  0  0
  190.6180  177.4010  141.7700 C   0  0  0  0  0  0  0  0  0  0  0  0
  190.6020  177.1560  140.4890 N   0  0  0  0  0  0  0  0  0  0  0  0
  191.0560  178.9270  144.1950 C   0  0  0  0  0  2  0  0  0  0  0  0
  189.7830  179.1390  143.3510 C   0  0  0  0  0  2  0  0  0  0  0  0
  189.3940  177.9300  142.4980 C   0  0  1  0  0  3  0  0  0  0  0  0
  188.3760  177.9540  140.1930 C   0  0  0  0  0  0  0  0  0  0  0  0
  189.4550  177.3890  139.6550 C   0  0  0  0  0  0  0  0  0  0  0  0
  189.5130  177.0280  138.2050 C   0  0  0  0  0  2  0  0  0  0  0  0
  190.2450  175.7110  137.9880 C   0  0  0  0  0  2  0  0  0  0  0  0
  191.2240  175.8150  136.8300 C   0  0  0  0  0  2  0  0  0  0  0  0
  193.5210  176.7620  138.2390 O   0  0  0  0  0  0  0  0  0  0  0  0
  194.6840  174.6900  138.1620 C   0  0  0  0  0  1  0  0  0  0  0  0
  193.5180  175.5610  137.8580 C   0  0  0  0  0  0  0  0  0  0  0  0
  192.4150  175.0320  137.1210 N   0  0  0  0  0  2  0  0  0  0  0  0
  186.2900  177.7600  142.7760 C   0  0  0  0  0  2  0  0  0  0  0  0
  184.8670  178.0480  142.8230 N   0  0  0  0  0  2  0  0  0  0  0  0
  184.7200  179.2840  143.5690 C   0  0  0  0  0  2  0  0  0  0  0  0
  183.3280  179.3530  144.1600 C   0  0  0  0  0  1  0  0  0  0  0  0
  190.9690  176.5720  144.6900 O   0  0  0  0  0  0  0  0  0  0  0  0
  191.8280  176.0660  145.6700 C   0  0  0  0  0  2  0  0  0  0  0  0
  191.3260  176.4480  147.0510 C   0  0  0  0  0  2  0  0  0  0  0  0
  189.9150  176.7120  146.9990 N   0  0  0  0  0  0  0  0  0  0  0  0
  189.4070  177.6350  147.7300 C   0  0  0  0  0  3  0  0  0  0  0  0
  187.9410  177.9210  147.6890 C   0  0  0  0  0  2  0  0  0  0  0  0
  187.4130  177.8780  146.2640 C   0  0  0  0  0  2  0  0  0  0  0  0
  186.0500  177.5740  146.2670 O   0  0  0  0  0  0  0  0  0  0  0  0
  185.4770  178.5460  147.0840 C   0  0  0  0  0  1  0  0  0  0  0  0
  1  6  1  0  0  0  0
  1 11  1  0  0  0  0
  2  6  1  0  0  0  0
  3  9  1  0  0  0  0
  3 25  1  1  0  0  0
  4 12  1  0  0  0  0
  4  2  2  0  0  0  0
  5  3  1  0  0  0  0
  6 21  1  1  0  0  0
  7 11  1  0  0  0  0
  7  5  1  0  0  0  0
  8  7  2  0  0  0  0
 10  9  1  0  0  0  0
 11 10  1  6  0  0  0
 12  1  1  0  0  0  0
 13 12  2  0  0  0  0
 13  8  1  0  0  0  0
 14 13  1  0  0  0  0
 15 14  1  0  0  0  0
 16 20  1  0  0  0  0
 16 15  1  0  0  0  0
 19 18  1  0  0  0  0
 19 17  2  0  0  0  0
 20 19  1  0  0  0  0
 21 22  1  0  0  0  0
 22 23  1  0  0  0  0
 23 24  1  0  0  0  0
 25 26  1  0  0  0  0
 26 27  1  0  0  0  0
 28 27  1  0  0  0  0
 28 29  2  0  0  0  0
 30 29  1  0  0  0  0
 31 32  1  0  0  0  0
 31 30  1  0  0  0  0
 32 33  1  0  0  0  0
M  END
>  <MODEL>
1

>  <REMARK>
 VINA RESULT:      -6.8      0.000      0.000
  Name = 
  14 active torsions:
  status: ('A' for Active; 'I' for Inactive)
    1  A    between atoms: C_1  and  N_23
    2  A    between atoms: C_4  and  O_27
    3  A    between atoms: C_8  and  C_13
    4  A    between atoms: C_8  and  C_31
    5  A    between atoms: C_10  and  C_14
    6  A    between atoms: C_10  and  C_33
    7  A    between atoms: C_12  and  C_15
    8  A    between atoms: C_12  and  N_23
    9  A    between atoms: C_13  and  O_20
   10  A    between atoms: C_14  and  C_17
   11  A    between atoms: N_16  and  C_17
   12  A    between atoms: C_21  and  C_26
   13  A    between atoms: C_21  and  N_30
   14  A    between atoms: C_26  and  O_27
                            x       y       z     vdW  Elec       q    Type
                         _______ _______ _______ _____ _____    ______ ____

>  <TORSDO>
F 14

$$$$
=
 OpenBabel10222417553D

 33 35  0  0  1  0  0  0  0  0999 V2000
  188.2660  178.3450  141.5100 N   0  0  0  0  0  0  0  0  0  0  0  0
  186.1740  178.9380  140.5460 C   0  0  0  0  0  3  0  0  0  0  0  0
  191.7160  177.4970  143.8440 C   0  0  1  0  0  3  0  0  0  0  0  0
  187.0470  178.3960  139.5050 N   0  0  0  0  0  0  0  0  0  0  0  0
  191.8350  177.1840  142.3470 C   0  0  0  0  0  2  0  0  0  0  0  0
  186.9420  178.8140  141.8840 C   0  0  1  0  0  3  0  0  0  0  0  0
  190.5510  177.4440  141.6200 C   0  0  0  0  0  0  0  0  0  0  0  0
  190.4960  177.2490  140.3310 N   0  0  0  0  0  0  0  0  0  0  0  0
  191.0700  178.8700  144.0880 C   0  0  0  0  0  2  0  0  0  0  0  0
  189.7740  179.1220  143.2920 C   0  0  0  0  0  2  0  0  0  0  0  0
  189.3530  177.9490  142.4040 C   0  0  1  0  0  3  0  0  0  0  0  0
  188.2660  178.0690  140.1340 C   0  0  0  0  0  0  0  0  0  0  0  0
  189.3260  177.5210  139.5410 C   0  0  0  0  0  0  0  0  0  0  0  0
  189.3380  177.2170  138.0770 C   0  0  0  0  0  2  0  0  0  0  0  0
  189.2750  175.7180  137.8200 C   0  0  0  0  0  2  0  0  0  0  0  0
  188.3380  175.4010  136.6660 C   0  0  0  0  0  2  0  0  0  0  0  0
  186.3140  177.3150  136.0370 O   0  0  0  0  0  0  0  0  0  0  0  0
  184.5950  176.2110  137.2520 C   0  0  0  0  0  1  0  0  0  0  0  0
  185.9940  176.3380  136.7650 C   0  0  0  0  0  0  0  0  0  0  0  0
  186.9650  175.3620  137.1440 N   0  0  0  0  0  2  0  0  0  0  0  0
  186.2570  177.7830  142.7680 C   0  0  0  0  0  2  0  0  0  0  0  0
  184.8150  177.8840  142.6280 N   0  0  0  0  0  2  0  0  0  0  0  0
  184.3570  178.7690  143.6830 C   0  0  0  0  0  2  0  0  0  0  0  0
  182.8650  178.9820  143.5500 C   0  0  0  0  0  1  0  0  0  0  0  0
  190.9840  176.4980  144.4930 O   0  0  0  0  0  0  0  0  0  0  0  0
  191.8300  176.0280  145.5020 C   0  0  0  0  0  2  0  0  0  0  0  0
  191.4070  176.5980  146.8450 C   0  0  0  0  0  2  0  0  0  0  0  0
  189.9820  176.7730  146.8700 N   0  0  0  0  0  0  0  0  0  0  0  0
  189.4500  177.5800  147.7130 C   0  0  0  0  0  3  0  0  0  0  0  0
  187.9690  177.7720  147.7540 C   0  0  0  0  0  2  0  0  0  0  0  0
  187.3510  177.5810  146.3780 C   0  0  0  0  0  2  0  0  0  0  0  0
  185.9670  177.7520  146.4460 O   0  0  0  0  0  0  0  0  0  0  0  0
  185.7970  178.9770  147.0870 C   0  0  0  0  0  1  0  0  0  0  0  0
  1  6  1  0  0  0  0
  1 11  1  0  0  0  0
  2  6  1  0  0  0  0
  3  9  1  0  0  0  0
  3 25  1  1  0  0  0
  4 12  1  0  0  0  0
  4  2  2  0  0  0  0
  5  3  1  0  0  0  0
  6 21  1  1  0  0  0
  7  5  1  0  0  0  0
  7 11  1  0  0  0  0
  8  7  2  0  0  0  0
 10  9  1  0  0  0  0
 11 10  1  6  0  0  0
 12  1  1  0  0  0  0
 13 12  2  0  0  0  0
 13  8  1  0  0  0  0
 14 13  1  0  0  0  0
 15 14  1  0  0  0  0
 16 20  1  0  0  0  0
 16 15  1  0  0  0  0
 17 19  2  0  0  0  0
 19 20  1  0  0  0  0
 19 18  1  0  0  0  0
 22 21  1  0  0  0  0
 22 23  1  0  0  0  0
 24 23  1  0  0  0  0
 25 26  1  0  0  0  0
 26 27  1  0  0  0  0
 27 28  1  0  0  0  0
 28 29  2  0  0  0  0
 29 30  1  0  0  0  0
 31 32  1  0  0  0  0
 31 30  1  0  0  0  0
 32 33  1  0  0  0  0
M  END
>  <MODEL>
2

>  <REMARK>
 VINA RESULT:      -6.4      1.915      2.818
  Name = 
  14 active torsions:
  status: ('A' for Active; 'I' for Inactive)
    1  A    between atoms: C_1  and  N_23
    2  A    between atoms: C_4  and  O_27
    3  A    between atoms: C_8  and  C_13
    4  A    between atoms: C_8  and  C_31
    5  A    between atoms: C_10  and  C_14
    6  A    between atoms: C_10  and  C_33
    7  A    between atoms: C_12  and  C_15
    8  A    between atoms: C_12  and  N_23
    9  A    between atoms: C_13  and  O_20
   10  A    between atoms: C_14  and  C_17
   11  A    between atoms: N_16  and  C_17
   12  A    between atoms: C_21  and  C_26
   13  A    between atoms: C_21  and  N_30
   14  A    between atoms: C_26  and  O_27
                            x       y       z     vdW  Elec       q    Type
                         _______ _______ _______ _____ _____    ______ ____

>  <TORSDO>
F 14

$$$$
=
 OpenBabel10222417553D

 33 35  0  0  1  0  0  0  0  0999 V2000
  188.2130  178.3910  141.5460 N   0  0  0  0  0  0  0  0  0  0  0  0
  186.1260  178.9770  140.5700 C   0  0  0  0  0  3  0  0  0  0  0  0
  191.6540  177.5580  143.9000 C   0  0  1  0  0  3  0  0  0  0  0  0
  187.0050  178.4330  139.5350 N   0  0  0  0  0  0  0  0  0  0  0  0
  191.7810  177.2400  142.4050 C   0  0  0  0  0  2  0  0  0  0  0  0
  186.8870  178.8590  141.9120 C   0  0  1  0  0  3  0  0  0  0  0  0
  190.5000  177.4950  141.6710 C   0  0  0  0  0  0  0  0  0  0  0  0
  190.4520  177.2960  140.3820 N   0  0  0  0  0  0  0  0  0  0  0  0
  191.0040  178.9300  144.1370 C   0  0  0  0  0  2  0  0  0  0  0  0
  189.7110  179.1770  143.3330 C   0  0  0  0  0  2  0  0  0  0  0  0
  189.2970  178.0000  142.4470 C   0  0  1  0  0  3  0  0  0  0  0  0
  188.2210  178.1100  140.1710 C   0  0  0  0  0  0  0  0  0  0  0  0
  189.2850  177.5630  139.5860 C   0  0  0  0  0  0  0  0  0  0  0  0
  189.3050  177.2540  138.1230 C   0  0  0  0  0  2  0  0  0  0  0  0
  190.7070  176.8940  137.6500 C   0  0  0  0  0  2  0  0  0  0  0  0
  190.6620  176.1510  136.3250 C   0  0  0  0  0  2  0  0  0  0  0  0
  190.8620  173.4130  137.1130 O   0  0  0  0  0  0  0  0  0  0  0  0
  188.5550  172.9350  136.8010 C   0  0  0  0  0  1  0  0  0  0  0  0
  189.7290  173.8450  136.7700 C   0  0  0  0  0  0  0  0  0  0  0  0
  189.5650  175.1960  136.3350 N   0  0  0  0  0  2  0  0  0  0  0  0
  186.2000  177.8290  142.7960 C   0  0  0  0  0  2  0  0  0  0  0  0
  184.7680  178.0710  142.8250 N   0  0  0  0  0  2  0  0  0  0  0  0
  184.5560  179.2010  143.7100 C   0  0  0  0  0  2  0  0  0  0  0  0
  183.2330  179.0390  144.4270 C   0  0  0  0  0  1  0  0  0  0  0  0
  190.9200  176.5590  144.5490 O   0  0  0  0  0  0  0  0  0  0  0  0
  191.7920  176.0370  145.5090 C   0  0  0  0  0  2  0  0  0  0  0  0
  191.5340  176.6890  146.8570 C   0  0  0  0  0  2  0  0  0  0  0  0
  190.1500  176.5410  147.2100 N   0  0  0  0  0  0  0  0  0  0  0  0
  189.3820  177.5670  147.2390 C   0  0  0  0  0  3  0  0  0  0  0  0
  187.9400  177.4320  147.6070 C   0  0  0  0  0  2  0  0  0  0  0  0
  187.0550  177.4510  146.3700 C   0  0  0  0  0  2  0  0  0  0  0  0
  185.7550  177.8260  146.7180 O   0  0  0  0  0  0  0  0  0  0  0  0
  185.8710  179.1570  147.1170 C   0  0  0  0  0  1  0  0  0  0  0  0
  1  6  1  0  0  0  0
  1 11  1  0  0  0  0
  2  6  1  0  0  0  0
  3  9  1  0  0  0  0
  3 25  1  1  0  0  0
  4 12  1  0  0  0  0
  4  2  2  0  0  0  0
  5  3  1  0  0  0  0
  6 21  1  1  0  0  0
  7  5  1  0  0  0  0
  7 11  1  0  0  0  0
  8  7  2  0  0  0  0
 10  9  1  0  0  0  0
 11 10  1  6  0  0  0
 12  1  1  0  0  0  0
 13 12  2  0  0  0  0
 13  8  1  0  0  0  0
 14 13  1  0  0  0  0
 15 14  1  0  0  0  0
 16 20  1  0  0  0  0
 16 15  1  0  0  0  0
 19 18  1  0  0  0  0
 19 17  2  0  0  0  0
 20 19  1  0  0  0  0
 21 22  1  0  0  0  0
 22 23  1  0  0  0  0
 23 24  1  0  0  0  0
 25 26  1  0  0  0  0
 26 27  1  0  0  0  0
 27 28  1  0  0  0  0
 28 29  2  0  0  0  0
 29 30  1  0  0  0  0
 31 32  1  0  0  0  0
 31 30  1  0  0  0  0
 32 33  1  0  0  0  0
M  END
>  <MODEL>
3

>  <REMARK>
 VINA RESULT:      -6.3      1.395      1.692
  Name = 
  14 active torsions:
  status: ('A' for Active; 'I' for Inactive)
    1  A    between atoms: C_1  and  N_23
    2  A    between atoms: C_4  and  O_27
    3  A    between atoms: C_8  and  C_13
    4  A    between atoms: C_8  and  C_31
    5  A    between atoms: C_10  and  C_14
    6  A    between atoms: C_10  and  C_33
    7  A    between atoms: C_12  and  C_15
    8  A    between atoms: C_12  and  N_23
    9  A    between atoms: C_13  and  O_20
   10  A    between atoms: C_14  and  C_17
   11  A    between atoms: N_16  and  C_17
   12  A    between atoms: C_21  and  C_26
   13  A    between atoms: C_21  and  N_30
   14  A    between atoms: C_26  and  O_27
                            x       y       z     vdW  Elec       q    Type
                         _______ _______ _______ _____ _____    ______ ____

>  <TORSDO>
F 14

$$$$
=
 OpenBabel10222417553D

 33 35  0  0  1  0  0  0  0  0999 V2000
  189.0800  177.0260  137.8270 N   0  0  0  0  0  0  0  0  0  0  0  0
  188.5260  176.7900  135.5270 C   0  0  0  0  0  3  0  0  0  0  0  0
  189.3800  177.5780  142.0320 C   0  0  1  0  0  3  0  0  0  0  0  0
  189.9550  176.5320  135.7070 N   0  0  0  0  0  0  0  0  0  0  0  0
  190.6920  177.2430  141.3120 C   0  0  0  0  0  2  0  0  0  0  0  0
  187.9310  177.0200  136.9370 C   0  0  1  0  0  3  0  0  0  0  0  0
  190.4780  176.9930  139.8500 C   0  0  0  0  0  0  0  0  0  0  0  0
  191.5030  176.7190  139.0920 N   0  0  0  0  0  0  0  0  0  0  0  0
  188.5750  178.6480  141.2770 C   0  0  0  0  0  2  0  0  0  0  0  0
  188.4090  178.3830  139.7670 C   0  0  0  0  0  2  0  0  0  0  0  0
  189.0700  177.0880  139.2890 C   0  0  1  0  0  3  0  0  0  0  0  0
  190.2210  176.6900  137.0820 C   0  0  0  0  0  0  0  0  0  0  0  0
  191.4030  176.5170  137.6720 C   0  0  0  0  0  0  0  0  0  0  0  0
  192.6250  176.1550  136.8910 C   0  0  0  0  0  2  0  0  0  0  0  0
  193.1520  174.7820  137.2870 C   0  0  0  0  0  2  0  0  0  0  0  0
  194.6250  174.6430  136.9410 C   0  0  0  0  0  2  0  0  0  0  0  0
  195.6920  173.0840  139.0840 O   0  0  0  0  0  0  0  0  0  0  0  0
  196.8280  174.8980  140.1170 C   0  0  0  0  0  1  0  0  0  0  0  0
  195.9640  174.3140  139.0580 C   0  0  0  0  0  0  0  0  0  0  0  0
  195.4370  175.1570  138.0320 N   0  0  0  0  0  2  0  0  0  0  0  0
  187.0060  175.8660  137.2910 C   0  0  0  0  0  2  0  0  0  0  0  0
  185.6200  176.2930  137.2100 N   0  0  0  0  0  2  0  0  0  0  0  0
  184.8410  175.1110  136.8910 C   0  0  0  0  0  2  0  0  0  0  0  0
  185.2610  174.5810  135.5360 C   0  0  0  0  0  1  0  0  0  0  0  0
  188.6090  176.4240  142.1990 O   0  0  0  0  0  0  0  0  0  0  0  0
  187.8290  176.6720  143.3340 C   0  0  0  0  0  2  0  0  0  0  0  0
  188.7230  176.9050  144.5390 C   0  0  0  0  0  2  0  0  0  0  0  0
  187.9790  177.5650  145.5750 N   0  0  0  0  0  0  0  0  0  0  0  0
  186.6990  177.6030  145.5190 C   0  0  0  0  0  3  0  0  0  0  0  0
  185.9080  178.2870  146.5870 C   0  0  0  0  0  2  0  0  0  0  0  0
  184.5440  178.7170  146.0700 C   0  0  0  0  0  2  0  0  0  0  0  0
  184.5430  178.7300  144.6740 O   0  0  0  0  0  0  0  0  0  0  0  0
  183.2010  178.8760  144.3270 C   0  0  0  0  0  1  0  0  0  0  0  0
  1 11  1  0  0  0  0
  2  4  2  0  0  0  0
  2  6  1  0  0  0  0
  3 25  1  6  0  0  0
  4 12  1  0  0  0  0
  5  3  1  0  0  0  0
  6 21  1  1  0  0  0
  6  1  1  0  0  0  0
  7  5  1  0  0  0  0
  8  7  2  0  0  0  0
  9  3  1  0  0  0  0
 10  9  1  0  0  0  0
 11 10  1  6  0  0  0
 11  7  1  0  0  0  0
 12 13  2  0  0  0  0
 12  1  1  0  0  0  0
 13  8  1  0  0  0  0
 14 15  1  0  0  0  0
 14 13  1  0  0  0  0
 16 15  1  0  0  0  0
 16 20  1  0  0  0  0
 19 17  2  0  0  0  0
 19 18  1  0  0  0  0
 20 19  1  0  0  0  0
 22 21  1  0  0  0  0
 23 22  1  0  0  0  0
 24 23  1  0  0  0  0
 25 26  1  0  0  0  0
 26 27  1  0  0  0  0
 27 28  1  0  0  0  0
 29 28  2  0  0  0  0
 29 30  1  0  0  0  0
 31 30  1  0  0  0  0
 32 31  1  0  0  0  0
 33 32  1  0  0  0  0
M  END
>  <MODEL>
4

>  <REMARK>
 VINA RESULT:      -5.9      2.472      4.263
  Name = 
  14 active torsions:
  status: ('A' for Active; 'I' for Inactive)
    1  A    between atoms: C_1  and  N_23
    2  A    between atoms: C_4  and  O_27
    3  A    between atoms: C_8  and  C_13
    4  A    between atoms: C_8  and  C_31
    5  A    between atoms: C_10  and  C_14
    6  A    between atoms: C_10  and  C_33
    7  A    between atoms: C_12  and  C_15
    8  A    between atoms: C_12  and  N_23
    9  A    between atoms: C_13  and  O_20
   10  A    between atoms: C_14  and  C_17
   11  A    between atoms: N_16  and  C_17
   12  A    between atoms: C_21  and  C_26
   13  A    between atoms: C_21  and  N_30
   14  A    between atoms: C_26  and  O_27
                            x       y       z     vdW  Elec       q    Type
                         _______ _______ _______ _____ _____    ______ ____

>  <TORSDO>
F 14

$$$$
=
 OpenBabel10222417553D

 33 35  0  0  1  0  0  0  0  0999 V2000
  189.1820  177.8160  141.6960 N   0  0  0  0  0  0  0  0  0  0  0  0
  191.5050  177.3330  141.5520 C   0  0  0  0  0  3  0  0  0  0  0  0
  185.1060  178.5620  142.6480 C   0  0  1  0  0  3  0  0  0  0  0  0
  191.0030  177.6780  140.2220 N   0  0  0  0  0  0  0  0  0  0  0  0
  185.4780  178.7060  141.1680 C   0  0  0  0  0  2  0  0  0  0  0  0
  190.3280  177.5180  142.5390 C   0  0  1  0  0  3  0  0  0  0  0  0
  186.9440  178.4990  140.9380 C   0  0  0  0  0  0  0  0  0  0  0  0
  187.4170  178.5640  139.7240 N   0  0  0  0  0  0  0  0  0  0  0  0
  185.7100  177.2900  143.2650 C   0  0  0  0  0  2  0  0  0  0  0  0
  187.2110  177.0850  142.9740 C   0  0  0  0  0  2  0  0  0  0  0  0
  187.8370  178.1950  142.1280 C   0  0  1  0  0  3  0  0  0  0  0  0
  189.6270  177.9480  140.3720 C   0  0  0  0  0  0  0  0  0  0  0  0
  188.7970  178.3270  139.4010 C   0  0  0  0  0  0  0  0  0  0  0  0
  189.2590  178.4760  137.9860 C   0  0  0  0  0  2  0  0  0  0  0  0
  188.0820  178.5920  137.0270 C   0  0  0  0  0  2  0  0  0  0  0  0
  187.7950  177.2600  136.3530 C   0  0  0  0  0  2  0  0  0  0  0  0
  185.2880  176.6500  137.5760 O   0  0  0  0  0  0  0  0  0  0  0  0
  183.9870  177.1440  135.6490 C   0  0  0  0  0  1  0  0  0  0  0  0
  185.2800  177.0230  136.3730 C   0  0  0  0  0  0  0  0  0  0  0  0
  186.5010  177.3130  135.6910 N   0  0  0  0  0  2  0  0  0  0  0  0
  190.6170  178.6970  143.4570 C   0  0  0  0  0  2  0  0  0  0  0  0
  190.1920  178.3910  144.8120 N   0  0  0  0  0  2  0  0  0  0  0  0
  190.4380  176.9750  145.0130 C   0  0  0  0  0  2  0  0  0  0  0  0
  191.6130  176.7960  145.9500 C   0  0  0  0  0  1  0  0  0  0  0  0
  185.5200  179.6890  143.3660 O   0  0  0  0  0  0  0  0  0  0  0  0
  184.3940  180.0890  144.0910 C   0  0  0  0  0  2  0  0  0  0  0  0
  184.1800  179.1620  145.2750 C   0  0  0  0  0  2  0  0  0  0  0  0
  185.2960  179.2590  146.1750 N   0  0  0  0  0  0  0  0  0  0  0  0
  185.9050  178.1980  146.5580 C   0  0  0  0  0  3  0  0  0  0  0  0
  187.0660  178.2810  147.4950 C   0  0  0  0  0  2  0  0  0  0  0  0
  187.8760  176.9930  147.4800 C   0  0  0  0  0  2  0  0  0  0  0  0
  189.0380  177.1500  148.2370 O   0  0  0  0  0  0  0  0  0  0  0  0
  189.0770  178.5100  148.5420 C   0  0  0  0  0  1  0  0  0  0  0  0
  1 11  1  0  0  0  0
  1  6  1  0  0  0  0
  2  6  1  0  0  0  0
  3  9  1  0  0  0  0
  3 25  1  1  0  0  0
  4 12  1  0  0  0  0
  4  2  2  0  0  0  0
  5  3  1  0  0  0  0
  6 21  1  1  0  0  0
  7  5  1  0  0  0  0
  7 11  1  0  0  0  0
  8  7  2  0  0  0  0
 10  9  1  0  0  0  0
 11 10  1  6  0  0  0
 12  1  1  0  0  0  0
 13  8  1  0  0  0  0
 13 12  2  0  0  0  0
 14 13  1  0  0  0  0
 15 14  1  0  0  0  0
 16 15  1  0  0  0  0
 18 19  1  0  0  0  0
 19 17  2  0  0  0  0
 20 16  1  0  0  0  0
 20 19  1  0  0  0  0
 21 22  1  0  0  0  0
 22 23  1  0  0  0  0
 23 24  1  0  0  0  0
 25 26  1  0  0  0  0
 26 27  1  0  0  0  0
 27 28  1  0  0  0  0
 28 29  2  0  0  0  0
 29 30  1  0  0  0  0
 31 30  1  0  0  0  0
 31 32  1  0  0  0  0
 32 33  1  0  0  0  0
M  END
>  <MODEL>
5

>  <REMARK>
 VINA RESULT:      -5.8      2.654      5.477
  Name = 
  14 active torsions:
  status: ('A' for Active; 'I' for Inactive)
    1  A    between atoms: C_1  and  N_23
    2  A    between atoms: C_4  and  O_27
    3  A    between atoms: C_8  and  C_13
    4  A    between atoms: C_8  and  C_31
    5  A    between atoms: C_10  and  C_14
    6  A    between atoms: C_10  and  C_33
    7  A    between atoms: C_12  and  C_15
    8  A    between atoms: C_12  and  N_23
    9  A    between atoms: C_13  and  O_20
   10  A    between atoms: C_14  and  C_17
   11  A    between atoms: N_16  and  C_17
   12  A    between atoms: C_21  and  C_26
   13  A    between atoms: C_21  and  N_30
   14  A    between atoms: C_26  and  O_27
                            x       y       z     vdW  Elec       q    Type
                         _______ _______ _______ _____ _____    ______ ____

>  <TORSDO>
F 14

$$$$
=
 OpenBabel10222417553D

 33 35  0  0  1  0  0  0  0  0999 V2000
  188.7560  177.2720  137.7240 N   0  0  0  0  0  0  0  0  0  0  0  0
  188.0570  177.3820  135.4540 C   0  0  0  0  0  3  0  0  0  0  0  0
  189.3790  177.3690  141.9280 C   0  0  1  0  0  3  0  0  0  0  0  0
  189.3750  176.7520  135.5210 N   0  0  0  0  0  0  0  0  0  0  0  0
  190.5250  176.7720  141.1020 C   0  0  0  0  0  2  0  0  0  0  0  0
  187.6060  177.6360  136.9130 C   0  0  1  0  0  3  0  0  0  0  0  0
  190.1870  176.7100  139.6440 C   0  0  0  0  0  0  0  0  0  0  0  0
  191.0700  176.2490  138.8020 N   0  0  0  0  0  0  0  0  0  0  0  0
  188.8470  178.6700  141.3060 C   0  0  0  0  0  2  0  0  0  0  0  0
  188.5500  178.5850  139.7950 C   0  0  0  0  0  2  0  0  0  0  0  0
  188.8290  177.2100  139.1840 C   0  0  1  0  0  3  0  0  0  0  0  0
  189.7360  176.7190  136.8840 C   0  0  0  0  0  0  0  0  0  0  0  0
  190.8570  176.2000  137.3810 C   0  0  0  0  0  0  0  0  0  0  0  0
  191.9060  175.6050  136.4980 C   0  0  0  0  0  2  0  0  0  0  0  0
  193.3060  175.9660  136.9770 C   0  0  0  0  0  2  0  0  0  0  0  0
  193.9870  174.7700  137.6210 C   0  0  0  0  0  2  0  0  0  0  0  0
  195.8400  173.0980  139.0100 O   0  0  0  0  0  0  0  0  0  0  0  0
  196.9010  174.8800  140.1720 C   0  0  0  0  0  1  0  0  0  0  0  0
  195.8890  174.3380  139.2280 C   0  0  0  0  0  0  0  0  0  0  0  0
  194.9700  175.2280  138.5910 N   0  0  0  0  0  2  0  0  0  0  0  0
  186.4300  176.7310  137.2450 C   0  0  0  0  0  2  0  0  0  0  0  0
  185.2350  177.5260  137.4680 N   0  0  0  0  0  2  0  0  0  0  0  0
  184.1060  176.6830  137.1200 C   0  0  0  0  0  2  0  0  0  0  0  0
  182.8180  177.3920  137.4810 C   0  0  0  0  0  1  0  0  0  0  0  0
  188.3420  176.4410  142.0640 O   0  0  0  0  0  0  0  0  0  0  0  0
  188.2330  176.2210  143.4410 C   0  0  0  0  0  2  0  0  0  0  0  0
  187.3420  177.2790  144.0690 C   0  0  0  0  0  2  0  0  0  0  0  0
  187.7890  177.5590  145.4050 N   0  0  0  0  0  0  0  0  0  0  0  0
  189.0240  177.4090  145.7120 C   0  0  0  0  0  3  0  0  0  0  0  0
  189.5060  177.6940  147.0970 C   0  0  0  0  0  2  0  0  0  0  0  0
  190.4550  176.6100  147.5820 C   0  0  0  0  0  2  0  0  0  0  0  0
  191.4270  176.3550  146.6120 O   0  0  0  0  0  0  0  0  0  0  0  0
  192.4270  175.6630  147.2930 C   0  0  0  0  0  1  0  0  0  0  0  0
  1 11  1  0  0  0  0
  2  4  2  0  0  0  0
  2  6  1  0  0  0  0
  3 25  1  6  0  0  0
  4 12  1  0  0  0  0
  5  3  1  0  0  0  0
  6 21  1  1  0  0  0
  6  1  1  0  0  0  0
  7  5  1  0  0  0  0
  8  7  2  0  0  0  0
  9  3  1  0  0  0  0
 10  9  1  0  0  0  0
 11  7  1  0  0  0  0
 11 10  1  1  0  0  0
 12 13  2  0  0  0  0
 12  1  1  0  0  0  0
 13  8  1  0  0  0  0
 14 15  1  0  0  0  0
 14 13  1  0  0  0  0
 15 16  1  0  0  0  0
 16 20  1  0  0  0  0
 17 19  2  0  0  0  0
 19 18  1  0  0  0  0
 20 19  1  0  0  0  0
 21 22  1  0  0  0  0
 23 22  1  0  0  0  0
 23 24  1  0  0  0  0
 25 26  1  0  0  0  0
 26 27  1  0  0  0  0
 27 28  1  0  0  0  0
 28 29  2  0  0  0  0
 29 30  1  0  0  0  0
 30 31  1  0  0  0  0
 32 33  1  0  0  0  0
 32 31  1  0  0  0  0
M  END
>  <MODEL>
6

>  <REMARK>
 VINA RESULT:      -5.6      2.507      4.222
  Name = 
  14 active torsions:
  status: ('A' for Active; 'I' for Inactive)
    1  A    between atoms: C_1  and  N_23
    2  A    between atoms: C_4  and  O_27
    3  A    between atoms: C_8  and  C_13
    4  A    between atoms: C_8  and  C_31
    5  A    between atoms: C_10  and  C_14
    6  A    between atoms: C_10  and  C_33
    7  A    between atoms: C_12  and  C_15
    8  A    between atoms: C_12  and  N_23
    9  A    between atoms: C_13  and  O_20
   10  A    between atoms: C_14  and  C_17
   11  A    between atoms: N_16  and  C_17
   12  A    between atoms: C_21  and  C_26
   13  A    between atoms: C_21  and  N_30
   14  A    between atoms: C_26  and  O_27
                            x       y       z     vdW  Elec       q    Type
                         _______ _______ _______ _____ _____    ______ ____

>  <TORSDO>
F 14

$$$$
=
 OpenBabel10222417553D

 33 35  0  0  1  0  0  0  0  0999 V2000
  188.4180  177.9850  140.1720 N   0  0  0  0  0  0  0  0  0  0  0  0
  188.9030  178.4850  142.4460 C   0  0  0  0  0  3  0  0  0  0  0  0
  188.2230  176.8680  136.0750 C   0  0  1  0  0  3  0  0  0  0  0  0
  187.5030  178.8100  142.1700 N   0  0  0  0  0  0  0  0  0  0  0  0
  186.9310  177.4430  136.6680 C   0  0  0  0  0  2  0  0  0  0  0  0
  189.4790  177.8520  141.1570 C   0  0  1  0  0  3  0  0  0  0  0  0
  187.0710  177.7380  138.1300 C   0  0  0  0  0  0  0  0  0  0  0  0
  186.0640  178.2560  138.7770 N   0  0  0  0  0  0  0  0  0  0  0  0
  189.4530  177.6970  136.4800 C   0  0  0  0  0  2  0  0  0  0  0  0
  189.5440  178.0200  137.9850 C   0  0  0  0  0  2  0  0  0  0  0  0
  188.3950  177.4440  138.8140 C   0  0  1  0  0  3  0  0  0  0  0  0
  187.2790  178.4970  140.8130 C   0  0  0  0  0  0  0  0  0  0  0  0
  186.1220  178.6210  140.1660 C   0  0  0  0  0  0  0  0  0  0  0  0
  184.9000  179.1610  140.8380 C   0  0  0  0  0  2  0  0  0  0  0  0
  184.2120  178.0960  141.6800 C   0  0  0  0  0  2  0  0  0  0  0  0
  183.8550  178.6350  143.0560 C   0  0  0  0  0  2  0  0  0  0  0  0
  183.7350  179.0130  145.8840 O   0  0  0  0  0  0  0  0  0  0  0  0
  185.9270  178.1940  146.2990 C   0  0  0  0  0  1  0  0  0  0  0  0
  184.7980  178.5430  145.3980 C   0  0  0  0  0  0  0  0  0  0  0  0
  184.9360  178.3580  143.9880 N   0  0  0  0  0  2  0  0  0  0  0  0
  189.7750  176.3800  141.4040 C   0  0  0  0  0  2  0  0  0  0  0  0
  189.7950  176.1070  142.8310 N   0  0  0  0  0  2  0  0  0  0  0  0
  191.1920  176.0080  143.2130 C   0  0  0  0  0  2  0  0  0  0  0  0
  191.3600  176.4900  144.6380 C   0  0  0  0  0  1  0  0  0  0  0  0
  188.3900  175.5370  136.4710 O   0  0  0  0  0  0  0  0  0  0  0  0
  189.3790  175.0290  135.6230 C   0  0  0  0  0  2  0  0  0  0  0  0
  189.7090  173.5970  136.0060 C   0  0  0  0  0  2  0  0  0  0  0  0
  191.1340  173.4340  136.0930 N   0  0  0  0  0  0  0  0  0  0  0  0
  191.8230  174.2080  136.8480 C   0  0  0  0  0  3  0  0  0  0  0  0
  193.3050  174.0540  136.9480 C   0  0  0  0  0  2  0  0  0  0  0  0
  193.8890  175.0160  137.9710 C   0  0  0  0  0  2  0  0  0  0  0  0
  195.2830  175.0220  137.8830 O   0  0  0  0  0  0  0  0  0  0  0  0
  195.7120  174.4860  139.0960 C   0  0  0  0  0  1  0  0  0  0  0  0
  1 12  1  0  0  0  0
  1  6  1  0  0  0  0
  3 25  1  1  0  0  0
  3  9  1  0  0  0  0
  3  5  1  0  0  0  0
  4  2  2  0  0  0  0
  5  7  1  0  0  0  0
  6 21  1  1  0  0  0
  6  2  1  0  0  0  0
  7  8  2  0  0  0  0
  7 11  1  0  0  0  0
  8 13  1  0  0  0  0
  9 10  1  0  0  0  0
 11 10  1  6  0  0  0
 11  1  1  0  0  0  0
 12  4  1  0  0  0  0
 13 12  2  0  0  0  0
 13 14  1  0  0  0  0
 14 15  1  0  0  0  0
 15 16  1  0  0  0  0
 16 20  1  0  0  0  0
 19 17  2  0  0  0  0
 19 18  1  0  0  0  0
 20 19  1  0  0  0  0
 21 22  1  0  0  0  0
 22 23  1  0  0  0  0
 23 24  1  0  0  0  0
 26 27  1  0  0  0  0
 26 25  1  0  0  0  0
 27 28  1  0  0  0  0
 28 29  2  0  0  0  0
 29 30  1  0  0  0  0
 30 31  1  0  0  0  0
 32 31  1  0  0  0  0
 32 33  1  0  0  0  0
M  END
>  <MODEL>
7

>  <REMARK>
 VINA RESULT:      -5.4      2.318      8.659
  Name = 
  14 active torsions:
  status: ('A' for Active; 'I' for Inactive)
    1  A    between atoms: C_1  and  N_23
    2  A    between atoms: C_4  and  O_27
    3  A    between atoms: C_8  and  C_13
    4  A    between atoms: C_8  and  C_31
    5  A    between atoms: C_10  and  C_14
    6  A    between atoms: C_10  and  C_33
    7  A    between atoms: C_12  and  C_15
    8  A    between atoms: C_12  and  N_23
    9  A    between atoms: C_13  and  O_20
   10  A    between atoms: C_14  and  C_17
   11  A    between atoms: N_16  and  C_17
   12  A    between atoms: C_21  and  C_26
   13  A    between atoms: C_21  and  N_30
   14  A    between atoms: C_26  and  O_27
                            x       y       z     vdW  Elec       q    Type
                         _______ _______ _______ _____ _____    ______ ____

>  <TORSDO>
F 14

$$$$
=
 OpenBabel10222417553D

 33 35  0  0  1  0  0  0  0  0999 V2000
  190.3290  176.8000  138.9200 N   0  0  0  0  0  0  0  0  0  0  0  0
  191.0660  176.0190  136.7990 C   0  0  0  0  0  3  0  0  0  0  0  0
  189.5610  177.8310  142.9720 C   0  0  1  0  0  3  0  0  0  0  0  0
  189.9010  176.8850  136.6150 N   0  0  0  0  0  0  0  0  0  0  0  0
  188.5890  178.4190  141.9430 C   0  0  0  0  0  2  0  0  0  0  0  0
  191.4070  176.0410  138.3080 C   0  0  1  0  0  3  0  0  0  0  0  0
  188.9790  178.0650  140.5410 C   0  0  0  0  0  0  0  0  0  0  0  0
  188.2370  178.4710  139.5480 N   0  0  0  0  0  0  0  0  0  0  0  0
  189.8380  176.3420  142.7070 C   0  0  0  0  0  2  0  0  0  0  0  0
  190.1960  176.0060  141.2450 C   0  0  0  0  0  2  0  0  0  0  0  0
  190.2220  177.2210  140.3170 C   0  0  1  0  0  3  0  0  0  0  0  0
  189.5100  177.3110  137.9010 C   0  0  0  0  0  0  0  0  0  0  0  0
  188.5020  178.1370  138.1760 C   0  0  0  0  0  0  0  0  0  0  0  0
  187.6250  178.6920  137.0990 C   0  0  0  0  0  2  0  0  0  0  0  0
  186.5480  177.6960  136.6920 C   0  0  0  0  0  2  0  0  0  0  0  0
  185.1700  178.1830  137.1080 C   0  0  0  0  0  2  0  0  0  0  0  0
  184.5570  180.1240  139.1110 O   0  0  0  0  0  0  0  0  0  0  0  0
  184.3630  178.5480  140.8790 C   0  0  0  0  0  1  0  0  0  0  0  0
  184.6200  178.9160  139.4620 C   0  0  0  0  0  0  0  0  0  0  0  0
  184.9530  177.8980  138.5180 N   0  0  0  0  0  2  0  0  0  0  0  0
  192.7310  176.7590  138.5180 C   0  0  0  0  0  2  0  0  0  0  0  0
  193.7260  176.2560  137.5870 N   0  0  0  0  0  2  0  0  0  0  0  0
  193.9260  174.8560  137.9120 C   0  0  0  0  0  2  0  0  0  0  0  0
  195.2220  174.6950  138.6770 C   0  0  0  0  0  1  0  0  0  0  0  0
  190.7600  178.5500  142.9760 O   0  0  0  0  0  0  0  0  0  0  0  0
  191.0460  178.7690  144.3270 C   0  0  0  0  0  2  0  0  0  0  0  0
  191.6510  177.5180  144.9410 C   0  0  0  0  0  2  0  0  0  0  0  0
  191.0500  177.2670  146.2220 N   0  0  0  0  0  0  0  0  0  0  0  0
  189.7860  177.4150  146.3770 C   0  0  0  0  0  3  0  0  0  0  0  0
  189.1450  177.1600  147.7020 C   0  0  0  0  0  2  0  0  0  0  0  0
  187.8110  177.8810  147.8150 C   0  0  0  0  0  2  0  0  0  0  0  0
  187.0120  177.5850  146.7080 O   0  0  0  0  0  0  0  0  0  0  0  0
  186.0530  178.5970  146.6890 C   0  0  0  0  0  1  0  0  0  0  0  0
  1 11  1  0  0  0  0
  2  6  1  0  0  0  0
  3 25  1  6  0  0  0
  4  2  2  0  0  0  0
  4 12  1  0  0  0  0
  5  3  1  0  0  0  0
  6 21  1  6  0  0  0
  6  1  1  0  0  0  0
  7  5  1  0  0  0  0
  8  7  2  0  0  0  0
  9  3  1  0  0  0  0
 10  9  1  0  0  0  0
 11  7  1  0  0  0  0
 11 10  1  1  0  0  0
 12 13  2  0  0  0  0
 12  1  1  0  0  0  0
 13  8  1  0  0  0  0
 14 13  1  0  0  0  0
 15 14  1  0  0  0  0
 15 16  1  0  0  0  0
 16 20  1  0  0  0  0
 17 19  2  0  0  0  0
 19 18  1  0  0  0  0
 20 19  1  0  0  0  0
 22 23  1  0  0  0  0
 22 21  1  0  0  0  0
 23 24  1  0  0  0  0
 25 26  1  0  0  0  0
 26 27  1  0  0  0  0
 27 28  1  0  0  0  0
 28 29  2  0  0  0  0
 29 30  1  0  0  0  0
 30 31  1  0  0  0  0
 32 31  1  0  0  0  0
 33 32  1  0  0  0  0
M  END
>  <MODEL>
8

>  <REMARK>
 VINA RESULT:      -5.4      2.153      5.952
  Name = 
  14 active torsions:
  status: ('A' for Active; 'I' for Inactive)
    1  A    between atoms: C_1  and  N_23
    2  A    between atoms: C_4  and  O_27
    3  A    between atoms: C_8  and  C_13
    4  A    between atoms: C_8  and  C_31
    5  A    between atoms: C_10  and  C_14
    6  A    between atoms: C_10  and  C_33
    7  A    between atoms: C_12  and  C_15
    8  A    between atoms: C_12  and  N_23
    9  A    between atoms: C_13  and  O_20
   10  A    between atoms: C_14  and  C_17
   11  A    between atoms: N_16  and  C_17
   12  A    between atoms: C_21  and  C_26
   13  A    between atoms: C_21  and  N_30
   14  A    between atoms: C_26  and  O_27
                            x       y       z     vdW  Elec       q    Type
                         _______ _______ _______ _____ _____    ______ ____

>  <TORSDO>
F 14

$$$$
=
 OpenBabel10222417553D

 33 35  0  0  1  0  0  0  0  0999 V2000
  190.0400  177.3780  138.9460 N   0  0  0  0  0  0  0  0  0  0  0  0
  192.2390  176.9950  139.7650 C   0  0  0  0  0  3  0  0  0  0  0  0
  186.3700  177.8610  136.8560 C   0  0  1  0  0  3  0  0  0  0  0  0
  191.3800  177.4130  140.8720 N   0  0  0  0  0  0  0  0  0  0  0  0
  186.3280  178.1890  138.3530 C   0  0  0  0  0  2  0  0  0  0  0  0
  191.3350  176.8780  138.5150 C   0  0  1  0  0  3  0  0  0  0  0  0
  187.6420  177.9200  139.0200 C   0  0  0  0  0  0  0  0  0  0  0  0
  187.7770  178.1720  140.2930 N   0  0  0  0  0  0  0  0  0  0  0  0
  187.6070  178.4680  136.1750 C   0  0  0  0  0  2  0  0  0  0  0  0
  188.9380  178.2090  136.9090 C   0  0  0  0  0  2  0  0  0  0  0  0
  188.7910  177.3790  138.1860 C   0  0  1  0  0  3  0  0  0  0  0  0
  190.0980  177.6280  140.3260 C   0  0  0  0  0  0  0  0  0  0  0  0
  189.0130  177.9960  141.0060 C   0  0  0  0  0  0  0  0  0  0  0  0
  189.0600  178.2610  142.4770 C   0  0  0  0  0  2  0  0  0  0  0  0
  188.3130  177.1890  143.2590 C   0  0  0  0  0  2  0  0  0  0  0  0
  189.0980  176.7650  144.4890 C   0  0  0  0  0  2  0  0  0  0  0  0
  190.2260  176.7560  147.1130 O   0  0  0  0  0  0  0  0  0  0  0  0
  188.3770  177.8420  148.1400 C   0  0  0  0  0  1  0  0  0  0  0  0
  189.0820  177.2630  146.9660 C   0  0  0  0  0  0  0  0  0  0  0  0
  188.4460  177.2720  145.6870 N   0  0  0  0  0  2  0  0  0  0  0  0
  191.2170  175.4160  138.1090 C   0  0  0  0  0  2  0  0  0  0  0  0
  191.3760  175.2820  136.6720 N   0  0  0  0  0  2  0  0  0  0  0  0
  190.8380  173.9820  136.3150 C   0  0  0  0  0  2  0  0  0  0  0  0
  189.4260  173.8580  136.8450 C   0  0  0  0  0  1  0  0  0  0  0  0
  186.3440  176.4760  136.6600 O   0  0  0  0  0  0  0  0  0  0  0  0
  185.0590  176.2030  136.1830 C   0  0  0  0  0  2  0  0  0  0  0  0
  184.2860  175.3880  137.2060 C   0  0  0  0  0  2  0  0  0  0  0  0
  183.2430  176.1920  137.7790 N   0  0  0  0  0  0  0  0  0  0  0  0
  182.9220  176.0430  139.0110 C   0  0  0  0  0  3  0  0  0  0  0  0
  181.8380  176.8700  139.6230 C   0  0  0  0  0  2  0  0  0  0  0  0
  182.4100  177.8990  140.5850 C   0  0  0  0  0  2  0  0  0  0  0  0
  183.6830  177.5080  141.0040 O   0  0  0  0  0  0  0  0  0  0  0  0
  184.2870  178.6880  141.4370 C   0  0  0  0  0  1  0  0  0  0  0  0
  1 12  1  0  0  0  0
  2  4  2  0  0  0  0
  3 25  1  1  0  0  0
  3  5  1  0  0  0  0
  5  7  1  0  0  0  0
  6 21  1  1  0  0  0
  6  1  1  0  0  0  0
  6  2  1  0  0  0  0
  7  8  2  0  0  0  0
  8 13  1  0  0  0  0
  9  3  1  0  0  0  0
  9 10  1  0  0  0  0
 11 10  1  6  0  0  0
 11  1  1  0  0  0  0
 11  7  1  0  0  0  0
 12  4  1  0  0  0  0
 12 13  2  0  0  0  0
 13 14  1  0  0  0  0
 14 15  1  0  0  0  0
 15 16  1  0  0  0  0
 16 20  1  0  0  0  0
 19 17  2  0  0  0  0
 19 18  1  0  0  0  0
 20 19  1  0  0  0  0
 22 21  1  0  0  0  0
 23 22  1  0  0  0  0
 23 24  1  0  0  0  0
 26 25  1  0  0  0  0
 26 27  1  0  0  0  0
 27 28  1  0  0  0  0
 28 29  2  0  0  0  0
 29 30  1  0  0  0  0
 30 31  1  0  0  0  0
 31 32  1  0  0  0  0
 32 33  1  0  0  0  0
M  END
>  <MODEL>
9

>  <REMARK>
 VINA RESULT:      -5.4      3.056      8.137
  Name = 
  14 active torsions:
  status: ('A' for Active; 'I' for Inactive)
    1  A    between atoms: C_1  and  N_23
    2  A    between atoms: C_4  and  O_27
    3  A    between atoms: C_8  and  C_13
    4  A    between atoms: C_8  and  C_31
    5  A    between atoms: C_10  and  C_14
    6  A    between atoms: C_10  and  C_33
    7  A    between atoms: C_12  and  C_15
    8  A    between atoms: C_12  and  N_23
    9  A    between atoms: C_13  and  O_20
   10  A    between atoms: C_14  and  C_17
   11  A    between atoms: N_16  and  C_17
   12  A    between atoms: C_21  and  C_26
   13  A    between atoms: C_21  and  N_30
   14  A    between atoms: C_26  and  O_27
                            x       y       z     vdW  Elec       q    Type
                         _______ _______ _______ _____ _____    ______ ____

>  <TORSDO>
F 14

$$$$
