=
 OpenBabel10222417283D

 44 48  0  0  1  0  0  0  0  0999 V2000
  189.7370  176.4570  147.3940 N   0  0  0  0  0  2  0  0  0  0  0  0
  191.1160  176.8960  147.2960 C   0  0  0  0  0  2  0  0  0  0  0  0
  191.6830  176.4930  145.9480 C   0  0  0  0  0  2  0  0  0  0  0  0
  191.6230  177.6210  145.0340 N   0  0  0  0  0  2  0  0  0  0  0  0
  191.2530  177.0990  143.7270 C   0  0  0  0  0  2  0  0  0  0  0  0
  189.9610  177.7070  143.2850 C   0  0  0  0  0  3  0  0  0  0  0  0
  188.3150  178.4710  141.6790 C   0  0  0  0  0  1  0  0  0  0  0  0
  189.6340  177.8560  142.0010 C   0  0  0  0  0  0  0  0  0  0  0  0
  188.9880  176.9900  139.1660 N   0  0  0  0  0  0  0  0  0  0  0  0
  190.5480  177.4470  140.9710 N   0  0  0  0  0  2  0  0  0  0  0  0
  190.2130  177.0720  139.6310 C   0  0  0  0  0  0  0  0  0  0  0  0
  190.4580  176.3960  137.5280 C   0  0  0  0  0  0  0  0  0  0  0  0
  190.9810  175.9790  136.3290 C   0  0  0  0  0  0  0  0  0  0  0  0
  192.5440  176.6040  138.5910 N   0  0  0  0  0  0  0  0  0  0  0  0
  191.1900  176.6950  138.6070 C   0  0  0  0  0  0  0  0  0  0  0  0
  188.6620  175.8580  135.5570 C   0  0  0  0  0  3  0  0  0  0  0  0
  189.1470  176.5570  137.8070 C   0  0  0  0  0  0  0  0  0  0  0  0
  192.3880  175.8730  136.2660 C   0  0  0  0  0  0  0  0  0  0  0  0
  193.2210  175.3420  134.7730 S   0  0  0  0  0  1  0  0  0  0  0  0
  190.0550  175.7000  135.3040 C   0  0  0  0  0  3  0  0  0  0  0  0
  193.1550  176.1950  137.4260 C   0  0  0  0  0  3  0  0  0  0  0  0
  188.1900  176.2910  136.8250 C   0  0  0  0  0  3  0  0  0  0  0  0
  188.9870  177.5630  147.9620 C   0  0  0  0  0  2  0  0  0  0  0  0
  186.7660  178.6610  147.6080 C   0  0  0  0  0  3  0  0  0  0  0  0
  187.7290  177.3510  145.8140 C   0  0  0  0  0  3  0  0  0  0  0  0
  186.6240  177.6430  145.0080 C   0  0  0  0  0  3  0  0  0  0  0  0
  185.5830  178.4450  145.4970 C   0  0  0  0  0  0  0  0  0  0  0  0
  187.7980  177.8550  147.1160 C   0  0  0  0  0  0  0  0  0  0  0  0
  185.6610  178.9530  146.8020 C   0  0  0  0  0  3  0  0  0  0  0  0
  183.3390  179.1410  145.1690 O   0  0  0  0  0  0  0  0  0  0  0  0
  184.4220  178.7610  144.6460 C   0  0  0  0  0  0  0  0  0  0  0  0
  184.5180  178.6330  143.2240 N   0  0  0  0  0  2  0  0  0  0  0  0
  183.4170  178.8580  142.3840 N   0  0  0  0  0  2  0  0  0  0  0  0
  183.6400  178.1120  141.1520 C   0  0  0  0  0  2  0  0  0  0  0  0
  183.9800  179.0610  140.0000 C   0  0  2  0  0  3  0  0  0  0  0  0
  181.1410  180.7280  138.9520 C   0  0  0  0  0  0  0  0  0  0  0  0
  180.5290  181.8170  138.8060 O   0  0  0  0  0  0  0  0  0  0  0  0
  181.5330  178.5120  139.4320 C   0  0  1  0  0  3  0  0  0  0  0  0
  182.8450  179.1900  138.9760 C   0  0  1  0  0  3  0  0  0  0  0  0
  180.5020  179.5370  139.3590 N   0  0  0  0  0  2  0  0  0  0  0  0
  181.1890  177.3730  138.4910 C   0  0  0  0  0  1  0  0  0  0  0  0
  182.5260  180.5910  138.7280 N   0  0  0  0  0  2  0  0  0  0  0  0
  184.9340  177.8860  138.0160 C   0  0  0  0  0  1  0  0  0  0  0  0
  185.2580  178.6140  139.3070 C   0  0  0  0  0  2  0  0  0  0  0  0
  1 23  1  0  0  0  0
  2  1  1  0  0  0  0
  3  2  1  0  0  0  0
  4  3  1  0  0  0  0
  5  4  1  0  0  0  0
  6  5  1  0  0  0  0
  7  8  1  0  0  0  0
  8  6  2  0  0  0  0
  9 11  2  0  0  0  0
 10  8  1  0  0  0  0
 11 10  1  0  0  0  0
 12 17  1  0  0  0  0
 12 15  2  0  0  0  0
 13 12  1  0  0  0  0
 14 15  1  0  0  0  0
 15 11  1  0  0  0  0
 16 22  1  0  0  0  0
 17  9  1  0  0  0  0
 18 13  2  0  0  0  0
 18 21  1  0  0  0  0
 19 18  1  0  0  0  0
 20 16  2  0  0  0  0
 20 13  1  0  0  0  0
 21 14  2  0  0  0  0
 22 17  2  0  0  0  0
 25 28  2  0  0  0  0
 26 27  2  0  0  0  0
 26 25  1  0  0  0  0
 27 29  1  0  0  0  0
 28 24  1  0  0  0  0
 28 23  1  0  0  0  0
 29 24  2  0  0  0  0
 31 30  2  0  0  0  0
 31 27  1  0  0  0  0
 32 31  1  0  0  0  0
 33 32  1  0  0  0  0
 34 33  1  0  0  0  0
 35 44  1  6  0  0  0
 35 34  1  0  0  0  0
 36 40  1  0  0  0  0
 37 36  2  0  0  0  0
 38 41  1  6  0  0  0
 39 38  1  0  0  0  0
 39 35  1  1  0  0  0
 40 38  1  0  0  0  0
 42 36  1  0  0  0  0
 42 39  1  0  0  0  0
 43 44  1  0  0  0  0
M  END
>  <MODEL>
1

>  <REMARK>
 VINA RESULT:      -8.6      0.000      0.000
  Name = 
  14 active torsions:
  status: ('A' for Active; 'I' for Inactive)
    1  A    between atoms: C_5  and  C_12
    2  A    between atoms: C_5  and  N_31
    3  A    between atoms: N_8  and  C_33
    4  A    between atoms: C_11  and  C_44
    5  A    between atoms: C_18  and  N_27
    6  A    between atoms: C_18  and  C_44
    7  A    between atoms: C_19  and  C_44
    8  A    between atoms: C_21  and  C_29
    9  A    between atoms: N_27  and  N_34
   10  A    between atoms: N_31  and  C_38
   11  A    between atoms: C_35  and  C_42
   12  A    between atoms: C_37  and  C_38
   13  A    between atoms: C_37  and  N_40
   14  A    between atoms: N_40  and  C_42
                            x       y       z     vdW  Elec       q    Type
                         _______ _______ _______ _____ _____    ______ ____

>  <TORSDO>
F 14

$$$$
=
 OpenBabel10222417283D

 44 48  0  0  1  0  0  0  0  0999 V2000
  186.1930  177.4990  146.1460 N   0  0  0  0  0  2  0  0  0  0  0  0
  185.4350  178.6960  146.4590 C   0  0  0  0  0  2  0  0  0  0  0  0
  184.2380  178.7960  145.5330 C   0  0  0  0  0  2  0  0  0  0  0  0
  184.5900  179.5750  144.3580 N   0  0  0  0  0  2  0  0  0  0  0  0
  184.3600  178.7320  143.1950 C   0  0  0  0  0  2  0  0  0  0  0  0
  185.6560  178.4570  142.5030 C   0  0  0  0  0  3  0  0  0  0  0  0
  187.2480  178.5490  140.6780 C   0  0  0  0  0  1  0  0  0  0  0  0
  185.9170  178.8790  141.2650 C   0  0  0  0  0  0  0  0  0  0  0  0
  184.0190  177.8310  139.1430 N   0  0  0  0  0  0  0  0  0  0  0  0
  184.9270  179.6100  140.5270 N   0  0  0  0  0  2  0  0  0  0  0  0
  184.0240  179.0790  139.5510 C   0  0  0  0  0  0  0  0  0  0  0  0
  182.4140  178.9970  138.0200 C   0  0  0  0  0  0  0  0  0  0  0  0
  181.3970  179.3220  137.1580 C   0  0  0  0  0  0  0  0  0  0  0  0
  182.6270  181.1670  138.8990 N   0  0  0  0  0  0  0  0  0  0  0  0
  183.0050  179.8640  138.8500 C   0  0  0  0  0  0  0  0  0  0  0  0
  181.4670  176.9760  136.4650 C   0  0  0  0  0  3  0  0  0  0  0  0
  182.9780  177.7780  138.1570 C   0  0  0  0  0  0  0  0  0  0  0  0
  180.9680  180.6680  137.1780 C   0  0  0  0  0  0  0  0  0  0  0  0
  179.6520  181.2470  136.1120 S   0  0  0  0  0  1  0  0  0  0  0  0
  180.9010  178.2780  136.3510 C   0  0  0  0  0  3  0  0  0  0  0  0
  181.6090  181.5800  138.0680 C   0  0  0  0  0  3  0  0  0  0  0  0
  182.5240  176.7120  137.3780 C   0  0  0  0  0  3  0  0  0  0  0  0
  187.5780  177.7860  146.4730 C   0  0  0  0  0  2  0  0  0  0  0  0
  187.9950  176.7010  144.2570 C   0  0  0  0  0  3  0  0  0  0  0  0
  189.6780  178.1780  145.1780 C   0  0  0  0  0  3  0  0  0  0  0  0
  190.4790  177.9680  144.0510 C   0  0  0  0  0  3  0  0  0  0  0  0
  190.0430  177.1230  143.0190 C   0  0  0  0  0  0  0  0  0  0  0  0
  188.4390  177.5400  145.2840 C   0  0  0  0  0  0  0  0  0  0  0  0
  188.7960  176.4910  143.1300 C   0  0  0  0  0  3  0  0  0  0  0  0
  192.0820  177.2960  141.8190 O   0  0  0  0  0  0  0  0  0  0  0  0
  190.8820  176.9070  141.8270 C   0  0  0  0  0  0  0  0  0  0  0  0
  190.3360  176.2600  140.6730 N   0  0  0  0  0  2  0  0  0  0  0  0
  191.0810  176.0950  139.4950 N   0  0  0  0  0  2  0  0  0  0  0  0
  190.5750  177.0480  138.5160 C   0  0  0  0  0  2  0  0  0  0  0  0
  190.4610  176.3950  137.1360 C   0  0  2  0  0  3  0  0  0  0  0  0
  187.6270  178.3510  136.8530 C   0  0  0  0  0  0  0  0  0  0  0  0
  187.1140  179.4990  136.8270 O   0  0  0  0  0  0  0  0  0  0  0  0
  187.9120  176.1170  137.3230 C   0  0  1  0  0  3  0  0  0  0  0  0
  189.0980  176.6290  136.4740 C   0  0  1  0  0  3  0  0  0  0  0  0
  187.0150  177.2510  137.4910 N   0  0  0  0  0  2  0  0  0  0  0  0
  187.1940  175.0030  136.5840 C   0  0  0  0  0  1  0  0  0  0  0  0
  188.8650  178.0510  136.2500 N   0  0  0  0  0  2  0  0  0  0  0  0
  190.9470  174.3130  135.8490 C   0  0  0  0  0  1  0  0  0  0  0  0
  190.7440  174.9040  137.2320 C   0  0  0  0  0  2  0  0  0  0  0  0
  1  2  1  0  0  0  0
  1 23  1  0  0  0  0
  3  2  1  0  0  0  0
  4  3  1  0  0  0  0
  5  4  1  0  0  0  0
  6  5  1  0  0  0  0
  7  8  1  0  0  0  0
  8  6  2  0  0  0  0
  9 11  2  0  0  0  0
 10  8  1  0  0  0  0
 11 10  1  0  0  0  0
 12 17  1  0  0  0  0
 12 15  2  0  0  0  0
 13 18  2  0  0  0  0
 13 12  1  0  0  0  0
 15 14  1  0  0  0  0
 15 11  1  0  0  0  0
 16 22  1  0  0  0  0
 17  9  1  0  0  0  0
 18 21  1  0  0  0  0
 19 18  1  0  0  0  0
 20 16  2  0  0  0  0
 20 13  1  0  0  0  0
 21 14  2  0  0  0  0
 22 17  2  0  0  0  0
 24 28  1  0  0  0  0
 25 28  2  0  0  0  0
 26 25  1  0  0  0  0
 27 29  1  0  0  0  0
 27 26  2  0  0  0  0
 28 23  1  0  0  0  0
 29 24  2  0  0  0  0
 30 31  2  0  0  0  0
 31 27  1  0  0  0  0
 32 31  1  0  0  0  0
 33 32  1  0  0  0  0
 34 33  1  0  0  0  0
 35 44  1  1  0  0  0
 35 34  1  0  0  0  0
 36 40  1  0  0  0  0
 37 36  2  0  0  0  0
 38 41  1  6  0  0  0
 38 40  1  0  0  0  0
 39 35  1  1  0  0  0
 39 38  1  0  0  0  0
 42 39  1  0  0  0  0
 42 36  1  0  0  0  0
 43 44  1  0  0  0  0
M  END
>  <MODEL>
2

>  <REMARK>
 VINA RESULT:      -8.5      3.353      7.423
  Name = 
  14 active torsions:
  status: ('A' for Active; 'I' for Inactive)
    1  A    between atoms: C_5  and  C_12
    2  A    between atoms: C_5  and  N_31
    3  A    between atoms: N_8  and  C_33
    4  A    between atoms: C_11  and  C_44
    5  A    between atoms: C_18  and  N_27
    6  A    between atoms: C_18  and  C_44
    7  A    between atoms: C_19  and  C_44
    8  A    between atoms: C_21  and  C_29
    9  A    between atoms: N_27  and  N_34
   10  A    between atoms: N_31  and  C_38
   11  A    between atoms: C_35  and  C_42
   12  A    between atoms: C_37  and  C_38
   13  A    between atoms: C_37  and  N_40
   14  A    between atoms: N_40  and  C_42
                            x       y       z     vdW  Elec       q    Type
                         _______ _______ _______ _____ _____    ______ ____

>  <TORSDO>
F 14

$$$$
=
 OpenBabel10222417283D

 44 48  0  0  1  0  0  0  0  0999 V2000
  189.7640  176.4850  147.0690 N   0  0  0  0  0  2  0  0  0  0  0  0
  191.0910  177.0120  146.8110 C   0  0  0  0  0  2  0  0  0  0  0  0
  191.6780  176.3340  145.5880 C   0  0  0  0  0  2  0  0  0  0  0  0
  191.6580  177.2510  144.4610 N   0  0  0  0  0  2  0  0  0  0  0  0
  191.0750  176.5410  143.3330 C   0  0  0  0  0  2  0  0  0  0  0  0
  189.8450  177.2510  142.8660 C   0  0  0  0  0  3  0  0  0  0  0  0
  188.3820  178.2960  141.2420 C   0  0  0  0  0  1  0  0  0  0  0  0
  189.6500  177.5950  141.5930 C   0  0  0  0  0  0  0  0  0  0  0  0
  189.2570  176.4580  138.8080 N   0  0  0  0  0  0  0  0  0  0  0  0
  190.6530  177.3080  140.6060 N   0  0  0  0  0  2  0  0  0  0  0  0
  190.4310  176.7990  139.2860 C   0  0  0  0  0  0  0  0  0  0  0  0
  190.8570  176.0610  137.2330 C   0  0  0  0  0  0  0  0  0  0  0  0
  191.4830  175.6810  136.0720 C   0  0  0  0  0  0  0  0  0  0  0  0
  192.8370  176.7240  138.3140 N   0  0  0  0  0  0  0  0  0  0  0  0
  191.4900  176.5560  138.3030 C   0  0  0  0  0  0  0  0  0  0  0  0
  189.2510  175.0760  135.2720 C   0  0  0  0  0  3  0  0  0  0  0  0
  189.5330  175.9850  137.4820 C   0  0  0  0  0  0  0  0  0  0  0  0
  192.8860  175.8420  136.0370 C   0  0  0  0  0  0  0  0  0  0  0  0
  193.8440  175.3930  134.5940 S   0  0  0  0  0  1  0  0  0  0  0  0
  190.6550  175.1720  135.0510 C   0  0  0  0  0  3  0  0  0  0  0  0
  193.5450  176.3710  137.1870 C   0  0  0  0  0  3  0  0  0  0  0  0
  188.6700  175.4840  136.5030 C   0  0  0  0  0  3  0  0  0  0  0  0
  188.9580  177.5990  147.5390 C   0  0  0  0  0  2  0  0  0  0  0  0
  186.7410  178.6330  147.0160 C   0  0  0  0  0  3  0  0  0  0  0  0
  187.7740  177.1780  145.3800 C   0  0  0  0  0  3  0  0  0  0  0  0
  186.6940  177.3820  144.5160 C   0  0  0  0  0  3  0  0  0  0  0  0
  185.6300  178.2140  144.8960 C   0  0  0  0  0  0  0  0  0  0  0  0
  187.7950  177.7980  146.6320 C   0  0  0  0  0  0  0  0  0  0  0  0
  185.6610  178.8380  146.1510 C   0  0  0  0  0  3  0  0  0  0  0  0
  183.3700  178.7740  144.4440 O   0  0  0  0  0  0  0  0  0  0  0  0
  184.4950  178.4370  143.9830 C   0  0  0  0  0  0  0  0  0  0  0  0
  184.6640  178.2680  142.5720 N   0  0  0  0  0  2  0  0  0  0  0  0
  183.5930  178.4060  141.6760 N   0  0  0  0  0  2  0  0  0  0  0  0
  184.1160  178.9890  140.4470 C   0  0  0  0  0  2  0  0  0  0  0  0
  183.7770  178.1070  139.2430 C   0  0  2  0  0  3  0  0  0  0  0  0
  186.5890  178.4800  137.2710 C   0  0  0  0  0  0  0  0  0  0  0  0
  187.5690  179.1870  136.9220 O   0  0  0  0  0  0  0  0  0  0  0  0
  184.7910  177.0510  137.1290 C   0  0  1  0  0  3  0  0  0  0  0  0
  185.0150  177.4690  138.6010 C   0  0  1  0  0  3  0  0  0  0  0  0
  185.8410  177.7030  136.3610 N   0  0  0  0  0  2  0  0  0  0  0  0
  184.9210  175.5450  136.9980 C   0  0  0  0  0  1  0  0  0  0  0  0
  186.1390  178.3960  138.6040 N   0  0  0  0  0  2  0  0  0  0  0  0
  182.5380  180.2240  138.7890 C   0  0  0  0  0  1  0  0  0  0  0  0
  183.0050  178.9050  138.2040 C   0  0  0  0  0  2  0  0  0  0  0  0
  1 23  1  0  0  0  0
  2  1  1  0  0  0  0
  3  2  1  0  0  0  0
  4  3  1  0  0  0  0
  5  4  1  0  0  0  0
  6  5  1  0  0  0  0
  7  8  1  0  0  0  0
  8  6  2  0  0  0  0
  9 11  2  0  0  0  0
 10  8  1  0  0  0  0
 11 10  1  0  0  0  0
 12 17  1  0  0  0  0
 12 15  2  0  0  0  0
 13 12  1  0  0  0  0
 15 14  1  0  0  0  0
 15 11  1  0  0  0  0
 16 22  1  0  0  0  0
 17  9  1  0  0  0  0
 18 13  2  0  0  0  0
 18 21  1  0  0  0  0
 19 18  1  0  0  0  0
 20 16  2  0  0  0  0
 20 13  1  0  0  0  0
 21 14  2  0  0  0  0
 22 17  2  0  0  0  0
 25 28  2  0  0  0  0
 26 27  2  0  0  0  0
 26 25  1  0  0  0  0
 27 29  1  0  0  0  0
 28 24  1  0  0  0  0
 28 23  1  0  0  0  0
 29 24  2  0  0  0  0
 31 30  2  0  0  0  0
 31 27  1  0  0  0  0
 32 31  1  0  0  0  0
 33 32  1  0  0  0  0
 34 33  1  0  0  0  0
 35 44  1  6  0  0  0
 35 34  1  0  0  0  0
 36 42  1  0  0  0  0
 37 36  2  0  0  0  0
 38 41  1  1  0  0  0
 38 39  1  0  0  0  0
 39 42  1  0  0  0  0
 39 35  1  6  0  0  0
 40 38  1  0  0  0  0
 40 36  1  0  0  0  0
 44 43  1  0  0  0  0
M  END
>  <MODEL>
3

>  <REMARK>
 VINA RESULT:      -8.5      1.637      2.317
  Name = 
  14 active torsions:
  status: ('A' for Active; 'I' for Inactive)
    1  A    between atoms: C_5  and  C_12
    2  A    between atoms: C_5  and  N_31
    3  A    between atoms: N_8  and  C_33
    4  A    between atoms: C_11  and  C_44
    5  A    between atoms: C_18  and  N_27
    6  A    between atoms: C_18  and  C_44
    7  A    between atoms: C_19  and  C_44
    8  A    between atoms: C_21  and  C_29
    9  A    between atoms: N_27  and  N_34
   10  A    between atoms: N_31  and  C_38
   11  A    between atoms: C_35  and  C_42
   12  A    between atoms: C_37  and  C_38
   13  A    between atoms: C_37  and  N_40
   14  A    between atoms: N_40  and  C_42
                            x       y       z     vdW  Elec       q    Type
                         _______ _______ _______ _____ _____    ______ ____

>  <TORSDO>
F 14

$$$$
=
 OpenBabel10222417283D

 44 48  0  0  1  0  0  0  0  0999 V2000
  189.8590  177.8940  144.0880 N   0  0  0  0  0  2  0  0  0  0  0  0
  190.2980  178.0780  142.7180 C   0  0  0  0  0  2  0  0  0  0  0  0
  190.6130  176.7290  142.0990 C   0  0  0  0  0  2  0  0  0  0  0  0
  190.4920  176.8120  140.6540 N   0  0  0  0  0  2  0  0  0  0  0  0
  189.1920  177.3970  140.3600 C   0  0  0  0  0  2  0  0  0  0  0  0
  189.2900  178.2700  139.1500 C   0  0  0  0  0  3  0  0  0  0  0  0
  188.9780  178.8560  136.8200 C   0  0  0  0  0  1  0  0  0  0  0  0
  188.8310  177.9000  137.9540 C   0  0  0  0  0  0  0  0  0  0  0  0
  185.9490  177.2530  137.2630 N   0  0  0  0  0  0  0  0  0  0  0  0
  188.2330  176.6060  137.7780 N   0  0  0  0  0  2  0  0  0  0  0  0
  186.8730  176.3350  137.4220 C   0  0  0  0  0  0  0  0  0  0  0  0
  185.0300  175.1930  136.9340 C   0  0  0  0  0  0  0  0  0  0  0  0
  184.1300  174.1880  136.6820 C   0  0  0  0  0  0  0  0  0  0  0  0
  186.8480  173.7430  137.2840 N   0  0  0  0  0  0  0  0  0  0  0  0
  186.3210  174.9930  137.2210 C   0  0  0  0  0  0  0  0  0  0  0  0
  182.4790  175.9730  136.4060 C   0  0  0  0  0  3  0  0  0  0  0  0
  184.7600  176.5150  136.9450 C   0  0  0  0  0  0  0  0  0  0  0  0
  184.6340  172.8700  136.7330 C   0  0  0  0  0  0  0  0  0  0  0  0
  183.5840  171.4520  136.4280 S   0  0  0  0  0  1  0  0  0  0  0  0
  182.8060  174.5870  136.4060 C   0  0  0  0  0  3  0  0  0  0  0  0
  186.0140  172.6740  137.0410 C   0  0  0  0  0  3  0  0  0  0  0  0
  183.4630  176.9610  136.6810 C   0  0  0  0  0  3  0  0  0  0  0  0
  188.9210  176.7850  144.0790 C   0  0  0  0  0  2  0  0  0  0  0  0
  186.9740  177.6220  145.4090 C   0  0  0  0  0  3  0  0  0  0  0  0
  186.7850  177.5000  142.9990 C   0  0  0  0  0  3  0  0  0  0  0  0
  185.4850  178.0080  143.0750 C   0  0  0  0  0  3  0  0  0  0  0  0
  184.9200  178.3270  144.3190 C   0  0  0  0  0  0  0  0  0  0  0  0
  187.5280  177.3020  144.1660 C   0  0  0  0  0  0  0  0  0  0  0  0
  185.6730  178.1310  145.4860 C   0  0  0  0  0  3  0  0  0  0  0  0
  183.1040  179.2900  145.5020 O   0  0  0  0  0  0  0  0  0  0  0  0
  183.5530  178.8710  144.4000 C   0  0  0  0  0  0  0  0  0  0  0  0
  182.7290  178.9210  143.2310 N   0  0  0  0  0  2  0  0  0  0  0  0
  181.4000  179.3680  143.2800 N   0  0  0  0  0  2  0  0  0  0  0  0
  180.9200  179.4800  141.9090 C   0  0  0  0  0  2  0  0  0  0  0  0
  181.0940  178.1530  141.1650 C   0  0  2  0  0  3  0  0  0  0  0  0
  183.6900  179.5110  139.3330 C   0  0  0  0  0  0  0  0  0  0  0  0
  184.9050  179.8290  139.2670 O   0  0  0  0  0  0  0  0  0  0  0  0
  181.4060  179.6240  139.0790 C   0  0  1  0  0  3  0  0  0  0  0  0
  181.7890  178.3150  139.8070 C   0  0  1  0  0  3  0  0  0  0  0  0
  182.6590  180.3050  138.7860 N   0  0  0  0  0  2  0  0  0  0  0  0
  180.6860  179.2990  137.7830 C   0  0  0  0  0  1  0  0  0  0  0  0
  183.2370  178.3340  139.9630 N   0  0  0  0  0  2  0  0  0  0  0  0
  179.9280  176.1120  140.3280 C   0  0  0  0  0  1  0  0  0  0  0  0
  179.7490  177.4690  140.9830 C   0  0  0  0  0  2  0  0  0  0  0  0
  2  1  1  0  0  0  0
  3  2  1  0  0  0  0
  4  3  1  0  0  0  0
  5  4  1  0  0  0  0
  6  5  1  0  0  0  0
  7  8  1  0  0  0  0
  8  6  2  0  0  0  0
  9 11  2  0  0  0  0
 10  8  1  0  0  0  0
 11 10  1  0  0  0  0
 12 17  1  0  0  0  0
 12 15  2  0  0  0  0
 13 18  2  0  0  0  0
 13 12  1  0  0  0  0
 15 14  1  0  0  0  0
 15 11  1  0  0  0  0
 16 22  1  0  0  0  0
 17  9  1  0  0  0  0
 18 21  1  0  0  0  0
 19 18  1  0  0  0  0
 20 16  2  0  0  0  0
 20 13  1  0  0  0  0
 21 14  2  0  0  0  0
 22 17  2  0  0  0  0
 23  1  1  0  0  0  0
 23 28  1  0  0  0  0
 24 29  1  0  0  0  0
 25 26  2  0  0  0  0
 25 28  1  0  0  0  0
 26 27  1  0  0  0  0
 27 31  1  0  0  0  0
 27 29  2  0  0  0  0
 28 24  2  0  0  0  0
 31 30  2  0  0  0  0
 32 33  1  0  0  0  0
 32 31  1  0  0  0  0
 34 33  1  0  0  0  0
 35 44  1  6  0  0  0
 35 34  1  0  0  0  0
 36 42  1  0  0  0  0
 37 36  2  0  0  0  0
 38 41  1  6  0  0  0
 38 39  1  0  0  0  0
 39 42  1  0  0  0  0
 39 35  1  1  0  0  0
 40 38  1  0  0  0  0
 40 36  1  0  0  0  0
 43 44  1  0  0  0  0
M  END
>  <MODEL>
4

>  <REMARK>
 VINA RESULT:      -8.4      2.819      4.587
  Name = 
  14 active torsions:
  status: ('A' for Active; 'I' for Inactive)
    1  A    between atoms: C_5  and  C_12
    2  A    between atoms: C_5  and  N_31
    3  A    between atoms: N_8  and  C_33
    4  A    between atoms: C_11  and  C_44
    5  A    between atoms: C_18  and  N_27
    6  A    between atoms: C_18  and  C_44
    7  A    between atoms: C_19  and  C_44
    8  A    between atoms: C_21  and  C_29
    9  A    between atoms: N_27  and  N_34
   10  A    between atoms: N_31  and  C_38
   11  A    between atoms: C_35  and  C_42
   12  A    between atoms: C_37  and  C_38
   13  A    between atoms: C_37  and  N_40
   14  A    between atoms: N_40  and  C_42
                            x       y       z     vdW  Elec       q    Type
                         _______ _______ _______ _____ _____    ______ ____

>  <TORSDO>
F 14

$$$$
=
 OpenBabel10222417283D

 44 48  0  0  1  0  0  0  0  0999 V2000
  191.8850  177.1940  142.7140 N   0  0  0  0  0  2  0  0  0  0  0  0
  191.1020  176.3900  143.6340 C   0  0  0  0  0  2  0  0  0  0  0  0
  192.0000  175.3700  144.3070 C   0  0  0  0  0  2  0  0  0  0  0  0
  191.8770  175.4850  145.7500 N   0  0  0  0  0  2  0  0  0  0  0  0
  191.5520  176.8710  146.0490 C   0  0  0  0  0  2  0  0  0  0  0  0
  190.5580  176.9310  147.1640 C   0  0  0  0  0  3  0  0  0  0  0  0
  188.3590  177.1840  148.1500 C   0  0  0  0  0  1  0  0  0  0  0  0
  189.2580  177.1510  146.9610 C   0  0  0  0  0  0  0  0  0  0  0  0
  186.4610  177.9730  146.1250 N   0  0  0  0  0  0  0  0  0  0  0  0
  188.7610  177.3670  145.6320 N   0  0  0  0  0  2  0  0  0  0  0  0
  187.4400  177.7840  145.2710 C   0  0  0  0  0  0  0  0  0  0  0  0
  185.7040  178.3650  144.0100 C   0  0  0  0  0  0  0  0  0  0  0  0
  184.8870  178.6660  142.9490 C   0  0  0  0  0  0  0  0  0  0  0  0
  187.6020  177.9520  142.6860 N   0  0  0  0  0  0  0  0  0  0  0  0
  186.9920  178.0240  143.8970 C   0  0  0  0  0  0  0  0  0  0  0  0
  183.1290  178.9940  144.6190 C   0  0  0  0  0  3  0  0  0  0  0  0
  185.3410  178.3510  145.3110 C   0  0  0  0  0  0  0  0  0  0  0  0
  185.4810  178.6080  141.6680 C   0  0  0  0  0  0  0  0  0  0  0  0
  184.5470  178.9740  140.1860 S   0  0  0  0  0  1  0  0  0  0  0  0
  183.5520  178.9950  143.2590 C   0  0  0  0  0  3  0  0  0  0  0  0
  186.8560  178.2420  141.5650 C   0  0  0  0  0  3  0  0  0  0  0  0
  184.0290  178.6670  145.6690 C   0  0  0  0  0  3  0  0  0  0  0  0
  190.9700  177.6610  141.6880 C   0  0  0  0  0  2  0  0  0  0  0  0
  190.4220  176.5910  139.4930 C   0  0  0  0  0  3  0  0  0  0  0  0
  192.7210  177.1830  139.9720 C   0  0  0  0  0  3  0  0  0  0  0  0
  193.1060  176.7000  138.7180 C   0  0  0  0  0  3  0  0  0  0  0  0
  192.1530  176.1590  137.8420 C   0  0  0  0  0  0  0  0  0  0  0  0
  191.3800  177.1230  140.3620 C   0  0  0  0  0  0  0  0  0  0  0  0
  190.8080  176.1090  138.2380 C   0  0  0  0  0  3  0  0  0  0  0  0
  191.8980  175.9830  135.4910 O   0  0  0  0  0  0  0  0  0  0  0  0
  192.5560  175.6580  136.5170 C   0  0  0  0  0  0  0  0  0  0  0  0
  193.6920  174.7970  136.3900 N   0  0  0  0  0  2  0  0  0  0  0  0
  194.0690  174.2450  135.1560 N   0  0  0  0  0  2  0  0  0  0  0  0
  195.0690  173.2190  135.4180 C   0  0  0  0  0  2  0  0  0  0  0  0
  194.8170  172.5510  136.7720 C   0  0  2  0  0  3  0  0  0  0  0  0
  196.2720  174.5130  139.2150 C   0  0  0  0  0  0  0  0  0  0  0  0
  196.1300  175.2640  140.2140 O   0  0  0  0  0  0  0  0  0  0  0  0
  197.0790  173.6880  137.2240 C   0  0  1  0  0  3  0  0  0  0  0  0
  195.9670  172.7590  137.7650 C   0  0  1  0  0  3  0  0  0  0  0  0
  197.2340  174.7480  138.2090 N   0  0  0  0  0  2  0  0  0  0  0  0
  198.3780  172.9140  137.0990 C   0  0  0  0  0  1  0  0  0  0  0  0
  195.4840  173.3640  139.0000 N   0  0  0  0  0  2  0  0  0  0  0  0
  193.3610  170.8490  135.6720 C   0  0  0  0  0  1  0  0  0  0  0  0
  194.5520  171.0650  136.5870 C   0  0  0  0  0  2  0  0  0  0  0  0
  1  2  1  0  0  0  0
  2  3  1  0  0  0  0
  3  4  1  0  0  0  0
  4  5  1  0  0  0  0
  5  6  1  0  0  0  0
  8  6  2  0  0  0  0
  8  7  1  0  0  0  0
 10  8  1  0  0  0  0
 11 10  1  0  0  0  0
 11  9  2  0  0  0  0
 12 17  1  0  0  0  0
 13 20  1  0  0  0  0
 13 12  1  0  0  0  0
 14 15  1  0  0  0  0
 15 12  2  0  0  0  0
 15 11  1  0  0  0  0
 16 22  1  0  0  0  0
 17 22  2  0  0  0  0
 17  9  1  0  0  0  0
 18 13  2  0  0  0  0
 19 18  1  0  0  0  0
 20 16  2  0  0  0  0
 21 18  1  0  0  0  0
 21 14  2  0  0  0  0
 23  1  1  0  0  0  0
 24 28  1  0  0  0  0
 25 28  2  0  0  0  0
 26 25  1  0  0  0  0
 27 29  1  0  0  0  0
 27 26  2  0  0  0  0
 28 23  1  0  0  0  0
 29 24  2  0  0  0  0
 30 31  2  0  0  0  0
 31 27  1  0  0  0  0
 32 31  1  0  0  0  0
 33 34  1  0  0  0  0
 33 32  1  0  0  0  0
 35 34  1  6  0  0  0
 36 37  2  0  0  0  0
 38 41  1  1  0  0  0
 38 39  1  0  0  0  0
 38 40  1  0  0  0  0
 39 35  1  6  0  0  0
 39 42  1  0  0  0  0
 40 36  1  0  0  0  0
 42 36  1  0  0  0  0
 43 44  1  0  0  0  0
 44 35  1  0  0  0  0
M  END
>  <MODEL>
5

>  <REMARK>
 VINA RESULT:      -8.3      4.337     10.548
  Name = 
  14 active torsions:
  status: ('A' for Active; 'I' for Inactive)
    1  A    between atoms: C_5  and  C_12
    2  A    between atoms: C_5  and  N_31
    3  A    between atoms: N_8  and  C_33
    4  A    between atoms: C_11  and  C_44
    5  A    between atoms: C_18  and  N_27
    6  A    between atoms: C_18  and  C_44
    7  A    between atoms: C_19  and  C_44
    8  A    between atoms: C_21  and  C_29
    9  A    between atoms: N_27  and  N_34
   10  A    between atoms: N_31  and  C_38
   11  A    between atoms: C_35  and  C_42
   12  A    between atoms: C_37  and  C_38
   13  A    between atoms: C_37  and  N_40
   14  A    between atoms: N_40  and  C_42
                            x       y       z     vdW  Elec       q    Type
                         _______ _______ _______ _____ _____    ______ ____

>  <TORSDO>
F 14

$$$$
=
 OpenBabel10222417283D

 44 48  0  0  1  0  0  0  0  0999 V2000
  183.9090  179.3290  140.7430 N   0  0  0  0  0  2  0  0  0  0  0  0
  183.3220  178.9440  139.4730 C   0  0  0  0  0  2  0  0  0  0  0  0
  181.9700  178.3000  139.7130 C   0  0  0  0  0  2  0  0  0  0  0  0
  181.6660  177.3800  138.6290 N   0  0  0  0  0  2  0  0  0  0  0  0
  182.9080  176.7180  138.2620 C   0  0  0  0  0  2  0  0  0  0  0  0
  183.0960  176.7760  136.7800 C   0  0  0  0  0  3  0  0  0  0  0  0
  184.3240  177.1350  134.7230 C   0  0  0  0  0  1  0  0  0  0  0  0
  184.2530  177.1160  136.2110 C   0  0  0  0  0  0  0  0  0  0  0  0
  186.9090  175.6700  136.4510 N   0  0  0  0  0  0  0  0  0  0  0  0
  185.3820  177.4690  137.0260 N   0  0  0  0  0  2  0  0  0  0  0  0
  186.6350  176.7810  137.0940 C   0  0  0  0  0  0  0  0  0  0  0  0
  188.7110  176.2770  137.7090 C   0  0  0  0  0  0  0  0  0  0  0  0
  189.9480  176.2830  138.3030 C   0  0  0  0  0  0  0  0  0  0  0  0
  187.9800  178.2490  138.7590 N   0  0  0  0  0  0  0  0  0  0  0  0
  187.7690  177.2040  137.9180 C   0  0  0  0  0  0  0  0  0  0  0  0
  190.3630  174.2150  137.0610 C   0  0  0  0  0  3  0  0  0  0  0  0
  188.2510  175.3470  136.8450 C   0  0  0  0  0  0  0  0  0  0  0  0
  190.2120  177.3550  139.1840 C   0  0  0  0  0  0  0  0  0  0  0  0
  191.7800  177.5020  140.0360 S   0  0  0  0  0  1  0  0  0  0  0  0
  190.8090  175.2180  137.9690 C   0  0  0  0  0  3  0  0  0  0  0  0
  189.1980  178.3350  139.3970 C   0  0  0  0  0  3  0  0  0  0  0  0
  189.0640  174.2710  136.4860 C   0  0  0  0  0  3  0  0  0  0  0  0
  183.2000  178.5870  141.7710 C   0  0  0  0  0  2  0  0  0  0  0  0
  183.4180  178.7120  144.2600 C   0  0  0  0  0  3  0  0  0  0  0  0
  185.3900  178.2680  142.9290 C   0  0  0  0  0  3  0  0  0  0  0  0
  186.1600  178.1930  144.0940 C   0  0  0  0  0  3  0  0  0  0  0  0
  185.5640  178.3770  145.3500 C   0  0  0  0  0  0  0  0  0  0  0  0
  184.0210  178.5330  143.0110 C   0  0  0  0  0  0  0  0  0  0  0  0
  184.1870  178.6360  145.4260 C   0  0  0  0  0  3  0  0  0  0  0  0
  186.2390  179.1570  147.4860 O   0  0  0  0  0  0  0  0  0  0  0  0
  186.3710  178.2900  146.5790 C   0  0  0  0  0  0  0  0  0  0  0  0
  187.3120  177.2240  146.7470 N   0  0  0  0  0  2  0  0  0  0  0  0
  188.1470  177.1430  147.8710 N   0  0  0  0  0  2  0  0  0  0  0  0
  189.2280  178.1030  147.6900 C   0  0  0  0  0  2  0  0  0  0  0  0
  190.3410  177.5060  146.8260 C   0  0  2  0  0  3  0  0  0  0  0  0
  190.4450  176.2320  143.6160 C   0  0  0  0  0  0  0  0  0  0  0  0
  190.2600  175.2580  142.8420 O   0  0  0  0  0  0  0  0  0  0  0  0
  191.4160  178.0900  144.5640 C   0  0  1  0  0  3  0  0  0  0  0  0
  190.1190  177.7300  145.3250 C   0  0  1  0  0  3  0  0  0  0  0  0
  191.5330  177.1210  143.4840 N   0  0  0  0  0  2  0  0  0  0  0  0
  191.3010  179.4880  143.9850 C   0  0  0  0  0  1  0  0  0  0  0  0
  189.5860  176.5290  144.6940 N   0  0  0  0  0  2  0  0  0  0  0  0
  191.9550  175.6730  147.3390 C   0  0  0  0  0  1  0  0  0  0  0  0
  190.4950  176.0210  147.1140 C   0  0  0  0  0  2  0  0  0  0  0  0
  1 23  1  0  0  0  0
  2  3  1  0  0  0  0
  2  1  1  0  0  0  0
  4  3  1  0  0  0  0
  5  4  1  0  0  0  0
  6  5  1  0  0  0  0
  7  8  1  0  0  0  0
  8  6  2  0  0  0  0
  8 10  1  0  0  0  0
  9 17  1  0  0  0  0
  9 11  2  0  0  0  0
 10 11  1  0  0  0  0
 11 15  1  0  0  0  0
 12 15  1  0  0  0  0
 12 13  1  0  0  0  0
 13 18  1  0  0  0  0
 14 21  1  0  0  0  0
 15 14  2  0  0  0  0
 16 20  1  0  0  0  0
 17 12  2  0  0  0  0
 18 21  2  0  0  0  0
 18 19  1  0  0  0  0
 20 13  2  0  0  0  0
 22 17  1  0  0  0  0
 22 16  2  0  0  0  0
 23 28  1  0  0  0  0
 24 29  1  0  0  0  0
 25 28  1  0  0  0  0
 25 26  2  0  0  0  0
 26 27  1  0  0  0  0
 27 29  2  0  0  0  0
 27 31  1  0  0  0  0
 28 24  2  0  0  0  0
 31 32  1  0  0  0  0
 31 30  2  0  0  0  0
 32 33  1  0  0  0  0
 34 33  1  0  0  0  0
 35 44  1  6  0  0  0
 35 34  1  0  0  0  0
 36 42  1  0  0  0  0
 37 36  2  0  0  0  0
 38 41  1  6  0  0  0
 38 39  1  0  0  0  0
 39 35  1  1  0  0  0
 40 36  1  0  0  0  0
 40 38  1  0  0  0  0
 42 39  1  0  0  0  0
 44 43  1  0  0  0  0
M  END
>  <MODEL>
6

>  <REMARK>
 VINA RESULT:      -8.3      2.631      7.623
  Name = 
  14 active torsions:
  status: ('A' for Active; 'I' for Inactive)
    1  A    between atoms: C_5  and  C_12
    2  A    between atoms: C_5  and  N_31
    3  A    between atoms: N_8  and  C_33
    4  A    between atoms: C_11  and  C_44
    5  A    between atoms: C_18  and  N_27
    6  A    between atoms: C_18  and  C_44
    7  A    between atoms: C_19  and  C_44
    8  A    between atoms: C_21  and  C_29
    9  A    between atoms: N_27  and  N_34
   10  A    between atoms: N_31  and  C_38
   11  A    between atoms: C_35  and  C_42
   12  A    between atoms: C_37  and  C_38
   13  A    between atoms: C_37  and  N_40
   14  A    between atoms: N_40  and  C_42
                            x       y       z     vdW  Elec       q    Type
                         _______ _______ _______ _____ _____    ______ ____

>  <TORSDO>
F 14

$$$$
=
 OpenBabel10222417283D

 44 48  0  0  1  0  0  0  0  0999 V2000
  181.3980  178.9890  142.3280 N   0  0  0  0  0  2  0  0  0  0  0  0
  180.6190  179.2240  141.1270 C   0  0  0  0  0  2  0  0  0  0  0  0
  181.2290  178.4590  139.9680 C   0  0  0  0  0  2  0  0  0  0  0  0
  180.3300  177.3930  139.5570 N   0  0  0  0  0  2  0  0  0  0  0  0
  180.9600  176.1320  139.9180 C   0  0  0  0  0  2  0  0  0  0  0  0
  180.6230  175.0880  138.9020 C   0  0  0  0  0  3  0  0  0  0  0  0
  180.9540  173.7730  136.8950 C   0  0  0  0  0  1  0  0  0  0  0  0
  181.3880  174.8430  137.8380 C   0  0  0  0  0  0  0  0  0  0  0  0
  184.2230  173.8260  137.4790 N   0  0  0  0  0  0  0  0  0  0  0  0
  182.5800  175.6100  137.6130 N   0  0  0  0  0  2  0  0  0  0  0  0
  183.9030  175.0970  137.4170 C   0  0  0  0  0  0  0  0  0  0  0  0
  186.0970  175.0570  137.0670 C   0  0  0  0  0  0  0  0  0  0  0  0
  187.4020  175.4150  136.8380 C   0  0  0  0  0  0  0  0  0  0  0  0
  185.2800  177.2610  137.0200 N   0  0  0  0  0  0  0  0  0  0  0  0
  185.0830  175.9250  137.1570 C   0  0  0  0  0  0  0  0  0  0  0  0
  187.8990  173.0220  136.9700 C   0  0  0  0  0  3  0  0  0  0  0  0
  185.6400  173.8000  137.2490 C   0  0  0  0  0  0  0  0  0  0  0  0
  187.6540  176.7960  136.6860 C   0  0  0  0  0  0  0  0  0  0  0  0
  189.3040  177.4190  136.3820 S   0  0  0  0  0  1  0  0  0  0  0  0
  188.3400  174.3630  136.7840 C   0  0  0  0  0  3  0  0  0  0  0  0
  186.5610  177.7080  136.7840 C   0  0  0  0  0  3  0  0  0  0  0  0
  186.5300  172.7250  137.2090 C   0  0  0  0  0  3  0  0  0  0  0  0
  182.7550  178.7040  141.8950 C   0  0  0  0  0  2  0  0  0  0  0  0
  184.9920  178.2480  142.9190 C   0  0  0  0  0  3  0  0  0  0  0  0
  183.1810  179.0030  144.3380 C   0  0  0  0  0  3  0  0  0  0  0  0
  184.0340  178.9660  145.4460 C   0  0  0  0  0  3  0  0  0  0  0  0
  185.3720  178.5700  145.2980 C   0  0  0  0  0  0  0  0  0  0  0  0
  183.6580  178.6390  143.0760 C   0  0  0  0  0  0  0  0  0  0  0  0
  185.8450  178.2120  144.0270 C   0  0  0  0  0  3  0  0  0  0  0  0
  186.0990  179.3410  147.4200 O   0  0  0  0  0  0  0  0  0  0  0  0
  186.2740  178.5380  146.4620 C   0  0  0  0  0  0  0  0  0  0  0  0
  187.3540  177.6000  146.5090 N   0  0  0  0  0  2  0  0  0  0  0  0
  188.2740  177.5830  147.5670 N   0  0  0  0  0  2  0  0  0  0  0  0
  189.3190  176.6250  147.2290 C   0  0  0  0  0  2  0  0  0  0  0  0
  190.4930  177.3270  146.5400 C   0  0  2  0  0  3  0  0  0  0  0  0
  190.4360  176.5260  143.1800 C   0  0  0  0  0  0  0  0  0  0  0  0
  190.2300  175.6660  142.2850 O   0  0  0  0  0  0  0  0  0  0  0  0
  191.4120  178.2640  144.3290 C   0  0  1  0  0  3  0  0  0  0  0  0
  190.1740  177.7540  145.1020 C   0  0  1  0  0  3  0  0  0  0  0  0
  191.4900  177.4630  143.1170 N   0  0  0  0  0  2  0  0  0  0  0  0
  191.2240  179.7250  143.9660 C   0  0  0  0  0  1  0  0  0  0  0  0
  189.6360  176.6370  144.3360 N   0  0  0  0  0  2  0  0  0  0  0  0
  191.6690  175.4760  147.7320 C   0  0  0  0  0  1  0  0  0  0  0  0
  191.7250  176.4360  146.5580 C   0  0  0  0  0  2  0  0  0  0  0  0
  2  1  1  0  0  0  0
  3  2  1  0  0  0  0
  4  5  1  0  0  0  0
  4  3  1  0  0  0  0
  6  5  1  0  0  0  0
  7  8  1  0  0  0  0
  8  6  2  0  0  0  0
 10  8  1  0  0  0  0
 11  9  2  0  0  0  0
 11 10  1  0  0  0  0
 12 15  2  0  0  0  0
 12 17  1  0  0  0  0
 13 12  1  0  0  0  0
 14 15  1  0  0  0  0
 15 11  1  0  0  0  0
 16 22  1  0  0  0  0
 17  9  1  0  0  0  0
 18 21  1  0  0  0  0
 18 13  2  0  0  0  0
 19 18  1  0  0  0  0
 20 13  1  0  0  0  0
 20 16  2  0  0  0  0
 21 14  2  0  0  0  0
 22 17  2  0  0  0  0
 23  1  1  0  0  0  0
 23 28  1  0  0  0  0
 24 28  2  0  0  0  0
 24 29  1  0  0  0  0
 25 26  2  0  0  0  0
 27 26  1  0  0  0  0
 27 31  1  0  0  0  0
 28 25  1  0  0  0  0
 29 27  2  0  0  0  0
 31 32  1  0  0  0  0
 31 30  2  0  0  0  0
 32 33  1  0  0  0  0
 34 33  1  0  0  0  0
 35 44  1  6  0  0  0
 35 34  1  0  0  0  0
 36 42  1  0  0  0  0
 37 36  2  0  0  0  0
 38 41  1  6  0  0  0
 38 39  1  0  0  0  0
 39 35  1  1  0  0  0
 40 36  1  0  0  0  0
 40 38  1  0  0  0  0
 42 39  1  0  0  0  0
 44 43  1  0  0  0  0
M  END
>  <MODEL>
7

>  <REMARK>
 VINA RESULT:      -8.2      3.050      8.197
  Name = 
  14 active torsions:
  status: ('A' for Active; 'I' for Inactive)
    1  A    between atoms: C_5  and  C_12
    2  A    between atoms: C_5  and  N_31
    3  A    between atoms: N_8  and  C_33
    4  A    between atoms: C_11  and  C_44
    5  A    between atoms: C_18  and  N_27
    6  A    between atoms: C_18  and  C_44
    7  A    between atoms: C_19  and  C_44
    8  A    between atoms: C_21  and  C_29
    9  A    between atoms: N_27  and  N_34
   10  A    between atoms: N_31  and  C_38
   11  A    between atoms: C_35  and  C_42
   12  A    between atoms: C_37  and  C_38
   13  A    between atoms: C_37  and  N_40
   14  A    between atoms: N_40  and  C_42
                            x       y       z     vdW  Elec       q    Type
                         _______ _______ _______ _____ _____    ______ ____

>  <TORSDO>
F 14

$$$$
=
 OpenBabel10222417283D

 44 48  0  0  1  0  0  0  0  0999 V2000
  190.3680  177.6360  145.2370 N   0  0  0  0  0  2  0  0  0  0  0  0
  191.2550  176.4890  145.2330 C   0  0  0  0  0  2  0  0  0  0  0  0
  191.6770  176.1780  143.8100 C   0  0  0  0  0  2  0  0  0  0  0  0
  191.0710  177.1340  142.8990 N   0  0  0  0  0  2  0  0  0  0  0  0
  190.1790  176.3920  142.0210 C   0  0  0  0  0  2  0  0  0  0  0  0
  189.4450  177.3380  141.1260 C   0  0  0  0  0  3  0  0  0  0  0  0
  189.0510  178.5990  139.0950 C   0  0  0  0  0  1  0  0  0  0  0  0
  189.8680  177.6470  139.9000 C   0  0  0  0  0  0  0  0  0  0  0  0
  190.1980  175.3470  137.9500 N   0  0  0  0  0  0  0  0  0  0  0  0
  191.0890  177.0850  139.3950 N   0  0  0  0  0  2  0  0  0  0  0  0
  191.2110  176.0160  138.4500 C   0  0  0  0  0  0  0  0  0  0  0  0
  192.1450  174.5040  137.1160 C   0  0  0  0  0  0  0  0  0  0  0  0
  193.0460  173.7320  136.4240 C   0  0  0  0  0  0  0  0  0  0  0  0
  193.7830  175.8330  138.1540 N   0  0  0  0  0  0  0  0  0  0  0  0
  192.4840  175.5020  137.9390 C   0  0  0  0  0  0  0  0  0  0  0  0
  191.0930  172.5460  135.5480 C   0  0  0  0  0  3  0  0  0  0  0  0
  190.8020  174.3730  137.0860 C   0  0  0  0  0  0  0  0  0  0  0  0
  194.4100  174.0440  136.6150 C   0  0  0  0  0  0  0  0  0  0  0  0
  195.7040  173.1280  135.7830 S   0  0  0  0  0  1  0  0  0  0  0  0
  192.5050  172.7170  135.6080 C   0  0  0  0  0  3  0  0  0  0  0  0
  194.7550  175.1110  137.4970 C   0  0  0  0  0  3  0  0  0  0  0  0
  190.2180  173.3800  136.2960 C   0  0  0  0  0  3  0  0  0  0  0  0
  189.4350  177.4380  146.3320 C   0  0  0  0  0  2  0  0  0  0  0  0
  187.0890  178.1650  146.8070 C   0  0  0  0  0  3  0  0  0  0  0  0
  187.7260  177.6670  144.5260 C   0  0  0  0  0  3  0  0  0  0  0  0
  186.4340  177.9840  144.0950 C   0  0  0  0  0  3  0  0  0  0  0  0
  185.4600  178.3950  145.0180 C   0  0  0  0  0  0  0  0  0  0  0  0
  188.0520  177.7520  145.8820 C   0  0  0  0  0  0  0  0  0  0  0  0
  185.7960  178.4840  146.3770 C   0  0  0  0  0  3  0  0  0  0  0  0
  183.2010  179.0020  145.4100 O   0  0  0  0  0  0  0  0  0  0  0  0
  184.1010  178.7380  144.5660 C   0  0  0  0  0  0  0  0  0  0  0  0
  183.7960  178.7690  143.1680 N   0  0  0  0  0  2  0  0  0  0  0  0
  182.4980  179.0250  142.6980 N   0  0  0  0  0  2  0  0  0  0  0  0
  182.1190  177.9240  141.8220 C   0  0  0  0  0  2  0  0  0  0  0  0
  181.2330  178.4250  140.6780 C   0  0  2  0  0  3  0  0  0  0  0  0
  184.2760  179.1920  139.2340 C   0  0  0  0  0  0  0  0  0  0  0  0
  185.5180  178.9990  139.1820 O   0  0  0  0  0  0  0  0  0  0  0  0
  182.2530  180.2880  139.2290 C   0  0  1  0  0  3  0  0  0  0  0  0
  182.0270  178.7690  139.4120 C   0  0  1  0  0  3  0  0  0  0  0  0
  183.6910  180.4680  139.0920 N   0  0  0  0  0  2  0  0  0  0  0  0
  181.5560  180.7620  137.9680 C   0  0  0  0  0  1  0  0  0  0  0  0
  183.3470  178.1520  139.4420 N   0  0  0  0  0  2  0  0  0  0  0  0
  179.0330  179.2010  141.5640 C   0  0  0  0  0  1  0  0  0  0  0  0
  180.4210  179.6300  141.1280 C   0  0  0  0  0  2  0  0  0  0  0  0
  1 23  1  0  0  0  0
  2  1  1  0  0  0  0
  3  2  1  0  0  0  0
  4  3  1  0  0  0  0
  5  4  1  0  0  0  0
  6  5  1  0  0  0  0
  7  8  1  0  0  0  0
  8  6  2  0  0  0  0
  9 11  2  0  0  0  0
 10  8  1  0  0  0  0
 11 10  1  0  0  0  0
 12 15  2  0  0  0  0
 13 18  2  0  0  0  0
 13 12  1  0  0  0  0
 15 14  1  0  0  0  0
 15 11  1  0  0  0  0
 16 20  2  0  0  0  0
 16 22  1  0  0  0  0
 17 12  1  0  0  0  0
 17  9  1  0  0  0  0
 18 21  1  0  0  0  0
 19 18  1  0  0  0  0
 20 13  1  0  0  0  0
 21 14  2  0  0  0  0
 22 17  2  0  0  0  0
 25 28  1  0  0  0  0
 26 25  2  0  0  0  0
 26 27  1  0  0  0  0
 27 29  2  0  0  0  0
 28 23  1  0  0  0  0
 28 24  2  0  0  0  0
 29 24  1  0  0  0  0
 31 27  1  0  0  0  0
 31 30  2  0  0  0  0
 32 31  1  0  0  0  0
 33 32  1  0  0  0  0
 34 33  1  0  0  0  0
 35 44  1  1  0  0  0
 35 34  1  0  0  0  0
 36 42  1  0  0  0  0
 37 36  2  0  0  0  0
 38 41  1  6  0  0  0
 38 39  1  0  0  0  0
 39 42  1  0  0  0  0
 39 35  1  1  0  0  0
 40 38  1  0  0  0  0
 40 36  1  0  0  0  0
 44 43  1  0  0  0  0
M  END
>  <MODEL>
8

>  <REMARK>
 VINA RESULT:      -8.2      1.933      2.742
  Name = 
  14 active torsions:
  status: ('A' for Active; 'I' for Inactive)
    1  A    between atoms: C_5  and  C_12
    2  A    between atoms: C_5  and  N_31
    3  A    between atoms: N_8  and  C_33
    4  A    between atoms: C_11  and  C_44
    5  A    between atoms: C_18  and  N_27
    6  A    between atoms: C_18  and  C_44
    7  A    between atoms: C_19  and  C_44
    8  A    between atoms: C_21  and  C_29
    9  A    between atoms: N_27  and  N_34
   10  A    between atoms: N_31  and  C_38
   11  A    between atoms: C_35  and  C_42
   12  A    between atoms: C_37  and  C_38
   13  A    between atoms: C_37  and  N_40
   14  A    between atoms: N_40  and  C_42
                            x       y       z     vdW  Elec       q    Type
                         _______ _______ _______ _____ _____    ______ ____

>  <TORSDO>
F 14

$$$$
=
 OpenBabel10222417283D

 44 48  0  0  1  0  0  0  0  0999 V2000
  190.7820  177.3730  142.0880 N   0  0  0  0  0  2  0  0  0  0  0  0
  191.6030  177.2590  143.2790 C   0  0  0  0  0  2  0  0  0  0  0  0
  191.7170  175.8010  143.6790 C   0  0  0  0  0  2  0  0  0  0  0  0
  191.6750  175.6850  145.1270 N   0  0  0  0  0  2  0  0  0  0  0  0
  191.5630  177.0320  145.6670 C   0  0  0  0  0  2  0  0  0  0  0  0
  190.6260  177.0360  146.8320 C   0  0  0  0  0  3  0  0  0  0  0  0
  188.4730  177.1870  147.9330 C   0  0  0  0  0  1  0  0  0  0  0  0
  189.3110  177.2070  146.6990 C   0  0  0  0  0  0  0  0  0  0  0  0
  186.4610  177.9980  146.0240 N   0  0  0  0  0  0  0  0  0  0  0  0
  188.7370  177.4230  145.4010 N   0  0  0  0  0  2  0  0  0  0  0  0
  187.3930  177.8250  145.1170 C   0  0  0  0  0  0  0  0  0  0  0  0
  185.5820  178.3900  143.9570 C   0  0  0  0  0  0  0  0  0  0  0  0
  184.7050  178.6860  142.9440 C   0  0  0  0  0  0  0  0  0  0  0  0
  187.4090  178.0070  142.5270 N   0  0  0  0  0  0  0  0  0  0  0  0
  186.8670  178.0660  143.7710 C   0  0  0  0  0  0  0  0  0  0  0  0
  183.0380  178.9840  144.7110 C   0  0  0  0  0  3  0  0  0  0  0  0
  185.2930  178.3660  145.2760 C   0  0  0  0  0  0  0  0  0  0  0  0
  185.2270  178.6410  141.6330 C   0  0  0  0  0  0  0  0  0  0  0  0
  184.2070  179.0020  140.2060 S   0  0  0  0  0  1  0  0  0  0  0  0
  183.3850  178.9970  143.3300 C   0  0  0  0  0  3  0  0  0  0  0  0
  186.5980  178.2930  141.4510 C   0  0  0  0  0  3  0  0  0  0  0  0
  183.9990  178.6630  145.7080 C   0  0  0  0  0  3  0  0  0  0  0  0
  191.6650  177.1710  140.9530 C   0  0  0  0  0  2  0  0  0  0  0  0
  191.2350  176.5050  138.5790 C   0  0  0  0  0  3  0  0  0  0  0  0
  189.8040  178.1620  139.6140 C   0  0  0  0  0  3  0  0  0  0  0  0
  189.0620  178.2590  138.4330 C   0  0  0  0  0  3  0  0  0  0  0  0
  189.4010  177.4800  137.3160 C   0  0  0  0  0  0  0  0  0  0  0  0
  190.8940  177.2900  139.6860 C   0  0  0  0  0  0  0  0  0  0  0  0
  190.4920  176.6010  137.3980 C   0  0  0  0  0  3  0  0  0  0  0  0
  189.1850  177.4530  134.9550 O   0  0  0  0  0  0  0  0  0  0  0  0
  188.6160  177.5740  136.0740 C   0  0  0  0  0  0  0  0  0  0  0  0
  187.2050  177.8080  136.1320 N   0  0  0  0  0  2  0  0  0  0  0  0
  186.4330  177.9710  134.9720 N   0  0  0  0  0  2  0  0  0  0  0  0
  185.4860  176.8650  134.9110 C   0  0  0  0  0  2  0  0  0  0  0  0
  185.4340  176.1230  136.2500 C   0  0  2  0  0  3  0  0  0  0  0  0
  184.8000  172.8750  137.2390 C   0  0  0  0  0  0  0  0  0  0  0  0
  183.9600  171.9990  137.5720 O   0  0  0  0  0  0  0  0  0  0  0  0
  186.7310  174.1250  137.2190 C   0  0  1  0  0  3  0  0  0  0  0  0
  185.7660  174.6320  136.1210 C   0  0  1  0  0  3  0  0  0  0  0  0
  186.0630  172.9990  137.8550 N   0  0  0  0  0  2  0  0  0  0  0  0
  188.0290  173.6590  136.5860 C   0  0  0  0  0  1  0  0  0  0  0  0
  184.5590  173.8200  136.2210 N   0  0  0  0  0  2  0  0  0  0  0  0
  183.3670  177.5180  136.3310 C   0  0  0  0  0  1  0  0  0  0  0  0
  184.0710  176.3000  136.8990 C   0  0  0  0  0  2  0  0  0  0  0  0
  1  2  1  0  0  0  0
  2  3  1  0  0  0  0
  3  4  1  0  0  0  0
  4  5  1  0  0  0  0
  5  6  1  0  0  0  0
  8  6  2  0  0  0  0
  8  7  1  0  0  0  0
 10  8  1  0  0  0  0
 11 10  1  0  0  0  0
 11  9  2  0  0  0  0
 12 17  1  0  0  0  0
 13 20  1  0  0  0  0
 13 12  1  0  0  0  0
 14 15  1  0  0  0  0
 15 12  2  0  0  0  0
 15 11  1  0  0  0  0
 16 22  1  0  0  0  0
 17 22  2  0  0  0  0
 17  9  1  0  0  0  0
 18 13  2  0  0  0  0
 19 18  1  0  0  0  0
 20 16  2  0  0  0  0
 21 18  1  0  0  0  0
 21 14  2  0  0  0  0
 23  1  1  0  0  0  0
 24 28  1  0  0  0  0
 25 28  2  0  0  0  0
 26 25  1  0  0  0  0
 27 29  1  0  0  0  0
 27 26  2  0  0  0  0
 28 23  1  0  0  0  0
 29 24  2  0  0  0  0
 30 31  2  0  0  0  0
 31 32  1  0  0  0  0
 31 27  1  0  0  0  0
 33 32  1  0  0  0  0
 34 33  1  0  0  0  0
 35 34  1  6  0  0  0
 35 44  1  0  0  0  0
 36 37  2  0  0  0  0
 36 40  1  0  0  0  0
 38 41  1  6  0  0  0
 38 40  1  0  0  0  0
 39 42  1  0  0  0  0
 39 35  1  1  0  0  0
 39 38  1  0  0  0  0
 42 36  1  0  0  0  0
 43 44  1  0  0  0  0
M  END
>  <MODEL>
9

>  <REMARK>
 VINA RESULT:      -8.1      3.765      7.741
  Name = 
  14 active torsions:
  status: ('A' for Active; 'I' for Inactive)
    1  A    between atoms: C_5  and  C_12
    2  A    between atoms: C_5  and  N_31
    3  A    between atoms: N_8  and  C_33
    4  A    between atoms: C_11  and  C_44
    5  A    between atoms: C_18  and  N_27
    6  A    between atoms: C_18  and  C_44
    7  A    between atoms: C_19  and  C_44
    8  A    between atoms: C_21  and  C_29
    9  A    between atoms: N_27  and  N_34
   10  A    between atoms: N_31  and  C_38
   11  A    between atoms: C_35  and  C_42
   12  A    between atoms: C_37  and  C_38
   13  A    between atoms: C_37  and  N_40
   14  A    between atoms: N_40  and  C_42
                            x       y       z     vdW  Elec       q    Type
                         _______ _______ _______ _____ _____    ______ ____

>  <TORSDO>
F 14

$$$$
