=
 OpenBabel10222416353D

 32 36  0  0  1  0  0  0  0  0999 V2000
  186.9040  178.3550  140.2910 C   0  0  0  0  0  0  0  0  0  0  0  0
  188.7430  176.9870  142.9270 C   0  0  0  0  0  2  0  0  0  0  0  0
  184.5950  178.6000  142.1330 C   0  0  0  0  0  0  0  0  0  0  0  0
  188.3480  178.2350  142.2740 N   0  0  0  0  0  0  0  0  0  0  0  0
  185.3700  178.4930  139.5700 S   0  0  0  0  0  0  0  0  0  0  0  0
  187.4510  176.7120  145.1990 C   0  0  1  0  0  3  0  0  0  0  0  0
  188.4900  178.0320  148.6740 C   0  0  0  0  0  1  0  0  0  0  0  0
  184.2110  178.6270  140.7640 C   0  0  0  0  0  0  0  0  0  0  0  0
  188.6890  177.5820  147.2430 C   0  0  1  0  0  3  0  0  0  0  0  0
  187.0350  178.3780  141.7090 C   0  0  0  0  0  0  0  0  0  0  0  0
  189.5570  178.3150  144.9950 C   0  0  2  0  0  3  0  0  0  0  0  0
  187.3650  177.0910  146.6830 C   0  0  0  0  0  2  0  0  0  0  0  0
  189.3310  179.2880  142.0720 C   0  0  0  0  0  1  0  0  0  0  0  0
  182.3860  178.7020  141.8770 N   0  0  0  0  0  0  0  0  0  0  0  0
  182.8810  178.6840  140.6440 N   0  0  0  0  0  0  0  0  0  0  0  0
  186.2080  177.0500  144.5010 N   0  0  0  0  0  2  0  0  0  0  0  0
  185.9260  178.5220  142.6040 C   0  0  0  0  0  0  0  0  0  0  0  0
  185.3350  179.3040  144.9670 C   0  0  0  0  0  1  0  0  0  0  0  0
  189.1500  178.7580  146.4040 C   0  0  0  0  0  2  0  0  0  0  0  0
  183.3840  178.6480  142.7980 C   0  0  0  0  0  3  0  0  0  0  0  0
  186.2220  178.4440  144.0800 C   0  0  1  0  0  3  0  0  0  0  0  0
  188.7660  177.1040  144.4610 C   0  0  2  0  0  3  0  0  0  0  0  0
  189.1370  177.2980  138.9120 C   0  0  0  0  0  2  0  0  0  0  0  0
  188.0360  178.1530  139.4460 N   0  0  0  0  0  0  0  0  0  0  0  0
  189.0520  178.5910  138.4440 C   0  0  0  0  0  2  0  0  0  0  0  0
  191.0470  177.9980  144.9550 C   0  0  0  0  0  2  0  0  0  0  0  0
  191.3120  176.6600  145.4640 N   0  0  0  0  0  0  0  0  0  0  0  0
  191.9350  174.7900  143.8220 N   0  0  0  0  0  0  0  0  0  0  0  0
  191.6540  175.6340  144.5630 C   0  0  0  0  0  0  0  0  0  0  0  0
  191.2870  176.4710  146.9170 C   0  0  0  0  0  2  0  0  0  0  0  0
  193.0650  176.2180  148.5660 N   0  0  0  0  0  1  0  0  0  0  0  0
  192.4080  175.5780  147.4390 C   0  0  0  0  0  2  0  0  0  0  0  0
  1 10  2  0  0  0  0
  3 17  2  0  0  0  0
  3 20  1  0  0  0  0
  4  2  1  0  0  0  0
  5  1  1  0  0  0  0
  5  8  1  0  0  0  0
  6 12  1  1  0  0  0
  8  3  1  0  0  0  0
  9  7  1  1  0  0  0
 10  4  1  0  0  0  0
 10 17  1  0  0  0  0
 11 26  1  1  0  0  0
 11 19  1  0  0  0  0
 12  9  1  0  0  0  0
 13  4  1  0  0  0  0
 14 20  2  0  0  0  0
 15  8  2  0  0  0  0
 15 14  1  0  0  0  0
 16  6  1  0  0  0  0
 17 21  1  0  0  0  0
 19  9  1  0  0  0  0
 21 16  1  0  0  0  0
 21 18  1  1  0  0  0
 22  2  1  6  0  0  0
 22 11  1  0  0  0  0
 22  6  1  0  0  0  0
 23 24  1  0  0  0  0
 24  1  1  0  0  0  0
 25 23  1  0  0  0  0
 25 24  1  0  0  0  0
 26 27  1  0  0  0  0
 27 30  1  0  0  0  0
 28 29  3  0  0  0  0
 29 27  1  0  0  0  0
 30 32  1  0  0  0  0
 32 31  1  0  0  0  0
M  END
>  <MODEL>
1

>  <REMARK>
 VINA RESULT:      -6.9      0.000      0.000
  Name = 
  6 active torsions:
  status: ('A' for Active; 'I' for Inactive)
    1  A    between atoms: C_1  and  N_20
    2  A    between atoms: C_13  and  C_24
    3  A    between atoms: C_17  and  C_30
    4  A    between atoms: C_24  and  N_27
    5  A    between atoms: N_27  and  C_30
    6  A    between atoms: N_27  and  C_31
                            x       y       z     vdW  Elec       q    Type
                         _______ _______ _______ _____ _____    ______ ____

>  <TORSDO>
F 6

$$$$
=
 OpenBabel10222416353D

 32 36  0  0  1  0  0  0  0  0999 V2000
  185.1880  178.5430  140.6420 C   0  0  0  0  0  0  0  0  0  0  0  0
  187.8610  176.9900  142.2680 C   0  0  0  0  0  2  0  0  0  0  0  0
  183.8180  178.7510  143.2620 C   0  0  0  0  0  0  0  0  0  0  0  0
  187.2950  178.2800  141.8750 N   0  0  0  0  0  0  0  0  0  0  0  0
  183.5010  178.7590  140.6020 S   0  0  0  0  0  0  0  0  0  0  0  0
  187.5710  176.6290  144.8540 C   0  0  1  0  0  3  0  0  0  0  0  0
  189.9680  177.7350  147.6710 C   0  0  0  0  0  1  0  0  0  0  0  0
  182.9220  178.8600  142.1630 C   0  0  0  0  0  0  0  0  0  0  0  0
  189.5590  177.3560  146.2630 C   0  0  1  0  0  3  0  0  0  0  0  0
  185.8740  178.4870  141.8890 C   0  0  0  0  0  0  0  0  0  0  0  0
  189.4910  178.1840  143.8860 C   0  0  2  0  0  3  0  0  0  0  0  0
  188.1010  176.9310  146.2620 C   0  0  0  0  0  2  0  0  0  0  0  0
  188.1630  179.3170  141.3370 C   0  0  0  0  0  1  0  0  0  0  0  0
  181.6980  178.9250  143.9160 N   0  0  0  0  0  0  0  0  0  0  0  0
  181.6590  178.9590  142.5880 N   0  0  0  0  0  0  0  0  0  0  0  0
  186.1700  177.0360  144.7260 N   0  0  0  0  0  2  0  0  0  0  0  0
  185.2210  178.6130  143.1580 C   0  0  0  0  0  0  0  0  0  0  0  0
  185.6580  179.2850  145.5880 C   0  0  0  0  0  1  0  0  0  0  0  0
  189.7000  178.5630  145.3550 C   0  0  0  0  0  2  0  0  0  0  0  0
  182.9760  178.7960  144.3580 C   0  0  0  0  0  3  0  0  0  0  0  0
  186.0780  178.4500  144.3870 C   0  0  1  0  0  3  0  0  0  0  0  0
  188.4990  177.0250  143.6670 C   0  0  2  0  0  3  0  0  0  0  0  0
  185.9460  178.4310  137.9190 C   0  0  0  0  0  2  0  0  0  0  0  0
  185.8790  178.3560  139.4080 N   0  0  0  0  0  0  0  0  0  0  0  0
  187.0470  177.9320  138.5800 C   0  0  0  0  0  2  0  0  0  0  0  0
  190.8260  177.8310  143.2400 C   0  0  0  0  0  2  0  0  0  0  0  0
  190.7560  176.5440  142.5630 N   0  0  0  0  0  0  0  0  0  0  0  0
  190.5840  176.4750  140.0060 N   0  0  0  0  0  0  0  0  0  0  0  0
  190.6620  176.5060  141.1600 C   0  0  0  0  0  0  0  0  0  0  0  0
  190.8710  175.3380  143.3890 C   0  0  0  0  0  2  0  0  0  0  0  0
  192.4410  174.0310  144.7200 N   0  0  0  0  0  1  0  0  0  0  0  0
  192.0290  175.3820  144.3810 C   0  0  0  0  0  2  0  0  0  0  0  0
  1 10  2  0  0  0  0
  3 20  1  0  0  0  0
  4 10  1  0  0  0  0
  4  2  1  0  0  0  0
  5  1  1  0  0  0  0
  5  8  1  0  0  0  0
  6 12  1  1  0  0  0
  8 15  2  0  0  0  0
  8  3  1  0  0  0  0
  9  7  1  1  0  0  0
 10 17  1  0  0  0  0
 11 26  1  1  0  0  0
 11 19  1  0  0  0  0
 12  9  1  0  0  0  0
 13  4  1  0  0  0  0
 14 20  2  0  0  0  0
 15 14  1  0  0  0  0
 16  6  1  0  0  0  0
 17  3  2  0  0  0  0
 17 21  1  0  0  0  0
 19  9  1  0  0  0  0
 21 16  1  0  0  0  0
 21 18  1  1  0  0  0
 22  2  1  6  0  0  0
 22 11  1  0  0  0  0
 22  6  1  0  0  0  0
 23 25  1  0  0  0  0
 23 24  1  0  0  0  0
 24  1  1  0  0  0  0
 25 24  1  0  0  0  0
 27 26  1  0  0  0  0
 27 30  1  0  0  0  0
 28 29  3  0  0  0  0
 29 27  1  0  0  0  0
 30 32  1  0  0  0  0
 32 31  1  0  0  0  0
M  END
>  <MODEL>
2

>  <REMARK>
 VINA RESULT:      -6.5      1.695      2.179
  Name = 
  6 active torsions:
  status: ('A' for Active; 'I' for Inactive)
    1  A    between atoms: C_1  and  N_20
    2  A    between atoms: C_13  and  C_24
    3  A    between atoms: C_17  and  C_30
    4  A    between atoms: C_24  and  N_27
    5  A    between atoms: N_27  and  C_30
    6  A    between atoms: N_27  and  C_31
                            x       y       z     vdW  Elec       q    Type
                         _______ _______ _______ _____ _____    ______ ____

>  <TORSDO>
F 6

$$$$
=
 OpenBabel10222416353D

 32 36  0  0  1  0  0  0  0  0999 V2000
  190.3870  177.0950  138.8270 C   0  0  0  0  0  0  0  0  0  0  0  0
  190.5500  176.0770  142.1640 C   0  0  0  0  0  2  0  0  0  0  0  0
  187.5880  177.9450  139.3060 C   0  0  0  0  0  0  0  0  0  0  0  0
  190.7320  177.2090  141.2550 N   0  0  0  0  0  0  0  0  0  0  0  0
  189.3960  177.2550  137.4530 S   0  0  0  0  0  0  0  0  0  0  0  0
  188.3480  176.3930  143.5640 C   0  0  1  0  0  3  0  0  0  0  0  0
  187.9400  178.2470  146.9260 C   0  0  0  0  0  1  0  0  0  0  0  0
  187.8730  177.7450  137.9260 C   0  0  0  0  0  0  0  0  0  0  0  0
  188.6730  177.5070  145.8280 C   0  0  1  0  0  3  0  0  0  0  0  0
  189.8670  177.3800  140.1220 C   0  0  0  0  0  0  0  0  0  0  0  0
  190.5790  177.6870  144.1920 C   0  0  2  0  0  3  0  0  0  0  0  0
  187.6760  177.0630  144.7710 C   0  0  0  0  0  2  0  0  0  0  0  0
  191.8800  178.0890  141.4180 C   0  0  0  0  0  1  0  0  0  0  0  0
  185.7930  178.2350  138.0210 N   0  0  0  0  0  0  0  0  0  0  0  0
  186.7770  177.9220  137.1830 N   0  0  0  0  0  0  0  0  0  0  0  0
  187.6410  176.7220  142.3250 N   0  0  0  0  0  2  0  0  0  0  0  0
  188.5230  177.8160  140.3580 C   0  0  0  0  0  0  0  0  0  0  0  0
  187.0910  179.1050  142.0410 C   0  0  0  0  0  1  0  0  0  0  0  0
  189.6740  178.4390  145.1720 C   0  0  0  0  0  2  0  0  0  0  0  0
  186.2400  178.2540  139.3040 C   0  0  0  0  0  3  0  0  0  0  0  0
  188.1040  177.9970  141.7940 C   0  0  1  0  0  3  0  0  0  0  0  0
  189.9020  176.4890  143.4980 C   0  0  2  0  0  3  0  0  0  0  0  0
  192.6830  175.5160  138.3410 C   0  0  0  0  0  2  0  0  0  0  0  0
  191.7170  176.6090  138.6540 N   0  0  0  0  0  0  0  0  0  0  0  0
  193.2030  176.7520  138.6530 C   0  0  0  0  0  2  0  0  0  0  0  0
  191.8400  177.2080  144.9040 C   0  0  0  0  0  2  0  0  0  0  0  0
  191.5870  175.9830  145.6470 N   0  0  0  0  0  0  0  0  0  0  0  0
  192.4400  173.7500  144.7180 N   0  0  0  0  0  0  0  0  0  0  0  0
  192.0550  174.7570  145.1380 C   0  0  0  0  0  0  0  0  0  0  0  0
  190.9200  176.1050  146.9460 C   0  0  0  0  0  2  0  0  0  0  0  0
  192.9030  176.0020  148.3620 N   0  0  0  0  0  1  0  0  0  0  0  0
  191.7580  176.8210  148.0020 C   0  0  0  0  0  2  0  0  0  0  0  0
  1 10  2  0  0  0  0
  3 17  2  0  0  0  0
  4 13  1  0  0  0  0
  4  2  1  0  0  0  0
  5  8  1  0  0  0  0
  5  1  1  0  0  0  0
  6 12  1  1  0  0  0
  8  3  1  0  0  0  0
  9  7  1  1  0  0  0
 10 17  1  0  0  0  0
 10  4  1  0  0  0  0
 11 26  1  1  0  0  0
 11 19  1  0  0  0  0
 12  9  1  0  0  0  0
 14 20  2  0  0  0  0
 15  8  2  0  0  0  0
 15 14  1  0  0  0  0
 16  6  1  0  0  0  0
 17 21  1  0  0  0  0
 19  9  1  0  0  0  0
 20  3  1  0  0  0  0
 21 18  1  6  0  0  0
 21 16  1  0  0  0  0
 22  2  1  6  0  0  0
 22  6  1  0  0  0  0
 22 11  1  0  0  0  0
 23 25  1  0  0  0  0
 23 24  1  0  0  0  0
 24  1  1  0  0  0  0
 25 24  1  0  0  0  0
 26 27  1  0  0  0  0
 27 30  1  0  0  0  0
 28 29  3  0  0  0  0
 29 27  1  0  0  0  0
 30 32  1  0  0  0  0
 32 31  1  0  0  0  0
M  END
>  <MODEL>
3

>  <REMARK>
 VINA RESULT:      -6.2      2.186      3.089
  Name = 
  6 active torsions:
  status: ('A' for Active; 'I' for Inactive)
    1  A    between atoms: C_1  and  N_20
    2  A    between atoms: C_13  and  C_24
    3  A    between atoms: C_17  and  C_30
    4  A    between atoms: C_24  and  N_27
    5  A    between atoms: N_27  and  C_30
    6  A    between atoms: N_27  and  C_31
                            x       y       z     vdW  Elec       q    Type
                         _______ _______ _______ _____ _____    ______ ____

>  <TORSDO>
F 6

$$$$
=
 OpenBabel10222416353D

 32 36  0  0  1  0  0  0  0  0999 V2000
  181.9040  173.3860  137.2970 C   0  0  0  0  0  0  0  0  0  0  0  0
  183.0860  176.6210  136.7200 C   0  0  0  0  0  2  0  0  0  0  0  0
  184.4890  172.3460  136.2890 C   0  0  0  0  0  0  0  0  0  0  0  0
  183.0320  175.5300  137.6920 N   0  0  0  0  0  0  0  0  0  0  0  0
  181.9170  171.7690  136.7680 S   0  0  0  0  0  0  0  0  0  0  0  0
  185.4970  176.7890  135.6880 C   0  0  1  0  0  3  0  0  0  0  0  0
  188.5050  178.7950  137.0430 C   0  0  0  0  0  1  0  0  0  0  0  0
  183.4530  171.3720  136.2500 C   0  0  0  0  0  0  0  0  0  0  0  0
  187.0470  178.4320  136.8570 C   0  0  1  0  0  3  0  0  0  0  0  0
  183.0970  174.1630  137.2580 C   0  0  0  0  0  0  0  0  0  0  0  0
  184.9560  177.7690  138.0940 C   0  0  2  0  0  3  0  0  0  0  0  0
  186.9370  177.2930  135.8580 C   0  0  0  0  0  2  0  0  0  0  0  0
  182.7740  175.8230  139.0940 C   0  0  0  0  0  1  0  0  0  0  0  0
  185.1640  170.4300  135.3780 N   0  0  0  0  0  0  0  0  0  0  0  0
  183.8880  170.2370  135.6950 N   0  0  0  0  0  0  0  0  0  0  0  0
  185.4750  175.3410  135.4700 N   0  0  0  0  0  2  0  0  0  0  0  0
  184.3550  173.6580  136.7970 C   0  0  0  0  0  0  0  0  0  0  0  0
  186.8770  174.0350  137.0150 C   0  0  0  0  0  1  0  0  0  0  0  0
  186.4730  177.9590  138.1800 C   0  0  0  0  0  2  0  0  0  0  0  0
  185.5600  171.6850  135.7150 C   0  0  0  0  0  3  0  0  0  0  0  0
  185.5040  174.6320  136.7420 C   0  0  1  0  0  3  0  0  0  0  0  0
  184.4500  177.3330  136.7050 C   0  0  2  0  0  3  0  0  0  0  0  0
  179.5400  174.0800  138.6880 C   0  0  0  0  0  2  0  0  0  0  0  0
  180.6630  173.9540  137.7130 N   0  0  0  0  0  0  0  0  0  0  0  0
  179.4740  174.8410  137.5420 C   0  0  0  0  0  2  0  0  0  0  0  0
  184.2430  179.0520  138.5080 C   0  0  0  0  0  2  0  0  0  0  0  0
  183.8850  179.0190  139.9190 N   0  0  0  0  0  0  0  0  0  0  0  0
  185.7390  179.0910  141.6890 N   0  0  0  0  0  0  0  0  0  0  0  0
  184.9030  179.0590  140.8910 C   0  0  0  0  0  0  0  0  0  0  0  0
  182.4590  179.0310  140.2550 C   0  0  0  0  0  2  0  0  0  0  0  0
  180.9340  179.2960  142.1390 N   0  0  0  0  0  1  0  0  0  0  0  0
  182.1670  178.6620  141.7070 C   0  0  0  0  0  2  0  0  0  0  0  0
  1 24  1  0  0  0  0
  2  4  1  0  0  0  0
  3 17  2  0  0  0  0
  4 13  1  0  0  0  0
  5  1  1  0  0  0  0
  6 12  1  1  0  0  0
  6 22  1  0  0  0  0
  8  3  1  0  0  0  0
  8  5  1  0  0  0  0
  9  7  1  1  0  0  0
  9 19  1  0  0  0  0
 10  1  2  0  0  0  0
 10  4  1  0  0  0  0
 11 19  1  0  0  0  0
 11 26  1  6  0  0  0
 12  9  1  0  0  0  0
 14 15  1  0  0  0  0
 14 20  2  0  0  0  0
 15  8  2  0  0  0  0
 16  6  1  0  0  0  0
 16 21  1  0  0  0  0
 17 10  1  0  0  0  0
 20  3  1  0  0  0  0
 21 17  1  0  0  0  0
 21 18  1  6  0  0  0
 22  2  1  1  0  0  0
 22 11  1  0  0  0  0
 24 23  1  0  0  0  0
 25 24  1  0  0  0  0
 25 23  1  0  0  0  0
 26 27  1  0  0  0  0
 27 30  1  0  0  0  0
 27 29  1  0  0  0  0
 29 28  3  0  0  0  0
 30 32  1  0  0  0  0
 32 31  1  0  0  0  0
M  END
>  <MODEL>
4

>  <REMARK>
 VINA RESULT:      -6.1      5.782      9.509
  Name = 
  6 active torsions:
  status: ('A' for Active; 'I' for Inactive)
    1  A    between atoms: C_1  and  N_20
    2  A    between atoms: C_13  and  C_24
    3  A    between atoms: C_17  and  C_30
    4  A    between atoms: C_24  and  N_27
    5  A    between atoms: N_27  and  C_30
    6  A    between atoms: N_27  and  C_31
                            x       y       z     vdW  Elec       q    Type
                         _______ _______ _______ _____ _____    ______ ____

>  <TORSDO>
F 6

$$$$
=
 OpenBabel10222416353D

 32 36  0  0  1  0  0  0  0  0999 V2000
  188.2520  177.4800  139.2830 C   0  0  0  0  0  0  0  0  0  0  0  0
  188.4950  176.1000  142.4830 C   0  0  0  0  0  2  0  0  0  0  0  0
  185.7740  178.8550  140.1510 C   0  0  0  0  0  0  0  0  0  0  0  0
  188.8420  177.2560  141.6560 N   0  0  0  0  0  0  0  0  0  0  0  0
  187.1980  177.9950  138.0510 S   0  0  0  0  0  0  0  0  0  0  0  0
  186.5640  176.7310  144.1490 C   0  0  1  0  0  3  0  0  0  0  0  0
  186.9030  178.2590  147.6780 C   0  0  0  0  0  1  0  0  0  0  0  0
  185.8760  178.7480  138.7370 C   0  0  0  0  0  0  0  0  0  0  0  0
  187.3430  177.5000  146.4450 C   0  0  1  0  0  3  0  0  0  0  0  0
  187.9340  177.7300  140.6490 C   0  0  0  0  0  0  0  0  0  0  0  0
  189.0780  177.4400  144.6200 C   0  0  2  0  0  3  0  0  0  0  0  0
  186.1770  177.3970  145.4770 C   0  0  0  0  0  2  0  0  0  0  0  0
  190.1680  177.8470  141.7580 C   0  0  0  0  0  1  0  0  0  0  0  0
  183.9780  179.6600  139.1110 N   0  0  0  0  0  0  0  0  0  0  0  0
  184.7830  179.2350  138.1420 N   0  0  0  0  0  0  0  0  0  0  0  0
  185.8350  177.3350  143.0310 N   0  0  0  0  0  2  0  0  0  0  0  0
  186.7510  178.4170  141.0740 C   0  0  0  0  0  0  0  0  0  0  0  0
  185.8120  179.7970  143.0130 C   0  0  0  0  0  1  0  0  0  0  0  0
  188.4620  178.2600  145.7580 C   0  0  0  0  0  2  0  0  0  0  0  0
  184.5360  179.4460  140.3310 C   0  0  0  0  0  3  0  0  0  0  0  0
  186.5210  178.5290  142.5590 C   0  0  1  0  0  3  0  0  0  0  0  0
  188.0850  176.4970  143.9120 C   0  0  2  0  0  3  0  0  0  0  0  0
  190.1000  175.6860  138.1130 C   0  0  0  0  0  2  0  0  0  0  0  0
  189.4160  176.7410  138.9170 N   0  0  0  0  0  0  0  0  0  0  0  0
  190.8620  176.3850  139.0230 C   0  0  0  0  0  2  0  0  0  0  0  0
  190.2590  176.6280  145.1390 C   0  0  0  0  0  2  0  0  0  0  0  0
  191.3060  177.4990  145.6560 N   0  0  0  0  0  0  0  0  0  0  0  0
  192.1650  179.4310  144.2050 N   0  0  0  0  0  0  0  0  0  0  0  0
  191.7770  178.5590  144.8600 C   0  0  0  0  0  0  0  0  0  0  0  0
  191.7590  177.2690  147.0300 C   0  0  0  0  0  2  0  0  0  0  0  0
  193.0910  175.7840  148.4320 N   0  0  0  0  0  1  0  0  0  0  0  0
  192.1730  175.8270  147.3070 C   0  0  0  0  0  2  0  0  0  0  0  0
  1 10  2  0  0  0  0
  3 20  1  0  0  0  0
  3 17  2  0  0  0  0
  4 13  1  0  0  0  0
  4  2  1  0  0  0  0
  5  8  1  0  0  0  0
  5  1  1  0  0  0  0
  6 12  1  1  0  0  0
  8  3  1  0  0  0  0
  9  7  1  1  0  0  0
 10 17  1  0  0  0  0
 10  4  1  0  0  0  0
 11 26  1  1  0  0  0
 11 19  1  0  0  0  0
 12  9  1  0  0  0  0
 14 20  2  0  0  0  0
 15  8  2  0  0  0  0
 15 14  1  0  0  0  0
 16  6  1  0  0  0  0
 17 21  1  0  0  0  0
 19  9  1  0  0  0  0
 21 18  1  6  0  0  0
 21 16  1  0  0  0  0
 22  2  1  6  0  0  0
 22  6  1  0  0  0  0
 22 11  1  0  0  0  0
 23 24  1  0  0  0  0
 23 25  1  0  0  0  0
 24 25  1  0  0  0  0
 24  1  1  0  0  0  0
 26 27  1  0  0  0  0
 27 30  1  0  0  0  0
 28 29  3  0  0  0  0
 29 27  1  0  0  0  0
 30 32  1  0  0  0  0
 32 31  1  0  0  0  0
M  END
>  <MODEL>
5

>  <REMARK>
 VINA RESULT:      -5.9      1.630      2.069
  Name = 
  6 active torsions:
  status: ('A' for Active; 'I' for Inactive)
    1  A    between atoms: C_1  and  N_20
    2  A    between atoms: C_13  and  C_24
    3  A    between atoms: C_17  and  C_30
    4  A    between atoms: C_24  and  N_27
    5  A    between atoms: N_27  and  C_30
    6  A    between atoms: N_27  and  C_31
                            x       y       z     vdW  Elec       q    Type
                         _______ _______ _______ _____ _____    ______ ____

>  <TORSDO>
F 6

$$$$
=
 OpenBabel10222416353D

 32 36  0  0  1  0  0  0  0  0999 V2000
  181.3120  176.4590  137.4430 C   0  0  0  0  0  0  0  0  0  0  0  0
  184.4160  176.9040  135.9050 C   0  0  0  0  0  2  0  0  0  0  0  0
  181.7090  173.5300  137.2170 C   0  0  0  0  0  0  0  0  0  0  0  0
  183.7410  176.7090  137.1870 N   0  0  0  0  0  0  0  0  0  0  0  0
  179.9140  175.4940  137.5340 S   0  0  0  0  0  0  0  0  0  0  0  0
  185.6690  174.7030  135.2020 C   0  0  1  0  0  3  0  0  0  0  0  0
  189.2640  173.6430  136.1260 C   0  0  0  0  0  1  0  0  0  0  0  0
  180.3440  173.8880  137.3950 C   0  0  0  0  0  0  0  0  0  0  0  0
  188.1140  174.5990  135.8960 C   0  0  1  0  0  3  0  0  0  0  0  0
  182.5920  175.8530  137.2830 C   0  0  0  0  0  0  0  0  0  0  0  0
  186.6940  176.3580  137.0070 C   0  0  2  0  0  3  0  0  0  0  0  0
  186.9180  173.8260  135.3660 C   0  0  0  0  0  2  0  0  0  0  0  0
  184.1500  177.4890  138.3460 C   0  0  0  0  0  1  0  0  0  0  0  0
  180.3570  171.7630  137.1480 N   0  0  0  0  0  0  0  0  0  0  0  0
  179.5590  172.8070  137.3450 N   0  0  0  0  0  0  0  0  0  0  0  0
  184.4560  173.9450  135.5160 N   0  0  0  0  0  2  0  0  0  0  0  0
  182.7930  174.4380  137.2000 C   0  0  0  0  0  0  0  0  0  0  0  0
  184.5600  172.6290  137.5940 C   0  0  0  0  0  1  0  0  0  0  0  0
  187.7170  175.2370  137.2140 C   0  0  0  0  0  2  0  0  0  0  0  0
  181.6550  172.1570  137.0620 C   0  0  0  0  0  3  0  0  0  0  0  0
  184.2000  173.9600  136.9500 C   0  0  1  0  0  3  0  0  0  0  0  0
  185.7450  176.1340  135.8130 C   0  0  2  0  0  3  0  0  0  0  0  0
  180.8300  179.1500  138.1690 C   0  0  0  0  0  2  0  0  0  0  0  0
  181.1610  177.8770  137.4640 N   0  0  0  0  0  0  0  0  0  0  0  0
  181.1800  179.2330  136.8390 C   0  0  0  0  0  2  0  0  0  0  0  0
  187.4080  177.6950  136.8390 C   0  0  0  0  0  2  0  0  0  0  0  0
  188.2460  177.9890  137.9920 N   0  0  0  0  0  0  0  0  0  0  0  0
  187.1430  178.5560  140.2370 N   0  0  0  0  0  0  0  0  0  0  0  0
  187.6410  178.3000  139.2240 C   0  0  0  0  0  0  0  0  0  0  0  0
  189.6960  177.8620  137.8240 C   0  0  0  0  0  2  0  0  0  0  0  0
  190.6170  176.0000  139.1000 N   0  0  0  0  0  1  0  0  0  0  0  0
  190.4270  177.4400  139.0950 C   0  0  0  0  0  2  0  0  0  0  0  0
  1 24  1  0  0  0  0
  1  5  1  0  0  0  0
  2  4  1  0  0  0  0
  3  8  1  0  0  0  0
  4 10  1  0  0  0  0
  4 13  1  0  0  0  0
  6 12  1  1  0  0  0
  6 16  1  0  0  0  0
  6 22  1  0  0  0  0
  8  5  1  0  0  0  0
  9  7  1  1  0  0  0
  9 19  1  0  0  0  0
 10  1  2  0  0  0  0
 11 26  1  6  0  0  0
 11 19  1  0  0  0  0
 12  9  1  0  0  0  0
 14 15  1  0  0  0  0
 15  8  2  0  0  0  0
 16 21  1  0  0  0  0
 17  3  2  0  0  0  0
 17 10  1  0  0  0  0
 20 14  2  0  0  0  0
 20  3  1  0  0  0  0
 21 17  1  0  0  0  0
 21 18  1  6  0  0  0
 22  2  1  1  0  0  0
 22 11  1  0  0  0  0
 24 23  1  0  0  0  0
 25 24  1  0  0  0  0
 25 23  1  0  0  0  0
 26 27  1  0  0  0  0
 27 29  1  0  0  0  0
 29 28  3  0  0  0  0
 30 27  1  0  0  0  0
 30 32  1  0  0  0  0
 32 31  1  0  0  0  0
M  END
>  <MODEL>
6

>  <REMARK>
 VINA RESULT:      -5.8      5.632      8.751
  Name = 
  6 active torsions:
  status: ('A' for Active; 'I' for Inactive)
    1  A    between atoms: C_1  and  N_20
    2  A    between atoms: C_13  and  C_24
    3  A    between atoms: C_17  and  C_30
    4  A    between atoms: C_24  and  N_27
    5  A    between atoms: N_27  and  C_30
    6  A    between atoms: N_27  and  C_31
                            x       y       z     vdW  Elec       q    Type
                         _______ _______ _______ _____ _____    ______ ____

>  <TORSDO>
F 6

$$$$
=
 OpenBabel10222416353D

 32 36  0  0  1  0  0  0  0  0999 V2000
  186.0300  178.5850  141.1460 C   0  0  0  0  0  0  0  0  0  0  0  0
  183.1820  176.9150  140.0060 C   0  0  0  0  0  2  0  0  0  0  0  0
  187.3620  177.8930  138.5910 C   0  0  0  0  0  0  0  0  0  0  0  0
  183.8830  178.1990  140.0180 N   0  0  0  0  0  0  0  0  0  0  0  0
  187.7300  178.6290  141.1410 S   0  0  0  0  0  0  0  0  0  0  0  0
  183.3840  175.8020  137.6340 C   0  0  1  0  0  3  0  0  0  0  0  0
  181.0570  176.2980  134.5940 C   0  0  0  0  0  1  0  0  0  0  0  0
  188.2860  178.2200  139.6220 C   0  0  0  0  0  0  0  0  0  0  0  0
  181.4520  176.2970  136.0550 C   0  0  1  0  0  3  0  0  0  0  0  0
  185.3170  178.2460  139.9600 C   0  0  0  0  0  0  0  0  0  0  0  0
  181.6500  177.7580  138.0960 C   0  0  2  0  0  3  0  0  0  0  0  0
  182.8600  175.7420  136.1920 C   0  0  0  0  0  2  0  0  0  0  0  0
  183.1350  179.4300  140.2280 C   0  0  0  0  0  1  0  0  0  0  0  0
  189.4770  177.6540  137.9370 N   0  0  0  0  0  0  0  0  0  0  0  0
  189.5450  178.0620  139.2000 N   0  0  0  0  0  0  0  0  0  0  0  0
  184.8210  176.0830  137.6550 N   0  0  0  0  0  2  0  0  0  0  0  0
  185.9550  177.9360  138.7160 C   0  0  0  0  0  0  0  0  0  0  0  0
  185.5410  177.9260  136.1900 C   0  0  0  0  0  1  0  0  0  0  0  0
  181.4520  177.7210  136.5780 C   0  0  0  0  0  2  0  0  0  0  0  0
  188.1840  177.5360  137.5370 C   0  0  0  0  0  3  0  0  0  0  0  0
  185.0630  177.5170  137.5750 C   0  0  1  0  0  3  0  0  0  0  0  0
  182.5240  176.6140  138.6480 C   0  0  2  0  0  3  0  0  0  0  0  0
  184.8630  179.7530  143.4440 C   0  0  0  0  0  2  0  0  0  0  0  0
  185.3470  178.8310  142.3750 N   0  0  0  0  0  0  0  0  0  0  0  0
  184.5930  178.4100  143.5930 C   0  0  0  0  0  2  0  0  0  0  0  0
  180.2990  177.7430  138.8020 C   0  0  0  0  0  2  0  0  0  0  0  0
  179.9700  179.0600  139.3300 N   0  0  0  0  0  0  0  0  0  0  0  0
  180.2980  181.1270  137.8480 N   0  0  0  0  0  0  0  0  0  0  0  0
  180.1500  180.1940  138.5170 C   0  0  0  0  0  0  0  0  0  0  0  0
  179.3830  179.1230  140.6710 C   0  0  0  0  0  2  0  0  0  0  0  0
  180.4190  180.1300  142.6360 N   0  0  0  0  0  1  0  0  0  0  0  0
  179.6880  180.4200  141.4140 C   0  0  0  0  0  2  0  0  0  0  0  0
  1 24  1  0  0  0  0
  2  4  1  0  0  0  0
  3 17  2  0  0  0  0
  3  8  1  0  0  0  0
  4 13  1  0  0  0  0
  5  1  1  0  0  0  0
  6 12  1  6  0  0  0
  6 16  1  0  0  0  0
  6 22  1  0  0  0  0
  8  5  1  0  0  0  0
  9  7  1  6  0  0  0
  9 12  1  0  0  0  0
  9 19  1  0  0  0  0
 10  4  1  0  0  0  0
 10  1  2  0  0  0  0
 11 22  1  0  0  0  0
 11 26  1  1  0  0  0
 14 15  1  0  0  0  0
 15  8  2  0  0  0  0
 17 10  1  0  0  0  0
 19 11  1  0  0  0  0
 20 14  2  0  0  0  0
 20  3  1  0  0  0  0
 21 18  1  6  0  0  0
 21 16  1  0  0  0  0
 21 17  1  0  0  0  0
 22  2  1  1  0  0  0
 23 25  1  0  0  0  0
 24 23  1  0  0  0  0
 24 25  1  0  0  0  0
 26 27  1  0  0  0  0
 27 30  1  0  0  0  0
 28 29  3  0  0  0  0
 29 27  1  0  0  0  0
 30 32  1  0  0  0  0
 32 31  1  0  0  0  0
M  END
>  <MODEL>
7

>  <REMARK>
 VINA RESULT:      -5.5      4.557      9.604
  Name = 
  6 active torsions:
  status: ('A' for Active; 'I' for Inactive)
    1  A    between atoms: C_1  and  N_20
    2  A    between atoms: C_13  and  C_24
    3  A    between atoms: C_17  and  C_30
    4  A    between atoms: C_24  and  N_27
    5  A    between atoms: N_27  and  C_30
    6  A    between atoms: N_27  and  C_31
                            x       y       z     vdW  Elec       q    Type
                         _______ _______ _______ _____ _____    ______ ____

>  <TORSDO>
F 6

$$$$
=
 OpenBabel10222416353D

 32 36  0  0  1  0  0  0  0  0999 V2000
  188.0550  177.9110  144.6700 C   0  0  0  0  0  0  0  0  0  0  0  0
  188.6710  178.6510  141.3130 C   0  0  0  0  0  2  0  0  0  0  0  0
  185.1750  178.3960  144.1670 C   0  0  0  0  0  0  0  0  0  0  0  0
  188.3220  177.5850  142.2520 N   0  0  0  0  0  0  0  0  0  0  0  0
  187.0930  178.2520  146.0310 S   0  0  0  0  0  0  0  0  0  0  0  0
  186.5680  179.3180  139.8850 C   0  0  1  0  0  3  0  0  0  0  0  0
  185.3840  177.7490  136.5620 C   0  0  0  0  0  1  0  0  0  0  0  0
  185.5140  178.4860  145.5450 C   0  0  0  0  0  0  0  0  0  0  0  0
  186.3670  178.1130  137.6540 C   0  0  1  0  0  3  0  0  0  0  0  0
  187.4670  177.8530  143.3740 C   0  0  0  0  0  0  0  0  0  0  0  0
  187.9820  177.1420  139.3250 C   0  0  2  0  0  3  0  0  0  0  0  0
  185.6720  178.9870  138.6840 C   0  0  0  0  0  2  0  0  0  0  0  0
  188.9520  176.2780  142.1280 C   0  0  0  0  0  1  0  0  0  0  0  0
  183.4360  178.9800  145.4280 N   0  0  0  0  0  0  0  0  0  0  0  0
  184.4520  178.8410  146.2740 N   0  0  0  0  0  0  0  0  0  0  0  0
  185.7830  179.3770  141.1210 N   0  0  0  0  0  2  0  0  0  0  0  0
  186.0720  178.0600  143.1270 C   0  0  0  0  0  0  0  0  0  0  0  0
  184.2200  177.5050  141.4510 C   0  0  0  0  0  1  0  0  0  0  0  0
  186.8390  176.8490  138.3480 C   0  0  0  0  0  2  0  0  0  0  0  0
  183.8310  178.7260  144.1540 C   0  0  0  0  0  3  0  0  0  0  0  0
  185.6220  178.0460  141.6890 C   0  0  1  0  0  3  0  0  0  0  0  0
  187.9120  178.5360  139.9790 C   0  0  2  0  0  3  0  0  0  0  0  0
  190.8690  178.2000  144.6460 C   0  0  0  0  0  2  0  0  0  0  0  0
  189.4600  177.7520  144.8540 N   0  0  0  0  0  0  0  0  0  0  0  0
  190.6700  177.0390  145.3610 C   0  0  0  0  0  2  0  0  0  0  0  0
  189.3260  176.9830  138.6230 C   0  0  0  0  0  2  0  0  0  0  0  0
  189.1810  176.2390  137.3800 N   0  0  0  0  0  0  0  0  0  0  0  0
  189.2990  177.4910  135.1450 N   0  0  0  0  0  0  0  0  0  0  0  0
  189.2460  176.9260  136.1530 C   0  0  0  0  0  0  0  0  0  0  0  0
  189.0570  174.7820  137.4740 C   0  0  0  0  0  2  0  0  0  0  0  0
  191.4520  174.3530  137.6430 N   0  0  0  0  0  1  0  0  0  0  0  0
  190.2500  174.0260  136.8950 C   0  0  0  0  0  2  0  0  0  0  0  0
  1 24  1  0  0  0  0
  1  5  1  0  0  0  0
  2  4  1  0  0  0  0
  3  8  1  0  0  0  0
  4 10  1  0  0  0  0
  6 12  1  6  0  0  0
  6 22  1  0  0  0  0
  6 16  1  0  0  0  0
  8  5  1  0  0  0  0
  8 15  2  0  0  0  0
  9  7  1  6  0  0  0
  9 19  1  0  0  0  0
  9 12  1  0  0  0  0
 10  1  2  0  0  0  0
 11 26  1  6  0  0  0
 11 22  1  0  0  0  0
 13  4  1  0  0  0  0
 14 15  1  0  0  0  0
 16 21  1  0  0  0  0
 17 10  1  0  0  0  0
 17  3  2  0  0  0  0
 19 11  1  0  0  0  0
 20  3  1  0  0  0  0
 20 14  2  0  0  0  0
 21 18  1  1  0  0  0
 21 17  1  0  0  0  0
 22  2  1  1  0  0  0
 23 24  1  0  0  0  0
 23 25  1  0  0  0  0
 24 25  1  0  0  0  0
 27 30  1  0  0  0  0
 27 26  1  0  0  0  0
 28 29  3  0  0  0  0
 29 27  1  0  0  0  0
 32 30  1  0  0  0  0
 32 31  1  0  0  0  0
M  END
>  <MODEL>
8

>  <REMARK>
 VINA RESULT:      -5.5      2.656      6.708
  Name = 
  6 active torsions:
  status: ('A' for Active; 'I' for Inactive)
    1  A    between atoms: C_1  and  N_20
    2  A    between atoms: C_13  and  C_24
    3  A    between atoms: C_17  and  C_30
    4  A    between atoms: C_24  and  N_27
    5  A    between atoms: N_27  and  C_30
    6  A    between atoms: N_27  and  C_31
                            x       y       z     vdW  Elec       q    Type
                         _______ _______ _______ _____ _____    ______ ____

>  <TORSDO>
F 6

$$$$
=
 OpenBabel10222416353D

 32 36  0  0  1  0  0  0  0  0999 V2000
  188.8200  177.4160  145.3900 C   0  0  0  0  0  0  0  0  0  0  0  0
  189.7610  178.1370  142.1050 C   0  0  0  0  0  2  0  0  0  0  0  0
  186.0570  178.2340  144.6950 C   0  0  0  0  0  0  0  0  0  0  0  0
  189.2260  177.1020  142.9890 N   0  0  0  0  0  0  0  0  0  0  0  0
  187.8040  177.8410  146.6870 S   0  0  0  0  0  0  0  0  0  0  0  0
  187.8570  179.0630  140.5480 C   0  0  1  0  0  3  0  0  0  0  0  0
  186.7520  177.6960  137.1110 C   0  0  0  0  0  1  0  0  0  0  0  0
  186.3020  178.2600  146.0960 C   0  0  0  0  0  0  0  0  0  0  0  0
  187.6860  177.9270  138.2790 C   0  0  1  0  0  3  0  0  0  0  0  0
  188.3260  177.4460  144.0540 C   0  0  0  0  0  0  0  0  0  0  0  0
  189.0550  176.7510  140.0360 C   0  0  2  0  0  3  0  0  0  0  0  0
  187.0200  178.8570  139.2780 C   0  0  0  0  0  2  0  0  0  0  0  0
  189.7130  175.7350  142.8790 C   0  0  0  0  0  1  0  0  0  0  0  0
  184.3070  178.9900  145.8440 N   0  0  0  0  0  0  0  0  0  0  0  0
  185.2360  178.7220  146.7560 N   0  0  0  0  0  0  0  0  0  0  0  0
  186.9950  179.1910  141.7260 N   0  0  0  0  0  2  0  0  0  0  0  0
  186.9850  177.8160  143.7140 C   0  0  0  0  0  0  0  0  0  0  0  0
  185.2110  177.5020  141.8970 C   0  0  0  0  0  1  0  0  0  0  0  0
  187.9620  176.6060  138.9730 C   0  0  0  0  0  2  0  0  0  0  0  0
  184.7640  178.7140  144.5940 C   0  0  0  0  0  3  0  0  0  0  0  0
  186.6430  177.8770  142.2470 C   0  0  1  0  0  3  0  0  0  0  0  0
  189.0940  178.1320  140.7180 C   0  0  2  0  0  3  0  0  0  0  0  0
  191.2290  176.4500  146.5140 C   0  0  0  0  0  2  0  0  0  0  0  0
  190.1810  177.0950  145.6700 N   0  0  0  0  0  0  0  0  0  0  0  0
  191.6480  177.1370  145.3960 C   0  0  0  0  0  2  0  0  0  0  0  0
  190.4200  176.4520  139.4270 C   0  0  0  0  0  2  0  0  0  0  0  0
  190.3010  176.1090  138.0170 N   0  0  0  0  0  0  0  0  0  0  0  0
  189.7380  173.6970  137.3530 N   0  0  0  0  0  0  0  0  0  0  0  0
  189.9920  174.7850  137.6530 C   0  0  0  0  0  0  0  0  0  0  0  0
  190.4310  177.1960  137.0440 C   0  0  0  0  0  2  0  0  0  0  0  0
  189.4530  177.5030  134.8320 N   0  0  0  0  0  1  0  0  0  0  0  0
  190.4150  176.7250  135.5920 C   0  0  0  0  0  2  0  0  0  0  0  0
  1 24  1  0  0  0  0
  1  5  1  0  0  0  0
  2  4  1  0  0  0  0
  3  8  1  0  0  0  0
  4 10  1  0  0  0  0
  6 12  1  6  0  0  0
  6 22  1  0  0  0  0
  6 16  1  0  0  0  0
  8  5  1  0  0  0  0
  8 15  2  0  0  0  0
  9  7  1  6  0  0  0
  9 19  1  0  0  0  0
  9 12  1  0  0  0  0
 10  1  2  0  0  0  0
 11 26  1  6  0  0  0
 11 22  1  0  0  0  0
 13  4  1  0  0  0  0
 14 15  1  0  0  0  0
 16 21  1  0  0  0  0
 17 10  1  0  0  0  0
 17  3  2  0  0  0  0
 19 11  1  0  0  0  0
 20  3  1  0  0  0  0
 20 14  2  0  0  0  0
 21 18  1  1  0  0  0
 21 17  1  0  0  0  0
 22  2  1  1  0  0  0
 24 23  1  0  0  0  0
 25 24  1  0  0  0  0
 25 23  1  0  0  0  0
 27 26  1  0  0  0  0
 28 29  3  0  0  0  0
 29 27  1  0  0  0  0
 30 27  1  0  0  0  0
 31 32  1  0  0  0  0
 32 30  1  0  0  0  0
M  END
>  <MODEL>
9

>  <REMARK>
 VINA RESULT:      -5.4      2.549      6.766
  Name = 
  6 active torsions:
  status: ('A' for Active; 'I' for Inactive)
    1  A    between atoms: C_1  and  N_20
    2  A    between atoms: C_13  and  C_24
    3  A    between atoms: C_17  and  C_30
    4  A    between atoms: C_24  and  N_27
    5  A    between atoms: N_27  and  C_30
    6  A    between atoms: N_27  and  C_31
                            x       y       z     vdW  Elec       q    Type
                         _______ _______ _______ _____ _____    ______ ____

>  <TORSDO>
F 6

$$$$
