=
 OpenBabel10222417533D

 53 60  0  0  1  0  0  0  0  0999 V2000
  190.0330  178.0470  144.0470 C   0  0  0  0  0  0  0  0  0  0  0  0
  190.8410  179.0160  144.0010 O   0  0  0  0  0  0  0  0  0  0  0  0
  189.6930  177.3450  146.4380 C   0  0  0  0  0  3  0  0  0  0  0  0
  187.8140  178.2070  145.1820 C   0  0  0  0  0  3  0  0  0  0  0  0
  188.8630  177.1510  147.5450 C   0  0  0  0  0  3  0  0  0  0  0  0
  189.1750  177.8710  145.2430 C   0  0  0  0  0  0  0  0  0  0  0  0
  186.9730  178.0090  146.2860 C   0  0  0  0  0  0  0  0  0  0  0  0
  187.5070  177.4760  147.4680 C   0  0  0  0  0  3  0  0  0  0  0  0
  185.5370  178.3260  146.1960 C   0  0  0  0  0  0  0  0  0  0  0  0
  184.9280  178.5130  144.9170 N   0  0  0  0  0  2  0  0  0  0  0  0
  184.8500  178.4540  147.2500 O   0  0  0  0  0  0  0  0  0  0  0  0
  183.5390  178.9260  144.7830 C   0  0  0  0  0  2  0  0  0  0  0  0
  183.2780  179.3310  143.3420 C   0  0  0  0  0  2  0  0  0  0  0  0
  179.2070  178.5940  142.4330 C   0  0  0  0  0  2  0  0  0  0  0  0
  181.0460  178.5130  144.1460 C   0  0  0  0  0  2  0  0  0  0  0  0
  181.2540  180.0140  142.2510 O   0  0  0  0  0  0  0  0  0  0  0  0
  180.0790  179.5550  141.5990 C   0  0  1  0  0  3  0  0  0  0  0  0
  179.5490  178.7280  143.9150 C   0  0  0  0  0  2  0  0  0  0  0  0
  181.8740  178.9350  142.9190 C   0  0  1  0  0  3  0  0  0  0  0  0
  180.9510  178.2950  136.5180 O   0  0  0  0  0  1  0  0  0  0  0  0
  179.8360  179.8520  139.0610 C   0  0  0  0  0  2  0  0  0  0  0  0
  181.5380  177.8560  137.7060 C   0  0  1  0  0  3  0  0  0  0  0  0
  182.2040  179.0400  138.4280 C   0  0  0  0  0  2  0  0  0  0  0  0
  180.4780  177.4860  140.0030 C   0  0  0  0  0  2  0  0  0  0  0  0
  180.5040  177.0850  138.5300 C   0  0  0  0  0  2  0  0  0  0  0  0
  180.3710  179.0050  140.2050 C   0  0  2  0  0  0  0  0  0  0  0  0
  181.3290  179.8650  139.3960 C   0  0  2  0  0  3  0  0  0  0  0  0
  189.9850  177.1120  142.8700 C   0  0  2  0  0  3  0  0  0  0  0  0
  191.2960  176.3300  142.7040 C   0  0  2  0  0  3  0  0  0  0  0  0
  191.7340  175.7930  143.9810 N   0  0  0  0  0  1  0  0  0  0  0  0
  192.2900  177.1480  142.1900 F   0  0  0  0  0  0  0  0  0  0  0  0
  189.6520  177.8610  141.6620 N   0  0  0  0  0  2  0  0  0  0  0  0
  188.2690  177.5740  141.2950 C   0  0  1  0  0  3  0  0  0  0  0  0
  187.4040  178.7930  141.5510 C   0  0  0  0  0  1  0  0  0  0  0  0
  188.1950  177.2370  139.8800 N   0  0  0  0  0  2  0  0  0  0  0  0
  191.8910  175.3250  137.2910 C   0  0  2  0  0  3  0  0  0  0  0  0
  188.9930  178.7350  137.8010 S   0  0  0  0  0  0  0  0  0  0  0  0
  189.4190  177.6990  139.2430 C   0  0  2  0  0  3  0  0  0  0  0  0
  190.0520  176.5750  138.4390 C   0  0  1  0  0  0  0  0  0  0  0  0
  189.8570  176.7050  135.9820 C   0  0  0  0  0  2  0  0  0  0  0  0
  190.8910  175.8380  139.3460 O   0  0  0  0  0  0  0  0  0  0  0  0
  191.4060  175.8120  135.5720 S   0  0  0  0  0  0  0  0  0  0  0  0
  190.1660  177.4850  137.2350 C   0  0  1  0  0  3  0  0  0  0  0  0
  191.5690  176.4160  138.3370 C   0  0  1  0  0  3  0  0  0  0  0  0
  193.3060  174.9870  137.3280 N   0  0  0  0  0  2  0  0  0  0  0  0
  193.4200  173.6000  136.9090 C   0  0  0  0  0  2  0  0  0  0  0  0
  195.6460  173.6160  137.9490 C   0  0  0  0  0  0  0  0  0  0  0  0
  197.1950  176.1730  136.1250 O   0  0  0  0  0  0  0  0  0  0  0  0
  195.5160  173.0030  139.0410 O   0  0  0  0  0  0  0  0  0  0  0  0
  195.5710  174.1950  135.3280 S   0  0  0  0  0  0  0  0  0  0  0  0
  196.5420  174.7020  137.8180 N   0  0  0  0  0  2  0  0  0  0  0  0
  194.8810  173.2300  136.7280 C   0  0  2  0  0  3  0  0  0  0  0  0
  196.5470  175.1500  136.4770 C   0  0  0  0  0  0  0  0  0  0  0  0
  1  6  1  0  0  0  0
  2  1  2  0  0  0  0
  3  5  1  0  0  0  0
  4  6  1  0  0  0  0
  4  7  2  0  0  0  0
  6  3  2  0  0  0  0
  7  8  1  0  0  0  0
  8  5  2  0  0  0  0
  9  7  1  0  0  0  0
  9 11  2  0  0  0  0
 10  9  1  0  0  0  0
 12 10  1  0  0  0  0
 13 12  1  0  0  0  0
 14 18  1  0  0  0  0
 16 19  1  0  0  0  0
 17 16  1  0  0  0  0
 17 14  1  1  0  0  0
 18 15  1  0  0  0  0
 19 13  1  1  0  0  0
 19 15  1  0  0  0  0
 21 27  1  0  0  0  0
 22 20  1  6  0  0  0
 22 23  1  0  0  0  0
 22 25  1  0  0  0  0
 24 26  1  0  0  0  0
 25 24  1  0  0  0  0
 26 21  1  6  0  0  0
 26 17  1  0  0  0  0
 27 23  1  6  0  0  0
 27 26  1  0  0  0  0
 28 32  1  6  0  0  0
 28  1  1  0  0  0  0
 29 31  1  1  0  0  0
 29 28  1  0  0  0  0
 29 30  1  0  0  0  0
 33 34  1  6  0  0  0
 33 32  1  0  0  0  0
 35 33  1  0  0  0  0
 36 45  1  6  0  0  0
 36 44  1  0  0  0  0
 37 38  1  0  0  0  0
 38 35  1  6  0  0  0
 39 38  1  0  0  0  0
 39 41  1  6  0  0  0
 42 40  1  0  0  0  0
 42 36  1  0  0  0  0
 43 40  1  6  0  0  0
 43 37  1  0  0  0  0
 43 39  1  0  0  0  0
 44 39  1  0  0  0  0
 44 41  1  1  0  0  0
 46 45  1  0  0  0  0
 47 49  2  0  0  0  0
 48 53  2  0  0  0  0
 50 53  1  0  0  0  0
 50 52  1  0  0  0  0
 51 47  1  0  0  0  0
 52 46  1  1  0  0  0
 52 47  1  0  0  0  0
 53 51  1  0  0  0  0
M  END
>  <MODEL>
1

>  <REMARK>
 VINA RESULT:      -9.3      0.000      0.000
  Name = 
  15 active torsions:
  status: ('A' for Active; 'I' for Inactive)
    1  A    between atoms: C_2  and  N_4
    2  A    between atoms: C_2  and  N_9
    3  A    between atoms: C_3  and  N_51
    4  A    between atoms: N_4  and  C_13
    5  A    between atoms: N_9  and  C_18
    6  A    between atoms: C_13  and  C_17
    7  A    between atoms: C_13  and  C_39
    8  A    between atoms: C_20  and  C_39
    9  A    between atoms: C_21  and  C_27
   10  A    between atoms: N_29  and  C_52
   11  A    between atoms: C_34  and  C_35
   12  A    between atoms: C_37  and  C_44
   13  A    between atoms: C_44  and  C_52
   14  A    between atoms: C_48  and  C_53
   15  A    between atoms: N_51  and  C_53
                            x       y       z     vdW  Elec       q    Type
                         _______ _______ _______ _____ _____    ______ ____

>  <TORSDO>
F 15

$$$$
=
 OpenBabel10222417533D

 53 60  0  0  1  0  0  0  0  0999 V2000
  190.2640  177.2040  144.7150 C   0  0  0  0  0  0  0  0  0  0  0  0
  191.4200  176.7720  144.9810 O   0  0  0  0  0  0  0  0  0  0  0  0
  189.7590  177.4830  147.1640 C   0  0  0  0  0  3  0  0  0  0  0  0
  187.9990  177.8510  145.5460 C   0  0  0  0  0  3  0  0  0  0  0  0
  188.8620  177.7510  148.2000 C   0  0  0  0  0  3  0  0  0  0  0  0
  189.3340  177.5250  145.8260 C   0  0  0  0  0  0  0  0  0  0  0  0
  187.0900  178.1160  146.5810 C   0  0  0  0  0  0  0  0  0  0  0  0
  187.5310  178.0620  147.9110 C   0  0  0  0  0  3  0  0  0  0  0  0
  185.6800  178.4160  146.2760 C   0  0  0  0  0  0  0  0  0  0  0  0
  185.2610  178.5660  144.9190 N   0  0  0  0  0  2  0  0  0  0  0  0
  184.8480  178.5630  147.2170 O   0  0  0  0  0  0  0  0  0  0  0  0
  183.9040  178.9620  144.5750 C   0  0  0  0  0  2  0  0  0  0  0  0
  183.7290  178.8810  143.0680 C   0  0  0  0  0  2  0  0  0  0  0  0
  179.6500  178.2550  142.1110 C   0  0  0  0  0  2  0  0  0  0  0  0
  181.3510  178.8380  143.8690 C   0  0  0  0  0  2  0  0  0  0  0  0
  181.9090  179.1480  141.5280 O   0  0  0  0  0  0  0  0  0  0  0  0
  180.7130  178.5600  141.0360 C   0  0  1  0  0  3  0  0  0  0  0  0
  179.9250  179.0760  143.3690 C   0  0  0  0  0  2  0  0  0  0  0  0
  182.3050  178.4890  142.7130 C   0  0  1  0  0  3  0  0  0  0  0  0
  181.0170  174.1650  138.0780 O   0  0  0  0  0  1  0  0  0  0  0  0
  180.0410  176.1830  140.3380 C   0  0  0  0  0  2  0  0  0  0  0  0
  181.5670  175.4370  137.9230 C   0  0  1  0  0  3  0  0  0  0  0  0
  180.4430  176.4810  137.8040 C   0  0  0  0  0  2  0  0  0  0  0  0
  182.4310  177.0620  139.6970 C   0  0  0  0  0  2  0  0  0  0  0  0
  182.5820  175.6930  139.0390 C   0  0  0  0  0  2  0  0  0  0  0  0
  180.9900  177.3550  140.1410 C   0  0  2  0  0  0  0  0  0  0  0  0
  179.8990  177.0910  139.1150 C   0  0  2  0  0  3  0  0  0  0  0  0
  189.8870  177.3710  143.2690 C   0  0  2  0  0  3  0  0  0  0  0  0
  188.4250  176.9780  143.0080 C   0  0  2  0  0  3  0  0  0  0  0  0
  188.2860  175.5330  142.9620 N   0  0  0  0  0  1  0  0  0  0  0  0
  187.9830  177.5140  141.8090 F   0  0  0  0  0  0  0  0  0  0  0  0
  190.8040  176.6040  142.4320 N   0  0  0  0  0  2  0  0  0  0  0  0
  190.9140  177.2590  141.1320 C   0  0  1  0  0  3  0  0  0  0  0  0
  192.3570  177.6470  140.8700 C   0  0  0  0  0  1  0  0  0  0  0  0
  190.4780  176.3480  140.0830 N   0  0  0  0  0  2  0  0  0  0  0  0
  192.5840  174.1820  136.2220 C   0  0  2  0  0  3  0  0  0  0  0  0
  189.8850  177.4650  137.7150 S   0  0  0  0  0  0  0  0  0  0  0  0
  191.1290  176.7460  138.8430 C   0  0  2  0  0  3  0  0  0  0  0  0
  191.4220  175.5270  137.9850 C   0  0  1  0  0  0  0  0  0  0  0  0
  189.9920  175.1760  136.0040 C   0  0  0  0  0  2  0  0  0  0  0  0
  192.7020  175.0220  138.4060 O   0  0  0  0  0  0  0  0  0  0  0  0
  191.2300  174.3070  134.9670 S   0  0  0  0  0  0  0  0  0  0  0  0
  190.7760  176.1960  136.7910 C   0  0  1  0  0  3  0  0  0  0  0  0
  192.6820  175.4340  137.1250 C   0  0  1  0  0  3  0  0  0  0  0  0
  193.8540  173.9350  135.5570 N   0  0  0  0  0  2  0  0  0  0  0  0
  194.3410  172.6530  136.0390 C   0  0  0  0  0  2  0  0  0  0  0  0
  195.9070  173.4800  137.7420 C   0  0  0  0  0  0  0  0  0  0  0  0
  197.2710  176.2440  136.0790 O   0  0  0  0  0  0  0  0  0  0  0  0
  195.5450  172.9490  138.8250 O   0  0  0  0  0  0  0  0  0  0  0  0
  196.6790  173.7860  135.1890 S   0  0  0  0  0  0  0  0  0  0  0  0
  196.4520  174.7850  137.7080 N   0  0  0  0  0  2  0  0  0  0  0  0
  195.8010  172.7660  136.4360 C   0  0  2  0  0  3  0  0  0  0  0  0
  196.8440  175.0980  136.3870 C   0  0  0  0  0  0  0  0  0  0  0  0
  1  2  2  0  0  0  0
  1  6  1  0  0  0  0
  3  5  1  0  0  0  0
  4  6  1  0  0  0  0
  4  7  2  0  0  0  0
  6  3  2  0  0  0  0
  7  8  1  0  0  0  0
  8  5  2  0  0  0  0
  9  7  1  0  0  0  0
  9 11  2  0  0  0  0
 10  9  1  0  0  0  0
 12 10  1  0  0  0  0
 13 12  1  0  0  0  0
 14 18  1  0  0  0  0
 16 19  1  0  0  0  0
 17 16  1  0  0  0  0
 17 14  1  1  0  0  0
 18 15  1  0  0  0  0
 19 13  1  1  0  0  0
 19 15  1  0  0  0  0
 22 20  1  1  0  0  0
 22 25  1  0  0  0  0
 23 22  1  0  0  0  0
 25 24  1  0  0  0  0
 26 24  1  6  0  0  0
 26 21  1  0  0  0  0
 26 17  1  0  0  0  0
 27 23  1  6  0  0  0
 27 26  1  0  0  0  0
 27 21  1  0  0  0  0
 28 32  1  6  0  0  0
 28  1  1  0  0  0  0
 29 31  1  6  0  0  0
 29 28  1  0  0  0  0
 30 29  1  0  0  0  0
 33 34  1  6  0  0  0
 33 32  1  0  0  0  0
 35 33  1  0  0  0  0
 36 45  1  6  0  0  0
 36 44  1  0  0  0  0
 37 38  1  0  0  0  0
 38 35  1  1  0  0  0
 39 41  1  1  0  0  0
 39 38  1  0  0  0  0
 42 40  1  0  0  0  0
 42 36  1  0  0  0  0
 43 40  1  1  0  0  0
 43 37  1  0  0  0  0
 43 39  1  0  0  0  0
 44 39  1  0  0  0  0
 44 41  1  1  0  0  0
 45 46  1  0  0  0  0
 47 49  2  0  0  0  0
 48 53  2  0  0  0  0
 50 53  1  0  0  0  0
 50 52  1  0  0  0  0
 51 47  1  0  0  0  0
 52 46  1  6  0  0  0
 52 47  1  0  0  0  0
 53 51  1  0  0  0  0
M  END
>  <MODEL>
2

>  <REMARK>
 VINA RESULT:      -8.6      1.581      2.001
  Name = 
  15 active torsions:
  status: ('A' for Active; 'I' for Inactive)
    1  A    between atoms: C_2  and  N_4
    2  A    between atoms: C_2  and  N_9
    3  A    between atoms: C_3  and  N_51
    4  A    between atoms: N_4  and  C_13
    5  A    between atoms: N_9  and  C_18
    6  A    between atoms: C_13  and  C_17
    7  A    between atoms: C_13  and  C_39
    8  A    between atoms: C_20  and  C_39
    9  A    between atoms: C_21  and  C_27
   10  A    between atoms: N_29  and  C_52
   11  A    between atoms: C_34  and  C_35
   12  A    between atoms: C_37  and  C_44
   13  A    between atoms: C_44  and  C_52
   14  A    between atoms: C_48  and  C_53
   15  A    between atoms: N_51  and  C_53
                            x       y       z     vdW  Elec       q    Type
                         _______ _______ _______ _____ _____    ______ ____

>  <TORSDO>
F 15

$$$$
=
 OpenBabel10222417533D

 53 60  0  0  1  0  0  0  0  0999 V2000
  188.9080  176.4760  143.2320 C   0  0  0  0  0  0  0  0  0  0  0  0
  188.7700  175.2450  142.9910 O   0  0  0  0  0  0  0  0  0  0  0  0
  188.9180  177.0340  145.6840 C   0  0  0  0  0  3  0  0  0  0  0  0
  186.9880  177.6190  144.3480 C   0  0  0  0  0  3  0  0  0  0  0  0
  188.2890  177.5530  146.8190 C   0  0  0  0  0  3  0  0  0  0  0  0
  188.2710  177.0580  144.4380 C   0  0  0  0  0  0  0  0  0  0  0  0
  186.3470  178.1360  145.4830 C   0  0  0  0  0  0  0  0  0  0  0  0
  187.0070  178.0970  146.7200 C   0  0  0  0  0  3  0  0  0  0  0  0
  184.9840  178.6850  145.3850 C   0  0  0  0  0  0  0  0  0  0  0  0
  184.3910  178.8930  144.1020 N   0  0  0  0  0  2  0  0  0  0  0  0
  184.3490  178.9920  146.4340 O   0  0  0  0  0  0  0  0  0  0  0  0
  183.0890  179.5250  143.9520 C   0  0  0  0  0  2  0  0  0  0  0  0
  182.0050  178.4710  144.0950 C   0  0  0  0  0  2  0  0  0  0  0  0
  179.0630  179.4860  141.2210 C   0  0  0  0  0  2  0  0  0  0  0  0
  179.7180  179.4030  143.6470 C   0  0  0  0  0  2  0  0  0  0  0  0
  181.4500  179.3870  141.9490 O   0  0  0  0  0  0  0  0  0  0  0  0
  180.5500  179.3080  140.8530 C   0  0  1  0  0  3  0  0  0  0  0  0
  178.9370  180.1710  142.5800 C   0  0  0  0  0  2  0  0  0  0  0  0
  180.9260  178.6650  143.0430 C   0  0  1  0  0  3  0  0  0  0  0  0
  181.8090  175.3860  137.5070 O   0  0  0  0  0  1  0  0  0  0  0  0
  181.3800  178.3350  138.6270 C   0  0  0  0  0  2  0  0  0  0  0  0
  181.5200  175.3950  138.8720 C   0  0  1  0  0  3  0  0  0  0  0  0
  182.5520  176.2570  139.6180 C   0  0  0  0  0  2  0  0  0  0  0  0
  179.8660  176.8460  140.1740 C   0  0  0  0  0  2  0  0  0  0  0  0
  180.0580  175.7980  139.0800 C   0  0  0  0  0  2  0  0  0  0  0  0
  180.7880  178.0630  140.0010 C   0  0  2  0  0  0  0  0  0  0  0  0
  182.2580  177.7680  139.7450 C   0  0  2  0  0  3  0  0  0  0  0  0
  189.7200  177.2980  142.2680 C   0  0  2  0  0  3  0  0  0  0  0  0
  190.8650  178.0410  142.9720 C   0  0  2  0  0  3  0  0  0  0  0  0
  191.6760  177.1160  143.7430 N   0  0  0  0  0  1  0  0  0  0  0  0
  190.3640  179.0190  143.8170 F   0  0  0  0  0  0  0  0  0  0  0  0
  188.8450  178.2200  141.5510 N   0  0  0  0  0  2  0  0  0  0  0  0
  188.6520  177.7240  140.1910 C   0  0  1  0  0  3  0  0  0  0  0  0
  188.8470  178.8540  139.1980 C   0  0  0  0  0  1  0  0  0  0  0  0
  189.6240  176.6780  139.9060 N   0  0  0  0  0  2  0  0  0  0  0  0
  193.1900  175.1090  136.9300 C   0  0  2  0  0  3  0  0  0  0  0  0
  188.7720  175.7440  137.5380 S   0  0  0  0  0  0  0  0  0  0  0  0
  189.9610  176.7510  138.4920 C   0  0  2  0  0  3  0  0  0  0  0  0
  191.1690  175.8800  138.1910 C   0  0  1  0  0  0  0  0  0  0  0  0
  190.7560  173.7570  137.0030 C   0  0  0  0  0  2  0  0  0  0  0  0
  192.3340  176.6910  138.4320 O   0  0  0  0  0  0  0  0  0  0  0  0
  192.3750  173.6430  136.1480 S   0  0  0  0  0  0  0  0  0  0  0  0
  190.4290  175.2280  137.0430 C   0  0  1  0  0  3  0  0  0  0  0  0
  192.2150  176.2890  137.1530 C   0  0  1  0  0  3  0  0  0  0  0  0
  194.3240  175.5340  136.1240 N   0  0  0  0  0  2  0  0  0  0  0  0
  195.2200  174.3930  136.0220 C   0  0  0  0  0  2  0  0  0  0  0  0
  197.5340  174.8160  136.7310 C   0  0  0  0  0  0  0  0  0  0  0  0
  198.6920  171.5380  137.1510 O   0  0  0  0  0  0  0  0  0  0  0  0
  197.7780  176.0080  136.4050 O   0  0  0  0  0  0  0  0  0  0  0  0
  196.3500  172.6620  137.8120 S   0  0  0  0  0  0  0  0  0  0  0  0
  198.5390  173.8220  136.6880 N   0  0  0  0  0  2  0  0  0  0  0  0
  196.1840  174.3830  137.1940 C   0  0  2  0  0  3  0  0  0  0  0  0
  198.0170  172.6020  137.1780 C   0  0  0  0  0  0  0  0  0  0  0  0
  1  6  1  0  0  0  0
  2  1  2  0  0  0  0
  3  5  1  0  0  0  0
  4  6  1  0  0  0  0
  4  7  2  0  0  0  0
  6  3  2  0  0  0  0
  7  8  1  0  0  0  0
  8  5  2  0  0  0  0
  9  7  1  0  0  0  0
  9 11  2  0  0  0  0
 10  9  1  0  0  0  0
 12 13  1  0  0  0  0
 12 10  1  0  0  0  0
 14 18  1  0  0  0  0
 16 19  1  0  0  0  0
 17 14  1  1  0  0  0
 17 16  1  0  0  0  0
 18 15  1  0  0  0  0
 19 15  1  0  0  0  0
 19 13  1  1  0  0  0
 22 20  1  6  0  0  0
 22 25  1  0  0  0  0
 22 23  1  0  0  0  0
 23 27  1  0  0  0  0
 25 24  1  0  0  0  0
 26 21  1  6  0  0  0
 26 24  1  0  0  0  0
 26 17  1  0  0  0  0
 27 21  1  6  0  0  0
 27 26  1  0  0  0  0
 28 32  1  1  0  0  0
 28 29  1  0  0  0  0
 28  1  1  0  0  0  0
 29 30  1  1  0  0  0
 29 31  1  0  0  0  0
 33 34  1  6  0  0  0
 33 32  1  0  0  0  0
 35 33  1  0  0  0  0
 36 45  1  6  0  0  0
 36 44  1  0  0  0  0
 37 38  1  0  0  0  0
 38 35  1  1  0  0  0
 39 41  1  1  0  0  0
 39 38  1  0  0  0  0
 42 36  1  0  0  0  0
 42 40  1  0  0  0  0
 43 40  1  1  0  0  0
 43 37  1  0  0  0  0
 43 39  1  0  0  0  0
 44 39  1  0  0  0  0
 44 41  1  1  0  0  0
 46 45  1  0  0  0  0
 47 52  1  0  0  0  0
 48 53  2  0  0  0  0
 49 47  2  0  0  0  0
 51 47  1  0  0  0  0
 51 53  1  0  0  0  0
 52 46  1  6  0  0  0
 52 50  1  0  0  0  0
 53 50  1  0  0  0  0
M  END
>  <MODEL>
3

>  <REMARK>
 VINA RESULT:      -8.6      1.737      2.169
  Name = 
  15 active torsions:
  status: ('A' for Active; 'I' for Inactive)
    1  A    between atoms: C_2  and  N_4
    2  A    between atoms: C_2  and  N_9
    3  A    between atoms: C_3  and  N_51
    4  A    between atoms: N_4  and  C_13
    5  A    between atoms: N_9  and  C_18
    6  A    between atoms: C_13  and  C_17
    7  A    between atoms: C_13  and  C_39
    8  A    between atoms: C_20  and  C_39
    9  A    between atoms: C_21  and  C_27
   10  A    between atoms: N_29  and  C_52
   11  A    between atoms: C_34  and  C_35
   12  A    between atoms: C_37  and  C_44
   13  A    between atoms: C_44  and  C_52
   14  A    between atoms: C_48  and  C_53
   15  A    between atoms: N_51  and  C_53
                            x       y       z     vdW  Elec       q    Type
                         _______ _______ _______ _____ _____    ______ ____

>  <TORSDO>
F 15

$$$$
=
 OpenBabel10222417533D

 53 60  0  0  1  0  0  0  0  0999 V2000
  189.4600  176.3200  136.1290 C   0  0  0  0  0  0  0  0  0  0  0  0
  189.5110  177.1870  135.2120 O   0  0  0  0  0  0  0  0  0  0  0  0
  190.5610  176.5110  138.3820 C   0  0  0  0  0  3  0  0  0  0  0  0
  188.3350  177.4090  138.0750 C   0  0  0  0  0  3  0  0  0  0  0  0
  190.5310  176.8980  139.7240 C   0  0  0  0  0  3  0  0  0  0  0  0
  189.4610  176.7590  137.5450 C   0  0  0  0  0  0  0  0  0  0  0  0
  188.2950  177.7950  139.4230 C   0  0  0  0  0  0  0  0  0  0  0  0
  189.4010  177.5330  140.2440 C   0  0  0  0  0  3  0  0  0  0  0  0
  187.0920  178.4390  139.9780 C   0  0  0  0  0  0  0  0  0  0  0  0
  186.9730  178.6310  141.3880 N   0  0  0  0  0  2  0  0  0  0  0  0
  186.1560  178.8000  139.2080 O   0  0  0  0  0  0  0  0  0  0  0  0
  185.7620  179.1690  141.9900 C   0  0  0  0  0  2  0  0  0  0  0  0
  185.2500  178.1920  143.0340 C   0  0  0  0  0  2  0  0  0  0  0  0
  187.1700  178.2330  146.8100 C   0  0  0  0  0  2  0  0  0  0  0  0
  185.2650  179.0560  145.3900 C   0  0  0  0  0  2  0  0  0  0  0  0
  186.4090  177.0090  144.7690 O   0  0  0  0  0  0  0  0  0  0  0  0
  187.4070  177.1140  145.7750 C   0  0  1  0  0  3  0  0  0  0  0  0
  185.7020  178.6540  146.8000 C   0  0  0  0  0  2  0  0  0  0  0  0
  186.0630  178.3000  144.3140 C   0  0  1  0  0  3  0  0  0  0  0  0
  191.9930  177.1620  143.1060 O   0  0  0  0  0  1  0  0  0  0  0  0
  188.9500  176.5430  143.8050 C   0  0  0  0  0  2  0  0  0  0  0  0
  191.5540  177.8720  144.2240 C   0  0  1  0  0  3  0  0  0  0  0  0
  190.3300  178.7260  143.8510 C   0  0  0  0  0  2  0  0  0  0  0  0
  190.0270  177.1180  146.1310 C   0  0  0  0  0  2  0  0  0  0  0  0
  191.3450  176.9040  145.3920 C   0  0  0  0  0  2  0  0  0  0  0  0
  188.8150  177.1630  145.1870 C   0  0  2  0  0  0  0  0  0  0  0  0
  188.9390  178.0640  143.9690 C   0  0  2  0  0  3  0  0  0  0  0  0
  189.4010  174.8710  135.7290 C   0  0  2  0  0  3  0  0  0  0  0  0
  190.7510  174.3660  135.2010 C   0  0  2  0  0  3  0  0  0  0  0  0
  191.0140  173.0190  135.6780 N   0  0  0  0  0  1  0  0  0  0  0  0
  191.7790  175.2010  135.6110 F   0  0  0  0  0  0  0  0  0  0  0  0
  188.3370  174.6770  134.7480 N   0  0  0  0  0  2  0  0  0  0  0  0
  187.1690  174.1210  135.4250 C   0  0  1  0  0  3  0  0  0  0  0  0
  187.5700  173.5760  136.7820 C   0  0  0  0  0  1  0  0  0  0  0  0
  186.1690  175.1620  135.6170 N   0  0  0  0  0  2  0  0  0  0  0  0
  182.0810  176.7690  137.7940 C   0  0  2  0  0  3  0  0  0  0  0  0
  184.1300  173.4170  135.5910 S   0  0  0  0  0  0  0  0  0  0  0  0
  185.1380  174.6380  136.5010 C   0  0  2  0  0  3  0  0  0  0  0  0
  184.0220  175.6550  136.6730 C   0  0  1  0  0  0  0  0  0  0  0  0
  181.8990  175.2030  135.4980 C   0  0  0  0  0  2  0  0  0  0  0  0
  184.4100  176.5150  137.7600 O   0  0  0  0  0  0  0  0  0  0  0  0
  180.7860  176.0550  136.6810 S   0  0  0  0  0  0  0  0  0  0  0  0
  182.9910  174.5970  136.3440 C   0  0  1  0  0  3  0  0  0  0  0  0
  183.2840  175.8190  138.0010 C   0  0  1  0  0  3  0  0  0  0  0  0
  181.4910  177.1280  139.0740 N   0  0  0  0  0  2  0  0  0  0  0  0
  181.3180  178.5710  139.0700 C   0  0  0  0  0  2  0  0  0  0  0  0
  179.7560  180.4080  139.5400 C   0  0  0  0  0  0  0  0  0  0  0  0
  180.0680  180.6510  143.0200 O   0  0  0  0  0  0  0  0  0  0  0  0
  179.5640  180.9830  138.4360 O   0  0  0  0  0  0  0  0  0  0  0  0
  179.9270  178.5020  141.4230 S   0  0  0  0  0  0  0  0  0  0  0  0
  179.7730  181.1340  140.7540 N   0  0  0  0  0  2  0  0  0  0  0  0
  179.9590  178.9340  139.6390 C   0  0  2  0  0  3  0  0  0  0  0  0
  179.9270  180.2380  141.8370 C   0  0  0  0  0  0  0  0  0  0  0  0
  1  6  1  0  0  0  0
  2  1  2  0  0  0  0
  3  5  1  0  0  0  0
  4  7  2  0  0  0  0
  5  8  2  0  0  0  0
  6  4  1  0  0  0  0
  6  3  2  0  0  0  0
  7  9  1  0  0  0  0
  7  8  1  0  0  0  0
  9 10  1  0  0  0  0
 10 12  1  0  0  0  0
 11  9  2  0  0  0  0
 12 13  1  0  0  0  0
 15 18  1  0  0  0  0
 16 17  1  0  0  0  0
 17 14  1  6  0  0  0
 18 14  1  0  0  0  0
 19 13  1  6  0  0  0
 19 16  1  0  0  0  0
 19 15  1  0  0  0  0
 22 20  1  6  0  0  0
 22 25  1  0  0  0  0
 23 27  1  0  0  0  0
 23 22  1  0  0  0  0
 25 24  1  0  0  0  0
 26 21  1  6  0  0  0
 26 17  1  0  0  0  0
 26 24  1  0  0  0  0
 27 21  1  6  0  0  0
 27 26  1  0  0  0  0
 28 32  1  6  0  0  0
 28  1  1  0  0  0  0
 29 31  1  1  0  0  0
 29 30  1  0  0  0  0
 29 28  1  0  0  0  0
 32 33  1  0  0  0  0
 33 35  1  0  0  0  0
 33 34  1  1  0  0  0
 36 44  1  0  0  0  0
 36 45  1  1  0  0  0
 37 43  1  0  0  0  0
 37 38  1  0  0  0  0
 38 35  1  6  0  0  0
 38 39  1  0  0  0  0
 39 41  1  6  0  0  0
 39 44  1  0  0  0  0
 40 42  1  0  0  0  0
 42 36  1  0  0  0  0
 43 40  1  6  0  0  0
 43 39  1  0  0  0  0
 44 41  1  1  0  0  0
 46 45  1  0  0  0  0
 47 52  1  0  0  0  0
 47 51  1  0  0  0  0
 49 47  2  0  0  0  0
 50 53  1  0  0  0  0
 51 53  1  0  0  0  0
 52 46  1  1  0  0  0
 52 50  1  0  0  0  0
 53 48  2  0  0  0  0
M  END
>  <MODEL>
4

>  <REMARK>
 VINA RESULT:      -8.5      3.743     10.152
  Name = 
  15 active torsions:
  status: ('A' for Active; 'I' for Inactive)
    1  A    between atoms: C_2  and  N_4
    2  A    between atoms: C_2  and  N_9
    3  A    between atoms: C_3  and  N_51
    4  A    between atoms: N_4  and  C_13
    5  A    between atoms: N_9  and  C_18
    6  A    between atoms: C_13  and  C_17
    7  A    between atoms: C_13  and  C_39
    8  A    between atoms: C_20  and  C_39
    9  A    between atoms: C_21  and  C_27
   10  A    between atoms: N_29  and  C_52
   11  A    between atoms: C_34  and  C_35
   12  A    between atoms: C_37  and  C_44
   13  A    between atoms: C_44  and  C_52
   14  A    between atoms: C_48  and  C_53
   15  A    between atoms: N_51  and  C_53
                            x       y       z     vdW  Elec       q    Type
                         _______ _______ _______ _____ _____    ______ ____

>  <TORSDO>
F 15

$$$$
=
 OpenBabel10222417533D

 53 60  0  0  1  0  0  0  0  0999 V2000
  187.3570  177.8890  146.4060 C   0  0  0  0  0  0  0  0  0  0  0  0
  186.7960  177.7190  147.5240 O   0  0  0  0  0  0  0  0  0  0  0  0
  189.6310  177.2650  147.2820 C   0  0  0  0  0  3  0  0  0  0  0  0
  189.1870  177.0760  144.9120 C   0  0  0  0  0  3  0  0  0  0  0  0
  190.9420  176.8340  147.0700 C   0  0  0  0  0  3  0  0  0  0  0  0
  188.7410  177.3960  146.2040 C   0  0  0  0  0  0  0  0  0  0  0  0
  190.5040  176.6490  144.6900 C   0  0  0  0  0  0  0  0  0  0  0  0
  191.3790  176.5320  145.7790 C   0  0  0  0  0  3  0  0  0  0  0  0
  190.9720  176.3580  143.3240 C   0  0  0  0  0  0  0  0  0  0  0  0
  191.7240  177.3360  142.6050 N   0  0  0  0  0  2  0  0  0  0  0  0
  190.6890  175.2510  142.7810 O   0  0  0  0  0  0  0  0  0  0  0  0
  192.1200  177.1330  141.2190 C   0  0  0  0  0  2  0  0  0  0  0  0
  191.0240  177.6560  140.3070 C   0  0  0  0  0  2  0  0  0  0  0  0
  191.4970  175.5180  136.6810 C   0  0  0  0  0  2  0  0  0  0  0  0
  192.6000  176.7310  138.5870 C   0  0  0  0  0  2  0  0  0  0  0  0
  190.3620  175.8440  138.8820 O   0  0  0  0  0  0  0  0  0  0  0  0
  190.2140  175.4260  137.5320 C   0  0  1  0  0  3  0  0  0  0  0  0
  192.7250  175.5800  137.5870 C   0  0  0  0  0  2  0  0  0  0  0  0
  191.1290  177.0280  138.9270 C   0  0  1  0  0  3  0  0  0  0  0  0
  185.6870  177.2030  135.4100 O   0  0  0  0  0  1  0  0  0  0  0  0
  187.8210  175.1850  136.6360 C   0  0  0  0  0  2  0  0  0  0  0  0
  186.7940  177.8650  135.9420 C   0  0  1  0  0  3  0  0  0  0  0  0
  186.9630  177.4900  137.4240 C   0  0  0  0  0  2  0  0  0  0  0  0
  189.2680  177.2290  135.8460 C   0  0  0  0  0  2  0  0  0  0  0  0
  188.0160  177.6050  135.0580 C   0  0  0  0  0  2  0  0  0  0  0  0
  189.0220  176.0930  136.8500 C   0  0  2  0  0  0  0  0  0  0  0  0
  187.8040  176.2350  137.7480 C   0  0  2  0  0  3  0  0  0  0  0  0
  186.5820  178.5930  145.3250 C   0  0  2  0  0  3  0  0  0  0  0  0
  185.4130  179.4080  145.8970 C   0  0  2  0  0  3  0  0  0  0  0  0
  184.2420  178.5660  146.0730 N   0  0  0  0  0  1  0  0  0  0  0  0
  185.0930  180.4600  145.0520 F   0  0  0  0  0  0  0  0  0  0  0  0
  186.1230  177.6190  144.3390 N   0  0  0  0  0  2  0  0  0  0  0  0
  185.8340  178.3160  143.0890 C   0  0  1  0  0  3  0  0  0  0  0  0
  187.0000  178.1620  142.1310 C   0  0  0  0  0  1  0  0  0  0  0  0
  184.6440  177.7470  142.4720 N   0  0  0  0  0  2  0  0  0  0  0  0
  181.6490  178.7490  138.7220 C   0  0  2  0  0  3  0  0  0  0  0  0
  182.3740  179.0030  143.1610 S   0  0  0  0  0  0  0  0  0  0  0  0
  183.7990  178.8460  142.0290 C   0  0  2  0  0  3  0  0  0  0  0  0
  182.9820  178.4290  140.8170 C   0  0  1  0  0  0  0  0  0  0  0  0
  180.5800  177.9880  141.1790 C   0  0  0  0  0  2  0  0  0  0  0  0
  183.7960  178.6880  139.6600 O   0  0  0  0  0  0  0  0  0  0  0  0
  179.9970  178.4530  139.5030 S   0  0  0  0  0  0  0  0  0  0  0  0
  181.7180  178.9310  141.4810 C   0  0  1  0  0  3  0  0  0  0  0  0
  182.6600  179.4090  139.6890 C   0  0  1  0  0  3  0  0  0  0  0  0
  181.4920  179.5570  137.5230 N   0  0  0  0  0  2  0  0  0  0  0  0
  181.3450  180.9360  137.9600 C   0  0  0  0  0  2  0  0  0  0  0  0
  180.4210  182.3800  136.2010 C   0  0  0  0  0  0  0  0  0  0  0  0
  179.6150  185.2350  138.0620 O   0  0  0  0  0  0  0  0  0  0  0  0
  180.8110  181.8830  135.1120 O   0  0  0  0  0  0  0  0  0  0  0  0
  179.3090  182.6330  138.6310 S   0  0  0  0  0  0  0  0  0  0  0  0
  180.2720  183.7780  136.3600 N   0  0  0  0  0  2  0  0  0  0  0  0
  180.0770  181.5330  137.3790 C   0  0  2  0  0  3  0  0  0  0  0  0
  179.7480  184.0530  137.6440 C   0  0  0  0  0  0  0  0  0  0  0  0
  1  2  2  0  0  0  0
  4  6  1  0  0  0  0
  5  3  1  0  0  0  0
  6  1  1  0  0  0  0
  6  3  2  0  0  0  0
  7  4  2  0  0  0  0
  7  8  1  0  0  0  0
  8  5  2  0  0  0  0
  9  7  1  0  0  0  0
 10  9  1  0  0  0  0
 11  9  2  0  0  0  0
 12 10  1  0  0  0  0
 13 12  1  0  0  0  0
 14 18  1  0  0  0  0
 15 19  1  0  0  0  0
 16 19  1  0  0  0  0
 17 14  1  6  0  0  0
 17 16  1  0  0  0  0
 18 15  1  0  0  0  0
 19 13  1  1  0  0  0
 21 26  1  0  0  0  0
 22 20  1  6  0  0  0
 22 23  1  0  0  0  0
 23 27  1  0  0  0  0
 25 24  1  0  0  0  0
 25 22  1  0  0  0  0
 26 24  1  6  0  0  0
 26 17  1  0  0  0  0
 26 27  1  0  0  0  0
 27 21  1  6  0  0  0
 28 32  1  6  0  0  0
 28 29  1  0  0  0  0
 28  1  1  0  0  0  0
 29 31  1  6  0  0  0
 29 30  1  0  0  0  0
 33 34  1  6  0  0  0
 33 32  1  0  0  0  0
 35 33  1  0  0  0  0
 36 45  1  6  0  0  0
 36 42  1  0  0  0  0
 36 44  1  0  0  0  0
 38 35  1  1  0  0  0
 38 37  1  0  0  0  0
 39 41  1  6  0  0  0
 39 43  1  0  0  0  0
 39 38  1  0  0  0  0
 42 40  1  0  0  0  0
 43 40  1  1  0  0  0
 43 37  1  0  0  0  0
 44 41  1  6  0  0  0
 44 39  1  0  0  0  0
 45 46  1  0  0  0  0
 47 51  1  0  0  0  0
 47 52  1  0  0  0  0
 49 47  2  0  0  0  0
 51 53  1  0  0  0  0
 52 46  1  1  0  0  0
 52 50  1  0  0  0  0
 53 48  2  0  0  0  0
 53 50  1  0  0  0  0
M  END
>  <MODEL>
5

>  <REMARK>
 VINA RESULT:      -8.4      4.188     10.300
  Name = 
  15 active torsions:
  status: ('A' for Active; 'I' for Inactive)
    1  A    between atoms: C_2  and  N_4
    2  A    between atoms: C_2  and  N_9
    3  A    between atoms: C_3  and  N_51
    4  A    between atoms: N_4  and  C_13
    5  A    between atoms: N_9  and  C_18
    6  A    between atoms: C_13  and  C_17
    7  A    between atoms: C_13  and  C_39
    8  A    between atoms: C_20  and  C_39
    9  A    between atoms: C_21  and  C_27
   10  A    between atoms: N_29  and  C_52
   11  A    between atoms: C_34  and  C_35
   12  A    between atoms: C_37  and  C_44
   13  A    between atoms: C_44  and  C_52
   14  A    between atoms: C_48  and  C_53
   15  A    between atoms: N_51  and  C_53
                            x       y       z     vdW  Elec       q    Type
                         _______ _______ _______ _____ _____    ______ ____

>  <TORSDO>
F 15

$$$$
=
 OpenBabel10222417533D

 53 60  0  0  1  0  0  0  0  0999 V2000
  188.5640  177.1670  144.7510 C   0  0  0  0  0  0  0  0  0  0  0  0
  189.1910  176.9960  145.8340 O   0  0  0  0  0  0  0  0  0  0  0  0
  186.5670  178.0460  146.0020 C   0  0  0  0  0  3  0  0  0  0  0  0
  186.4980  177.9500  143.5860 C   0  0  0  0  0  3  0  0  0  0  0  0
  185.2630  178.5470  146.0190 C   0  0  0  0  0  3  0  0  0  0  0  0
  187.1960  177.7370  144.7850 C   0  0  0  0  0  0  0  0  0  0  0  0
  185.1870  178.4470  143.5940 C   0  0  0  0  0  0  0  0  0  0  0  0
  184.5740  178.7420  144.8200 C   0  0  0  0  0  3  0  0  0  0  0  0
  184.4500  178.6260  142.3310 C   0  0  0  0  0  0  0  0  0  0  0  0
  185.1570  178.9490  141.1330 N   0  0  0  0  0  2  0  0  0  0  0  0
  183.1900  178.5150  142.3130 O   0  0  0  0  0  0  0  0  0  0  0  0
  184.4640  179.2340  139.8860 C   0  0  0  0  0  2  0  0  0  0  0  0
  185.0100  178.3290  138.7950 C   0  0  0  0  0  2  0  0  0  0  0  0
  181.8070  176.6220  136.6110 C   0  0  0  0  0  2  0  0  0  0  0  0
  182.5430  178.3000  138.3330 C   0  0  0  0  0  2  0  0  0  0  0  0
  184.1580  177.4590  136.7290 O   0  0  0  0  0  0  0  0  0  0  0  0
  183.2750  176.5090  136.1490 C   0  0  1  0  0  3  0  0  0  0  0  0
  181.5490  178.0030  137.2080 C   0  0  0  0  0  2  0  0  0  0  0  0
  183.8830  177.5760  138.1090 C   0  0  1  0  0  3  0  0  0  0  0  0
  185.5590  171.7220  136.0110 O   0  0  0  0  0  1  0  0  0  0  0  0
  184.5780  174.5930  135.0460 C   0  0  0  0  0  2  0  0  0  0  0  0
  185.0500  172.4860  137.0610 C   0  0  1  0  0  3  0  0  0  0  0  0
  185.8260  173.8100  137.1680 C   0  0  0  0  0  2  0  0  0  0  0  0
  183.0320  174.0550  137.1010 C   0  0  0  0  0  2  0  0  0  0  0  0
  183.5340  172.6280  136.9000 C   0  0  0  0  0  2  0  0  0  0  0  0
  183.8070  175.0830  136.2620 C   0  0  2  0  0  0  0  0  0  0  0  0
  185.3240  174.9990  136.3190 C   0  0  2  0  0  3  0  0  0  0  0  0
  189.2490  176.7790  143.4690 C   0  0  2  0  0  3  0  0  0  0  0  0
  190.6060  176.1080  143.7250 C   0  0  2  0  0  3  0  0  0  0  0  0
  191.6900  176.9550  143.2580 N   0  0  0  0  0  1  0  0  0  0  0  0
  190.6760  174.8850  143.0760 F   0  0  0  0  0  0  0  0  0  0  0  0
  189.3860  177.9530  142.6120 N   0  0  0  0  0  2  0  0  0  0  0  0
  188.8210  177.6460  141.3010 C   0  0  1  0  0  3  0  0  0  0  0  0
  188.7940  178.8990  140.4460 C   0  0  0  0  0  1  0  0  0  0  0  0
  189.6390  176.6430  140.6340 N   0  0  0  0  0  2  0  0  0  0  0  0
  192.3020  175.3030  136.7430 C   0  0  2  0  0  3  0  0  0  0  0  0
  188.2870  176.6080  138.3150 S   0  0  0  0  0  0  0  0  0  0  0  0
  189.7980  177.0450  139.2440 C   0  0  2  0  0  3  0  0  0  0  0  0
  190.7090  176.0720  138.5150 C   0  0  1  0  0  0  0  0  0  0  0  0
  189.6430  174.4990  136.9400 C   0  0  0  0  0  2  0  0  0  0  0  0
  192.0570  176.5320  138.7230 O   0  0  0  0  0  0  0  0  0  0  0  0
  191.0610  174.3110  135.7930 S   0  0  0  0  0  0  0  0  0  0  0  0
  189.6910  175.9330  137.4030 C   0  0  1  0  0  3  0  0  0  0  0  0
  191.6800  176.5400  137.4310 C   0  0  1  0  0  3  0  0  0  0  0  0
  193.3920  175.7030  135.8670 N   0  0  0  0  0  2  0  0  0  0  0  0
  194.6290  175.3400  136.5400 C   0  0  0  0  0  2  0  0  0  0  0  0
  195.3360  174.3850  138.6900 C   0  0  0  0  0  0  0  0  0  0  0  0
  196.9250  171.4580  137.6070 O   0  0  0  0  0  0  0  0  0  0  0  0
  195.2760  175.3300  139.5200 O   0  0  0  0  0  0  0  0  0  0  0  0
  194.6510  172.6170  136.7890 S   0  0  0  0  0  0  0  0  0  0  0  0
  196.3270  173.3810  138.7900 N   0  0  0  0  0  2  0  0  0  0  0  0
  194.3640  174.2550  137.5660 C   0  0  2  0  0  3  0  0  0  0  0  0
  196.1150  172.4070  137.7870 C   0  0  0  0  0  0  0  0  0  0  0  0
  1  6  1  0  0  0  0
  1  2  2  0  0  0  0
  3  5  1  0  0  0  0
  4  7  2  0  0  0  0
  4  6  1  0  0  0  0
  6  3  2  0  0  0  0
  7  8  1  0  0  0  0
  8  5  2  0  0  0  0
  9  7  1  0  0  0  0
 10  9  1  0  0  0  0
 11  9  2  0  0  0  0
 12 10  1  0  0  0  0
 13 12  1  0  0  0  0
 14 18  1  0  0  0  0
 16 19  1  0  0  0  0
 17 26  1  0  0  0  0
 17 14  1  1  0  0  0
 17 16  1  0  0  0  0
 18 15  1  0  0  0  0
 19 15  1  0  0  0  0
 19 13  1  1  0  0  0
 22 20  1  6  0  0  0
 22 23  1  0  0  0  0
 25 22  1  0  0  0  0
 25 24  1  0  0  0  0
 26 21  1  6  0  0  0
 26 27  1  0  0  0  0
 26 24  1  0  0  0  0
 27 21  1  6  0  0  0
 27 23  1  0  0  0  0
 28 32  1  6  0  0  0
 28 29  1  0  0  0  0
 28  1  1  0  0  0  0
 29 31  1  6  0  0  0
 30 29  1  0  0  0  0
 33 34  1  6  0  0  0
 33 32  1  0  0  0  0
 35 33  1  0  0  0  0
 36 45  1  6  0  0  0
 36 44  1  0  0  0  0
 37 38  1  0  0  0  0
 38 35  1  1  0  0  0
 39 41  1  1  0  0  0
 39 38  1  0  0  0  0
 42 36  1  0  0  0  0
 42 40  1  0  0  0  0
 43 40  1  1  0  0  0
 43 37  1  0  0  0  0
 43 39  1  0  0  0  0
 44 39  1  0  0  0  0
 44 41  1  1  0  0  0
 45 46  1  0  0  0  0
 47 51  1  0  0  0  0
 47 49  2  0  0  0  0
 48 53  2  0  0  0  0
 50 52  1  0  0  0  0
 50 53  1  0  0  0  0
 52 46  1  6  0  0  0
 52 47  1  0  0  0  0
 53 51  1  0  0  0  0
M  END
>  <MODEL>
6

>  <REMARK>
 VINA RESULT:      -8.2      2.737      4.129
  Name = 
  15 active torsions:
  status: ('A' for Active; 'I' for Inactive)
    1  A    between atoms: C_2  and  N_4
    2  A    between atoms: C_2  and  N_9
    3  A    between atoms: C_3  and  N_51
    4  A    between atoms: N_4  and  C_13
    5  A    between atoms: N_9  and  C_18
    6  A    between atoms: C_13  and  C_17
    7  A    between atoms: C_13  and  C_39
    8  A    between atoms: C_20  and  C_39
    9  A    between atoms: C_21  and  C_27
   10  A    between atoms: N_29  and  C_52
   11  A    between atoms: C_34  and  C_35
   12  A    between atoms: C_37  and  C_44
   13  A    between atoms: C_44  and  C_52
   14  A    between atoms: C_48  and  C_53
   15  A    between atoms: N_51  and  C_53
                            x       y       z     vdW  Elec       q    Type
                         _______ _______ _______ _____ _____    ______ ____

>  <TORSDO>
F 15

$$$$
=
 OpenBabel10222417533D

 53 60  0  0  1  0  0  0  0  0999 V2000
  188.8770  175.9390  136.5560 C   0  0  0  0  0  0  0  0  0  0  0  0
  189.4260  176.3220  135.4860 O   0  0  0  0  0  0  0  0  0  0  0  0
  190.6810  176.0470  138.3050 C   0  0  0  0  0  3  0  0  0  0  0  0
  188.6080  177.2390  138.6720 C   0  0  0  0  0  3  0  0  0  0  0  0
  191.1480  176.4780  139.5490 C   0  0  0  0  0  3  0  0  0  0  0  0
  189.4040  176.4200  137.8570 C   0  0  0  0  0  0  0  0  0  0  0  0
  189.0670  177.6710  139.9250 C   0  0  0  0  0  0  0  0  0  0  0  0
  190.3430  177.2820  140.3580 C   0  0  0  0  0  3  0  0  0  0  0  0
  188.2070  178.4960  140.7900 C   0  0  0  0  0  0  0  0  0  0  0  0
  186.8070  178.2210  140.8730 N   0  0  0  0  0  2  0  0  0  0  0  0
  188.7030  179.4600  141.4400 O   0  0  0  0  0  0  0  0  0  0  0  0
  185.9020  179.0700  141.6330 C   0  0  0  0  0  2  0  0  0  0  0  0
  185.1280  178.2120  142.6200 C   0  0  0  0  0  2  0  0  0  0  0  0
  186.3960  178.2910  146.6610 C   0  0  0  0  0  2  0  0  0  0  0  0
  184.6890  179.0070  144.9590 C   0  0  0  0  0  2  0  0  0  0  0  0
  186.0790  177.0720  144.5030 O   0  0  0  0  0  0  0  0  0  0  0  0
  186.8880  177.2240  145.6620 C   0  0  1  0  0  3  0  0  0  0  0  0
  184.9200  178.5990  146.4150 C   0  0  0  0  0  2  0  0  0  0  0  0
  185.7100  178.3450  144.0170 C   0  0  1  0  0  3  0  0  0  0  0  0
  192.0380  178.3030  144.9740 O   0  0  0  0  0  1  0  0  0  0  0  0
  188.9970  178.6760  145.8390 C   0  0  0  0  0  2  0  0  0  0  0  0
  191.3020  177.1260  144.8370 C   0  0  1  0  0  3  0  0  0  0  0  0
  190.6730  176.7430  146.1880 C   0  0  0  0  0  2  0  0  0  0  0  0
  188.9060  176.7940  144.0090 C   0  0  0  0  0  2  0  0  0  0  0  0
  190.3160  177.2740  143.6750 C   0  0  0  0  0  2  0  0  0  0  0  0
  188.3650  177.3970  145.3150 C   0  0  2  0  0  0  0  0  0  0  0  0
  189.2880  177.3380  146.5210 C   0  0  2  0  0  3  0  0  0  0  0  0
  187.7040  175.0040  136.4530 C   0  0  2  0  0  3  0  0  0  0  0  0
  188.1460  173.5540  136.2100 C   0  0  2  0  0  3  0  0  0  0  0  0
  187.3530  172.6380  137.0110 N   0  0  0  0  0  1  0  0  0  0  0  0
  189.4850  173.3920  136.5280 F   0  0  0  0  0  0  0  0  0  0  0  0
  186.7970  175.4690  135.4070 N   0  0  0  0  0  2  0  0  0  0  0  0
  185.9780  176.5520  135.9420 C   0  0  1  0  0  3  0  0  0  0  0  0
  186.2810  177.8410  135.2010 C   0  0  0  0  0  1  0  0  0  0  0  0
  184.5680  176.2350  135.7690 N   0  0  0  0  0  2  0  0  0  0  0  0
  180.7860  175.5590  138.8140 C   0  0  2  0  0  3  0  0  0  0  0  0
  183.8380  173.6720  136.0900 S   0  0  0  0  0  0  0  0  0  0  0  0
  184.1830  175.3090  136.8240 C   0  0  2  0  0  3  0  0  0  0  0  0
  182.7550  175.5780  137.2680 C   0  0  1  0  0  0  0  0  0  0  0  0
  181.0300  173.9690  136.5410 C   0  0  0  0  0  2  0  0  0  0  0  0
  182.8220  176.5920  138.2870 O   0  0  0  0  0  0  0  0  0  0  0  0
  179.8930  174.1790  137.9640 S   0  0  0  0  0  0  0  0  0  0  0  0
  182.4180  174.1110  137.1140 C   0  0  1  0  0  3  0  0  0  0  0  0
  182.3240  175.4210  138.7260 C   0  0  1  0  0  3  0  0  0  0  0  0
  180.3630  175.6410  140.2040 N   0  0  0  0  0  2  0  0  0  0  0  0
  179.6810  176.9150  140.3620 C   0  0  0  0  0  2  0  0  0  0  0  0
  179.7830  178.5310  142.2110 C   0  0  0  0  0  0  0  0  0  0  0  0
  179.8370  181.5480  140.4320 O   0  0  0  0  0  0  0  0  0  0  0  0
  179.4270  177.8960  143.2380 O   0  0  0  0  0  0  0  0  0  0  0  0
  181.0930  179.2250  139.9720 S   0  0  0  0  0  0  0  0  0  0  0  0
  179.4680  179.9000  142.0460 N   0  0  0  0  0  2  0  0  0  0  0  0
  180.5680  177.8890  141.1160 C   0  0  2  0  0  3  0  0  0  0  0  0
  180.0530  180.3780  140.8510 C   0  0  0  0  0  0  0  0  0  0  0  0
  1  6  1  0  0  0  0
  2  1  2  0  0  0  0
  3  5  1  0  0  0  0
  4  7  2  0  0  0  0
  5  8  2  0  0  0  0
  6  3  2  0  0  0  0
  6  4  1  0  0  0  0
  7  8  1  0  0  0  0
  7  9  1  0  0  0  0
  9 10  1  0  0  0  0
  9 11  2  0  0  0  0
 10 12  1  0  0  0  0
 12 13  1  0  0  0  0
 15 18  1  0  0  0  0
 16 17  1  0  0  0  0
 17 14  1  6  0  0  0
 18 14  1  0  0  0  0
 19 13  1  6  0  0  0
 19 16  1  0  0  0  0
 19 15  1  0  0  0  0
 22 20  1  1  0  0  0
 22 23  1  0  0  0  0
 23 27  1  0  0  0  0
 25 24  1  0  0  0  0
 25 22  1  0  0  0  0
 26 24  1  6  0  0  0
 26 17  1  0  0  0  0
 26 21  1  0  0  0  0
 26 27  1  0  0  0  0
 27 21  1  6  0  0  0
 28 32  1  6  0  0  0
 28  1  1  0  0  0  0
 29 28  1  0  0  0  0
 29 31  1  1  0  0  0
 29 30  1  0  0  0  0
 32 33  1  0  0  0  0
 33 34  1  6  0  0  0
 35 33  1  0  0  0  0
 36 45  1  1  0  0  0
 37 38  1  0  0  0  0
 37 43  1  0  0  0  0
 38 35  1  6  0  0  0
 38 39  1  0  0  0  0
 39 41  1  6  0  0  0
 39 44  1  0  0  0  0
 40 42  1  0  0  0  0
 42 36  1  0  0  0  0
 43 40  1  6  0  0  0
 43 39  1  0  0  0  0
 44 41  1  1  0  0  0
 44 36  1  0  0  0  0
 45 46  1  0  0  0  0
 47 49  2  0  0  0  0
 48 53  2  0  0  0  0
 50 53  1  0  0  0  0
 50 52  1  0  0  0  0
 51 47  1  0  0  0  0
 52 46  1  6  0  0  0
 52 47  1  0  0  0  0
 53 51  1  0  0  0  0
M  END
>  <MODEL>
7

>  <REMARK>
 VINA RESULT:      -8.2      4.053     10.192
  Name = 
  15 active torsions:
  status: ('A' for Active; 'I' for Inactive)
    1  A    between atoms: C_2  and  N_4
    2  A    between atoms: C_2  and  N_9
    3  A    between atoms: C_3  and  N_51
    4  A    between atoms: N_4  and  C_13
    5  A    between atoms: N_9  and  C_18
    6  A    between atoms: C_13  and  C_17
    7  A    between atoms: C_13  and  C_39
    8  A    between atoms: C_20  and  C_39
    9  A    between atoms: C_21  and  C_27
   10  A    between atoms: N_29  and  C_52
   11  A    between atoms: C_34  and  C_35
   12  A    between atoms: C_37  and  C_44
   13  A    between atoms: C_44  and  C_52
   14  A    between atoms: C_48  and  C_53
   15  A    between atoms: N_51  and  C_53
                            x       y       z     vdW  Elec       q    Type
                         _______ _______ _______ _____ _____    ______ ____

>  <TORSDO>
F 15

$$$$
=
 OpenBabel10222417533D

 53 60  0  0  1  0  0  0  0  0999 V2000
  187.5180  177.7190  146.4750 C   0  0  0  0  0  0  0  0  0  0  0  0
  187.1050  177.5180  147.6510 O   0  0  0  0  0  0  0  0  0  0  0  0
  189.8940  177.1400  147.0630 C   0  0  0  0  0  3  0  0  0  0  0  0
  189.1860  177.0190  144.7530 C   0  0  0  0  0  3  0  0  0  0  0  0
  191.1850  176.7590  146.6870 C   0  0  0  0  0  3  0  0  0  0  0  0
  188.8830  177.2780  146.0980 C   0  0  0  0  0  0  0  0  0  0  0  0
  190.4810  176.6430  144.3660 C   0  0  0  0  0  0  0  0  0  0  0  0
  191.4780  176.5170  145.3430 C   0  0  0  0  0  3  0  0  0  0  0  0
  190.7970  176.4150  142.9460 C   0  0  0  0  0  0  0  0  0  0  0  0
  191.1840  177.5120  142.1170 N   0  0  0  0  0  2  0  0  0  0  0  0
  190.7050  175.2520  142.4560 O   0  0  0  0  0  0  0  0  0  0  0  0
  191.4070  177.3520  140.6880 C   0  0  0  0  0  2  0  0  0  0  0  0
  190.1660  177.8060  139.9370 C   0  0  0  0  0  2  0  0  0  0  0  0
  189.2610  175.7190  136.3640 C   0  0  0  0  0  2  0  0  0  0  0  0
  188.4060  176.7540  138.4900 C   0  0  0  0  0  2  0  0  0  0  0  0
  190.5390  177.4800  137.5900 O   0  0  0  0  0  0  0  0  0  0  0  0
  190.5680  176.5190  136.5450 C   0  0  1  0  0  3  0  0  0  0  0  0
  188.0980  176.4580  137.0210 C   0  0  0  0  0  2  0  0  0  0  0  0
  189.9180  176.9200  138.7280 C   0  0  1  0  0  3  0  0  0  0  0  0
  195.1780  173.8910  136.5280 O   0  0  0  0  0  1  0  0  0  0  0  0
  192.9390  176.0010  135.7100 C   0  0  0  0  0  2  0  0  0  0  0  0
  194.1130  173.9060  137.4290 C   0  0  1  0  0  3  0  0  0  0  0  0
  193.9300  175.3240  137.9970 C   0  0  0  0  0  2  0  0  0  0  0  0
  191.6060  174.1270  136.9780 C   0  0  0  0  0  2  0  0  0  0  0  0
  192.8740  173.3040  136.7620 C   0  0  0  0  0  2  0  0  0  0  0  0
  191.7930  175.6110  136.6290 C   0  0  2  0  0  0  0  0  0  0  0  0
  193.0210  176.2940  137.2090 C   0  0  2  0  0  3  0  0  0  0  0  0
  186.5920  178.4030  145.5080 C   0  0  2  0  0  3  0  0  0  0  0  0
  185.3280  178.9330  146.2010 C   0  0  2  0  0  3  0  0  0  0  0  0
  185.6800  179.7540  147.3460 N   0  0  0  0  0  1  0  0  0  0  0  0
  184.5280  177.8840  146.6250 F   0  0  0  0  0  0  0  0  0  0  0  0
  186.2610  177.4910  144.4170 N   0  0  0  0  0  2  0  0  0  0  0  0
  185.9330  178.2750  143.2310 C   0  0  1  0  0  3  0  0  0  0  0  0
  187.0980  178.2530  142.2600 C   0  0  0  0  0  1  0  0  0  0  0  0
  184.7650  177.7080  142.5720 N   0  0  0  0  0  2  0  0  0  0  0  0
  181.7100  178.6680  138.8610 C   0  0  2  0  0  3  0  0  0  0  0  0
  182.5230  179.0030  143.2790 S   0  0  0  0  0  0  0  0  0  0  0  0
  183.9230  178.8070  142.1230 C   0  0  2  0  0  3  0  0  0  0  0  0
  183.0790  178.3750  140.9360 C   0  0  1  0  0  0  0  0  0  0  0  0
  180.6800  177.9700  141.3520 C   0  0  0  0  0  2  0  0  0  0  0  0
  183.8740  178.6020  139.7580 O   0  0  0  0  0  0  0  0  0  0  0  0
  180.0700  178.4070  139.6780 S   0  0  0  0  0  0  0  0  0  0  0  0
  181.8340  178.9050  141.6130 C   0  0  1  0  0  3  0  0  0  0  0  0
  182.7460  179.3360  139.7950 C   0  0  1  0  0  3  0  0  0  0  0  0
  181.5390  179.4540  137.6480 N   0  0  0  0  0  2  0  0  0  0  0  0
  181.3880  180.8400  138.0620 C   0  0  0  0  0  2  0  0  0  0  0  0
  180.4440  182.2000  136.2470 C   0  0  0  0  0  0  0  0  0  0  0  0
  179.7130  185.1610  137.9680 O   0  0  0  0  0  0  0  0  0  0  0  0
  180.8050  181.6400  135.1780 O   0  0  0  0  0  0  0  0  0  0  0  0
  179.3880  182.5980  138.6820 S   0  0  0  0  0  0  0  0  0  0  0  0
  180.3160  183.6060  136.3330 N   0  0  0  0  0  2  0  0  0  0  0  0
  180.1150  181.4220  137.4760 C   0  0  2  0  0  3  0  0  0  0  0  0
  179.8230  183.9570  137.6110 C   0  0  0  0  0  0  0  0  0  0  0  0
  1  2  2  0  0  0  0
  4  6  1  0  0  0  0
  5  3  1  0  0  0  0
  6  1  1  0  0  0  0
  6  3  2  0  0  0  0
  7  4  2  0  0  0  0
  7  8  1  0  0  0  0
  8  5  2  0  0  0  0
  9  7  1  0  0  0  0
 10  9  1  0  0  0  0
 11  9  2  0  0  0  0
 12 10  1  0  0  0  0
 13 12  1  0  0  0  0
 14 18  1  0  0  0  0
 15 19  1  0  0  0  0
 16 19  1  0  0  0  0
 17 14  1  1  0  0  0
 17 26  1  0  0  0  0
 17 16  1  0  0  0  0
 18 15  1  0  0  0  0
 19 13  1  1  0  0  0
 22 20  1  6  0  0  0
 22 23  1  0  0  0  0
 25 24  1  0  0  0  0
 25 22  1  0  0  0  0
 26 21  1  6  0  0  0
 26 24  1  0  0  0  0
 26 27  1  0  0  0  0
 27 21  1  6  0  0  0
 27 23  1  0  0  0  0
 28 32  1  6  0  0  0
 28 29  1  0  0  0  0
 28  1  1  0  0  0  0
 29 31  1  1  0  0  0
 29 30  1  0  0  0  0
 33 34  1  6  0  0  0
 33 32  1  0  0  0  0
 35 33  1  0  0  0  0
 36 45  1  6  0  0  0
 36 42  1  0  0  0  0
 36 44  1  0  0  0  0
 38 35  1  1  0  0  0
 38 37  1  0  0  0  0
 39 41  1  6  0  0  0
 39 43  1  0  0  0  0
 39 38  1  0  0  0  0
 42 40  1  0  0  0  0
 43 40  1  1  0  0  0
 43 37  1  0  0  0  0
 44 41  1  6  0  0  0
 44 39  1  0  0  0  0
 45 46  1  0  0  0  0
 47 51  1  0  0  0  0
 47 52  1  0  0  0  0
 49 47  2  0  0  0  0
 51 53  1  0  0  0  0
 52 46  1  1  0  0  0
 52 50  1  0  0  0  0
 53 48  2  0  0  0  0
 53 50  1  0  0  0  0
M  END
>  <MODEL>
8

>  <REMARK>
 VINA RESULT:      -8.2      3.955     10.832
  Name = 
  15 active torsions:
  status: ('A' for Active; 'I' for Inactive)
    1  A    between atoms: C_2  and  N_4
    2  A    between atoms: C_2  and  N_9
    3  A    between atoms: C_3  and  N_51
    4  A    between atoms: N_4  and  C_13
    5  A    between atoms: N_9  and  C_18
    6  A    between atoms: C_13  and  C_17
    7  A    between atoms: C_13  and  C_39
    8  A    between atoms: C_20  and  C_39
    9  A    between atoms: C_21  and  C_27
   10  A    between atoms: N_29  and  C_52
   11  A    between atoms: C_34  and  C_35
   12  A    between atoms: C_37  and  C_44
   13  A    between atoms: C_44  and  C_52
   14  A    between atoms: C_48  and  C_53
   15  A    between atoms: N_51  and  C_53
                            x       y       z     vdW  Elec       q    Type
                         _______ _______ _______ _____ _____    ______ ____

>  <TORSDO>
F 15

$$$$
=
 OpenBabel10222417533D

 53 60  0  0  1  0  0  0  0  0999 V2000
  188.4620  177.2980  145.3900 C   0  0  0  0  0  0  0  0  0  0  0  0
  189.1030  176.8860  146.3960 O   0  0  0  0  0  0  0  0  0  0  0  0
  186.5980  178.1430  146.8520 C   0  0  0  0  0  3  0  0  0  0  0  0
  186.2740  178.0590  144.4560 C   0  0  0  0  0  3  0  0  0  0  0  0
  185.2970  178.6270  147.0100 C   0  0  0  0  0  3  0  0  0  0  0  0
  187.0970  177.8490  145.5720 C   0  0  0  0  0  0  0  0  0  0  0  0
  184.9650  178.5380  144.6070 C   0  0  0  0  0  0  0  0  0  0  0  0
  184.4820  178.8190  145.8930 C   0  0  0  0  0  3  0  0  0  0  0  0
  184.0950  178.7130  143.4310 C   0  0  0  0  0  0  0  0  0  0  0  0
  184.5270  178.2520  142.1500 N   0  0  0  0  0  2  0  0  0  0  0  0
  182.9780  179.2930  143.5520 O   0  0  0  0  0  0  0  0  0  0  0  0
  183.7490  178.4930  140.9450 C   0  0  0  0  0  2  0  0  0  0  0  0
  182.9790  177.2320  140.5890 C   0  0  0  0  0  2  0  0  0  0  0  0
  182.4890  177.2150  136.3810 C   0  0  0  0  0  2  0  0  0  0  0  0
  181.4050  177.0420  138.6440 C   0  0  0  0  0  2  0  0  0  0  0  0
  183.5650  178.1280  138.4430 O   0  0  0  0  0  0  0  0  0  0  0  0
  183.7310  177.8210  137.0660 C   0  0  1  0  0  3  0  0  0  0  0  0
  181.2370  177.5210  137.2010 C   0  0  0  0  0  2  0  0  0  0  0  0
  182.8800  177.0720  139.0810 C   0  0  1  0  0  3  0  0  0  0  0  0
  188.3460  175.5210  135.8120 O   0  0  0  0  0  1  0  0  0  0  0  0
  185.8590  177.5030  135.6660 C   0  0  0  0  0  2  0  0  0  0  0  0
  187.5290  175.4260  136.9390 C   0  0  1  0  0  3  0  0  0  0  0  0
  187.4060  176.8040  137.6120 C   0  0  0  0  0  2  0  0  0  0  0  0
  184.9790  175.4910  137.1070 C   0  0  0  0  0  2  0  0  0  0  0  0
  186.2030  174.7670  136.5510 C   0  0  0  0  0  2  0  0  0  0  0  0
  184.9910  176.9980  136.8070 C   0  0  2  0  0  0  0  0  0  0  0  0
  186.2810  177.7390  137.1170 C   0  0  2  0  0  3  0  0  0  0  0  0
  189.1250  177.2060  144.0430 C   0  0  2  0  0  3  0  0  0  0  0  0
  188.6200  176.0020  143.2350 C   0  0  2  0  0  3  0  0  0  0  0  0
  189.7280  175.1490  142.8430 N   0  0  0  0  0  1  0  0  0  0  0  0
  187.9490  176.4240  142.0980 F   0  0  0  0  0  0  0  0  0  0  0  0
  190.5750  177.1650  144.2120 N   0  0  0  0  0  2  0  0  0  0  0  0
  191.1910  178.0210  143.2030 C   0  0  1  0  0  3  0  0  0  0  0  0
  192.0280  179.0930  143.8770 C   0  0  0  0  0  1  0  0  0  0  0  0
  192.0560  177.2250  142.3430 N   0  0  0  0  0  2  0  0  0  0  0  0
  193.4040  175.9420  137.8080 C   0  0  2  0  0  3  0  0  0  0  0  0
  190.2440  177.7790  140.4420 S   0  0  0  0  0  0  0  0  0  0  0  0
  191.9840  177.7770  140.9980 C   0  0  2  0  0  3  0  0  0  0  0  0
  192.4650  176.7560  139.9820 C   0  0  1  0  0  0  0  0  0  0  0  0
  190.7460  175.6580  138.5920 C   0  0  0  0  0  2  0  0  0  0  0  0
  193.8930  176.9080  139.8860 O   0  0  0  0  0  0  0  0  0  0  0  0
  191.7910  175.3560  137.1150 S   0  0  0  0  0  0  0  0  0  0  0  0
  191.2190  176.9760  139.1520 C   0  0  1  0  0  3  0  0  0  0  0  0
  193.2470  177.1700  138.7350 C   0  0  1  0  0  3  0  0  0  0  0  0
  194.3300  176.2390  136.7260 N   0  0  0  0  0  2  0  0  0  0  0  0
  195.0550  175.0110  136.4430 C   0  0  0  0  0  2  0  0  0  0  0  0
  197.1950  174.5030  137.5390 C   0  0  0  0  0  0  0  0  0  0  0  0
  197.1700  171.0030  137.4180 O   0  0  0  0  0  0  0  0  0  0  0  0
  197.8560  175.5740  137.5070 O   0  0  0  0  0  0  0  0  0  0  0  0
  195.2100  172.7470  137.9690 S   0  0  0  0  0  0  0  0  0  0  0  0
  197.8290  173.2430  137.4280 N   0  0  0  0  0  2  0  0  0  0  0  0
  195.7130  174.4920  137.7090 C   0  0  2  0  0  3  0  0  0  0  0  0
  196.8680  172.2170  137.5730 C   0  0  0  0  0  0  0  0  0  0  0  0
  1  6  1  0  0  0  0
  1  2  2  0  0  0  0
  3  5  1  0  0  0  0
  4  7  2  0  0  0  0
  4  6  1  0  0  0  0
  6  3  2  0  0  0  0
  7  8  1  0  0  0  0
  8  5  2  0  0  0  0
  9 11  2  0  0  0  0
  9  7  1  0  0  0  0
 10  9  1  0  0  0  0
 12 10  1  0  0  0  0
 13 12  1  0  0  0  0
 14 18  1  0  0  0  0
 15 19  1  0  0  0  0
 16 19  1  0  0  0  0
 17 14  1  1  0  0  0
 17 16  1  0  0  0  0
 18 15  1  0  0  0  0
 19 13  1  1  0  0  0
 22 20  1  6  0  0  0
 22 23  1  0  0  0  0
 25 22  1  0  0  0  0
 25 24  1  0  0  0  0
 26 21  1  6  0  0  0
 26 17  1  0  0  0  0
 26 24  1  0  0  0  0
 26 27  1  0  0  0  0
 27 21  1  6  0  0  0
 27 23  1  0  0  0  0
 28 32  1  1  0  0  0
 28  1  1  0  0  0  0
 29 31  1  6  0  0  0
 29 28  1  0  0  0  0
 30 29  1  0  0  0  0
 33 34  1  1  0  0  0
 33 32  1  0  0  0  0
 35 33  1  0  0  0  0
 36 45  1  6  0  0  0
 36 44  1  0  0  0  0
 37 38  1  0  0  0  0
 38 35  1  1  0  0  0
 39 41  1  1  0  0  0
 39 38  1  0  0  0  0
 42 36  1  0  0  0  0
 42 40  1  0  0  0  0
 43 40  1  1  0  0  0
 43 39  1  0  0  0  0
 43 37  1  0  0  0  0
 44 41  1  1  0  0  0
 44 39  1  0  0  0  0
 46 45  1  0  0  0  0
 47 52  1  0  0  0  0
 48 53  2  0  0  0  0
 49 47  2  0  0  0  0
 51 47  1  0  0  0  0
 51 53  1  0  0  0  0
 52 46  1  6  0  0  0
 52 50  1  0  0  0  0
 53 50  1  0  0  0  0
M  END
>  <MODEL>
9

>  <REMARK>
 VINA RESULT:      -8.1      2.487      4.180
  Name = 
  15 active torsions:
  status: ('A' for Active; 'I' for Inactive)
    1  A    between atoms: C_2  and  N_4
    2  A    between atoms: C_2  and  N_9
    3  A    between atoms: C_3  and  N_51
    4  A    between atoms: N_4  and  C_13
    5  A    between atoms: N_9  and  C_18
    6  A    between atoms: C_13  and  C_17
    7  A    between atoms: C_13  and  C_39
    8  A    between atoms: C_20  and  C_39
    9  A    between atoms: C_21  and  C_27
   10  A    between atoms: N_29  and  C_52
   11  A    between atoms: C_34  and  C_35
   12  A    between atoms: C_37  and  C_44
   13  A    between atoms: C_44  and  C_52
   14  A    between atoms: C_48  and  C_53
   15  A    between atoms: N_51  and  C_53
                            x       y       z     vdW  Elec       q    Type
                         _______ _______ _______ _____ _____    ______ ____

>  <TORSDO>
F 15

$$$$
