=
 OpenBabel10222416273D

 38 42  0  0  1  0  0  0  0  0999 V2000
  181.5100  178.8960  141.1960 O   0  0  0  0  0  1  0  0  0  0  0  0
  179.4750  177.7620  140.6050 C   0  0  2  0  0  3  0  0  0  0  0  0
  180.9800  175.6680  139.3570 C   0  0  2  0  0  3  0  0  0  0  0  0
  180.9440  178.0190  140.2670 C   0  0  2  0  0  3  0  0  0  0  0  0
  182.3000  176.0170  137.4760 C   0  0  2  0  0  3  0  0  0  0  0  0
  183.1570  176.9030  139.7460 C   0  0  0  0  0  2  0  0  0  0  0  0
  183.2240  176.9260  138.2450 C   0  0  0  0  0  0  0  0  0  0  0  0
  184.1230  177.6610  137.5720 C   0  0  0  0  0  3  0  0  0  0  0  0
  180.9780  176.0240  137.9830 O   0  0  0  0  0  0  0  0  0  0  0  0
  179.3350  177.3680  141.9370 O   0  0  0  0  0  1  0  0  0  0  0  0
  178.9310  176.6690  139.6820 C   0  0  0  0  0  2  0  0  0  0  0  0
  179.6610  175.4670  139.8270 O   0  0  0  0  0  0  0  0  0  0  0  0
  181.7220  176.7020  140.2340 C   0  0  2  0  0  3  0  0  0  0  0  0
  187.4270  178.5260  137.7000 C   0  0  0  0  0  1  0  0  0  0  0  0
  185.2750  179.3810  141.7020 N   0  0  0  0  0  2  0  0  0  0  0  0
  186.6760  178.2090  139.8960 C   0  0  0  0  0  2  0  0  0  0  0  0
  185.4870  178.9500  140.3600 C   0  0  0  0  0  0  0  0  0  0  0  0
  184.6260  179.1540  139.4360 N   0  0  0  0  0  0  0  0  0  0  0  0
  185.1310  178.5910  138.1970 C   0  0  1  0  0  3  0  0  0  0  0  0
  186.3900  177.8940  138.4970 N   0  0  0  0  0  0  0  0  0  0  0  0
  186.2150  179.1050  142.7020 N   0  0  0  0  0  2  0  0  0  0  0  0
  184.6920  177.8860  143.9600 O   0  0  0  0  0  0  0  0  0  0  0  0
  185.8710  178.3200  143.8440 C   0  0  0  0  0  0  0  0  0  0  0  0
  185.3090  178.6460  146.8330 C   0  0  0  0  0  1  0  0  0  0  0  0
  190.7060  176.7390  144.8980 Cl  0  0  0  0  0  0  0  0  0  0  0  0
  188.1410  177.5830  144.4990 C   0  0  0  0  0  3  0  0  0  0  0  0
  186.6090  178.1570  146.2930 C   0  0  0  0  0  0  0  0  0  0  0  0
  189.1310  177.2800  145.4340 C   0  0  0  0  0  0  0  0  0  0  0  0
  187.6110  177.8530  147.2210 C   0  0  0  0  0  3  0  0  0  0  0  0
  188.8650  177.4140  146.7960 C   0  0  0  0  0  3  0  0  0  0  0  0
  186.8680  178.0190  144.9030 C   0  0  0  0  0  0  0  0  0  0  0  0
  184.1040  174.2510  137.7290 C   0  0  0  0  0  3  0  0  0  0  0  0
  182.0480  173.6950  136.5800 C   0  0  0  0  0  3  0  0  0  0  0  0
  184.5730  172.9510  137.5210 C   0  0  0  0  0  0  0  0  0  0  0  0
  183.7800  172.0220  136.8440 C   0  0  0  0  0  3  0  0  0  0  0  0
  185.7950  172.5920  137.9810 F   0  0  0  0  0  0  0  0  0  0  0  0
  182.5170  172.3930  136.3740 C   0  0  0  0  0  3  0  0  0  0  0  0
  182.8400  174.6310  137.2530 C   0  0  0  0  0  0  0  0  0  0  0  0
  2 10  1  1  0  0  0
  3  9  1  6  0  0  0
  3 12  1  0  0  0  0
  3 13  1  0  0  0  0
  4  2  1  0  0  0  0
  4  1  1  1  0  0  0
  5 38  1  1  0  0  0
  5  9  1  0  0  0  0
  5  7  1  0  0  0  0
  7  6  1  0  0  0  0
  8  7  2  0  0  0  0
 11 12  1  0  0  0  0
 11  2  1  0  0  0  0
 13  6  1  6  0  0  0
 13  4  1  0  0  0  0
 14 20  1  0  0  0  0
 15 21  1  0  0  0  0
 16 17  1  0  0  0  0
 17 15  1  0  0  0  0
 18 17  2  0  0  0  0
 19  8  1  1  0  0  0
 19 20  1  0  0  0  0
 19 18  1  0  0  0  0
 20 16  1  0  0  0  0
 21 23  1  0  0  0  0
 23 22  2  0  0  0  0
 23 31  1  0  0  0  0
 25 28  1  0  0  0  0
 26 31  2  0  0  0  0
 26 28  1  0  0  0  0
 27 24  1  0  0  0  0
 27 29  2  0  0  0  0
 28 30  2  0  0  0  0
 30 29  1  0  0  0  0
 31 27  1  0  0  0  0
 33 38  1  0  0  0  0
 34 32  1  0  0  0  0
 34 36  1  0  0  0  0
 35 34  2  0  0  0  0
 37 33  2  0  0  0  0
 37 35  1  0  0  0  0
 38 32  2  0  0  0  0
M  END
>  <MODEL>
1

>  <REMARK>
 VINA RESULT:      -9.4      0.000      0.000
  Name = 
  4 active torsions:
  status: ('A' for Active; 'I' for Inactive)
    1  A    between atoms: C_10  and  C_38
    2  A    between atoms: N_15  and  N_20
    3  A    between atoms: C_18  and  C_26
    4  A    between atoms: C_34  and  C_35
                            x       y       z     vdW  Elec       q    Type
                         _______ _______ _______ _____ _____    ______ ____

>  <TORSDO>
F 4

$$$$
=
 OpenBabel10222416273D

 38 42  0  0  1  0  0  0  0  0999 V2000
  182.1450  177.9770  139.2590 O   0  0  0  0  0  1  0  0  0  0  0  0
  180.4630  176.6080  138.2220 C   0  0  2  0  0  3  0  0  0  0  0  0
  182.4700  174.7420  137.3840 C   0  0  2  0  0  3  0  0  0  0  0  0
  181.9270  177.0530  138.2340 C   0  0  2  0  0  3  0  0  0  0  0  0
  184.1380  175.2880  135.8600 C   0  0  2  0  0  3  0  0  0  0  0  0
  184.3220  176.2330  138.2580 C   0  0  0  0  0  2  0  0  0  0  0  0
  184.7340  176.2910  136.8140 C   0  0  0  0  0  0  0  0  0  0  0  0
  185.6660  177.1460  136.3620 C   0  0  0  0  0  3  0  0  0  0  0  0
  182.7440  175.1210  136.0440 O   0  0  0  0  0  0  0  0  0  0  0  0
  180.0670  176.1740  139.4890 O   0  0  0  0  0  1  0  0  0  0  0  0
  180.2920  175.4720  137.2100 C   0  0  0  0  0  2  0  0  0  0  0  0
  181.1140  174.3690  137.5360 O   0  0  0  0  0  0  0  0  0  0  0  0
  182.8500  175.8440  138.3980 C   0  0  2  0  0  3  0  0  0  0  0  0
  188.6780  178.1120  137.6570 C   0  0  0  0  0  1  0  0  0  0  0  0
  185.1510  179.4670  140.3230 N   0  0  0  0  0  2  0  0  0  0  0  0
  187.1130  178.0900  139.4000 C   0  0  0  0  0  2  0  0  0  0  0  0
  185.8620  178.8560  139.2490 C   0  0  0  0  0  0  0  0  0  0  0  0
  185.4400  178.9020  138.0410 N   0  0  0  0  0  0  0  0  0  0  0  0
  186.3740  178.1830  137.1940 C   0  0  1  0  0  3  0  0  0  0  0  0
  187.3920  177.5720  138.0620 N   0  0  0  0  0  0  0  0  0  0  0  0
  185.6130  179.3630  141.6400 N   0  0  0  0  0  2  0  0  0  0  0  0
  184.1440  177.6360  142.1410 O   0  0  0  0  0  0  0  0  0  0  0  0
  185.0700  178.3950  142.5390 C   0  0  0  0  0  0  0  0  0  0  0  0
  183.3950  179.1330  144.9890 C   0  0  0  0  0  1  0  0  0  0  0  0
  189.0530  177.1100  145.6170 Cl  0  0  0  0  0  0  0  0  0  0  0  0
  186.8780  177.8200  144.1290 C   0  0  0  0  0  3  0  0  0  0  0  0
  184.7860  178.6060  145.0770 C   0  0  0  0  0  0  0  0  0  0  0  0
  187.4130  177.6810  145.4110 C   0  0  0  0  0  0  0  0  0  0  0  0
  185.3340  178.4650  146.3580 C   0  0  0  0  0  3  0  0  0  0  0  0
  186.6400  178.0030  146.5250 C   0  0  0  0  0  3  0  0  0  0  0  0
  185.5630  178.2760  143.9350 C   0  0  0  0  0  0  0  0  0  0  0  0
  185.9120  173.6770  136.6900 C   0  0  0  0  0  3  0  0  0  0  0  0
  184.5250  173.0520  134.8080 C   0  0  0  0  0  3  0  0  0  0  0  0
  186.5780  172.4510  136.6070 C   0  0  0  0  0  0  0  0  0  0  0  0
  186.2180  171.5250  135.6250 C   0  0  0  0  0  3  0  0  0  0  0  0
  187.5710  172.1600  137.4820 F   0  0  0  0  0  0  0  0  0  0  0  0
  185.1900  171.8250  134.7260 C   0  0  0  0  0  3  0  0  0  0  0  0
  184.8850  173.9860  135.7860 C   0  0  0  0  0  0  0  0  0  0  0  0
  2  4  1  0  0  0  0
  2 10  1  1  0  0  0
  3  9  1  6  0  0  0
  3 12  1  0  0  0  0
  3 13  1  0  0  0  0
  4 13  1  0  0  0  0
  4  1  1  1  0  0  0
  5 38  1  1  0  0  0
  5  9  1  0  0  0  0
  5  7  1  0  0  0  0
  7  6  1  0  0  0  0
  8  7  2  0  0  0  0
 11 12  1  0  0  0  0
 11  2  1  0  0  0  0
 13  6  1  6  0  0  0
 14 20  1  0  0  0  0
 15 21  1  0  0  0  0
 17 16  1  0  0  0  0
 17 15  1  0  0  0  0
 18 17  2  0  0  0  0
 19  8  1  1  0  0  0
 19 18  1  0  0  0  0
 19 20  1  0  0  0  0
 20 16  1  0  0  0  0
 21 23  1  0  0  0  0
 22 23  2  0  0  0  0
 23 31  1  0  0  0  0
 24 27  1  0  0  0  0
 26 28  1  0  0  0  0
 27 29  2  0  0  0  0
 28 25  1  0  0  0  0
 28 30  2  0  0  0  0
 29 30  1  0  0  0  0
 31 26  2  0  0  0  0
 31 27  1  0  0  0  0
 33 38  1  0  0  0  0
 34 32  1  0  0  0  0
 34 36  1  0  0  0  0
 35 34  2  0  0  0  0
 37 33  2  0  0  0  0
 37 35  1  0  0  0  0
 38 32  2  0  0  0  0
M  END
>  <MODEL>
2

>  <REMARK>
 VINA RESULT:      -9.1      1.669      2.217
  Name = 
  4 active torsions:
  status: ('A' for Active; 'I' for Inactive)
    1  A    between atoms: C_10  and  C_38
    2  A    between atoms: N_15  and  N_20
    3  A    between atoms: C_18  and  C_26
    4  A    between atoms: C_34  and  C_35
                            x       y       z     vdW  Elec       q    Type
                         _______ _______ _______ _____ _____    ______ ____

>  <TORSDO>
F 4

$$$$
=
 OpenBabel10222416273D

 38 42  0  0  1  0  0  0  0  0999 V2000
  194.1980  176.6700  137.1170 O   0  0  0  0  0  1  0  0  0  0  0  0
  194.7090  174.6190  135.9720 C   0  0  2  0  0  3  0  0  0  0  0  0
  191.9350  174.2450  135.3610 C   0  0  2  0  0  3  0  0  0  0  0  0
  193.6720  175.4270  136.7540 C   0  0  2  0  0  3  0  0  0  0  0  0
  190.3230  173.8900  136.9980 C   0  0  2  0  0  3  0  0  0  0  0  0
  191.2860  176.2730  136.7320 C   0  0  0  0  0  2  0  0  0  0  0  0
  190.5430  175.2680  137.5670 C   0  0  0  0  0  0  0  0  0  0  0  0
  190.0040  175.5750  138.7580 C   0  0  0  0  0  3  0  0  0  0  0  0
  191.4820  173.3640  136.3770 O   0  0  0  0  0  0  0  0  0  0  0  0
  195.2200  175.3670  134.9090 O   0  0  0  0  0  1  0  0  0  0  0  0
  194.0530  173.3430  135.4380 C   0  0  0  0  0  2  0  0  0  0  0  0
  192.9600  173.6450  134.5940 O   0  0  0  0  0  0  0  0  0  0  0  0
  192.4000  175.6070  135.9240 C   0  0  2  0  0  3  0  0  0  0  0  0
  192.1350  177.7970  140.2420 C   0  0  0  0  0  1  0  0  0  0  0  0
  187.8730  178.0630  142.0150 N   0  0  0  0  0  2  0  0  0  0  0  0
  190.3420  177.4270  141.7030 C   0  0  0  0  0  2  0  0  0  0  0  0
  188.9650  177.6240  141.2110 C   0  0  0  0  0  0  0  0  0  0  0  0
  188.8230  177.3310  139.9730 N   0  0  0  0  0  0  0  0  0  0  0  0
  190.1090  176.9120  139.4440 C   0  0  1  0  0  3  0  0  0  0  0  0
  191.0640  176.8690  140.5610 N   0  0  0  0  0  0  0  0  0  0  0  0
  188.0470  178.3340  143.3770 N   0  0  0  0  0  2  0  0  0  0  0  0
  187.2010  176.2690  144.0150 O   0  0  0  0  0  0  0  0  0  0  0  0
  187.6960  177.3720  144.3730 C   0  0  0  0  0  0  0  0  0  0  0  0
  185.4680  178.3950  146.2020 C   0  0  0  0  0  1  0  0  0  0  0  0
  191.0340  177.4430  148.3530 Cl  0  0  0  0  0  0  0  0  0  0  0  0
  189.1690  177.4570  146.3600 C   0  0  0  0  0  3  0  0  0  0  0  0
  186.8540  178.1170  146.6760 C   0  0  0  0  0  0  0  0  0  0  0  0
  189.4270  177.6990  147.7100 C   0  0  0  0  0  0  0  0  0  0  0  0
  187.1260  178.3580  148.0270 C   0  0  0  0  0  3  0  0  0  0  0  0
  188.4050  178.1490  148.5440 C   0  0  0  0  0  3  0  0  0  0  0  0
  187.8870  177.6540  145.8190 C   0  0  0  0  0  0  0  0  0  0  0  0
  188.5090  172.5110  135.8830 C   0  0  0  0  0  3  0  0  0  0  0  0
  188.4910  174.9190  135.6410 C   0  0  0  0  0  3  0  0  0  0  0  0
  187.3520  172.4240  135.1030 C   0  0  0  0  0  0  0  0  0  0  0  0
  186.7630  173.5840  134.5940 C   0  0  0  0  0  3  0  0  0  0  0  0
  186.8000  171.2140  134.8480 F   0  0  0  0  0  0  0  0  0  0  0  0
  187.3320  174.8310  134.8630 C   0  0  0  0  0  3  0  0  0  0  0  0
  189.0880  173.7610  136.1500 C   0  0  0  0  0  0  0  0  0  0  0  0
  2 10  1  6  0  0  0
  2  4  1  0  0  0  0
  3 12  1  1  0  0  0
  3 13  1  0  0  0  0
  3  9  1  0  0  0  0
  4  1  1  6  0  0  0
  5 38  1  6  0  0  0
  5  7  1  0  0  0  0
  6  7  1  0  0  0  0
  7  8  2  0  0  0  0
  9  5  1  0  0  0  0
 11  2  1  0  0  0  0
 12 11  1  0  0  0  0
 13  6  1  1  0  0  0
 13  4  1  0  0  0  0
 14 20  1  0  0  0  0
 15 21  1  0  0  0  0
 17 16  1  0  0  0  0
 17 15  1  0  0  0  0
 18 17  2  0  0  0  0
 19  8  1  1  0  0  0
 19 18  1  0  0  0  0
 19 20  1  0  0  0  0
 20 16  1  0  0  0  0
 21 23  1  0  0  0  0
 22 23  2  0  0  0  0
 23 31  1  0  0  0  0
 24 27  1  0  0  0  0
 26 28  1  0  0  0  0
 27 29  2  0  0  0  0
 28 25  1  0  0  0  0
 28 30  2  0  0  0  0
 29 30  1  0  0  0  0
 31 26  2  0  0  0  0
 31 27  1  0  0  0  0
 32 38  1  0  0  0  0
 33 38  2  0  0  0  0
 34 32  2  0  0  0  0
 35 37  2  0  0  0  0
 35 34  1  0  0  0  0
 36 34  1  0  0  0  0
 37 33  1  0  0  0  0
M  END
>  <MODEL>
3

>  <REMARK>
 VINA RESULT:      -9.0      5.707      7.967
  Name = 
  4 active torsions:
  status: ('A' for Active; 'I' for Inactive)
    1  A    between atoms: C_10  and  C_38
    2  A    between atoms: N_15  and  N_20
    3  A    between atoms: C_18  and  C_26
    4  A    between atoms: C_34  and  C_35
                            x       y       z     vdW  Elec       q    Type
                         _______ _______ _______ _____ _____    ______ ____

>  <TORSDO>
F 4

$$$$
=
 OpenBabel10222416273D

 38 42  0  0  1  0  0  0  0  0999 V2000
  184.2450  180.1280  139.3840 O   0  0  0  0  0  1  0  0  0  0  0  0
  181.9780  179.7180  138.6970 C   0  0  2  0  0  3  0  0  0  0  0  0
  182.5900  176.9530  138.2610 C   0  0  2  0  0  3  0  0  0  0  0  0
  183.4470  179.3010  138.5900 C   0  0  2  0  0  3  0  0  0  0  0  0
  184.0830  176.2370  136.6290 C   0  0  2  0  0  3  0  0  0  0  0  0
  185.0430  177.3430  138.7570 C   0  0  0  0  0  2  0  0  0  0  0  0
  185.2330  176.9140  137.3300 C   0  0  0  0  0  0  0  0  0  0  0  0
  186.4050  177.0380  136.6870 C   0  0  0  0  0  3  0  0  0  0  0  0
  182.8430  176.8800  136.8660 O   0  0  0  0  0  0  0  0  0  0  0  0
  181.5840  179.7980  140.0350 O   0  0  0  0  0  1  0  0  0  0  0  0
  181.1110  178.6940  137.9630 C   0  0  0  0  0  2  0  0  0  0  0  0
  181.2720  177.4000  138.5100 O   0  0  0  0  0  0  0  0  0  0  0  0
  183.6170  177.8380  139.0020 C   0  0  2  0  0  3  0  0  0  0  0  0
  189.7890  176.7090  137.0360 C   0  0  0  0  0  1  0  0  0  0  0  0
  187.9130  179.0020  140.5870 N   0  0  0  0  0  2  0  0  0  0  0  0
  188.8760  177.0970  139.1590 C   0  0  0  0  0  2  0  0  0  0  0  0
  188.0160  178.2780  139.3630 C   0  0  0  0  0  0  0  0  0  0  0  0
  187.3280  178.5890  138.3290 N   0  0  0  0  0  0  0  0  0  0  0  0
  187.6510  177.6610  137.2600 C   0  0  1  0  0  3  0  0  0  0  0  0
  188.5590  176.6410  137.8060 N   0  0  0  0  0  0  0  0  0  0  0  0
  188.6440  178.6130  141.7150 N   0  0  0  0  0  2  0  0  0  0  0  0
  186.7850  177.6720  142.7380 O   0  0  0  0  0  0  0  0  0  0  0  0
  188.0210  177.9180  142.7960 C   0  0  0  0  0  0  0  0  0  0  0  0
  190.5740  176.2410  142.6480 C   0  0  0  0  0  1  0  0  0  0  0  0
  188.3480  178.0100  147.9800 Cl  0  0  0  0  0  0  0  0  0  0  0  0
  188.3080  177.8770  145.2540 C   0  0  0  0  0  3  0  0  0  0  0  0
  189.9870  176.7290  143.9290 C   0  0  0  0  0  0  0  0  0  0  0  0
  188.9800  177.5200  146.4240 C   0  0  0  0  0  0  0  0  0  0  0  0
  190.6510  176.3750  145.1100 C   0  0  0  0  0  3  0  0  0  0  0  0
  190.1530  176.7690  146.3510 C   0  0  0  0  0  3  0  0  0  0  0  0
  188.7950  177.4970  143.9920 C   0  0  0  0  0  0  0  0  0  0  0  0
  182.9090  173.9970  136.4310 C   0  0  0  0  0  3  0  0  0  0  0  0
  185.1210  174.0990  137.4070 C   0  0  0  0  0  3  0  0  0  0  0  0
  182.8900  172.6120  136.6180 C   0  0  0  0  0  0  0  0  0  0  0  0
  183.9860  171.9700  137.1990 C   0  0  0  0  0  3  0  0  0  0  0  0
  181.8080  171.8940  136.2320 F   0  0  0  0  0  0  0  0  0  0  0  0
  185.1020  172.7130  137.5920 C   0  0  0  0  0  3  0  0  0  0  0  0
  184.0240  174.7490  136.8310 C   0  0  0  0  0  0  0  0  0  0  0  0
  2 10  1  1  0  0  0
  3  9  1  6  0  0  0
  3 12  1  0  0  0  0
  3 13  1  0  0  0  0
  4  2  1  0  0  0  0
  4 13  1  0  0  0  0
  4  1  1  1  0  0  0
  5 38  1  1  0  0  0
  5  9  1  0  0  0  0
  5  7  1  0  0  0  0
  7  6  1  0  0  0  0
  8  7  2  0  0  0  0
 11 12  1  0  0  0  0
 11  2  1  0  0  0  0
 13  6  1  6  0  0  0
 14 20  1  0  0  0  0
 15 21  1  0  0  0  0
 16 17  1  0  0  0  0
 17 15  1  0  0  0  0
 18 17  2  0  0  0  0
 19  8  1  1  0  0  0
 19 20  1  0  0  0  0
 19 18  1  0  0  0  0
 20 16  1  0  0  0  0
 21 23  1  0  0  0  0
 22 23  2  0  0  0  0
 23 31  1  0  0  0  0
 24 27  1  0  0  0  0
 26 28  1  0  0  0  0
 27 31  1  0  0  0  0
 27 29  2  0  0  0  0
 28 25  1  0  0  0  0
 29 30  1  0  0  0  0
 30 28  2  0  0  0  0
 31 26  2  0  0  0  0
 32 34  2  0  0  0  0
 32 38  1  0  0  0  0
 33 37  1  0  0  0  0
 34 35  1  0  0  0  0
 35 37  2  0  0  0  0
 36 34  1  0  0  0  0
 38 33  2  0  0  0  0
M  END
>  <MODEL>
4

>  <REMARK>
 VINA RESULT:      -8.8      2.185      2.997
  Name = 
  4 active torsions:
  status: ('A' for Active; 'I' for Inactive)
    1  A    between atoms: C_10  and  C_38
    2  A    between atoms: N_15  and  N_20
    3  A    between atoms: C_18  and  C_26
    4  A    between atoms: C_34  and  C_35
                            x       y       z     vdW  Elec       q    Type
                         _______ _______ _______ _____ _____    ______ ____

>  <TORSDO>
F 4

$$$$
=
 OpenBabel10222416273D

 38 42  0  0  1  0  0  0  0  0999 V2000
  181.3540  180.3800  136.7380 O   0  0  0  0  0  1  0  0  0  0  0  0
  179.3860  180.0490  138.0790 C   0  0  2  0  0  3  0  0  0  0  0  0
  181.0080  179.7590  140.4220 C   0  0  2  0  0  3  0  0  0  0  0  0
  180.8810  179.7740  137.9050 C   0  0  2  0  0  3  0  0  0  0  0  0
  182.5010  178.0010  140.7100 C   0  0  2  0  0  3  0  0  0  0  0  0
  183.1350  179.8790  139.0530 C   0  0  0  0  0  2  0  0  0  0  0  0
  183.3450  178.4790  139.5560 C   0  0  0  0  0  0  0  0  0  0  0  0
  184.3030  177.6720  139.0720 C   0  0  0  0  0  3  0  0  0  0  0  0
  181.1360  178.3540  140.5720 O   0  0  0  0  0  0  0  0  0  0  0  0
  179.1210  181.4180  137.9850 O   0  0  0  0  0  1  0  0  0  0  0  0
  178.9350  179.5280  139.4450 C   0  0  0  0  0  2  0  0  0  0  0  0
  179.6510  180.1520  140.4920 O   0  0  0  0  0  0  0  0  0  0  0  0
  181.6610  180.2770  139.1210 C   0  0  2  0  0  3  0  0  0  0  0  0
  185.1060  177.0470  135.8100 C   0  0  0  0  0  1  0  0  0  0  0  0
  188.8160  178.2680  138.2860 N   0  0  0  0  0  2  0  0  0  0  0  0
  187.0560  176.8290  137.0900 C   0  0  0  0  0  2  0  0  0  0  0  0
  187.4660  177.9430  137.9660 C   0  0  0  0  0  0  0  0  0  0  0  0
  186.4760  178.5930  138.4540 N   0  0  0  0  0  0  0  0  0  0  0  0
  185.2450  178.0150  137.9470 C   0  0  1  0  0  3  0  0  0  0  0  0
  185.5950  176.8250  137.1590 N   0  0  0  0  0  0  0  0  0  0  0  0
  189.8770  177.5110  137.7740 N   0  0  0  0  0  2  0  0  0  0  0  0
  190.1540  176.3430  139.7600 O   0  0  0  0  0  0  0  0  0  0  0  0
  190.5290  176.5210  138.5690 C   0  0  0  0  0  0  0  0  0  0  0  0
  193.4740  177.1130  139.1460 C   0  0  0  0  0  1  0  0  0  0  0  0
  191.8960  172.4840  135.5970 Cl  0  0  0  0  0  0  0  0  0  0  0  0
  191.3300  174.6300  137.1870 C   0  0  0  0  0  3  0  0  0  0  0  0
  193.0180  175.9730  138.3000 C   0  0  0  0  0  0  0  0  0  0  0  0
  192.3270  173.8220  136.6380 C   0  0  0  0  0  0  0  0  0  0  0  0
  194.0100  175.1570  137.7420 C   0  0  0  0  0  3  0  0  0  0  0  0
  193.6680  174.0860  136.9170 C   0  0  0  0  0  3  0  0  0  0  0  0
  191.6500  175.7110  138.0260 C   0  0  0  0  0  0  0  0  0  0  0  0
  184.4390  178.2540  142.3270 C   0  0  0  0  0  3  0  0  0  0  0  0
  182.1910  178.7490  143.0760 C   0  0  0  0  0  3  0  0  0  0  0  0
  184.9330  178.5820  143.5930 C   0  0  0  0  0  0  0  0  0  0  0  0
  184.0580  178.9940  144.6000 C   0  0  0  0  0  3  0  0  0  0  0  0
  186.2630  178.5030  143.8390 F   0  0  0  0  0  0  0  0  0  0  0  0
  182.6870  179.0790  144.3420 C   0  0  0  0  0  3  0  0  0  0  0  0
  183.0620  178.3300  142.0650 C   0  0  0  0  0  0  0  0  0  0  0  0
  2 10  1  1  0  0  0
  2 11  1  0  0  0  0
  3 12  1  6  0  0  0
  3  9  1  0  0  0  0
  4  1  1  6  0  0  0
  4  2  1  0  0  0  0
  4 13  1  0  0  0  0
  5 38  1  1  0  0  0
  6  7  1  0  0  0  0
  7  5  1  0  0  0  0
  8  7  2  0  0  0  0
  9  5  1  0  0  0  0
 11 12  1  0  0  0  0
 13  6  1  6  0  0  0
 13  3  1  0  0  0  0
 14 20  1  0  0  0  0
 16 20  1  0  0  0  0
 16 17  1  0  0  0  0
 17 15  1  0  0  0  0
 17 18  2  0  0  0  0
 19 18  1  0  0  0  0
 19  8  1  1  0  0  0
 20 19  1  0  0  0  0
 21 15  1  0  0  0  0
 21 23  1  0  0  0  0
 23 22  2  0  0  0  0
 25 28  1  0  0  0  0
 26 31  1  0  0  0  0
 27 24  1  0  0  0  0
 28 30  1  0  0  0  0
 28 26  2  0  0  0  0
 29 27  1  0  0  0  0
 30 29  2  0  0  0  0
 31 27  2  0  0  0  0
 31 23  1  0  0  0  0
 32 34  1  0  0  0  0
 33 37  2  0  0  0  0
 34 36  1  0  0  0  0
 34 35  2  0  0  0  0
 37 35  1  0  0  0  0
 38 32  2  0  0  0  0
 38 33  1  0  0  0  0
M  END
>  <MODEL>
5

>  <REMARK>
 VINA RESULT:      -8.8      4.304      6.779
  Name = 
  4 active torsions:
  status: ('A' for Active; 'I' for Inactive)
    1  A    between atoms: C_10  and  C_38
    2  A    between atoms: N_15  and  N_20
    3  A    between atoms: C_18  and  C_26
    4  A    between atoms: C_34  and  C_35
                            x       y       z     vdW  Elec       q    Type
                         _______ _______ _______ _____ _____    ______ ____

>  <TORSDO>
F 4

$$$$
=
 OpenBabel10222416273D

 38 42  0  0  1  0  0  0  0  0999 V2000
  188.4180  178.4010  146.8430 O   0  0  0  0  0  1  0  0  0  0  0  0
  190.1630  176.8140  147.3080 C   0  0  2  0  0  3  0  0  0  0  0  0
  191.1220  177.0510  144.6180 C   0  0  2  0  0  3  0  0  0  0  0  0
  189.2450  177.4400  146.2560 C   0  0  2  0  0  3  0  0  0  0  0  0
  189.8750  176.3820  142.7740 C   0  0  2  0  0  3  0  0  0  0  0  0
  189.1880  178.5580  143.9850 C   0  0  0  0  0  2  0  0  0  0  0  0
  188.8360  177.4400  143.0450 C   0  0  0  0  0  0  0  0  0  0  0  0
  187.6700  177.3930  142.3820 C   0  0  0  0  0  3  0  0  0  0  0  0
  190.5310  175.9470  143.9510 O   0  0  0  0  0  0  0  0  0  0  0  0
  190.8400  177.8030  148.0260 O   0  0  0  0  0  1  0  0  0  0  0  0
  191.1720  175.8980  146.6120 C   0  0  0  0  0  2  0  0  0  0  0  0
  191.9530  176.6150  145.6760 O   0  0  0  0  0  0  0  0  0  0  0  0
  190.0720  178.0630  145.1290 C   0  0  2  0  0  3  0  0  0  0  0  0
  184.8180  178.1730  144.0970 C   0  0  0  0  0  1  0  0  0  0  0  0
  184.7040  179.7740  139.7600 N   0  0  0  0  0  2  0  0  0  0  0  0
  184.3340  178.2660  141.8060 C   0  0  0  0  0  2  0  0  0  0  0  0
  185.1710  179.1100  140.9310 C   0  0  0  0  0  0  0  0  0  0  0  0
  186.3930  179.1730  141.3080 N   0  0  0  0  0  0  0  0  0  0  0  0
  186.5470  178.3890  142.5190 C   0  0  1  0  0  3  0  0  0  0  0  0
  185.2670  177.7200  142.7920 N   0  0  0  0  0  0  0  0  0  0  0  0
  183.3720  179.6510  139.3480 N   0  0  0  0  0  2  0  0  0  0  0  0
  183.8800  177.9860  137.8120 O   0  0  0  0  0  0  0  0  0  0  0  0
  182.9920  178.7050  138.3470 C   0  0  0  0  0  0  0  0  0  0  0  0
  180.8990  177.1050  139.8990 C   0  0  0  0  0  1  0  0  0  0  0  0
  179.4470  179.8970  134.7410 Cl  0  0  0  0  0  0  0  0  0  0  0  0
  181.1980  179.1910  136.7120 C   0  0  0  0  0  3  0  0  0  0  0  0
  180.5990  177.8360  138.6350 C   0  0  0  0  0  0  0  0  0  0  0  0
  179.8880  179.1070  136.2380 C   0  0  0  0  0  0  0  0  0  0  0  0
  179.2890  177.7570  138.1490 C   0  0  0  0  0  3  0  0  0  0  0  0
  178.9330  178.3910  136.9580 C   0  0  0  0  0  3  0  0  0  0  0  0
  181.5780  178.5670  137.9120 C   0  0  0  0  0  0  0  0  0  0  0  0
  190.5010  176.4610  140.3170 C   0  0  0  0  0  3  0  0  0  0  0  0
  192.0440  177.3300  141.9670 C   0  0  0  0  0  3  0  0  0  0  0  0
  191.3980  176.7990  139.3000 C   0  0  0  0  0  0  0  0  0  0  0  0
  192.6170  177.4040  139.6150 C   0  0  0  0  0  3  0  0  0  0  0  0
  191.0810  176.5450  138.0080 F   0  0  0  0  0  0  0  0  0  0  0  0
  192.9400  177.6700  140.9490 C   0  0  0  0  0  3  0  0  0  0  0  0
  190.8240  176.7190  141.6580 C   0  0  0  0  0  0  0  0  0  0  0  0
  2 10  1  6  0  0  0
  3  9  1  1  0  0  0
  3 13  1  0  0  0  0
  3 12  1  0  0  0  0
  4  1  1  1  0  0  0
  4  2  1  0  0  0  0
  5 38  1  6  0  0  0
  5  7  1  0  0  0  0
  5  9  1  0  0  0  0
  7  6  1  0  0  0  0
  8  7  2  0  0  0  0
 11  2  1  0  0  0  0
 12 11  1  0  0  0  0
 13  6  1  6  0  0  0
 13  4  1  0  0  0  0
 15 17  1  0  0  0  0
 16 20  1  0  0  0  0
 17 18  2  0  0  0  0
 17 16  1  0  0  0  0
 18 19  1  0  0  0  0
 19  8  1  6  0  0  0
 19 20  1  0  0  0  0
 20 14  1  0  0  0  0
 21 15  1  0  0  0  0
 22 23  2  0  0  0  0
 23 21  1  0  0  0  0
 25 28  1  0  0  0  0
 26 31  1  0  0  0  0
 27 24  1  0  0  0  0
 28 26  2  0  0  0  0
 28 30  1  0  0  0  0
 29 27  1  0  0  0  0
 30 29  2  0  0  0  0
 31 23  1  0  0  0  0
 31 27  2  0  0  0  0
 32 38  1  0  0  0  0
 34 35  1  0  0  0  0
 34 32  2  0  0  0  0
 35 37  2  0  0  0  0
 36 34  1  0  0  0  0
 37 33  1  0  0  0  0
 38 33  2  0  0  0  0
M  END
>  <MODEL>
6

>  <REMARK>
 VINA RESULT:      -8.4      4.331      9.557
  Name = 
  4 active torsions:
  status: ('A' for Active; 'I' for Inactive)
    1  A    between atoms: C_10  and  C_38
    2  A    between atoms: N_15  and  N_20
    3  A    between atoms: C_18  and  C_26
    4  A    between atoms: C_34  and  C_35
                            x       y       z     vdW  Elec       q    Type
                         _______ _______ _______ _____ _____    ______ ____

>  <TORSDO>
F 4

$$$$
=
 OpenBabel10222416273D

 38 42  0  0  1  0  0  0  0  0999 V2000
  184.9040  179.4720  139.3040 O   0  0  0  0  0  1  0  0  0  0  0  0
  182.8220  179.0150  138.1920 C   0  0  2  0  0  3  0  0  0  0  0  0
  183.7930  176.4420  137.3890 C   0  0  2  0  0  3  0  0  0  0  0  0
  184.3270  178.7480  138.2580 C   0  0  2  0  0  3  0  0  0  0  0  0
  185.5800  176.1710  135.9280 C   0  0  2  0  0  3  0  0  0  0  0  0
  186.0870  176.9290  138.3440 C   0  0  0  0  0  2  0  0  0  0  0  0
  186.5320  176.7940  136.9160 C   0  0  0  0  0  0  0  0  0  0  0  0
  187.7650  177.1330  136.5070 C   0  0  0  0  0  3  0  0  0  0  0  0
  184.2560  176.6550  136.0650 O   0  0  0  0  0  0  0  0  0  0  0  0
  182.2280  178.8090  139.4390 O   0  0  0  0  0  1  0  0  0  0  0  0
  182.1910  178.0810  137.1570 C   0  0  0  0  0  2  0  0  0  0  0  0
  182.4100  176.7250  137.4910 O   0  0  0  0  0  0  0  0  0  0  0  0
  184.5950  177.2510  138.4320 C   0  0  2  0  0  3  0  0  0  0  0  0
  190.9490  176.7530  137.6890 C   0  0  0  0  0  1  0  0  0  0  0  0
  188.2770  179.0630  140.6730 N   0  0  0  0  0  2  0  0  0  0  0  0
  189.5400  177.1480  139.5190 C   0  0  0  0  0  2  0  0  0  0  0  0
  188.6720  178.3410  139.5090 C   0  0  0  0  0  0  0  0  0  0  0  0
  188.2700  178.6650  138.3380 N   0  0  0  0  0  0  0  0  0  0  0  0
  188.8370  177.7360  137.3780 C   0  0  1  0  0  3  0  0  0  0  0  0
  189.5650  176.7010  138.1260 N   0  0  0  0  0  0  0  0  0  0  0  0
  188.6970  178.6590  141.9460 N   0  0  0  0  0  2  0  0  0  0  0  0
  186.5300  178.2040  142.6430 O   0  0  0  0  0  0  0  0  0  0  0  0
  187.7600  178.2130  142.9260 C   0  0  0  0  0  0  0  0  0  0  0  0
  185.9510  178.2550  145.3930 C   0  0  0  0  0  1  0  0  0  0  0  0
  191.6820  176.3840  145.8000 Cl  0  0  0  0  0  0  0  0  0  0  0  0
  189.5320  177.3440  144.4190 C   0  0  0  0  0  3  0  0  0  0  0  0
  187.3650  177.7820  145.4220 C   0  0  0  0  0  0  0  0  0  0  0  0
  190.0230  176.9180  145.6550 C   0  0  0  0  0  0  0  0  0  0  0  0
  187.8690  177.3560  146.6560 C   0  0  0  0  0  3  0  0  0  0  0  0
  189.1900  176.9230  146.7730 C   0  0  0  0  0  3  0  0  0  0  0  0
  188.2030  177.7770  144.2750 C   0  0  0  0  0  0  0  0  0  0  0  0
  186.5950  173.9490  136.6090 C   0  0  0  0  0  3  0  0  0  0  0  0
  184.7510  173.9840  135.0410 C   0  0  0  0  0  3  0  0  0  0  0  0
  186.6320  172.5530  136.5340 C   0  0  0  0  0  0  0  0  0  0  0  0
  185.7290  171.8730  135.7140 C   0  0  0  0  0  3  0  0  0  0  0  0
  187.5430  171.8620  137.2610 F   0  0  0  0  0  0  0  0  0  0  0  0
  184.7880  172.5880  134.9690 C   0  0  0  0  0  3  0  0  0  0  0  0
  185.6560  174.6710  135.8560 C   0  0  0  0  0  0  0  0  0  0  0  0
  2  4  1  0  0  0  0
  2 10  1  1  0  0  0
  3  9  1  6  0  0  0
  3 12  1  0  0  0  0
  3 13  1  0  0  0  0
  4 13  1  0  0  0  0
  4  1  1  1  0  0  0
  5 38  1  1  0  0  0
  5  9  1  0  0  0  0
  5  7  1  0  0  0  0
  7  6  1  0  0  0  0
  8  7  2  0  0  0  0
 11 12  1  0  0  0  0
 11  2  1  0  0  0  0
 13  6  1  6  0  0  0
 14 20  1  0  0  0  0
 15 21  1  0  0  0  0
 17 16  1  0  0  0  0
 17 15  1  0  0  0  0
 18 17  2  0  0  0  0
 19  8  1  1  0  0  0
 19 20  1  0  0  0  0
 19 18  1  0  0  0  0
 20 16  1  0  0  0  0
 21 23  1  0  0  0  0
 22 23  2  0  0  0  0
 23 31  1  0  0  0  0
 24 27  1  0  0  0  0
 26 28  1  0  0  0  0
 27 29  2  0  0  0  0
 28 25  1  0  0  0  0
 28 30  2  0  0  0  0
 29 30  1  0  0  0  0
 31 26  2  0  0  0  0
 31 27  1  0  0  0  0
 33 38  1  0  0  0  0
 34 32  1  0  0  0  0
 34 36  1  0  0  0  0
 35 34  2  0  0  0  0
 37 33  2  0  0  0  0
 37 35  1  0  0  0  0
 38 32  2  0  0  0  0
M  END
>  <MODEL>
7

>  <REMARK>
 VINA RESULT:      -8.2      2.415      3.061
  Name = 
  4 active torsions:
  status: ('A' for Active; 'I' for Inactive)
    1  A    between atoms: C_10  and  C_38
    2  A    between atoms: N_15  and  N_20
    3  A    between atoms: C_18  and  C_26
    4  A    between atoms: C_34  and  C_35
                            x       y       z     vdW  Elec       q    Type
                         _______ _______ _______ _____ _____    ______ ____

>  <TORSDO>
F 4

$$$$
=
 OpenBabel10222416273D

 38 42  0  0  1  0  0  0  0  0999 V2000
  188.2440  177.3860  139.2960 O   0  0  0  0  0  1  0  0  0  0  0  0
  190.5890  177.2560  139.8090 C   0  0  2  0  0  3  0  0  0  0  0  0
  189.9820  176.9430  142.5920 C   0  0  2  0  0  3  0  0  0  0  0  0
  189.1870  177.6250  140.2990 C   0  0  2  0  0  3  0  0  0  0  0  0
  188.9580  178.6070  143.8510 C   0  0  2  0  0  3  0  0  0  0  0  0
  187.5100  177.2900  142.1660 C   0  0  0  0  0  2  0  0  0  0  0  0
  187.6960  178.5010  143.0350 C   0  0  0  0  0  0  0  0  0  0  0  0
  186.7510  179.4460  143.1700 C   0  0  0  0  0  3  0  0  0  0  0  0
  190.1160  178.2550  143.1150 O   0  0  0  0  0  0  0  0  0  0  0  0
  190.6070  175.9590  139.2910 O   0  0  0  0  0  1  0  0  0  0  0  0
  191.5720  177.3600  140.9770 C   0  0  0  0  0  2  0  0  0  0  0  0
  191.2030  176.4970  142.0340 O   0  0  0  0  0  0  0  0  0  0  0  0
  188.8380  176.8330  141.5600 C   0  0  2  0  0  3  0  0  0  0  0  0
  183.4650  178.5200  143.3310 C   0  0  0  0  0  1  0  0  0  0  0  0
  184.9940  178.6690  138.9690 N   0  0  0  0  0  2  0  0  0  0  0  0
  184.3280  177.7760  141.2840 C   0  0  0  0  0  2  0  0  0  0  0  0
  184.9930  178.7460  140.3920 C   0  0  0  0  0  0  0  0  0  0  0  0
  185.6120  179.6710  141.0240 N   0  0  0  0  0  0  0  0  0  0  0  0
  185.4280  179.4650  142.4490 C   0  0  1  0  0  3  0  0  0  0  0  0
  184.6990  178.2020  142.6330 N   0  0  0  0  0  0  0  0  0  0  0  0
  184.3450  177.6210  138.3070 N   0  0  0  0  0  2  0  0  0  0  0  0
  186.0790  177.3540  136.7870 O   0  0  0  0  0  0  0  0  0  0  0  0
  184.9500  176.9650  137.1910 C   0  0  0  0  0  0  0  0  0  0  0  0
  183.2650  177.3340  134.6650 C   0  0  0  0  0  1  0  0  0  0  0  0
  183.9560  171.8660  137.1430 Cl  0  0  0  0  0  0  0  0  0  0  0  0
  184.3920  174.5580  137.0380 C   0  0  0  0  0  3  0  0  0  0  0  0
  183.4940  176.0090  135.3110 C   0  0  0  0  0  0  0  0  0  0  0  0
  183.7810  173.4570  136.4370 C   0  0  0  0  0  0  0  0  0  0  0  0
  182.8840  174.8980  134.7190 C   0  0  0  0  0  3  0  0  0  0  0  0
  183.0270  173.6270  135.2760 C   0  0  0  0  0  3  0  0  0  0  0  0
  184.2680  175.8470  136.4910 C   0  0  0  0  0  0  0  0  0  0  0  0
  190.0280  177.4060  145.8130 C   0  0  0  0  0  3  0  0  0  0  0  0
  187.6510  177.8620  145.8490 C   0  0  0  0  0  3  0  0  0  0  0  0
  189.9310  176.8000  147.0690 C   0  0  0  0  0  0  0  0  0  0  0  0
  188.6960  176.7260  147.7160 C   0  0  0  0  0  3  0  0  0  0  0  0
  191.0380  176.2900  147.6590 F   0  0  0  0  0  0  0  0  0  0  0  0
  187.5560  177.2580  147.1070 C   0  0  0  0  0  3  0  0  0  0  0  0
  188.8850  177.9350  145.1940 C   0  0  0  0  0  0  0  0  0  0  0  0
  2 10  1  1  0  0  0
  2  4  1  0  0  0  0
  2 11  1  0  0  0  0
  3 12  1  6  0  0  0
  3  9  1  0  0  0  0
  4  1  1  6  0  0  0
  4 13  1  0  0  0  0
  5 38  1  1  0  0  0
  6  7  1  0  0  0  0
  7  8  2  0  0  0  0
  7  5  1  0  0  0  0
  9  5  1  0  0  0  0
 11 12  1  0  0  0  0
 13  6  1  1  0  0  0
 13  3  1  0  0  0  0
 15 17  1  0  0  0  0
 16 20  1  0  0  0  0
 17 18  2  0  0  0  0
 17 16  1  0  0  0  0
 18 19  1  0  0  0  0
 19 20  1  0  0  0  0
 19  8  1  1  0  0  0
 20 14  1  0  0  0  0
 21 15  1  0  0  0  0
 22 23  2  0  0  0  0
 23 21  1  0  0  0  0
 24 27  1  0  0  0  0
 27 31  2  0  0  0  0
 28 26  2  0  0  0  0
 28 25  1  0  0  0  0
 29 30  2  0  0  0  0
 29 27  1  0  0  0  0
 30 28  1  0  0  0  0
 31 26  1  0  0  0  0
 31 23  1  0  0  0  0
 32 34  1  0  0  0  0
 33 37  2  0  0  0  0
 34 36  1  0  0  0  0
 34 35  2  0  0  0  0
 37 35  1  0  0  0  0
 38 32  2  0  0  0  0
 38 33  1  0  0  0  0
M  END
>  <MODEL>
8

>  <REMARK>
 VINA RESULT:      -8.1      4.155      9.463
  Name = 
  4 active torsions:
  status: ('A' for Active; 'I' for Inactive)
    1  A    between atoms: C_10  and  C_38
    2  A    between atoms: N_15  and  N_20
    3  A    between atoms: C_18  and  C_26
    4  A    between atoms: C_34  and  C_35
                            x       y       z     vdW  Elec       q    Type
                         _______ _______ _______ _____ _____    ______ ____

>  <TORSDO>
F 4

$$$$
=
 OpenBabel10222416273D

 38 42  0  0  1  0  0  0  0  0999 V2000
  191.7170  176.6040  141.2590 O   0  0  0  0  0  1  0  0  0  0  0  0
  191.4720  177.6960  143.3860 C   0  0  2  0  0  3  0  0  0  0  0  0
  188.6320  177.8050  143.0260 C   0  0  2  0  0  3  0  0  0  0  0  0
  190.9030  177.4800  141.9820 C   0  0  2  0  0  3  0  0  0  0  0  0
  187.6240  179.0520  141.3430 C   0  0  2  0  0  3  0  0  0  0  0  0
  188.8200  176.8590  140.6840 C   0  0  0  0  0  2  0  0  0  0  0  0
  188.2440  178.1860  140.2770 C   0  0  0  0  0  0  0  0  0  0  0  0
  188.1920  178.5900  138.9980 C   0  0  0  0  0  3  0  0  0  0  0  0
  188.4060  179.1120  142.5230 O   0  0  0  0  0  0  0  0  0  0  0  0
  191.7140  176.4730  144.0160 O   0  0  0  0  0  1  0  0  0  0  0  0
  190.4760  178.5140  144.2110 C   0  0  0  0  0  2  0  0  0  0  0  0
  189.2290  177.8540  144.3070 O   0  0  0  0  0  0  0  0  0  0  0  0
  189.4750  176.9390  142.0630 C   0  0  2  0  0  3  0  0  0  0  0  0
  187.5190  176.1710  136.6790 C   0  0  0  0  0  1  0  0  0  0  0  0
  192.0300  176.3870  137.6740 N   0  0  0  0  0  2  0  0  0  0  0  0
  189.5680  175.6550  137.6910 C   0  0  0  0  0  2  0  0  0  0  0  0
  190.6350  176.6740  137.7100 C   0  0  0  0  0  0  0  0  0  0  0  0
  190.1880  177.8710  137.7940 N   0  0  0  0  0  0  0  0  0  0  0  0
  188.7380  177.8260  137.8200 C   0  0  1  0  0  3  0  0  0  0  0  0
  188.3300  176.4150  137.8600 N   0  0  0  0  0  0  0  0  0  0  0  0
  192.4900  175.0660  137.6280 N   0  0  0  0  0  2  0  0  0  0  0  0
  194.5560  175.6930  136.7770 O   0  0  0  0  0  0  0  0  0  0  0  0
  193.8060  174.7570  137.1670 C   0  0  0  0  0  0  0  0  0  0  0  0
  196.1810  173.7530  138.8130 C   0  0  0  0  0  1  0  0  0  0  0  0
  193.2190  170.0360  135.0810 Cl  0  0  0  0  0  0  0  0  0  0  0  0
  193.6480  172.4600  136.2610 C   0  0  0  0  0  3  0  0  0  0  0  0
  195.3940  172.8820  137.8940 C   0  0  0  0  0  0  0  0  0  0  0  0
  194.0530  171.1280  136.1640 C   0  0  0  0  0  0  0  0  0  0  0  0
  195.7920  171.5440  137.7870 C   0  0  0  0  0  3  0  0  0  0  0  0
  195.1250  170.6700  136.9290 C   0  0  0  0  0  3  0  0  0  0  0  0
  194.3000  173.3570  137.1230 C   0  0  0  0  0  0  0  0  0  0  0  0
  185.6800  178.6330  142.9190 C   0  0  0  0  0  3  0  0  0  0  0  0
  185.2950  178.6400  140.5290 C   0  0  0  0  0  3  0  0  0  0  0  0
  184.3230  178.3770  143.1370 C   0  0  0  0  0  0  0  0  0  0  0  0
  183.4520  178.2530  142.0520 C   0  0  0  0  0  3  0  0  0  0  0  0
  183.8540  178.2530  144.4010 F   0  0  0  0  0  0  0  0  0  0  0  0
  183.9370  178.3860  140.7480 C   0  0  0  0  0  3  0  0  0  0  0  0
  186.1730  178.7600  141.6110 C   0  0  0  0  0  0  0  0  0  0  0  0
  2 10  1  1  0  0  0
  2 11  1  0  0  0  0
  3  9  1  6  0  0  0
  3 12  1  0  0  0  0
  4  1  1  1  0  0  0
  4 13  1  0  0  0  0
  4  2  1  0  0  0  0
  5 38  1  1  0  0  0
  5  9  1  0  0  0  0
  7  6  1  0  0  0  0
  7  5  1  0  0  0  0
  8  7  2  0  0  0  0
 11 12  1  0  0  0  0
 13  6  1  6  0  0  0
 13  3  1  0  0  0  0
 14 20  1  0  0  0  0
 15 17  1  0  0  0  0
 16 17  1  0  0  0  0
 16 20  1  0  0  0  0
 17 18  2  0  0  0  0
 18 19  1  0  0  0  0
 19 20  1  0  0  0  0
 19  8  1  1  0  0  0
 21 15  1  0  0  0  0
 22 23  2  0  0  0  0
 23 21  1  0  0  0  0
 25 28  1  0  0  0  0
 26 31  1  0  0  0  0
 27 24  1  0  0  0  0
 28 26  2  0  0  0  0
 28 30  1  0  0  0  0
 29 27  1  0  0  0  0
 30 29  2  0  0  0  0
 31 23  1  0  0  0  0
 31 27  2  0  0  0  0
 32 34  1  0  0  0  0
 33 37  2  0  0  0  0
 33 38  1  0  0  0  0
 34 36  1  0  0  0  0
 35 34  2  0  0  0  0
 37 35  1  0  0  0  0
 38 32  2  0  0  0  0
M  END
>  <MODEL>
9

>  <REMARK>
 VINA RESULT:      -7.9      6.216      9.500
  Name = 
  4 active torsions:
  status: ('A' for Active; 'I' for Inactive)
    1  A    between atoms: C_10  and  C_38
    2  A    between atoms: N_15  and  N_20
    3  A    between atoms: C_18  and  C_26
    4  A    between atoms: C_34  and  C_35
                            x       y       z     vdW  Elec       q    Type
                         _______ _______ _______ _____ _____    ______ ____

>  <TORSDO>
F 4

$$$$
