=
 OpenBabel10222419393D

 39 43  0  0  1  0  0  0  0  0999 V2000
  184.4350  179.1340  144.6780 C   0  0  0  0  0  0  0  0  0  0  0  0
  184.8790  178.9270  140.2150 C   0  0  0  0  0  0  0  0  0  0  0  0
  184.5000  179.0660  143.3060 C   0  0  0  0  0  0  0  0  0  0  0  0
  183.1290  178.8900  145.0790 C   0  0  0  0  0  3  0  0  0  0  0  0
  180.2520  178.0640  139.1970 N   0  0  0  0  0  0  0  0  0  0  0  0
  181.4480  178.3120  139.7890 C   0  0  0  0  0  0  0  0  0  0  0  0
  182.7160  178.5030  139.3060 C   0  0  0  0  0  3  0  0  0  0  0  0
  179.2730  177.9450  140.1020 N   0  0  0  0  0  0  0  0  0  0  0  0
  185.6310  179.2050  142.5910 N   0  0  0  0  0  0  0  0  0  0  0  0
  182.3540  178.6910  143.9430 C   0  0  0  0  0  3  0  0  0  0  0  0
  183.1730  178.7910  142.8280 C   0  0  0  0  0  0  0  0  0  0  0  0
  185.8070  179.1440  141.2510 C   0  0  0  0  0  3  0  0  0  0  0  0
  179.9150  178.1520  141.6440 S   0  0  0  0  0  0  0  0  0  0  0  0
  182.7620  178.6440  141.5130 C   0  0  0  0  0  0  0  0  0  0  0  0
  183.5380  178.7110  140.3840 N   0  0  0  0  0  0  0  0  0  0  0  0
  181.4720  178.3960  141.1160 C   0  0  0  0  0  0  0  0  0  0  0  0
  185.6030  179.3390  145.5910 C   0  0  0  0  0  2  0  0  0  0  0  0
  186.3060  178.0230  145.9120 C   0  0  2  0  0  3  0  0  0  0  0  0
  186.4560  177.8690  147.4180 C   0  0  0  0  0  2  0  0  0  0  0  0
  187.9130  177.9970  147.8170 C   0  0  0  0  0  1  0  0  0  0  0  0
  187.6200  177.9940  145.2830 N   0  0  0  0  0  2  0  0  0  0  0  0
  187.6220  176.9120  144.3040 C   0  0  0  0  0  2  0  0  0  0  0  0
  192.0390  178.9210  144.0920 O   0  0  0  0  0  1  0  0  0  0  0  0
  190.9360  178.3660  143.4400 C   0  0  2  0  0  3  0  0  0  0  0  0
  189.0030  176.7240  143.6860 C   0  0  2  0  0  3  0  0  0  0  0  0
  190.0650  177.5620  144.4160 C   0  0  1  0  0  3  0  0  0  0  0  0
  188.9700  176.9920  142.2470 N   0  0  0  0  0  2  0  0  0  0  0  0
  191.3930  177.5280  142.2440 C   0  0  0  0  0  2  0  0  0  0  0  0
  190.2740  176.6300  141.6950 C   0  0  0  0  0  2  0  0  0  0  0  0
  190.8550  176.7210  145.2040 O   0  0  0  0  0  1  0  0  0  0  0  0
  185.3610  178.9100  138.8880 O   0  0  0  0  0  0  0  0  0  0  0  0
  187.6990  178.2840  138.6080 N   0  0  0  0  0  2  0  0  0  0  0  0
  188.7990  177.5200  138.1050 C   0  0  0  0  0  0  0  0  0  0  0  0
  188.5800  176.3700  137.2830 N   0  0  0  0  0  2  0  0  0  0  0  0
  186.3150  178.0410  138.3340 C   0  0  0  0  0  0  0  0  0  0  0  0
  185.9710  177.0580  137.6220 O   0  0  0  0  0  0  0  0  0  0  0  0
  189.9720  177.8730  138.3950 O   0  0  0  0  0  0  0  0  0  0  0  0
  190.0170  174.5640  137.6260 O   0  0  0  0  0  1  0  0  0  0  0  0
  189.6710  175.5790  136.7350 C   0  0  0  0  0  2  0  0  0  0  0  0
  1  4  2  0  0  0  0
  1 17  1  0  0  0  0
  2 15  1  0  0  0  0
  2 12  2  0  0  0  0
  3  1  1  0  0  0  0
  5  6  1  0  0  0  0
  5  8  2  0  0  0  0
  6 16  1  0  0  0  0
  7  6  2  0  0  0  0
  7 15  1  0  0  0  0
  8 13  1  0  0  0  0
  9  3  2  0  0  0  0
 10  4  1  0  0  0  0
 11  3  1  0  0  0  0
 11 10  2  0  0  0  0
 12  9  1  0  0  0  0
 14 11  1  0  0  0  0
 15 14  1  0  0  0  0
 16 14  2  0  0  0  0
 16 13  1  0  0  0  0
 18 17  1  1  0  0  0
 18 19  1  0  0  0  0
 19 20  1  0  0  0  0
 21 18  1  0  0  0  0
 22 21  1  0  0  0  0
 24 23  1  1  0  0  0
 24 26  1  0  0  0  0
 25 22  1  1  0  0  0
 25 26  1  0  0  0  0
 26 30  1  6  0  0  0
 27 25  1  0  0  0  0
 28 24  1  0  0  0  0
 29 28  1  0  0  0  0
 29 27  1  0  0  0  0
 31  2  1  0  0  0  0
 33 37  2  0  0  0  0
 33 32  1  0  0  0  0
 34 33  1  0  0  0  0
 35 32  1  0  0  0  0
 35 31  1  0  0  0  0
 36 35  2  0  0  0  0
 39 34  1  0  0  0  0
 39 38  1  0  0  0  0
M  END
>  <MODEL>
1

>  <REMARK>
 VINA RESULT:      -9.2      0.000      0.000
  Name = 
  9 active torsions:
  status: ('A' for Active; 'I' for Inactive)
    1  A    between atoms: C_4  and  C_27
    2  A    between atoms: C_5  and  C_24
    3  A    between atoms: C_7  and  C_37
    4  A    between atoms: C_9  and  O_26
    5  A    between atoms: C_11  and  N_30
    6  A    between atoms: N_12  and  C_27
    7  A    between atoms: N_12  and  C_37
    8  A    between atoms: C_24  and  C_37
    9  A    between atoms: O_26  and  C_31
                            x       y       z     vdW  Elec       q    Type
                         _______ _______ _______ _____ _____    ______ ____

>  <TORSDO>
F 9

$$$$
=
 OpenBabel10222419393D

 39 43  0  0  1  0  0  0  0  0999 V2000
  184.4960  178.9490  141.9630 C   0  0  0  0  0  0  0  0  0  0  0  0
  186.5490  177.9580  138.0960 C   0  0  0  0  0  0  0  0  0  0  0  0
  185.0610  178.6370  140.7500 C   0  0  0  0  0  0  0  0  0  0  0  0
  183.1290  178.7230  141.8950 C   0  0  0  0  0  3  0  0  0  0  0  0
  182.6040  176.7210  135.6280 N   0  0  0  0  0  0  0  0  0  0  0  0
  183.5040  177.1260  136.5610 C   0  0  0  0  0  0  0  0  0  0  0  0
  184.8650  177.2820  136.5510 C   0  0  0  0  0  3  0  0  0  0  0  0
  181.3570  176.7250  136.1160 N   0  0  0  0  0  0  0  0  0  0  0  0
  186.3790  178.6950  140.4870 N   0  0  0  0  0  0  0  0  0  0  0  0
  182.8220  178.2880  140.6120 C   0  0  0  0  0  3  0  0  0  0  0  0
  183.9970  178.2220  139.8770 C   0  0  0  0  0  0  0  0  0  0  0  0
  187.0350  178.4000  139.3410 C   0  0  0  0  0  3  0  0  0  0  0  0
  181.3910  177.2350  137.7190 S   0  0  0  0  0  0  0  0  0  0  0  0
  184.0970  177.8210  138.5540 C   0  0  0  0  0  0  0  0  0  0  0  0
  185.2350  177.7170  137.7980 N   0  0  0  0  0  0  0  0  0  0  0  0
  183.0380  177.4490  137.7640 C   0  0  0  0  0  0  0  0  0  0  0  0
  185.2500  179.3670  143.1870 C   0  0  0  0  0  2  0  0  0  0  0  0
  185.2330  178.2820  144.2600 C   0  0  2  0  0  3  0  0  0  0  0  0
  184.4480  178.7620  145.4710 C   0  0  0  0  0  2  0  0  0  0  0  0
  185.2240  178.4860  146.7430 C   0  0  0  0  0  1  0  0  0  0  0  0
  186.5950  177.9510  144.6570 N   0  0  0  0  0  2  0  0  0  0  0  0
  187.2220  177.2340  143.5520 C   0  0  0  0  0  2  0  0  0  0  0  0
  191.6310  179.2260  143.9750 O   0  0  0  0  0  1  0  0  0  0  0  0
  190.8060  178.2250  143.4570 C   0  0  2  0  0  3  0  0  0  0  0  0
  188.6740  176.8910  143.8630 C   0  0  2  0  0  3  0  0  0  0  0  0
  189.4820  178.1460  144.2300 C   0  0  1  0  0  3  0  0  0  0  0  0
  189.2780  176.1370  142.7630 N   0  0  0  0  0  2  0  0  0  0  0  0
  191.5460  176.8850  143.4340 C   0  0  0  0  0  2  0  0  0  0  0  0
  190.6020  175.6980  143.1960 C   0  0  0  0  0  2  0  0  0  0  0  0
  189.7140  178.1580  145.6080 O   0  0  0  0  0  1  0  0  0  0  0  0
  187.4860  177.7240  137.0660 O   0  0  0  0  0  0  0  0  0  0  0  0
  189.2430  176.1000  137.5290 N   0  0  0  0  0  2  0  0  0  0  0  0
  190.5840  175.6420  137.7310 C   0  0  0  0  0  0  0  0  0  0  0  0
  191.6950  176.5290  137.5720 N   0  0  0  0  0  2  0  0  0  0  0  0
  188.8550  177.4390  137.2020 C   0  0  0  0  0  0  0  0  0  0  0  0
  189.7300  178.3300  137.0300 O   0  0  0  0  0  0  0  0  0  0  0  0
  190.7780  174.4420  138.0550 O   0  0  0  0  0  0  0  0  0  0  0  0
  193.9200  176.7940  136.9210 O   0  0  0  0  0  1  0  0  0  0  0  0
  193.0700  176.1090  137.7890 C   0  0  0  0  0  2  0  0  0  0  0  0
  1 17  1  0  0  0  0
  2 12  2  0  0  0  0
  3  1  1  0  0  0  0
  4  1  2  0  0  0  0
  5  8  2  0  0  0  0
  5  6  1  0  0  0  0
  6 16  1  0  0  0  0
  7  6  2  0  0  0  0
  7 15  1  0  0  0  0
  8 13  1  0  0  0  0
  9  3  2  0  0  0  0
 10  4  1  0  0  0  0
 11 10  2  0  0  0  0
 11  3  1  0  0  0  0
 12  9  1  0  0  0  0
 13 16  1  0  0  0  0
 14 11  1  0  0  0  0
 15  2  1  0  0  0  0
 15 14  1  0  0  0  0
 16 14  2  0  0  0  0
 18 17  1  6  0  0  0
 18 21  1  0  0  0  0
 18 19  1  0  0  0  0
 19 20  1  0  0  0  0
 22 21  1  0  0  0  0
 24 23  1  1  0  0  0
 24 26  1  0  0  0  0
 25 22  1  6  0  0  0
 25 26  1  0  0  0  0
 26 30  1  1  0  0  0
 27 29  1  0  0  0  0
 27 25  1  0  0  0  0
 28 24  1  0  0  0  0
 29 28  1  0  0  0  0
 31 35  1  0  0  0  0
 31  2  1  0  0  0  0
 32 33  1  0  0  0  0
 33 37  2  0  0  0  0
 34 33  1  0  0  0  0
 34 39  1  0  0  0  0
 35 32  1  0  0  0  0
 36 35  2  0  0  0  0
 38 39  1  0  0  0  0
M  END
>  <MODEL>
2

>  <REMARK>
 VINA RESULT:      -8.3      2.035      2.936
  Name = 
  9 active torsions:
  status: ('A' for Active; 'I' for Inactive)
    1  A    between atoms: C_4  and  C_27
    2  A    between atoms: C_5  and  C_24
    3  A    between atoms: C_7  and  C_37
    4  A    between atoms: C_9  and  O_26
    5  A    between atoms: C_11  and  N_30
    6  A    between atoms: N_12  and  C_27
    7  A    between atoms: N_12  and  C_37
    8  A    between atoms: C_24  and  C_37
    9  A    between atoms: O_26  and  C_31
                            x       y       z     vdW  Elec       q    Type
                         _______ _______ _______ _____ _____    ______ ____

>  <TORSDO>
F 9

$$$$
=
 OpenBabel10222419393D

 39 43  0  0  1  0  0  0  0  0999 V2000
  184.9030  178.6710  138.9650 C   0  0  0  0  0  0  0  0  0  0  0  0
  189.1650  177.6510  139.9380 C   0  0  0  0  0  0  0  0  0  0  0  0
  186.2170  178.3390  139.1960 C   0  0  0  0  0  0  0  0  0  0  0  0
  184.5510  178.2540  137.6900 C   0  0  0  0  0  3  0  0  0  0  0  0
  190.2890  175.6780  135.6920 N   0  0  0  0  0  0  0  0  0  0  0  0
  189.6840  176.2800  136.7480 C   0  0  0  0  0  0  0  0  0  0  0  0
  190.1080  176.6200  138.0060 C   0  0  0  0  0  3  0  0  0  0  0  0
  189.4510  175.5510  134.6560 N   0  0  0  0  0  0  0  0  0  0  0  0
  186.8640  178.5560  140.3550 N   0  0  0  0  0  0  0  0  0  0  0  0
  185.6650  177.6750  137.0960 C   0  0  0  0  0  3  0  0  0  0  0  0
  186.7140  177.7090  138.0030 C   0  0  0  0  0  0  0  0  0  0  0  0
  188.1410  178.2590  140.6890 C   0  0  0  0  0  3  0  0  0  0  0  0
  187.9520  176.1940  135.0720 S   0  0  0  0  0  0  0  0  0  0  0  0
  187.9890  177.2160  137.7770 C   0  0  0  0  0  0  0  0  0  0  0  0
  189.0470  177.2060  138.6490 N   0  0  0  0  0  0  0  0  0  0  0  0
  188.4110  176.6360  136.6070 C   0  0  0  0  0  0  0  0  0  0  0  0
  183.9780  179.2910  139.9660 C   0  0  0  0  0  2  0  0  0  0  0  0
  183.3210  178.2390  140.8550 C   0  0  2  0  0  3  0  0  0  0  0  0
  181.8970  177.9810  140.3860 C   0  0  0  0  0  2  0  0  0  0  0  0
  181.8500  176.7510  139.5020 C   0  0  0  0  0  1  0  0  0  0  0  0
  183.3080  178.6930  142.2390 N   0  0  0  0  0  2  0  0  0  0  0  0
  184.6760  179.0410  142.6090 C   0  0  0  0  0  2  0  0  0  0  0  0
  185.6950  179.7690  147.3010 O   0  0  0  0  0  1  0  0  0  0  0  0
  186.0430  179.2230  146.0640 C   0  0  2  0  0  3  0  0  0  0  0  0
  185.1130  178.3110  143.8740 C   0  0  2  0  0  3  0  0  0  0  0  0
  184.8250  179.1460  145.1320 C   0  0  1  0  0  3  0  0  0  0  0  0
  186.5150  177.9030  143.7810 N   0  0  0  0  0  2  0  0  0  0  0  0
  186.7150  177.8610  146.2540 C   0  0  0  0  0  2  0  0  0  0  0  0
  186.8160  177.0680  144.9420 C   0  0  0  0  0  2  0  0  0  0  0  0
  183.7240  178.6060  145.8020 O   0  0  0  0  0  1  0  0  0  0  0  0
  190.4180  177.4610  140.5620 O   0  0  0  0  0  0  0  0  0  0  0  0
  191.3090  178.0590  142.7490 N   0  0  0  0  0  2  0  0  0  0  0  0
  191.6590  177.8550  144.1210 C   0  0  0  0  0  0  0  0  0  0  0  0
  191.3370  176.6300  144.7870 N   0  0  0  0  0  2  0  0  0  0  0  0
  190.6650  177.1060  141.8970 C   0  0  0  0  0  0  0  0  0  0  0  0
  190.3210  175.9800  142.3500 O   0  0  0  0  0  0  0  0  0  0  0  0
  192.2620  178.7700  144.7410 O   0  0  0  0  0  0  0  0  0  0  0  0
  190.6850  176.8350  147.0180 O   0  0  0  0  0  1  0  0  0  0  0  0
  191.6950  176.3750  146.1740 C   0  0  0  0  0  2  0  0  0  0  0  0
  1  3  1  0  0  0  0
  1 17  1  0  0  0  0
  2 31  1  0  0  0  0
  2 12  2  0  0  0  0
  3  9  2  0  0  0  0
  4  1  2  0  0  0  0
  5  6  1  0  0  0  0
  6  7  2  0  0  0  0
  7 15  1  0  0  0  0
  8 13  1  0  0  0  0
  8  5  2  0  0  0  0
  9 12  1  0  0  0  0
 10  4  1  0  0  0  0
 10 11  2  0  0  0  0
 11  3  1  0  0  0  0
 13 16  1  0  0  0  0
 14 11  1  0  0  0  0
 14 15  1  0  0  0  0
 15  2  1  0  0  0  0
 16  6  1  0  0  0  0
 16 14  2  0  0  0  0
 18 17  1  6  0  0  0
 18 21  1  0  0  0  0
 19 18  1  0  0  0  0
 20 19  1  0  0  0  0
 21 22  1  0  0  0  0
 24 28  1  0  0  0  0
 24 23  1  1  0  0  0
 25 22  1  6  0  0  0
 25 26  1  0  0  0  0
 26 30  1  1  0  0  0
 26 24  1  0  0  0  0
 27 25  1  0  0  0  0
 27 29  1  0  0  0  0
 29 28  1  0  0  0  0
 31 35  1  0  0  0  0
 32 33  1  0  0  0  0
 33 37  2  0  0  0  0
 33 34  1  0  0  0  0
 34 39  1  0  0  0  0
 35 36  2  0  0  0  0
 35 32  1  0  0  0  0
 39 38  1  0  0  0  0
M  END
>  <MODEL>
3

>  <REMARK>
 VINA RESULT:      -8.3      2.822      7.027
  Name = 
  9 active torsions:
  status: ('A' for Active; 'I' for Inactive)
    1  A    between atoms: C_4  and  C_27
    2  A    between atoms: C_5  and  C_24
    3  A    between atoms: C_7  and  C_37
    4  A    between atoms: C_9  and  O_26
    5  A    between atoms: C_11  and  N_30
    6  A    between atoms: N_12  and  C_27
    7  A    between atoms: N_12  and  C_37
    8  A    between atoms: C_24  and  C_37
    9  A    between atoms: O_26  and  C_31
                            x       y       z     vdW  Elec       q    Type
                         _______ _______ _______ _____ _____    ______ ____

>  <TORSDO>
F 9

$$$$
=
 OpenBabel10222419393D

 39 43  0  0  1  0  0  0  0  0999 V2000
  183.6570  178.7100  143.7230 C   0  0  0  0  0  0  0  0  0  0  0  0
  187.8790  177.9380  142.4040 C   0  0  0  0  0  0  0  0  0  0  0  0
  184.9670  178.4610  143.3870 C   0  0  0  0  0  0  0  0  0  0  0  0
  183.5450  178.7380  145.1050 C   0  0  0  0  0  3  0  0  0  0  0  0
  189.7930  177.4510  146.7960 N   0  0  0  0  0  0  0  0  0  0  0  0
  188.9800  177.6310  145.7240 C   0  0  0  0  0  0  0  0  0  0  0  0
  189.1900  177.6260  144.3700 C   0  0  0  0  0  3  0  0  0  0  0  0
  189.1180  177.5560  147.9460 N   0  0  0  0  0  0  0  0  0  0  0  0
  185.4330  178.4160  142.1250 N   0  0  0  0  0  0  0  0  0  0  0  0
  184.7960  178.4770  145.6500 C   0  0  0  0  0  3  0  0  0  0  0  0
  185.7000  178.3020  144.6130 C   0  0  0  0  0  0  0  0  0  0  0  0
  186.6940  178.1930  141.6890 C   0  0  0  0  0  3  0  0  0  0  0  0
  187.5000  177.8770  147.6130 S   0  0  0  0  0  0  0  0  0  0  0  0
  187.0510  178.0320  144.7600 C   0  0  0  0  0  0  0  0  0  0  0  0
  187.9840  177.8760  143.7670 N   0  0  0  0  0  0  0  0  0  0  0  0
  187.6940  177.8750  145.9620 C   0  0  0  0  0  0  0  0  0  0  0  0
  182.5550  179.0030  142.7530 C   0  0  0  0  0  2  0  0  0  0  0  0
  181.2760  179.4330  143.4640 C   0  0  2  0  0  3  0  0  0  0  0  0
  180.4910  178.2080  143.9060 C   0  0  0  0  0  2  0  0  0  0  0  0
  179.2800  178.6240  144.7170 C   0  0  0  0  0  1  0  0  0  0  0  0
  180.4580  180.2450  142.5720 N   0  0  0  0  0  2  0  0  0  0  0  0
  179.8110  179.3490  141.6200 C   0  0  0  0  0  2  0  0  0  0  0  0
  182.9250  178.9340  137.9150 O   0  0  0  0  0  1  0  0  0  0  0  0
  182.1500  179.7390  138.7530 C   0  0  2  0  0  3  0  0  0  0  0  0
  180.0420  179.8030  140.1830 C   0  0  2  0  0  3  0  0  0  0  0  0
  181.0730  178.9120  139.4700 C   0  0  1  0  0  3  0  0  0  0  0  0
  180.4000  181.2220  140.1370 N   0  0  0  0  0  2  0  0  0  0  0  0
  181.5550  180.9080  137.9630 C   0  0  0  0  0  2  0  0  0  0  0  0
  180.4390  181.6280  138.7340 C   0  0  0  0  0  2  0  0  0  0  0  0
  180.4120  178.0740  138.5690 O   0  0  0  0  0  1  0  0  0  0  0  0
  189.0680  177.7460  141.6670 O   0  0  0  0  0  0  0  0  0  0  0  0
  188.9620  178.6820  139.4200 N   0  0  0  0  0  2  0  0  0  0  0  0
  189.0210  178.6670  137.9910 C   0  0  0  0  0  0  0  0  0  0  0  0
  189.3790  177.4760  137.2830 N   0  0  0  0  0  2  0  0  0  0  0  0
  189.1960  177.5620  140.2810 C   0  0  0  0  0  0  0  0  0  0  0  0
  189.5210  176.4440  139.7950 O   0  0  0  0  0  0  0  0  0  0  0  0
  188.7510  179.7200  137.3560 O   0  0  0  0  0  0  0  0  0  0  0  0
  188.2950  176.7660  135.3420 O   0  0  0  0  0  1  0  0  0  0  0  0
  189.4290  177.4140  135.8310 C   0  0  0  0  0  2  0  0  0  0  0  0
  1  4  2  0  0  0  0
  2 15  1  0  0  0  0
  3  1  1  0  0  0  0
  3 11  1  0  0  0  0
  4 10  1  0  0  0  0
  5  8  2  0  0  0  0
  6 16  1  0  0  0  0
  6  5  1  0  0  0  0
  7  6  2  0  0  0  0
  9  3  2  0  0  0  0
 11 14  1  0  0  0  0
 11 10  2  0  0  0  0
 12  9  1  0  0  0  0
 12  2  2  0  0  0  0
 13  8  1  0  0  0  0
 14 16  2  0  0  0  0
 15  7  1  0  0  0  0
 15 14  1  0  0  0  0
 16 13  1  0  0  0  0
 17  1  1  0  0  0  0
 18 17  1  6  0  0  0
 18 19  1  0  0  0  0
 19 20  1  0  0  0  0
 21 18  1  0  0  0  0
 22 21  1  0  0  0  0
 24 23  1  6  0  0  0
 24 26  1  0  0  0  0
 25 22  1  1  0  0  0
 26 30  1  6  0  0  0
 26 25  1  0  0  0  0
 27 25  1  0  0  0  0
 28 29  1  0  0  0  0
 28 24  1  0  0  0  0
 29 27  1  0  0  0  0
 31  2  1  0  0  0  0
 32 35  1  0  0  0  0
 33 32  1  0  0  0  0
 34 33  1  0  0  0  0
 35 31  1  0  0  0  0
 36 35  2  0  0  0  0
 37 33  2  0  0  0  0
 38 39  1  0  0  0  0
 39 34  1  0  0  0  0
M  END
>  <MODEL>
4

>  <REMARK>
 VINA RESULT:      -8.1      2.697      7.279
  Name = 
  9 active torsions:
  status: ('A' for Active; 'I' for Inactive)
    1  A    between atoms: C_4  and  C_27
    2  A    between atoms: C_5  and  C_24
    3  A    between atoms: C_7  and  C_37
    4  A    between atoms: C_9  and  O_26
    5  A    between atoms: C_11  and  N_30
    6  A    between atoms: N_12  and  C_27
    7  A    between atoms: N_12  and  C_37
    8  A    between atoms: C_24  and  C_37
    9  A    between atoms: O_26  and  C_31
                            x       y       z     vdW  Elec       q    Type
                         _______ _______ _______ _____ _____    ______ ____

>  <TORSDO>
F 9

$$$$
=
 OpenBabel10222419393D

 39 43  0  0  1  0  0  0  0  0999 V2000
  190.5110  177.4930  140.7220 C   0  0  0  0  0  0  0  0  0  0  0  0
  186.9770  177.9120  143.4590 C   0  0  0  0  0  0  0  0  0  0  0  0
  189.4730  177.6150  141.6150 C   0  0  0  0  0  0  0  0  0  0  0  0
  191.6630  177.1490  141.4150 C   0  0  0  0  0  3  0  0  0  0  0  0
  189.3070  177.0260  147.5790 N   0  0  0  0  0  0  0  0  0  0  0  0
  188.9440  177.2350  146.2880 C   0  0  0  0  0  0  0  0  0  0  0  0
  187.7520  177.5370  145.6820 C   0  0  0  0  0  3  0  0  0  0  0  0
  190.6130  176.7490  147.6820 N   0  0  0  0  0  0  0  0  0  0  0  0
  188.2020  177.8920  141.2710 N   0  0  0  0  0  0  0  0  0  0  0  0
  191.3540  177.0780  142.7680 C   0  0  0  0  0  3  0  0  0  0  0  0
  190.0050  177.3590  142.9260 C   0  0  0  0  0  0  0  0  0  0  0  0
  187.1120  178.0210  142.0620 C   0  0  0  0  0  3  0  0  0  0  0  0
  191.3060  176.7670  146.1480 S   0  0  0  0  0  0  0  0  0  0  0  0
  189.3230  177.3770  144.1330 C   0  0  0  0  0  0  0  0  0  0  0  0
  187.9900  177.6260  144.3340 N   0  0  0  0  0  0  0  0  0  0  0  0
  189.8910  177.1390  145.3590 C   0  0  0  0  0  0  0  0  0  0  0  0
  190.3920  177.6150  139.2350 C   0  0  0  0  0  2  0  0  0  0  0  0
  190.5640  176.2660  138.5430 C   0  0  2  0  0  3  0  0  0  0  0  0
  191.6250  176.3720  137.4580 C   0  0  0  0  0  2  0  0  0  0  0  0
  192.6300  175.2450  137.5940 C   0  0  0  0  0  1  0  0  0  0  0  0
  189.3000  175.8430  137.9540 N   0  0  0  0  0  2  0  0  0  0  0  0
  189.1660  176.5050  136.6600 C   0  0  0  0  0  2  0  0  0  0  0  0
  185.6390  179.0030  138.8760 O   0  0  0  0  0  1  0  0  0  0  0  0
  186.0460  177.8870  138.1420 C   0  0  2  0  0  3  0  0  0  0  0  0
  187.7530  177.0370  136.4520 C   0  0  2  0  0  3  0  0  0  0  0  0
  187.4070  178.1310  137.4750 C   0  0  1  0  0  3  0  0  0  0  0  0
  186.7800  175.9430  136.4500 N   0  0  0  0  0  2  0  0  0  0  0  0
  184.9660  177.4940  137.1300 C   0  0  0  0  0  2  0  0  0  0  0  0
  185.4810  176.5010  136.0780 C   0  0  0  0  0  2  0  0  0  0  0  0
  187.4310  179.3770  136.8430 O   0  0  0  0  0  1  0  0  0  0  0  0
  185.6920  178.0940  144.0150 O   0  0  0  0  0  0  0  0  0  0  0  0
  184.2010  177.8780  142.1000 N   0  0  0  0  0  2  0  0  0  0  0  0
  183.0690  178.1830  141.2810 C   0  0  0  0  0  0  0  0  0  0  0  0
  182.1000  179.1500  141.6960 N   0  0  0  0  0  2  0  0  0  0  0  0
  184.5210  178.4950  143.3520 C   0  0  0  0  0  0  0  0  0  0  0  0
  183.7550  179.3680  143.8440 O   0  0  0  0  0  0  0  0  0  0  0  0
  182.9330  177.5880  140.1800 O   0  0  0  0  0  0  0  0  0  0  0  0
  180.0940  180.3380  141.6050 O   0  0  0  0  0  1  0  0  0  0  0  0
  180.9470  179.5040  140.8830 C   0  0  0  0  0  2  0  0  0  0  0  0
  1  4  2  0  0  0  0
  1  3  1  0  0  0  0
  2 31  1  0  0  0  0
  2 15  1  0  0  0  0
  3 11  1  0  0  0  0
  4 10  1  0  0  0  0
  5  8  2  0  0  0  0
  6  5  1  0  0  0  0
  7  6  2  0  0  0  0
  9  3  2  0  0  0  0
  9 12  1  0  0  0  0
 10 11  2  0  0  0  0
 11 14  1  0  0  0  0
 12  2  2  0  0  0  0
 13  8  1  0  0  0  0
 14 15  1  0  0  0  0
 14 16  2  0  0  0  0
 15  7  1  0  0  0  0
 16 13  1  0  0  0  0
 16  6  1  0  0  0  0
 17  1  1  0  0  0  0
 18 19  1  6  0  0  0
 18 17  1  0  0  0  0
 19 20  1  0  0  0  0
 21 18  1  0  0  0  0
 22 21  1  0  0  0  0
 24 23  1  6  0  0  0
 25 22  1  1  0  0  0
 25 26  1  0  0  0  0
 26 30  1  6  0  0  0
 26 24  1  0  0  0  0
 27 25  1  0  0  0  0
 28 24  1  0  0  0  0
 29 27  1  0  0  0  0
 29 28  1  0  0  0  0
 32 35  1  0  0  0  0
 33 34  1  0  0  0  0
 33 32  1  0  0  0  0
 35 36  2  0  0  0  0
 35 31  1  0  0  0  0
 37 33  2  0  0  0  0
 39 38  1  0  0  0  0
 39 34  1  0  0  0  0
M  END
>  <MODEL>
5

>  <REMARK>
 VINA RESULT:      -8.1      3.102      8.371
  Name = 
  9 active torsions:
  status: ('A' for Active; 'I' for Inactive)
    1  A    between atoms: C_4  and  C_27
    2  A    between atoms: C_5  and  C_24
    3  A    between atoms: C_7  and  C_37
    4  A    between atoms: C_9  and  O_26
    5  A    between atoms: C_11  and  N_30
    6  A    between atoms: N_12  and  C_27
    7  A    between atoms: N_12  and  C_37
    8  A    between atoms: C_24  and  C_37
    9  A    between atoms: O_26  and  C_31
                            x       y       z     vdW  Elec       q    Type
                         _______ _______ _______ _____ _____    ______ ____

>  <TORSDO>
F 9

$$$$
=
 OpenBabel10222419393D

 39 43  0  0  1  0  0  0  0  0999 V2000
  185.0200  178.9310  141.1320 C   0  0  0  0  0  0  0  0  0  0  0  0
  189.3190  177.8590  141.8530 C   0  0  0  0  0  0  0  0  0  0  0  0
  186.3190  178.5880  141.4200 C   0  0  0  0  0  0  0  0  0  0  0  0
  184.2850  178.9380  142.3090 C   0  0  0  0  0  3  0  0  0  0  0  0
  188.9620  177.1290  146.6000 N   0  0  0  0  0  0  0  0  0  0  0  0
  188.7460  177.3960  145.2860 C   0  0  0  0  0  0  0  0  0  0  0  0
  189.5560  177.4030  144.1810 C   0  0  0  0  0  3  0  0  0  0  0  0
  187.8400  177.2620  147.3170 N   0  0  0  0  0  0  0  0  0  0  0  0
  187.3110  178.5340  140.5120 N   0  0  0  0  0  0  0  0  0  0  0  0
  185.1260  178.5680  143.3510 C   0  0  0  0  0  3  0  0  0  0  0  0
  186.3940  178.3460  142.8350 C   0  0  0  0  0  0  0  0  0  0  0  0
  188.6150  178.2220  140.6900 C   0  0  0  0  0  3  0  0  0  0  0  0
  186.5800  177.7160  146.2980 S   0  0  0  0  0  0  0  0  0  0  0  0
  187.5060  177.9680  143.5700 C   0  0  0  0  0  0  0  0  0  0  0  0
  188.7800  177.7600  143.1080 N   0  0  0  0  0  0  0  0  0  0  0  0
  187.5130  177.7350  144.9220 C   0  0  0  0  0  0  0  0  0  0  0  0
  184.5080  179.3300  139.7830 C   0  0  0  0  0  2  0  0  0  0  0  0
  183.2170  178.6000  139.4290 C   0  0  2  0  0  3  0  0  0  0  0  0
  183.4880  177.5590  138.3530 C   0  0  0  0  0  2  0  0  0  0  0  0
  184.8140  177.8390  137.6750 C   0  0  0  0  0  1  0  0  0  0  0  0
  182.2200  179.5500  138.9540 N   0  0  0  0  0  2  0  0  0  0  0  0
  181.0180  178.8010  138.6030 C   0  0  0  0  0  2  0  0  0  0  0  0
  180.0330  180.8790  142.8810 O   0  0  0  0  0  1  0  0  0  0  0  0
  180.2090  179.7240  142.1150 C   0  0  2  0  0  3  0  0  0  0  0  0
  180.0300  178.7600  139.7630 C   0  0  2  0  0  3  0  0  0  0  0  0
  180.1100  180.0380  140.6150 C   0  0  1  0  0  3  0  0  0  0  0  0
  180.2100  177.5440  140.5580 N   0  0  0  0  0  2  0  0  0  0  0  0
  179.2160  178.6430  142.5490 C   0  0  0  0  0  2  0  0  0  0  0  0
  179.1290  177.4880  141.5400 C   0  0  0  0  0  2  0  0  0  0  0  0
  178.9970  180.8390  140.3500 O   0  0  0  0  0  1  0  0  0  0  0  0
  190.7000  177.5910  141.7340 O   0  0  0  0  0  0  0  0  0  0  0  0
  190.8810  176.2450  139.7110 N   0  0  0  0  0  2  0  0  0  0  0  0
  191.4850  175.7680  138.5050 C   0  0  0  0  0  0  0  0  0  0  0  0
  192.7070  176.3320  138.0220 N   0  0  0  0  0  2  0  0  0  0  0  0
  191.4110  177.2610  140.5680 C   0  0  0  0  0  0  0  0  0  0  0  0
  192.4850  177.8500  140.2680 O   0  0  0  0  0  0  0  0  0  0  0  0
  190.9260  174.8360  137.8680 O   0  0  0  0  0  0  0  0  0  0  0  0
  194.3800  176.7430  136.4480 O   0  0  0  0  0  1  0  0  0  0  0  0
  193.3640  175.8610  136.8120 C   0  0  0  0  0  2  0  0  0  0  0  0
  1  3  1  0  0  0  0
  1  4  2  0  0  0  0
  2 15  1  0  0  0  0
  3 11  1  0  0  0  0
  4 10  1  0  0  0  0
  5  8  2  0  0  0  0
  6  5  1  0  0  0  0
  7  6  2  0  0  0  0
  9 12  1  0  0  0  0
  9  3  2  0  0  0  0
 11 10  2  0  0  0  0
 11 14  1  0  0  0  0
 12  2  2  0  0  0  0
 13  8  1  0  0  0  0
 14 16  2  0  0  0  0
 15 14  1  0  0  0  0
 15  7  1  0  0  0  0
 16  6  1  0  0  0  0
 16 13  1  0  0  0  0
 17  1  1  0  0  0  0
 18 19  1  6  0  0  0
 18 17  1  0  0  0  0
 20 19  1  0  0  0  0
 21 18  1  0  0  0  0
 22 21  1  0  0  0  0
 24 28  1  0  0  0  0
 24 23  1  1  0  0  0
 25 22  1  6  0  0  0
 25 27  1  0  0  0  0
 25 26  1  0  0  0  0
 26 30  1  1  0  0  0
 26 24  1  0  0  0  0
 27 29  1  0  0  0  0
 29 28  1  0  0  0  0
 31  2  1  0  0  0  0
 32 35  1  0  0  0  0
 33 32  1  0  0  0  0
 34 33  1  0  0  0  0
 35 31  1  0  0  0  0
 36 35  2  0  0  0  0
 37 33  2  0  0  0  0
 38 39  1  0  0  0  0
 39 34  1  0  0  0  0
M  END
>  <MODEL>
6

>  <REMARK>
 VINA RESULT:      -7.9      2.909      7.779
  Name = 
  9 active torsions:
  status: ('A' for Active; 'I' for Inactive)
    1  A    between atoms: C_4  and  C_27
    2  A    between atoms: C_5  and  C_24
    3  A    between atoms: C_7  and  C_37
    4  A    between atoms: C_9  and  O_26
    5  A    between atoms: C_11  and  N_30
    6  A    between atoms: N_12  and  C_27
    7  A    between atoms: N_12  and  C_37
    8  A    between atoms: C_24  and  C_37
    9  A    between atoms: O_26  and  C_31
                            x       y       z     vdW  Elec       q    Type
                         _______ _______ _______ _____ _____    ______ ____

>  <TORSDO>
F 9

$$$$
=
 OpenBabel10222419393D

 39 43  0  0  1  0  0  0  0  0999 V2000
  184.9480  178.9520  141.3080 C   0  0  0  0  0  0  0  0  0  0  0  0
  189.2170  177.6950  141.9030 C   0  0  0  0  0  0  0  0  0  0  0  0
  186.2390  178.5520  141.5580 C   0  0  0  0  0  0  0  0  0  0  0  0
  184.2480  178.9860  142.5060 C   0  0  0  0  0  3  0  0  0  0  0  0
  188.9650  176.9650  146.6560 N   0  0  0  0  0  0  0  0  0  0  0  0
  188.7230  177.2450  145.3490 C   0  0  0  0  0  0  0  0  0  0  0  0
  189.5010  177.2210  144.2210 C   0  0  0  0  0  3  0  0  0  0  0  0
  187.8710  177.1430  147.4060 N   0  0  0  0  0  0  0  0  0  0  0  0
  187.2010  178.4590  140.6220 N   0  0  0  0  0  0  0  0  0  0  0  0
  185.1020  178.5770  143.5220 C   0  0  0  0  0  3  0  0  0  0  0  0
  186.3440  178.3020  142.9700 C   0  0  0  0  0  0  0  0  0  0  0  0
  188.4950  178.0910  140.7610 C   0  0  0  0  0  3  0  0  0  0  0  0
  186.6030  177.6540  146.4240 S   0  0  0  0  0  0  0  0  0  0  0  0
  187.4600  177.8750  143.6710 C   0  0  0  0  0  0  0  0  0  0  0  0
  188.7100  177.6140  143.1720 N   0  0  0  0  0  0  0  0  0  0  0  0
  187.4950  177.6370  145.0220 C   0  0  0  0  0  0  0  0  0  0  0  0
  184.4150  179.3770  139.9760 C   0  0  0  0  0  2  0  0  0  0  0  0
  183.7700  178.2150  139.2280 C   0  0  2  0  0  3  0  0  0  0  0  0
  183.1350  177.2500  140.2180 C   0  0  0  0  0  2  0  0  0  0  0  0
  182.3530  176.1800  139.4810 C   0  0  0  0  0  1  0  0  0  0  0  0
  184.7720  177.5150  138.4340 N   0  0  0  0  0  2  0  0  0  0  0  0
  185.5410  178.5150  137.7020 C   0  0  0  0  0  2  0  0  0  0  0  0
  187.8610  174.3440  136.8050 O   0  0  0  0  0  1  0  0  0  0  0  0
  187.8930  175.7330  136.9510 C   0  0  2  0  0  3  0  0  0  0  0  0
  186.5150  177.8640  136.7270 C   0  0  2  0  0  3  0  0  0  0  0  0
  186.4830  176.3310  136.8400 C   0  0  1  0  0  3  0  0  0  0  0  0
  187.8620  178.4110  136.8950 N   0  0  0  0  0  2  0  0  0  0  0  0
  188.8670  176.3500  135.9450 C   0  0  0  0  0  2  0  0  0  0  0  0
  188.7000  177.8720  135.8250 C   0  0  0  0  0  2  0  0  0  0  0  0
  185.8070  175.8020  135.7370 O   0  0  0  0  0  1  0  0  0  0  0  0
  190.5810  177.3680  141.7420 O   0  0  0  0  0  0  0  0  0  0  0  0
  190.8640  176.0280  139.7270 N   0  0  0  0  0  2  0  0  0  0  0  0
  191.4690  175.6290  138.4940 C   0  0  0  0  0  0  0  0  0  0  0  0
  192.5570  176.3720  137.9350 N   0  0  0  0  0  2  0  0  0  0  0  0
  191.2700  177.1330  140.5410 C   0  0  0  0  0  0  0  0  0  0  0  0
  192.2180  177.8800  140.1730 O   0  0  0  0  0  0  0  0  0  0  0  0
  191.0340  174.6080  137.9010 O   0  0  0  0  0  0  0  0  0  0  0  0
  194.5930  175.9290  136.8860 O   0  0  0  0  0  1  0  0  0  0  0  0
  193.2130  175.9880  136.6950 C   0  0  0  0  0  2  0  0  0  0  0  0
  1  3  1  0  0  0  0
  1  4  2  0  0  0  0
  2 15  1  0  0  0  0
  3 11  1  0  0  0  0
  4 10  1  0  0  0  0
  5  8  2  0  0  0  0
  6  5  1  0  0  0  0
  7  6  2  0  0  0  0
  9 12  1  0  0  0  0
  9  3  2  0  0  0  0
 11 10  2  0  0  0  0
 11 14  1  0  0  0  0
 12  2  2  0  0  0  0
 13  8  1  0  0  0  0
 14 16  2  0  0  0  0
 15 14  1  0  0  0  0
 15  7  1  0  0  0  0
 16  6  1  0  0  0  0
 16 13  1  0  0  0  0
 17  1  1  0  0  0  0
 18 17  1  1  0  0  0
 18 19  1  0  0  0  0
 20 19  1  0  0  0  0
 21 18  1  0  0  0  0
 22 21  1  0  0  0  0
 24 23  1  6  0  0  0
 25 26  1  0  0  0  0
 25 27  1  0  0  0  0
 25 22  1  1  0  0  0
 26 30  1  6  0  0  0
 26 24  1  0  0  0  0
 28 24  1  0  0  0  0
 29 28  1  0  0  0  0
 29 27  1  0  0  0  0
 31  2  1  0  0  0  0
 32 35  1  0  0  0  0
 33 32  1  0  0  0  0
 34 33  1  0  0  0  0
 35 31  1  0  0  0  0
 36 35  2  0  0  0  0
 37 33  2  0  0  0  0
 39 38  1  0  0  0  0
 39 34  1  0  0  0  0
M  END
>  <MODEL>
7

>  <REMARK>
 VINA RESULT:      -7.9      2.676      6.712
  Name = 
  9 active torsions:
  status: ('A' for Active; 'I' for Inactive)
    1  A    between atoms: C_4  and  C_27
    2  A    between atoms: C_5  and  C_24
    3  A    between atoms: C_7  and  C_37
    4  A    between atoms: C_9  and  O_26
    5  A    between atoms: C_11  and  N_30
    6  A    between atoms: N_12  and  C_27
    7  A    between atoms: N_12  and  C_37
    8  A    between atoms: C_24  and  C_37
    9  A    between atoms: O_26  and  C_31
                            x       y       z     vdW  Elec       q    Type
                         _______ _______ _______ _____ _____    ______ ____

>  <TORSDO>
F 9

$$$$
=
 OpenBabel10222419393D

 39 43  0  0  1  0  0  0  0  0999 V2000
  186.0650  177.5570  143.2900 C   0  0  0  0  0  0  0  0  0  0  0  0
  190.4090  177.4760  142.1590 C   0  0  0  0  0  0  0  0  0  0  0  0
  187.4110  177.5180  143.0110 C   0  0  0  0  0  0  0  0  0  0  0  0
  185.8880  177.4790  144.6630 C   0  0  0  0  0  3  0  0  0  0  0  0
  192.1730  176.9800  146.6120 N   0  0  0  0  0  0  0  0  0  0  0  0
  191.3920  177.1130  145.5100 C   0  0  0  0  0  0  0  0  0  0  0  0
  191.6620  177.2260  144.1710 C   0  0  0  0  0  3  0  0  0  0  0  0
  191.4390  176.9140  147.7290 N   0  0  0  0  0  0  0  0  0  0  0  0
  187.9350  177.6220  141.7770 N   0  0  0  0  0  0  0  0  0  0  0  0
  187.1370  177.3620  145.2590 C   0  0  0  0  0  3  0  0  0  0  0  0
  188.1030  177.3850  144.2640 C   0  0  0  0  0  0  0  0  0  0  0  0
  189.2330  177.6080  141.3960 C   0  0  0  0  0  3  0  0  0  0  0  0
  189.8080  177.0240  147.3270 S   0  0  0  0  0  0  0  0  0  0  0  0
  189.4710  177.3000  144.4680 C   0  0  0  0  0  0  0  0  0  0  0  0
  190.4600  177.3410  143.5200 N   0  0  0  0  0  0  0  0  0  0  0  0
  190.0750  177.1570  145.6920 C   0  0  0  0  0  0  0  0  0  0  0  0
  184.9770  177.7540  142.2800 C   0  0  0  0  0  2  0  0  0  0  0  0
  184.6650  179.2320  142.0670 C   0  0  2  0  0  3  0  0  0  0  0  0
  183.1980  179.4990  142.3660 C   0  0  0  0  0  2  0  0  0  0  0  0
  182.8840  179.1540  143.8090 C   0  0  0  0  0  1  0  0  0  0  0  0
  184.9630  179.6110  140.6920 N   0  0  0  0  0  2  0  0  0  0  0  0
  184.1400  178.7880  139.8130 C   0  0  0  0  0  2  0  0  0  0  0  0
  184.8500  175.3320  136.4750 O   0  0  0  0  0  1  0  0  0  0  0  0
  185.3680  176.3210  137.3140 C   0  0  2  0  0  3  0  0  0  0  0  0
  184.8400  178.5210  138.4850 C   0  0  2  0  0  3  0  0  0  0  0  0
  184.2650  177.2780  137.7860 C   0  0  1  0  0  3  0  0  0  0  0  0
  186.2900  178.4410  138.6680 N   0  0  0  0  0  2  0  0  0  0  0  0
  186.5180  177.0560  136.6220 C   0  0  0  0  0  2  0  0  0  0  0  0
  186.9040  178.3550  137.3450 C   0  0  0  0  0  2  0  0  0  0  0  0
  183.4670  177.6810  136.7120 O   0  0  0  0  0  1  0  0  0  0  0  0
  191.6460  177.5030  141.4780 O   0  0  0  0  0  0  0  0  0  0  0  0
  190.9780  176.1870  139.5390 N   0  0  0  0  0  2  0  0  0  0  0  0
  191.1040  175.6310  138.2270 C   0  0  0  0  0  0  0  0  0  0  0  0
  192.2120  175.9710  137.3880 N   0  0  0  0  0  2  0  0  0  0  0  0
  191.9110  177.0720  140.1680 C   0  0  0  0  0  0  0  0  0  0  0  0
  192.9380  177.4590  139.5460 O   0  0  0  0  0  0  0  0  0  0  0  0
  190.2240  174.8300  137.8140 O   0  0  0  0  0  0  0  0  0  0  0  0
  193.2430  174.3110  136.1130 O   0  0  0  0  0  1  0  0  0  0  0  0
  192.3880  175.4120  136.0570 C   0  0  0  0  0  2  0  0  0  0  0  0
  1  4  2  0  0  0  0
  2 15  1  0  0  0  0
  3  1  1  0  0  0  0
  3 11  1  0  0  0  0
  4 10  1  0  0  0  0
  5  8  2  0  0  0  0
  6 16  1  0  0  0  0
  6  5  1  0  0  0  0
  7  6  2  0  0  0  0
  9  3  2  0  0  0  0
 11 14  1  0  0  0  0
 11 10  2  0  0  0  0
 12  9  1  0  0  0  0
 12  2  2  0  0  0  0
 13  8  1  0  0  0  0
 14 16  2  0  0  0  0
 15  7  1  0  0  0  0
 15 14  1  0  0  0  0
 16 13  1  0  0  0  0
 17  1  1  0  0  0  0
 18 17  1  6  0  0  0
 18 19  1  0  0  0  0
 19 20  1  0  0  0  0
 21 18  1  0  0  0  0
 22 21  1  0  0  0  0
 24 23  1  6  0  0  0
 24 26  1  0  0  0  0
 25 27  1  0  0  0  0
 25 22  1  1  0  0  0
 26 30  1  6  0  0  0
 26 25  1  0  0  0  0
 28 24  1  0  0  0  0
 28 29  1  0  0  0  0
 29 27  1  0  0  0  0
 31  2  1  0  0  0  0
 32 35  1  0  0  0  0
 33 32  1  0  0  0  0
 34 33  1  0  0  0  0
 35 31  1  0  0  0  0
 36 35  2  0  0  0  0
 37 33  2  0  0  0  0
 39 38  1  0  0  0  0
 39 34  1  0  0  0  0
M  END
>  <MODEL>
8

>  <REMARK>
 VINA RESULT:      -7.9      2.952      7.291
  Name = 
  9 active torsions:
  status: ('A' for Active; 'I' for Inactive)
    1  A    between atoms: C_4  and  C_27
    2  A    between atoms: C_5  and  C_24
    3  A    between atoms: C_7  and  C_37
    4  A    between atoms: C_9  and  O_26
    5  A    between atoms: C_11  and  N_30
    6  A    between atoms: N_12  and  C_27
    7  A    between atoms: N_12  and  C_37
    8  A    between atoms: C_24  and  C_37
    9  A    between atoms: O_26  and  C_31
                            x       y       z     vdW  Elec       q    Type
                         _______ _______ _______ _____ _____    ______ ____

>  <TORSDO>
F 9

$$$$
=
 OpenBabel10222419393D

 39 43  0  0  1  0  0  0  0  0999 V2000
  184.7650  178.9520  140.9390 C   0  0  0  0  0  0  0  0  0  0  0  0
  189.0470  177.8510  141.7180 C   0  0  0  0  0  0  0  0  0  0  0  0
  186.0580  178.6000  141.2450 C   0  0  0  0  0  0  0  0  0  0  0  0
  184.0180  178.9800  142.1090 C   0  0  0  0  0  3  0  0  0  0  0  0
  188.6350  177.1810  146.4690 N   0  0  0  0  0  0  0  0  0  0  0  0
  188.4350  177.4340  145.1500 C   0  0  0  0  0  0  0  0  0  0  0  0
  189.2560  177.4210  144.0530 C   0  0  0  0  0  3  0  0  0  0  0  0
  187.5070  177.3320  147.1730 N   0  0  0  0  0  0  0  0  0  0  0  0
  187.0580  178.5270  140.3480 N   0  0  0  0  0  0  0  0  0  0  0  0
  184.8450  178.6150  143.1630 C   0  0  0  0  0  3  0  0  0  0  0  0
  186.1160  178.3750  142.6630 C   0  0  0  0  0  0  0  0  0  0  0  0
  188.3580  178.2060  140.5430 C   0  0  0  0  0  3  0  0  0  0  0  0
  186.2610  177.7850  146.1350 S   0  0  0  0  0  0  0  0  0  0  0  0
  187.2180  177.9960  143.4140 C   0  0  0  0  0  0  0  0  0  0  0  0
  188.4950  177.7710  142.9680 N   0  0  0  0  0  0  0  0  0  0  0  0
  187.2080  177.7790  144.7690 C   0  0  0  0  0  0  0  0  0  0  0  0
  184.2710  179.3400  139.5810 C   0  0  0  0  0  2  0  0  0  0  0  0
  183.0080  178.5740  139.1990 C   0  0  2  0  0  3  0  0  0  0  0  0
  183.3710  177.1680  138.7460 C   0  0  0  0  0  2  0  0  0  0  0  0
  182.6360  176.1400  139.5830 C   0  0  0  0  0  1  0  0  0  0  0  0
  182.3080  179.2700  138.1270 N   0  0  0  0  0  2  0  0  0  0  0  0
  180.8770  179.0540  138.3130 C   0  0  0  0  0  2  0  0  0  0  0  0
  180.9770  183.3300  136.0140 O   0  0  0  0  0  1  0  0  0  0  0  0
  180.8120  182.6000  137.1930 C   0  0  2  0  0  3  0  0  0  0  0  0
  180.0920  180.3490  138.1440 C   0  0  2  0  0  3  0  0  0  0  0  0
  180.5410  181.1200  136.8920 C   0  0  1  0  0  3  0  0  0  0  0  0
  180.1630  181.1630  139.3590 N   0  0  0  0  0  2  0  0  0  0  0  0
  179.7150  183.2280  138.0570 C   0  0  0  0  0  2  0  0  0  0  0  0
  179.2580  182.2980  139.1910 C   0  0  0  0  0  2  0  0  0  0  0  0
  179.5690  180.9880  135.8960 O   0  0  0  0  0  1  0  0  0  0  0  0
  190.4270  177.5690  141.6160 O   0  0  0  0  0  0  0  0  0  0  0  0
  190.6400  176.1890  139.6190 N   0  0  0  0  0  2  0  0  0  0  0  0
  191.2580  175.7000  138.4250 C   0  0  0  0  0  0  0  0  0  0  0  0
  192.4730  176.2760  137.9360 N   0  0  0  0  0  2  0  0  0  0  0  0
  191.1490  177.2300  140.4590 C   0  0  0  0  0  0  0  0  0  0  0  0
  192.2140  177.8320  140.1520 O   0  0  0  0  0  0  0  0  0  0  0  0
  190.7180  174.7470  137.8030 O   0  0  0  0  0  0  0  0  0  0  0  0
  194.5240  175.9090  136.8880 O   0  0  0  0  0  1  0  0  0  0  0  0
  193.1430  175.7940  136.7390 C   0  0  0  0  0  2  0  0  0  0  0  0
  1  3  1  0  0  0  0
  1  4  2  0  0  0  0
  2 15  1  0  0  0  0
  3 11  1  0  0  0  0
  4 10  1  0  0  0  0
  5  8  2  0  0  0  0
  6  5  1  0  0  0  0
  7  6  2  0  0  0  0
  9 12  1  0  0  0  0
  9  3  2  0  0  0  0
 11 10  2  0  0  0  0
 11 14  1  0  0  0  0
 12  2  2  0  0  0  0
 13  8  1  0  0  0  0
 14 16  2  0  0  0  0
 15 14  1  0  0  0  0
 15  7  1  0  0  0  0
 16  6  1  0  0  0  0
 16 13  1  0  0  0  0
 17  1  1  0  0  0  0
 18 19  1  6  0  0  0
 18 17  1  0  0  0  0
 19 20  1  0  0  0  0
 21 22  1  0  0  0  0
 21 18  1  0  0  0  0
 24 23  1  6  0  0  0
 24 28  1  0  0  0  0
 25 22  1  1  0  0  0
 25 27  1  0  0  0  0
 26 30  1  6  0  0  0
 26 24  1  0  0  0  0
 26 25  1  0  0  0  0
 28 29  1  0  0  0  0
 29 27  1  0  0  0  0
 31  2  1  0  0  0  0
 32 35  1  0  0  0  0
 33 32  1  0  0  0  0
 34 33  1  0  0  0  0
 35 31  1  0  0  0  0
 36 35  2  0  0  0  0
 37 33  2  0  0  0  0
 39 38  1  0  0  0  0
 39 34  1  0  0  0  0
M  END
>  <MODEL>
9

>  <REMARK>
 VINA RESULT:      -7.9      3.222      8.170
  Name = 
  9 active torsions:
  status: ('A' for Active; 'I' for Inactive)
    1  A    between atoms: C_4  and  C_27
    2  A    between atoms: C_5  and  C_24
    3  A    between atoms: C_7  and  C_37
    4  A    between atoms: C_9  and  O_26
    5  A    between atoms: C_11  and  N_30
    6  A    between atoms: N_12  and  C_27
    7  A    between atoms: N_12  and  C_37
    8  A    between atoms: C_24  and  C_37
    9  A    between atoms: O_26  and  C_31
                            x       y       z     vdW  Elec       q    Type
                         _______ _______ _______ _____ _____    ______ ____

>  <TORSDO>
F 9

$$$$
