=
 OpenBabel10222416323D

 32 35  0  0  1  0  0  0  0  0999 V2000
  189.4890  177.3220  147.6030 C   0  0  0  0  0  3  0  0  0  0  0  0
  187.9360  178.1570  149.2370 O   0  0  0  0  0  1  0  0  0  0  0  0
  184.4600  178.6030  143.8240 N   0  0  0  0  0  2  0  0  0  0  0  0
  185.0850  178.7270  146.1740 C   0  0  0  0  0  3  0  0  0  0  0  0
  187.5940  177.6810  145.5620 C   0  0  0  0  0  0  0  0  0  0  0  0
  187.2800  178.0160  146.9020 C   0  0  0  0  0  0  0  0  0  0  0  0
  188.8700  177.1460  145.2580 C   0  0  0  0  0  0  0  0  0  0  0  0
  184.6770  178.4130  142.4210 C   0  0  0  0  0  0  0  0  0  0  0  0
  186.6610  177.8920  144.5890 N   0  0  0  0  0  0  0  0  0  0  0  0
  188.2300  177.8320  147.9170 C   0  0  0  0  0  0  0  0  0  0  0  0
  185.8060  178.0710  141.9810 O   0  0  0  0  0  0  0  0  0  0  0  0
  186.0160  178.5360  147.1940 C   0  0  0  0  0  3  0  0  0  0  0  0
  189.8040  176.9840  146.2870 C   0  0  0  0  0  3  0  0  0  0  0  0
  185.4270  178.4030  144.8610 C   0  0  0  0  0  0  0  0  0  0  0  0
  184.4610  179.9600  139.5170 O   0  0  0  0  0  0  0  0  0  0  0  0
  183.5350  178.5890  141.4700 C   0  0  2  0  0  3  0  0  0  0  0  0
  183.5810  177.6340  140.4880 O   0  0  0  0  0  0  0  0  0  0  0  0
  184.0060  179.0510  140.2580 C   0  0  0  0  0  0  0  0  0  0  0  0
  189.2760  176.7610  143.9350 N   0  0  0  0  0  2  0  0  0  0  0  0
  190.5060  176.8160  140.7030 C   0  0  1  0  0  3  0  0  0  0  0  0
  191.5810  177.3600  141.5130 N   0  0  0  0  0  2  0  0  0  0  0  0
  191.7510  178.3760  143.6140 O   0  0  0  0  0  0  0  0  0  0  0  0
  189.5810  177.6660  142.8360 C   0  0  2  0  0  3  0  0  0  0  0  0
  189.2120  177.0070  141.5050 C   0  0  0  0  0  2  0  0  0  0  0  0
  191.0410  177.8400  142.7240 C   0  0  0  0  0  0  0  0  0  0  0  0
  190.4040  177.5760  139.3940 C   0  0  0  0  0  2  0  0  0  0  0  0
  189.1350  177.1860  138.6580 C   0  0  0  0  0  2  0  0  0  0  0  0
  188.4240  178.4090  138.2000 C   0  0  0  0  0  0  0  0  0  0  0  0
  189.0890  179.4220  137.8490 O   0  0  0  0  0  0  0  0  0  0  0  0
  187.0290  178.4300  138.1920 O   0  0  0  0  0  0  0  0  0  0  0  0
  186.4510  177.6260  136.0110 C   0  0  0  0  0  1  0  0  0  0  0  0
  186.2690  177.4490  137.5040 C   0  0  0  0  0  2  0  0  0  0  0  0
  1 10  1  0  0  0  0
  3 14  1  0  0  0  0
  4 12  2  0  0  0  0
  5  6  1  0  0  0  0
  6 12  1  0  0  0  0
  6 10  2  0  0  0  0
  7  5  2  0  0  0  0
  7 13  1  0  0  0  0
  8  3  1  0  0  0  0
  9 14  2  0  0  0  0
  9  5  1  0  0  0  0
 10  2  1  0  0  0  0
 11  8  2  0  0  0  0
 13  1  2  0  0  0  0
 14  4  1  0  0  0  0
 15 18  2  0  0  0  0
 16  8  1  1  0  0  0
 17 16  1  0  0  0  0
 18 17  1  0  0  0  0
 18 16  1  0  0  0  0
 19  7  1  0  0  0  0
 20 26  1  6  0  0  0
 20 24  1  0  0  0  0
 20 21  1  0  0  0  0
 21 25  1  0  0  0  0
 23 19  1  1  0  0  0
 24 23  1  0  0  0  0
 25 23  1  0  0  0  0
 25 22  2  0  0  0  0
 27 26  1  0  0  0  0
 28 27  1  0  0  0  0
 29 28  2  0  0  0  0
 30 28  1  0  0  0  0
 31 32  1  0  0  0  0
 32 30  1  0  0  0  0
M  END
>  <MODEL>
1

>  <REMARK>
 VINA RESULT:      -9.4      0.000      0.000
  Name = 
  8 active torsions:
  status: ('A' for Active; 'I' for Inactive)
    1  A    between atoms: C_1  and  C_20
    2  A    between atoms: C_5  and  C_10
    3  A    between atoms: C_5  and  O_12
    4  A    between atoms: C_10  and  C_20
    5  A    between atoms: C_11  and  O_12
    6  A    between atoms: C_16  and  N_30
    7  A    between atoms: C_17  and  N_30
    8  A    between atoms: C_18  and  C_24
                            x       y       z     vdW  Elec       q    Type
                         _______ _______ _______ _____ _____    ______ ____

>  <TORSDO>
F 8

$$$$
=
 OpenBabel10222416323D

 32 35  0  0  1  0  0  0  0  0999 V2000
  189.2990  177.2170  147.6700 C   0  0  0  0  0  3  0  0  0  0  0  0
  191.4490  176.1490  147.5540 O   0  0  0  0  0  1  0  0  0  0  0  0
  190.2430  177.2690  141.3200 N   0  0  0  0  0  2  0  0  0  0  0  0
  191.3740  176.5460  143.3510 C   0  0  0  0  0  3  0  0  0  0  0  0
  189.2480  177.5010  144.8760 C   0  0  0  0  0  0  0  0  0  0  0  0
  190.3520  176.8880  145.5170 C   0  0  0  0  0  0  0  0  0  0  0  0
  188.1710  177.9880  145.6580 C   0  0  0  0  0  0  0  0  0  0  0  0
  189.1500  177.7650  140.5360 C   0  0  0  0  0  0  0  0  0  0  0  0
  189.2410  177.6000  143.5160 N   0  0  0  0  0  0  0  0  0  0  0  0
  190.3730  176.7500  146.9120 C   0  0  0  0  0  0  0  0  0  0  0  0
  188.0670  178.1090  141.0800 O   0  0  0  0  0  0  0  0  0  0  0  0
  191.4130  176.4170  144.7380 C   0  0  0  0  0  3  0  0  0  0  0  0
  188.2110  177.8280  147.0470 C   0  0  0  0  0  3  0  0  0  0  0  0
  190.2670  177.1410  142.7460 C   0  0  0  0  0  0  0  0  0  0  0  0
  186.9740  177.6030  138.0650 O   0  0  0  0  0  0  0  0  0  0  0  0
  189.3130  177.9100  139.0560 C   0  0  2  0  0  3  0  0  0  0  0  0
  189.0310  179.1940  138.6690 O   0  0  0  0  0  0  0  0  0  0  0  0
  188.0750  178.0590  138.4650 C   0  0  0  0  0  0  0  0  0  0  0  0
  187.0170  178.6390  145.1030 N   0  0  0  0  0  2  0  0  0  0  0  0
  183.8640  179.3110  143.8530 C   0  0  1  0  0  3  0  0  0  0  0  0
  183.6930  179.3110  145.2940 N   0  0  0  0  0  2  0  0  0  0  0  0
  184.8460  178.4140  147.1220 O   0  0  0  0  0  0  0  0  0  0  0  0
  185.7080  178.0360  144.9010 C   0  0  2  0  0  3  0  0  0  0  0  0
  185.1290  178.4930  143.5600 C   0  0  0  0  0  2  0  0  0  0  0  0
  184.7500  178.5830  145.8790 C   0  0  0  0  0  0  0  0  0  0  0  0
  182.6720  178.6490  143.1870 C   0  0  0  0  0  2  0  0  0  0  0  0
  181.4840  178.6340  144.1320 C   0  0  0  0  0  2  0  0  0  0  0  0
  180.2670  179.1010  143.4170 C   0  0  0  0  0  0  0  0  0  0  0  0
  179.2720  178.3320  143.3130 O   0  0  0  0  0  0  0  0  0  0  0  0
  180.2510  180.3730  142.8460 O   0  0  0  0  0  0  0  0  0  0  0  0
  180.3670  179.9870  140.4850 C   0  0  0  0  0  1  0  0  0  0  0  0
  179.5940  180.6330  141.6150 C   0  0  0  0  0  2  0  0  0  0  0  0
  3 14  1  0  0  0  0
  4 12  2  0  0  0  0
  5  6  2  0  0  0  0
  5  7  1  0  0  0  0
  6 10  1  0  0  0  0
  7 13  2  0  0  0  0
  8 11  2  0  0  0  0
  8  3  1  0  0  0  0
  9  5  1  0  0  0  0
 10  2  1  0  0  0  0
 10  1  2  0  0  0  0
 12  6  1  0  0  0  0
 13  1  1  0  0  0  0
 14  4  1  0  0  0  0
 14  9  2  0  0  0  0
 15 18  2  0  0  0  0
 16  8  1  1  0  0  0
 17 16  1  0  0  0  0
 18 17  1  0  0  0  0
 18 16  1  0  0  0  0
 19  7  1  0  0  0  0
 20 26  1  6  0  0  0
 20 21  1  0  0  0  0
 21 25  1  0  0  0  0
 23 19  1  1  0  0  0
 23 25  1  0  0  0  0
 24 20  1  0  0  0  0
 24 23  1  0  0  0  0
 25 22  2  0  0  0  0
 26 27  1  0  0  0  0
 28 27  1  0  0  0  0
 29 28  2  0  0  0  0
 30 28  1  0  0  0  0
 31 32  1  0  0  0  0
 32 30  1  0  0  0  0
M  END
>  <MODEL>
2

>  <REMARK>
 VINA RESULT:      -9.1      2.377      6.260
  Name = 
  8 active torsions:
  status: ('A' for Active; 'I' for Inactive)
    1  A    between atoms: C_1  and  C_20
    2  A    between atoms: C_5  and  C_10
    3  A    between atoms: C_5  and  O_12
    4  A    between atoms: C_10  and  C_20
    5  A    between atoms: C_11  and  O_12
    6  A    between atoms: C_16  and  N_30
    7  A    between atoms: C_17  and  N_30
    8  A    between atoms: C_18  and  C_24
                            x       y       z     vdW  Elec       q    Type
                         _______ _______ _______ _____ _____    ______ ____

>  <TORSDO>
F 8

$$$$
=
 OpenBabel10222416323D

 32 35  0  0  1  0  0  0  0  0999 V2000
  189.5710  177.0960  147.7100 C   0  0  0  0  0  3  0  0  0  0  0  0
  191.6880  175.9800  147.4890 O   0  0  0  0  0  1  0  0  0  0  0  0
  190.2470  177.2140  141.3270 N   0  0  0  0  0  2  0  0  0  0  0  0
  191.4450  176.4370  143.2980 C   0  0  0  0  0  3  0  0  0  0  0  0
  189.4090  177.4200  144.9250 C   0  0  0  0  0  0  0  0  0  0  0  0
  190.5240  176.7720  145.5100 C   0  0  0  0  0  0  0  0  0  0  0  0
  188.3770  177.9210  145.7580 C   0  0  0  0  0  0  0  0  0  0  0  0
  189.1350  177.7470  140.5960 C   0  0  0  0  0  0  0  0  0  0  0  0
  189.3460  177.5380  143.5670 N   0  0  0  0  0  0  0  0  0  0  0  0
  190.6000  176.6150  146.9010 C   0  0  0  0  0  0  0  0  0  0  0  0
  188.0840  178.1070  141.1900 O   0  0  0  0  0  0  0  0  0  0  0  0
  191.5400  176.2880  144.6810 C   0  0  0  0  0  3  0  0  0  0  0  0
  188.4720  177.7410  147.1410 C   0  0  0  0  0  3  0  0  0  0  0  0
  190.3280  177.0660  142.7490 C   0  0  0  0  0  0  0  0  0  0  0  0
  186.8510  177.6810  138.2190 O   0  0  0  0  0  0  0  0  0  0  0  0
  189.2380  177.9080  139.1130 C   0  0  2  0  0  3  0  0  0  0  0  0
  188.9780  179.2050  138.7550 O   0  0  0  0  0  0  0  0  0  0  0  0
  187.9810  178.1010  138.5770 C   0  0  0  0  0  0  0  0  0  0  0  0
  187.2170  178.6060  145.2610 N   0  0  0  0  0  2  0  0  0  0  0  0
  184.3580  179.2010  143.4090 C   0  0  1  0  0  3  0  0  0  0  0  0
  183.9160  179.2560  144.7900 N   0  0  0  0  0  2  0  0  0  0  0  0
  184.7020  178.4410  146.8380 O   0  0  0  0  0  0  0  0  0  0  0  0
  185.9700  177.9840  144.8380 C   0  0  2  0  0  3  0  0  0  0  0  0
  185.6560  178.3830  143.3940 C   0  0  0  0  0  2  0  0  0  0  0  0
  184.8440  178.5610  145.5930 C   0  0  0  0  0  0  0  0  0  0  0  0
  183.3140  178.5030  142.5560 C   0  0  0  0  0  2  0  0  0  0  0  0
  183.9400  177.9970  141.2700 C   0  0  0  0  0  2  0  0  0  0  0  0
  183.7530  179.0020  140.1900 C   0  0  0  0  0  0  0  0  0  0  0  0
  184.7160  179.7450  139.8560 O   0  0  0  0  0  0  0  0  0  0  0  0
  182.5050  179.1310  139.5800 O   0  0  0  0  0  0  0  0  0  0  0  0
  181.2770  181.0590  138.8630 C   0  0  0  0  0  1  0  0  0  0  0  0
  182.2950  180.0060  138.4810 C   0  0  0  0  0  2  0  0  0  0  0  0
  3 14  1  0  0  0  0
  4 12  2  0  0  0  0
  5  6  2  0  0  0  0
  5  7  1  0  0  0  0
  6 10  1  0  0  0  0
  7 13  2  0  0  0  0
  8 11  2  0  0  0  0
  8  3  1  0  0  0  0
  9  5  1  0  0  0  0
 10  2  1  0  0  0  0
 10  1  2  0  0  0  0
 12  6  1  0  0  0  0
 13  1  1  0  0  0  0
 14  4  1  0  0  0  0
 14  9  2  0  0  0  0
 15 18  2  0  0  0  0
 16  8  1  1  0  0  0
 17 16  1  0  0  0  0
 18 17  1  0  0  0  0
 18 16  1  0  0  0  0
 19  7  1  0  0  0  0
 20 26  1  6  0  0  0
 20 21  1  0  0  0  0
 21 25  1  0  0  0  0
 23 19  1  1  0  0  0
 23 25  1  0  0  0  0
 24 20  1  0  0  0  0
 24 23  1  0  0  0  0
 25 22  2  0  0  0  0
 27 26  1  0  0  0  0
 28 27  1  0  0  0  0
 29 28  2  0  0  0  0
 30 28  1  0  0  0  0
 32 31  1  0  0  0  0
 32 30  1  0  0  0  0
M  END
>  <MODEL>
3

>  <REMARK>
 VINA RESULT:      -9.0      1.744      5.234
  Name = 
  8 active torsions:
  status: ('A' for Active; 'I' for Inactive)
    1  A    between atoms: C_1  and  C_20
    2  A    between atoms: C_5  and  C_10
    3  A    between atoms: C_5  and  O_12
    4  A    between atoms: C_10  and  C_20
    5  A    between atoms: C_11  and  O_12
    6  A    between atoms: C_16  and  N_30
    7  A    between atoms: C_17  and  N_30
    8  A    between atoms: C_18  and  C_24
                            x       y       z     vdW  Elec       q    Type
                         _______ _______ _______ _____ _____    ______ ____

>  <TORSDO>
F 8

$$$$
=
 OpenBabel10222416323D

 32 35  0  0  1  0  0  0  0  0999 V2000
  189.3580  177.2650  147.2120 C   0  0  0  0  0  3  0  0  0  0  0  0
  187.8190  178.0130  148.8990 O   0  0  0  0  0  1  0  0  0  0  0  0
  184.2630  178.6390  143.5570 N   0  0  0  0  0  2  0  0  0  0  0  0
  184.9190  178.6740  145.9010 C   0  0  0  0  0  3  0  0  0  0  0  0
  187.4310  177.6850  145.2130 C   0  0  0  0  0  0  0  0  0  0  0  0
  187.1320  177.9600  146.5700 C   0  0  0  0  0  0  0  0  0  0  0  0
  188.7090  177.1780  144.8700 C   0  0  0  0  0  0  0  0  0  0  0  0
  184.4630  178.5100  142.1440 C   0  0  0  0  0  0  0  0  0  0  0  0
  186.4830  177.9240  144.2620 N   0  0  0  0  0  0  0  0  0  0  0  0
  188.0980  177.7460  147.5640 C   0  0  0  0  0  0  0  0  0  0  0  0
  185.5900  178.2000  141.6750 O   0  0  0  0  0  0  0  0  0  0  0  0
  185.8660  178.4520  146.9000 C   0  0  0  0  0  3  0  0  0  0  0  0
  189.6590  176.9850  145.8790 C   0  0  0  0  0  3  0  0  0  0  0  0
  185.2470  178.4090  144.5720 C   0  0  0  0  0  0  0  0  0  0  0  0
  184.2230  180.0590  139.2430 O   0  0  0  0  0  0  0  0  0  0  0  0
  183.3060  178.7110  141.2160 C   0  0  2  0  0  3  0  0  0  0  0  0
  183.3100  177.7540  140.2360 O   0  0  0  0  0  0  0  0  0  0  0  0
  183.7630  179.1610  139.9940 C   0  0  0  0  0  0  0  0  0  0  0  0
  189.1010  176.8530  143.5270 N   0  0  0  0  0  2  0  0  0  0  0  0
  189.5640  177.2030  140.1180 C   0  0  1  0  0  3  0  0  0  0  0  0
  190.9020  177.0310  140.6530 N   0  0  0  0  0  2  0  0  0  0  0  0
  191.9280  177.3210  142.7350 O   0  0  0  0  0  0  0  0  0  0  0  0
  189.5730  177.7940  142.5210 C   0  0  2  0  0  3  0  0  0  0  0  0
  188.6900  177.7050  141.2750 C   0  0  0  0  0  2  0  0  0  0  0  0
  190.8930  177.3690  142.0220 C   0  0  0  0  0  0  0  0  0  0  0  0
  189.5760  178.2390  139.0090 C   0  0  0  0  0  2  0  0  0  0  0  0
  188.8210  177.7220  137.7990 C   0  0  0  0  0  2  0  0  0  0  0  0
  189.4910  176.5020  137.2730 C   0  0  0  0  0  0  0  0  0  0  0  0
  188.8630  175.4090  137.2480 O   0  0  0  0  0  0  0  0  0  0  0  0
  190.8140  176.5780  136.8390 O   0  0  0  0  0  0  0  0  0  0  0  0
  193.0090  176.5170  137.7960 C   0  0  0  0  0  1  0  0  0  0  0  0
  191.8170  175.7050  137.3370 C   0  0  0  0  0  2  0  0  0  0  0  0
  1 10  1  0  0  0  0
  3 14  1  0  0  0  0
  4 12  2  0  0  0  0
  5  6  1  0  0  0  0
  6 12  1  0  0  0  0
  6 10  2  0  0  0  0
  7  5  2  0  0  0  0
  7 13  1  0  0  0  0
  8  3  1  0  0  0  0
  9 14  2  0  0  0  0
  9  5  1  0  0  0  0
 10  2  1  0  0  0  0
 11  8  2  0  0  0  0
 13  1  2  0  0  0  0
 14  4  1  0  0  0  0
 15 18  2  0  0  0  0
 16  8  1  1  0  0  0
 17 16  1  0  0  0  0
 18 17  1  0  0  0  0
 18 16  1  0  0  0  0
 19  7  1  0  0  0  0
 20 26  1  6  0  0  0
 20 21  1  0  0  0  0
 20 24  1  0  0  0  0
 21 25  1  0  0  0  0
 23 19  1  1  0  0  0
 24 23  1  0  0  0  0
 25 23  1  0  0  0  0
 25 22  2  0  0  0  0
 27 26  1  0  0  0  0
 28 27  1  0  0  0  0
 29 28  2  0  0  0  0
 30 28  1  0  0  0  0
 30 32  1  0  0  0  0
 32 31  1  0  0  0  0
M  END
>  <MODEL>
4

>  <REMARK>
 VINA RESULT:      -8.8      1.361      2.050
  Name = 
  8 active torsions:
  status: ('A' for Active; 'I' for Inactive)
    1  A    between atoms: C_1  and  C_20
    2  A    between atoms: C_5  and  C_10
    3  A    between atoms: C_5  and  O_12
    4  A    between atoms: C_10  and  C_20
    5  A    between atoms: C_11  and  O_12
    6  A    between atoms: C_16  and  N_30
    7  A    between atoms: C_17  and  N_30
    8  A    between atoms: C_18  and  C_24
                            x       y       z     vdW  Elec       q    Type
                         _______ _______ _______ _____ _____    ______ ____

>  <TORSDO>
F 8

$$$$
=
 OpenBabel10222416323D

 32 35  0  0  1  0  0  0  0  0999 V2000
  189.2280  177.3760  146.7280 C   0  0  0  0  0  3  0  0  0  0  0  0
  188.0890  177.9550  148.7640 O   0  0  0  0  0  1  0  0  0  0  0  0
  183.3910  178.7160  144.4130 N   0  0  0  0  0  2  0  0  0  0  0  0
  184.5630  178.6490  146.5460 C   0  0  0  0  0  3  0  0  0  0  0  0
  186.8830  177.8190  145.2470 C   0  0  0  0  0  0  0  0  0  0  0  0
  186.8920  178.0020  146.6510 C   0  0  0  0  0  0  0  0  0  0  0  0
  188.0650  177.3930  144.5920 C   0  0  0  0  0  0  0  0  0  0  0  0
  183.2680  178.6770  142.9860 C   0  0  0  0  0  0  0  0  0  0  0  0
  185.7350  178.0670  144.5520 N   0  0  0  0  0  0  0  0  0  0  0  0
  188.0650  177.7780  147.3860 C   0  0  0  0  0  0  0  0  0  0  0  0
  184.2680  178.4470  142.2560 O   0  0  0  0  0  0  0  0  0  0  0  0
  185.7190  178.4150  147.2900 C   0  0  0  0  0  3  0  0  0  0  0  0
  189.2250  177.1870  145.3460 C   0  0  0  0  0  3  0  0  0  0  0  0
  184.5880  178.4750  145.1630 C   0  0  0  0  0  0  0  0  0  0  0  0
  180.2330  177.8780  144.0010 O   0  0  0  0  0  0  0  0  0  0  0  0
  181.9250  178.8760  142.3590 C   0  0  2  0  0  3  0  0  0  0  0  0
  181.3370  180.0170  142.8430 O   0  0  0  0  0  0  0  0  0  0  0  0
  180.9350  178.6460  143.2940 C   0  0  0  0  0  0  0  0  0  0  0  0
  188.1510  177.1630  143.1770 N   0  0  0  0  0  2  0  0  0  0  0  0
  188.6990  177.5800  139.7880 C   0  0  1  0  0  3  0  0  0  0  0  0
  189.9010  176.9270  140.2750 N   0  0  0  0  0  2  0  0  0  0  0  0
  190.9680  176.7030  142.3450 O   0  0  0  0  0  0  0  0  0  0  0  0
  188.9120  177.9590  142.2240 C   0  0  2  0  0  3  0  0  0  0  0  0
  188.0490  178.2630  140.9980 C   0  0  0  0  0  2  0  0  0  0  0  0
  190.0090  177.1500  141.6630 C   0  0  0  0  0  0  0  0  0  0  0  0
  189.0600  178.6280  138.7510 C   0  0  0  0  0  2  0  0  0  0  0  0
  188.6350  178.1670  137.3690 C   0  0  0  0  0  2  0  0  0  0  0  0
  187.1710  177.9080  137.3530 C   0  0  0  0  0  0  0  0  0  0  0  0
  186.3740  178.8120  137.7270 O   0  0  0  0  0  0  0  0  0  0  0  0
  186.6980  176.6590  136.9530 O   0  0  0  0  0  0  0  0  0  0  0  0
  186.8420  174.3560  136.3060 C   0  0  0  0  0  1  0  0  0  0  0  0
  187.4780  175.4810  137.0950 C   0  0  0  0  0  2  0  0  0  0  0  0
  1 10  1  0  0  0  0
  3 14  1  0  0  0  0
  4 12  2  0  0  0  0
  5  6  1  0  0  0  0
  6 12  1  0  0  0  0
  6 10  2  0  0  0  0
  7  5  2  0  0  0  0
  7 13  1  0  0  0  0
  8  3  1  0  0  0  0
  9 14  2  0  0  0  0
  9  5  1  0  0  0  0
 10  2  1  0  0  0  0
 11  8  2  0  0  0  0
 13  1  2  0  0  0  0
 14  4  1  0  0  0  0
 16 17  1  0  0  0  0
 16  8  1  1  0  0  0
 16 18  1  0  0  0  0
 17 18  1  0  0  0  0
 18 15  2  0  0  0  0
 19  7  1  0  0  0  0
 20 26  1  6  0  0  0
 20 21  1  0  0  0  0
 20 24  1  0  0  0  0
 21 25  1  0  0  0  0
 23 19  1  1  0  0  0
 24 23  1  0  0  0  0
 25 23  1  0  0  0  0
 25 22  2  0  0  0  0
 27 26  1  0  0  0  0
 28 27  1  0  0  0  0
 28 29  2  0  0  0  0
 30 32  1  0  0  0  0
 30 28  1  0  0  0  0
 31 32  1  0  0  0  0
M  END
>  <MODEL>
5

>  <REMARK>
 VINA RESULT:      -8.4      1.838      2.200
  Name = 
  8 active torsions:
  status: ('A' for Active; 'I' for Inactive)
    1  A    between atoms: C_1  and  C_20
    2  A    between atoms: C_5  and  C_10
    3  A    between atoms: C_5  and  O_12
    4  A    between atoms: C_10  and  C_20
    5  A    between atoms: C_11  and  O_12
    6  A    between atoms: C_16  and  N_30
    7  A    between atoms: C_17  and  N_30
    8  A    between atoms: C_18  and  C_24
                            x       y       z     vdW  Elec       q    Type
                         _______ _______ _______ _____ _____    ______ ____

>  <TORSDO>
F 8

$$$$
=
 OpenBabel10222416323D

 32 35  0  0  1  0  0  0  0  0999 V2000
  191.4010  177.1090  145.4100 C   0  0  0  0  0  3  0  0  0  0  0  0
  190.8520  176.7120  147.7160 O   0  0  0  0  0  1  0  0  0  0  0  0
  185.1750  178.6730  145.3690 N   0  0  0  0  0  2  0  0  0  0  0  0
  186.8700  177.8780  146.9250 C   0  0  0  0  0  3  0  0  0  0  0  0
  188.7520  177.8690  144.8700 C   0  0  0  0  0  0  0  0  0  0  0  0
  189.1360  177.4780  146.1760 C   0  0  0  0  0  0  0  0  0  0  0  0
  189.7120  177.8590  143.8290 C   0  0  0  0  0  0  0  0  0  0  0  0
  184.6750  179.1930  144.1310 C   0  0  0  0  0  0  0  0  0  0  0  0
  187.4640  178.2590  144.6460 N   0  0  0  0  0  0  0  0  0  0  0  0
  190.4600  177.0970  146.4390 C   0  0  0  0  0  0  0  0  0  0  0  0
  185.4430  179.3750  143.1490 O   0  0  0  0  0  0  0  0  0  0  0  0
  188.1800  177.4840  147.1960 C   0  0  0  0  0  3  0  0  0  0  0  0
  191.0290  177.4870  144.1190 C   0  0  0  0  0  3  0  0  0  0  0  0
  186.5240  178.2730  145.6330 C   0  0  0  0  0  0  0  0  0  0  0  0
  182.5420  178.6280  141.6810 O   0  0  0  0  0  0  0  0  0  0  0  0
  183.2160  179.4920  143.9940 C   0  0  2  0  0  3  0  0  0  0  0  0
  182.4710  178.3950  144.3400 O   0  0  0  0  0  0  0  0  0  0  0  0
  182.6990  178.8010  142.9170 C   0  0  0  0  0  0  0  0  0  0  0  0
  189.4160  178.2220  142.4710 N   0  0  0  0  0  2  0  0  0  0  0  0
  190.6460  177.2360  139.3930 C   0  0  1  0  0  3  0  0  0  0  0  0
  189.4560  178.0070  139.0810 N   0  0  0  0  0  2  0  0  0  0  0  0
  187.5120  178.6310  140.2240 O   0  0  0  0  0  0  0  0  0  0  0  0
  189.1630  177.3000  141.3730 C   0  0  2  0  0  3  0  0  0  0  0  0
  190.4890  176.7530  140.8410 C   0  0  0  0  0  2  0  0  0  0  0  0
  188.6210  178.0370  140.2170 C   0  0  0  0  0  0  0  0  0  0  0  0
  190.7450  176.0350  138.4700 C   0  0  0  0  0  2  0  0  0  0  0  0
  191.6320  176.3590  137.2820 C   0  0  0  0  0  2  0  0  0  0  0  0
  193.0490  176.0530  137.6150 C   0  0  0  0  0  0  0  0  0  0  0  0
  193.9060  176.9790  137.5990 O   0  0  0  0  0  0  0  0  0  0  0  0
  193.4180  174.7410  137.9120 O   0  0  0  0  0  0  0  0  0  0  0  0
  195.4870  174.3790  139.0630 C   0  0  0  0  0  1  0  0  0  0  0  0
  194.7500  174.2810  137.7440 C   0  0  0  0  0  2  0  0  0  0  0  0
  1 10  1  0  0  0  0
  3 14  1  0  0  0  0
  4 12  2  0  0  0  0
  5  6  1  0  0  0  0
  6 10  2  0  0  0  0
  6 12  1  0  0  0  0
  7 13  1  0  0  0  0
  7  5  2  0  0  0  0
  8  3  1  0  0  0  0
  9  5  1  0  0  0  0
  9 14  2  0  0  0  0
 10  2  1  0  0  0  0
 11  8  2  0  0  0  0
 13  1  2  0  0  0  0
 14  4  1  0  0  0  0
 15 18  2  0  0  0  0
 16  8  1  6  0  0  0
 16 17  1  0  0  0  0
 18 16  1  0  0  0  0
 18 17  1  0  0  0  0
 19  7  1  0  0  0  0
 20 26  1  6  0  0  0
 20 24  1  0  0  0  0
 21 20  1  0  0  0  0
 21 25  1  0  0  0  0
 23 19  1  1  0  0  0
 24 23  1  0  0  0  0
 25 22  2  0  0  0  0
 25 23  1  0  0  0  0
 27 28  1  0  0  0  0
 27 26  1  0  0  0  0
 28 30  1  0  0  0  0
 29 28  2  0  0  0  0
 32 30  1  0  0  0  0
 32 31  1  0  0  0  0
M  END
>  <MODEL>
6

>  <REMARK>
 VINA RESULT:      -8.3      2.755      3.875
  Name = 
  8 active torsions:
  status: ('A' for Active; 'I' for Inactive)
    1  A    between atoms: C_1  and  C_20
    2  A    between atoms: C_5  and  C_10
    3  A    between atoms: C_5  and  O_12
    4  A    between atoms: C_10  and  C_20
    5  A    between atoms: C_11  and  O_12
    6  A    between atoms: C_16  and  N_30
    7  A    between atoms: C_17  and  N_30
    8  A    between atoms: C_18  and  C_24
                            x       y       z     vdW  Elec       q    Type
                         _______ _______ _______ _____ _____    ______ ____

>  <TORSDO>
F 8

$$$$
=
 OpenBabel10222416323D

 32 35  0  0  1  0  0  0  0  0999 V2000
  187.3580  177.9130  146.3370 C   0  0  0  0  0  3  0  0  0  0  0  0
  185.5780  178.7510  147.7190 O   0  0  0  0  0  1  0  0  0  0  0  0
  182.8060  178.7960  141.8970 N   0  0  0  0  0  2  0  0  0  0  0  0
  183.1210  179.0540  144.2970 C   0  0  0  0  0  3  0  0  0  0  0  0
  185.7260  178.0960  144.0590 C   0  0  0  0  0  0  0  0  0  0  0  0
  185.2310  178.4750  145.3300 C   0  0  0  0  0  0  0  0  0  0  0  0
  187.0510  177.6050  143.9450 C   0  0  0  0  0  0  0  0  0  0  0  0
  183.2080  178.5540  140.5430 C   0  0  0  0  0  0  0  0  0  0  0  0
  184.9180  178.2210  142.9670 N   0  0  0  0  0  0  0  0  0  0  0  0
  186.0500  178.3800  146.4650 C   0  0  0  0  0  0  0  0  0  0  0  0
  184.3970  178.2440  140.2660 O   0  0  0  0  0  0  0  0  0  0  0  0
  183.9200  178.9510  145.4340 C   0  0  0  0  0  3  0  0  0  0  0  0
  187.8510  177.5310  145.0890 C   0  0  0  0  0  3  0  0  0  0  0  0
  183.6410  178.6870  143.0560 C   0  0  0  0  0  0  0  0  0  0  0  0
  182.3150  181.0330  138.5610 O   0  0  0  0  0  0  0  0  0  0  0  0
  182.1910  178.6360  139.4480 C   0  0  2  0  0  3  0  0  0  0  0  0
  182.7840  178.4250  138.2310 O   0  0  0  0  0  0  0  0  0  0  0  0
  182.3900  179.7870  138.7140 C   0  0  0  0  0  0  0  0  0  0  0  0
  187.6360  177.1800  142.7040 N   0  0  0  0  0  2  0  0  0  0  0  0
  188.8180  177.5670  139.4770 C   0  0  1  0  0  3  0  0  0  0  0  0
  189.8640  176.8310  140.1640 N   0  0  0  0  0  2  0  0  0  0  0  0
  190.5200  176.5280  142.3890 O   0  0  0  0  0  0  0  0  0  0  0  0
  188.6100  177.9240  141.9170 C   0  0  2  0  0  3  0  0  0  0  0  0
  188.0070  178.2910  140.5600 C   0  0  0  0  0  2  0  0  0  0  0  0
  189.7340  177.0420  141.5520 C   0  0  0  0  0  0  0  0  0  0  0  0
  189.4310  178.5900  138.5390 C   0  0  0  0  0  2  0  0  0  0  0  0
  189.3610  178.0970  137.1060 C   0  0  0  0  0  2  0  0  0  0  0  0
  187.9850  178.2860  136.5760 C   0  0  0  0  0  0  0  0  0  0  0  0
  187.3620  179.3540  136.8250 O   0  0  0  0  0  0  0  0  0  0  0  0
  187.3880  177.2670  135.8330 O   0  0  0  0  0  0  0  0  0  0  0  0
  186.9520  175.2950  137.1220 C   0  0  0  0  0  1  0  0  0  0  0  0
  186.3490  176.4610  136.3670 C   0  0  0  0  0  2  0  0  0  0  0  0
  1 10  1  0  0  0  0
  3 14  1  0  0  0  0
  4 12  2  0  0  0  0
  5  6  1  0  0  0  0
  6 12  1  0  0  0  0
  6 10  2  0  0  0  0
  7  5  2  0  0  0  0
  7 13  1  0  0  0  0
  8  3  1  0  0  0  0
  9 14  2  0  0  0  0
  9  5  1  0  0  0  0
 10  2  1  0  0  0  0
 11  8  2  0  0  0  0
 13  1  2  0  0  0  0
 14  4  1  0  0  0  0
 15 18  2  0  0  0  0
 16  8  1  1  0  0  0
 17 18  1  0  0  0  0
 17 16  1  0  0  0  0
 18 16  1  0  0  0  0
 19  7  1  0  0  0  0
 20 26  1  6  0  0  0
 20 21  1  0  0  0  0
 20 24  1  0  0  0  0
 21 25  1  0  0  0  0
 23 19  1  1  0  0  0
 24 23  1  0  0  0  0
 25 23  1  0  0  0  0
 25 22  2  0  0  0  0
 27 26  1  0  0  0  0
 28 29  2  0  0  0  0
 28 27  1  0  0  0  0
 30 32  1  0  0  0  0
 30 28  1  0  0  0  0
 32 31  1  0  0  0  0
M  END
>  <MODEL>
7

>  <REMARK>
 VINA RESULT:      -8.3      1.773      2.332
  Name = 
  8 active torsions:
  status: ('A' for Active; 'I' for Inactive)
    1  A    between atoms: C_1  and  C_20
    2  A    between atoms: C_5  and  C_10
    3  A    between atoms: C_5  and  O_12
    4  A    between atoms: C_10  and  C_20
    5  A    between atoms: C_11  and  O_12
    6  A    between atoms: C_16  and  N_30
    7  A    between atoms: C_17  and  N_30
    8  A    between atoms: C_18  and  C_24
                            x       y       z     vdW  Elec       q    Type
                         _______ _______ _______ _____ _____    ______ ____

>  <TORSDO>
F 8

$$$$
=
 OpenBabel10222416323D

 32 35  0  0  1  0  0  0  0  0999 V2000
  188.0800  177.5160  147.0120 C   0  0  0  0  0  3  0  0  0  0  0  0
  190.3490  177.1910  147.7340 O   0  0  0  0  0  1  0  0  0  0  0  0
  191.0200  177.0750  141.3220 N   0  0  0  0  0  2  0  0  0  0  0  0
  191.5660  177.0140  143.6940 C   0  0  0  0  0  3  0  0  0  0  0  0
  188.8820  177.4170  144.3220 C   0  0  0  0  0  0  0  0  0  0  0  0
  189.8330  177.2770  145.3620 C   0  0  0  0  0  0  0  0  0  0  0  0
  187.5190  177.6250  144.6480 C   0  0  0  0  0  0  0  0  0  0  0  0
  190.1590  177.0910  140.1770 C   0  0  0  0  0  0  0  0  0  0  0  0
  189.2990  177.3380  143.0250 N   0  0  0  0  0  0  0  0  0  0  0  0
  189.4270  177.3290  146.7030 C   0  0  0  0  0  0  0  0  0  0  0  0
  188.9070  177.1330  140.3100 O   0  0  0  0  0  0  0  0  0  0  0  0
  191.1770  177.0790  145.0310 C   0  0  0  0  0  3  0  0  0  0  0  0
  187.1380  177.6610  145.9930 C   0  0  0  0  0  3  0  0  0  0  0  0
  190.6050  177.1410  142.6910 C   0  0  0  0  0  0  0  0  0  0  0  0
  190.8170  174.6440  138.0670 O   0  0  0  0  0  0  0  0  0  0  0  0
  190.7570  177.0940  138.8060 C   0  0  2  0  0  3  0  0  0  0  0  0
  189.7700  177.0920  137.8560 O   0  0  0  0  0  0  0  0  0  0  0  0
  190.5560  175.8670  138.2080 C   0  0  0  0  0  0  0  0  0  0  0  0
  186.4840  177.7950  143.6660 N   0  0  0  0  0  2  0  0  0  0  0  0
  183.1190  178.4290  143.1800 C   0  0  1  0  0  3  0  0  0  0  0  0
  183.7590  178.8940  141.9620 N   0  0  0  0  0  2  0  0  0  0  0  0
  185.9130  179.5690  141.3500 O   0  0  0  0  0  0  0  0  0  0  0  0
  185.5120  178.8780  143.6260 C   0  0  2  0  0  3  0  0  0  0  0  0
  184.2010  178.4210  144.2680 C   0  0  0  0  0  2  0  0  0  0  0  0
  185.1200  179.1450  142.2290 C   0  0  0  0  0  0  0  0  0  0  0  0
  182.0080  179.3810  143.5810 C   0  0  0  0  0  2  0  0  0  0  0  0
  180.7250  178.6130  143.8370 C   0  0  0  0  0  2  0  0  0  0  0  0
  179.6760  179.0520  142.8790 C   0  0  0  0  0  0  0  0  0  0  0  0
  179.4300  180.2820  142.7460 O   0  0  0  0  0  0  0  0  0  0  0  0
  178.9570  178.0970  142.1610 O   0  0  0  0  0  0  0  0  0  0  0  0
  180.3500  177.9740  140.2160 C   0  0  0  0  0  1  0  0  0  0  0  0
  179.5950  177.1930  141.2700 C   0  0  0  0  0  2  0  0  0  0  0  0
  3 14  1  0  0  0  0
  4 12  2  0  0  0  0
  5  7  2  0  0  0  0
  5  6  1  0  0  0  0
  6 10  2  0  0  0  0
  7 13  1  0  0  0  0
  8 11  2  0  0  0  0
  8  3  1  0  0  0  0
  9  5  1  0  0  0  0
 10  1  1  0  0  0  0
 10  2  1  0  0  0  0
 12  6  1  0  0  0  0
 13  1  2  0  0  0  0
 14  9  2  0  0  0  0
 14  4  1  0  0  0  0
 15 18  2  0  0  0  0
 16  8  1  1  0  0  0
 17 18  1  0  0  0  0
 17 16  1  0  0  0  0
 18 16  1  0  0  0  0
 19  7  1  0  0  0  0
 20 26  1  1  0  0  0
 20 24  1  0  0  0  0
 21 25  1  0  0  0  0
 21 20  1  0  0  0  0
 22 25  2  0  0  0  0
 23 19  1  6  0  0  0
 23 24  1  0  0  0  0
 25 23  1  0  0  0  0
 26 27  1  0  0  0  0
 28 27  1  0  0  0  0
 29 28  2  0  0  0  0
 30 28  1  0  0  0  0
 31 32  1  0  0  0  0
 32 30  1  0  0  0  0
M  END
>  <MODEL>
8

>  <REMARK>
 VINA RESULT:      -8.2      2.525      6.546
  Name = 
  8 active torsions:
  status: ('A' for Active; 'I' for Inactive)
    1  A    between atoms: C_1  and  C_20
    2  A    between atoms: C_5  and  C_10
    3  A    between atoms: C_5  and  O_12
    4  A    between atoms: C_10  and  C_20
    5  A    between atoms: C_11  and  O_12
    6  A    between atoms: C_16  and  N_30
    7  A    between atoms: C_17  and  N_30
    8  A    between atoms: C_18  and  C_24
                            x       y       z     vdW  Elec       q    Type
                         _______ _______ _______ _____ _____    ______ ____

>  <TORSDO>
F 8

$$$$
=
 OpenBabel10222416323D

 32 35  0  0  1  0  0  0  0  0999 V2000
  185.2320  178.4020  144.3660 C   0  0  0  0  0  3  0  0  0  0  0  0
  184.5360  178.9900  146.5900 O   0  0  0  0  0  1  0  0  0  0  0  0
  190.5110  176.8140  147.6560 N   0  0  0  0  0  2  0  0  0  0  0  0
  188.2970  177.7440  148.0520 C   0  0  0  0  0  3  0  0  0  0  0  0
  187.7420  177.5870  145.3270 C   0  0  0  0  0  0  0  0  0  0  0  0
  186.7600  178.0900  146.2150 C   0  0  0  0  0  0  0  0  0  0  0  0
  187.4560  177.5140  143.9410 C   0  0  0  0  0  0  0  0  0  0  0  0
  191.5510  176.1890  146.8930 C   0  0  0  0  0  0  0  0  0  0  0  0
  188.9420  177.1750  145.8270 N   0  0  0  0  0  0  0  0  0  0  0  0
  185.5100  178.4960  145.7290 C   0  0  0  0  0  0  0  0  0  0  0  0
  191.3900  175.9280  145.6710 O   0  0  0  0  0  0  0  0  0  0  0  0
  187.0550  178.1660  147.5800 C   0  0  0  0  0  3  0  0  0  0  0  0
  186.1960  177.9150  143.4830 C   0  0  0  0  0  3  0  0  0  0  0  0
  189.2390  177.2400  147.1560 C   0  0  0  0  0  0  0  0  0  0  0  0
  193.0900  177.5450  149.4740 O   0  0  0  0  0  0  0  0  0  0  0  0
  192.8570  175.8730  147.5500 C   0  0  2  0  0  3  0  0  0  0  0  0
  192.6610  175.0490  148.6280 O   0  0  0  0  0  0  0  0  0  0  0  0
  192.9310  176.5150  148.7700 C   0  0  0  0  0  0  0  0  0  0  0  0
  188.3900  177.0360  142.9600 N   0  0  0  0  0  2  0  0  0  0  0  0
  189.3310  177.3120  139.6440 C   0  0  1  0  0  3  0  0  0  0  0  0
  190.5240  176.8430  140.3240 N   0  0  0  0  0  2  0  0  0  0  0  0
  191.3270  176.8760  142.5220 O   0  0  0  0  0  0  0  0  0  0  0  0
  189.1750  177.8610  142.0520 C   0  0  2  0  0  3  0  0  0  0  0  0
  188.4530  177.9830  140.7090 C   0  0  0  0  0  2  0  0  0  0  0  0
  190.4220  177.1600  141.6940 C   0  0  0  0  0  0  0  0  0  0  0  0
  189.7030  178.3330  138.5840 C   0  0  0  0  0  2  0  0  0  0  0  0
  189.3220  177.8220  137.2060 C   0  0  0  0  0  2  0  0  0  0  0  0
  187.8870  178.1100  136.9430 C   0  0  0  0  0  0  0  0  0  0  0  0
  187.4700  179.3000  137.0000 O   0  0  0  0  0  0  0  0  0  0  0  0
  187.0140  177.0590  136.6640 O   0  0  0  0  0  0  0  0  0  0  0  0
  184.6860  177.0660  136.1020 C   0  0  0  0  0  1  0  0  0  0  0  0
  185.7080  177.0020  137.2170 C   0  0  0  0  0  2  0  0  0  0  0  0
  1 10  1  0  0  0  0
  5  9  1  0  0  0  0
  5  6  1  0  0  0  0
  6 12  1  0  0  0  0
  7  5  2  0  0  0  0
  8  3  1  0  0  0  0
  9 14  2  0  0  0  0
 10  6  2  0  0  0  0
 10  2  1  0  0  0  0
 11  8  2  0  0  0  0
 12  4  2  0  0  0  0
 13  7  1  0  0  0  0
 13  1  2  0  0  0  0
 14  3  1  0  0  0  0
 14  4  1  0  0  0  0
 16  8  1  6  0  0  0
 16 17  1  0  0  0  0
 16 18  1  0  0  0  0
 17 18  1  0  0  0  0
 18 15  2  0  0  0  0
 19  7  1  0  0  0  0
 20 26  1  6  0  0  0
 20 21  1  0  0  0  0
 20 24  1  0  0  0  0
 21 25  1  0  0  0  0
 23 19  1  1  0  0  0
 24 23  1  0  0  0  0
 25 23  1  0  0  0  0
 25 22  2  0  0  0  0
 27 26  1  0  0  0  0
 28 29  2  0  0  0  0
 28 27  1  0  0  0  0
 30 28  1  0  0  0  0
 30 32  1  0  0  0  0
 31 32  1  0  0  0  0
M  END
>  <MODEL>
9

>  <REMARK>
 VINA RESULT:      -8.2      2.344      5.497
  Name = 
  8 active torsions:
  status: ('A' for Active; 'I' for Inactive)
    1  A    between atoms: C_1  and  C_20
    2  A    between atoms: C_5  and  C_10
    3  A    between atoms: C_5  and  O_12
    4  A    between atoms: C_10  and  C_20
    5  A    between atoms: C_11  and  O_12
    6  A    between atoms: C_16  and  N_30
    7  A    between atoms: C_17  and  N_30
    8  A    between atoms: C_18  and  C_24
                            x       y       z     vdW  Elec       q    Type
                         _______ _______ _______ _____ _____    ______ ____

>  <TORSDO>
F 8

$$$$
