=
 OpenBabel10222420203D

 27 29  0  0  1  0  0  0  0  0999 V2000
  187.5820  177.7040  144.1010 C   0  0  1  0  0  3  0  0  0  0  0  0
  189.9800  177.4080  147.7310 C   0  0  0  0  0  2  0  0  0  0  0  0
  189.8950  177.4900  145.1150 C   0  0  1  0  0  3  0  0  0  0  0  0
  188.4210  177.8570  145.3760 C   0  0  2  0  0  3  0  0  0  0  0  0
  190.5560  178.5860  144.2940 C   0  0  0  0  0  1  0  0  0  0  0  0
  187.8450  177.0830  146.5410 C   0  0  0  0  0  3  0  0  0  0  0  0
  190.6640  177.2700  146.3990 C   0  0  0  0  0  0  0  0  0  0  0  0
  188.5770  176.8780  147.6420 C   0  0  0  0  0  3  0  0  0  0  0  0
  191.8470  176.9690  146.3600 O   0  0  0  0  0  0  0  0  0  0  0  0
  188.1000  176.6710  143.2050 N   0  0  0  0  0  2  0  0  0  0  0  0
  188.4390  177.2980  141.9960 N   0  0  0  0  0  2  0  0  0  0  0  0
  189.6070  176.9270  141.2570 C   0  0  0  0  0  0  0  0  0  0  0  0
  190.4050  176.0690  141.7210 O   0  0  0  0  0  0  0  0  0  0  0  0
  188.9460  178.7430  137.9860 C   0  0  0  0  0  2  0  0  0  0  0  0
  188.6210  178.0660  139.3000 C   0  0  2  0  0  3  0  0  0  0  0  0
  189.9050  177.5910  139.9540 C   0  0  2  0  0  3  0  0  0  0  0  0
  189.2910  176.8000  138.8130 C   0  0  2  0  0  3  0  0  0  0  0  0
  189.6150  177.4760  137.4980 C   0  0  0  0  0  2  0  0  0  0  0  0
  186.2060  177.5380  144.3670 O   0  0  0  0  0  0  0  0  0  0  0  0
  185.6700  178.7440  144.4430 O   0  0  0  0  0  0  0  0  0  0  0  0
  184.2940  178.5340  144.3100 C   0  0  1  0  0  3  0  0  0  0  0  0
  183.6190  179.1060  145.3880 O   0  0  0  0  0  1  0  0  0  0  0  0
  183.7890  179.1050  142.9870 C   0  0  0  0  0  2  0  0  0  0  0  0
  184.2090  178.2680  141.7820 C   0  0  0  0  0  2  0  0  0  0  0  0
  185.0610  178.9310  139.4980 N   0  0  0  0  0  1  0  0  0  0  0  0
  186.0610  179.7270  141.4370 O   0  0  0  0  0  0  0  0  0  0  0  0
  185.1650  179.0160  140.9160 C   0  0  0  0  0  0  0  0  0  0  0  0
  1 10  1  1  0  0  0
  1 19  1  0  0  0  0
  3  5  1  1  0  0  0
  3  4  1  0  0  0  0
  3  7  1  0  0  0  0
  4  1  1  6  0  0  0
  4  6  1  0  0  0  0
  6  8  2  0  0  0  0
  7  2  1  0  0  0  0
  8  2  1  0  0  0  0
  9  7  2  0  0  0  0
 11 10  1  0  0  0  0
 12 13  2  0  0  0  0
 12 11  1  0  0  0  0
 15 14  1  6  0  0  0
 15 16  1  0  0  0  0
 16 12  1  1  0  0  0
 17 18  1  6  0  0  0
 17 15  1  0  0  0  0
 17 16  1  0  0  0  0
 18 14  1  0  0  0  0
 19 20  1  0  0  0  0
 21 20  1  0  0  0  0
 21 22  1  1  0  0  0
 23 21  1  0  0  0  0
 24 23  1  0  0  0  0
 25 27  1  0  0  0  0
 27 26  2  0  0  0  0
 27 24  1  0  0  0  0
M  END
>  <MODEL>
1

>  <REMARK>
 VINA RESULT:      -7.9      0.000      0.000
  Name = 
  10 active torsions:
  status: ('A' for Active; 'I' for Inactive)
    1  A    between atoms: C_2  and  O_11
    2  A    between atoms: C_2  and  C_14
    3  A    between atoms: C_4  and  C_14
    4  A    between atoms: C_4  and  C_18
    5  A    between atoms: C_5  and  C_23
    6  A    between atoms: O_11  and  O_24
    7  A    between atoms: N_17  and  N_21
    8  A    between atoms: C_19  and  C_25
    9  A    between atoms: N_21  and  C_23
   10  A    between atoms: C_23  and  O_24
                            x       y       z     vdW  Elec       q    Type
                         _______ _______ _______ _____ _____    ______ ____

>  <TORSDO>
F 10

$$$$
=
 OpenBabel10222420203D

 27 29  0  0  1  0  0  0  0  0999 V2000
  188.8030  177.1250  141.5020 C   0  0  1  0  0  3  0  0  0  0  0  0
  192.6010  177.3790  139.3750 C   0  0  0  0  0  2  0  0  0  0  0  0
  190.1310  176.5110  139.4320 C   0  0  1  0  0  3  0  0  0  0  0  0
  190.0490  177.4370  140.6620 C   0  0  2  0  0  3  0  0  0  0  0  0
  189.0810  176.9220  138.4130 C   0  0  0  0  0  1  0  0  0  0  0  0
  191.3190  177.4020  141.4810 C   0  0  0  0  0  3  0  0  0  0  0  0
  191.5040  176.5300  138.7960 C   0  0  0  0  0  0  0  0  0  0  0  0
  192.5110  177.3780  140.8740 C   0  0  0  0  0  3  0  0  0  0  0  0
  191.7320  175.8450  137.8110 O   0  0  0  0  0  0  0  0  0  0  0  0
  189.1040  176.3010  142.6730 N   0  0  0  0  0  2  0  0  0  0  0  0
  188.6900  177.0170  143.8060 N   0  0  0  0  0  2  0  0  0  0  0  0
  189.5540  177.2140  144.9290 C   0  0  0  0  0  0  0  0  0  0  0  0
  190.6960  176.6790  144.9530 O   0  0  0  0  0  0  0  0  0  0  0  0
  188.7300  178.0430  148.5450 C   0  0  0  0  0  2  0  0  0  0  0  0
  189.2000  177.2080  147.3740 C   0  0  2  0  0  3  0  0  0  0  0  0
  189.0860  178.0190  146.0960 C   0  0  2  0  0  3  0  0  0  0  0  0
  187.8530  177.3800  146.7080 C   0  0  2  0  0  3  0  0  0  0  0  0
  187.3800  178.2140  147.8800 C   0  0  0  0  0  2  0  0  0  0  0  0
  188.0650  178.2800  141.8370 O   0  0  0  0  0  0  0  0  0  0  0  0
  187.1050  178.4090  140.9380 O   0  0  0  0  0  0  0  0  0  0  0  0
  186.0780  179.0850  141.6050 C   0  0  1  0  0  3  0  0  0  0  0  0
  185.1920  179.6360  140.6800 O   0  0  0  0  0  1  0  0  0  0  0  0
  185.3500  178.1450  142.5620 C   0  0  0  0  0  2  0  0  0  0  0  0
  185.4920  178.5610  144.0240 C   0  0  0  0  0  2  0  0  0  0  0  0
  183.9680  178.8970  146.0100 N   0  0  0  0  0  1  0  0  0  0  0  0
  183.2440  179.3320  143.8460 O   0  0  0  0  0  0  0  0  0  0  0  0
  184.1740  178.9510  144.6020 C   0  0  0  0  0  0  0  0  0  0  0  0
  1 19  1  1  0  0  0
  1 10  1  0  0  0  0
  2  8  1  0  0  0  0
  3  5  1  6  0  0  0
  3  4  1  0  0  0  0
  4  6  1  0  0  0  0
  4  1  1  1  0  0  0
  7  2  1  0  0  0  0
  7  3  1  0  0  0  0
  8  6  2  0  0  0  0
  9  7  2  0  0  0  0
 10 11  1  0  0  0  0
 11 12  1  0  0  0  0
 12 13  2  0  0  0  0
 15 14  1  1  0  0  0
 16 12  1  6  0  0  0
 16 17  1  0  0  0  0
 16 15  1  0  0  0  0
 17 15  1  0  0  0  0
 17 18  1  1  0  0  0
 18 14  1  0  0  0  0
 20 21  1  0  0  0  0
 20 19  1  0  0  0  0
 21 22  1  6  0  0  0
 21 23  1  0  0  0  0
 23 24  1  0  0  0  0
 24 27  1  0  0  0  0
 26 27  2  0  0  0  0
 27 25  1  0  0  0  0
M  END
>  <MODEL>
2

>  <REMARK>
 VINA RESULT:      -7.6      1.967      6.034
  Name = 
  10 active torsions:
  status: ('A' for Active; 'I' for Inactive)
    1  A    between atoms: C_2  and  O_11
    2  A    between atoms: C_2  and  C_14
    3  A    between atoms: C_4  and  C_14
    4  A    between atoms: C_4  and  C_18
    5  A    between atoms: C_5  and  C_23
    6  A    between atoms: O_11  and  O_24
    7  A    between atoms: N_17  and  N_21
    8  A    between atoms: C_19  and  C_25
    9  A    between atoms: N_21  and  C_23
   10  A    between atoms: C_23  and  O_24
                            x       y       z     vdW  Elec       q    Type
                         _______ _______ _______ _____ _____    ______ ____

>  <TORSDO>
F 10

$$$$
=
 OpenBabel10222420203D

 27 29  0  0  1  0  0  0  0  0999 V2000
  188.9660  177.4800  141.7910 C   0  0  1  0  0  3  0  0  0  0  0  0
  191.7530  176.3970  138.6170 C   0  0  0  0  0  2  0  0  0  0  0  0
  191.3640  177.4800  140.9690 C   0  0  1  0  0  3  0  0  0  0  0  0
  189.9590  176.8710  140.7920 C   0  0  2  0  0  3  0  0  0  0  0  0
  191.9950  176.9480  142.2450 C   0  0  0  0  0  1  0  0  0  0  0  0
  189.4750  176.9740  139.3640 C   0  0  0  0  0  3  0  0  0  0  0  0
  192.2640  177.1900  139.7870 C   0  0  0  0  0  0  0  0  0  0  0  0
  190.3170  176.7480  138.3490 C   0  0  0  0  0  3  0  0  0  0  0  0
  193.4110  177.6090  139.7740 O   0  0  0  0  0  0  0  0  0  0  0  0
  187.9590  178.3200  141.1440 N   0  0  0  0  0  2  0  0  0  0  0  0
  187.0300  178.6930  142.1270 N   0  0  0  0  0  2  0  0  0  0  0  0
  185.7430  179.2170  141.7860 C   0  0  0  0  0  0  0  0  0  0  0  0
  185.4420  179.4270  140.5800 O   0  0  0  0  0  0  0  0  0  0  0  0
  183.8710  178.9200  145.0800 C   0  0  0  0  0  2  0  0  0  0  0  0
  184.8580  178.5500  143.9940 C   0  0  2  0  0  3  0  0  0  0  0  0
  184.7700  179.5610  142.8650 C   0  0  2  0  0  3  0  0  0  0  0  0
  183.7270  178.4660  142.9940 C   0  0  2  0  0  3  0  0  0  0  0  0
  182.7380  178.8340  144.0800 C   0  0  0  0  0  2  0  0  0  0  0  0
  188.3890  176.5170  142.6460 O   0  0  0  0  0  0  0  0  0  0  0  0
  189.1810  176.3980  143.6970 O   0  0  0  0  0  0  0  0  0  0  0  0
  188.8340  177.4660  144.5300 C   0  0  1  0  0  3  0  0  0  0  0  0
  187.7930  177.0890  145.3780 O   0  0  0  0  0  1  0  0  0  0  0  0
  190.0450  177.9370  145.3320 C   0  0  0  0  0  2  0  0  0  0  0  0
  190.2180  177.1770  146.6450 C   0  0  0  0  0  2  0  0  0  0  0  0
  192.2610  176.3870  147.9030 N   0  0  0  0  0  1  0  0  0  0  0  0
  191.9840  175.9310  145.6420 O   0  0  0  0  0  0  0  0  0  0  0  0
  191.5270  176.4660  146.6850 C   0  0  0  0  0  0  0  0  0  0  0  0
  1 10  1  6  0  0  0
  1 19  1  0  0  0  0
  2  7  1  0  0  0  0
  3  5  1  1  0  0  0
  4  3  1  0  0  0  0
  4  1  1  1  0  0  0
  6  4  1  0  0  0  0
  7  3  1  0  0  0  0
  8  2  1  0  0  0  0
  8  6  2  0  0  0  0
  9  7  2  0  0  0  0
 10 11  1  0  0  0  0
 12 11  1  0  0  0  0
 13 12  2  0  0  0  0
 15 14  1  1  0  0  0
 16 12  1  6  0  0  0
 16 17  1  0  0  0  0
 16 15  1  0  0  0  0
 17 15  1  0  0  0  0
 17 18  1  1  0  0  0
 18 14  1  0  0  0  0
 19 20  1  0  0  0  0
 20 21  1  0  0  0  0
 21 23  1  0  0  0  0
 21 22  1  1  0  0  0
 23 24  1  0  0  0  0
 24 27  1  0  0  0  0
 26 27  2  0  0  0  0
 27 25  1  0  0  0  0
M  END
>  <MODEL>
3

>  <REMARK>
 VINA RESULT:      -7.6      2.038      6.668
  Name = 
  10 active torsions:
  status: ('A' for Active; 'I' for Inactive)
    1  A    between atoms: C_2  and  O_11
    2  A    between atoms: C_2  and  C_14
    3  A    between atoms: C_4  and  C_14
    4  A    between atoms: C_4  and  C_18
    5  A    between atoms: C_5  and  C_23
    6  A    between atoms: O_11  and  O_24
    7  A    between atoms: N_17  and  N_21
    8  A    between atoms: C_19  and  C_25
    9  A    between atoms: N_21  and  C_23
   10  A    between atoms: C_23  and  O_24
                            x       y       z     vdW  Elec       q    Type
                         _______ _______ _______ _____ _____    ______ ____

>  <TORSDO>
F 10

$$$$
=
 OpenBabel10222420203D

 27 29  0  0  1  0  0  0  0  0999 V2000
  189.1260  178.1200  142.2700 C   0  0  1  0  0  3  0  0  0  0  0  0
  189.5140  177.5380  146.5740 C   0  0  0  0  0  2  0  0  0  0  0  0
  190.6770  177.7270  144.2360 C   0  0  1  0  0  3  0  0  0  0  0  0
  189.2680  178.1720  143.7970 C   0  0  2  0  0  3  0  0  0  0  0  0
  191.6860  178.8110  143.8930 C   0  0  0  0  0  1  0  0  0  0  0  0
  188.1840  177.3900  144.5030 C   0  0  0  0  0  3  0  0  0  0  0  0
  190.7400  177.4110  145.7150 C   0  0  0  0  0  0  0  0  0  0  0  0
  188.3010  177.0980  145.8030 C   0  0  0  0  0  3  0  0  0  0  0  0
  191.7900  177.0400  146.2170 O   0  0  0  0  0  0  0  0  0  0  0  0
  188.9220  176.7620  141.7680 N   0  0  0  0  0  2  0  0  0  0  0  0
  190.0510  176.4220  141.0070 N   0  0  0  0  0  2  0  0  0  0  0  0
  190.1680  176.7900  139.6290 C   0  0  0  0  0  0  0  0  0  0  0  0
  189.2140  177.3710  139.0440 O   0  0  0  0  0  0  0  0  0  0  0  0
  192.4040  176.1440  136.6250 C   0  0  0  0  0  2  0  0  0  0  0  0
  191.1360  176.4880  137.3760 C   0  0  2  0  0  3  0  0  0  0  0  0
  191.4060  176.4450  138.8690 C   0  0  2  0  0  3  0  0  0  0  0  0
  191.1990  175.1570  138.0930 C   0  0  2  0  0  3  0  0  0  0  0  0
  192.4660  174.8110  137.3400 C   0  0  0  0  0  2  0  0  0  0  0  0
  188.1590  179.0220  141.7790 O   0  0  0  0  0  0  0  0  0  0  0  0
  187.1050  178.3120  141.4140 O   0  0  0  0  0  0  0  0  0  0  0  0
  186.0130  179.1620  141.6160 C   0  0  1  0  0  3  0  0  0  0  0  0
  185.3390  179.3640  140.4120 O   0  0  0  0  0  1  0  0  0  0  0  0
  185.0750  178.5870  142.6750 C   0  0  0  0  0  2  0  0  0  0  0  0
  184.7480  179.5870  143.7810 C   0  0  0  0  0  2  0  0  0  0  0  0
  184.2220  178.7980  146.1230 N   0  0  0  0  0  1  0  0  0  0  0  0
  182.6410  178.6790  144.4260 O   0  0  0  0  0  0  0  0  0  0  0  0
  183.8060  178.9970  144.7760 C   0  0  0  0  0  0  0  0  0  0  0  0
  1 10  1  1  0  0  0
  3  5  1  1  0  0  0
  3  7  1  0  0  0  0
  4  1  1  6  0  0  0
  4  3  1  0  0  0  0
  4  6  1  0  0  0  0
  6  8  2  0  0  0  0
  7  9  2  0  0  0  0
  7  2  1  0  0  0  0
  8  2  1  0  0  0  0
 11 10  1  0  0  0  0
 12 11  1  0  0  0  0
 13 12  2  0  0  0  0
 14 18  1  0  0  0  0
 15 14  1  6  0  0  0
 15 17  1  0  0  0  0
 15 16  1  0  0  0  0
 16 12  1  1  0  0  0
 17 18  1  6  0  0  0
 17 16  1  0  0  0  0
 19  1  1  0  0  0  0
 20 21  1  0  0  0  0
 20 19  1  0  0  0  0
 21 22  1  6  0  0  0
 21 23  1  0  0  0  0
 23 24  1  0  0  0  0
 24 27  1  0  0  0  0
 26 27  2  0  0  0  0
 27 25  1  0  0  0  0
M  END
>  <MODEL>
4

>  <REMARK>
 VINA RESULT:      -7.6      2.035      3.080
  Name = 
  10 active torsions:
  status: ('A' for Active; 'I' for Inactive)
    1  A    between atoms: C_2  and  O_11
    2  A    between atoms: C_2  and  C_14
    3  A    between atoms: C_4  and  C_14
    4  A    between atoms: C_4  and  C_18
    5  A    between atoms: C_5  and  C_23
    6  A    between atoms: O_11  and  O_24
    7  A    between atoms: N_17  and  N_21
    8  A    between atoms: C_19  and  C_25
    9  A    between atoms: N_21  and  C_23
   10  A    between atoms: C_23  and  O_24
                            x       y       z     vdW  Elec       q    Type
                         _______ _______ _______ _____ _____    ______ ____

>  <TORSDO>
F 10

$$$$
=
 OpenBabel10222420203D

 27 29  0  0  1  0  0  0  0  0999 V2000
  187.8060  177.2650  143.2590 C   0  0  1  0  0  3  0  0  0  0  0  0
  184.7340  178.5000  146.0970 C   0  0  0  0  0  2  0  0  0  0  0  0
  185.6300  178.5090  143.6370 C   0  0  1  0  0  3  0  0  0  0  0  0
  186.6170  177.4710  144.2070 C   0  0  2  0  0  3  0  0  0  0  0  0
  184.8670  177.9010  142.4710 C   0  0  0  0  0  1  0  0  0  0  0  0
  187.0540  177.8220  145.6110 C   0  0  0  0  0  3  0  0  0  0  0  0
  184.6590  179.0090  144.6850 C   0  0  0  0  0  0  0  0  0  0  0  0
  186.1690  178.3000  146.4930 C   0  0  0  0  0  3  0  0  0  0  0  0
  183.8140  179.8390  144.3900 O   0  0  0  0  0  0  0  0  0  0  0  0
  188.0020  178.3900  142.3460 N   0  0  0  0  0  2  0  0  0  0  0  0
  188.4090  177.8610  141.1120 N   0  0  0  0  0  2  0  0  0  0  0  0
  187.6850  178.1220  139.9050 C   0  0  0  0  0  0  0  0  0  0  0  0
  186.6110  178.7810  139.9400 O   0  0  0  0  0  0  0  0  0  0  0  0
  190.1770  176.9730  137.2760 C   0  0  0  0  0  2  0  0  0  0  0  0
  189.6970  177.5390  138.5950 C   0  0  2  0  0  3  0  0  0  0  0  0
  188.1800  177.5740  138.6070 C   0  0  2  0  0  3  0  0  0  0  0  0
  188.9610  178.6360  137.8570 C   0  0  2  0  0  3  0  0  0  0  0  0
  189.4430  178.0710  136.5370 C   0  0  0  0  0  2  0  0  0  0  0  0
  188.9920  176.9140  143.9380 O   0  0  0  0  0  0  0  0  0  0  0  0
  189.5850  175.9660  143.2330 O   0  0  0  0  0  0  0  0  0  0  0  0
  190.9530  176.2260  143.3620 C   0  0  1  0  0  3  0  0  0  0  0  0
  191.4160  176.9050  142.2360 O   0  0  0  0  0  1  0  0  0  0  0  0
  191.2290  177.0270  144.6320 C   0  0  0  0  0  2  0  0  0  0  0  0
  191.7920  176.1690  145.7630 C   0  0  0  0  0  2  0  0  0  0  0  0
  192.1640  176.8850  148.1560 N   0  0  0  0  0  1  0  0  0  0  0  0
  190.0280  176.7500  147.2560 O   0  0  0  0  0  0  0  0  0  0  0  0
  191.2660  176.6120  147.0860 C   0  0  0  0  0  0  0  0  0  0  0  0
  1 10  1  1  0  0  0
  1 19  1  0  0  0  0
  2  8  1  0  0  0  0
  3  5  1  6  0  0  0
  3  4  1  0  0  0  0
  3  7  1  0  0  0  0
  4  1  1  6  0  0  0
  4  6  1  0  0  0  0
  6  8  2  0  0  0  0
  7  2  1  0  0  0  0
  9  7  2  0  0  0  0
 11 10  1  0  0  0  0
 12 13  2  0  0  0  0
 12 11  1  0  0  0  0
 15 14  1  6  0  0  0
 15 16  1  0  0  0  0
 16 12  1  1  0  0  0
 17 18  1  6  0  0  0
 17 15  1  0  0  0  0
 17 16  1  0  0  0  0
 18 14  1  0  0  0  0
 20 21  1  0  0  0  0
 20 19  1  0  0  0  0
 21 22  1  6  0  0  0
 21 23  1  0  0  0  0
 23 24  1  0  0  0  0
 24 27  1  0  0  0  0
 27 26  2  0  0  0  0
 27 25  1  0  0  0  0
M  END
>  <MODEL>
5

>  <REMARK>
 VINA RESULT:      -7.5      1.903      5.601
  Name = 
  10 active torsions:
  status: ('A' for Active; 'I' for Inactive)
    1  A    between atoms: C_2  and  O_11
    2  A    between atoms: C_2  and  C_14
    3  A    between atoms: C_4  and  C_14
    4  A    between atoms: C_4  and  C_18
    5  A    between atoms: C_5  and  C_23
    6  A    between atoms: O_11  and  O_24
    7  A    between atoms: N_17  and  N_21
    8  A    between atoms: C_19  and  C_25
    9  A    between atoms: N_21  and  C_23
   10  A    between atoms: C_23  and  O_24
                            x       y       z     vdW  Elec       q    Type
                         _______ _______ _______ _____ _____    ______ ____

>  <TORSDO>
F 10

$$$$
=
 OpenBabel10222420203D

 27 29  0  0  1  0  0  0  0  0999 V2000
  189.0810  178.1700  140.9650 C   0  0  1  0  0  3  0  0  0  0  0  0
  190.9710  175.6130  137.9810 C   0  0  0  0  0  2  0  0  0  0  0  0
  191.2200  177.4970  139.7820 C   0  0  1  0  0  3  0  0  0  0  0  0
  189.7660  177.0990  140.1060 C   0  0  2  0  0  3  0  0  0  0  0  0
  192.0790  177.3490  141.0280 C   0  0  0  0  0  1  0  0  0  0  0  0
  188.9790  176.7740  138.8570 C   0  0  0  0  0  3  0  0  0  0  0  0
  191.7990  176.6720  138.6540 C   0  0  0  0  0  0  0  0  0  0  0  0
  189.5460  176.0750  137.8660 C   0  0  0  0  0  3  0  0  0  0  0  0
  192.9430  176.8690  138.2760 O   0  0  0  0  0  0  0  0  0  0  0  0
  187.6830  178.3830  140.5940 N   0  0  0  0  0  2  0  0  0  0  0  0
  186.9930  178.7560  141.7570 N   0  0  0  0  0  2  0  0  0  0  0  0
  185.6710  179.3010  141.7050 C   0  0  0  0  0  0  0  0  0  0  0  0
  185.1210  179.5290  140.5930 O   0  0  0  0  0  0  0  0  0  0  0  0
  184.4640  178.9380  145.2900 C   0  0  0  0  0  2  0  0  0  0  0  0
  185.1880  178.5670  144.0130 C   0  0  2  0  0  3  0  0  0  0  0  0
  184.9570  179.6450  142.9710 C   0  0  2  0  0  3  0  0  0  0  0  0
  183.8790  178.6170  143.2570 C   0  0  2  0  0  3  0  0  0  0  0  0
  183.1540  178.9860  144.5340 C   0  0  0  0  0  2  0  0  0  0  0  0
  189.2380  177.9440  142.3490 O   0  0  0  0  0  0  0  0  0  0  0  0
  189.0670  176.6510  142.5610 O   0  0  0  0  0  0  0  0  0  0  0  0
  189.4370  176.4550  143.8950 C   0  0  1  0  0  3  0  0  0  0  0  0
  190.7790  176.0820  143.9660 O   0  0  0  0  0  1  0  0  0  0  0  0
  189.1780  177.7160  144.7150 C   0  0  0  0  0  2  0  0  0  0  0  0
  188.3280  177.4520  145.9550 C   0  0  0  0  0  2  0  0  0  0  0  0
  190.3610  176.7770  147.2920 N   0  0  0  0  0  1  0  0  0  0  0  0
  188.7790  178.2400  148.1580 O   0  0  0  0  0  0  0  0  0  0  0  0
  189.1510  177.5210  147.1960 C   0  0  0  0  0  0  0  0  0  0  0  0
  1 10  1  1  0  0  0
  1 19  1  0  0  0  0
  2  7  1  0  0  0  0
  3  4  1  0  0  0  0
  3  5  1  1  0  0  0
  4  1  1  6  0  0  0
  6  4  1  0  0  0  0
  7  3  1  0  0  0  0
  8  2  1  0  0  0  0
  8  6  2  0  0  0  0
  9  7  2  0  0  0  0
 10 11  1  0  0  0  0
 12 11  1  0  0  0  0
 13 12  2  0  0  0  0
 15 14  1  1  0  0  0
 16 12  1  6  0  0  0
 16 17  1  0  0  0  0
 16 15  1  0  0  0  0
 17 15  1  0  0  0  0
 17 18  1  1  0  0  0
 18 14  1  0  0  0  0
 19 20  1  0  0  0  0
 20 21  1  0  0  0  0
 21 22  1  6  0  0  0
 21 23  1  0  0  0  0
 23 24  1  0  0  0  0
 24 27  1  0  0  0  0
 27 25  1  0  0  0  0
 27 26  2  0  0  0  0
M  END
>  <MODEL>
6

>  <REMARK>
 VINA RESULT:      -7.3      2.046      6.781
  Name = 
  10 active torsions:
  status: ('A' for Active; 'I' for Inactive)
    1  A    between atoms: C_2  and  O_11
    2  A    between atoms: C_2  and  C_14
    3  A    between atoms: C_4  and  C_14
    4  A    between atoms: C_4  and  C_18
    5  A    between atoms: C_5  and  C_23
    6  A    between atoms: O_11  and  O_24
    7  A    between atoms: N_17  and  N_21
    8  A    between atoms: C_19  and  C_25
    9  A    between atoms: N_21  and  C_23
   10  A    between atoms: C_23  and  O_24
                            x       y       z     vdW  Elec       q    Type
                         _______ _______ _______ _____ _____    ______ ____

>  <TORSDO>
F 10

$$$$
=
 OpenBabel10222420203D

 27 29  0  0  1  0  0  0  0  0999 V2000
  184.3600  179.1700  142.6770 C   0  0  1  0  0  3  0  0  0  0  0  0
  180.1140  178.3070  142.1850 C   0  0  0  0  0  2  0  0  0  0  0  0
  182.3800  179.0430  141.0990 C   0  0  1  0  0  3  0  0  0  0  0  0
  182.9410  178.6220  142.4720 C   0  0  2  0  0  3  0  0  0  0  0  0
  183.0720  178.2520  140.0010 C   0  0  0  0  0  1  0  0  0  0  0  0
  182.0100  179.0000  143.6010 C   0  0  0  0  0  3  0  0  0  0  0  0
  180.8820  178.8470  141.0120 C   0  0  0  0  0  0  0  0  0  0  0  0
  180.6880  178.8480  143.4640 C   0  0  0  0  0  3  0  0  0  0  0  0
  180.2860  179.1370  139.9860 O   0  0  0  0  0  0  0  0  0  0  0  0
  184.6330  179.5230  144.0690 N   0  0  0  0  0  2  0  0  0  0  0  0
  185.5670  178.5980  144.5610 N   0  0  0  0  0  2  0  0  0  0  0  0
  185.9510  178.5760  145.9390 C   0  0  0  0  0  0  0  0  0  0  0  0
  185.5080  179.4470  146.7350 O   0  0  0  0  0  0  0  0  0  0  0  0
  188.7180  177.0450  148.0460 C   0  0  0  0  0  2  0  0  0  0  0  0
  187.7540  178.1060  147.5610 C   0  0  2  0  0  3  0  0  0  0  0  0
  186.9170  177.5460  146.4260 C   0  0  2  0  0  3  0  0  0  0  0  0
  188.3410  178.0050  146.1710 C   0  0  2  0  0  3  0  0  0  0  0  0
  189.3080  176.9460  146.6550 C   0  0  0  0  0  2  0  0  0  0  0  0
  185.3550  178.3290  142.1330 O   0  0  0  0  0  0  0  0  0  0  0  0
  186.1690  179.0900  141.4230 O   0  0  0  0  0  0  0  0  0  0  0  0
  187.2490  178.2590  141.1050 C   0  0  1  0  0  3  0  0  0  0  0  0
  187.8660  178.7080  139.9380 O   0  0  0  0  0  1  0  0  0  0  0  0
  188.2440  178.2070  142.2620 C   0  0  0  0  0  2  0  0  0  0  0  0
  188.5020  176.7870  142.7580 C   0  0  0  0  0  2  0  0  0  0  0  0
  190.6960  177.1350  141.5560 N   0  0  0  0  0  1  0  0  0  0  0  0
  190.3180  175.2480  142.8550 O   0  0  0  0  0  0  0  0  0  0  0  0
  189.8780  176.3350  142.4030 C   0  0  0  0  0  0  0  0  0  0  0  0
  1 19  1  1  0  0  0
  1 10  1  0  0  0  0
  2  8  1  0  0  0  0
  3  5  1  6  0  0  0
  3  4  1  0  0  0  0
  4  1  1  1  0  0  0
  4  6  1  0  0  0  0
  7  3  1  0  0  0  0
  7  2  1  0  0  0  0
  8  6  2  0  0  0  0
  9  7  2  0  0  0  0
 10 11  1  0  0  0  0
 11 12  1  0  0  0  0
 12 13  2  0  0  0  0
 15 14  1  1  0  0  0
 16 12  1  6  0  0  0
 16 15  1  0  0  0  0
 17 16  1  0  0  0  0
 17 18  1  1  0  0  0
 17 15  1  0  0  0  0
 18 14  1  0  0  0  0
 20 19  1  0  0  0  0
 21 22  1  6  0  0  0
 21 20  1  0  0  0  0
 21 23  1  0  0  0  0
 23 24  1  0  0  0  0
 25 27  1  0  0  0  0
 27 24  1  0  0  0  0
 27 26  2  0  0  0  0
M  END
>  <MODEL>
7

>  <REMARK>
 VINA RESULT:      -7.2      2.490      7.467
  Name = 
  10 active torsions:
  status: ('A' for Active; 'I' for Inactive)
    1  A    between atoms: C_2  and  O_11
    2  A    between atoms: C_2  and  C_14
    3  A    between atoms: C_4  and  C_14
    4  A    between atoms: C_4  and  C_18
    5  A    between atoms: C_5  and  C_23
    6  A    between atoms: O_11  and  O_24
    7  A    between atoms: N_17  and  N_21
    8  A    between atoms: C_19  and  C_25
    9  A    between atoms: N_21  and  C_23
   10  A    between atoms: C_23  and  O_24
                            x       y       z     vdW  Elec       q    Type
                         _______ _______ _______ _____ _____    ______ ____

>  <TORSDO>
F 10

$$$$
=
 OpenBabel10222420203D

 27 29  0  0  1  0  0  0  0  0999 V2000
  188.9990  177.7960  140.4200 C   0  0  1  0  0  3  0  0  0  0  0  0
  188.1610  176.6870  136.2870 C   0  0  0  0  0  2  0  0  0  0  0  0
  189.9340  177.0920  138.1720 C   0  0  1  0  0  3  0  0  0  0  0  0
  188.6750  177.1680  139.0580 C   0  0  2  0  0  3  0  0  0  0  0  0
  190.8600  176.0040  138.6910 C   0  0  0  0  0  1  0  0  0  0  0  0
  187.5330  177.8690  138.3580 C   0  0  0  0  0  3  0  0  0  0  0  0
  189.5930  176.8320  136.7200 C   0  0  0  0  0  0  0  0  0  0  0  0
  187.2940  177.6380  137.0620 C   0  0  0  0  0  3  0  0  0  0  0  0
  190.4840  176.7470  135.8890 O   0  0  0  0  0  0  0  0  0  0  0  0
  188.1250  178.9220  140.7450 N   0  0  0  0  0  2  0  0  0  0  0  0
  187.3420  178.5410  141.8450 N   0  0  0  0  0  2  0  0  0  0  0  0
  185.9300  178.7680  141.8790 C   0  0  0  0  0  0  0  0  0  0  0  0
  185.3640  179.3880  140.9380 O   0  0  0  0  0  0  0  0  0  0  0  0
  183.4180  178.9340  144.7250 C   0  0  0  0  0  2  0  0  0  0  0  0
  184.2250  179.4230  143.5420 C   0  0  2  0  0  3  0  0  0  0  0  0
  185.1300  178.3070  143.0520 C   0  0  2  0  0  3  0  0  0  0  0  0
  185.5050  179.1090  144.2850 C   0  0  2  0  0  3  0  0  0  0  0  0
  184.6980  178.6220  145.4700 C   0  0  0  0  0  2  0  0  0  0  0  0
  189.0570  176.8460  141.4620 O   0  0  0  0  0  0  0  0  0  0  0  0
  190.2970  176.8340  141.9190 O   0  0  0  0  0  0  0  0  0  0  0  0
  190.1890  176.3730  143.2350 C   0  0  1  0  0  3  0  0  0  0  0  0
  191.4040  175.8250  143.6470 O   0  0  0  0  0  1  0  0  0  0  0  0
  189.7600  177.5040  144.1660 C   0  0  0  0  0  2  0  0  0  0  0  0
  188.5610  177.1330  145.0350 C   0  0  0  0  0  2  0  0  0  0  0  0
  190.1620  176.7550  146.9520 N   0  0  0  0  0  1  0  0  0  0  0  0
  188.0730  177.7110  147.2950 O   0  0  0  0  0  0  0  0  0  0  0  0
  188.9000  177.2210  146.4840 C   0  0  0  0  0  0  0  0  0  0  0  0
  1 10  1  1  0  0  0
  1 19  1  0  0  0  0
  2  7  1  0  0  0  0
  2  8  1  0  0  0  0
  3  5  1  1  0  0  0
  3  4  1  0  0  0  0
  4  1  1  1  0  0  0
  6  4  1  0  0  0  0
  7  3  1  0  0  0  0
  8  6  2  0  0  0  0
  9  7  2  0  0  0  0
 10 11  1  0  0  0  0
 11 12  1  0  0  0  0
 13 12  2  0  0  0  0
 14 18  1  0  0  0  0
 15 17  1  0  0  0  0
 15 14  1  1  0  0  0
 16 12  1  6  0  0  0
 16 15  1  0  0  0  0
 16 17  1  0  0  0  0
 17 18  1  1  0  0  0
 19 20  1  0  0  0  0
 20 21  1  0  0  0  0
 21 22  1  1  0  0  0
 21 23  1  0  0  0  0
 23 24  1  0  0  0  0
 24 27  1  0  0  0  0
 27 25  1  0  0  0  0
 27 26  2  0  0  0  0
M  END
>  <MODEL>
8

>  <REMARK>
 VINA RESULT:      -7.2      2.059      7.281
  Name = 
  10 active torsions:
  status: ('A' for Active; 'I' for Inactive)
    1  A    between atoms: C_2  and  O_11
    2  A    between atoms: C_2  and  C_14
    3  A    between atoms: C_4  and  C_14
    4  A    between atoms: C_4  and  C_18
    5  A    between atoms: C_5  and  C_23
    6  A    between atoms: O_11  and  O_24
    7  A    between atoms: N_17  and  N_21
    8  A    between atoms: C_19  and  C_25
    9  A    between atoms: N_21  and  C_23
   10  A    between atoms: C_23  and  O_24
                            x       y       z     vdW  Elec       q    Type
                         _______ _______ _______ _____ _____    ______ ____

>  <TORSDO>
F 10

$$$$
=
 OpenBabel10222420203D

 27 29  0  0  1  0  0  0  0  0999 V2000
  186.4190  177.6380  143.4610 C   0  0  1  0  0  3  0  0  0  0  0  0
  187.1840  178.0950  147.7290 C   0  0  0  0  0  2  0  0  0  0  0  0
  185.7940  178.7990  145.6250 C   0  0  1  0  0  3  0  0  0  0  0  0
  186.5270  177.6010  144.9910 C   0  0  2  0  0  3  0  0  0  0  0  0
  184.2910  178.5970  145.5140 C   0  0  0  0  0  1  0  0  0  0  0  0
  187.9580  177.5000  145.4660 C   0  0  0  0  0  3  0  0  0  0  0  0
  186.1820  179.0040  147.0740 C   0  0  0  0  0  0  0  0  0  0  0  0
  188.2610  177.7290  146.7480 C   0  0  0  0  0  3  0  0  0  0  0  0
  185.6890  179.9170  147.7160 O   0  0  0  0  0  0  0  0  0  0  0  0
  186.2470  178.9930  142.9400 N   0  0  0  0  0  2  0  0  0  0  0  0
  185.0200  179.0270  142.2600 N   0  0  0  0  0  2  0  0  0  0  0  0
  184.9500  178.9890  140.8310 C   0  0  0  0  0  0  0  0  0  0  0  0
  186.0070  178.9970  140.1430 O   0  0  0  0  0  0  0  0  0  0  0  0
  181.1910  178.6060  140.4250 C   0  0  0  0  0  2  0  0  0  0  0  0
  182.5300  178.5950  141.1310 C   0  0  2  0  0  3  0  0  0  0  0  0
  183.6210  178.9850  140.1510 C   0  0  2  0  0  3  0  0  0  0  0  0
  183.0470  177.5800  140.1360 C   0  0  2  0  0  3  0  0  0  0  0  0
  181.7080  177.5880  139.4300 C   0  0  0  0  0  2  0  0  0  0  0  0
  187.4720  176.9490  142.8210 O   0  0  0  0  0  0  0  0  0  0  0  0
  188.2520  177.8550  142.2580 O   0  0  0  0  0  0  0  0  0  0  0  0
  189.2810  177.1200  141.6600 C   0  0  1  0  0  3  0  0  0  0  0  0
  189.2640  177.3140  140.2790 O   0  0  0  0  0  1  0  0  0  0  0  0
  190.6330  177.5140  142.2480 C   0  0  0  0  0  2  0  0  0  0  0  0
  190.9950  176.7090  143.4940 C   0  0  0  0  0  2  0  0  0  0  0  0
  191.6870  177.0960  145.8920 N   0  0  0  0  0  1  0  0  0  0  0  0
  191.8650  178.7760  144.2980 O   0  0  0  0  0  0  0  0  0  0  0  0
  191.5370  177.5920  144.5660 C   0  0  0  0  0  0  0  0  0  0  0  0
  1 19  1  6  0  0  0
  3  5  1  1  0  0  0
  3  7  1  0  0  0  0
  4  1  1  6  0  0  0
  4  6  1  0  0  0  0
  4  3  1  0  0  0  0
  6  8  2  0  0  0  0
  7  9  2  0  0  0  0
  7  2  1  0  0  0  0
  8  2  1  0  0  0  0
 10  1  1  0  0  0  0
 11 10  1  0  0  0  0
 12 11  1  0  0  0  0
 13 12  2  0  0  0  0
 15 14  1  6  0  0  0
 16 12  1  1  0  0  0
 16 15  1  0  0  0  0
 17 18  1  6  0  0  0
 17 16  1  0  0  0  0
 17 15  1  0  0  0  0
 18 14  1  0  0  0  0
 20 19  1  0  0  0  0
 21 22  1  6  0  0  0
 21 23  1  0  0  0  0
 21 20  1  0  0  0  0
 23 24  1  0  0  0  0
 24 27  1  0  0  0  0
 26 27  2  0  0  0  0
 27 25  1  0  0  0  0
M  END
>  <MODEL>
9

>  <REMARK>
 VINA RESULT:      -7.2      2.299      5.723
  Name = 
  10 active torsions:
  status: ('A' for Active; 'I' for Inactive)
    1  A    between atoms: C_2  and  O_11
    2  A    between atoms: C_2  and  C_14
    3  A    between atoms: C_4  and  C_14
    4  A    between atoms: C_4  and  C_18
    5  A    between atoms: C_5  and  C_23
    6  A    between atoms: O_11  and  O_24
    7  A    between atoms: N_17  and  N_21
    8  A    between atoms: C_19  and  C_25
    9  A    between atoms: N_21  and  C_23
   10  A    between atoms: C_23  and  O_24
                            x       y       z     vdW  Elec       q    Type
                         _______ _______ _______ _____ _____    ______ ____

>  <TORSDO>
F 10

$$$$
