=
 OpenBabel10222416083D

 26 29  0  0  1  0  0  0  0  0999 V2000
  188.8570  177.5240  140.7430 N   0  0  0  0  0  2  0  0  0  0  0  0
  185.3480  178.9430  144.8960 N   0  0  0  0  0  2  0  0  0  0  0  0
  188.3830  177.3500  143.2250 C   0  0  0  0  0  2  0  0  0  0  0  0
  184.6480  179.2130  142.6010 C   0  0  0  0  0  2  0  0  0  0  0  0
  187.4980  177.8780  144.3420 C   0  0  0  0  0  0  0  0  0  0  0  0
  185.8950  178.4800  142.6750 N   0  0  0  0  0  0  0  0  0  0  0  0
  186.2950  178.3750  144.0150 C   0  0  0  0  0  0  0  0  0  0  0  0
  184.2540  179.4640  144.0770 C   0  0  1  0  0  3  0  0  0  0  0  0
  186.7770  178.2620  141.6090 N   0  0  0  0  0  0  0  0  0  0  0  0
  187.9550  177.7540  141.8290 C   0  0  0  0  0  0  0  0  0  0  0  0
  189.2850  177.3530  146.0150 C   0  0  0  0  0  3  0  0  0  0  0  0
  191.3600  176.7300  147.6760 Cl  0  0  0  0  0  0  0  0  0  0  0  0
  188.8720  177.6060  148.3800 C   0  0  0  0  0  3  0  0  0  0  0  0
  187.5760  178.0300  148.0850 C   0  0  0  0  0  3  0  0  0  0  0  0
  187.9760  177.7840  145.7480 C   0  0  0  0  0  0  0  0  0  0  0  0
  187.1620  178.1090  146.7920 N   0  0  0  0  0  0  0  0  0  0  0  0
  189.7290  177.2660  147.3350 C   0  0  0  0  0  0  0  0  0  0  0  0
  188.5260  177.8260  139.3560 C   0  0  0  0  0  2  0  0  0  0  0  0
  190.7110  175.4760  138.7480 O   0  0  0  0  0  0  0  0  0  0  0  0
  189.3670  176.7540  137.2900 C   0  0  0  0  0  2  0  0  0  0  0  0
  190.2820  175.5600  137.4170 C   0  0  0  0  0  2  0  0  0  0  0  0
  189.7370  177.6170  138.4600 C   0  0  2  0  0  3  0  0  0  0  0  0
  190.7760  176.8030  139.1970 C   0  0  0  0  0  2  0  0  0  0  0  0
  182.9700  178.7210  144.4140 C   0  0  0  0  0  2  0  0  0  0  0  0
  180.6300  178.6690  143.9330 O   0  0  0  0  0  1  0  0  0  0  0  0
  181.8690  179.0530  143.4190 C   0  0  0  0  0  2  0  0  0  0  0  0
  1 10  1  0  0  0  0
  3  5  1  0  0  0  0
  4  6  1  0  0  0  0
  4  8  1  0  0  0  0
  5 15  1  0  0  0  0
  6  7  1  0  0  0  0
  7  5  2  0  0  0  0
  7  2  1  0  0  0  0
  8 24  1  1  0  0  0
  8  2  1  0  0  0  0
  9 10  2  0  0  0  0
  9  6  1  0  0  0  0
 10  3  1  0  0  0  0
 11 17  1  0  0  0  0
 14 13  1  0  0  0  0
 15 11  2  0  0  0  0
 15 16  1  0  0  0  0
 16 14  2  0  0  0  0
 17 12  1  0  0  0  0
 17 13  2  0  0  0  0
 18  1  1  0  0  0  0
 19 23  1  0  0  0  0
 20 21  1  0  0  0  0
 20 22  1  0  0  0  0
 21 19  1  0  0  0  0
 22 23  1  0  0  0  0
 22 18  1  1  0  0  0
 26 25  1  0  0  0  0
 26 24  1  0  0  0  0
M  END
>  <MODEL>
1

>  <REMARK>
 VINA RESULT:      -8.4      0.000      0.000
  Name = 
  5 active torsions:
  status: ('A' for Active; 'I' for Inactive)
    1  A    between atoms: N_3  and  C_17
    2  A    between atoms: C_11  and  C_19
    3  A    between atoms: C_13  and  C_17
    4  A    between atoms: C_18  and  C_24
    5  A    between atoms: C_24  and  C_25
                            x       y       z     vdW  Elec       q    Type
                         _______ _______ _______ _____ _____    ______ ____

>  <TORSDO>
F 5

$$$$
=
 OpenBabel10222416083D

 26 29  0  0  1  0  0  0  0  0999 V2000
  187.5180  178.5070  138.8180 N   0  0  0  0  0  2  0  0  0  0  0  0
  188.9250  176.7380  143.9620 N   0  0  0  0  0  2  0  0  0  0  0  0
  186.9910  178.6510  141.2910 C   0  0  0  0  0  2  0  0  0  0  0  0
  190.4390  176.3640  142.1180 C   0  0  0  0  0  2  0  0  0  0  0  0
  187.2990  178.0370  142.6460 C   0  0  0  0  0  0  0  0  0  0  0  0
  189.3530  177.2370  141.7230 N   0  0  0  0  0  0  0  0  0  0  0  0
  188.4710  177.4020  142.8000 C   0  0  0  0  0  0  0  0  0  0  0  0
  190.1890  176.0850  143.6200 C   0  0  1  0  0  3  0  0  0  0  0  0
  188.9930  177.5430  140.4040 N   0  0  0  0  0  0  0  0  0  0  0  0
  187.8870  178.1860  140.1620 C   0  0  0  0  0  0  0  0  0  0  0  0
  184.9670  178.4360  143.4620 C   0  0  0  0  0  3  0  0  0  0  0  0
  182.3620  178.8810  144.1480 Cl  0  0  0  0  0  0  0  0  0  0  0  0
  184.4830  178.5090  145.8260 C   0  0  0  0  0  3  0  0  0  0  0  0
  185.8340  178.2760  146.0860 C   0  0  0  0  0  3  0  0  0  0  0  0
  186.3190  178.2010  143.7530 C   0  0  0  0  0  0  0  0  0  0  0  0
  186.7110  178.1280  145.0570 N   0  0  0  0  0  0  0  0  0  0  0  0
  184.0510  178.5890  144.5030 C   0  0  0  0  0  0  0  0  0  0  0  0
  188.3340  178.1540  137.6630 C   0  0  0  0  0  2  0  0  0  0  0  0
  186.7260  175.3540  137.1730 O   0  0  0  0  0  0  0  0  0  0  0  0
  186.0280  177.5970  136.9550 C   0  0  0  0  0  2  0  0  0  0  0  0
  185.5890  176.1540  136.9990 C   0  0  0  0  0  2  0  0  0  0  0  0
  187.4780  177.5210  136.5760 C   0  0  2  0  0  3  0  0  0  0  0  0
  187.7590  176.0360  136.5140 C   0  0  0  0  0  2  0  0  0  0  0  0
  191.3090  176.6790  144.4610 C   0  0  0  0  0  2  0  0  0  0  0  0
  191.9120  176.8670  146.7660 O   0  0  0  0  0  1  0  0  0  0  0  0
  190.8380  176.9570  145.8800 C   0  0  0  0  0  2  0  0  0  0  0  0
  1 10  1  0  0  0  0
  3  5  1  0  0  0  0
  4  8  1  0  0  0  0
  5  7  2  0  0  0  0
  5 15  1  0  0  0  0
  6  4  1  0  0  0  0
  6  7  1  0  0  0  0
  7  2  1  0  0  0  0
  8  2  1  0  0  0  0
  8 24  1  1  0  0  0
  9  6  1  0  0  0  0
 10  9  2  0  0  0  0
 10  3  1  0  0  0  0
 11 15  2  0  0  0  0
 11 17  1  0  0  0  0
 12 17  1  0  0  0  0
 13 14  1  0  0  0  0
 15 16  1  0  0  0  0
 16 14  2  0  0  0  0
 17 13  2  0  0  0  0
 18  1  1  0  0  0  0
 20 21  1  0  0  0  0
 21 19  1  0  0  0  0
 22 20  1  0  0  0  0
 22 18  1  1  0  0  0
 23 22  1  0  0  0  0
 23 19  1  0  0  0  0
 24 26  1  0  0  0  0
 26 25  1  0  0  0  0
M  END
>  <MODEL>
2

>  <REMARK>
 VINA RESULT:      -8.2      3.367      5.372
  Name = 
  5 active torsions:
  status: ('A' for Active; 'I' for Inactive)
    1  A    between atoms: N_3  and  C_17
    2  A    between atoms: C_11  and  C_19
    3  A    between atoms: C_13  and  C_17
    4  A    between atoms: C_18  and  C_24
    5  A    between atoms: C_24  and  C_25
                            x       y       z     vdW  Elec       q    Type
                         _______ _______ _______ _____ _____    ______ ____

>  <TORSDO>
F 5

$$$$
=
 OpenBabel10222416083D

 26 29  0  0  1  0  0  0  0  0999 V2000
  189.9000  177.4730  139.8280 N   0  0  0  0  0  2  0  0  0  0  0  0
  186.0910  178.6570  143.7840 N   0  0  0  0  0  2  0  0  0  0  0  0
  189.2330  177.1390  142.2480 C   0  0  0  0  0  2  0  0  0  0  0  0
  185.5750  179.0910  141.4660 C   0  0  0  0  0  2  0  0  0  0  0  0
  188.2680  177.6020  143.3270 C   0  0  0  0  0  0  0  0  0  0  0  0
  186.8050  178.3370  141.5860 N   0  0  0  0  0  0  0  0  0  0  0  0
  187.0990  178.1360  142.9420 C   0  0  0  0  0  0  0  0  0  0  0  0
  185.0680  179.2480  142.9200 C   0  0  1  0  0  3  0  0  0  0  0  0
  187.7660  178.1790  140.5780 N   0  0  0  0  0  0  0  0  0  0  0  0
  188.9190  177.6420  140.8540 C   0  0  0  0  0  0  0  0  0  0  0  0
  189.9400  177.0260  145.0980 C   0  0  0  0  0  3  0  0  0  0  0  0
  191.9070  176.3690  146.8740 Cl  0  0  0  0  0  0  0  0  0  0  0  0
  189.3200  177.0390  147.4310 C   0  0  0  0  0  3  0  0  0  0  0  0
  188.0280  177.4160  147.0610 C   0  0  0  0  0  3  0  0  0  0  0  0
  188.6340  177.4070  144.7550 C   0  0  0  0  0  0  0  0  0  0  0  0
  187.7170  177.5900  145.7480 N   0  0  0  0  0  0  0  0  0  0  0  0
  190.2790  176.8430  146.4390 C   0  0  0  0  0  0  0  0  0  0  0  0
  189.6820  177.8710  138.4430 C   0  0  0  0  0  2  0  0  0  0  0  0
  190.8520  174.8240  138.3450 O   0  0  0  0  0  0  0  0  0  0  0  0
  189.6230  176.0610  136.7560 C   0  0  0  0  0  2  0  0  0  0  0  0
  190.1470  174.6990  137.1410 C   0  0  0  0  0  2  0  0  0  0  0  0
  190.5120  177.0130  137.5010 C   0  0  2  0  0  3  0  0  0  0  0  0
  191.4160  176.1080  138.3080 C   0  0  0  0  0  2  0  0  0  0  0  0
  183.7560  178.5020  143.1060 C   0  0  0  0  0  2  0  0  0  0  0  0
  183.3140  179.0850  145.3800 O   0  0  0  0  0  1  0  0  0  0  0  0
  182.8430  179.2350  144.0760 C   0  0  0  0  0  2  0  0  0  0  0  0
  1 10  1  0  0  0  0
  3  5  1  0  0  0  0
  4  6  1  0  0  0  0
  4  8  1  0  0  0  0
  5 15  1  0  0  0  0
  6  7  1  0  0  0  0
  7  5  2  0  0  0  0
  7  2  1  0  0  0  0
  8 24  1  6  0  0  0
  8  2  1  0  0  0  0
  9 10  2  0  0  0  0
  9  6  1  0  0  0  0
 10  3  1  0  0  0  0
 11 17  1  0  0  0  0
 14 13  1  0  0  0  0
 15 11  2  0  0  0  0
 15 16  1  0  0  0  0
 16 14  2  0  0  0  0
 17 12  1  0  0  0  0
 17 13  2  0  0  0  0
 18  1  1  0  0  0  0
 20 21  1  0  0  0  0
 20 22  1  0  0  0  0
 21 19  1  0  0  0  0
 22 23  1  0  0  0  0
 22 18  1  1  0  0  0
 23 19  1  0  0  0  0
 24 26  1  0  0  0  0
 26 25  1  0  0  0  0
M  END
>  <MODEL>
3

>  <REMARK>
 VINA RESULT:      -8.2      1.226      1.394
  Name = 
  5 active torsions:
  status: ('A' for Active; 'I' for Inactive)
    1  A    between atoms: N_3  and  C_17
    2  A    between atoms: C_11  and  C_19
    3  A    between atoms: C_13  and  C_17
    4  A    between atoms: C_18  and  C_24
    5  A    between atoms: C_24  and  C_25
                            x       y       z     vdW  Elec       q    Type
                         _______ _______ _______ _____ _____    ______ ____

>  <TORSDO>
F 5

$$$$
=
 OpenBabel10222416083D

 26 29  0  0  1  0  0  0  0  0999 V2000
  189.8990  177.5860  139.4850 N   0  0  0  0  0  2  0  0  0  0  0  0
  186.5700  178.5210  143.9130 N   0  0  0  0  0  2  0  0  0  0  0  0
  189.5470  177.1620  141.9570 C   0  0  0  0  0  2  0  0  0  0  0  0
  185.7570  178.9990  141.6910 C   0  0  0  0  0  2  0  0  0  0  0  0
  188.7080  177.5600  143.1600 C   0  0  0  0  0  0  0  0  0  0  0  0
  187.0170  178.2880  141.6350 N   0  0  0  0  0  0  0  0  0  0  0  0
  187.4830  178.0610  142.9380 C   0  0  0  0  0  0  0  0  0  0  0  0
  185.4300  179.0970  143.2000 C   0  0  1  0  0  3  0  0  0  0  0  0
  187.8510  178.1930  140.5130 N   0  0  0  0  0  0  0  0  0  0  0  0
  189.0470  177.6910  140.6280 C   0  0  0  0  0  0  0  0  0  0  0  0
  188.4290  177.5160  145.6470 C   0  0  0  0  0  3  0  0  0  0  0  0
  187.9230  177.5240  148.3300 Cl  0  0  0  0  0  0  0  0  0  0  0  0
  190.2780  176.9280  147.0840 C   0  0  0  0  0  3  0  0  0  0  0  0
  191.0750  176.7620  145.9510 C   0  0  0  0  0  3  0  0  0  0  0  0
  189.2540  177.3400  144.5260 C   0  0  0  0  0  0  0  0  0  0  0  0
  190.5530  176.9680  144.7130 N   0  0  0  0  0  0  0  0  0  0  0  0
  188.9460  177.3080  146.9260 C   0  0  0  0  0  0  0  0  0  0  0  0
  189.4970  178.0140  138.1510 C   0  0  0  0  0  2  0  0  0  0  0  0
  190.6370  174.9560  138.0500 O   0  0  0  0  0  0  0  0  0  0  0  0
  188.9270  176.0110  136.8140 C   0  0  0  0  0  2  0  0  0  0  0  0
  189.5780  174.6960  137.1690 C   0  0  0  0  0  2  0  0  0  0  0  0
  189.9910  177.0290  137.1010 C   0  0  2  0  0  3  0  0  0  0  0  0
  191.1290  176.2130  137.6710 C   0  0  0  0  0  2  0  0  0  0  0  0
  184.1750  178.2990  143.5220 C   0  0  0  0  0  2  0  0  0  0  0  0
  183.7420  179.0580  145.7450 O   0  0  0  0  0  1  0  0  0  0  0  0
  183.2500  179.0810  144.4400 C   0  0  0  0  0  2  0  0  0  0  0  0
  1 10  1  0  0  0  0
  3  5  1  0  0  0  0
  4  8  1  0  0  0  0
  5 15  1  0  0  0  0
  6  4  1  0  0  0  0
  6  7  1  0  0  0  0
  7  5  2  0  0  0  0
  7  2  1  0  0  0  0
  8 24  1  6  0  0  0
  8  2  1  0  0  0  0
  9 10  2  0  0  0  0
  9  6  1  0  0  0  0
 10  3  1  0  0  0  0
 11 17  1  0  0  0  0
 14 13  1  0  0  0  0
 15 16  1  0  0  0  0
 15 11  2  0  0  0  0
 16 14  2  0  0  0  0
 17 13  2  0  0  0  0
 17 12  1  0  0  0  0
 18  1  1  0  0  0  0
 20 22  1  0  0  0  0
 20 21  1  0  0  0  0
 21 19  1  0  0  0  0
 22 23  1  0  0  0  0
 22 18  1  1  0  0  0
 23 19  1  0  0  0  0
 24 26  1  0  0  0  0
 26 25  1  0  0  0  0
M  END
>  <MODEL>
4

>  <REMARK>
 VINA RESULT:      -8.0      1.676      2.078
  Name = 
  5 active torsions:
  status: ('A' for Active; 'I' for Inactive)
    1  A    between atoms: N_3  and  C_17
    2  A    between atoms: C_11  and  C_19
    3  A    between atoms: C_13  and  C_17
    4  A    between atoms: C_18  and  C_24
    5  A    between atoms: C_24  and  C_25
                            x       y       z     vdW  Elec       q    Type
                         _______ _______ _______ _____ _____    ______ ____

>  <TORSDO>
F 5

$$$$
=
 OpenBabel10222416083D

 26 29  0  0  1  0  0  0  0  0999 V2000
  183.7350  178.5710  143.1910 N   0  0  0  0  0  2  0  0  0  0  0  0
  189.0710  177.7550  144.7500 N   0  0  0  0  0  2  0  0  0  0  0  0
  186.0360  177.8220  142.4430 C   0  0  0  0  0  2  0  0  0  0  0  0
  187.3750  178.0840  146.4360 C   0  0  0  0  0  2  0  0  0  0  0  0
  187.4980  177.7590  142.8570 C   0  0  0  0  0  0  0  0  0  0  0  0
  186.7750  177.9180  145.1290 N   0  0  0  0  0  0  0  0  0  0  0  0
  187.7840  177.7700  144.1680 C   0  0  0  0  0  0  0  0  0  0  0  0
  188.8940  177.9120  146.1940 C   0  0  1  0  0  3  0  0  0  0  0  0
  185.4570  178.2510  144.7890 N   0  0  0  0  0  0  0  0  0  0  0  0
  185.0810  178.2370  143.5430 C   0  0  0  0  0  0  0  0  0  0  0  0
  188.3460  178.2480  140.5530 C   0  0  0  0  0  3  0  0  0  0  0  0
  189.0930  178.8910  138.0070 Cl  0  0  0  0  0  0  0  0  0  0  0  0
  190.4960  177.4210  139.8300 C   0  0  0  0  0  3  0  0  0  0  0  0
  190.6620  176.8270  141.0820 C   0  0  0  0  0  3  0  0  0  0  0  0
  188.5410  177.6420  141.8040 C   0  0  0  0  0  0  0  0  0  0  0  0
  189.6940  176.9490  142.0290 N   0  0  0  0  0  0  0  0  0  0  0  0
  189.3280  178.1360  139.5690 C   0  0  0  0  0  0  0  0  0  0  0  0
  182.7220  178.9310  144.1740 C   0  0  0  0  0  2  0  0  0  0  0  0
  180.7910  177.9980  141.7110 O   0  0  0  0  0  0  0  0  0  0  0  0
  180.2790  178.6080  143.9320 C   0  0  0  0  0  2  0  0  0  0  0  0
  179.7550  177.9970  142.6560 C   0  0  0  0  0  2  0  0  0  0  0  0
  181.4580  179.4220  143.4840 C   0  0  2  0  0  3  0  0  0  0  0  0
  181.5500  179.1400  142.0010 C   0  0  0  0  0  2  0  0  0  0  0  0
  189.4060  176.6690  146.9050 C   0  0  0  0  0  2  0  0  0  0  0  0
  191.7270  176.3480  146.4370 O   0  0  0  0  0  1  0  0  0  0  0  0
  190.8370  176.8610  147.3810 C   0  0  0  0  0  2  0  0  0  0  0  0
  1 10  1  0  0  0  0
  1 18  1  0  0  0  0
  2  8  1  0  0  0  0
  3  5  1  0  0  0  0
  3 10  1  0  0  0  0
  5  7  2  0  0  0  0
  6  4  1  0  0  0  0
  7  2  1  0  0  0  0
  7  6  1  0  0  0  0
  8  4  1  0  0  0  0
  8 24  1  1  0  0  0
  9  6  1  0  0  0  0
 10  9  2  0  0  0  0
 11 15  1  0  0  0  0
 12 17  1  0  0  0  0
 13 14  2  0  0  0  0
 14 16  1  0  0  0  0
 15 16  2  0  0  0  0
 15  5  1  0  0  0  0
 17 13  1  0  0  0  0
 17 11  2  0  0  0  0
 19 23  1  0  0  0  0
 19 21  1  0  0  0  0
 21 20  1  0  0  0  0
 22 20  1  0  0  0  0
 22 18  1  1  0  0  0
 23 22  1  0  0  0  0
 24 26  1  0  0  0  0
 25 26  1  0  0  0  0
M  END
>  <MODEL>
5

>  <REMARK>
 VINA RESULT:      -7.9      2.955      7.466
  Name = 
  5 active torsions:
  status: ('A' for Active; 'I' for Inactive)
    1  A    between atoms: N_3  and  C_17
    2  A    between atoms: C_11  and  C_19
    3  A    between atoms: C_13  and  C_17
    4  A    between atoms: C_18  and  C_24
    5  A    between atoms: C_24  and  C_25
                            x       y       z     vdW  Elec       q    Type
                         _______ _______ _______ _____ _____    ______ ____

>  <TORSDO>
F 5

$$$$
=
 OpenBabel10222416083D

 26 29  0  0  1  0  0  0  0  0999 V2000
  188.7990  178.0510  139.2560 N   0  0  0  0  0  2  0  0  0  0  0  0
  187.7030  177.3620  144.7230 N   0  0  0  0  0  2  0  0  0  0  0  0
  187.1840  178.5580  141.1400 C   0  0  0  0  0  2  0  0  0  0  0  0
  189.9050  176.8510  143.8760 C   0  0  0  0  0  2  0  0  0  0  0  0
  186.8430  178.2240  142.5830 C   0  0  0  0  0  0  0  0  0  0  0  0
  189.1080  177.5140  142.8660 N   0  0  0  0  0  0  0  0  0  0  0  0
  187.8240  177.7610  143.3730 C   0  0  0  0  0  0  0  0  0  0  0  0
  188.9950  176.8080  145.1270 C   0  0  1  0  0  3  0  0  0  0  0  0
  189.3920  177.5480  141.4950 N   0  0  0  0  0  0  0  0  0  0  0  0
  188.5100  178.0100  140.6550 C   0  0  0  0  0  0  0  0  0  0  0  0
  184.3780  178.3840  142.1810 C   0  0  0  0  0  3  0  0  0  0  0  0
  181.7270  178.5110  141.5380 Cl  0  0  0  0  0  0  0  0  0  0  0  0
  182.8660  178.9130  143.9870 C   0  0  0  0  0  3  0  0  0  0  0  0
  183.9600  178.9870  144.8500 C   0  0  0  0  0  3  0  0  0  0  0  0
  185.4590  178.4630  143.0720 C   0  0  0  0  0  0  0  0  0  0  0  0
  185.2160  178.7630  144.3800 N   0  0  0  0  0  0  0  0  0  0  0  0
  183.0810  178.6100  142.6430 C   0  0  0  0  0  0  0  0  0  0  0  0
  190.0640  177.6000  138.6890 C   0  0  0  0  0  2  0  0  0  0  0  0
  190.1120  174.5190  137.6080 O   0  0  0  0  0  0  0  0  0  0  0  0
  188.4800  176.2090  137.3920 C   0  0  0  0  0  2  0  0  0  0  0  0
  188.7840  174.7420  137.2170 C   0  0  0  0  0  2  0  0  0  0  0  0
  189.8310  176.8620  137.3800 C   0  0  2  0  0  3  0  0  0  0  0  0
  190.7930  175.7000  137.2780 C   0  0  0  0  0  2  0  0  0  0  0  0
  189.5860  177.6590  146.2410 C   0  0  0  0  0  2  0  0  0  0  0  0
  191.7690  176.9620  146.9160 O   0  0  0  0  0  1  0  0  0  0  0  0
  190.4100  176.8130  147.1970 C   0  0  0  0  0  2  0  0  0  0  0  0
  1 10  1  0  0  0  0
  2  8  1  0  0  0  0
  3  5  1  0  0  0  0
  4  8  1  0  0  0  0
  5 15  1  0  0  0  0
  5  7  2  0  0  0  0
  6  7  1  0  0  0  0
  6  4  1  0  0  0  0
  7  2  1  0  0  0  0
  8 24  1  1  0  0  0
  9  6  1  0  0  0  0
 10  3  1  0  0  0  0
 10  9  2  0  0  0  0
 11 17  2  0  0  0  0
 11 15  1  0  0  0  0
 12 17  1  0  0  0  0
 13 14  2  0  0  0  0
 15 16  2  0  0  0  0
 16 14  1  0  0  0  0
 17 13  1  0  0  0  0
 18  1  1  0  0  0  0
 21 20  1  0  0  0  0
 21 19  1  0  0  0  0
 22 20  1  0  0  0  0
 22 18  1  1  0  0  0
 23 22  1  0  0  0  0
 23 19  1  0  0  0  0
 24 26  1  0  0  0  0
 25 26  1  0  0  0  0
M  END
>  <MODEL>
6

>  <REMARK>
 VINA RESULT:      -7.9      3.489      5.371
  Name = 
  5 active torsions:
  status: ('A' for Active; 'I' for Inactive)
    1  A    between atoms: N_3  and  C_17
    2  A    between atoms: C_11  and  C_19
    3  A    between atoms: C_13  and  C_17
    4  A    between atoms: C_18  and  C_24
    5  A    between atoms: C_24  and  C_25
                            x       y       z     vdW  Elec       q    Type
                         _______ _______ _______ _____ _____    ______ ____

>  <TORSDO>
F 5

$$$$
=
 OpenBabel10222416083D

 26 29  0  0  1  0  0  0  0  0999 V2000
  187.6050  177.8890  144.7880 N   0  0  0  0  0  2  0  0  0  0  0  0
  187.4390  178.5090  139.2070 N   0  0  0  0  0  2  0  0  0  0  0  0
  186.1100  178.0590  142.7510 C   0  0  0  0  0  2  0  0  0  0  0  0
  189.5300  177.9590  140.2820 C   0  0  0  0  0  2  0  0  0  0  0  0
  186.0960  178.3790  141.2660 C   0  0  0  0  0  0  0  0  0  0  0  0
  188.4300  177.8670  141.2190 N   0  0  0  0  0  0  0  0  0  0  0  0
  187.2380  178.2300  140.5770 C   0  0  0  0  0  0  0  0  0  0  0  0
  188.8650  178.3240  138.9330 C   0  0  1  0  0  3  0  0  0  0  0  0
  188.5490  177.8270  142.6140 N   0  0  0  0  0  0  0  0  0  0  0  0
  187.4890  177.9340  143.3640 C   0  0  0  0  0  0  0  0  0  0  0  0
  183.6090  178.2140  141.0320 C   0  0  0  0  0  3  0  0  0  0  0  0
  180.9010  177.8860  140.9310 Cl  0  0  0  0  0  0  0  0  0  0  0  0
  182.4270  179.5860  139.4370 C   0  0  0  0  0  3  0  0  0  0  0  0
  183.6450  180.1510  139.0550 C   0  0  0  0  0  3  0  0  0  0  0  0
  184.8190  178.8000  140.6300 C   0  0  0  0  0  0  0  0  0  0  0  0
  184.7990  179.7510  139.6520 N   0  0  0  0  0  0  0  0  0  0  0  0
  182.4140  178.6110  140.4330 C   0  0  0  0  0  0  0  0  0  0  0  0
  188.8770  177.7170  145.4790 C   0  0  0  0  0  2  0  0  0  0  0  0
  189.6490  178.3000  148.5980 O   0  0  0  0  0  0  0  0  0  0  0  0
  187.5830  177.7740  147.5880 C   0  0  0  0  0  2  0  0  0  0  0  0
  188.2710  178.2520  148.8440 C   0  0  0  0  0  2  0  0  0  0  0  0
  188.6660  177.0600  146.8340 C   0  0  2  0  0  3  0  0  0  0  0  0
  189.8970  177.2610  147.6900 C   0  0  0  0  0  2  0  0  0  0  0  0
  189.0450  177.1920  137.9320 C   0  0  0  0  0  2  0  0  0  0  0  0
  190.5560  175.3850  138.3330 O   0  0  0  0  0  1  0  0  0  0  0  0
  190.4880  176.7110  137.9060 C   0  0  0  0  0  2  0  0  0  0  0  0
  1 18  1  0  0  0  0
  2  7  1  0  0  0  0
  3 10  1  0  0  0  0
  4  6  1  0  0  0  0
  5  3  1  0  0  0  0
  6  9  1  0  0  0  0
  7  6  1  0  0  0  0
  7  5  2  0  0  0  0
  8 24  1  6  0  0  0
  8  2  1  0  0  0  0
  8  4  1  0  0  0  0
  9 10  2  0  0  0  0
 10  1  1  0  0  0  0
 13 17  1  0  0  0  0
 14 13  2  0  0  0  0
 14 16  1  0  0  0  0
 15 11  1  0  0  0  0
 15  5  1  0  0  0  0
 16 15  2  0  0  0  0
 17 12  1  0  0  0  0
 17 11  2  0  0  0  0
 19 21  1  0  0  0  0
 20 21  1  0  0  0  0
 22 18  1  6  0  0  0
 22 20  1  0  0  0  0
 22 23  1  0  0  0  0
 23 19  1  0  0  0  0
 26 24  1  0  0  0  0
 26 25  1  0  0  0  0
M  END
>  <MODEL>
7

>  <REMARK>
 VINA RESULT:      -7.9      3.659      8.072
  Name = 
  5 active torsions:
  status: ('A' for Active; 'I' for Inactive)
    1  A    between atoms: N_3  and  C_17
    2  A    between atoms: C_11  and  C_19
    3  A    between atoms: C_13  and  C_17
    4  A    between atoms: C_18  and  C_24
    5  A    between atoms: C_24  and  C_25
                            x       y       z     vdW  Elec       q    Type
                         _______ _______ _______ _____ _____    ______ ____

>  <TORSDO>
F 5

$$$$
=
 OpenBabel10222416083D

 26 29  0  0  1  0  0  0  0  0999 V2000
  186.5190  178.8090  141.0310 N   0  0  0  0  0  2  0  0  0  0  0  0
  191.6130  177.1930  142.7670 N   0  0  0  0  0  2  0  0  0  0  0  0
  188.6540  177.6010  140.3980 C   0  0  0  0  0  2  0  0  0  0  0  0
  189.9920  177.9620  144.3830 C   0  0  0  0  0  2  0  0  0  0  0  0
  190.0770  177.3140  140.8470 C   0  0  0  0  0  0  0  0  0  0  0  0
  189.3810  177.7940  143.0820 N   0  0  0  0  0  0  0  0  0  0  0  0
  190.3530  177.3870  142.1580 C   0  0  0  0  0  0  0  0  0  0  0  0
  191.4580  177.5030  144.1880 C   0  0  1  0  0  3  0  0  0  0  0  0
  188.1460  178.3260  142.6870 N   0  0  0  0  0  0  0  0  0  0  0  0
  187.7810  178.2730  141.4380 C   0  0  0  0  0  0  0  0  0  0  0  0
  190.7040  176.1670  138.7120 C   0  0  0  0  0  3  0  0  0  0  0  0
  191.1840  174.8590  136.3630 Cl  0  0  0  0  0  0  0  0  0  0  0  0
  192.9860  176.1880  137.9250 C   0  0  0  0  0  3  0  0  0  0  0  0
  193.3410  176.9380  139.0470 C   0  0  0  0  0  3  0  0  0  0  0  0
  191.0900  176.9230  139.8290 C   0  0  0  0  0  0  0  0  0  0  0  0
  192.3970  177.2850  139.9620 N   0  0  0  0  0  0  0  0  0  0  0  0
  191.6570  175.8020  137.7610 C   0  0  0  0  0  0  0  0  0  0  0  0
  185.5810  179.4270  141.9590 C   0  0  0  0  0  2  0  0  0  0  0  0
  183.8250  179.0710  144.6890 O   0  0  0  0  0  0  0  0  0  0  0  0
  183.2430  178.7590  142.4250 C   0  0  0  0  0  2  0  0  0  0  0  0
  182.7300  178.8690  143.8390 C   0  0  0  0  0  2  0  0  0  0  0  0
  184.6840  178.3750  142.5930 C   0  0  2  0  0  3  0  0  0  0  0  0
  184.8860  178.3760  144.0920 C   0  0  0  0  0  2  0  0  0  0  0  0
  191.7330  176.2540  145.0120 C   0  0  0  0  0  2  0  0  0  0  0  0
  192.4750  175.7250  147.2210 O   0  0  0  0  0  1  0  0  0  0  0  0
  191.6020  176.5400  146.5000 C   0  0  0  0  0  2  0  0  0  0  0  0
  1 10  1  0  0  0  0
  1 18  1  0  0  0  0
  2  8  1  0  0  0  0
  3  5  1  0  0  0  0
  3 10  1  0  0  0  0
  5  7  2  0  0  0  0
  6  4  1  0  0  0  0
  7  2  1  0  0  0  0
  7  6  1  0  0  0  0
  8  4  1  0  0  0  0
  8 24  1  1  0  0  0
  9  6  1  0  0  0  0
 10  9  2  0  0  0  0
 11 15  1  0  0  0  0
 12 17  1  0  0  0  0
 13 14  2  0  0  0  0
 14 16  1  0  0  0  0
 15 16  2  0  0  0  0
 15  5  1  0  0  0  0
 17 13  1  0  0  0  0
 17 11  2  0  0  0  0
 20 22  1  0  0  0  0
 20 21  1  0  0  0  0
 21 19  1  0  0  0  0
 22 18  1  6  0  0  0
 22 23  1  0  0  0  0
 23 19  1  0  0  0  0
 24 26  1  0  0  0  0
 26 25  1  0  0  0  0
M  END
>  <MODEL>
8

>  <REMARK>
 VINA RESULT:      -7.8      3.567      7.861
  Name = 
  5 active torsions:
  status: ('A' for Active; 'I' for Inactive)
    1  A    between atoms: N_3  and  C_17
    2  A    between atoms: C_11  and  C_19
    3  A    between atoms: C_13  and  C_17
    4  A    between atoms: C_18  and  C_24
    5  A    between atoms: C_24  and  C_25
                            x       y       z     vdW  Elec       q    Type
                         _______ _______ _______ _____ _____    ______ ____

>  <TORSDO>
F 5

$$$$
=
 OpenBabel10222416083D

 26 29  0  0  1  0  0  0  0  0999 V2000
  184.7020  179.3080  140.5490 N   0  0  0  0  0  2  0  0  0  0  0  0
  189.6830  176.9600  141.6610 N   0  0  0  0  0  2  0  0  0  0  0  0
  186.4340  178.8360  142.3360 C   0  0  0  0  0  2  0  0  0  0  0  0
  189.0270  177.3290  139.3670 C   0  0  0  0  0  2  0  0  0  0  0  0
  187.7070  178.0610  142.6320 C   0  0  0  0  0  0  0  0  0  0  0  0
  188.1030  177.9750  140.2770 N   0  0  0  0  0  0  0  0  0  0  0  0
  188.4870  177.7090  141.5980 C   0  0  0  0  0  0  0  0  0  0  0  0
  190.1100  176.7100  140.2840 C   0  0  1  0  0  3  0  0  0  0  0  0
  186.8230  178.4370  139.9460 N   0  0  0  0  0  0  0  0  0  0  0  0
  186.0070  178.8290  140.8820 C   0  0  0  0  0  0  0  0  0  0  0  0
  189.3840  177.4510  144.3880 C   0  0  0  0  0  3  0  0  0  0  0  0
  191.3600  176.7820  146.1490 Cl  0  0  0  0  0  0  0  0  0  0  0  0
  188.7190  177.2080  146.6960 C   0  0  0  0  0  3  0  0  0  0  0  0
  187.4100  177.5210  146.3270 C   0  0  0  0  0  3  0  0  0  0  0  0
  188.0590  177.7640  144.0460 C   0  0  0  0  0  0  0  0  0  0  0  0
  187.1130  177.7900  145.0280 N   0  0  0  0  0  0  0  0  0  0  0  0
  189.7090  177.1730  145.7160 C   0  0  0  0  0  0  0  0  0  0  0  0
  184.2120  179.3950  139.1790 C   0  0  0  0  0  2  0  0  0  0  0  0
  183.2810  176.3700  138.3750 O   0  0  0  0  0  0  0  0  0  0  0  0
  182.7030  177.7280  140.2150 C   0  0  0  0  0  2  0  0  0  0  0  0
  182.6460  176.3410  139.6240 C   0  0  0  0  0  2  0  0  0  0  0  0
  182.9120  178.6190  139.0260 C   0  0  2  0  0  3  0  0  0  0  0  0
  183.0350  177.6540  137.8680 C   0  0  0  0  0  2  0  0  0  0  0  0
  191.4540  177.3800  140.0400 C   0  0  0  0  0  2  0  0  0  0  0  0
  193.5590  176.9700  138.9860 O   0  0  0  0  0  1  0  0  0  0  0  0
  192.1900  176.7220  138.8830 C   0  0  0  0  0  2  0  0  0  0  0  0
  1 10  1  0  0  0  0
  3  5  1  0  0  0  0
  4  6  1  0  0  0  0
  4  8  1  0  0  0  0
  5 15  1  0  0  0  0
  6  7  1  0  0  0  0
  7  2  1  0  0  0  0
  7  5  2  0  0  0  0
  8 24  1  6  0  0  0
  8  2  1  0  0  0  0
  9  6  1  0  0  0  0
  9 10  2  0  0  0  0
 10  3  1  0  0  0  0
 11 17  1  0  0  0  0
 14 13  1  0  0  0  0
 15 11  2  0  0  0  0
 15 16  1  0  0  0  0
 16 14  2  0  0  0  0
 17 12  1  0  0  0  0
 17 13  2  0  0  0  0
 18  1  1  0  0  0  0
 19 21  1  0  0  0  0
 21 20  1  0  0  0  0
 22 18  1  1  0  0  0
 22 20  1  0  0  0  0
 23 19  1  0  0  0  0
 23 22  1  0  0  0  0
 26 25  1  0  0  0  0
 26 24  1  0  0  0  0
M  END
>  <MODEL>
9

>  <REMARK>
 VINA RESULT:      -7.6      2.625      5.977
  Name = 
  5 active torsions:
  status: ('A' for Active; 'I' for Inactive)
    1  A    between atoms: N_3  and  C_17
    2  A    between atoms: C_11  and  C_19
    3  A    between atoms: C_13  and  C_17
    4  A    between atoms: C_18  and  C_24
    5  A    between atoms: C_24  and  C_25
                            x       y       z     vdW  Elec       q    Type
                         _______ _______ _______ _____ _____    ______ ____

>  <TORSDO>
F 5

$$$$
