=
 OpenBabel10222419453D

 33 35  0  0  1  0  0  0  0  0999 V2000
  187.0650  174.1090  135.2030 C   0  0  0  0  0  0  0  0  0  0  0  0
  188.3260  171.9940  135.5380 C   0  0  0  0  0  3  0  0  0  0  0  0
  191.5370  173.6780  135.0860 O   0  0  0  0  0  0  0  0  0  0  0  0
  194.5290  174.3840  136.9850 C   0  0  0  0  0  2  0  0  0  0  0  0
  187.5470  178.1240  139.5030 C   0  0  0  0  0  2  0  0  0  0  0  0
  187.0240  177.1280  138.4720 C   0  0  0  0  0  2  0  0  0  0  0  0
  189.4400  174.7210  134.7090 C   0  0  0  0  0  3  0  0  0  0  0  0
  192.2440  174.9000  135.2900 C   0  0  2  0  0  3  0  0  0  0  0  0
  189.0220  178.4790  139.3060 C   0  0  2  0  0  3  0  0  0  0  0  0
  189.4930  175.0340  138.0330 C   0  0  0  0  0  2  0  0  0  0  0  0
  187.9790  174.8680  134.5980 C   0  0  0  0  0  3  0  0  0  0  0  0
  191.2930  176.4720  137.1360 C   0  0  2  0  0  3  0  0  0  0  0  0
  186.2150  177.8350  137.3900 C   0  0  2  0  0  3  0  0  0  0  0  0
  194.6990  174.4970  135.4940 C   0  0  0  0  0  0  0  0  0  0  0  0
  187.4560  173.0270  136.1730 C   0  0  2  0  0  3  0  0  0  0  0  0
  190.2650  176.1110  138.1740 C   0  0  0  0  0  0  0  0  0  0  0  0
  193.6380  174.7660  134.7240 C   0  0  0  0  0  3  0  0  0  0  0  0
  189.2980  179.1130  137.9530 C   0  0  0  0  0  1  0  0  0  0  0  0
  191.4940  177.7080  139.8460 O   0  0  0  0  0  0  0  0  0  0  0  0
  184.8640  178.2840  137.9220 C   0  0  0  0  0  1  0  0  0  0  0  0
  193.5730  175.4710  137.4550 C   0  0  0  0  0  2  0  0  0  0  0  0
  186.0520  176.9570  136.1510 C   0  0  0  0  0  2  0  0  0  0  0  0
  186.3310  172.4100  136.7240 O   0  0  0  0  0  1  0  0  0  0  0  0
  185.3280  175.6470  136.4480 C   0  0  0  0  0  2  0  0  0  0  0  0
  190.1440  173.6050  134.9600 C   0  0  0  0  0  0  0  0  0  0  0  0
  190.6800  177.0250  136.0090 O   0  0  0  0  0  1  0  0  0  0  0  0
  190.1180  177.0790  139.6630 S   0  0  1  0  0  0  0  0  0  0  0  0
  192.2040  175.2820  136.7980 C   0  0  2  0  0  3  0  0  0  0  0  0
  185.3420  174.5640  134.9810 S   0  0  0  0  0  0  0  0  0  0  0  0
  189.5320  172.2640  135.0410 C   0  0  0  0  0  3  0  0  0  0  0  0
  196.0560  174.4200  134.8650 C   0  0  0  0  0  3  0  0  0  0  0  0
  196.9220  175.5860  135.3070 C   0  0  0  0  0  1  0  0  0  0  0  0
  196.7380  173.1090  135.2090 C   0  0  0  0  0  1  0  0  0  0  0  0
  1 15  1  0  0  0  0
  2 15  1  0  0  0  0
  3  8  1  0  0  0  0
  4 21  1  0  0  0  0
  6  5  1  0  0  0  0
  7 25  2  0  0  0  0
  8 17  1  1  0  0  0
  8 28  1  0  0  0  0
  9 18  1  6  0  0  0
  9  5  1  0  0  0  0
  9 27  1  0  0  0  0
 10 16  2  0  0  0  0
 11  7  1  0  0  0  0
 11  1  2  0  0  0  0
 12 26  1  6  0  0  0
 12 16  1  0  0  0  0
 13 20  1  1  0  0  0
 13  6  1  0  0  0  0
 14  4  1  0  0  0  0
 15 23  1  6  0  0  0
 16 27  1  0  0  0  0
 17 14  2  0  0  0  0
 22 24  1  0  0  0  0
 22 13  1  0  0  0  0
 25 30  1  0  0  0  0
 25  3  1  0  0  0  0
 27 19  2  6  0  0  0
 28 12  1  0  0  0  0
 28 21  1  6  0  0  0
 29  1  1  0  0  0  0
 29 24  1  0  0  0  0
 30  2  2  0  0  0  0
 31 33  1  0  0  0  0
 31 32  1  0  0  0  0
 31 14  1  0  0  0  0
M  END
>  <MODEL>
1

>  <REMARK>
 VINA RESULT:      -4.7      0.000      0.000
  Name = 
  1 active torsions:
  status: ('A' for Active; 'I' for Inactive)
    1  A    between atoms: C_1  and  C_17
                            x       y       z     vdW  Elec       q    Type
                         _______ _______ _______ _____ _____    ______ ____

>  <TORSDO>
F 1

$$$$
=
 OpenBabel10222419453D

 33 35  0  0  1  0  0  0  0  0999 V2000
  180.5540  176.1680  137.5410 C   0  0  0  0  0  0  0  0  0  0  0  0
  181.4140  178.1490  136.3110 C   0  0  0  0  0  3  0  0  0  0  0  0
  184.8590  177.4320  137.2930 O   0  0  0  0  0  0  0  0  0  0  0  0
  188.0080  176.5730  135.7420 C   0  0  0  0  0  2  0  0  0  0  0  0
  181.9510  170.9010  135.2730 C   0  0  0  0  0  2  0  0  0  0  0  0
  181.2090  172.1170  135.8190 C   0  0  0  0  0  2  0  0  0  0  0  0
  182.9780  176.2690  138.1500 C   0  0  0  0  0  3  0  0  0  0  0  0
  185.7880  176.3890  137.5860 C   0  0  2  0  0  3  0  0  0  0  0  0
  183.4560  170.9400  135.5400 C   0  0  2  0  0  3  0  0  0  0  0  0
  183.2280  174.6240  135.2540 C   0  0  0  0  0  2  0  0  0  0  0  0
  181.5670  175.9110  138.3690 C   0  0  0  0  0  3  0  0  0  0  0  0
  185.2230  174.0470  136.5950 C   0  0  2  0  0  3  0  0  0  0  0  0
  180.5010  171.7840  137.1270 C   0  0  2  0  0  3  0  0  0  0  0  0
  188.1330  177.1200  137.1370 C   0  0  0  0  0  0  0  0  0  0  0  0
  180.7770  176.8030  136.1960 C   0  0  2  0  0  3  0  0  0  0  0  0
  184.1910  173.7490  135.5420 C   0  0  0  0  0  0  0  0  0  0  0  0
  187.1080  177.0020  137.9910 C   0  0  0  0  0  3  0  0  0  0  0  0
  183.7890  170.9860  137.0220 C   0  0  0  0  0  1  0  0  0  0  0  0
  185.7630  171.8630  134.6330 O   0  0  0  0  0  0  0  0  0  0  0  0
  179.2800  170.9130  136.8820 C   0  0  0  0  0  1  0  0  0  0  0  0
  187.2900  175.2320  135.8010 C   0  0  0  0  0  2  0  0  0  0  0  0
  180.1260  173.0490  137.8970 C   0  0  0  0  0  2  0  0  0  0  0  0
  179.5820  176.9170  135.4830 O   0  0  0  0  0  1  0  0  0  0  0  0
  179.1850  173.9590  137.1130 C   0  0  0  0  0  2  0  0  0  0  0  0
  183.4720  177.2900  137.4330 C   0  0  0  0  0  0  0  0  0  0  0  0
  184.6770  173.9070  137.8730 O   0  0  0  0  0  1  0  0  0  0  0  0
  184.2890  172.2440  134.5940 S   0  0  1  0  0  0  0  0  0  0  0  0
  185.8830  175.4180  136.3740 C   0  0  2  0  0  3  0  0  0  0  0  0
  178.9360  175.5340  137.9980 S   0  0  0  0  0  0  0  0  0  0  0  0
  182.6270  178.3380  136.8280 C   0  0  0  0  0  3  0  0  0  0  0  0
  189.4250  177.7010  137.6250 C   0  0  0  0  0  3  0  0  0  0  0  0
  189.2510  178.3230  138.9980 C   0  0  0  0  0  1  0  0  0  0  0  0
  190.5110  176.6420  137.6680 C   0  0  0  0  0  1  0  0  0  0  0  0
  1 29  1  0  0  0  0
  1 11  2  0  0  0  0
  2 30  2  0  0  0  0
  3 25  1  0  0  0  0
  3  8  1  0  0  0  0
  4 21  1  0  0  0  0
  4 14  1  0  0  0  0
  5  9  1  0  0  0  0
  5  6  1  0  0  0  0
  6 13  1  0  0  0  0
  7 11  1  0  0  0  0
  8 17  1  6  0  0  0
  9 18  1  1  0  0  0
 10 16  2  0  0  0  0
 12 26  1  1  0  0  0
 13 20  1  6  0  0  0
 13 22  1  0  0  0  0
 14 31  1  0  0  0  0
 14 17  2  0  0  0  0
 15 23  1  1  0  0  0
 15  2  1  0  0  0  0
 15  1  1  0  0  0  0
 16 12  1  0  0  0  0
 24 22  1  0  0  0  0
 24 29  1  0  0  0  0
 25  7  2  0  0  0  0
 27 19  2  1  0  0  0
 27  9  1  0  0  0  0
 27 16  1  0  0  0  0
 28 21  1  1  0  0  0
 28 12  1  0  0  0  0
 28  8  1  0  0  0  0
 30 25  1  0  0  0  0
 31 33  1  0  0  0  0
 31 32  1  0  0  0  0
M  END
>  <MODEL>
2

>  <REMARK>
 VINA RESULT:      -4.5      4.142      8.011
  Name = 
  1 active torsions:
  status: ('A' for Active; 'I' for Inactive)
    1  A    between atoms: C_1  and  C_17
                            x       y       z     vdW  Elec       q    Type
                         _______ _______ _______ _____ _____    ______ ____

>  <TORSDO>
F 1

$$$$
=
 OpenBabel10222419453D

 33 35  0  0  1  0  0  0  0  0999 V2000
  179.8960  178.3090  138.8570 C   0  0  0  0  0  0  0  0  0  0  0  0
  179.8370  180.4390  140.1370 C   0  0  0  0  0  3  0  0  0  0  0  0
  182.3350  179.2350  142.5160 O   0  0  0  0  0  0  0  0  0  0  0  0
  185.6880  180.0520  143.5880 C   0  0  0  0  0  2  0  0  0  0  0  0
  184.8380  177.2520  135.8090 C   0  0  0  0  0  2  0  0  0  0  0  0
  183.3890  177.4760  136.2290 C   0  0  0  0  0  2  0  0  0  0  0  0
  181.3330  177.8680  140.8570 C   0  0  0  0  0  3  0  0  0  0  0  0
  183.4910  178.4130  142.6670 C   0  0  2  0  0  3  0  0  0  0  0  0
  185.7870  177.0570  136.9920 C   0  0  2  0  0  3  0  0  0  0  0  0
  183.5930  179.3520  138.8970 C   0  0  0  0  0  2  0  0  0  0  0  0
  180.4470  177.4820  139.7460 C   0  0  0  0  0  3  0  0  0  0  0  0
  184.8340  177.9250  140.4890 C   0  0  2  0  0  3  0  0  0  0  0  0
  182.5670  176.2030  136.0620 C   0  0  2  0  0  3  0  0  0  0  0  0
  184.9170  179.2010  144.5590 C   0  0  0  0  0  0  0  0  0  0  0  0
  180.2090  179.7810  138.8500 C   0  0  2  0  0  3  0  0  0  0  0  0
  184.6790  178.6270  139.1680 C   0  0  0  0  0  0  0  0  0  0  0  0
  183.9210  178.4240  144.1150 C   0  0  0  0  0  3  0  0  0  0  0  0
  185.4220  175.8540  137.8460 C   0  0  0  0  0  1  0  0  0  0  0  0
  187.2520  178.3320  138.7870 O   0  0  0  0  0  0  0  0  0  0  0  0
  182.2960  175.9150  134.5940 C   0  0  0  0  0  1  0  0  0  0  0  0
  185.9310  179.2510  142.3170 C   0  0  0  0  0  2  0  0  0  0  0  0
  181.2640  176.2700  136.8570 C   0  0  0  0  0  2  0  0  0  0  0  0
  179.5660  180.4320  137.7950 O   0  0  0  0  0  1  0  0  0  0  0  0
  180.3680  177.4250  136.4220 C   0  0  0  0  0  2  0  0  0  0  0  0
  181.3720  179.0360  141.5190 C   0  0  0  0  0  0  0  0  0  0  0  0
  184.0280  176.7840  140.5360 O   0  0  0  0  0  1  0  0  0  0  0  0
  185.9920  178.5730  137.9650 S   0  0  1  0  0  0  0  0  0  0  0  0
  184.5950  178.8760  141.6730 C   0  0  2  0  0  3  0  0  0  0  0  0
  178.9310  177.5700  137.5350 S   0  0  0  0  0  0  0  0  0  0  0  0
  180.3940  180.1200  141.3050 C   0  0  0  0  0  3  0  0  0  0  0  0
  185.3130  179.1260  146.0010 C   0  0  0  0  0  3  0  0  0  0  0  0
  184.3550  178.2420  146.7780 C   0  0  0  0  0  1  0  0  0  0  0  0
  186.7320  178.6060  146.1460 C   0  0  0  0  0  1  0  0  0  0  0  0
  1 11  2  0  0  0  0
  2 30  2  0  0  0  0
  3  8  1  0  0  0  0
  4 14  1  0  0  0  0
  5  6  1  0  0  0  0
  5  9  1  0  0  0  0
  7 25  2  0  0  0  0
  8 17  1  1  0  0  0
  9 18  1  1  0  0  0
  9 27  1  0  0  0  0
 10 16  2  0  0  0  0
 11  7  1  0  0  0  0
 12 26  1  6  0  0  0
 12 28  1  0  0  0  0
 13 20  1  6  0  0  0
 13  6  1  0  0  0  0
 13 22  1  0  0  0  0
 14 31  1  0  0  0  0
 15 23  1  6  0  0  0
 15  1  1  0  0  0  0
 15  2  1  0  0  0  0
 16 12  1  0  0  0  0
 17 14  2  0  0  0  0
 21  4  1  0  0  0  0
 24 22  1  0  0  0  0
 24 29  1  0  0  0  0
 25  3  1  0  0  0  0
 27 19  2  1  0  0  0
 27 16  1  0  0  0  0
 28 21  1  1  0  0  0
 28  8  1  0  0  0  0
 29  1  1  0  0  0  0
 30 25  1  0  0  0  0
 31 33  1  0  0  0  0
 31 32  1  0  0  0  0
M  END
>  <MODEL>
3

>  <REMARK>
 VINA RESULT:      -4.3      6.174     10.077
  Name = 
  1 active torsions:
  status: ('A' for Active; 'I' for Inactive)
    1  A    between atoms: C_1  and  C_17
                            x       y       z     vdW  Elec       q    Type
                         _______ _______ _______ _____ _____    ______ ____

>  <TORSDO>
F 1

$$$$
=
 OpenBabel10222419453D

 33 35  0  0  1  0  0  0  0  0999 V2000
  186.0090  173.2080  135.3610 C   0  0  0  0  0  0  0  0  0  0  0  0
  187.5320  171.5390  136.3960 C   0  0  0  0  0  3  0  0  0  0  0  0
  190.4840  173.5410  135.6040 O   0  0  0  0  0  0  0  0  0  0  0  0
  193.1320  175.2850  137.3360 C   0  0  0  0  0  2  0  0  0  0  0  0
  185.4540  178.3390  138.2250 C   0  0  0  0  0  2  0  0  0  0  0  0
  185.1900  177.0070  137.5290 C   0  0  0  0  0  2  0  0  0  0  0  0
  188.3030  174.0460  134.8200 C   0  0  0  0  0  3  0  0  0  0  0  0
  190.9760  174.8710  135.4540 C   0  0  2  0  0  3  0  0  0  0  0  0
  186.8710  178.8680  138.0020 C   0  0  2  0  0  3  0  0  0  0  0  0
  187.9770  175.3360  137.8820 C   0  0  0  0  0  2  0  0  0  0  0  0
  186.8550  173.8990  134.5970 C   0  0  0  0  0  3  0  0  0  0  0  0
  189.6210  176.7320  136.6740 C   0  0  2  0  0  3  0  0  0  0  0  0
  184.3970  177.2100  136.2420 C   0  0  2  0  0  3  0  0  0  0  0  0
  193.4320  174.9780  135.8940 C   0  0  0  0  0  0  0  0  0  0  0  0
  186.4580  172.5470  136.6360 C   0  0  2  0  0  3  0  0  0  0  0  0
  188.5610  176.5240  137.7200 C   0  0  0  0  0  0  0  0  0  0  0  0
  192.4240  174.8180  135.0270 C   0  0  0  0  0  3  0  0  0  0  0  0
  187.1830  179.1100  136.5340 C   0  0  0  0  0  1  0  0  0  0  0  0
  189.3640  178.7320  138.8750 O   0  0  0  0  0  0  0  0  0  0  0  0
  182.9480  177.5560  136.5430 C   0  0  0  0  0  1  0  0  0  0  0  0
  191.9830  176.2810  137.3990 C   0  0  0  0  0  2  0  0  0  0  0  0
  184.4910  175.9880  135.3300 C   0  0  0  0  0  2  0  0  0  0  0  0
  185.3890  171.9370  137.2950 O   0  0  0  0  0  1  0  0  0  0  0  0
  183.9460  174.7220  135.9820 C   0  0  0  0  0  2  0  0  0  0  0  0
  189.1370  173.1940  135.4380 C   0  0  0  0  0  0  0  0  0  0  0  0
  189.0480  176.8110  135.4020 O   0  0  0  0  0  1  0  0  0  0  0  0
  188.1230  177.8490  138.8280 S   0  0  1  0  0  0  0  0  0  0  0  0
  190.7300  175.6710  136.7660 C   0  0  2  0  0  3  0  0  0  0  0  0
  184.2670  173.2710  134.9250 S   0  0  0  0  0  0  0  0  0  0  0  0
  188.7280  171.8530  135.9000 C   0  0  0  0  0  3  0  0  0  0  0  0
  194.8410  174.9540  135.3870 C   0  0  0  0  0  3  0  0  0  0  0  0
  195.3860  176.3620  135.2440 C   0  0  0  0  0  1  0  0  0  0  0  0
  195.7330  174.1430  136.3100 C   0  0  0  0  0  1  0  0  0  0  0  0
  1 15  1  0  0  0  0
  2 15  1  0  0  0  0
  4 21  1  0  0  0  0
  6  5  1  0  0  0  0
  7 25  2  0  0  0  0
  8 17  1  1  0  0  0
  8  3  1  0  0  0  0
  8 28  1  0  0  0  0
  9 18  1  6  0  0  0
  9  5  1  0  0  0  0
  9 27  1  0  0  0  0
 11  7  1  0  0  0  0
 11  1  2  0  0  0  0
 12 26  1  6  0  0  0
 12 28  1  0  0  0  0
 12 16  1  0  0  0  0
 13 20  1  1  0  0  0
 13  6  1  0  0  0  0
 14  4  1  0  0  0  0
 15 23  1  6  0  0  0
 16 10  2  0  0  0  0
 16 27  1  0  0  0  0
 17 14  2  0  0  0  0
 22 24  1  0  0  0  0
 22 13  1  0  0  0  0
 25  3  1  0  0  0  0
 25 30  1  0  0  0  0
 27 19  2  6  0  0  0
 28 21  1  6  0  0  0
 29  1  1  0  0  0  0
 29 24  1  0  0  0  0
 30  2  2  0  0  0  0
 31 14  1  0  0  0  0
 31 33  1  0  0  0  0
 32 31  1  0  0  0  0
M  END
>  <MODEL>
4

>  <REMARK>
 VINA RESULT:      -4.2      1.481      1.780
  Name = 
  1 active torsions:
  status: ('A' for Active; 'I' for Inactive)
    1  A    between atoms: C_1  and  C_17
                            x       y       z     vdW  Elec       q    Type
                         _______ _______ _______ _____ _____    ______ ____

>  <TORSDO>
F 1

$$$$
=
 OpenBabel10222419453D

 33 35  0  0  1  0  0  0  0  0999 V2000
  186.6650  177.0980  137.0080 C   0  0  0  0  0  0  0  0  0  0  0  0
  188.2640  178.4590  135.6800 C   0  0  0  0  0  3  0  0  0  0  0  0
  191.1230  176.5470  136.9110 O   0  0  0  0  0  0  0  0  0  0  0  0
  193.7100  174.3830  135.6130 C   0  0  0  0  0  2  0  0  0  0  0  0
  185.9180  171.5170  135.2400 C   0  0  0  0  0  2  0  0  0  0  0  0
  185.7050  172.9720  135.6460 C   0  0  0  0  0  2  0  0  0  0  0  0
  188.9180  176.2990  137.7460 C   0  0  0  0  0  3  0  0  0  0  0  0
  191.5590  175.2570  137.3370 C   0  0  2  0  0  3  0  0  0  0  0  0
  187.3100  170.9890  135.5890 C   0  0  2  0  0  3  0  0  0  0  0  0
  188.5610  174.4240  135.0060 C   0  0  0  0  0  2  0  0  0  0  0  0
  187.4750  176.5450  137.9110 C   0  0  0  0  0  3  0  0  0  0  0  0
  190.1370  173.2410  136.4990 C   0  0  2  0  0  3  0  0  0  0  0  0
  184.8940  173.0670  136.9340 C   0  0  2  0  0  3  0  0  0  0  0  0
  194.0110  174.9660  136.9670 C   0  0  0  0  0  0  0  0  0  0  0  0
  187.1510  177.4660  135.6330 C   0  0  2  0  0  3  0  0  0  0  0  0
  189.0940  173.2730  135.4150 C   0  0  0  0  0  0  0  0  0  0  0  0
  193.0040  175.3390  137.7670 C   0  0  0  0  0  3  0  0  0  0  0  0
  187.6000  171.0400  137.0800 C   0  0  0  0  0  1  0  0  0  0  0  0
  189.8130  170.8460  134.7470 O   0  0  0  0  0  0  0  0  0  0  0  0
  183.4340  172.7240  136.6880 C   0  0  0  0  0  1  0  0  0  0  0  0
  192.5210  173.4420  135.7360 C   0  0  0  0  0  2  0  0  0  0  0  0
  185.0320  174.4440  137.5810 C   0  0  0  0  0  2  0  0  0  0  0  0
  186.1140  177.9710  134.8460 O   0  0  0  0  0  1  0  0  0  0  0  0
  184.5450  175.5720  136.6760 C   0  0  0  0  0  2  0  0  0  0  0  0
  189.7910  176.9730  136.9810 C   0  0  0  0  0  0  0  0  0  0  0  0
  189.5510  173.4460  137.7510 O   0  0  0  0  0  1  0  0  0  0  0  0
  188.6100  171.7680  134.5940 S   0  0  1  0  0  0  0  0  0  0  0  0
  191.2890  174.2170  136.2110 C   0  0  2  0  0  3  0  0  0  0  0  0
  184.9180  177.1940  137.4200 S   0  0  0  0  0  0  0  0  0  0  0  0
  189.4420  178.2060  136.2500 C   0  0  0  0  0  3  0  0  0  0  0  0
  195.4150  175.0380  137.4810 C   0  0  0  0  0  3  0  0  0  0  0  0
  195.6560  173.9800  138.5420 C   0  0  0  0  0  1  0  0  0  0  0  0
  196.4140  174.8740  136.3500 C   0  0  0  0  0  1  0  0  0  0  0  0
  1 29  1  0  0  0  0
  1 11  2  0  0  0  0
  2 30  2  0  0  0  0
  3 25  1  0  0  0  0
  3  8  1  0  0  0  0
  4 21  1  0  0  0  0
  4 14  1  0  0  0  0
  5  9  1  0  0  0  0
  5  6  1  0  0  0  0
  6 13  1  0  0  0  0
  7 11  1  0  0  0  0
  8 17  1  6  0  0  0
  9 18  1  1  0  0  0
 10 16  2  0  0  0  0
 12 26  1  1  0  0  0
 13 20  1  6  0  0  0
 13 22  1  0  0  0  0
 14 31  1  0  0  0  0
 14 17  2  0  0  0  0
 15 23  1  6  0  0  0
 15  2  1  0  0  0  0
 15  1  1  0  0  0  0
 16 12  1  0  0  0  0
 24 29  1  0  0  0  0
 24 22  1  0  0  0  0
 25  7  2  0  0  0  0
 27 19  2  1  0  0  0
 27 16  1  0  0  0  0
 27  9  1  0  0  0  0
 28 21  1  1  0  0  0
 28 12  1  0  0  0  0
 28  8  1  0  0  0  0
 30 25  1  0  0  0  0
 31 32  1  0  0  0  0
 33 31  1  0  0  0  0
M  END
>  <MODEL>
5

>  <REMARK>
 VINA RESULT:      -4.1      2.154      4.801
  Name = 
  1 active torsions:
  status: ('A' for Active; 'I' for Inactive)
    1  A    between atoms: C_1  and  C_17
                            x       y       z     vdW  Elec       q    Type
                         _______ _______ _______ _____ _____    ______ ____

>  <TORSDO>
F 1

$$$$
=
 OpenBabel10222419453D

 33 35  0  0  1  0  0  0  0  0999 V2000
  190.4020  177.5590  140.4280 C   0  0  0  0  0  0  0  0  0  0  0  0
  188.6340  177.1160  142.1170 C   0  0  0  0  0  3  0  0  0  0  0  0
  186.0370  178.5170  139.9620 O   0  0  0  0  0  0  0  0  0  0  0  0
  183.0360  177.4370  138.2620 C   0  0  0  0  0  2  0  0  0  0  0  0
  190.2140  174.2470  135.5470 C   0  0  0  0  0  2  0  0  0  0  0  0
  190.6420  174.9510  136.8310 C   0  0  0  0  0  2  0  0  0  0  0  0
  188.3550  178.6350  139.4750 C   0  0  0  0  0  3  0  0  0  0  0  0
  185.6210  178.6880  138.6080 C   0  0  2  0  0  3  0  0  0  0  0  0
  188.9190  174.8040  134.9540 C   0  0  2  0  0  3  0  0  0  0  0  0
  187.8450  175.5050  138.4270 C   0  0  0  0  0  2  0  0  0  0  0  0
  189.8070  178.4660  139.6540 C   0  0  0  0  0  3  0  0  0  0  0  0
  186.6120  176.9990  136.8910 C   0  0  2  0  0  3  0  0  0  0  0  0
  191.7600  175.9520  136.5600 C   0  0  2  0  0  3  0  0  0  0  0  0
  183.1400  178.9260  138.4510 C   0  0  0  0  0  0  0  0  0  0  0  0
  189.6130  176.5120  141.1660 C   0  0  2  0  0  3  0  0  0  0  0  0
  187.3430  175.7240  137.2120 C   0  0  0  0  0  0  0  0  0  0  0  0
  184.3450  179.4960  138.5810 C   0  0  0  0  0  3  0  0  0  0  0  0
  189.0240  176.2770  134.5940 C   0  0  0  0  0  1  0  0  0  0  0  0
  186.2810  174.6570  135.0700 O   0  0  0  0  0  0  0  0  0  0  0  0
  193.0760  175.2420  136.2870 C   0  0  0  0  0  1  0  0  0  0  0  0
  184.1370  176.9830  137.3140 C   0  0  0  0  0  2  0  0  0  0  0  0
  191.9040  176.9510  137.7060 C   0  0  0  0  0  2  0  0  0  0  0  0
  190.4520  175.6390  141.8600 O   0  0  0  0  0  1  0  0  0  0  0  0
  192.2350  176.2800  139.0360 C   0  0  0  0  0  2  0  0  0  0  0  0
  187.3730  178.3380  140.3420 C   0  0  0  0  0  0  0  0  0  0  0  0
  187.5130  178.0560  136.7370 O   0  0  0  0  0  1  0  0  0  0  0  0
  187.4760  174.4360  135.9890 S   0  0  1  0  0  0  0  0  0  0  0  0
  185.5080  177.2980  137.9170 C   0  0  2  0  0  3  0  0  0  0  0  0
  192.1970  177.4980  140.3920 S   0  0  0  0  0  0  0  0  0  0  0  0
  187.6240  177.8920  141.7260 C   0  0  0  0  0  3  0  0  0  0  0  0
  181.9240  179.7980  138.3900 C   0  0  0  0  0  3  0  0  0  0  0  0
  182.2890  181.2500  138.6330 C   0  0  0  0  0  1  0  0  0  0  0  0
  181.2240  179.6560  137.0510 C   0  0  0  0  0  1  0  0  0  0  0  0
  1 15  1  0  0  0  0
  3 25  1  0  0  0  0
  4 14  1  0  0  0  0
  5  6  1  0  0  0  0
  7 11  1  0  0  0  0
  7 25  2  0  0  0  0
  8 17  1  1  0  0  0
  8  3  1  0  0  0  0
  9 18  1  1  0  0  0
  9  5  1  0  0  0  0
  9 27  1  0  0  0  0
 11  1  2  0  0  0  0
 12 26  1  1  0  0  0
 12 16  1  0  0  0  0
 12 28  1  0  0  0  0
 13 20  1  1  0  0  0
 13  6  1  0  0  0  0
 13 22  1  0  0  0  0
 14 17  2  0  0  0  0
 15 23  1  1  0  0  0
 15  2  1  0  0  0  0
 16 10  2  0  0  0  0
 21  4  1  0  0  0  0
 22 24  1  0  0  0  0
 24 29  1  0  0  0  0
 25 30  1  0  0  0  0
 27 19  2  6  0  0  0
 27 16  1  0  0  0  0
 28 21  1  6  0  0  0
 28  8  1  0  0  0  0
 29  1  1  0  0  0  0
 30  2  2  0  0  0  0
 31 14  1  0  0  0  0
 31 32  1  0  0  0  0
 33 31  1  0  0  0  0
M  END
>  <MODEL>
6

>  <REMARK>
 VINA RESULT:      -4.1      2.313      8.655
  Name = 
  1 active torsions:
  status: ('A' for Active; 'I' for Inactive)
    1  A    between atoms: C_1  and  C_17
                            x       y       z     vdW  Elec       q    Type
                         _______ _______ _______ _____ _____    ______ ____

>  <TORSDO>
F 1

$$$$
=
 OpenBabel10222419453D

 33 35  0  0  1  0  0  0  0  0999 V2000
  184.2360  176.7730  135.9960 C   0  0  0  0  0  0  0  0  0  0  0  0
  185.6350  174.9220  136.8870 C   0  0  0  0  0  3  0  0  0  0  0  0
  187.2880  177.1380  139.2750 O   0  0  0  0  0  0  0  0  0  0  0  0
  187.6090  177.5270  142.8530 C   0  0  0  0  0  2  0  0  0  0  0  0
  180.0660  178.8470  139.6220 C   0  0  0  0  0  2  0  0  0  0  0  0
  180.8230  178.2550  138.4370 C   0  0  0  0  0  2  0  0  0  0  0  0
  185.8160  177.8980  137.5770 C   0  0  0  0  0  3  0  0  0  0  0  0
  187.1120  178.2840  140.1070 C   0  0  2  0  0  3  0  0  0  0  0  0
  180.9830  179.4800  140.6700 C   0  0  2  0  0  3  0  0  0  0  0  0
  183.4910  176.9120  139.7630 C   0  0  0  0  0  2  0  0  0  0  0  0
  184.9170  177.8420  136.4120 C   0  0  0  0  0  3  0  0  0  0  0  0
  184.6550  178.8520  140.7600 C   0  0  2  0  0  3  0  0  0  0  0  0
  180.7660  179.1850  137.2300 C   0  0  2  0  0  3  0  0  0  0  0  0
  188.6730  178.2300  142.0550 C   0  0  0  0  0  0  0  0  0  0  0  0
  184.2560  175.4790  136.7630 C   0  0  2  0  0  3  0  0  0  0  0  0
  183.4560  177.9610  140.5850 C   0  0  0  0  0  0  0  0  0  0  0  0
  188.4190  178.6010  140.7940 C   0  0  0  0  0  3  0  0  0  0  0  0
  181.8160  180.6210  140.1100 C   0  0  0  0  0  1  0  0  0  0  0  0
  182.4730  178.9650  142.7940 O   0  0  0  0  0  0  0  0  0  0  0  0
  179.3830  179.1730  136.5960 C   0  0  0  0  0  1  0  0  0  0  0  0
  186.2650  178.1820  142.5670 C   0  0  0  0  0  2  0  0  0  0  0  0
  181.8420  178.8370  136.2040 C   0  0  0  0  0  2  0  0  0  0  0  0
  183.4240  174.5260  136.1710 O   0  0  0  0  0  1  0  0  0  0  0  0
  181.7050  177.4160  135.6650 C   0  0  0  0  0  2  0  0  0  0  0  0
  186.5280  176.8990  138.1230 C   0  0  0  0  0  0  0  0  0  0  0  0
  184.8110  179.6910  139.6540 O   0  0  0  0  0  1  0  0  0  0  0  0
  181.9820  178.2450  141.5440 S   0  0  1  0  0  0  0  0  0  0  0  0
  185.9230  178.0450  141.0820 C   0  0  2  0  0  3  0  0  0  0  0  0
  183.1260  176.9980  134.6020 S   0  0  0  0  0  0  0  0  0  0  0  0
  186.6190  175.5510  137.5280 C   0  0  0  0  0  3  0  0  0  0  0  0
  189.9760  178.6190  142.6820 C   0  0  0  0  0  3  0  0  0  0  0  0
  189.9390  178.4000  144.1830 C   0  0  0  0  0  1  0  0  0  0  0  0
  191.1240  177.8350  142.0720 C   0  0  0  0  0  1  0  0  0  0  0  0
  1 11  2  0  0  0  0
  1 15  1  0  0  0  0
  2 30  2  0  0  0  0
  3  8  1  0  0  0  0
  5  9  1  0  0  0  0
  6  5  1  0  0  0  0
  7 25  2  0  0  0  0
  8 17  1  1  0  0  0
  8 28  1  0  0  0  0
  9 18  1  6  0  0  0
  9 27  1  0  0  0  0
 10 16  2  0  0  0  0
 11  7  1  0  0  0  0
 12 26  1  6  0  0  0
 12 28  1  0  0  0  0
 13 20  1  6  0  0  0
 13  6  1  0  0  0  0
 14 31  1  0  0  0  0
 14  4  1  0  0  0  0
 15 23  1  6  0  0  0
 15  2  1  0  0  0  0
 16 12  1  0  0  0  0
 16 27  1  0  0  0  0
 17 14  2  0  0  0  0
 21  4  1  0  0  0  0
 22 13  1  0  0  0  0
 24 22  1  0  0  0  0
 25  3  1  0  0  0  0
 27 19  2  1  0  0  0
 28 21  1  1  0  0  0
 29 24  1  0  0  0  0
 29  1  1  0  0  0  0
 30 25  1  0  0  0  0
 31 32  1  0  0  0  0
 33 31  1  0  0  0  0
M  END
>  <MODEL>
7

>  <REMARK>
 VINA RESULT:      -4.0      5.227      7.326
  Name = 
  1 active torsions:
  status: ('A' for Active; 'I' for Inactive)
    1  A    between atoms: C_1  and  C_17
                            x       y       z     vdW  Elec       q    Type
                         _______ _______ _______ _____ _____    ______ ____

>  <TORSDO>
F 1

$$$$
=
 OpenBabel10222419453D

 33 35  0  0  1  0  0  0  0  0999 V2000
  183.9340  177.0290  136.7410 C   0  0  0  0  0  0  0  0  0  0  0  0
  185.5700  177.8770  135.0740 C   0  0  0  0  0  3  0  0  0  0  0  0
  188.0660  175.3980  136.0620 O   0  0  0  0  0  0  0  0  0  0  0  0
  189.8330  172.5940  134.6220 C   0  0  0  0  0  2  0  0  0  0  0  0
  181.6320  171.7070  135.6380 C   0  0  0  0  0  2  0  0  0  0  0  0
  181.8330  173.1910  135.9300 C   0  0  0  0  0  2  0  0  0  0  0  0
  186.0270  175.7470  137.2230 C   0  0  0  0  0  3  0  0  0  0  0  0
  188.2510  174.0670  136.5420 C   0  0  2  0  0  3  0  0  0  0  0  0
  182.9000  170.8750  135.8340 C   0  0  2  0  0  3  0  0  0  0  0  0
  184.8070  173.8600  134.7530 C   0  0  0  0  0  2  0  0  0  0  0  0
  184.7280  176.3480  137.5670 C   0  0  0  0  0  3  0  0  0  0  0  0
  186.2830  172.4160  136.1120 C   0  0  2  0  0  3  0  0  0  0  0  0
  181.2850  173.5570  137.3050 C   0  0  2  0  0  3  0  0  0  0  0  0
  190.4750  173.1640  135.8570 C   0  0  0  0  0  0  0  0  0  0  0  0
  184.2640  177.1860  135.2810 C   0  0  2  0  0  3  0  0  0  0  0  0
  185.1160  172.6390  135.1900 C   0  0  0  0  0  0  0  0  0  0  0  0
  189.7260  173.8180  136.7520 C   0  0  0  0  0  3  0  0  0  0  0  0
  183.4310  170.9410  137.2570 C   0  0  0  0  0  1  0  0  0  0  0  0
  185.1320  170.0750  134.6620 O   0  0  0  0  0  0  0  0  0  0  0  0
  179.7650  173.5690  137.3030 C   0  0  0  0  0  1  0  0  0  0  0  0
  188.4930  171.9820  135.0020 C   0  0  0  0  0  2  0  0  0  0  0  0
  181.8420  174.8940  137.7910 C   0  0  0  0  0  2  0  0  0  0  0  0
  183.2600  177.8820  134.6060 O   0  0  0  0  0  1  0  0  0  0  0  0
  181.4920  176.0520  136.8610 C   0  0  0  0  0  2  0  0  0  0  0  0
  186.8980  176.1410  136.2800 C   0  0  0  0  0  0  0  0  0  0  0  0
  185.9710  172.8310  137.4090 O   0  0  0  0  0  1  0  0  0  0  0  0
  184.1680  171.2530  134.5940 S   0  0  1  0  0  0  0  0  0  0  0  0
  187.5690  173.0610  135.5710 C   0  0  2  0  0  3  0  0  0  0  0  0
  182.3480  177.5730  137.3860 S   0  0  0  0  0  0  0  0  0  0  0  0
  186.7330  177.3770  135.4910 C   0  0  0  0  0  3  0  0  0  0  0  0
  191.9220  172.9190  136.1560 C   0  0  0  0  0  3  0  0  0  0  0  0
  192.6480  172.4060  134.9260 C   0  0  0  0  0  1  0  0  0  0  0  0
  192.5910  174.1840  136.6620 C   0  0  0  0  0  1  0  0  0  0  0  0
  1 29  1  0  0  0  0
  1 11  2  0  0  0  0
  2 15  1  0  0  0  0
  2 30  2  0  0  0  0
  3 25  1  0  0  0  0
  3  8  1  0  0  0  0
  4 21  1  0  0  0  0
  4 14  1  0  0  0  0
  5  9  1  0  0  0  0
  5  6  1  0  0  0  0
  6 13  1  0  0  0  0
  7 11  1  0  0  0  0
  8 17  1  6  0  0  0
  9 18  1  1  0  0  0
 10 16  2  0  0  0  0
 12 26  1  1  0  0  0
 13 20  1  6  0  0  0
 13 22  1  0  0  0  0
 14 31  1  0  0  0  0
 14 17  2  0  0  0  0
 15 23  1  6  0  0  0
 15  1  1  0  0  0  0
 16 12  1  0  0  0  0
 24 29  1  0  0  0  0
 24 22  1  0  0  0  0
 25  7  2  0  0  0  0
 27 19  2  1  0  0  0
 27 16  1  0  0  0  0
 27  9  1  0  0  0  0
 28 21  1  1  0  0  0
 28 12  1  0  0  0  0
 28  8  1  0  0  0  0
 30 25  1  0  0  0  0
 31 33  1  0  0  0  0
 32 31  1  0  0  0  0
M  END
>  <MODEL>
8

>  <REMARK>
 VINA RESULT:      -4.0      3.176      6.434
  Name = 
  1 active torsions:
  status: ('A' for Active; 'I' for Inactive)
    1  A    between atoms: C_1  and  C_17
                            x       y       z     vdW  Elec       q    Type
                         _______ _______ _______ _____ _____    ______ ____

>  <TORSDO>
F 1

$$$$
=
 OpenBabel10222419453D

 33 35  0  0  1  0  0  0  0  0999 V2000
  181.8370  178.0350  139.5210 C   0  0  0  0  0  0  0  0  0  0  0  0
  183.0070  179.9920  138.5340 C   0  0  0  0  0  3  0  0  0  0  0  0
  186.1970  178.2130  138.4490 O   0  0  0  0  0  0  0  0  0  0  0  0
  188.5940  177.0400  136.0120 C   0  0  0  0  0  2  0  0  0  0  0  0
  181.1360  173.3720  135.9720 C   0  0  0  0  0  2  0  0  0  0  0  0
  180.9100  174.5470  136.9190 C   0  0  0  0  0  2  0  0  0  0  0  0
  184.2480  177.3690  139.5050 C   0  0  0  0  0  3  0  0  0  0  0  0
  186.8070  176.9340  138.2840 C   0  0  2  0  0  3  0  0  0  0  0  0
  182.6050  172.9650  135.8520 C   0  0  2  0  0  3  0  0  0  0  0  0
  183.4460  176.5340  136.3730 C   0  0  0  0  0  2  0  0  0  0  0  0
  182.8610  177.3280  139.9980 C   0  0  0  0  0  3  0  0  0  0  0  0
  185.3890  175.1500  137.0220 C   0  0  2  0  0  3  0  0  0  0  0  0
  180.3920  174.0680  138.2710 C   0  0  2  0  0  3  0  0  0  0  0  0
  189.1360  177.1530  137.4110 C   0  0  0  0  0  0  0  0  0  0  0  0
  181.9860  178.9250  138.3180 C   0  0  2  0  0  3  0  0  0  0  0  0
  184.1370  175.4030  136.2270 C   0  0  0  0  0  0  0  0  0  0  0  0
  188.3010  177.0730  138.4540 C   0  0  0  0  0  3  0  0  0  0  0  0
  183.2060  172.5370  137.1800 C   0  0  0  0  0  1  0  0  0  0  0  0
  184.8710  173.4930  134.5940 O   0  0  0  0  0  0  0  0  0  0  0  0
  178.9410  173.6220  138.1740 C   0  0  0  0  0  1  0  0  0  0  0  0
  187.5300  175.9510  135.9830 C   0  0  0  0  0  2  0  0  0  0  0  0
  180.5650  175.1390  139.3460 C   0  0  0  0  0  2  0  0  0  0  0  0
  180.7690  179.5140  137.9680 O   0  0  0  0  0  1  0  0  0  0  0  0
  179.8120  176.4260  139.0230 C   0  0  0  0  0  2  0  0  0  0  0  0
  184.8840  178.3880  138.9040 C   0  0  0  0  0  0  0  0  0  0  0  0
  185.0740  174.8190  138.3420 O   0  0  0  0  0  1  0  0  0  0  0  0
  183.5990  174.2240  135.0050 S   0  0  1  0  0  0  0  0  0  0  0  0
  186.3780  176.3230  136.9190 C   0  0  2  0  0  3  0  0  0  0  0  0
  180.2190  177.7240  140.2380 S   0  0  0  0  0  0  0  0  0  0  0  0
  184.2950  179.7330  138.7540 C   0  0  0  0  0  3  0  0  0  0  0  0
  190.6100  177.2470  137.6610 C   0  0  0  0  0  3  0  0  0  0  0  0
  190.9130  177.1330  139.1430 C   0  0  0  0  0  1  0  0  0  0  0  0
  191.3580  176.1720  136.8940 C   0  0  0  0  0  1  0  0  0  0  0  0
  1 11  2  0  0  0  0
  1 29  1  0  0  0  0
  2 30  2  0  0  0  0
  3 25  1  0  0  0  0
  4 14  1  0  0  0  0
  5  6  1  0  0  0  0
  6 13  1  0  0  0  0
  7 11  1  0  0  0  0
  8  3  1  0  0  0  0
  8 17  1  6  0  0  0
  9  5  1  0  0  0  0
  9 18  1  1  0  0  0
 12 26  1  1  0  0  0
 13 20  1  6  0  0  0
 13 22  1  0  0  0  0
 14 31  1  0  0  0  0
 14 17  2  0  0  0  0
 15 23  1  1  0  0  0
 15  2  1  0  0  0  0
 15  1  1  0  0  0  0
 16 10  2  0  0  0  0
 16 12  1  0  0  0  0
 21  4  1  0  0  0  0
 24 22  1  0  0  0  0
 24 29  1  0  0  0  0
 25  7  2  0  0  0  0
 27 19  2  1  0  0  0
 27  9  1  0  0  0  0
 27 16  1  0  0  0  0
 28 21  1  1  0  0  0
 28 12  1  0  0  0  0
 28  8  1  0  0  0  0
 30 25  1  0  0  0  0
 31 32  1  0  0  0  0
 33 31  1  0  0  0  0
M  END
>  <MODEL>
9

>  <REMARK>
 VINA RESULT:      -3.8      3.805      7.602
  Name = 
  1 active torsions:
  status: ('A' for Active; 'I' for Inactive)
    1  A    between atoms: C_1  and  C_17
                            x       y       z     vdW  Elec       q    Type
                         _______ _______ _______ _____ _____    ______ ____

>  <TORSDO>
F 1

$$$$
