=
 OpenBabel10222419543D

 37 41  0  0  1  0  0  0  0  0999 V2000
  186.5630  178.5930  147.6030 C   0  0  0  0  0  3  0  0  0  0  0  0
  184.5540  178.3120  143.4200 C   0  0  0  0  0  3  0  0  0  0  0  0
  185.4380  178.6330  139.6220 C   0  0  1  0  0  3  0  0  0  0  0  0
  189.2520  177.4820  141.5370 C   0  0  1  0  0  3  0  0  0  0  0  0
  186.8040  178.4310  146.2400 C   0  0  0  0  0  0  0  0  0  0  0  0
  186.6700  177.9810  139.5140 O   0  0  0  0  0  0  0  0  0  0  0  0
  187.2800  177.8930  148.5180 N   0  0  0  0  0  0  0  0  0  0  0  0
  188.5230  176.8430  146.8150 N   0  0  0  0  0  0  0  0  0  0  0  0
  187.8250  177.5010  145.8520 C   0  0  0  0  0  0  0  0  0  0  0  0
  184.6810  178.3520  138.4830 O   0  0  0  0  0  1  0  0  0  0  0  0
  189.9890  177.7160  142.8460 C   0  0  0  0  0  2  0  0  0  0  0  0
  187.5730  178.8480  140.1330 C   0  0  0  0  0  2  0  0  0  0  0  0
  184.7800  178.6740  144.7120 C   0  0  0  0  0  3  0  0  0  0  0  0
  185.4860  178.4600  142.1930 C   0  0  1  0  0  3  0  0  0  0  0  0
  188.1140  177.2030  144.4300 C   0  0  1  0  0  3  0  0  0  0  0  0
  188.2550  177.0300  148.1330 C   0  0  0  0  0  3  0  0  0  0  0  0
  187.0810  177.3860  143.6430 C   0  0  0  0  0  2  0  0  0  0  0  0
  186.7890  177.5810  142.2140 C   0  0  2  0  0  3  0  0  0  0  0  0
  189.4680  176.7940  143.9380 C   0  0  0  0  0  2  0  0  0  0  0  0
  184.6810  178.1990  140.8900 C   0  0  1  0  0  3  0  0  0  0  0  0
  187.9570  178.3250  141.5230 C   0  0  1  0  0  3  0  0  0  0  0  0
  186.0370  179.3220  145.2640 C   0  0  0  0  0  2  0  0  0  0  0  0
  190.2260  177.7820  140.3970 C   0  0  0  0  0  2  0  0  0  0  0  0
  190.5240  176.5410  139.5530 C   0  0  0  0  0  2  0  0  0  0  0  0
  190.5660  176.8060  138.0430 C   0  0  1  0  0  3  0  0  0  0  0  0
  191.4520  174.5840  138.0330 O   0  0  0  0  0  1  0  0  0  0  0  0
  191.3770  175.7620  137.2900 C   0  0  0  0  0  2  0  0  0  0  0  0
  189.2220  176.8850  137.4940 N   0  0  0  0  0  2  0  0  0  0  0  0
  189.1090  178.1660  136.8210 C   0  0  0  0  0  2  0  0  0  0  0  0
  187.7270  178.3000  136.2200 C   0  0  0  0  0  1  0  0  0  0  0  0
  183.3330  178.9220  140.9170 C   0  0  0  0  0  2  0  0  0  0  0  0
  179.9850  176.5380  139.7930 N   0  0  0  0  0  2  0  0  0  0  0  0
  182.4290  176.7290  139.8680 C   0  0  0  0  0  2  0  0  0  0  0  0
  182.2110  177.9530  140.7270 C   0  0  0  0  0  0  0  0  0  0  0  0
  179.8330  177.3210  141.0190 C   0  0  0  0  0  2  0  0  0  0  0  0
  181.2290  175.7790  139.9030 C   0  0  0  0  0  2  0  0  0  0  0  0
  180.9930  178.2630  141.1990 C   0  0  0  0  0  3  0  0  0  0  0  0
  1  7  1  0  0  0  0
  2 13  2  0  0  0  0
  3 10  1  6  0  0  0
  3 20  1  0  0  0  0
  4 23  1  6  0  0  0
  4 11  1  0  0  0  0
  5  1  2  0  0  0  0
  6  3  1  0  0  0  0
  6 12  1  0  0  0  0
  8 16  1  0  0  0  0
  9  5  1  0  0  0  0
  9  8  2  0  0  0  0
 11 19  1  0  0  0  0
 13 22  1  0  0  0  0
 14 18  1  0  0  0  0
 14  2  1  1  0  0  0
 15 17  1  6  0  0  0
 15  9  1  0  0  0  0
 16  7  2  0  0  0  0
 18 17  1  1  0  0  0
 19 15  1  0  0  0  0
 20 31  1  1  0  0  0
 20 14  1  0  0  0  0
 21 12  1  6  0  0  0
 21  4  1  0  0  0  0
 21 18  1  0  0  0  0
 22  5  1  0  0  0  0
 24 23  1  0  0  0  0
 25 27  1  6  0  0  0
 25 24  1  0  0  0  0
 27 26  1  0  0  0  0
 28 25  1  0  0  0  0
 29 28  1  0  0  0  0
 30 29  1  0  0  0  0
 32 36  1  0  0  0  0
 32 35  1  0  0  0  0
 33 36  1  0  0  0  0
 33 34  1  0  0  0  0
 34 31  1  0  0  0  0
 34 37  2  0  0  0  0
 35 37  1  0  0  0  0
M  END
>  <MODEL>
1

>  <REMARK>
 VINA RESULT:      -7.7      0.000      0.000
  Name = 
  8 active torsions:
  status: ('A' for Active; 'I' for Inactive)
    1  A    between atoms: N_3  and  C_9
    2  A    between atoms: N_3  and  CA_14
    3  A    between atoms: C_5  and  C_20
    4  A    between atoms: C_6  and  CA_14
    5  A    between atoms: C_6  and  C_20
    6  A    between atoms: CA_14  and  C_30
    7  A    between atoms: C_22  and  C_29
    8  A    between atoms: C_29  and  C_34
                            x       y       z     vdW  Elec       q    Type
                         _______ _______ _______ _____ _____    ______ ____

>  <TORSDO>
F 8

$$$$
=
 OpenBabel10222419543D

 37 41  0  0  1  0  0  0  0  0999 V2000
  188.4090  176.6460  136.8470 C   0  0  0  0  0  3  0  0  0  0  0  0
  184.2560  178.4630  137.8780 C   0  0  0  0  0  3  0  0  0  0  0  0
  181.8100  178.8700  140.9060 C   0  0  1  0  0  3  0  0  0  0  0  0
  185.7980  178.4780  142.7700 C   0  0  1  0  0  3  0  0  0  0  0  0
  187.5860  177.0710  137.8880 C   0  0  0  0  0  0  0  0  0  0  0  0
  182.6560  179.1840  141.9730 O   0  0  0  0  0  0  0  0  0  0  0  0
  189.7430  176.8870  136.8800 N   0  0  0  0  0  0  0  0  0  0  0  0
  189.5480  177.9630  138.9650 N   0  0  0  0  0  0  0  0  0  0  0  0
  188.2030  177.7680  138.9790 C   0  0  0  0  0  0  0  0  0  0  0  0
  180.6330  179.6100  141.0330 O   0  0  0  0  0  1  0  0  0  0  0  0
  187.1080  177.7450  142.5240 C   0  0  0  0  0  2  0  0  0  0  0  0
  183.3210  177.9870  142.2490 C   0  0  0  0  0  2  0  0  0  0  0  0
  185.2180  177.7470  137.2360 C   0  0  0  0  0  3  0  0  0  0  0  0
  183.8150  178.3850  139.3600 C   0  0  1  0  0  3  0  0  0  0  0  0
  187.4120  178.3220  140.1030 C   0  0  1  0  0  3  0  0  0  0  0  0
  190.3130  177.5330  137.9290 C   0  0  0  0  0  3  0  0  0  0  0  0
  186.1770  178.6140  139.7720 C   0  0  0  0  0  2  0  0  0  0  0  0
  184.8780  178.8600  140.4170 C   0  0  2  0  0  3  0  0  0  0  0  0
  187.9540  178.4720  141.4900 C   0  0  0  0  0  2  0  0  0  0  0  0
  182.4820  179.1590  139.5510 C   0  0  1  0  0  3  0  0  0  0  0  0
  184.7580  178.0320  141.7180 C   0  0  1  0  0  3  0  0  0  0  0  0
  186.1100  176.6800  137.8430 C   0  0  0  0  0  2  0  0  0  0  0  0
  185.3920  178.2250  144.2220 C   0  0  0  0  0  2  0  0  0  0  0  0
  186.4810  177.4870  145.0040 C   0  0  0  0  0  2  0  0  0  0  0  0
  186.8570  178.1520  146.3340 C   0  0  1  0  0  3  0  0  0  0  0  0
  185.9660  179.9270  147.6680 O   0  0  0  0  0  1  0  0  0  0  0  0
  185.6470  178.7080  147.0700 C   0  0  0  0  0  2  0  0  0  0  0  0
  187.5800  177.2260  147.1900 N   0  0  0  0  0  2  0  0  0  0  0  0
  188.9360  177.7310  147.3160 C   0  0  0  0  0  2  0  0  0  0  0  0
  189.1290  178.3150  148.6990 C   0  0  0  0  0  1  0  0  0  0  0  0
  181.4850  178.8290  138.4390 C   0  0  0  0  0  2  0  0  0  0  0  0
  179.9500  182.2180  136.3620 N   0  0  0  0  0  2  0  0  0  0  0  0
  181.2440  181.4070  138.2800 C   0  0  0  0  0  2  0  0  0  0  0  0
  181.1790  180.0460  137.6260 C   0  0  0  0  0  0  0  0  0  0  0  0
  180.3790  181.0950  135.5300 C   0  0  0  0  0  2  0  0  0  0  0  0
  181.0480  182.5410  137.2710 C   0  0  0  0  0  2  0  0  0  0  0  0
  180.7100  179.8970  136.3780 C   0  0  0  0  0  3  0  0  0  0  0  0
  1  7  2  0  0  0  0
  1  5  1  0  0  0  0
  3 10  1  1  0  0  0
  3  6  1  0  0  0  0
  4 23  1  1  0  0  0
  5  9  2  0  0  0  0
  6 12  1  0  0  0  0
  7 16  1  0  0  0  0
  8  9  1  0  0  0  0
  9 15  1  0  0  0  0
 11  4  1  0  0  0  0
 13 22  1  0  0  0  0
 13  2  2  0  0  0  0
 14  2  1  6  0  0  0
 14 20  1  0  0  0  0
 14 18  1  0  0  0  0
 15 17  1  1  0  0  0
 15 19  1  0  0  0  0
 16  8  2  0  0  0  0
 18 17  1  6  0  0  0
 18 21  1  0  0  0  0
 19 11  1  0  0  0  0
 20 31  1  6  0  0  0
 20  3  1  0  0  0  0
 21 12  1  1  0  0  0
 21  4  1  0  0  0  0
 22  5  1  0  0  0  0
 23 24  1  0  0  0  0
 25 24  1  6  0  0  0
 25 27  1  0  0  0  0
 25 28  1  0  0  0  0
 27 26  1  0  0  0  0
 28 29  1  0  0  0  0
 29 30  1  0  0  0  0
 32 36  1  0  0  0  0
 34 33  1  0  0  0  0
 34 31  1  0  0  0  0
 35 32  1  0  0  0  0
 35 37  1  0  0  0  0
 36 33  1  0  0  0  0
 37 34  2  0  0  0  0
M  END
>  <MODEL>
2

>  <REMARK>
 VINA RESULT:      -7.3      3.063      7.247
  Name = 
  8 active torsions:
  status: ('A' for Active; 'I' for Inactive)
    1  A    between atoms: N_3  and  C_9
    2  A    between atoms: N_3  and  CA_14
    3  A    between atoms: C_5  and  C_20
    4  A    between atoms: C_6  and  CA_14
    5  A    between atoms: C_6  and  C_20
    6  A    between atoms: CA_14  and  C_30
    7  A    between atoms: C_22  and  C_29
    8  A    between atoms: C_29  and  C_34
                            x       y       z     vdW  Elec       q    Type
                         _______ _______ _______ _____ _____    ______ ____

>  <TORSDO>
F 8

$$$$
=
 OpenBabel10222419543D

 37 41  0  0  1  0  0  0  0  0999 V2000
  190.8790  175.8300  136.7020 C   0  0  0  0  0  3  0  0  0  0  0  0
  187.1940  178.2490  138.1780 C   0  0  0  0  0  3  0  0  0  0  0  0
  185.0620  178.8250  141.4080 C   0  0  1  0  0  3  0  0  0  0  0  0
  189.0290  177.6000  142.9230 C   0  0  1  0  0  3  0  0  0  0  0  0
  190.2150  176.3050  137.8310 C   0  0  0  0  0  0  0  0  0  0  0  0
  186.0180  178.9010  142.4250 O   0  0  0  0  0  0  0  0  0  0  0  0
  192.2350  175.8340  136.6470 N   0  0  0  0  0  0  0  0  0  0  0  0
  192.3710  176.7550  138.8100 N   0  0  0  0  0  0  0  0  0  0  0  0
  191.0160  176.7950  138.9150 C   0  0  0  0  0  0  0  0  0  0  0  0
  184.0470  179.7450  141.6780 O   0  0  0  0  0  1  0  0  0  0  0  0
  190.1680  176.6740  142.5260 C   0  0  0  0  0  2  0  0  0  0  0  0
  186.4750  177.5880  142.5660 C   0  0  0  0  0  2  0  0  0  0  0  0
  187.9690  177.4320  137.4140 C   0  0  0  0  0  3  0  0  0  0  0  0
  186.8430  178.1280  139.6810 C   0  0  1  0  0  3  0  0  0  0  0  0
  190.4110  177.3840  140.1330 C   0  0  1  0  0  3  0  0  0  0  0  0
  192.9780  176.2840  137.6900 C   0  0  0  0  0  3  0  0  0  0  0  0
  189.2300  177.9110  139.9200 C   0  0  0  0  0  2  0  0  0  0  0  0
  188.0400  178.3250  140.6800 C   0  0  2  0  0  3  0  0  0  0  0  0
  191.0610  177.3250  141.4810 C   0  0  0  0  0  2  0  0  0  0  0  0
  185.6850  179.1030  140.0280 C   0  0  1  0  0  3  0  0  0  0  0  0
  187.8600  177.4270  141.9280 C   0  0  1  0  0  3  0  0  0  0  0  0
  188.6930  176.1800  137.8750 C   0  0  0  0  0  2  0  0  0  0  0  0
  188.6800  177.3040  144.3820 C   0  0  0  0  0  2  0  0  0  0  0  0
  189.8320  177.6440  145.3300 C   0  0  0  0  0  2  0  0  0  0  0  0
  189.4020  177.8620  146.7850 C   0  0  1  0  0  3  0  0  0  0  0  0
  187.6170  177.6770  148.3670 O   0  0  0  0  0  1  0  0  0  0  0  0
  187.9450  177.4950  147.0230 C   0  0  0  0  0  2  0  0  0  0  0  0
  190.2590  177.1210  147.6960 N   0  0  0  0  0  2  0  0  0  0  0  0
  191.4140  176.6820  146.9340 C   0  0  0  0  0  2  0  0  0  0  0  0
  192.1650  175.6280  147.7190 C   0  0  0  0  0  1  0  0  0  0  0  0
  184.5740  179.0410  138.9780 C   0  0  0  0  0  2  0  0  0  0  0  0
  182.3220  175.4590  138.4700 N   0  0  0  0  0  2  0  0  0  0  0  0
  184.2820  176.7610  137.7770 C   0  0  0  0  0  2  0  0  0  0  0  0
  183.9640  177.6780  138.9350 C   0  0  0  0  0  0  0  0  0  0  0  0
  182.3840  175.9920  139.8300 C   0  0  0  0  0  2  0  0  0  0  0  0
  183.6920  175.3610  137.9700 C   0  0  0  0  0  2  0  0  0  0  0  0
  183.0320  177.3500  139.8440 C   0  0  0  0  0  3  0  0  0  0  0  0
  1  5  1  0  0  0  0
  3 10  1  1  0  0  0
  3  6  1  0  0  0  0
  4 23  1  1  0  0  0
  5 22  1  0  0  0  0
  5  9  2  0  0  0  0
  6 12  1  0  0  0  0
  7  1  2  0  0  0  0
  7 16  1  0  0  0  0
  8  9  1  0  0  0  0
  9 15  1  0  0  0  0
 11  4  1  0  0  0  0
 13 22  1  0  0  0  0
 13  2  2  0  0  0  0
 14  2  1  6  0  0  0
 14 20  1  0  0  0  0
 14 18  1  0  0  0  0
 15 17  1  1  0  0  0
 15 19  1  0  0  0  0
 16  8  2  0  0  0  0
 18 17  1  6  0  0  0
 18 21  1  0  0  0  0
 19 11  1  0  0  0  0
 20 31  1  6  0  0  0
 20  3  1  0  0  0  0
 21 12  1  1  0  0  0
 21  4  1  0  0  0  0
 23 24  1  0  0  0  0
 25 24  1  6  0  0  0
 25 27  1  0  0  0  0
 25 28  1  0  0  0  0
 27 26  1  0  0  0  0
 29 28  1  0  0  0  0
 29 30  1  0  0  0  0
 32 35  1  0  0  0  0
 33 36  1  0  0  0  0
 33 34  1  0  0  0  0
 34 31  1  0  0  0  0
 34 37  2  0  0  0  0
 35 37  1  0  0  0  0
 36 32  1  0  0  0  0
M  END
>  <MODEL>
3

>  <REMARK>
 VINA RESULT:      -6.9      2.436      6.875
  Name = 
  8 active torsions:
  status: ('A' for Active; 'I' for Inactive)
    1  A    between atoms: N_3  and  C_9
    2  A    between atoms: N_3  and  CA_14
    3  A    between atoms: C_5  and  C_20
    4  A    between atoms: C_6  and  CA_14
    5  A    between atoms: C_6  and  C_20
    6  A    between atoms: CA_14  and  C_30
    7  A    between atoms: C_22  and  C_29
    8  A    between atoms: C_29  and  C_34
                            x       y       z     vdW  Elec       q    Type
                         _______ _______ _______ _____ _____    ______ ____

>  <TORSDO>
F 8

$$$$
=
 OpenBabel10222419543D

 37 41  0  0  1  0  0  0  0  0999 V2000
  192.1430  174.6990  136.4800 C   0  0  0  0  0  3  0  0  0  0  0  0
  188.3110  177.2900  136.9350 C   0  0  0  0  0  3  0  0  0  0  0  0
  185.8820  178.6240  139.6980 C   0  0  1  0  0  3  0  0  0  0  0  0
  189.7050  177.9840  141.8220 C   0  0  1  0  0  3  0  0  0  0  0  0
  191.3720  175.4320  137.3810 C   0  0  0  0  0  0  0  0  0  0  0  0
  186.7390  178.9990  140.7370 O   0  0  0  0  0  0  0  0  0  0  0  0
  193.4980  174.7360  136.5440 N   0  0  0  0  0  0  0  0  0  0  0  0
  193.4230  176.2000  138.3870 N   0  0  0  0  0  0  0  0  0  0  0  0
  192.0640  176.2190  138.3600 C   0  0  0  0  0  0  0  0  0  0  0  0
  184.8360  179.5460  139.6250 O   0  0  0  0  0  1  0  0  0  0  0  0
  190.8860  177.0260  141.7850 C   0  0  0  0  0  2  0  0  0  0  0  0
  187.1950  177.7880  141.2610 C   0  0  0  0  0  2  0  0  0  0  0  0
  189.1620  176.3280  136.4870 C   0  0  0  0  0  3  0  0  0  0  0  0
  187.8230  177.5580  138.3800 C   0  0  1  0  0  3  0  0  0  0  0  0
  191.3420  177.0870  139.3200 C   0  0  1  0  0  3  0  0  0  0  0  0
  194.1360  175.4720  137.4890 C   0  0  0  0  0  3  0  0  0  0  0  0
  190.1800  177.4970  138.8730 C   0  0  0  0  0  2  0  0  0  0  0  0
  188.9210  178.0550  139.3900 C   0  0  2  0  0  3  0  0  0  0  0  0
  191.8650  177.4090  140.6860 C   0  0  0  0  0  2  0  0  0  0  0  0
  186.6270  178.5490  138.3530 C   0  0  1  0  0  3  0  0  0  0  0  0
  188.6350  177.5130  140.8110 C   0  0  1  0  0  3  0  0  0  0  0  0
  189.8550  175.2690  137.3250 C   0  0  0  0  0  2  0  0  0  0  0  0
  189.2260  178.0720  143.2710 C   0  0  0  0  0  2  0  0  0  0  0  0
  190.3780  177.9310  144.2680 C   0  0  0  0  0  2  0  0  0  0  0  0
  190.0380  177.0880  145.5020 C   0  0  1  0  0  3  0  0  0  0  0  0
  192.0070  175.8940  146.1490 O   0  0  0  0  0  1  0  0  0  0  0  0
  191.2010  176.9840  146.4770 C   0  0  0  0  0  2  0  0  0  0  0  0
  188.8640  177.6130  146.1800 N   0  0  0  0  0  2  0  0  0  0  0  0
  189.2440  177.8700  147.5580 C   0  0  0  0  0  2  0  0  0  0  0  0
  188.0740  177.5690  148.4680 C   0  0  0  0  0  1  0  0  0  0  0  0
  185.6190  178.1730  137.2650 C   0  0  0  0  0  2  0  0  0  0  0  0
  183.3250  174.5980  137.6110 N   0  0  0  0  0  2  0  0  0  0  0  0
  185.4850  175.5940  137.0150 C   0  0  0  0  0  2  0  0  0  0  0  0
  184.9450  176.8800  137.5960 C   0  0  0  0  0  0  0  0  0  0  0  0
  183.0710  175.6250  138.6210 C   0  0  0  0  0  2  0  0  0  0  0  0
  184.7670  174.3630  137.5720 C   0  0  0  0  0  2  0  0  0  0  0  0
  183.7890  176.9020  138.2780 C   0  0  0  0  0  3  0  0  0  0  0  0
  1  7  2  0  0  0  0
  1  5  1  0  0  0  0
  3 10  1  6  0  0  0
  3  6  1  0  0  0  0
  4 23  1  1  0  0  0
  5  9  2  0  0  0  0
  6 12  1  0  0  0  0
  7 16  1  0  0  0  0
  9  8  1  0  0  0  0
  9 15  1  0  0  0  0
 11  4  1  0  0  0  0
 13  2  2  0  0  0  0
 13 22  1  0  0  0  0
 14  2  1  6  0  0  0
 14 18  1  0  0  0  0
 15 17  1  1  0  0  0
 15 19  1  0  0  0  0
 16  8  2  0  0  0  0
 18 17  1  6  0  0  0
 18 21  1  0  0  0  0
 19 11  1  0  0  0  0
 20 31  1  6  0  0  0
 20 14  1  0  0  0  0
 20  3  1  0  0  0  0
 21 12  1  1  0  0  0
 21  4  1  0  0  0  0
 22  5  1  0  0  0  0
 23 24  1  0  0  0  0
 25 24  1  6  0  0  0
 25 28  1  0  0  0  0
 25 27  1  0  0  0  0
 26 27  1  0  0  0  0
 28 29  1  0  0  0  0
 29 30  1  0  0  0  0
 31 34  1  0  0  0  0
 32 35  1  0  0  0  0
 33 36  1  0  0  0  0
 33 34  1  0  0  0  0
 34 37  2  0  0  0  0
 36 32  1  0  0  0  0
 37 35  1  0  0  0  0
M  END
>  <MODEL>
4

>  <REMARK>
 VINA RESULT:      -6.9      2.653      7.159
  Name = 
  8 active torsions:
  status: ('A' for Active; 'I' for Inactive)
    1  A    between atoms: N_3  and  C_9
    2  A    between atoms: N_3  and  CA_14
    3  A    between atoms: C_5  and  C_20
    4  A    between atoms: C_6  and  CA_14
    5  A    between atoms: C_6  and  C_20
    6  A    between atoms: CA_14  and  C_30
    7  A    between atoms: C_22  and  C_29
    8  A    between atoms: C_29  and  C_34
                            x       y       z     vdW  Elec       q    Type
                         _______ _______ _______ _____ _____    ______ ____

>  <TORSDO>
F 8

$$$$
=
 OpenBabel10222419543D

 37 41  0  0  1  0  0  0  0  0999 V2000
  187.1030  176.6930  135.8640 C   0  0  0  0  0  3  0  0  0  0  0  0
  183.7880  178.4510  138.6080 C   0  0  0  0  0  3  0  0  0  0  0  0
  182.8540  178.7530  142.3960 C   0  0  1  0  0  3  0  0  0  0  0  0
  187.2550  178.3370  142.3860 C   0  0  1  0  0  3  0  0  0  0  0  0
  186.8010  177.0820  137.1670 C   0  0  0  0  0  0  0  0  0  0  0  0
  184.0740  179.0430  143.0140 O   0  0  0  0  0  0  0  0  0  0  0  0
  188.3280  176.9430  135.3370 N   0  0  0  0  0  0  0  0  0  0  0  0
  189.0400  177.9580  137.3390 N   0  0  0  0  0  0  0  0  0  0  0  0
  187.8250  177.7530  137.9140 C   0  0  0  0  0  0  0  0  0  0  0  0
  181.8460  179.4810  143.0310 O   0  0  0  0  0  1  0  0  0  0  0  0
  188.3330  177.6200  141.5880 C   0  0  0  0  0  2  0  0  0  0  0  0
  184.7870  177.8430  142.9480 C   0  0  0  0  0  2  0  0  0  0  0  0
  184.3840  177.7600  137.5980 C   0  0  0  0  0  3  0  0  0  0  0  0
  184.0140  178.3270  140.1340 C   0  0  1  0  0  3  0  0  0  0  0  0
  187.5870  178.2680  139.2830 C   0  0  1  0  0  3  0  0  0  0  0  0
  189.2920  177.5620  136.0640 C   0  0  0  0  0  3  0  0  0  0  0  0
  186.3300  178.5610  139.5140 C   0  0  0  0  0  2  0  0  0  0  0  0
  185.4270  178.7790  140.6540 C   0  0  2  0  0  3  0  0  0  0  0  0
  188.6670  178.3830  140.3140 C   0  0  0  0  0  2  0  0  0  0  0  0
  182.8920  179.0860  140.8930 C   0  0  1  0  0  3  0  0  0  0  0  0
  185.8650  177.9130  141.8600 C   0  0  1  0  0  3  0  0  0  0  0  0
  185.4420  176.6820  137.7390 C   0  0  0  0  0  2  0  0  0  0  0  0
  187.5000  178.0400  143.8650 C   0  0  0  0  0  2  0  0  0  0  0  0
  188.5650  176.9600  144.0670 C   0  0  0  0  0  2  0  0  0  0  0  0
  189.2100  176.9690  145.4580 C   0  0  1  0  0  3  0  0  0  0  0  0
  190.8910  178.1260  144.2100 O   0  0  0  0  0  1  0  0  0  0  0  0
  190.6250  177.5260  145.4410 C   0  0  0  0  0  2  0  0  0  0  0  0
  188.3920  177.7110  146.4030 N   0  0  0  0  0  2  0  0  0  0  0  0
  189.1600  177.8340  147.6290 C   0  0  0  0  0  2  0  0  0  0  0  0
  188.2180  178.0510  148.7940 C   0  0  0  0  0  1  0  0  0  0  0  0
  181.5160  178.7800  140.2990 C   0  0  0  0  0  2  0  0  0  0  0  0
  179.1410  181.9720  138.7710 N   0  0  0  0  0  2  0  0  0  0  0  0
  179.5310  180.4180  140.6270 C   0  0  0  0  0  2  0  0  0  0  0  0
  180.8130  180.0440  139.9190 C   0  0  0  0  0  0  0  0  0  0  0  0
  180.5640  182.0130  138.4370 C   0  0  0  0  0  2  0  0  0  0  0  0
  179.0310  181.8060  140.2190 C   0  0  0  0  0  2  0  0  0  0  0  0
  181.2500  180.7430  138.8600 C   0  0  0  0  0  3  0  0  0  0  0  0
  1  5  1  0  0  0  0
  3  6  1  0  0  0  0
  3 10  1  1  0  0  0
  4 23  1  1  0  0  0
  5 22  1  0  0  0  0
  5  9  2  0  0  0  0
  7  1  2  0  0  0  0
  7 16  1  0  0  0  0
  8  9  1  0  0  0  0
  9 15  1  0  0  0  0
 11  4  1  0  0  0  0
 12  6  1  0  0  0  0
 13 22  1  0  0  0  0
 13  2  2  0  0  0  0
 14  2  1  6  0  0  0
 14 18  1  0  0  0  0
 14 20  1  0  0  0  0
 15 17  1  1  0  0  0
 15 19  1  0  0  0  0
 16  8  2  0  0  0  0
 18 17  1  6  0  0  0
 18 21  1  0  0  0  0
 19 11  1  0  0  0  0
 20 31  1  6  0  0  0
 20  3  1  0  0  0  0
 21  4  1  0  0  0  0
 21 12  1  1  0  0  0
 23 24  1  0  0  0  0
 25 24  1  6  0  0  0
 25 28  1  0  0  0  0
 26 27  1  0  0  0  0
 27 25  1  0  0  0  0
 28 29  1  0  0  0  0
 29 30  1  0  0  0  0
 32 36  1  0  0  0  0
 34 31  1  0  0  0  0
 34 33  1  0  0  0  0
 35 32  1  0  0  0  0
 35 37  1  0  0  0  0
 36 33  1  0  0  0  0
 37 34  2  0  0  0  0
M  END
>  <MODEL>
5

>  <REMARK>
 VINA RESULT:      -6.9      2.556      6.861
  Name = 
  8 active torsions:
  status: ('A' for Active; 'I' for Inactive)
    1  A    between atoms: N_3  and  C_9
    2  A    between atoms: N_3  and  CA_14
    3  A    between atoms: C_5  and  C_20
    4  A    between atoms: C_6  and  CA_14
    5  A    between atoms: C_6  and  C_20
    6  A    between atoms: CA_14  and  C_30
    7  A    between atoms: C_22  and  C_29
    8  A    between atoms: C_29  and  C_34
                            x       y       z     vdW  Elec       q    Type
                         _______ _______ _______ _____ _____    ______ ____

>  <TORSDO>
F 8

$$$$
=
 OpenBabel10222419543D

 37 41  0  0  1  0  0  0  0  0999 V2000
  187.9460  177.0630  145.7100 C   0  0  0  0  0  3  0  0  0  0  0  0
  188.7610  178.2680  141.2940 C   0  0  0  0  0  3  0  0  0  0  0  0
  186.9430  178.4530  137.8340 C   0  0  1  0  0  3  0  0  0  0  0  0
  183.6820  178.7860  140.7990 C   0  0  1  0  0  3  0  0  0  0  0  0
  187.3440  177.4110  144.5020 C   0  0  0  0  0  0  0  0  0  0  0  0
  185.6770  178.9510  138.1530 O   0  0  0  0  0  0  0  0  0  0  0  0
  187.4380  177.5100  146.8860 N   0  0  0  0  0  0  0  0  0  0  0  0
  185.7120  178.6550  145.7650 N   0  0  0  0  0  0  0  0  0  0  0  0
  186.1850  178.2540  144.5550 C   0  0  0  0  0  0  0  0  0  0  0  0
  187.3510  179.0070  136.6190 O   0  0  0  0  0  1  0  0  0  0  0  0
  183.3350  178.2530  142.1800 C   0  0  0  0  0  2  0  0  0  0  0  0
  185.0410  177.8890  138.7990 C   0  0  0  0  0  2  0  0  0  0  0  0
  188.9110  177.6760  142.5100 C   0  0  0  0  0  3  0  0  0  0  0  0
  187.5560  178.2020  140.3250 C   0  0  1  0  0  3  0  0  0  0  0  0
  185.5110  178.7380  143.3280 C   0  0  1  0  0  3  0  0  0  0  0  0
  186.3290  178.2930  146.9190 C   0  0  0  0  0  3  0  0  0  0  0  0
  186.3130  178.8170  142.2940 C   0  0  0  0  0  2  0  0  0  0  0  0
  186.2360  178.8930  140.8270 C   0  0  2  0  0  3  0  0  0  0  0  0
  184.0460  179.0460  143.2660 C   0  0  0  0  0  2  0  0  0  0  0  0
  187.9680  178.7690  138.9390 C   0  0  1  0  0  3  0  0  0  0  0  0
  184.9930  178.1280  140.3120 C   0  0  1  0  0  3  0  0  0  0  0  0
  187.9000  176.7940  143.2190 C   0  0  0  0  0  2  0  0  0  0  0  0
  182.4720  178.5520  139.8940 C   0  0  0  0  0  2  0  0  0  0  0  0
  181.1550  178.8950  140.5950 C   0  0  0  0  0  2  0  0  0  0  0  0
  180.0870  177.8000  140.4890 C   0  0  1  0  0  3  0  0  0  0  0  0
  179.9200  175.4190  140.3220 O   0  0  0  0  0  1  0  0  0  0  0  0
  180.6180  176.5280  139.8440 C   0  0  0  0  0  2  0  0  0  0  0  0
  179.5220  177.5000  141.7940 N   0  0  0  0  0  2  0  0  0  0  0  0
  179.7080  178.6780  142.6220 C   0  0  0  0  0  2  0  0  0  0  0  0
  180.0540  178.2530  144.0330 C   0  0  0  0  0  1  0  0  0  0  0  0
  189.3300  178.2280  138.5010 C   0  0  0  0  0  2  0  0  0  0  0  0
  189.4260  174.6940  136.1210 N   0  0  0  0  0  2  0  0  0  0  0  0
  188.3550  175.8810  137.9810 C   0  0  0  0  0  2  0  0  0  0  0  0
  189.1630  177.0840  137.5530 C   0  0  0  0  0  0  0  0  0  0  0  0
  189.7260  175.9450  135.4260 C   0  0  0  0  0  2  0  0  0  0  0  0
  188.1670  174.8770  136.8410 C   0  0  0  0  0  2  0  0  0  0  0  0
  189.8550  177.0820  136.4020 C   0  0  0  0  0  3  0  0  0  0  0  0
  1  7  1  0  0  0  0
  2 13  2  0  0  0  0
  3 10  1  6  0  0  0
  3  6  1  0  0  0  0
  3 20  1  0  0  0  0
  4 23  1  6  0  0  0
  4 11  1  0  0  0  0
  5  9  1  0  0  0  0
  5  1  2  0  0  0  0
  6 12  1  0  0  0  0
  7 16  2  0  0  0  0
  8 16  1  0  0  0  0
  9  8  2  0  0  0  0
 11 19  1  0  0  0  0
 13 22  1  0  0  0  0
 14 18  1  0  0  0  0
 14  2  1  1  0  0  0
 15 17  1  6  0  0  0
 15  9  1  0  0  0  0
 18 17  1  1  0  0  0
 19 15  1  0  0  0  0
 20 31  1  6  0  0  0
 20 14  1  0  0  0  0
 21 12  1  6  0  0  0
 21  4  1  0  0  0  0
 21 18  1  0  0  0  0
 22  5  1  0  0  0  0
 23 24  1  0  0  0  0
 25 27  1  1  0  0  0
 25 24  1  0  0  0  0
 25 28  1  0  0  0  0
 27 26  1  0  0  0  0
 28 29  1  0  0  0  0
 29 30  1  0  0  0  0
 32 36  1  0  0  0  0
 34 33  1  0  0  0  0
 34 31  1  0  0  0  0
 35 32  1  0  0  0  0
 35 37  1  0  0  0  0
 36 33  1  0  0  0  0
 37 34  2  0  0  0  0
M  END
>  <MODEL>
6

>  <REMARK>
 VINA RESULT:      -6.7      1.918      6.820
  Name = 
  8 active torsions:
  status: ('A' for Active; 'I' for Inactive)
    1  A    between atoms: N_3  and  C_9
    2  A    between atoms: N_3  and  CA_14
    3  A    between atoms: C_5  and  C_20
    4  A    between atoms: C_6  and  CA_14
    5  A    between atoms: C_6  and  C_20
    6  A    between atoms: CA_14  and  C_30
    7  A    between atoms: C_22  and  C_29
    8  A    between atoms: C_29  and  C_34
                            x       y       z     vdW  Elec       q    Type
                         _______ _______ _______ _____ _____    ______ ____

>  <TORSDO>
F 8

$$$$
=
 OpenBabel10222419543D

 37 41  0  0  1  0  0  0  0  0999 V2000
  194.2710  174.9000  137.6210 C   0  0  0  0  0  3  0  0  0  0  0  0
  190.6190  176.8330  139.7520 C   0  0  0  0  0  3  0  0  0  0  0  0
  187.1090  178.3570  138.9330 C   0  0  1  0  0  3  0  0  0  0  0  0
  187.8870  175.5580  135.6030 C   0  0  1  0  0  3  0  0  0  0  0  0
  192.9220  175.2230  137.4860 C   0  0  0  0  0  0  0  0  0  0  0  0
  186.5910  177.4910  137.9670 O   0  0  0  0  0  0  0  0  0  0  0  0
  194.7520  173.7310  137.1270 N   0  0  0  0  0  0  0  0  0  0  0  0
  192.6210  173.1330  136.3250 N   0  0  0  0  0  0  0  0  0  0  0  0
  192.0770  174.2780  136.8160 C   0  0  0  0  0  0  0  0  0  0  0  0
  186.0720  178.7620  139.7760 O   0  0  0  0  0  1  0  0  0  0  0  0
  189.0670  175.0510  134.7880 C   0  0  0  0  0  2  0  0  0  0  0  0
  187.3410  177.7640  136.8210 C   0  0  0  0  0  2  0  0  0  0  0  0
  191.9060  176.5860  139.3830 C   0  0  0  0  0  3  0  0  0  0  0  0
  189.4050  177.1890  138.8590 C   0  0  1  0  0  3  0  0  0  0  0  0
  190.6170  174.4930  136.6780 C   0  0  1  0  0  3  0  0  0  0  0  0
  193.9410  172.8570  136.4790 C   0  0  0  0  0  3  0  0  0  0  0  0
  190.1130  175.2430  137.6280 C   0  0  0  0  0  2  0  0  0  0  0  0
  188.9130  176.0520  137.8910 C   0  0  2  0  0  3  0  0  0  0  0  0
  189.8150  173.9560  135.5330 C   0  0  0  0  0  2  0  0  0  0  0  0
  188.2320  177.6870  139.7460 C   0  0  1  0  0  3  0  0  0  0  0  0
  188.3720  176.6580  136.5730 C   0  0  1  0  0  3  0  0  0  0  0  0
  192.4610  176.5970  137.9710 C   0  0  0  0  0  2  0  0  0  0  0  0
  186.8030  176.0010  134.6210 C   0  0  0  0  0  2  0  0  0  0  0  0
  185.5700  175.0950  134.6770 C   0  0  0  0  0  2  0  0  0  0  0  0
  184.9140  175.0160  136.0600 C   0  0  1  0  0  3  0  0  0  0  0  0
  183.3910  176.1840  137.4870 O   0  0  0  0  0  1  0  0  0  0  0  0
  183.6520  175.8600  136.1560 C   0  0  0  0  0  2  0  0  0  0  0  0
  184.6210  173.6370  136.4160 N   0  0  0  0  0  2  0  0  0  0  0  0
  185.4060  173.3240  137.5970 C   0  0  0  0  0  2  0  0  0  0  0  0
  186.6720  172.6040  137.1850 C   0  0  0  0  0  1  0  0  0  0  0  0
  188.7190  178.6800  140.8030 C   0  0  0  0  0  2  0  0  0  0  0  0
  188.3260  177.5760  144.9010 N   0  0  0  0  0  2  0  0  0  0  0  0
  187.3720  177.4470  142.6450 C   0  0  0  0  0  2  0  0  0  0  0  0
  188.6630  178.0690  142.1660 C   0  0  0  0  0  0  0  0  0  0  0  0
  189.6900  177.6280  144.3770 C   0  0  0  0  0  2  0  0  0  0  0  0
  187.5360  176.7440  143.9950 C   0  0  0  0  0  2  0  0  0  0  0  0
  189.7110  178.2170  142.9930 C   0  0  0  0  0  3  0  0  0  0  0  0
  3 20  1  0  0  0  0
  3 10  1  1  0  0  0
  4 23  1  6  0  0  0
  4 21  1  0  0  0  0
  5  1  1  0  0  0  0
  5 22  1  0  0  0  0
  6  3  1  0  0  0  0
  7  1  2  0  0  0  0
  8 16  2  0  0  0  0
  8  9  1  0  0  0  0
  9  5  2  0  0  0  0
 11 19  1  0  0  0  0
 11  4  1  0  0  0  0
 12  6  1  0  0  0  0
 13  2  2  0  0  0  0
 14 20  1  0  0  0  0
 14  2  1  1  0  0  0
 15 19  1  6  0  0  0
 15  9  1  0  0  0  0
 15 17  1  0  0  0  0
 16  7  1  0  0  0  0
 18 17  1  6  0  0  0
 18 14  1  0  0  0  0
 20 31  1  1  0  0  0
 21 12  1  1  0  0  0
 21 18  1  0  0  0  0
 22 13  1  0  0  0  0
 23 24  1  0  0  0  0
 25 24  1  6  0  0  0
 25 27  1  0  0  0  0
 25 28  1  0  0  0  0
 27 26  1  0  0  0  0
 28 29  1  0  0  0  0
 30 29  1  0  0  0  0
 31 34  1  0  0  0  0
 33 36  1  0  0  0  0
 34 33  1  0  0  0  0
 34 37  2  0  0  0  0
 35 32  1  0  0  0  0
 36 32  1  0  0  0  0
 37 35  1  0  0  0  0
M  END
>  <MODEL>
7

>  <REMARK>
 VINA RESULT:      -6.7      3.275      8.098
  Name = 
  8 active torsions:
  status: ('A' for Active; 'I' for Inactive)
    1  A    between atoms: N_3  and  C_9
    2  A    between atoms: N_3  and  CA_14
    3  A    between atoms: C_5  and  C_20
    4  A    between atoms: C_6  and  CA_14
    5  A    between atoms: C_6  and  C_20
    6  A    between atoms: CA_14  and  C_30
    7  A    between atoms: C_22  and  C_29
    8  A    between atoms: C_29  and  C_34
                            x       y       z     vdW  Elec       q    Type
                         _______ _______ _______ _____ _____    ______ ____

>  <TORSDO>
F 8

$$$$
=
 OpenBabel10222419543D

 37 41  0  0  1  0  0  0  0  0999 V2000
  188.0010  177.0530  145.7240 C   0  0  0  0  0  3  0  0  0  0  0  0
  188.7090  178.2710  141.2940 C   0  0  0  0  0  3  0  0  0  0  0  0
  186.8010  178.4900  137.8850 C   0  0  1  0  0  3  0  0  0  0  0  0
  183.6240  178.8420  140.9380 C   0  0  1  0  0  3  0  0  0  0  0  0
  187.3710  177.4120  144.5340 C   0  0  0  0  0  0  0  0  0  0  0  0
  185.5490  179.0000  138.2400 O   0  0  0  0  0  0  0  0  0  0  0  0
  187.5300  177.4990  146.9160 N   0  0  0  0  0  0  0  0  0  0  0  0
  185.7860  178.6660  145.8480 N   0  0  0  0  0  0  0  0  0  0  0  0
  186.2230  178.2670  144.6230 C   0  0  0  0  0  0  0  0  0  0  0  0
  187.1810  179.0470  136.6620 O   0  0  0  0  0  1  0  0  0  0  0  0
  183.3090  178.3050  142.3260 C   0  0  0  0  0  2  0  0  0  0  0  0
  184.9200  177.9410  138.8980 C   0  0  0  0  0  2  0  0  0  0  0  0
  188.8860  177.6710  142.5030 C   0  0  0  0  0  3  0  0  0  0  0  0
  187.4780  178.2210  140.3570 C   0  0  1  0  0  3  0  0  0  0  0  0
  185.5200  178.7630  143.4170 C   0  0  1  0  0  3  0  0  0  0  0  0
  186.4310  178.2920  146.9830 C   0  0  0  0  0  3  0  0  0  0  0  0
  186.2940  178.8390  142.3620 C   0  0  0  0  0  2  0  0  0  0  0  0
  186.1790  178.9230  140.8980 C   0  0  2  0  0  3  0  0  0  0  0  0
  184.0580  179.0850  143.3960 C   0  0  0  0  0  2  0  0  0  0  0  0
  187.8580  178.7910  138.9630 C   0  0  1  0  0  3  0  0  0  0  0  0
  184.9150  178.1730  140.4140 C   0  0  1  0  0  3  0  0  0  0  0  0
  187.8850  176.7960  143.2350 C   0  0  0  0  0  2  0  0  0  0  0  0
  182.3880  178.6250  140.0660 C   0  0  0  0  0  2  0  0  0  0  0  0
  181.1150  178.4700  140.9010 C   0  0  0  0  0  2  0  0  0  0  0  0
  179.9560  179.3660  140.4460 C   0  0  1  0  0  3  0  0  0  0  0  0
  180.4250  180.3260  142.5860 O   0  0  0  0  0  1  0  0  0  0  0  0
  179.6790  180.5010  141.4200 C   0  0  0  0  0  2  0  0  0  0  0  0
  180.2050  179.8980  139.1160 N   0  0  0  0  0  2  0  0  0  0  0  0
  180.3160  181.3400  139.2470 C   0  0  0  0  0  2  0  0  0  0  0  0
  181.4200  181.8440  138.3430 C   0  0  0  0  0  1  0  0  0  0  0  0
  189.2020  178.2390  138.4860 C   0  0  0  0  0  2  0  0  0  0  0  0
  189.1760  174.6790  136.1430 N   0  0  0  0  0  2  0  0  0  0  0  0
  188.1330  175.9310  137.9760 C   0  0  0  0  0  2  0  0  0  0  0  0
  188.9980  177.0940  137.5470 C   0  0  0  0  0  0  0  0  0  0  0  0
  189.5390  175.9080  135.4400 C   0  0  0  0  0  2  0  0  0  0  0  0
  187.9170  174.9250  136.8430 C   0  0  0  0  0  2  0  0  0  0  0  0
  189.7050  177.0490  136.4060 C   0  0  0  0  0  3  0  0  0  0  0  0
  1  7  1  0  0  0  0
  2 13  2  0  0  0  0
  3 10  1  6  0  0  0
  3  6  1  0  0  0  0
  3 20  1  0  0  0  0
  4 23  1  6  0  0  0
  4 11  1  0  0  0  0
  5  9  1  0  0  0  0
  5  1  2  0  0  0  0
  6 12  1  0  0  0  0
  7 16  2  0  0  0  0
  8 16  1  0  0  0  0
  9  8  2  0  0  0  0
 11 19  1  0  0  0  0
 13 22  1  0  0  0  0
 14 18  1  0  0  0  0
 14  2  1  1  0  0  0
 15 17  1  6  0  0  0
 15  9  1  0  0  0  0
 18 17  1  1  0  0  0
 19 15  1  0  0  0  0
 20 31  1  6  0  0  0
 20 14  1  0  0  0  0
 21 12  1  6  0  0  0
 21 18  1  0  0  0  0
 21  4  1  0  0  0  0
 22  5  1  0  0  0  0
 23 24  1  0  0  0  0
 25 24  1  1  0  0  0
 25 27  1  0  0  0  0
 27 26  1  0  0  0  0
 28 29  1  0  0  0  0
 28 25  1  0  0  0  0
 30 29  1  0  0  0  0
 32 36  1  0  0  0  0
 34 33  1  0  0  0  0
 34 31  1  0  0  0  0
 35 32  1  0  0  0  0
 35 37  1  0  0  0  0
 36 33  1  0  0  0  0
 37 34  2  0  0  0  0
M  END
>  <MODEL>
8

>  <REMARK>
 VINA RESULT:      -6.6      2.173      6.745
  Name = 
  8 active torsions:
  status: ('A' for Active; 'I' for Inactive)
    1  A    between atoms: N_3  and  C_9
    2  A    between atoms: N_3  and  CA_14
    3  A    between atoms: C_5  and  C_20
    4  A    between atoms: C_6  and  CA_14
    5  A    between atoms: C_6  and  C_20
    6  A    between atoms: CA_14  and  C_30
    7  A    between atoms: C_22  and  C_29
    8  A    between atoms: C_29  and  C_34
                            x       y       z     vdW  Elec       q    Type
                         _______ _______ _______ _____ _____    ______ ____

>  <TORSDO>
F 8

$$$$
=
 OpenBabel10222419543D

 37 41  0  0  1  0  0  0  0  0999 V2000
  187.3890  177.0480  145.5320 C   0  0  0  0  0  3  0  0  0  0  0  0
  189.2770  178.0480  141.4030 C   0  0  0  0  0  3  0  0  0  0  0  0
  188.3510  178.1220  137.6020 C   0  0  1  0  0  3  0  0  0  0  0  0
  184.4840  178.6450  139.6770 C   0  0  1  0  0  3  0  0  0  0  0  0
  187.1060  177.3560  144.2020 C   0  0  0  0  0  0  0  0  0  0  0  0
  187.0600  178.6590  137.5870 O   0  0  0  0  0  0  0  0  0  0  0  0
  186.6270  177.5540  146.5330 N   0  0  0  0  0  0  0  0  0  0  0  0
  185.2550  178.6840  144.9890 N   0  0  0  0  0  0  0  0  0  0  0  0
  185.9930  178.2230  143.9440 C   0  0  0  0  0  0  0  0  0  0  0  0
  189.0550  178.6160  136.5020 O   0  0  0  0  0  1  0  0  0  0  0  0
  183.7990  178.1780  140.9520 C   0  0  0  0  0  2  0  0  0  0  0  0
  186.2570  177.6370  138.0990 C   0  0  0  0  0  2  0  0  0  0  0  0
  189.1120  177.5050  142.6400 C   0  0  0  0  0  3  0  0  0  0  0  0
  188.3390  177.9640  140.1740 C   0  0  1  0  0  3  0  0  0  0  0  0
  185.6480  178.6680  142.5730 C   0  0  1  0  0  3  0  0  0  0  0  0
  185.5660  178.3590  146.2700 C   0  0  0  0  0  3  0  0  0  0  0  0
  186.6770  178.6870  141.7610 C   0  0  0  0  0  2  0  0  0  0  0  0
  186.9580  178.7020  140.3170 C   0  0  2  0  0  3  0  0  0  0  0  0
  184.2510  179.0010  142.1480 C   0  0  0  0  0  2  0  0  0  0  0  0
  189.0880  178.4640  138.9090 C   0  0  1  0  0  3  0  0  0  0  0  0
  185.8530  177.9410  139.5460 C   0  0  1  0  0  3  0  0  0  0  0  0
  187.9350  176.6740  143.1150 C   0  0  0  0  0  2  0  0  0  0  0  0
  183.5200  178.3970  138.5170 C   0  0  0  0  0  2  0  0  0  0  0  0
  182.3740  177.4630  138.9100 C   0  0  0  0  0  2  0  0  0  0  0  0
  182.1510  176.3010  137.9340 C   0  0  1  0  0  3  0  0  0  0  0  0
  183.1330  174.1460  137.5950 O   0  0  0  0  0  1  0  0  0  0  0  0
  183.4220  175.5090  137.6700 C   0  0  0  0  0  2  0  0  0  0  0  0
  181.1010  175.4170  138.4140 N   0  0  0  0  0  2  0  0  0  0  0  0
  180.9110  175.7040  139.8240 C   0  0  0  0  0  2  0  0  0  0  0  0
  179.5940  175.1180  140.2850 C   0  0  0  0  0  1  0  0  0  0  0  0
  190.4990  177.8780  138.8330 C   0  0  0  0  0  2  0  0  0  0  0  0
  190.8290  173.9760  137.1510 N   0  0  0  0  0  2  0  0  0  0  0  0
  189.3640  175.6290  138.2180 C   0  0  0  0  0  2  0  0  0  0  0  0
  190.5010  176.6080  138.0440 C   0  0  0  0  0  0  0  0  0  0  0  0
  191.6300  175.0200  136.5140 C   0  0  0  0  0  2  0  0  0  0  0  0
  189.4530  174.4610  137.2320 C   0  0  0  0  0  2  0  0  0  0  0  0
  191.5820  176.2950  137.3120 C   0  0  0  0  0  3  0  0  0  0  0  0
  1  7  1  0  0  0  0
  2 13  2  0  0  0  0
  3 10  1  6  0  0  0
  3 20  1  0  0  0  0
  4 23  1  6  0  0  0
  4 11  1  0  0  0  0
  5  1  2  0  0  0  0
  6  3  1  0  0  0  0
  6 12  1  0  0  0  0
  8 16  1  0  0  0  0
  9  5  1  0  0  0  0
  9  8  2  0  0  0  0
 11 19  1  0  0  0  0
 13 22  1  0  0  0  0
 14 18  1  0  0  0  0
 14  2  1  1  0  0  0
 15 17  1  6  0  0  0
 15  9  1  0  0  0  0
 16  7  2  0  0  0  0
 18 17  1  1  0  0  0
 19 15  1  0  0  0  0
 20 31  1  6  0  0  0
 20 14  1  0  0  0  0
 21 12  1  6  0  0  0
 21  4  1  0  0  0  0
 21 18  1  0  0  0  0
 22  5  1  0  0  0  0
 23 24  1  0  0  0  0
 25 27  1  1  0  0  0
 25 28  1  0  0  0  0
 25 24  1  0  0  0  0
 26 27  1  0  0  0  0
 28 29  1  0  0  0  0
 29 30  1  0  0  0  0
 32 36  1  0  0  0  0
 34 33  1  0  0  0  0
 34 31  1  0  0  0  0
 35 32  1  0  0  0  0
 35 37  1  0  0  0  0
 36 33  1  0  0  0  0
 37 34  2  0  0  0  0
M  END
>  <MODEL>
9

>  <REMARK>
 VINA RESULT:      -6.2      1.901      6.565
  Name = 
  8 active torsions:
  status: ('A' for Active; 'I' for Inactive)
    1  A    between atoms: N_3  and  C_9
    2  A    between atoms: N_3  and  CA_14
    3  A    between atoms: C_5  and  C_20
    4  A    between atoms: C_6  and  CA_14
    5  A    between atoms: C_6  and  C_20
    6  A    between atoms: CA_14  and  C_30
    7  A    between atoms: C_22  and  C_29
    8  A    between atoms: C_29  and  C_34
                            x       y       z     vdW  Elec       q    Type
                         _______ _______ _______ _____ _____    ______ ____

>  <TORSDO>
F 8

$$$$
