=
 OpenBabel10222415243D

 47 52  0  0  1  0  0  0  0  0999 V2000
  189.2250  178.3890  137.3700 C   0  0  0  0  0  2  0  0  0  0  0  0
  185.5170  176.1180  137.2880 C   0  0  1  0  0  3  0  0  0  0  0  0
  189.2470  176.3860  136.0700 C   0  0  1  0  0  3  0  0  0  0  0  0
  190.6310  174.4860  135.6100 O   0  0  0  0  0  0  0  0  0  0  0  0
  186.8700  175.7030  136.7960 C   0  0  1  0  0  3  0  0  0  0  0  0
  187.7660  178.0620  137.0850 C   0  0  2  0  0  0  0  0  0  0  0  0
  187.1520  179.2030  136.2940 C   0  0  0  0  0  1  0  0  0  0  0  0
  187.0390  177.8990  138.4310 C   0  0  0  0  0  2  0  0  0  0  0  0
  185.6360  177.2710  138.3240 C   0  0  1  0  0  3  0  0  0  0  0  0
  190.0020  177.1000  137.1770 C   0  0  2  0  0  3  0  0  0  0  0  0
  187.2110  174.4130  136.8200 C   0  0  0  0  0  3  0  0  0  0  0  0
  189.5090  174.9070  135.9980 C   0  0  0  0  0  0  0  0  0  0  0  0
  187.7750  176.7770  136.2300 C   0  0  1  0  0  3  0  0  0  0  0  0
  188.4980  173.9760  136.3860 N   0  0  0  0  0  0  0  0  0  0  0  0
  184.6040  176.4490  136.1040 C   0  0  0  0  0  2  0  0  0  0  0  0
  183.2890  175.6920  136.2070 C   0  0  0  0  0  2  0  0  0  0  0  0
  183.4250  174.5430  137.1910 C   0  0  0  0  0  2  0  0  0  0  0  0
  183.2910  173.3260  136.5230 O   0  0  0  0  0  0  0  0  0  0  0  0
  184.1470  172.4550  137.2040 C   0  0  0  0  0  1  0  0  0  0  0  0
  189.9540  176.3470  138.3850 O   0  0  0  0  0  0  0  0  0  0  0  0
  189.7020  177.5410  141.8580 C   0  0  0  0  0  3  0  0  0  0  0  0
  189.3790  177.0710  140.5850 C   0  0  0  0  0  3  0  0  0  0  0  0
  192.0450  177.5290  141.2650 C   0  0  0  0  0  3  0  0  0  0  0  0
  191.7350  177.0500  139.9890 C   0  0  0  0  0  0  0  0  0  0  0  0
  191.0360  177.7750  142.2070 C   0  0  0  0  0  0  0  0  0  0  0  0
  190.3790  176.8140  139.6380 C   0  0  0  0  0  0  0  0  0  0  0  0
  193.0870  176.8450  138.8810 Cl  0  0  0  0  0  0  0  0  0  0  0  0
  191.3640  178.2690  143.5160 N   0  0  0  0  0  0  0  0  0  0  0  0
  192.0230  177.4600  144.4170 O   0  0  0  0  0  0  0  0  0  0  0  0
  190.9850  179.4060  143.8770 O   0  0  0  0  0  0  0  0  0  0  0  0
  184.5200  178.3280  138.2480 C   0  0  0  0  0  2  0  0  0  0  0  0
  184.5860  179.3820  139.3570 C   0  0  1  0  0  3  0  0  0  0  0  0
  184.1060  180.6150  138.9030 O   0  0  0  0  0  1  0  0  0  0  0  0
  183.8420  178.9390  140.5780 C   0  0  0  0  0  3  0  0  0  0  0  0
  184.3950  179.0210  141.7850 C   0  0  0  0  0  3  0  0  0  0  0  0
  183.6290  178.5680  142.9830 C   0  0  0  0  0  2  0  0  0  0  0  0
  184.4990  178.6130  144.1890 C   0  0  0  0  0  0  0  0  0  0  0  0
  184.3950  179.5530  145.1460 N   0  0  0  0  0  0  0  0  0  0  0  0
  186.0070  178.2090  145.5780 C   0  0  0  0  0  0  0  0  0  0  0  0
  185.3390  179.2910  146.0320 N   0  0  0  0  0  0  0  0  0  0  0  0
  185.4990  177.7400  144.4210 N   0  0  0  0  0  2  0  0  0  0  0  0
  189.6110  177.4930  147.7580 C   0  0  0  0  0  3  0  0  0  0  0  0
  188.5490  178.4010  148.3100 C   0  0  0  0  0  2  0  0  0  0  0  0
  188.4570  177.6700  145.6060 C   0  0  0  0  0  2  0  0  0  0  0  0
  187.1110  177.5250  146.3370 C   0  0  1  0  0  3  0  0  0  0  0  0
  189.5710  177.1480  146.4670 C   0  0  0  0  0  3  0  0  0  0  0  0
  187.1570  177.9810  147.8180 C   0  0  0  0  0  2  0  0  0  0  0  0
  2 15  1  6  0  0  0
  2  9  1  0  0  0  0
  3 12  1  1  0  0  0
  3 13  1  0  0  0  0
  3 10  1  0  0  0  0
  4 12  2  0  0  0  0
  5 11  1  6  0  0  0
  5  2  1  0  0  0  0
  6  7  1  6  0  0  0
  6  1  1  0  0  0  0
  6  8  1  0  0  0  0
  9 31  1  6  0  0  0
  9  8  1  0  0  0  0
 10  1  1  0  0  0  0
 10 20  1  1  0  0  0
 12 14  1  0  0  0  0
 13  5  1  0  0  0  0
 13  6  1  0  0  0  0
 14 11  2  0  0  0  0
 15 16  1  0  0  0  0
 16 17  1  0  0  0  0
 18 17  1  0  0  0  0
 18 19  1  0  0  0  0
 20 26  1  0  0  0  0
 21 25  1  0  0  0  0
 22 21  2  0  0  0  0
 23 25  2  0  0  0  0
 24 23  1  0  0  0  0
 25 28  1  0  0  0  0
 26 24  2  0  0  0  0
 26 22  1  0  0  0  0
 27 24  1  0  0  0  0
 28 30  2  0  0  0  0
 28 29  2  0  0  0  0
 31 32  1  0  0  0  0
 32 34  1  0  0  0  0
 33 32  1  0  0  0  0
 34 35  2  0  0  0  0
 35 36  1  0  0  0  0
 36 37  1  0  0  0  0
 37 41  1  0  0  0  0
 37 38  2  0  0  0  0
 38 40  1  0  0  0  0
 39 40  2  0  0  0  0
 39 45  1  0  0  0  0
 41 39  1  0  0  0  0
 42 43  1  0  0  0  0
 44 45  1  0  0  0  0
 44 46  1  0  0  0  0
 45 47  1  0  0  0  0
 46 42  2  0  0  0  0
 47 43  1  0  0  0  0
M  END
>  <MODEL>
1

>  <REMARK>
 VINA RESULT:      -8.6      0.000      0.000
  Name = 
  13 active torsions:
  status: ('A' for Active; 'I' for Inactive)
    1  A    between atoms: N_2  and  C_34
    2  A    between atoms: C_4  and  C_21
    3  A    between atoms: C_5  and  C_18
    4  A    between atoms: C_6  and  C_7
    5  A    between atoms: C_7  and  C_11
    6  A    between atoms: O_14  and  C_20
    7  A    between atoms: C_18  and  C_32
    8  A    between atoms: C_20  and  C_30
    9  A    between atoms: C_21  and  C_30
   10  A    between atoms: C_22  and  C_29
   11  A    between atoms: O_31  and  C_37
   12  A    between atoms: O_31  and  C_40
   13  A    between atoms: C_32  and  C_35
                            x       y       z     vdW  Elec       q    Type
                         _______ _______ _______ _____ _____    ______ ____

>  <TORSDO>
F 13

$$$$
=
 OpenBabel10222415243D

 47 52  0  0  1  0  0  0  0  0999 V2000
  185.2270  178.9700  138.1440 C   0  0  0  0  0  2  0  0  0  0  0  0
  182.4510  175.7720  139.1340 C   0  0  1  0  0  3  0  0  0  0  0  0
  185.1140  177.1590  136.5920 C   0  0  1  0  0  3  0  0  0  0  0  0
  186.5330  175.7590  135.2640 O   0  0  0  0  0  0  0  0  0  0  0  0
  183.5070  175.7890  138.0710 C   0  0  1  0  0  3  0  0  0  0  0  0
  183.9010  178.2740  138.4140 C   0  0  2  0  0  0  0  0  0  0  0  0
  182.7700  179.2570  138.1690 C   0  0  0  0  0  1  0  0  0  0  0  0
  183.8920  177.8130  139.8820 C   0  0  0  0  0  2  0  0  0  0  0  0
  182.7580  176.8300  140.2320 C   0  0  1  0  0  3  0  0  0  0  0  0
  186.1010  177.9670  137.4150 C   0  0  2  0  0  3  0  0  0  0  0  0
  184.0960  174.6460  137.7110 C   0  0  0  0  0  3  0  0  0  0  0  0
  185.6320  175.8210  136.1430 C   0  0  0  0  0  0  0  0  0  0  0  0
  183.8150  177.1120  137.4020 C   0  0  1  0  0  3  0  0  0  0  0  0
  185.1230  174.6190  136.7220 N   0  0  0  0  0  0  0  0  0  0  0  0
  181.0650  175.9270  138.5040 C   0  0  0  0  0  2  0  0  0  0  0  0
  180.2590  174.6450  138.6500 C   0  0  0  0  0  2  0  0  0  0  0  0
  179.7960  174.1630  137.2860 C   0  0  0  0  0  2  0  0  0  0  0  0
  180.8270  173.4690  136.6530 O   0  0  0  0  0  0  0  0  0  0  0  0
  180.2670  172.2300  136.3270 C   0  0  0  0  0  1  0  0  0  0  0  0
  186.7520  177.1400  138.3740 O   0  0  0  0  0  0  0  0  0  0  0  0
  190.3420  176.4040  138.0170 C   0  0  0  0  0  3  0  0  0  0  0  0
  188.9620  176.4360  137.8120 C   0  0  0  0  0  3  0  0  0  0  0  0
  190.0840  177.8350  139.9480 C   0  0  0  0  0  3  0  0  0  0  0  0
  188.7010  177.8820  139.7480 C   0  0  0  0  0  0  0  0  0  0  0  0
  190.9130  177.1020  139.0880 C   0  0  0  0  0  0  0  0  0  0  0  0
  188.1250  177.1730  138.6610 C   0  0  0  0  0  0  0  0  0  0  0  0
  187.7680  178.7840  140.9370 Cl  0  0  0  0  0  0  0  0  0  0  0  0
  192.3320  177.0570  139.3030 N   0  0  0  0  0  0  0  0  0  0  0  0
  193.1800  176.7180  138.2680 O   0  0  0  0  0  0  0  0  0  0  0  0
  192.8060  177.2470  140.4450 O   0  0  0  0  0  0  0  0  0  0  0  0
  181.5220  177.5380  140.8130 C   0  0  0  0  0  2  0  0  0  0  0  0
  181.8120  178.9290  141.3810 C   0  0  1  0  0  3  0  0  0  0  0  0
  180.8260  179.8430  140.9930 O   0  0  0  0  0  1  0  0  0  0  0  0
  181.9470  178.8950  142.8720 C   0  0  0  0  0  3  0  0  0  0  0  0
  183.1390  178.9950  143.4540 C   0  0  0  0  0  3  0  0  0  0  0  0
  183.2410  178.9540  144.9420 C   0  0  0  0  0  2  0  0  0  0  0  0
  184.6340  178.6200  145.3470 C   0  0  0  0  0  0  0  0  0  0  0  0
  185.1870  179.0220  146.5050 N   0  0  0  0  0  0  0  0  0  0  0  0
  186.6020  177.9170  145.3340 C   0  0  0  0  0  0  0  0  0  0  0  0
  186.4280  178.5660  146.5050 N   0  0  0  0  0  0  0  0  0  0  0  0
  185.4860  177.9150  144.5770 N   0  0  0  0  0  2  0  0  0  0  0  0
  190.2020  176.7270  143.3660 C   0  0  0  0  0  3  0  0  0  0  0  0
  190.1020  178.0690  144.0330 C   0  0  0  0  0  2  0  0  0  0  0  0
  187.7630  176.6060  143.5390 C   0  0  0  0  0  2  0  0  0  0  0  0
  187.8550  177.1710  144.9670 C   0  0  1  0  0  3  0  0  0  0  0  0
  189.0870  176.0300  143.1250 C   0  0  0  0  0  3  0  0  0  0  0  0
  189.1250  178.0230  145.2170 C   0  0  0  0  0  2  0  0  0  0  0  0
  1  6  1  0  0  0  0
  2 15  1  6  0  0  0
  2  9  1  0  0  0  0
  3 12  1  1  0  0  0
  3 13  1  0  0  0  0
  3 10  1  0  0  0  0
  4 12  2  0  0  0  0
  5 11  1  6  0  0  0
  5  2  1  0  0  0  0
  6  7  1  6  0  0  0
  6  8  1  0  0  0  0
  8  9  1  0  0  0  0
  9 31  1  6  0  0  0
 10  1  1  0  0  0  0
 10 20  1  1  0  0  0
 12 14  1  0  0  0  0
 13  5  1  0  0  0  0
 13  6  1  0  0  0  0
 14 11  2  0  0  0  0
 15 16  1  0  0  0  0
 17 16  1  0  0  0  0
 18 17  1  0  0  0  0
 19 18  1  0  0  0  0
 20 26  1  0  0  0  0
 21 25  1  0  0  0  0
 22 21  2  0  0  0  0
 22 26  1  0  0  0  0
 24 23  1  0  0  0  0
 24 27  1  0  0  0  0
 25 28  1  0  0  0  0
 25 23  2  0  0  0  0
 26 24  2  0  0  0  0
 28 30  2  0  0  0  0
 29 28  2  0  0  0  0
 31 32  1  0  0  0  0
 32 34  1  0  0  0  0
 33 32  1  0  0  0  0
 34 35  2  0  0  0  0
 35 36  1  0  0  0  0
 36 37  1  0  0  0  0
 37 38  2  0  0  0  0
 39 40  2  0  0  0  0
 40 38  1  0  0  0  0
 41 39  1  0  0  0  0
 41 37  1  0  0  0  0
 42 43  1  0  0  0  0
 43 47  1  0  0  0  0
 44 45  1  0  0  0  0
 45 47  1  0  0  0  0
 45 39  1  0  0  0  0
 46 42  2  0  0  0  0
 46 44  1  0  0  0  0
M  END
>  <MODEL>
2

>  <REMARK>
 VINA RESULT:      -8.5      2.407      3.599
  Name = 
  13 active torsions:
  status: ('A' for Active; 'I' for Inactive)
    1  A    between atoms: N_2  and  C_34
    2  A    between atoms: C_4  and  C_21
    3  A    between atoms: C_5  and  C_18
    4  A    between atoms: C_6  and  C_7
    5  A    between atoms: C_7  and  C_11
    6  A    between atoms: O_14  and  C_20
    7  A    between atoms: C_18  and  C_32
    8  A    between atoms: C_20  and  C_30
    9  A    between atoms: C_21  and  C_30
   10  A    between atoms: C_22  and  C_29
   11  A    between atoms: O_31  and  C_37
   12  A    between atoms: O_31  and  C_40
   13  A    between atoms: C_32  and  C_35
                            x       y       z     vdW  Elec       q    Type
                         _______ _______ _______ _____ _____    ______ ____

>  <TORSDO>
F 13

$$$$
=
 OpenBabel10222415243D

 47 52  0  0  1  0  0  0  0  0999 V2000
  188.7320  178.5260  138.6700 C   0  0  0  0  0  2  0  0  0  0  0  0
  186.7660  175.1590  136.7430 C   0  0  1  0  0  3  0  0  0  0  0  0
  190.1640  176.9490  137.5910 C   0  0  1  0  0  3  0  0  0  0  0  0
  192.2290  175.7810  137.9270 O   0  0  0  0  0  0  0  0  0  0  0  0
  188.2270  175.3490  137.0150 C   0  0  0  0  0  0  0  0  0  0  0  0
  187.8510  177.7690  137.6860 C   0  0  2  0  0  0  0  0  0  0  0  0
  187.2850  178.7520  136.6760 C   0  0  0  0  0  1  0  0  0  0  0  0
  186.7100  177.1060  138.4760 C   0  0  0  0  0  2  0  0  0  0  0  0
  185.9090  176.0580  137.6780 C   0  0  1  0  0  3  0  0  0  0  0  0
  189.9500  177.6550  138.9180 C   0  0  2  0  0  3  0  0  0  0  0  0
  189.0000  174.2810  137.2280 C   0  0  0  0  0  3  0  0  0  0  0  0
  190.9960  175.6990  137.6830 C   0  0  0  0  0  0  0  0  0  0  0  0
  188.7760  176.7600  136.9740 C   0  0  1  0  0  3  0  0  0  0  0  0
  190.3910  174.4160  137.5160 N   0  0  0  0  0  2  0  0  0  0  0  0
  186.4740  175.3710  135.2540 C   0  0  0  0  0  2  0  0  0  0  0  0
  186.0530  174.0660  134.5960 C   0  0  0  0  0  2  0  0  0  0  0  0
  185.9830  172.9580  135.6320 C   0  0  0  0  0  2  0  0  0  0  0  0
  185.1030  171.9640  135.2070 O   0  0  0  0  0  0  0  0  0  0  0  0
  183.9560  172.1540  135.9840 C   0  0  0  0  0  1  0  0  0  0  0  0
  189.6430  176.7150  139.9440 O   0  0  0  0  0  0  0  0  0  0  0  0
  189.2190  176.7800  143.6000 C   0  0  0  0  0  3  0  0  0  0  0  0
  188.9720  176.6550  142.2330 C   0  0  0  0  0  3  0  0  0  0  0  0
  191.5210  177.3440  143.1280 C   0  0  0  0  0  3  0  0  0  0  0  0
  191.2880  177.2140  141.7560 C   0  0  0  0  0  0  0  0  0  0  0  0
  190.4950  177.1270  144.0580 C   0  0  0  0  0  0  0  0  0  0  0  0
  189.9920  176.8610  141.2940 C   0  0  0  0  0  0  0  0  0  0  0  0
  192.6430  177.5770  140.6930 Cl  0  0  0  0  0  0  0  0  0  0  0  0
  190.7430  177.2660  145.4650 N   0  0  0  0  0  0  0  0  0  0  0  0
  189.6900  177.4040  146.3450 O   0  0  0  0  0  0  0  0  0  0  0  0
  191.9150  177.3430  145.8970 O   0  0  0  0  0  0  0  0  0  0  0  0
  184.6460  176.6500  137.0300 C   0  0  0  0  0  2  0  0  0  0  0  0
  183.3630  175.8800  137.3520 C   0  0  1  0  0  3  0  0  0  0  0  0
  183.6270  174.8070  138.2110 O   0  0  0  0  0  1  0  0  0  0  0  0
  182.3160  176.7790  137.9330 C   0  0  0  0  0  3  0  0  0  0  0  0
  182.4460  177.2830  139.1570 C   0  0  0  0  0  3  0  0  0  0  0  0
  181.3840  178.1730  139.7090 C   0  0  0  0  0  2  0  0  0  0  0  0
  181.7360  178.5860  141.0950 C   0  0  0  0  0  0  0  0  0  0  0  0
  180.8250  178.9420  142.0170 N   0  0  0  0  0  0  0  0  0  0  0  0
  182.8100  179.1250  142.8040 C   0  0  0  0  0  0  0  0  0  0  0  0
  181.5020  179.2700  143.1040 N   0  0  0  0  0  0  0  0  0  0  0  0
  183.0020  178.6800  141.5460 N   0  0  0  0  0  2  0  0  0  0  0  0
  185.9540  178.3470  145.5900 C   0  0  0  0  0  3  0  0  0  0  0  0
  186.0700  177.9020  144.1600 C   0  0  0  0  0  2  0  0  0  0  0  0
  183.5680  178.6820  145.1530 C   0  0  0  0  0  2  0  0  0  0  0  0
  183.9240  179.3130  143.7960 C   0  0  1  0  0  3  0  0  0  0  0  0
  184.7600  178.7150  146.0670 C   0  0  0  0  0  3  0  0  0  0  0  0
  185.2850  178.8370  143.2280 C   0  0  0  0  0  2  0  0  0  0  0  0
  1 10  1  0  0  0  0
  2 15  1  6  0  0  0
  2  5  1  0  0  0  0
  2  9  1  0  0  0  0
  3 12  1  1  0  0  0
  3 10  1  0  0  0  0
  5 11  2  0  0  0  0
  6  7  1  6  0  0  0
  6  8  1  0  0  0  0
  6  1  1  0  0  0  0
  9 31  1  6  0  0  0
  9  8  1  0  0  0  0
 10 20  1  1  0  0  0
 11 14  1  0  0  0  0
 12  4  2  0  0  0  0
 13  5  1  1  0  0  0
 13  3  1  0  0  0  0
 13  6  1  0  0  0  0
 14 12  1  0  0  0  0
 16 15  1  0  0  0  0
 16 17  1  0  0  0  0
 18 17  1  0  0  0  0
 18 19  1  0  0  0  0
 20 26  1  0  0  0  0
 21 25  1  0  0  0  0
 22 21  2  0  0  0  0
 23 25  2  0  0  0  0
 24 23  1  0  0  0  0
 25 28  1  0  0  0  0
 26 24  2  0  0  0  0
 26 22  1  0  0  0  0
 27 24  1  0  0  0  0
 28 30  2  0  0  0  0
 28 29  2  0  0  0  0
 31 32  1  0  0  0  0
 32 34  1  0  0  0  0
 32 33  1  1  0  0  0
 34 35  2  0  0  0  0
 35 36  1  0  0  0  0
 36 37  1  0  0  0  0
 37 41  1  0  0  0  0
 37 38  2  0  0  0  0
 38 40  1  0  0  0  0
 39 40  2  0  0  0  0
 41 39  1  0  0  0  0
 42 46  2  0  0  0  0
 43 42  1  0  0  0  0
 44 46  1  0  0  0  0
 45 39  1  6  0  0  0
 45 44  1  0  0  0  0
 47 45  1  0  0  0  0
 47 43  1  0  0  0  0
M  END
>  <MODEL>
3

>  <REMARK>
 VINA RESULT:      -7.8      2.197      3.156
  Name = 
  13 active torsions:
  status: ('A' for Active; 'I' for Inactive)
    1  A    between atoms: N_2  and  C_34
    2  A    between atoms: C_4  and  C_21
    3  A    between atoms: C_5  and  C_18
    4  A    between atoms: C_6  and  C_7
    5  A    between atoms: C_7  and  C_11
    6  A    between atoms: O_14  and  C_20
    7  A    between atoms: C_18  and  C_32
    8  A    between atoms: C_20  and  C_30
    9  A    between atoms: C_21  and  C_30
   10  A    between atoms: C_22  and  C_29
   11  A    between atoms: O_31  and  C_37
   12  A    between atoms: O_31  and  C_40
   13  A    between atoms: C_32  and  C_35
                            x       y       z     vdW  Elec       q    Type
                         _______ _______ _______ _____ _____    ______ ____

>  <TORSDO>
F 13

$$$$
=
 OpenBabel10222415243D

 47 52  0  0  1  0  0  0  0  0999 V2000
  188.5360  178.6230  139.1190 C   0  0  0  0  0  2  0  0  0  0  0  0
  188.6550  175.0520  136.6380 C   0  0  1  0  0  3  0  0  0  0  0  0
  190.7040  177.7380  138.6540 C   0  0  1  0  0  3  0  0  0  0  0  0
  192.7930  177.2760  139.7320 O   0  0  0  0  0  0  0  0  0  0  0  0
  189.7700  175.6740  137.4240 C   0  0  0  0  0  0  0  0  0  0  0  0
  188.3700  177.7420  137.8880 C   0  0  2  0  0  0  0  0  0  0  0  0
  187.8860  178.5990  136.7320 C   0  0  0  0  0  1  0  0  0  0  0  0
  187.3320  176.6540  138.2120 C   0  0  0  0  0  2  0  0  0  0  0  0
  187.2730  175.5060  137.1870 C   0  0  1  0  0  3  0  0  0  0  0  0
  189.8130  178.1730  139.8030 C   0  0  2  0  0  3  0  0  0  0  0  0
  190.7390  174.8990  137.9150 C   0  0  0  0  0  3  0  0  0  0  0  0
  191.8300  176.8250  139.0550 C   0  0  0  0  0  0  0  0  0  0  0  0
  189.7730  177.1810  137.5730 C   0  0  1  0  0  3  0  0  0  0  0  0
  191.8060  175.4450  138.6900 N   0  0  0  0  0  2  0  0  0  0  0  0
  188.8430  175.3320  135.1440 C   0  0  0  0  0  2  0  0  0  0  0  0
  190.1000  174.6530  134.6220 C   0  0  0  0  0  2  0  0  0  0  0  0
  189.9060  173.1470  134.5940 C   0  0  0  0  0  2  0  0  0  0  0  0
  190.7880  172.5370  135.4840 O   0  0  0  0  0  0  0  0  0  0  0  0
  192.0380  172.6400  134.8660 C   0  0  0  0  0  1  0  0  0  0  0  0
  189.5170  177.0700  140.6540 O   0  0  0  0  0  0  0  0  0  0  0  0
  187.6160  177.0880  143.8070 C   0  0  0  0  0  3  0  0  0  0  0  0
  187.9520  177.0080  142.4560 C   0  0  0  0  0  3  0  0  0  0  0  0
  189.9330  177.5030  144.3560 C   0  0  0  0  0  3  0  0  0  0  0  0
  190.2840  177.4170  143.0050 C   0  0  0  0  0  0  0  0  0  0  0  0
  188.6030  177.3380  144.7670 C   0  0  0  0  0  0  0  0  0  0  0  0
  189.2800  177.1640  142.0340 C   0  0  0  0  0  0  0  0  0  0  0  0
  191.9750  177.7090  142.6170 Cl  0  0  0  0  0  0  0  0  0  0  0  0
  188.2510  177.4300  146.1570 N   0  0  0  0  0  0  0  0  0  0  0  0
  189.2280  177.6400  147.1070 O   0  0  0  0  0  0  0  0  0  0  0  0
  187.0700  177.2410  146.5250 O   0  0  0  0  0  0  0  0  0  0  0  0
  186.1910  175.7260  136.1160 C   0  0  0  0  0  2  0  0  0  0  0  0
  184.9250  174.8920  136.3310 C   0  0  1  0  0  3  0  0  0  0  0  0
  185.1630  173.8460  137.2290 O   0  0  0  0  0  1  0  0  0  0  0  0
  183.7830  175.7410  136.7950 C   0  0  0  0  0  3  0  0  0  0  0  0
  183.8060  177.0620  136.6460 C   0  0  0  0  0  3  0  0  0  0  0  0
  182.6540  177.8820  137.1220 C   0  0  0  0  0  2  0  0  0  0  0  0
  182.9490  178.4390  138.4710 C   0  0  0  0  0  0  0  0  0  0  0  0
  183.0960  179.7530  138.7150 N   0  0  0  0  0  0  0  0  0  0  0  0
  183.4130  178.6110  140.5010 C   0  0  0  0  0  0  0  0  0  0  0  0
  183.3760  179.8650  140.0020 N   0  0  0  0  0  0  0  0  0  0  0  0
  183.1340  177.6790  139.5680 N   0  0  0  0  0  2  0  0  0  0  0  0
  183.8230  179.0070  144.7350 C   0  0  0  0  0  3  0  0  0  0  0  0
  182.5390  179.3810  144.0510 C   0  0  0  0  0  2  0  0  0  0  0  0
  184.8530  179.0150  142.5140 C   0  0  0  0  0  2  0  0  0  0  0  0
  183.6150  178.2930  141.9570 C   0  0  1  0  0  3  0  0  0  0  0  0
  184.9290  178.8370  144.0040 C   0  0  0  0  0  3  0  0  0  0  0  0
  182.3270  178.5420  142.7820 C   0  0  0  0  0  2  0  0  0  0  0  0
  1 10  1  0  0  0  0
  2 15  1  6  0  0  0
  2  9  1  0  0  0  0
  2  5  1  0  0  0  0
  3 12  1  1  0  0  0
  3 10  1  0  0  0  0
  5 11  2  0  0  0  0
  6  7  1  6  0  0  0
  6  8  1  0  0  0  0
  6  1  1  0  0  0  0
  9 31  1  6  0  0  0
  9  8  1  0  0  0  0
 10 20  1  1  0  0  0
 11 14  1  0  0  0  0
 12  4  2  0  0  0  0
 13  5  1  1  0  0  0
 13  6  1  0  0  0  0
 13  3  1  0  0  0  0
 14 12  1  0  0  0  0
 16 15  1  0  0  0  0
 17 16  1  0  0  0  0
 17 18  1  0  0  0  0
 19 18  1  0  0  0  0
 20 26  1  0  0  0  0
 21 25  1  0  0  0  0
 22 21  2  0  0  0  0
 23 25  2  0  0  0  0
 24 23  1  0  0  0  0
 25 28  1  0  0  0  0
 26 22  1  0  0  0  0
 26 24  2  0  0  0  0
 27 24  1  0  0  0  0
 28 30  2  0  0  0  0
 28 29  2  0  0  0  0
 31 32  1  0  0  0  0
 32 34  1  0  0  0  0
 32 33  1  1  0  0  0
 35 34  2  0  0  0  0
 35 36  1  0  0  0  0
 36 37  1  0  0  0  0
 37 38  2  0  0  0  0
 37 41  1  0  0  0  0
 38 40  1  0  0  0  0
 40 39  2  0  0  0  0
 41 39  1  0  0  0  0
 43 42  1  0  0  0  0
 44 46  1  0  0  0  0
 45 39  1  6  0  0  0
 45 44  1  0  0  0  0
 45 47  1  0  0  0  0
 46 42  2  0  0  0  0
 47 43  1  0  0  0  0
M  END
>  <MODEL>
4

>  <REMARK>
 VINA RESULT:      -7.2      2.477      4.897
  Name = 
  13 active torsions:
  status: ('A' for Active; 'I' for Inactive)
    1  A    between atoms: N_2  and  C_34
    2  A    between atoms: C_4  and  C_21
    3  A    between atoms: C_5  and  C_18
    4  A    between atoms: C_6  and  C_7
    5  A    between atoms: C_7  and  C_11
    6  A    between atoms: O_14  and  C_20
    7  A    between atoms: C_18  and  C_32
    8  A    between atoms: C_20  and  C_30
    9  A    between atoms: C_21  and  C_30
   10  A    between atoms: C_22  and  C_29
   11  A    between atoms: O_31  and  C_37
   12  A    between atoms: O_31  and  C_40
   13  A    between atoms: C_32  and  C_35
                            x       y       z     vdW  Elec       q    Type
                         _______ _______ _______ _____ _____    ______ ____

>  <TORSDO>
F 13

$$$$
=
 OpenBabel10222415243D

 47 52  0  0  1  0  0  0  0  0999 V2000
  184.9600  178.0220  137.5190 C   0  0  0  0  0  2  0  0  0  0  0  0
  182.3580  177.7590  140.9940 C   0  0  1  0  0  3  0  0  0  0  0  0
  182.7650  177.1690  137.1260 C   0  0  1  0  0  3  0  0  0  0  0  0
  181.6350  175.4320  135.9250 O   0  0  0  0  0  0  0  0  0  0  0  0
  182.1430  177.1810  139.6280 C   0  0  1  0  0  3  0  0  0  0  0  0
  184.1170  178.4820  138.7010 C   0  0  2  0  0  0  0  0  0  0  0  0
  184.1010  180.0000  138.7310 C   0  0  0  0  0  1  0  0  0  0  0  0
  184.7570  177.9340  139.9880 C   0  0  0  0  0  2  0  0  0  0  0  0
  183.8650  178.0500  141.2400 C   0  0  1  0  0  3  0  0  0  0  0  0
  184.2310  176.8440  136.9010 C   0  0  2  0  0  3  0  0  0  0  0  0
  181.4390  176.0560  139.4940 C   0  0  0  0  0  3  0  0  0  0  0  0
  181.8480  175.9800  137.0390 C   0  0  0  0  0  0  0  0  0  0  0  0
  182.6930  177.9470  138.4430 C   0  0  1  0  0  3  0  0  0  0  0  0
  181.2320  175.4560  138.2150 N   0  0  0  0  0  0  0  0  0  0  0  0
  181.4570  178.9800  141.1970 C   0  0  0  0  0  2  0  0  0  0  0  0
  179.9920  178.5720  141.2270 C   0  0  0  0  0  2  0  0  0  0  0  0
  179.6550  177.9340  142.5620 C   0  0  0  0  0  2  0  0  0  0  0  0
  178.9490  178.8370  143.3570 O   0  0  0  0  0  0  0  0  0  0  0  0
  179.4840  178.6710  144.6380 C   0  0  0  0  0  1  0  0  0  0  0  0
  184.5960  175.6580  137.6000 O   0  0  0  0  0  0  0  0  0  0  0  0
  187.7810  174.2420  136.4140 C   0  0  0  0  0  3  0  0  0  0  0  0
  186.8110  175.1250  136.8890 C   0  0  0  0  0  3  0  0  0  0  0  0
  186.1410  172.4660  136.3790 C   0  0  0  0  0  3  0  0  0  0  0  0
  185.1630  173.3400  136.8630 C   0  0  0  0  0  0  0  0  0  0  0  0
  187.4530  172.9070  136.1530 C   0  0  0  0  0  0  0  0  0  0  0  0
  185.4980  174.6940  137.1260 C   0  0  0  0  0  0  0  0  0  0  0  0
  183.5410  172.6780  137.0400 Cl  0  0  0  0  0  0  0  0  0  0  0  0
  188.4510  172.0030  135.6540 N   0  0  0  0  0  0  0  0  0  0  0  0
  189.6380  172.4910  135.1490 O   0  0  0  0  0  0  0  0  0  0  0  0
  188.2220  170.7740  135.5970 O   0  0  0  0  0  0  0  0  0  0  0  0
  184.1550  179.3220  142.0550 C   0  0  0  0  0  2  0  0  0  0  0  0
  184.5710  179.0510  143.5030 C   0  0  1  0  0  3  0  0  0  0  0  0
  183.4480  178.9150  144.3270 O   0  0  0  0  0  1  0  0  0  0  0  0
  185.4520  177.8450  143.6030 C   0  0  0  0  0  3  0  0  0  0  0  0
  186.7530  177.9660  143.8520 C   0  0  0  0  0  3  0  0  0  0  0  0
  187.6060  176.7450  143.9420 C   0  0  0  0  0  2  0  0  0  0  0  0
  188.6620  176.7840  142.8940 C   0  0  0  0  0  0  0  0  0  0  0  0
  189.8970  176.2800  143.0650 N   0  0  0  0  0  0  0  0  0  0  0  0
  189.7090  177.1840  141.1310 C   0  0  0  0  0  0  0  0  0  0  0  0
  190.5570  176.5200  141.9460 N   0  0  0  0  0  0  0  0  0  0  0  0
  188.4940  177.3590  141.6880 N   0  0  0  0  0  2  0  0  0  0  0  0
  189.4940  177.6880  136.8940 C   0  0  0  0  0  3  0  0  0  0  0  0
  188.4580  178.3010  137.7920 C   0  0  0  0  0  2  0  0  0  0  0  0
  190.1660  176.3300  138.8170 C   0  0  0  0  0  2  0  0  0  0  0  0
  190.0380  177.5720  139.7160 C   0  0  1  0  0  3  0  0  0  0  0  0
  190.3060  176.7440  137.3800 C   0  0  0  0  0  3  0  0  0  0  0  0
  189.0510  178.6350  139.1690 C   0  0  0  0  0  2  0  0  0  0  0  0
  1  6  1  0  0  0  0
  2 15  1  6  0  0  0
  2  9  1  0  0  0  0
  3 12  1  1  0  0  0
  3 13  1  0  0  0  0
  4 12  2  0  0  0  0
  5 11  1  6  0  0  0
  5  2  1  0  0  0  0
  6  7  1  1  0  0  0
  6  8  1  0  0  0  0
  8  9  1  0  0  0  0
  9 31  1  6  0  0  0
 10  3  1  0  0  0  0
 10  1  1  0  0  0  0
 10 20  1  1  0  0  0
 12 14  1  0  0  0  0
 13  6  1  0  0  0  0
 13  5  1  0  0  0  0
 14 11  2  0  0  0  0
 15 16  1  0  0  0  0
 16 17  1  0  0  0  0
 17 18  1  0  0  0  0
 18 19  1  0  0  0  0
 21 22  1  0  0  0  0
 22 26  2  0  0  0  0
 23 24  2  0  0  0  0
 24 27  1  0  0  0  0
 24 26  1  0  0  0  0
 25 23  1  0  0  0  0
 25 21  2  0  0  0  0
 26 20  1  0  0  0  0
 28 25  1  0  0  0  0
 29 28  2  0  0  0  0
 30 28  2  0  0  0  0
 31 32  1  0  0  0  0
 32 34  1  0  0  0  0
 32 33  1  0  0  0  0
 34 35  2  0  0  0  0
 35 36  1  0  0  0  0
 37 38  2  0  0  0  0
 37 36  1  0  0  0  0
 39 41  1  0  0  0  0
 39 40  2  0  0  0  0
 40 38  1  0  0  0  0
 41 37  1  0  0  0  0
 42 46  2  0  0  0  0
 42 43  1  0  0  0  0
 43 47  1  0  0  0  0
 44 45  1  0  0  0  0
 45 39  1  0  0  0  0
 46 44  1  0  0  0  0
 47 45  1  0  0  0  0
M  END
>  <MODEL>
5

>  <REMARK>
 VINA RESULT:      -7.1      3.384      7.227
  Name = 
  13 active torsions:
  status: ('A' for Active; 'I' for Inactive)
    1  A    between atoms: N_2  and  C_34
    2  A    between atoms: C_4  and  C_21
    3  A    between atoms: C_5  and  C_18
    4  A    between atoms: C_6  and  C_7
    5  A    between atoms: C_7  and  C_11
    6  A    between atoms: O_14  and  C_20
    7  A    between atoms: C_18  and  C_32
    8  A    between atoms: C_20  and  C_30
    9  A    between atoms: C_21  and  C_30
   10  A    between atoms: C_22  and  C_29
   11  A    between atoms: O_31  and  C_37
   12  A    between atoms: O_31  and  C_40
   13  A    between atoms: C_32  and  C_35
                            x       y       z     vdW  Elec       q    Type
                         _______ _______ _______ _____ _____    ______ ____

>  <TORSDO>
F 13

$$$$
=
 OpenBabel10222415243D

 47 52  0  0  1  0  0  0  0  0999 V2000
  182.5310  179.1580  139.6880 C   0  0  0  0  0  2  0  0  0  0  0  0
  185.2130  177.0100  137.0220 C   0  0  1  0  0  3  0  0  0  0  0  0
  181.5060  177.6030  138.1940 C   0  0  1  0  0  3  0  0  0  0  0  0
  179.6080  177.3930  136.7470 O   0  0  0  0  0  0  0  0  0  0  0  0
  183.7160  177.0730  136.9790 C   0  0  1  0  0  3  0  0  0  0  0  0
  183.6390  178.2110  139.2490 C   0  0  2  0  0  0  0  0  0  0  0  0
  184.1860  177.4940  140.4700 C   0  0  0  0  0  1  0  0  0  0  0  0
  184.7480  179.0450  138.5830 C   0  0  0  0  0  2  0  0  0  0  0  0
  185.7940  178.2140  137.8150 C   0  0  1  0  0  3  0  0  0  0  0  0
  181.4330  179.0510  138.6470 C   0  0  2  0  0  3  0  0  0  0  0  0
  183.0880  176.9680  135.8070 C   0  0  0  0  0  3  0  0  0  0  0  0
  180.8620  177.3390  136.8600 C   0  0  0  0  0  0  0  0  0  0  0  0
  182.9770  177.1930  138.2960 C   0  0  1  0  0  3  0  0  0  0  0  0
  181.6650  177.0480  135.7170 N   0  0  0  0  0  0  0  0  0  0  0  0
  185.6690  175.6480  137.5530 C   0  0  0  0  0  2  0  0  0  0  0  0
  186.1650  174.7640  136.4190 C   0  0  0  0  0  2  0  0  0  0  0  0
  187.4450  175.3340  135.8360 C   0  0  0  0  0  2  0  0  0  0  0  0
  188.5510  174.7700  136.4720 O   0  0  0  0  0  0  0  0  0  0  0  0
  188.3100  173.3930  136.4370 C   0  0  0  0  0  1  0  0  0  0  0  0
  181.7320  179.9300  137.5680 O   0  0  0  0  0  0  0  0  0  0  0  0
  180.8120  183.4380  138.2020 C   0  0  0  0  0  3  0  0  0  0  0  0
  181.3730  182.1660  138.3200 C   0  0  0  0  0  3  0  0  0  0  0  0
  179.7150  182.7600  136.1580 C   0  0  0  0  0  3  0  0  0  0  0  0
  180.2790  181.4850  136.2610 C   0  0  0  0  0  0  0  0  0  0  0  0
  179.9770  183.7440  137.1210 C   0  0  0  0  0  0  0  0  0  0  0  0
  181.1250  181.1780  137.3590 C   0  0  0  0  0  0  0  0  0  0  0  0
  179.8180  180.3230  135.0210 Cl  0  0  0  0  0  0  0  0  0  0  0  0
  179.3920  185.0510  137.0090 N   0  0  0  0  0  0  0  0  0  0  0  0
  178.9490  185.5090  135.7860 O   0  0  0  0  0  0  0  0  0  0  0  0
  179.3520  185.8140  138.0000 O   0  0  0  0  0  0  0  0  0  0  0  0
  187.0330  177.8920  138.6680 C   0  0  0  0  0  2  0  0  0  0  0  0
  188.3610  178.2480  137.9950 C   0  0  1  0  0  3  0  0  0  0  0  0
  188.2690  179.4750  137.3290 O   0  0  0  0  0  1  0  0  0  0  0  0
  189.4880  178.2620  138.9810 C   0  0  0  0  0  3  0  0  0  0  0  0
  190.3160  177.2280  139.0890 C   0  0  0  0  0  3  0  0  0  0  0  0
  191.4280  177.2700  140.0840 C   0  0  0  0  0  2  0  0  0  0  0  0
  190.8810  177.1440  141.4630 C   0  0  0  0  0  0  0  0  0  0  0  0
  191.6490  177.1260  142.5670 N   0  0  0  0  0  0  0  0  0  0  0  0
  189.5820  176.8820  143.0780 C   0  0  0  0  0  0  0  0  0  0  0  0
  190.8280  176.9740  143.5910 N   0  0  0  0  0  0  0  0  0  0  0  0
  189.5700  176.9990  141.7350 N   0  0  0  0  0  2  0  0  0  0  0  0
  186.0850  177.9200  145.3020 C   0  0  0  0  0  3  0  0  0  0  0  0
  186.1800  178.2280  143.8350 C   0  0  0  0  0  2  0  0  0  0  0  0
  188.5040  177.5440  145.2440 C   0  0  0  0  0  2  0  0  0  0  0  0
  188.3360  176.7880  143.9150 C   0  0  1  0  0  3  0  0  0  0  0  0
  187.1940  177.5980  145.9770 C   0  0  0  0  0  3  0  0  0  0  0  0
  187.0760  177.2100  143.1160 C   0  0  0  0  0  2  0  0  0  0  0  0
  2 15  1  1  0  0  0
  2  9  1  0  0  0  0
  3 12  1  6  0  0  0
  3 13  1  0  0  0  0
  3 10  1  0  0  0  0
  4 12  2  0  0  0  0
  5 11  1  1  0  0  0
  5  2  1  0  0  0  0
  5 13  1  0  0  0  0
  6  1  1  0  0  0  0
  6  7  1  1  0  0  0
  8  6  1  0  0  0  0
  9  8  1  0  0  0  0
  9 31  1  1  0  0  0
 10 20  1  6  0  0  0
 10  1  1  0  0  0  0
 13  6  1  0  0  0  0
 14 11  2  0  0  0  0
 14 12  1  0  0  0  0
 16 15  1  0  0  0  0
 17 16  1  0  0  0  0
 17 18  1  0  0  0  0
 19 18  1  0  0  0  0
 21 22  1  0  0  0  0
 23 24  2  0  0  0  0
 23 25  1  0  0  0  0
 24 26  1  0  0  0  0
 25 21  2  0  0  0  0
 26 20  1  0  0  0  0
 26 22  2  0  0  0  0
 27 24  1  0  0  0  0
 28 25  1  0  0  0  0
 28 30  2  0  0  0  0
 29 28  2  0  0  0  0
 32 31  1  0  0  0  0
 32 34  1  0  0  0  0
 33 32  1  0  0  0  0
 34 35  2  0  0  0  0
 35 36  1  0  0  0  0
 36 37  1  0  0  0  0
 37 41  1  0  0  0  0
 37 38  2  0  0  0  0
 38 40  1  0  0  0  0
 39 40  2  0  0  0  0
 39 45  1  0  0  0  0
 41 39  1  0  0  0  0
 42 46  2  0  0  0  0
 43 42  1  0  0  0  0
 44 46  1  0  0  0  0
 45 44  1  0  0  0  0
 47 43  1  0  0  0  0
 47 45  1  0  0  0  0
M  END
>  <MODEL>
6

>  <REMARK>
 VINA RESULT:      -6.6      4.195      8.085
  Name = 
  13 active torsions:
  status: ('A' for Active; 'I' for Inactive)
    1  A    between atoms: N_2  and  C_34
    2  A    between atoms: C_4  and  C_21
    3  A    between atoms: C_5  and  C_18
    4  A    between atoms: C_6  and  C_7
    5  A    between atoms: C_7  and  C_11
    6  A    between atoms: O_14  and  C_20
    7  A    between atoms: C_18  and  C_32
    8  A    between atoms: C_20  and  C_30
    9  A    between atoms: C_21  and  C_30
   10  A    between atoms: C_22  and  C_29
   11  A    between atoms: O_31  and  C_37
   12  A    between atoms: O_31  and  C_40
   13  A    between atoms: C_32  and  C_35
                            x       y       z     vdW  Elec       q    Type
                         _______ _______ _______ _____ _____    ______ ____

>  <TORSDO>
F 13

$$$$
=
 OpenBabel10222415243D

 47 52  0  0  1  0  0  0  0  0999 V2000
  183.0430  179.2090  139.2730 C   0  0  0  0  0  2  0  0  0  0  0  0
  183.2880  175.4050  137.1790 C   0  0  1  0  0  3  0  0  0  0  0  0
  181.3060  177.6390  139.7390 C   0  0  1  0  0  3  0  0  0  0  0  0
  178.9310  177.5280  140.0320 O   0  0  0  0  0  0  0  0  0  0  0  0
  182.1460  175.9510  137.9810 C   0  0  0  0  0  0  0  0  0  0  0  0
  183.5880  177.8500  138.8550 C   0  0  2  0  0  0  0  0  0  0  0  0
  184.8220  177.5390  139.6830 C   0  0  0  0  0  1  0  0  0  0  0  0
  183.9540  177.9180  137.3630 C   0  0  0  0  0  2  0  0  0  0  0  0
  184.2320  176.5490  136.7130 C   0  0  1  0  0  3  0  0  0  0  0  0
  181.5320  179.0760  139.3070 C   0  0  2  0  0  3  0  0  0  0  0  0
  180.8960  175.6080  137.6620 C   0  0  0  0  0  3  0  0  0  0  0  0
  179.9400  177.1010  139.4100 C   0  0  0  0  0  0  0  0  0  0  0  0
  182.4740  176.8290  139.1700 C   0  0  1  0  0  3  0  0  0  0  0  0
  179.7770  176.1250  138.3810 N   0  0  0  0  0  2  0  0  0  0  0  0
  184.0030  174.3010  137.9640 C   0  0  0  0  0  2  0  0  0  0  0  0
  183.8170  172.9510  137.2890 C   0  0  0  0  0  2  0  0  0  0  0  0
  183.4750  173.1440  135.8220 C   0  0  0  0  0  2  0  0  0  0  0  0
  183.5400  171.9220  135.1540 O   0  0  0  0  0  0  0  0  0  0  0  0
  183.1820  170.9750  136.1190 C   0  0  0  0  0  1  0  0  0  0  0  0
  181.0190  179.2940  137.9970 O   0  0  0  0  0  0  0  0  0  0  0  0
  180.5830  182.9420  137.7580 C   0  0  0  0  0  3  0  0  0  0  0  0
  180.7450  181.6500  138.2590 C   0  0  0  0  0  3  0  0  0  0  0  0
  180.6330  182.0700  135.5040 C   0  0  0  0  0  3  0  0  0  0  0  0
  180.8050  180.7720  135.9950 C   0  0  0  0  0  0  0  0  0  0  0  0
  180.5240  183.1610  136.3770 C   0  0  0  0  0  0  0  0  0  0  0  0
  180.8630  180.5530  137.3960 C   0  0  0  0  0  0  0  0  0  0  0  0
  180.8630  179.4840  134.7960 Cl  0  0  0  0  0  0  0  0  0  0  0  0
  180.3460  184.4910  135.8650 N   0  0  0  0  0  0  0  0  0  0  0  0
  179.2040  185.2030  136.1660 O   0  0  0  0  0  0  0  0  0  0  0  0
  181.1850  184.9840  135.0780 O   0  0  0  0  0  0  0  0  0  0  0  0
  185.7280  176.1920  136.7040 C   0  0  0  0  0  2  0  0  0  0  0  0
  186.6100  177.2260  135.9990 C   0  0  1  0  0  3  0  0  0  0  0  0
  185.8650  177.9750  135.0820 O   0  0  0  0  0  1  0  0  0  0  0  0
  187.2950  178.1220  136.9830 C   0  0  0  0  0  3  0  0  0  0  0  0
  188.3930  177.7260  137.6220 C   0  0  0  0  0  3  0  0  0  0  0  0
  189.0510  178.6400  138.6000 C   0  0  0  0  0  2  0  0  0  0  0  0
  189.2960  177.9240  139.8820 C   0  0  0  0  0  0  0  0  0  0  0  0
  190.3890  177.1770  140.1170 N   0  0  0  0  0  0  0  0  0  0  0  0
  189.0570  177.1220  141.7960 C   0  0  0  0  0  0  0  0  0  0  0  0
  190.2460  176.6800  141.3330 N   0  0  0  0  0  0  0  0  0  0  0  0
  188.4300  177.9240  140.9130 N   0  0  0  0  0  2  0  0  0  0  0  0
  187.4290  177.6690  145.7070 C   0  0  0  0  0  3  0  0  0  0  0  0
  186.6220  178.0100  144.4870 C   0  0  0  0  0  2  0  0  0  0  0  0
  189.3840  177.6070  144.2350 C   0  0  0  0  0  2  0  0  0  0  0  0
  188.5460  176.8560  143.1850 C   0  0  1  0  0  3  0  0  0  0  0  0
  188.7480  177.4820  145.5890 C   0  0  0  0  0  3  0  0  0  0  0  0
  187.0240  177.1260  143.2980 C   0  0  0  0  0  2  0  0  0  0  0  0
  1 10  1  0  0  0  0
  2 15  1  1  0  0  0
  2  5  1  0  0  0  0
  3 12  1  6  0  0  0
  6 13  1  0  0  0  0
  6  1  1  0  0  0  0
  6  7  1  1  0  0  0
  8  6  1  0  0  0  0
  9 31  1  1  0  0  0
  9  2  1  0  0  0  0
  9  8  1  0  0  0  0
 10 20  1  6  0  0  0
 10  3  1  0  0  0  0
 11  5  2  0  0  0  0
 11 14  1  0  0  0  0
 12  4  2  0  0  0  0
 13  5  1  6  0  0  0
 13  3  1  0  0  0  0
 14 12  1  0  0  0  0
 16 15  1  0  0  0  0
 17 16  1  0  0  0  0
 18 17  1  0  0  0  0
 18 19  1  0  0  0  0
 21 22  1  0  0  0  0
 23 24  2  0  0  0  0
 23 25  1  0  0  0  0
 24 26  1  0  0  0  0
 25 21  2  0  0  0  0
 26 20  1  0  0  0  0
 26 22  2  0  0  0  0
 27 24  1  0  0  0  0
 28 29  2  0  0  0  0
 28 25  1  0  0  0  0
 30 28  2  0  0  0  0
 32 33  1  6  0  0  0
 32 31  1  0  0  0  0
 32 34  1  0  0  0  0
 34 35  2  0  0  0  0
 35 36  1  0  0  0  0
 36 37  1  0  0  0  0
 37 38  2  0  0  0  0
 37 41  1  0  0  0  0
 38 40  1  0  0  0  0
 40 39  2  0  0  0  0
 41 39  1  0  0  0  0
 43 42  1  0  0  0  0
 44 46  1  0  0  0  0
 45 39  1  6  0  0  0
 45 47  1  0  0  0  0
 45 44  1  0  0  0  0
 46 42  2  0  0  0  0
 47 43  1  0  0  0  0
M  END
>  <MODEL>
7

>  <REMARK>
 VINA RESULT:      -6.4      4.253      8.005
  Name = 
  13 active torsions:
  status: ('A' for Active; 'I' for Inactive)
    1  A    between atoms: N_2  and  C_34
    2  A    between atoms: C_4  and  C_21
    3  A    between atoms: C_5  and  C_18
    4  A    between atoms: C_6  and  C_7
    5  A    between atoms: C_7  and  C_11
    6  A    between atoms: O_14  and  C_20
    7  A    between atoms: C_18  and  C_32
    8  A    between atoms: C_20  and  C_30
    9  A    between atoms: C_21  and  C_30
   10  A    between atoms: C_22  and  C_29
   11  A    between atoms: O_31  and  C_37
   12  A    between atoms: O_31  and  C_40
   13  A    between atoms: C_32  and  C_35
                            x       y       z     vdW  Elec       q    Type
                         _______ _______ _______ _____ _____    ______ ____

>  <TORSDO>
F 13

$$$$
=
 OpenBabel10222415243D

 47 52  0  0  1  0  0  0  0  0999 V2000
  188.5630  178.7890  139.2710 C   0  0  0  0  0  2  0  0  0  0  0  0
  188.2390  175.1990  136.8370 C   0  0  1  0  0  3  0  0  0  0  0  0
  190.6190  177.7210  138.6940 C   0  0  1  0  0  3  0  0  0  0  0  0
  192.7210  177.0940  139.6570 O   0  0  0  0  0  0  0  0  0  0  0  0
  189.4450  175.7320  137.5490 C   0  0  0  0  0  0  0  0  0  0  0  0
  188.2530  177.9140  138.0640 C   0  0  2  0  0  0  0  0  0  0  0  0
  187.7750  178.7990  136.9260 C   0  0  0  0  0  1  0  0  0  0  0  0
  187.1480  176.9210  138.4630 C   0  0  0  0  0  2  0  0  0  0  0  0
  186.9330  175.7720  137.4580 C   0  0  1  0  0  3  0  0  0  0  0  0
  189.8360  178.2390  139.8870 C   0  0  2  0  0  3  0  0  0  0  0  0
  190.3740  174.8830  137.9940 C   0  0  0  0  0  3  0  0  0  0  0  0
  191.6870  176.7200  139.0430 C   0  0  0  0  0  0  0  0  0  0  0  0
  189.5830  177.2340  137.6770 C   0  0  1  0  0  3  0  0  0  0  0  0
  191.5250  175.3440  138.7000 N   0  0  0  0  0  2  0  0  0  0  0  0
  188.3620  175.4480  135.3310 C   0  0  0  0  0  2  0  0  0  0  0  0
  188.6820  174.1560  134.5950 C   0  0  0  0  0  2  0  0  0  0  0  0
  188.2140  172.9630  135.4080 C   0  0  0  0  0  2  0  0  0  0  0  0
  188.1820  171.8230  134.6050 O   0  0  0  0  0  0  0  0  0  0  0  0
  189.4370  171.2320  134.7850 C   0  0  0  0  0  1  0  0  0  0  0  0
  189.4990  177.1740  140.7690 O   0  0  0  0  0  0  0  0  0  0  0  0
  191.1290  176.7760  144.0460 C   0  0  0  0  0  3  0  0  0  0  0  0
  190.8830  176.7810  142.6730 C   0  0  0  0  0  3  0  0  0  0  0  0
  188.8960  177.6120  144.4450 C   0  0  0  0  0  3  0  0  0  0  0  0
  188.6410  177.6300  143.0700 C   0  0  0  0  0  0  0  0  0  0  0  0
  190.1370  177.1890  144.9420 C   0  0  0  0  0  0  0  0  0  0  0  0
  189.6500  177.2090  142.1630 C   0  0  0  0  0  0  0  0  0  0  0  0
  187.0230  178.1190  142.5800 Cl  0  0  0  0  0  0  0  0  0  0  0  0
  190.3890  177.1730  146.3560 N   0  0  0  0  0  0  0  0  0  0  0  0
  191.6700  177.3590  146.8340 O   0  0  0  0  0  0  0  0  0  0  0  0
  189.4680  176.9110  147.1610 O   0  0  0  0  0  0  0  0  0  0  0  0
  185.8130  176.0720  136.4480 C   0  0  0  0  0  2  0  0  0  0  0  0
  184.4070  175.7600  136.9680 C   0  0  1  0  0  3  0  0  0  0  0  0
  184.4150  174.6140  137.7710 O   0  0  0  0  0  1  0  0  0  0  0  0
  183.8260  176.9230  137.7100 C   0  0  0  0  0  3  0  0  0  0  0  0
  182.5250  176.9830  137.9790 C   0  0  0  0  0  3  0  0  0  0  0  0
  181.9760  178.1580  138.7170 C   0  0  0  0  0  2  0  0  0  0  0  0
  181.4400  179.1590  137.7530 C   0  0  0  0  0  0  0  0  0  0  0  0
  181.3400  178.9350  136.4310 N   0  0  0  0  0  0  0  0  0  0  0  0
  180.6950  180.9210  136.9150 C   0  0  0  0  0  0  0  0  0  0  0  0
  180.8560  180.0440  135.9000 N   0  0  0  0  0  0  0  0  0  0  0  0
  181.0400  180.3950  138.1070 N   0  0  0  0  0  2  0  0  0  0  0  0
  180.2110  185.1190  136.2850 C   0  0  0  0  0  3  0  0  0  0  0  0
  180.7820  184.2430  135.2060 C   0  0  0  0  0  2  0  0  0  0  0  0
  180.6100  183.2570  137.8240 C   0  0  0  0  0  2  0  0  0  0  0  0
  180.0810  182.2850  136.7560 C   0  0  1  0  0  3  0  0  0  0  0  0
  180.1330  184.6520  137.5350 C   0  0  0  0  0  3  0  0  0  0  0  0
  180.2280  182.8150  135.3060 C   0  0  0  0  0  2  0  0  0  0  0  0
  1 10  1  0  0  0  0
  2 15  1  6  0  0  0
  2  9  1  0  0  0  0
  2  5  1  0  0  0  0
  3 12  1  1  0  0  0
  3 10  1  0  0  0  0
  5 11  2  0  0  0  0
  6  7  1  6  0  0  0
  6  8  1  0  0  0  0
  6  1  1  0  0  0  0
  9 31  1  6  0  0  0
  9  8  1  0  0  0  0
 10 20  1  1  0  0  0
 11 14  1  0  0  0  0
 12  4  2  0  0  0  0
 13  5  1  1  0  0  0
 13  6  1  0  0  0  0
 13  3  1  0  0  0  0
 14 12  1  0  0  0  0
 16 15  1  0  0  0  0
 16 17  1  0  0  0  0
 18 19  1  0  0  0  0
 18 17  1  0  0  0  0
 20 26  1  0  0  0  0
 21 25  1  0  0  0  0
 22 21  2  0  0  0  0
 23 25  2  0  0  0  0
 24 23  1  0  0  0  0
 25 28  1  0  0  0  0
 26 22  1  0  0  0  0
 26 24  2  0  0  0  0
 27 24  1  0  0  0  0
 28 29  2  0  0  0  0
 28 30  2  0  0  0  0
 31 32  1  0  0  0  0
 32 34  1  0  0  0  0
 32 33  1  1  0  0  0
 34 35  2  0  0  0  0
 35 36  1  0  0  0  0
 37 41  1  0  0  0  0
 37 36  1  0  0  0  0
 38 37  2  0  0  0  0
 39 41  1  0  0  0  0
 40 38  1  0  0  0  0
 40 39  2  0  0  0  0
 42 46  2  0  0  0  0
 43 47  1  0  0  0  0
 43 42  1  0  0  0  0
 45 39  1  6  0  0  0
 45 44  1  0  0  0  0
 46 44  1  0  0  0  0
 47 45  1  0  0  0  0
M  END
>  <MODEL>
8

>  <REMARK>
 VINA RESULT:      -6.1      4.021      7.005
  Name = 
  13 active torsions:
  status: ('A' for Active; 'I' for Inactive)
    1  A    between atoms: N_2  and  C_34
    2  A    between atoms: C_4  and  C_21
    3  A    between atoms: C_5  and  C_18
    4  A    between atoms: C_6  and  C_7
    5  A    between atoms: C_7  and  C_11
    6  A    between atoms: O_14  and  C_20
    7  A    between atoms: C_18  and  C_32
    8  A    between atoms: C_20  and  C_30
    9  A    between atoms: C_21  and  C_30
   10  A    between atoms: C_22  and  C_29
   11  A    between atoms: O_31  and  C_37
   12  A    between atoms: O_31  and  C_40
   13  A    between atoms: C_32  and  C_35
                            x       y       z     vdW  Elec       q    Type
                         _______ _______ _______ _____ _____    ______ ____

>  <TORSDO>
F 13

$$$$
=
 OpenBabel10222415243D

 47 52  0  0  1  0  0  0  0  0999 V2000
  187.7400  178.8130  138.9200 C   0  0  0  0  0  2  0  0  0  0  0  0
  188.9520  175.3170  136.6340 C   0  0  1  0  0  3  0  0  0  0  0  0
  190.0260  178.1590  139.1330 C   0  0  1  0  0  3  0  0  0  0  0  0
  191.7350  177.8900  140.7900 O   0  0  0  0  0  0  0  0  0  0  0  0
  189.7140  176.0340  137.7080 C   0  0  0  0  0  0  0  0  0  0  0  0
  188.0380  177.9420  137.7070 C   0  0  2  0  0  0  0  0  0  0  0  0
  187.8350  178.7670  136.4490 C   0  0  0  0  0  1  0  0  0  0  0  0
  187.0650  176.7500  137.7220 C   0  0  0  0  0  2  0  0  0  0  0  0
  187.4310  175.6200  136.7410 C   0  0  1  0  0  3  0  0  0  0  0  0
  188.7940  178.4810  139.9600 C   0  0  2  0  0  3  0  0  0  0  0  0
  190.5660  175.3520  138.4750 C   0  0  0  0  0  3  0  0  0  0  0  0
  191.0680  177.3570  139.8630 C   0  0  0  0  0  0  0  0  0  0  0  0
  189.5200  177.5310  137.8310 C   0  0  1  0  0  3  0  0  0  0  0  0
  191.2930  175.9880  139.5260 N   0  0  0  0  0  2  0  0  0  0  0  0
  189.5470  175.6410  135.2600 C   0  0  0  0  0  2  0  0  0  0  0  0
  191.0190  176.0030  135.3810 C   0  0  0  0  0  2  0  0  0  0  0  0
  191.8640  175.0180  134.5940 C   0  0  0  0  0  2  0  0  0  0  0  0
  193.1440  174.9440  135.1430 O   0  0  0  0  0  0  0  0  0  0  0  0
  193.2120  176.0300  136.0220 C   0  0  0  0  0  1  0  0  0  0  0  0
  188.3710  177.3400  140.6980 O   0  0  0  0  0  0  0  0  0  0  0  0
  186.4180  178.2110  143.6950 C   0  0  0  0  0  3  0  0  0  0  0  0
  186.8720  178.1300  142.3780 C   0  0  0  0  0  3  0  0  0  0  0  0
  188.2120  176.7510  144.3990 C   0  0  0  0  0  3  0  0  0  0  0  0
  188.6710  176.6560  143.0810 C   0  0  0  0  0  0  0  0  0  0  0  0
  187.0860  177.5240  144.7150 C   0  0  0  0  0  0  0  0  0  0  0  0
  187.9920  177.3540  142.0490 C   0  0  0  0  0  0  0  0  0  0  0  0
  190.1320  175.7070  142.8290 Cl  0  0  0  0  0  0  0  0  0  0  0  0
  186.6220  177.6190  146.0710 N   0  0  0  0  0  0  0  0  0  0  0  0
  185.3050  177.9330  146.3330 O   0  0  0  0  0  0  0  0  0  0  0  0
  187.4240  177.4970  147.0240 O   0  0  0  0  0  0  0  0  0  0  0  0
  186.6990  175.7490  135.3930 C   0  0  0  0  0  2  0  0  0  0  0  0
  185.9170  174.4970  134.9880 C   0  0  1  0  0  3  0  0  0  0  0  0
  186.7630  173.3870  134.8960 O   0  0  0  0  0  1  0  0  0  0  0  0
  184.7880  174.2280  135.9340 C   0  0  0  0  0  3  0  0  0  0  0  0
  183.5840  173.8870  135.4840 C   0  0  0  0  0  3  0  0  0  0  0  0
  182.4780  173.6280  136.4520 C   0  0  0  0  0  2  0  0  0  0  0  0
  182.1730  174.8670  137.2190 C   0  0  0  0  0  0  0  0  0  0  0  0
  181.7340  176.0040  136.6490 N   0  0  0  0  0  0  0  0  0  0  0  0
  181.9870  176.2640  138.7610 C   0  0  0  0  0  0  0  0  0  0  0  0
  181.6020  176.8840  137.6250 N   0  0  0  0  0  0  0  0  0  0  0  0
  182.3420  174.9810  138.5500 N   0  0  0  0  0  2  0  0  0  0  0  0
  181.2420  179.0210  141.9380 C   0  0  0  0  0  3  0  0  0  0  0  0
  180.1100  178.4760  141.1160 C   0  0  0  0  0  2  0  0  0  0  0  0
  182.7390  178.1810  140.1930 C   0  0  0  0  0  2  0  0  0  0  0  0
  181.9070  176.8890  140.1270 C   0  0  1  0  0  3  0  0  0  0  0  0
  182.4970  178.8860  141.4970 C   0  0  0  0  0  3  0  0  0  0  0  0
  180.4390  177.0720  140.5890 C   0  0  0  0  0  2  0  0  0  0  0  0
  1 10  1  0  0  0  0
  2 15  1  6  0  0  0
  2  9  1  0  0  0  0
  2  5  1  0  0  0  0
  3 12  1  1  0  0  0
  3 10  1  0  0  0  0
  5 11  2  0  0  0  0
  6  7  1  6  0  0  0
  6  8  1  0  0  0  0
  6 13  1  0  0  0  0
  6  1  1  0  0  0  0
  9 31  1  6  0  0  0
  9  8  1  0  0  0  0
 10 20  1  6  0  0  0
 11 14  1  0  0  0  0
 12  4  2  0  0  0  0
 13  5  1  1  0  0  0
 13  3  1  0  0  0  0
 14 12  1  0  0  0  0
 15 16  1  0  0  0  0
 17 18  1  0  0  0  0
 17 16  1  0  0  0  0
 18 19  1  0  0  0  0
 20 26  1  0  0  0  0
 21 25  1  0  0  0  0
 22 21  2  0  0  0  0
 23 25  2  0  0  0  0
 24 23  1  0  0  0  0
 25 28  1  0  0  0  0
 26 22  1  0  0  0  0
 26 24  2  0  0  0  0
 27 24  1  0  0  0  0
 28 29  2  0  0  0  0
 28 30  2  0  0  0  0
 32 33  1  1  0  0  0
 32 31  1  0  0  0  0
 32 34  1  0  0  0  0
 35 34  2  0  0  0  0
 35 36  1  0  0  0  0
 36 37  1  0  0  0  0
 37 41  1  0  0  0  0
 38 37  2  0  0  0  0
 38 40  1  0  0  0  0
 40 39  2  0  0  0  0
 41 39  1  0  0  0  0
 43 42  1  0  0  0  0
 44 46  1  0  0  0  0
 45 39  1  6  0  0  0
 45 44  1  0  0  0  0
 45 47  1  0  0  0  0
 46 42  2  0  0  0  0
 47 43  1  0  0  0  0
M  END
>  <MODEL>
9

>  <REMARK>
 VINA RESULT:      -5.8      3.091      6.515
  Name = 
  13 active torsions:
  status: ('A' for Active; 'I' for Inactive)
    1  A    between atoms: N_2  and  C_34
    2  A    between atoms: C_4  and  C_21
    3  A    between atoms: C_5  and  C_18
    4  A    between atoms: C_6  and  C_7
    5  A    between atoms: C_7  and  C_11
    6  A    between atoms: O_14  and  C_20
    7  A    between atoms: C_18  and  C_32
    8  A    between atoms: C_20  and  C_30
    9  A    between atoms: C_21  and  C_30
   10  A    between atoms: C_22  and  C_29
   11  A    between atoms: O_31  and  C_37
   12  A    between atoms: O_31  and  C_40
   13  A    between atoms: C_32  and  C_35
                            x       y       z     vdW  Elec       q    Type
                         _______ _______ _______ _____ _____    ______ ____

>  <TORSDO>
F 13

$$$$
