=
 OpenBabel10222421193D

 37 38  0  0  1  0  0  0  0  0999 V2000
  191.3940  176.5480  138.8560 C   0  0  0  0  0  0  0  0  0  0  0  0
  189.2800  177.1920  137.7160 C   0  0  2  0  0  3  0  0  0  0  0  0
  189.9820  176.1140  138.5250 C   0  0  2  0  0  3  0  0  0  0  0  0
  191.6630  177.2840  139.9460 C   0  0  0  0  0  3  0  0  0  0  0  0
  189.3750  178.1420  140.0070 C   0  0  2  0  0  3  0  0  0  0  0  0
  188.8670  176.9710  139.1550 C   0  0  1  0  0  3  0  0  0  0  0  0
  188.0820  176.4340  136.6440 Cl  0  0  0  0  0  0  0  0  0  0  0  0
  190.5730  177.7300  140.8700 C   0  0  1  0  0  3  0  0  0  0  0  0
  191.5860  173.8660  137.6590 O   0  0  0  0  0  1  0  0  0  0  0  0
  192.4960  176.1170  137.9800 C   0  0  0  0  0  0  0  0  0  0  0  0
  193.4650  176.9040  137.7780 O   0  0  0  0  0  0  0  0  0  0  0  0
  192.5110  174.8240  137.3650 N   0  0  0  0  0  2  0  0  0  0  0  0
  188.2420  178.7290  140.8390 C   0  0  0  0  0  2  0  0  0  0  0  0
  186.8860  178.2890  140.3000 C   0  0  0  0  0  2  0  0  0  0  0  0
  185.7850  179.1420  140.8490 C   0  0  0  0  0  3  0  0  0  0  0  0
  184.8110  178.6170  141.5440 C   0  0  0  0  0  0  0  0  0  0  0  0
  183.8610  178.0770  142.2550 C   0  0  0  0  0  3  0  0  0  0  0  0
  182.6120  178.8360  142.5590 C   0  0  0  0  0  2  0  0  0  0  0  0
  181.5030  178.4450  141.5960 C   0  0  0  0  0  2  0  0  0  0  0  0
  181.6150  179.2350  140.2950 C   0  0  0  0  0  1  0  0  0  0  0  0
  190.2160  176.6720  141.7400 O   0  0  0  0  0  0  0  0  0  0  0  0
  190.5020  176.9400  143.1140 C   0  0  1  0  0  0  0  0  0  0  0  0
  191.4540  175.9180  143.7760 C   0  0  0  0  0  1  0  0  0  0  0  0
  191.2050  178.3020  143.1040 C   0  0  0  0  0  2  0  0  0  0  0  0
  191.8130  178.6080  144.3310 O   0  0  0  0  0  1  0  0  0  0  0  0
  189.1710  177.0490  143.9060 C   0  0  1  0  0  3  0  0  0  0  0  0
  188.0840  176.1760  143.3000 C   0  0  0  0  0  1  0  0  0  0  0  0
  189.3260  176.6830  145.3880 C   0  0  0  0  0  2  0  0  0  0  0  0
  188.5470  177.6060  146.3360 C   0  0  2  0  0  3  0  0  0  0  0  0
  189.2750  177.8130  147.6300 C   0  0  0  0  0  0  0  0  0  0  0  0
  188.6700  178.5400  148.6450 O   0  0  0  0  0  1  0  0  0  0  0  0
  190.4560  177.3930  147.7840 O   0  0  0  0  0  0  0  0  0  0  0  0
  187.1120  177.1390  146.5580 C   0  0  0  0  0  2  0  0  0  0  0  0
  185.4810  179.0200  146.1770 C   0  0  0  0  0  0  0  0  0  0  0  0
  185.7600  179.5400  147.2930 O   0  0  0  0  0  1  0  0  0  0  0  0
  184.4660  179.5590  145.3960 O   0  0  0  0  0  0  0  0  0  0  0  0
  186.2020  177.8880  145.7030 N   0  0  0  0  0  2  0  0  0  0  0  0
  1  4  2  0  0  0  0
  2  7  1  6  0  0  0
  2  3  1  0  0  0  0
  2  6  1  0  0  0  0
  3  1  1  1  0  0  0
  3  6  1  0  0  0  0
  4  8  1  0  0  0  0
  5 13  1  1  0  0  0
  5  8  1  0  0  0  0
  6  5  1  0  0  0  0
  8 21  1  0  0  0  0
 10  1  1  0  0  0  0
 11 10  2  0  0  0  0
 12  9  1  0  0  0  0
 12 10  1  0  0  0  0
 14 13  1  0  0  0  0
 14 15  1  0  0  0  0
 15 16  2  0  0  0  0
 16 17  2  0  0  0  0
 17 18  1  0  0  0  0
 19 18  1  0  0  0  0
 20 19  1  0  0  0  0
 21 22  1  0  0  0  0
 22 23  1  0  0  0  0
 22 26  1  0  0  0  0
 24 22  1  0  0  0  0
 24 25  1  0  0  0  0
 26 28  1  0  0  0  0
 27 26  1  0  0  0  0
 28 29  1  0  0  0  0
 29 33  1  0  0  0  0
 29 30  1  0  0  0  0
 30 32  2  0  0  0  0
 30 31  1  0  0  0  0
 34 35  1  0  0  0  0
 36 34  2  0  0  0  0
 37 34  1  0  0  0  0
 37 33  1  0  0  0  0
M  END
>  <MODEL>
1

>  <REMARK>
 VINA RESULT:      -7.3      0.000      0.000
  Name = 
  15 active torsions:
  status: ('A' for Active; 'I' for Inactive)
    1  A    between atoms: C_1  and  C_10
    2  A    between atoms: C_3  and  C_16
    3  A    between atoms: C_6  and  C_8
    4  A    between atoms: C_8  and  C_20
    5  A    between atoms: C_8  and  O_34
    6  A    between atoms: C_13  and  C_23
    7  A    between atoms: C_13  and  C_24
    8  A    between atoms: C_13  and  C_37
    9  A    between atoms: C_15  and  C_26
   10  A    between atoms: C_16  and  C_26
   11  A    between atoms: C_19  and  C_29
   12  A    between atoms: C_20  and  C_23
   13  A    between atoms: C_25  and  O_34
   14  A    between atoms: N_27  and  C_37
   15  A    between atoms: C_29  and  C_30
                            x       y       z     vdW  Elec       q    Type
                         _______ _______ _______ _____ _____    ______ ____

>  <TORSDO>
F 15

$$$$
=
 OpenBabel10222421193D

 37 38  0  0  1  0  0  0  0  0999 V2000
  188.8690  177.5700  146.5340 C   0  0  0  0  0  0  0  0  0  0  0  0
  186.4260  178.0170  146.3930 C   0  0  2  0  0  3  0  0  0  0  0  0
  187.8140  178.6150  146.2360 C   0  0  2  0  0  3  0  0  0  0  0  0
  189.3190  176.7380  145.5810 C   0  0  0  0  0  3  0  0  0  0  0  0
  187.2660  177.0130  144.2840 C   0  0  2  0  0  3  0  0  0  0  0  0
  186.9370  178.3280  145.0020 C   0  0  1  0  0  3  0  0  0  0  0  0
  185.2930  179.2900  146.8950 Cl  0  0  0  0  0  0  0  0  0  0  0  0
  188.7790  176.7900  144.1860 C   0  0  1  0  0  3  0  0  0  0  0  0
  191.6960  176.9820  147.1040 O   0  0  0  0  0  1  0  0  0  0  0  0
  189.4340  177.4970  147.8910 C   0  0  0  0  0  0  0  0  0  0  0  0
  188.6630  177.6140  148.8860 O   0  0  0  0  0  0  0  0  0  0  0  0
  190.8310  177.2750  148.1170 N   0  0  0  0  0  2  0  0  0  0  0  0
  186.5890  176.9640  142.9200 C   0  0  0  0  0  2  0  0  0  0  0  0
  186.0370  178.3320  142.5360 C   0  0  0  0  0  2  0  0  0  0  0  0
  184.5700  178.2610  142.2500 C   0  0  0  0  0  3  0  0  0  0  0  0
  183.6910  178.6110  143.1520 C   0  0  0  0  0  0  0  0  0  0  0  0
  182.8320  178.9880  144.0560 C   0  0  0  0  0  3  0  0  0  0  0  0
  181.3830  178.6540  143.9160 C   0  0  0  0  0  2  0  0  0  0  0  0
  180.6970  179.6350  142.9800 C   0  0  0  0  0  2  0  0  0  0  0  0
  180.4380  178.9920  141.6210 C   0  0  0  0  0  1  0  0  0  0  0  0
  189.3910  177.8490  143.4730 O   0  0  0  0  0  0  0  0  0  0  0  0
  190.6600  177.5050  142.9150 C   0  0  1  0  0  0  0  0  0  0  0  0
  191.8680  178.1200  143.6580 C   0  0  0  0  0  1  0  0  0  0  0  0
  190.7450  175.9810  143.0570 C   0  0  0  0  0  2  0  0  0  0  0  0
  191.8960  175.5640  143.7410 O   0  0  0  0  0  1  0  0  0  0  0  0
  190.6830  177.8880  141.4110 C   0  0  1  0  0  3  0  0  0  0  0  0
  192.0260  177.5720  140.7720 C   0  0  0  0  0  1  0  0  0  0  0  0
  189.5790  177.1960  140.6010 C   0  0  0  0  0  2  0  0  0  0  0  0
  189.6750  177.4450  139.0890 C   0  0  2  0  0  3  0  0  0  0  0  0
  188.6880  178.4780  138.6350 C   0  0  0  0  0  0  0  0  0  0  0  0
  189.0980  179.4790  137.7660 O   0  0  0  0  0  0  0  0  0  0  0  0
  187.5070  178.4910  139.0840 O   0  0  0  0  0  1  0  0  0  0  0  0
  189.5680  176.1600  138.2760 C   0  0  0  0  0  2  0  0  0  0  0  0
  191.8450  175.3420  137.5770 C   0  0  0  0  0  0  0  0  0  0  0  0
  191.9240  176.2180  136.6710 O   0  0  0  0  0  0  0  0  0  0  0  0
  192.8410  174.3810  137.6990 O   0  0  0  0  0  1  0  0  0  0  0  0
  190.7480  175.3340  138.4850 N   0  0  0  0  0  2  0  0  0  0  0  0
  1 10  1  0  0  0  0
  2  7  1  1  0  0  0
  3  2  1  0  0  0  0
  3  1  1  6  0  0  0
  4  1  2  0  0  0  0
  5 13  1  6  0  0  0
  5  6  1  0  0  0  0
  6  3  1  0  0  0  0
  6  2  1  0  0  0  0
  8  5  1  0  0  0  0
  8  4  1  0  0  0  0
  9 12  1  0  0  0  0
 10 12  1  0  0  0  0
 10 11  2  0  0  0  0
 14 13  1  0  0  0  0
 15 14  1  0  0  0  0
 15 16  2  0  0  0  0
 16 17  2  0  0  0  0
 18 17  1  0  0  0  0
 19 18  1  0  0  0  0
 20 19  1  0  0  0  0
 21  8  1  0  0  0  0
 22 24  1  0  0  0  0
 22 21  1  0  0  0  0
 22 23  1  0  0  0  0
 24 25  1  0  0  0  0
 26 22  1  0  0  0  0
 27 26  1  0  0  0  0
 28 26  1  0  0  0  0
 29 28  1  0  0  0  0
 30 32  1  0  0  0  0
 30 29  1  0  0  0  0
 31 30  2  0  0  0  0
 33 37  1  0  0  0  0
 33 29  1  0  0  0  0
 34 36  1  0  0  0  0
 34 37  1  0  0  0  0
 35 34  2  0  0  0  0
M  END
>  <MODEL>
2

>  <REMARK>
 VINA RESULT:      -7.3      2.642      7.355
  Name = 
  15 active torsions:
  status: ('A' for Active; 'I' for Inactive)
    1  A    between atoms: C_1  and  C_10
    2  A    between atoms: C_3  and  C_16
    3  A    between atoms: C_6  and  C_8
    4  A    between atoms: C_8  and  C_20
    5  A    between atoms: C_8  and  O_34
    6  A    between atoms: C_13  and  C_23
    7  A    between atoms: C_13  and  C_24
    8  A    between atoms: C_13  and  C_37
    9  A    between atoms: C_15  and  C_26
   10  A    between atoms: C_16  and  C_26
   11  A    between atoms: C_19  and  C_29
   12  A    between atoms: C_20  and  C_23
   13  A    between atoms: C_25  and  O_34
   14  A    between atoms: N_27  and  C_37
   15  A    between atoms: C_29  and  C_30
                            x       y       z     vdW  Elec       q    Type
                         _______ _______ _______ _____ _____    ______ ____

>  <TORSDO>
F 15

$$$$
=
 OpenBabel10222421193D

 37 38  0  0  1  0  0  0  0  0999 V2000
  190.3860  176.9350  146.5780 C   0  0  0  0  0  0  0  0  0  0  0  0
  188.4490  177.3370  148.0840 C   0  0  2  0  0  3  0  0  0  0  0  0
  189.5310  177.9930  147.2440 C   0  0  2  0  0  3  0  0  0  0  0  0
  190.0450  176.4030  145.3940 C   0  0  0  0  0  3  0  0  0  0  0  0
  187.6920  176.9600  145.7500 C   0  0  2  0  0  3  0  0  0  0  0  0
  188.0580  178.0250  146.7930 C   0  0  1  0  0  3  0  0  0  0  0  0
  188.0460  178.3970  149.4520 Cl  0  0  0  0  0  0  0  0  0  0  0  0
  188.7890  176.8130  144.6900 C   0  0  1  0  0  3  0  0  0  0  0  0
  192.1370  174.8030  145.5530 O   0  0  0  0  0  1  0  0  0  0  0  0
  191.6360  176.5150  147.2320 C   0  0  0  0  0  0  0  0  0  0  0  0
  191.9560  177.0340  148.3390 O   0  0  0  0  0  0  0  0  0  0  0  0
  192.4910  175.5190  146.6590 N   0  0  0  0  0  2  0  0  0  0  0  0
  186.3330  177.2620  145.1320 C   0  0  0  0  0  2  0  0  0  0  0  0
  185.6580  178.4300  145.8420 C   0  0  0  0  0  2  0  0  0  0  0  0
  184.9010  179.2840  144.8750 C   0  0  0  0  0  3  0  0  0  0  0  0
  183.6880  178.9680  144.5040 C   0  0  0  0  0  0  0  0  0  0  0  0
  182.4710  178.6470  144.1660 C   0  0  0  0  0  3  0  0  0  0  0  0
  181.8080  179.2990  142.9970 C   0  0  0  0  0  2  0  0  0  0  0  0
  180.3010  179.3280  143.1870 C   0  0  0  0  0  2  0  0  0  0  0  0
  179.8730  178.3350  144.2620 C   0  0  0  0  0  1  0  0  0  0  0  0
  188.9950  178.0410  144.0160 O   0  0  0  0  0  0  0  0  0  0  0  0
  189.2880  177.8890  142.6260 C   0  0  1  0  0  0  0  0  0  0  0  0
  189.0740  176.4570  142.0850 C   0  0  0  0  0  1  0  0  0  0  0  0
  188.2910  178.8140  141.9180 C   0  0  0  0  0  2  0  0  0  0  0  0
  186.9670  178.3580  142.0130 O   0  0  0  0  0  1  0  0  0  0  0  0
  190.7350  178.3760  142.3480 C   0  0  1  0  0  3  0  0  0  0  0  0
  191.4020  178.9020  143.6090 C   0  0  0  0  0  1  0  0  0  0  0  0
  191.6260  177.2840  141.7400 C   0  0  0  0  0  2  0  0  0  0  0  0
  191.9610  177.5150  140.2600 C   0  0  2  0  0  3  0  0  0  0  0  0
  190.8510  177.0590  139.3630 C   0  0  0  0  0  0  0  0  0  0  0  0
  190.7100  175.7070  139.0830 O   0  0  0  0  0  1  0  0  0  0  0  0
  190.0840  177.8920  138.8030 O   0  0  0  0  0  0  0  0  0  0  0  0
  193.3010  176.9060  139.8620 C   0  0  0  0  0  2  0  0  0  0  0  0
  193.9010  176.0330  137.5770 C   0  0  0  0  0  0  0  0  0  0  0  0
  193.8230  174.8360  137.9720 O   0  0  0  0  0  1  0  0  0  0  0  0
  194.3350  176.3090  136.2870 O   0  0  0  0  0  0  0  0  0  0  0  0
  193.5420  177.1070  138.4400 N   0  0  0  0  0  2  0  0  0  0  0  0
  1 10  1  0  0  0  0
  2  7  1  1  0  0  0
  3  1  1  6  0  0  0
  3  2  1  0  0  0  0
  4  1  2  0  0  0  0
  5 13  1  6  0  0  0
  5  6  1  0  0  0  0
  6  3  1  0  0  0  0
  6  2  1  0  0  0  0
  8  4  1  0  0  0  0
  8  5  1  0  0  0  0
  9 12  1  0  0  0  0
 10 11  2  0  0  0  0
 12 10  1  0  0  0  0
 13 14  1  0  0  0  0
 15 14  1  0  0  0  0
 16 15  2  0  0  0  0
 17 16  2  0  0  0  0
 18 19  1  0  0  0  0
 18 17  1  0  0  0  0
 19 20  1  0  0  0  0
 21  8  1  0  0  0  0
 22 21  1  0  0  0  0
 23 22  1  0  0  0  0
 24 25  1  0  0  0  0
 24 22  1  0  0  0  0
 26 22  1  0  0  0  0
 26 27  1  0  0  0  0
 28 26  1  0  0  0  0
 29 28  1  0  0  0  0
 30 29  1  0  0  0  0
 31 30  1  0  0  0  0
 32 30  2  0  0  0  0
 33 29  1  0  0  0  0
 34 35  1  0  0  0  0
 34 37  1  0  0  0  0
 36 34  2  0  0  0  0
 37 33  1  0  0  0  0
M  END
>  <MODEL>
3

>  <REMARK>
 VINA RESULT:      -7.1      3.211      7.620
  Name = 
  15 active torsions:
  status: ('A' for Active; 'I' for Inactive)
    1  A    between atoms: C_1  and  C_10
    2  A    between atoms: C_3  and  C_16
    3  A    between atoms: C_6  and  C_8
    4  A    between atoms: C_8  and  C_20
    5  A    between atoms: C_8  and  O_34
    6  A    between atoms: C_13  and  C_23
    7  A    between atoms: C_13  and  C_24
    8  A    between atoms: C_13  and  C_37
    9  A    between atoms: C_15  and  C_26
   10  A    between atoms: C_16  and  C_26
   11  A    between atoms: C_19  and  C_29
   12  A    between atoms: C_20  and  C_23
   13  A    between atoms: C_25  and  O_34
   14  A    between atoms: N_27  and  C_37
   15  A    between atoms: C_29  and  C_30
                            x       y       z     vdW  Elec       q    Type
                         _______ _______ _______ _____ _____    ______ ____

>  <TORSDO>
F 15

$$$$
=
 OpenBabel10222421193D

 37 38  0  0  1  0  0  0  0  0999 V2000
  184.4150  178.4690  140.5600 C   0  0  0  0  0  0  0  0  0  0  0  0
  182.6140  179.0910  142.1570 C   0  0  2  0  0  3  0  0  0  0  0  0
  183.4400  177.9470  141.5940 C   0  0  2  0  0  3  0  0  0  0  0  0
  185.6270  178.9300  140.9090 C   0  0  0  0  0  3  0  0  0  0  0  0
  184.8530  179.4250  143.1740 C   0  0  2  0  0  3  0  0  0  0  0  0
  183.6740  178.4540  143.0300 C   0  0  1  0  0  3  0  0  0  0  0  0
  181.0170  178.4780  142.6400 Cl  0  0  0  0  0  0  0  0  0  0  0  0
  186.0580  178.9720  142.3420 C   0  0  1  0  0  3  0  0  0  0  0  0
  183.4780  180.8150  139.0490 O   0  0  0  0  0  1  0  0  0  0  0  0
  184.0330  178.4310  139.1380 C   0  0  0  0  0  0  0  0  0  0  0  0
  184.0280  177.3210  138.5330 O   0  0  0  0  0  0  0  0  0  0  0  0
  183.6490  179.6130  138.4270 N   0  0  0  0  0  2  0  0  0  0  0  0
  185.2100  179.6200  144.6430 C   0  0  0  0  0  2  0  0  0  0  0  0
  184.2610  178.8370  145.5420 C   0  0  0  0  0  2  0  0  0  0  0  0
  185.0140  178.0590  146.5750 C   0  0  0  0  0  3  0  0  0  0  0  0
  186.0790  178.5560  147.1460 C   0  0  0  0  0  0  0  0  0  0  0  0
  187.1250  179.0800  147.7220 C   0  0  0  0  0  3  0  0  0  0  0  0
  188.0580  178.2310  148.5230 C   0  0  0  0  0  2  0  0  0  0  0  0
  188.3350  176.9210  147.8050 C   0  0  0  0  0  2  0  0  0  0  0  0
  189.7760  176.8740  147.3050 C   0  0  0  0  0  1  0  0  0  0  0  0
  186.4890  177.6880  142.7530 O   0  0  0  0  0  0  0  0  0  0  0  0
  187.8950  177.6070  142.9950 C   0  0  1  0  0  0  0  0  0  0  0  0
  188.3560  178.2930  144.3020 C   0  0  0  0  0  1  0  0  0  0  0  0
  188.1790  176.1060  143.1250 C   0  0  0  0  0  2  0  0  0  0  0  0
  189.4490  175.8390  143.6570 O   0  0  0  0  0  1  0  0  0  0  0  0
  188.6620  178.1760  141.7710 C   0  0  1  0  0  3  0  0  0  0  0  0
  190.1120  178.4820  142.1110 C   0  0  0  0  0  1  0  0  0  0  0  0
  188.6300  177.2390  140.5570 C   0  0  0  0  0  2  0  0  0  0  0  0
  189.6720  177.5840  139.4840 C   0  0  2  0  0  3  0  0  0  0  0  0
  189.0440  178.2420  138.2920 C   0  0  0  0  0  0  0  0  0  0  0  0
  187.7880  178.8200  138.4150 O   0  0  0  0  0  1  0  0  0  0  0  0
  189.6090  178.2180  137.1630 O   0  0  0  0  0  0  0  0  0  0  0  0
  190.5240  176.3830  139.0870 C   0  0  0  0  0  2  0  0  0  0  0  0
  192.6320  176.4050  137.7090 C   0  0  0  0  0  0  0  0  0  0  0  0
  192.0440  175.8620  136.7320 O   0  0  0  0  0  0  0  0  0  0  0  0
  194.0000  176.6340  137.6530 O   0  0  0  0  0  1  0  0  0  0  0  0
  191.9030  176.7950  138.8680 N   0  0  0  0  0  2  0  0  0  0  0  0
  1  4  2  0  0  0  0
  2  7  1  1  0  0  0
  2  6  1  0  0  0  0
  3  1  1  6  0  0  0
  3  2  1  0  0  0  0
  3  6  1  0  0  0  0
  4  8  1  0  0  0  0
  5 13  1  1  0  0  0
  6  5  1  0  0  0  0
  8 21  1  0  0  0  0
  8  5  1  0  0  0  0
 10  1  1  0  0  0  0
 11 10  2  0  0  0  0
 12  9  1  0  0  0  0
 12 10  1  0  0  0  0
 13 14  1  0  0  0  0
 14 15  1  0  0  0  0
 15 16  2  0  0  0  0
 16 17  2  0  0  0  0
 17 18  1  0  0  0  0
 19 18  1  0  0  0  0
 20 19  1  0  0  0  0
 21 22  1  0  0  0  0
 22 24  1  0  0  0  0
 22 23  1  0  0  0  0
 24 25  1  0  0  0  0
 26 27  1  0  0  0  0
 26 22  1  0  0  0  0
 28 26  1  0  0  0  0
 29 28  1  0  0  0  0
 30 31  1  0  0  0  0
 30 29  1  0  0  0  0
 32 30  2  0  0  0  0
 33 29  1  0  0  0  0
 34 37  1  0  0  0  0
 35 34  2  0  0  0  0
 36 34  1  0  0  0  0
 37 33  1  0  0  0  0
M  END
>  <MODEL>
4

>  <REMARK>
 VINA RESULT:      -7.1      3.116      7.890
  Name = 
  15 active torsions:
  status: ('A' for Active; 'I' for Inactive)
    1  A    between atoms: C_1  and  C_10
    2  A    between atoms: C_3  and  C_16
    3  A    between atoms: C_6  and  C_8
    4  A    between atoms: C_8  and  C_20
    5  A    between atoms: C_8  and  O_34
    6  A    between atoms: C_13  and  C_23
    7  A    between atoms: C_13  and  C_24
    8  A    between atoms: C_13  and  C_37
    9  A    between atoms: C_15  and  C_26
   10  A    between atoms: C_16  and  C_26
   11  A    between atoms: C_19  and  C_29
   12  A    between atoms: C_20  and  C_23
   13  A    between atoms: C_25  and  O_34
   14  A    between atoms: N_27  and  C_37
   15  A    between atoms: C_29  and  C_30
                            x       y       z     vdW  Elec       q    Type
                         _______ _______ _______ _____ _____    ______ ____

>  <TORSDO>
F 15

$$$$
=
 OpenBabel10222421193D

 37 38  0  0  1  0  0  0  0  0999 V2000
  186.2640  178.5420  141.8320 C   0  0  0  0  0  0  0  0  0  0  0  0
  187.1820  177.9970  144.0780 C   0  0  2  0  0  3  0  0  0  0  0  0
  186.5520  177.4290  142.8180 C   0  0  2  0  0  3  0  0  0  0  0  0
  187.1930  178.9620  140.9590 C   0  0  0  0  0  3  0  0  0  0  0  0
  188.9970  178.1470  142.3920 C   0  0  2  0  0  3  0  0  0  0  0  0
  188.0440  177.1950  143.1250 C   0  0  1  0  0  3  0  0  0  0  0  0
  186.7430  176.9760  145.4640 Cl  0  0  0  0  0  0  0  0  0  0  0  0
  188.5650  178.3640  140.9370 C   0  0  1  0  0  3  0  0  0  0  0  0
  184.9370  179.5130  139.3910 O   0  0  0  0  0  1  0  0  0  0  0  0
  184.9220  179.1460  141.8120 C   0  0  0  0  0  0  0  0  0  0  0  0
  184.3170  179.3380  142.9070 O   0  0  0  0  0  0  0  0  0  0  0  0
  184.2880  179.5420  140.5910 N   0  0  0  0  0  2  0  0  0  0  0  0
  190.4340  177.6500  142.4960 C   0  0  0  0  0  2  0  0  0  0  0  0
  191.2540  178.5430  143.4190 C   0  0  0  0  0  2  0  0  0  0  0  0
  190.6040  178.6760  144.7600 C   0  0  0  0  0  3  0  0  0  0  0  0
  190.5470  177.6630  145.5840 C   0  0  0  0  0  0  0  0  0  0  0  0
  190.5240  176.6470  146.4000 C   0  0  0  0  0  3  0  0  0  0  0  0
  189.6360  176.6570  147.6010 C   0  0  0  0  0  2  0  0  0  0  0  0
  189.4450  178.0750  148.1120 C   0  0  0  0  0  2  0  0  0  0  0  0
  188.0080  178.2930  148.5740 C   0  0  0  0  0  1  0  0  0  0  0  0
  188.5430  177.1330  140.2380 O   0  0  0  0  0  0  0  0  0  0  0  0
  188.9590  177.2420  138.8760 C   0  0  1  0  0  0  0  0  0  0  0  0
  189.4180  178.6600  138.4620 C   0  0  0  0  0  1  0  0  0  0  0  0
  190.1670  176.3050  138.7640 C   0  0  0  0  0  2  0  0  0  0  0  0
  191.3870  176.9680  138.9580 O   0  0  0  0  0  1  0  0  0  0  0  0
  187.8220  176.7370  137.9480 C   0  0  1  0  0  3  0  0  0  0  0  0
  187.1880  177.8760  137.1660 C   0  0  0  0  0  1  0  0  0  0  0  0
  188.2920  175.6630  136.9570 C   0  0  0  0  0  2  0  0  0  0  0  0
  187.4990  174.3520  137.0480 C   0  0  2  0  0  3  0  0  0  0  0  0
  188.4020  173.1550  137.0090 C   0  0  0  0  0  0  0  0  0  0  0  0
  189.7640  173.3220  137.2120 O   0  0  0  0  0  1  0  0  0  0  0  0
  187.9500  172.0100  136.7270 O   0  0  0  0  0  0  0  0  0  0  0  0
  186.3920  174.2630  136.0030 C   0  0  0  0  0  2  0  0  0  0  0  0
  184.2600  173.8030  137.2620 C   0  0  0  0  0  0  0  0  0  0  0  0
  184.6540  172.6470  137.5830 O   0  0  0  0  0  0  0  0  0  0  0  0
  182.9740  174.2120  137.5900 O   0  0  0  0  0  1  0  0  0  0  0  0
  185.1260  174.6990  136.5730 N   0  0  0  0  0  2  0  0  0  0  0  0
  2  7  1  1  0  0  0
  3  1  1  6  0  0  0
  3  6  1  0  0  0  0
  3  2  1  0  0  0  0
  4  1  2  0  0  0  0
  5 13  1  6  0  0  0
  5  6  1  0  0  0  0
  6  2  1  0  0  0  0
  8  4  1  0  0  0  0
  8  5  1  0  0  0  0
  9 12  1  0  0  0  0
 10  1  1  0  0  0  0
 10 11  2  0  0  0  0
 12 10  1  0  0  0  0
 13 14  1  0  0  0  0
 14 15  1  0  0  0  0
 15 16  2  0  0  0  0
 16 17  2  0  0  0  0
 17 18  1  0  0  0  0
 18 19  1  0  0  0  0
 19 20  1  0  0  0  0
 21  8  1  0  0  0  0
 22 21  1  0  0  0  0
 23 22  1  0  0  0  0
 24 22  1  0  0  0  0
 24 25  1  0  0  0  0
 26 22  1  0  0  0  0
 27 26  1  0  0  0  0
 28 29  1  0  0  0  0
 28 26  1  0  0  0  0
 30 29  1  0  0  0  0
 30 31  1  0  0  0  0
 32 30  2  0  0  0  0
 33 37  1  0  0  0  0
 33 29  1  0  0  0  0
 34 35  2  0  0  0  0
 34 36  1  0  0  0  0
 37 34  1  0  0  0  0
M  END
>  <MODEL>
5

>  <REMARK>
 VINA RESULT:      -6.9      3.641      8.204
  Name = 
  15 active torsions:
  status: ('A' for Active; 'I' for Inactive)
    1  A    between atoms: C_1  and  C_10
    2  A    between atoms: C_3  and  C_16
    3  A    between atoms: C_6  and  C_8
    4  A    between atoms: C_8  and  C_20
    5  A    between atoms: C_8  and  O_34
    6  A    between atoms: C_13  and  C_23
    7  A    between atoms: C_13  and  C_24
    8  A    between atoms: C_13  and  C_37
    9  A    between atoms: C_15  and  C_26
   10  A    between atoms: C_16  and  C_26
   11  A    between atoms: C_19  and  C_29
   12  A    between atoms: C_20  and  C_23
   13  A    between atoms: C_25  and  O_34
   14  A    between atoms: N_27  and  C_37
   15  A    between atoms: C_29  and  C_30
                            x       y       z     vdW  Elec       q    Type
                         _______ _______ _______ _____ _____    ______ ____

>  <TORSDO>
F 15

$$$$
=
 OpenBabel10222421193D

 37 38  0  0  1  0  0  0  0  0999 V2000
  190.4790  176.7310  146.1820 C   0  0  0  0  0  0  0  0  0  0  0  0
  188.5960  177.2020  147.7370 C   0  0  2  0  0  3  0  0  0  0  0  0
  189.6990  177.8170  146.8910 C   0  0  2  0  0  3  0  0  0  0  0  0
  190.0860  176.2500  144.9920 C   0  0  0  0  0  3  0  0  0  0  0  0
  187.7770  176.9300  145.4090 C   0  0  2  0  0  3  0  0  0  0  0  0
  188.2210  177.9440  146.4710 C   0  0  1  0  0  3  0  0  0  0  0  0
  188.2800  178.2460  149.1390 Cl  0  0  0  0  0  0  0  0  0  0  0  0
  188.8430  176.7490  144.3240 C   0  0  1  0  0  3  0  0  0  0  0  0
  191.6760  177.8570  148.6240 O   0  0  0  0  0  1  0  0  0  0  0  0
  191.7150  176.2230  146.8000 C   0  0  0  0  0  0  0  0  0  0  0  0
  192.3570  175.2990  146.2220 O   0  0  0  0  0  0  0  0  0  0  0  0
  192.2230  176.7590  148.0270 N   0  0  0  0  0  2  0  0  0  0  0  0
  186.4250  177.3250  144.8270 C   0  0  0  0  0  2  0  0  0  0  0  0
  185.9110  178.6100  145.4630 C   0  0  0  0  0  2  0  0  0  0  0  0
  185.0440  179.3740  144.5130 C   0  0  0  0  0  3  0  0  0  0  0  0
  183.8010  179.0250  144.3070 C   0  0  0  0  0  0  0  0  0  0  0  0
  182.5570  178.6750  144.1350 C   0  0  0  0  0  3  0  0  0  0  0  0
  181.7650  179.2190  142.9920 C   0  0  0  0  0  2  0  0  0  0  0  0
  180.2800  179.2060  143.3190 C   0  0  0  0  0  2  0  0  0  0  0  0
  179.9640  178.1250  144.3480 C   0  0  0  0  0  1  0  0  0  0  0  0
  189.1060  177.9810  143.6780 O   0  0  0  0  0  0  0  0  0  0  0  0
  189.0600  177.9000  142.2520 C   0  0  1  0  0  0  0  0  0  0  0  0
  188.3260  176.6520  141.7100 C   0  0  0  0  0  1  0  0  0  0  0  0
  188.2680  179.1380  141.8200 C   0  0  0  0  0  2  0  0  0  0  0  0
  187.0740  178.8140  141.1570 O   0  0  0  0  0  1  0  0  0  0  0  0
  190.5030  177.9820  141.6840 C   0  0  1  0  0  3  0  0  0  0  0  0
  191.5080  178.3670  142.7590 C   0  0  0  0  0  1  0  0  0  0  0  0
  190.9620  176.6740  141.0280 C   0  0  0  0  0  2  0  0  0  0  0  0
  191.0140  176.7370  139.4950 C   0  0  2  0  0  3  0  0  0  0  0  0
  192.4240  176.7600  138.9890 C   0  0  0  0  0  0  0  0  0  0  0  0
  193.4480  177.1610  139.8350 O   0  0  0  0  0  1  0  0  0  0  0  0
  192.6860  176.4850  137.7840 O   0  0  0  0  0  0  0  0  0  0  0  0
  190.1880  177.8870  138.9290 C   0  0  0  0  0  2  0  0  0  0  0  0
  188.0270  178.2200  137.6780 C   0  0  0  0  0  0  0  0  0  0  0  0
  188.3900  179.3640  137.2810 O   0  0  0  0  0  0  0  0  0  0  0  0
  186.7470  177.7630  137.3960 O   0  0  0  0  0  1  0  0  0  0  0  0
  188.9240  177.3880  138.4060 N   0  0  0  0  0  2  0  0  0  0  0  0
  1 10  1  0  0  0  0
  2  7  1  1  0  0  0
  3  1  1  6  0  0  0
  3  2  1  0  0  0  0
  4  1  2  0  0  0  0
  5 13  1  6  0  0  0
  5  6  1  0  0  0  0
  6  3  1  0  0  0  0
  6  2  1  0  0  0  0
  8  4  1  0  0  0  0
  8  5  1  0  0  0  0
 10 12  1  0  0  0  0
 11 10  2  0  0  0  0
 12  9  1  0  0  0  0
 13 14  1  0  0  0  0
 15 14  1  0  0  0  0
 16 15  2  0  0  0  0
 17 16  2  0  0  0  0
 18 19  1  0  0  0  0
 18 17  1  0  0  0  0
 19 20  1  0  0  0  0
 21  8  1  0  0  0  0
 22 21  1  0  0  0  0
 23 22  1  0  0  0  0
 24 22  1  0  0  0  0
 25 24  1  0  0  0  0
 26 22  1  0  0  0  0
 26 27  1  0  0  0  0
 28 26  1  0  0  0  0
 29 28  1  0  0  0  0
 30 29  1  0  0  0  0
 30 31  1  0  0  0  0
 32 30  2  0  0  0  0
 33 29  1  0  0  0  0
 34 37  1  0  0  0  0
 35 34  2  0  0  0  0
 36 34  1  0  0  0  0
 37 33  1  0  0  0  0
M  END
>  <MODEL>
6

>  <REMARK>
 VINA RESULT:      -6.8      3.230      7.132
  Name = 
  15 active torsions:
  status: ('A' for Active; 'I' for Inactive)
    1  A    between atoms: C_1  and  C_10
    2  A    between atoms: C_3  and  C_16
    3  A    between atoms: C_6  and  C_8
    4  A    between atoms: C_8  and  C_20
    5  A    between atoms: C_8  and  O_34
    6  A    between atoms: C_13  and  C_23
    7  A    between atoms: C_13  and  C_24
    8  A    between atoms: C_13  and  C_37
    9  A    between atoms: C_15  and  C_26
   10  A    between atoms: C_16  and  C_26
   11  A    between atoms: C_19  and  C_29
   12  A    between atoms: C_20  and  C_23
   13  A    between atoms: C_25  and  O_34
   14  A    between atoms: N_27  and  C_37
   15  A    between atoms: C_29  and  C_30
                            x       y       z     vdW  Elec       q    Type
                         _______ _______ _______ _____ _____    ______ ____

>  <TORSDO>
F 15

$$$$
=
 OpenBabel10222421193D

 37 38  0  0  1  0  0  0  0  0999 V2000
  183.8810  178.5520  139.9350 C   0  0  0  0  0  0  0  0  0  0  0  0
  182.2330  178.8570  141.7710 C   0  0  2  0  0  3  0  0  0  0  0  0
  183.1010  177.8550  141.0290 C   0  0  2  0  0  3  0  0  0  0  0  0
  185.0700  179.1250  140.1780 C   0  0  0  0  0  3  0  0  0  0  0  0
  184.5320  179.3780  142.5490 C   0  0  2  0  0  3  0  0  0  0  0  0
  183.4530  178.2900  142.4650 C   0  0  1  0  0  3  0  0  0  0  0  0
  180.7810  178.0350  142.3840 Cl  0  0  0  0  0  0  0  0  0  0  0  0
  185.6670  179.1220  141.5510 C   0  0  1  0  0  3  0  0  0  0  0  0
  181.9330  180.5330  138.9630 O   0  0  0  0  0  1  0  0  0  0  0  0
  183.3340  178.5640  138.5680 C   0  0  0  0  0  0  0  0  0  0  0  0
  183.6480  177.6330  137.7720 O   0  0  0  0  0  0  0  0  0  0  0  0
  182.4410  179.5890  138.1190 N   0  0  0  0  0  2  0  0  0  0  0  0
  185.0430  179.5150  143.9780 C   0  0  0  0  0  2  0  0  0  0  0  0
  183.9610  179.1360  144.9820 C   0  0  0  0  0  2  0  0  0  0  0  0
  184.5100  178.2560  146.0600 C   0  0  0  0  0  3  0  0  0  0  0  0
  185.6800  178.4930  146.5920 C   0  0  0  0  0  0  0  0  0  0  0  0
  186.8380  178.7620  147.1260 C   0  0  0  0  0  3  0  0  0  0  0  0
  187.5370  177.7530  147.9760 C   0  0  0  0  0  2  0  0  0  0  0  0
  189.0120  178.0970  148.1100 C   0  0  0  0  0  2  0  0  0  0  0  0
  189.8730  177.0790  147.3690 C   0  0  0  0  0  1  0  0  0  0  0  0
  186.2790  177.8710  141.8080 O   0  0  0  0  0  0  0  0  0  0  0  0
  187.7040  177.9350  141.8730 C   0  0  1  0  0  0  0  0  0  0  0  0
  188.2620  179.3230  142.2640 C   0  0  0  0  0  1  0  0  0  0  0  0
  188.0850  176.9450  142.9800 C   0  0  0  0  0  2  0  0  0  0  0  0
  188.1530  177.5470  144.2450 O   0  0  0  0  0  1  0  0  0  0  0  0
  188.3040  177.4590  140.5220 C   0  0  1  0  0  3  0  0  0  0  0  0
  188.7400  178.6310  139.6580 C   0  0  0  0  0  1  0  0  0  0  0  0
  189.4960  176.5090  140.6990 C   0  0  0  0  0  2  0  0  0  0  0  0
  190.8340  177.1070  140.2410 C   0  0  2  0  0  3  0  0  0  0  0  0
  191.3370  176.4460  138.9930 C   0  0  0  0  0  0  0  0  0  0  0  0
  190.6350  175.3760  138.4560 O   0  0  0  0  0  0  0  0  0  0  0  0
  192.4260  176.8030  138.4630 O   0  0  0  0  0  1  0  0  0  0  0  0
  191.8840  177.1080  141.3470 C   0  0  0  0  0  2  0  0  0  0  0  0
  191.4770  178.0850  143.6330 C   0  0  0  0  0  0  0  0  0  0  0  0
  191.6740  176.9670  144.1870 O   0  0  0  0  0  0  0  0  0  0  0  0
  191.0670  179.1720  144.3930 O   0  0  0  0  0  1  0  0  0  0  0  0
  191.6790  178.2460  142.2320 N   0  0  0  0  0  2  0  0  0  0  0  0
  1  4  2  0  0  0  0
  2  7  1  1  0  0  0
  2  6  1  0  0  0  0
  3  1  1  6  0  0  0
  3  2  1  0  0  0  0
  3  6  1  0  0  0  0
  4  8  1  0  0  0  0
  5 13  1  1  0  0  0
  6  5  1  0  0  0  0
  8 21  1  0  0  0  0
  8  5  1  0  0  0  0
 10  1  1  0  0  0  0
 11 10  2  0  0  0  0
 12 10  1  0  0  0  0
 12  9  1  0  0  0  0
 13 14  1  0  0  0  0
 14 15  1  0  0  0  0
 15 16  2  0  0  0  0
 16 17  2  0  0  0  0
 17 18  1  0  0  0  0
 18 19  1  0  0  0  0
 20 19  1  0  0  0  0
 21 22  1  0  0  0  0
 22 23  1  0  0  0  0
 22 24  1  0  0  0  0
 24 25  1  0  0  0  0
 26 28  1  0  0  0  0
 26 22  1  0  0  0  0
 27 26  1  0  0  0  0
 29 28  1  0  0  0  0
 29 33  1  0  0  0  0
 30 29  1  0  0  0  0
 31 30  2  0  0  0  0
 32 30  1  0  0  0  0
 33 37  1  0  0  0  0
 34 35  2  0  0  0  0
 34 36  1  0  0  0  0
 37 34  1  0  0  0  0
M  END
>  <MODEL>
7

>  <REMARK>
 VINA RESULT:      -6.7      3.258      7.327
  Name = 
  15 active torsions:
  status: ('A' for Active; 'I' for Inactive)
    1  A    between atoms: C_1  and  C_10
    2  A    between atoms: C_3  and  C_16
    3  A    between atoms: C_6  and  C_8
    4  A    between atoms: C_8  and  C_20
    5  A    between atoms: C_8  and  O_34
    6  A    between atoms: C_13  and  C_23
    7  A    between atoms: C_13  and  C_24
    8  A    between atoms: C_13  and  C_37
    9  A    between atoms: C_15  and  C_26
   10  A    between atoms: C_16  and  C_26
   11  A    between atoms: C_19  and  C_29
   12  A    between atoms: C_20  and  C_23
   13  A    between atoms: C_25  and  O_34
   14  A    between atoms: N_27  and  C_37
   15  A    between atoms: C_29  and  C_30
                            x       y       z     vdW  Elec       q    Type
                         _______ _______ _______ _____ _____    ______ ____

>  <TORSDO>
F 15

$$$$
=
 OpenBabel10222421193D

 37 38  0  0  1  0  0  0  0  0999 V2000
  184.4110  178.5960  143.3830 C   0  0  0  0  0  0  0  0  0  0  0  0
  186.6940  178.0880  144.2280 C   0  0  2  0  0  3  0  0  0  0  0  0
  185.4290  177.5020  143.6250 C   0  0  2  0  0  3  0  0  0  0  0  0
  184.4050  179.3080  142.2450 C   0  0  0  0  0  3  0  0  0  0  0  0
  186.7710  178.8310  141.8610 C   0  0  2  0  0  3  0  0  0  0  0  0
  186.7210  177.6120  142.7910 C   0  0  1  0  0  3  0  0  0  0  0  0
  187.4720  176.8680  145.2600 Cl  0  0  0  0  0  0  0  0  0  0  0  0
  185.4220  179.0680  141.1730 C   0  0  1  0  0  3  0  0  0  0  0  0
  185.0200  179.2120  146.1970 O   0  0  0  0  0  1  0  0  0  0  0  0
  183.3860  178.8530  144.4080 C   0  0  0  0  0  0  0  0  0  0  0  0
  182.1650  178.7330  144.1010 O   0  0  0  0  0  0  0  0  0  0  0  0
  183.7310  179.2170  145.7500 N   0  0  0  0  0  2  0  0  0  0  0  0
  187.9100  178.6910  140.8580 C   0  0  0  0  0  2  0  0  0  0  0  0
  188.7980  177.5020  141.2040 C   0  0  0  0  0  2  0  0  0  0  0  0
  189.9920  177.9330  141.9960 C   0  0  0  0  0  3  0  0  0  0  0  0
  190.3490  177.2910  143.0770 C   0  0  0  0  0  0  0  0  0  0  0  0
  190.7030  176.6210  144.1380 C   0  0  0  0  0  3  0  0  0  0  0  0
  191.6910  177.1900  145.1020 C   0  0  0  0  0  2  0  0  0  0  0  0
  191.7100  176.3790  146.3870 C   0  0  0  0  0  2  0  0  0  0  0  0
  190.5170  176.7350  147.2680 C   0  0  0  0  0  1  0  0  0  0  0  0
  185.0520  177.9380  140.4040 O   0  0  0  0  0  0  0  0  0  0  0  0
  184.5200  178.2700  139.1200 C   0  0  1  0  0  0  0  0  0  0  0  0
  184.1910  179.7700  138.9370 C   0  0  0  0  0  1  0  0  0  0  0  0
  185.6360  177.9080  138.1340 C   0  0  0  0  0  2  0  0  0  0  0  0
  186.4080  179.0170  137.7580 O   0  0  0  0  0  1  0  0  0  0  0  0
  183.2720  177.3920  138.8380 C   0  0  1  0  0  3  0  0  0  0  0  0
  183.6100  176.2030  137.9510 C   0  0  0  0  0  1  0  0  0  0  0  0
  182.6020  176.8740  140.1180 C   0  0  0  0  0  2  0  0  0  0  0  0
  181.1090  177.2180  140.2150 C   0  0  2  0  0  3  0  0  0  0  0  0
  180.2560  176.1760  139.5570 C   0  0  0  0  0  0  0  0  0  0  0  0
  180.5730  174.8350  139.7170 O   0  0  0  0  0  1  0  0  0  0  0  0
  179.2960  176.5030  138.8050 O   0  0  0  0  0  0  0  0  0  0  0  0
  180.7970  178.6190  139.6990 C   0  0  0  0  0  2  0  0  0  0  0  0
  179.8990  180.7690  140.6550 C   0  0  0  0  0  0  0  0  0  0  0  0
  180.3210  181.4300  139.6650 O   0  0  0  0  0  0  0  0  0  0  0  0
  179.3200  181.4290  141.7310 O   0  0  0  0  0  1  0  0  0  0  0  0
  180.0040  179.3490  140.6780 N   0  0  0  0  0  2  0  0  0  0  0  0
  1 10  1  0  0  0  0
  2  7  1  1  0  0  0
  3  1  1  6  0  0  0
  3  2  1  0  0  0  0
  4  1  2  0  0  0  0
  5 13  1  6  0  0  0
  5  6  1  0  0  0  0
  6  3  1  0  0  0  0
  6  2  1  0  0  0  0
  8  5  1  0  0  0  0
  8  4  1  0  0  0  0
 10 12  1  0  0  0  0
 11 10  2  0  0  0  0
 12  9  1  0  0  0  0
 13 14  1  0  0  0  0
 14 15  1  0  0  0  0
 15 16  2  0  0  0  0
 16 17  2  0  0  0  0
 17 18  1  0  0  0  0
 18 19  1  0  0  0  0
 19 20  1  0  0  0  0
 21  8  1  0  0  0  0
 22 21  1  0  0  0  0
 23 22  1  0  0  0  0
 24 22  1  0  0  0  0
 25 24  1  0  0  0  0
 26 22  1  0  0  0  0
 26 28  1  0  0  0  0
 27 26  1  0  0  0  0
 28 29  1  0  0  0  0
 30 31  1  0  0  0  0
 30 29  1  0  0  0  0
 32 30  2  0  0  0  0
 33 29  1  0  0  0  0
 33 37  1  0  0  0  0
 34 37  1  0  0  0  0
 34 36  1  0  0  0  0
 35 34  2  0  0  0  0
M  END
>  <MODEL>
8

>  <REMARK>
 VINA RESULT:      -6.6      4.092      8.849
  Name = 
  15 active torsions:
  status: ('A' for Active; 'I' for Inactive)
    1  A    between atoms: C_1  and  C_10
    2  A    between atoms: C_3  and  C_16
    3  A    between atoms: C_6  and  C_8
    4  A    between atoms: C_8  and  C_20
    5  A    between atoms: C_8  and  O_34
    6  A    between atoms: C_13  and  C_23
    7  A    between atoms: C_13  and  C_24
    8  A    between atoms: C_13  and  C_37
    9  A    between atoms: C_15  and  C_26
   10  A    between atoms: C_16  and  C_26
   11  A    between atoms: C_19  and  C_29
   12  A    between atoms: C_20  and  C_23
   13  A    between atoms: C_25  and  O_34
   14  A    between atoms: N_27  and  C_37
   15  A    between atoms: C_29  and  C_30
                            x       y       z     vdW  Elec       q    Type
                         _______ _______ _______ _____ _____    ______ ____

>  <TORSDO>
F 15

$$$$
=
 OpenBabel10222421193D

 37 38  0  0  1  0  0  0  0  0999 V2000
  190.6110  176.7610  145.9970 C   0  0  0  0  0  0  0  0  0  0  0  0
  188.6340  177.3450  147.3890 C   0  0  2  0  0  3  0  0  0  0  0  0
  189.8100  177.8960  146.6000 C   0  0  2  0  0  3  0  0  0  0  0  0
  190.2920  176.2360  144.8040 C   0  0  0  0  0  3  0  0  0  0  0  0
  187.9770  176.9880  145.0220 C   0  0  2  0  0  3  0  0  0  0  0  0
  188.3700  178.0380  146.0690 C   0  0  1  0  0  3  0  0  0  0  0  0
  188.2460  178.4590  148.7180 Cl  0  0  0  0  0  0  0  0  0  0  0  0
  189.1130  176.7340  144.0260 C   0  0  1  0  0  3  0  0  0  0  0  0
  192.2630  174.5060  145.0770 O   0  0  0  0  0  1  0  0  0  0  0  0
  191.7850  176.2540  146.7250 C   0  0  0  0  0  0  0  0  0  0  0  0
  192.0740  176.7520  147.8510 O   0  0  0  0  0  0  0  0  0  0  0  0
  192.6000  175.1980  146.2030 N   0  0  0  0  0  2  0  0  0  0  0  0
  186.6810  177.3860  144.3260 C   0  0  0  0  0  2  0  0  0  0  0  0
  185.8930  178.3820  145.1690 C   0  0  0  0  0  2  0  0  0  0  0  0
  184.8650  179.0910  144.3460 C   0  0  0  0  0  3  0  0  0  0  0  0
  184.5100  178.6350  143.1730 C   0  0  0  0  0  0  0  0  0  0  0  0
  184.1530  178.1500  142.0180 C   0  0  0  0  0  3  0  0  0  0  0  0
  183.3650  178.9770  141.0550 C   0  0  0  0  0  2  0  0  0  0  0  0
  183.2190  178.2550  139.7260 C   0  0  0  0  0  2  0  0  0  0  0  0
  184.4190  178.5350  138.8260 C   0  0  0  0  0  1  0  0  0  0  0  0
  189.4540  177.9290  143.3480 O   0  0  0  0  0  0  0  0  0  0  0  0
  189.1880  177.8860  141.9450 C   0  0  1  0  0  0  0  0  0  0  0  0
  188.2800  176.7140  141.5060 C   0  0  0  0  0  1  0  0  0  0  0  0
  188.4440  179.1940  141.6520 C   0  0  0  0  0  2  0  0  0  0  0  0
  187.2550  178.9920  140.9350 O   0  0  0  0  0  1  0  0  0  0  0  0
  190.5300  177.8660  141.1660 C   0  0  1  0  0  3  0  0  0  0  0  0
  191.7080  177.5760  142.0840 C   0  0  0  0  0  1  0  0  0  0  0  0
  190.5400  176.8490  140.0170 C   0  0  0  0  0  2  0  0  0  0  0  0
  190.5570  177.4930  138.6240 C   0  0  2  0  0  3  0  0  0  0  0  0
  189.2160  178.0530  138.2560 C   0  0  0  0  0  0  0  0  0  0  0  0
  188.1480  177.1910  138.0550 O   0  0  0  0  0  0  0  0  0  0  0  0
  189.0610  179.2910  138.0600 O   0  0  0  0  0  1  0  0  0  0  0  0
  191.0940  176.5520  137.5510 C   0  0  0  0  0  2  0  0  0  0  0  0
  193.5290  175.9720  137.8380 C   0  0  0  0  0  0  0  0  0  0  0  0
  193.8900  177.0520  137.2920 O   0  0  0  0  0  0  0  0  0  0  0  0
  194.4800  175.0260  138.1960 O   0  0  0  0  0  1  0  0  0  0  0  0
  192.1530  175.7160  138.1000 N   0  0  0  0  0  2  0  0  0  0  0  0
  1 10  1  0  0  0  0
  2  7  1  1  0  0  0
  3  1  1  6  0  0  0
  3  2  1  0  0  0  0
  4  1  2  0  0  0  0
  5 13  1  6  0  0  0
  5  6  1  0  0  0  0
  6  3  1  0  0  0  0
  6  2  1  0  0  0  0
  8  4  1  0  0  0  0
  8  5  1  0  0  0  0
  9 12  1  0  0  0  0
 10 11  2  0  0  0  0
 12 10  1  0  0  0  0
 13 14  1  0  0  0  0
 15 14  1  0  0  0  0
 16 15  2  0  0  0  0
 17 16  2  0  0  0  0
 18 17  1  0  0  0  0
 19 18  1  0  0  0  0
 20 19  1  0  0  0  0
 21  8  1  0  0  0  0
 22 21  1  0  0  0  0
 23 22  1  0  0  0  0
 24 22  1  0  0  0  0
 25 24  1  0  0  0  0
 26 22  1  0  0  0  0
 26 27  1  0  0  0  0
 28 26  1  0  0  0  0
 29 28  1  0  0  0  0
 30 29  1  0  0  0  0
 31 30  2  0  0  0  0
 32 30  1  0  0  0  0
 33 37  1  0  0  0  0
 33 29  1  0  0  0  0
 34 37  1  0  0  0  0
 34 36  1  0  0  0  0
 35 34  2  0  0  0  0
M  END
>  <MODEL>
9

>  <REMARK>
 VINA RESULT:      -6.6      3.081      7.438
  Name = 
  15 active torsions:
  status: ('A' for Active; 'I' for Inactive)
    1  A    between atoms: C_1  and  C_10
    2  A    between atoms: C_3  and  C_16
    3  A    between atoms: C_6  and  C_8
    4  A    between atoms: C_8  and  C_20
    5  A    between atoms: C_8  and  O_34
    6  A    between atoms: C_13  and  C_23
    7  A    between atoms: C_13  and  C_24
    8  A    between atoms: C_13  and  C_37
    9  A    between atoms: C_15  and  C_26
   10  A    between atoms: C_16  and  C_26
   11  A    between atoms: C_19  and  C_29
   12  A    between atoms: C_20  and  C_23
   13  A    between atoms: C_25  and  O_34
   14  A    between atoms: N_27  and  C_37
   15  A    between atoms: C_29  and  C_30
                            x       y       z     vdW  Elec       q    Type
                         _______ _______ _______ _____ _____    ______ ____

>  <TORSDO>
F 15

$$$$
