=
 OpenBabel10222420413D

 42 45  0  0  1  0  0  0  0  0999 V2000
  187.6600  177.7810  143.3520 C   0  0  1  0  0  3  0  0  0  0  0  0
  186.7110  178.1300  147.0310 C   0  0  0  0  0  3  0  0  0  0  0  0
  187.7260  177.7820  144.8520 C   0  0  0  0  0  0  0  0  0  0  0  0
  186.6140  178.1280  145.6360 C   0  0  0  0  0  3  0  0  0  0  0  0
  187.9170  177.7890  147.6490 C   0  0  0  0  0  0  0  0  0  0  0  0
  188.0120  177.7880  149.0340 O   0  0  0  0  0  1  0  0  0  0  0  0
  188.9330  177.4500  145.4770 C   0  0  0  0  0  3  0  0  0  0  0  0
  189.0280  177.4500  146.8720 C   0  0  0  0  0  3  0  0  0  0  0  0
  190.0720  176.3050  141.0100 O   0  0  0  0  0  0  0  0  0  0  0  0
  188.6550  176.8940  142.7550 N   0  0  0  0  0  2  0  0  0  0  0  0
  189.2040  177.1010  141.4500 C   0  0  0  0  0  0  0  0  0  0  0  0
  188.7370  178.2240  140.5870 C   0  0  0  0  0  2  0  0  0  0  0  0
  189.3590  178.1230  139.2680 N   0  0  0  0  0  2  0  0  0  0  0  0
  188.3670  177.8150  138.2300 C   0  0  0  0  0  0  0  0  0  0  0  0
  188.6870  178.6680  137.0120 C   0  0  0  0  0  1  0  0  0  0  0  0
  186.9710  178.2080  138.7070 C   0  0  0  0  0  1  0  0  0  0  0  0
  188.5770  174.7910  135.7280 C   0  0  0  0  0  2  0  0  0  0  0  0
  189.6450  174.5400  136.7690 C   0  0  0  0  0  2  0  0  0  0  0  0
  189.8080  175.8250  137.5380 C   0  0  0  0  0  2  0  0  0  0  0  0
  187.3140  175.8800  136.4540 S   0  0  0  0  0  0  0  0  0  0  0  0
  188.4060  176.3150  137.8570 C   0  0  2  0  0  3  0  0  0  0  0  0
  185.7110  179.6210  142.1200 N   0  0  0  0  0  2  0  0  0  0  0  0
  185.3890  178.3790  142.2930 C   0  0  0  0  0  0  0  0  0  0  0  0
  186.3180  177.4540  142.8750 N   0  0  0  0  0  2  0  0  0  0  0  0
  183.7010  178.6660  140.5250 C   0  0  2  0  0  3  0  0  0  0  0  0
  184.0840  177.8790  141.7660 C   0  0  2  0  0  3  0  0  0  0  0  0
  183.0290  178.9670  141.8470 C   0  0  0  0  0  2  0  0  0  0  0  0
  182.2740  178.6490  138.4900 C   0  0  2  0  0  3  0  0  0  0  0  0
  182.4850  177.7560  137.3130 C   0  0  0  0  0  2  0  0  0  0  0  0
  183.4530  176.6860  139.1890 O   0  0  0  0  0  0  0  0  0  0  0  0
  182.7740  177.8290  139.6610 C   0  0  1  0  0  3  0  0  0  0  0  0
  183.5640  176.8210  137.7950 C   0  0  1  0  0  3  0  0  0  0  0  0
  183.4200  175.4630  137.1340 C   0  0  0  0  0  2  0  0  0  0  0  0
  183.9210  174.4490  137.9940 O   0  0  0  0  0  0  0  0  0  0  0  0
  185.6280  172.8960  138.0930 O   0  0  0  0  0  1  0  0  0  0  0  0
  184.6080  173.3410  137.5010 C   0  0  0  0  0  0  0  0  0  0  0  0
  184.1590  172.7160  136.3450 O   0  0  0  0  0  0  0  0  0  0  0  0
  180.9110  178.9170  138.6450 O   0  0  0  0  0  0  0  0  0  0  0  0
  182.3130  181.3100  138.5430 O   0  0  0  0  0  1  0  0  0  0  0  0
  180.0220  181.1240  140.0780 O   0  0  0  0  0  1  0  0  0  0  0  0
  180.7770  180.6080  138.6530 P   0  0  0  0  0  0  0  0  0  0  0  0
  179.9460  181.0440  137.4680 O   0  0  0  0  0  0  0  0  0  0  0  0
  1 10  1  6  0  0  0
  1  3  1  0  0  0  0
  2  5  1  0  0  0  0
  3  7  2  0  0  0  0
  3  4  1  0  0  0  0
  4  2  2  0  0  0  0
  5  6  1  0  0  0  0
  7  8  1  0  0  0  0
  8  5  2  0  0  0  0
  9 11  2  0  0  0  0
 11 10  1  0  0  0  0
 12 11  1  0  0  0  0
 13 12  1  0  0  0  0
 14 16  1  0  0  0  0
 14 13  1  0  0  0  0
 15 14  1  0  0  0  0
 17 20  1  0  0  0  0
 17 18  1  0  0  0  0
 18 19  1  0  0  0  0
 19 21  1  0  0  0  0
 20 21  1  0  0  0  0
 21 14  1  6  0  0  0
 22 23  2  0  0  0  0
 23 24  1  0  0  0  0
 24  1  1  0  0  0  0
 25 26  1  0  0  0  0
 25 27  1  1  0  0  0
 26 27  1  0  0  0  0
 26 23  1  1  0  0  0
 28 38  1  1  0  0  0
 28 31  1  0  0  0  0
 29 32  1  0  0  0  0
 29 28  1  0  0  0  0
 31 30  1  6  0  0  0
 31 25  1  0  0  0  0
 32 33  1  6  0  0  0
 32 30  1  0  0  0  0
 33 34  1  0  0  0  0
 36 34  1  0  0  0  0
 36 35  1  0  0  0  0
 37 36  2  0  0  0  0
 38 41  1  0  0  0  0
 39 41  1  0  0  0  0
 41 40  1  0  0  0  0
 42 41  2  0  0  0  0
M  END
>  <MODEL>
1

>  <REMARK>
 VINA RESULT:      -7.4      0.000      0.000
  Name = 
  14 active torsions:
  status: ('A' for Active; 'I' for Inactive)
    1  A    between atoms: C_1  and  N_12
    2  A    between atoms: C_1  and  C_13
    3  A    between atoms: C_1  and  N_39
    4  A    between atoms: C_4  and  N_28
    5  A    between atoms: C_4  and  C_37
    6  A    between atoms: C_5  and  C_17
    7  A    between atoms: C_6  and  O_27
    8  A    between atoms: C_11  and  C_25
    9  A    between atoms: C_11  and  N_28
   10  A    between atoms: O_19  and  C_20
   11  A    between atoms: O_19  and  C_31
   12  A    between atoms: C_20  and  C_23
   13  A    between atoms: C_24  and  C_32
   14  A    between atoms: O_27  and  P_33
                            x       y       z     vdW  Elec       q    Type
                         _______ _______ _______ _____ _____    ______ ____

>  <TORSDO>
F 14

$$$$
=
 OpenBabel10222420413D

 42 45  0  0  1  0  0  0  0  0999 V2000
  188.6070  177.4300  145.5090 C   0  0  1  0  0  3  0  0  0  0  0  0
  191.9670  175.9390  146.5310 C   0  0  0  0  0  3  0  0  0  0  0  0
  189.8300  177.0710  146.3010 C   0  0  0  0  0  0  0  0  0  0  0  0
  190.8450  176.2640  145.7630 C   0  0  0  0  0  3  0  0  0  0  0  0
  192.0800  176.4160  147.8400 C   0  0  0  0  0  0  0  0  0  0  0  0
  193.1960  176.0960  148.6020 O   0  0  0  0  0  1  0  0  0  0  0  0
  189.9470  177.5390  147.6160 C   0  0  0  0  0  3  0  0  0  0  0  0
  191.0710  177.2140  148.3820 C   0  0  0  0  0  3  0  0  0  0  0  0
  185.6620  179.3430  146.5790 O   0  0  0  0  0  0  0  0  0  0  0  0
  187.7380  178.3610  146.2230 N   0  0  0  0  0  2  0  0  0  0  0  0
  186.3540  178.5370  145.9060 C   0  0  0  0  0  0  0  0  0  0  0  0
  185.7250  177.8080  144.7670 C   0  0  0  0  0  2  0  0  0  0  0  0
  184.3200  178.1930  144.6510 N   0  0  0  0  0  2  0  0  0  0  0  0
  184.0490  178.8550  143.3680 C   0  0  0  0  0  0  0  0  0  0  0  0
  184.4370  177.8930  142.2560 C   0  0  0  0  0  1  0  0  0  0  0  0
  184.9260  180.0960  143.2240 C   0  0  0  0  0  1  0  0  0  0  0  0
  180.3010  178.2220  142.3690 C   0  0  0  0  0  2  0  0  0  0  0  0
  180.2740  178.6500  143.8190 C   0  0  0  0  0  2  0  0  0  0  0  0
  181.6950  178.5800  144.3150 C   0  0  0  0  0  2  0  0  0  0  0  0
  181.8290  178.8540  141.6130 S   0  0  0  0  0  0  0  0  0  0  0  0
  182.5550  179.2360  143.2490 C   0  0  2  0  0  3  0  0  0  0  0  0
  188.4050  176.0240  142.9230 N   0  0  0  0  0  2  0  0  0  0  0  0
  188.8610  177.2350  142.9520 C   0  0  0  0  0  0  0  0  0  0  0  0
  188.9580  177.9530  144.1900 N   0  0  0  0  0  2  0  0  0  0  0  0
  189.4050  176.9080  140.5740 C   0  0  2  0  0  3  0  0  0  0  0  0
  189.1700  177.9340  141.6690 C   0  0  2  0  0  3  0  0  0  0  0  0
  190.5810  177.6100  141.2160 C   0  0  0  0  0  2  0  0  0  0  0  0
  189.6640  176.6600  138.1150 C   0  0  2  0  0  3  0  0  0  0  0  0
  188.5320  176.5520  137.1480 C   0  0  0  0  0  2  0  0  0  0  0  0
  187.7230  177.7000  139.0540 O   0  0  0  0  0  0  0  0  0  0  0  0
  189.1140  177.5350  139.2210 C   0  0  1  0  0  3  0  0  0  0  0  0
  187.3310  176.8440  138.0110 C   0  0  1  0  0  3  0  0  0  0  0  0
  186.2380  177.5030  137.1890 C   0  0  0  0  0  2  0  0  0  0  0  0
  185.8920  178.7570  137.7600 O   0  0  0  0  0  0  0  0  0  0  0  0
  184.6270  179.8550  139.3510 O   0  0  0  0  0  1  0  0  0  0  0  0
  184.7230  178.9300  138.5000 C   0  0  0  0  0  0  0  0  0  0  0  0
  183.6500  178.0730  138.2950 O   0  0  0  0  0  0  0  0  0  0  0  0
  190.7510  177.2920  137.5040 O   0  0  0  0  0  0  0  0  0  0  0  0
  193.4480  176.6420  137.4940 O   0  0  0  0  0  1  0  0  0  0  0  0
  191.7620  175.5400  135.6020 O   0  0  0  0  0  0  0  0  0  0  0  0
  191.8840  176.0650  137.2060 P   0  0  0  0  0  0  0  0  0  0  0  0
  191.6060  174.9010  138.1300 O   0  0  0  0  0  1  0  0  0  0  0  0
  1 24  1  6  0  0  0
  1 10  1  0  0  0  0
  1  3  1  0  0  0  0
  2  5  1  0  0  0  0
  3  7  2  0  0  0  0
  4  3  1  0  0  0  0
  4  2  2  0  0  0  0
  5  8  2  0  0  0  0
  5  6  1  0  0  0  0
  7  8  1  0  0  0  0
 11 10  1  0  0  0  0
 11  9  2  0  0  0  0
 12 11  1  0  0  0  0
 13 12  1  0  0  0  0
 14 13  1  0  0  0  0
 15 14  1  0  0  0  0
 16 14  1  0  0  0  0
 17 18  1  0  0  0  0
 18 19  1  0  0  0  0
 20 17  1  0  0  0  0
 20 21  1  0  0  0  0
 21 14  1  6  0  0  0
 21 19  1  0  0  0  0
 22 23  2  0  0  0  0
 23 24  1  0  0  0  0
 25 27  1  6  0  0  0
 25 26  1  0  0  0  0
 26 23  1  1  0  0  0
 27 26  1  0  0  0  0
 28 38  1  6  0  0  0
 28 31  1  0  0  0  0
 29 32  1  0  0  0  0
 29 28  1  0  0  0  0
 31 30  1  6  0  0  0
 31 25  1  0  0  0  0
 32 33  1  6  0  0  0
 32 30  1  0  0  0  0
 33 34  1  0  0  0  0
 34 36  1  0  0  0  0
 36 35  1  0  0  0  0
 37 36  2  0  0  0  0
 40 41  2  0  0  0  0
 41 39  1  0  0  0  0
 41 38  1  0  0  0  0
 41 42  1  0  0  0  0
M  END
>  <MODEL>
2

>  <REMARK>
 VINA RESULT:      -7.0      3.496      7.258
  Name = 
  14 active torsions:
  status: ('A' for Active; 'I' for Inactive)
    1  A    between atoms: C_1  and  N_12
    2  A    between atoms: C_1  and  C_13
    3  A    between atoms: C_1  and  N_39
    4  A    between atoms: C_4  and  N_28
    5  A    between atoms: C_4  and  C_37
    6  A    between atoms: C_5  and  C_17
    7  A    between atoms: C_6  and  O_27
    8  A    between atoms: C_11  and  C_25
    9  A    between atoms: C_11  and  N_28
   10  A    between atoms: O_19  and  C_20
   11  A    between atoms: O_19  and  C_31
   12  A    between atoms: C_20  and  C_23
   13  A    between atoms: C_24  and  C_32
   14  A    between atoms: O_27  and  P_33
                            x       y       z     vdW  Elec       q    Type
                         _______ _______ _______ _____ _____    ______ ____

>  <TORSDO>
F 14

$$$$
=
 OpenBabel10222420413D

 42 45  0  0  1  0  0  0  0  0999 V2000
  186.1570  177.9150  144.1320 C   0  0  1  0  0  3  0  0  0  0  0  0
  186.6840  178.6030  147.8480 C   0  0  0  0  0  3  0  0  0  0  0  0
  186.7650  177.9740  145.5030 C   0  0  0  0  0  0  0  0  0  0  0  0
  186.0850  178.5540  146.5850 C   0  0  0  0  0  3  0  0  0  0  0  0
  187.9650  178.0750  148.0340 C   0  0  0  0  0  0  0  0  0  0  0  0
  188.5590  178.1210  149.2890 O   0  0  0  0  0  1  0  0  0  0  0  0
  188.0510  177.4550  145.6960 C   0  0  0  0  0  3  0  0  0  0  0  0
  188.6480  177.5030  146.9590 C   0  0  0  0  0  3  0  0  0  0  0  0
  182.9980  179.3300  142.9050 O   0  0  0  0  0  0  0  0  0  0  0  0
  184.9230  178.6910  144.0400 N   0  0  0  0  0  2  0  0  0  0  0  0
  184.0550  178.6480  142.9030 C   0  0  0  0  0  0  0  0  0  0  0  0
  184.4010  177.8370  141.7010 C   0  0  0  0  0  2  0  0  0  0  0  0
  184.5560  178.7150  140.5420 N   0  0  0  0  0  2  0  0  0  0  0  0
  183.5800  178.3940  139.4920 C   0  0  0  0  0  0  0  0  0  0  0  0
  184.3450  177.8500  138.2960 C   0  0  0  0  0  1  0  0  0  0  0  0
  182.8660  179.6640  139.0370 C   0  0  0  0  0  1  0  0  0  0  0  0
  180.1120  176.5450  139.4730 C   0  0  0  0  0  2  0  0  0  0  0  0
  181.1600  175.4560  139.4110 C   0  0  0  0  0  2  0  0  0  0  0  0
  182.4660  176.1340  139.0870 C   0  0  0  0  0  2  0  0  0  0  0  0
  180.8680  178.0270  140.2100 S   0  0  0  0  0  0  0  0  0  0  0  0
  182.5550  177.3510  139.9920 C   0  0  2  0  0  3  0  0  0  0  0  0
  188.1770  176.2320  142.7940 N   0  0  0  0  0  2  0  0  0  0  0  0
  188.0900  177.4860  142.4840 C   0  0  0  0  0  0  0  0  0  0  0  0
  187.1100  178.3290  143.1040 N   0  0  0  0  0  2  0  0  0  0  0  0
  188.9070  177.0750  140.1980 C   0  0  2  0  0  3  0  0  0  0  0  0
  188.9370  178.0290  141.3800 C   0  0  2  0  0  3  0  0  0  0  0  0
  190.1120  177.1080  141.1120 C   0  0  0  0  0  2  0  0  0  0  0  0
  189.9310  176.9410  137.9380 C   0  0  2  0  0  3  0  0  0  0  0  0
  189.1930  177.1510  136.6580 C   0  0  0  0  0  2  0  0  0  0  0  0
  188.0170  178.3190  138.3470 O   0  0  0  0  0  0  0  0  0  0  0  0
  189.2130  177.8400  138.9220 C   0  0  1  0  0  3  0  0  0  0  0  0
  187.8490  177.6430  137.1270 C   0  0  1  0  0  3  0  0  0  0  0  0
  187.2410  178.5810  136.1000 C   0  0  0  0  0  2  0  0  0  0  0  0
  186.9860  177.8770  134.8920 O   0  0  0  0  0  0  0  0  0  0  0  0
  186.1860  175.7120  134.8160 O   0  0  0  0  0  1  0  0  0  0  0  0
  185.9500  176.9500  134.7880 C   0  0  0  0  0  0  0  0  0  0  0  0
  184.6420  177.3960  134.6550 O   0  0  0  0  0  0  0  0  0  0  0  0
  191.2570  177.3560  137.7960 O   0  0  0  0  0  0  0  0  0  0  0  0
  193.6510  176.0770  138.3770 O   0  0  0  0  0  1  0  0  0  0  0  0
  192.4200  175.6480  135.9410 O   0  0  0  0  0  0  0  0  0  0  0  0
  192.1610  175.9350  137.5880 P   0  0  0  0  0  0  0  0  0  0  0  0
  191.3950  174.7720  138.1780 O   0  0  0  0  0  1  0  0  0  0  0  0
  1 24  1  6  0  0  0
  1  3  1  0  0  0  0
  2  5  1  0  0  0  0
  3  7  2  0  0  0  0
  3  4  1  0  0  0  0
  4  2  2  0  0  0  0
  5  6  1  0  0  0  0
  7  8  1  0  0  0  0
  8  5  2  0  0  0  0
 10  1  1  0  0  0  0
 11  9  2  0  0  0  0
 11 10  1  0  0  0  0
 12 11  1  0  0  0  0
 13 12  1  0  0  0  0
 14 13  1  0  0  0  0
 15 14  1  0  0  0  0
 16 14  1  0  0  0  0
 17 20  1  0  0  0  0
 18 17  1  0  0  0  0
 19 18  1  0  0  0  0
 19 21  1  0  0  0  0
 21 14  1  6  0  0  0
 21 20  1  0  0  0  0
 23 22  2  0  0  0  0
 23 24  1  0  0  0  0
 25 27  1  1  0  0  0
 25 26  1  0  0  0  0
 26 23  1  1  0  0  0
 27 26  1  0  0  0  0
 28 38  1  6  0  0  0
 28 31  1  0  0  0  0
 29 32  1  0  0  0  0
 29 28  1  0  0  0  0
 31 30  1  6  0  0  0
 31 25  1  0  0  0  0
 32 33  1  6  0  0  0
 32 30  1  0  0  0  0
 34 33  1  0  0  0  0
 36 35  1  0  0  0  0
 36 34  1  0  0  0  0
 37 36  2  0  0  0  0
 40 41  2  0  0  0  0
 41 38  1  0  0  0  0
 41 42  1  0  0  0  0
 41 39  1  0  0  0  0
M  END
>  <MODEL>
3

>  <REMARK>
 VINA RESULT:      -6.8      3.428      6.542
  Name = 
  14 active torsions:
  status: ('A' for Active; 'I' for Inactive)
    1  A    between atoms: C_1  and  N_12
    2  A    between atoms: C_1  and  C_13
    3  A    between atoms: C_1  and  N_39
    4  A    between atoms: C_4  and  N_28
    5  A    between atoms: C_4  and  C_37
    6  A    between atoms: C_5  and  C_17
    7  A    between atoms: C_6  and  O_27
    8  A    between atoms: C_11  and  C_25
    9  A    between atoms: C_11  and  N_28
   10  A    between atoms: O_19  and  C_20
   11  A    between atoms: O_19  and  C_31
   12  A    between atoms: C_20  and  C_23
   13  A    between atoms: C_24  and  C_32
   14  A    between atoms: O_27  and  P_33
                            x       y       z     vdW  Elec       q    Type
                         _______ _______ _______ _____ _____    ______ ____

>  <TORSDO>
F 14

$$$$
=
 OpenBabel10222420413D

 42 45  0  0  1  0  0  0  0  0999 V2000
  182.7370  177.9000  138.9310 C   0  0  1  0  0  3  0  0  0  0  0  0
  180.8540  179.8780  136.2670 C   0  0  0  0  0  3  0  0  0  0  0  0
  182.0780  179.0220  138.1820 C   0  0  0  0  0  0  0  0  0  0  0  0
  181.4490  178.8100  136.9450 C   0  0  0  0  0  3  0  0  0  0  0  0
  180.8860  181.1620  136.8190 C   0  0  0  0  0  0  0  0  0  0  0  0
  180.2910  182.2220  136.1480 O   0  0  0  0  0  1  0  0  0  0  0  0
  182.1120  180.3110  138.7260 C   0  0  0  0  0  3  0  0  0  0  0  0
  181.5150  181.3780  138.0470 C   0  0  0  0  0  3  0  0  0  0  0  0
  185.0600  176.0130  136.8060 O   0  0  0  0  0  0  0  0  0  0  0  0
  183.2960  176.8900  138.0370 N   0  0  0  0  0  2  0  0  0  0  0  0
  184.6430  176.9300  137.5580 C   0  0  0  0  0  0  0  0  0  0  0  0
  185.5510  178.0610  137.9050 C   0  0  0  0  0  2  0  0  0  0  0  0
  186.7140  178.0490  137.0200 N   0  0  0  0  0  2  0  0  0  0  0  0
  187.9650  177.9220  137.7790 C   0  0  0  0  0  0  0  0  0  0  0  0
  187.6560  178.2160  139.2390 C   0  0  0  0  0  1  0  0  0  0  0  0
  188.9720  178.9680  137.3070 C   0  0  0  0  0  1  0  0  0  0  0  0
  190.2720  175.1980  136.1350 C   0  0  0  0  0  2  0  0  0  0  0  0
  190.5660  175.1460  137.6170 C   0  0  0  0  0  2  0  0  0  0  0  0
  189.9530  176.3830  138.2210 C   0  0  0  0  0  2  0  0  0  0  0  0
  188.6120  175.9050  135.9030 S   0  0  0  0  0  0  0  0  0  0  0  0
  188.5570  176.5010  137.6330 C   0  0  2  0  0  3  0  0  0  0  0  0
  182.4080  178.4580  141.8100 N   0  0  0  0  0  2  0  0  0  0  0  0
  183.5550  178.6720  141.2500 C   0  0  0  0  0  0  0  0  0  0  0  0
  183.7540  178.3970  139.8560 N   0  0  0  0  0  2  0  0  0  0  0  0
  185.1510  177.9320  142.9710 C   0  0  2  0  0  3  0  0  0  0  0  0
  184.7160  179.0910  142.0900 C   0  0  2  0  0  3  0  0  0  0  0  0
  184.3410  179.0660  143.5600 C   0  0  0  0  0  2  0  0  0  0  0  0
  186.8280  177.7030  144.7900 C   0  0  2  0  0  3  0  0  0  0  0  0
  188.0180  176.8040  144.7400 C   0  0  0  0  0  2  0  0  0  0  0  0
  187.4220  177.3080  142.5060 O   0  0  0  0  0  0  0  0  0  0  0  0
  186.6130  178.1010  143.3450 C   0  0  1  0  0  3  0  0  0  0  0  0
  188.0060  176.3180  143.3140 C   0  0  1  0  0  3  0  0  0  0  0  0
  189.4200  176.0350  142.8400 C   0  0  0  0  0  2  0  0  0  0  0  0
  189.9410  177.1710  142.1630 O   0  0  0  0  0  0  0  0  0  0  0  0
  191.9170  177.6510  143.2570 O   0  0  0  0  0  1  0  0  0  0  0  0
  191.3020  177.4700  142.1720 C   0  0  0  0  0  0  0  0  0  0  0  0
  191.9900  177.5680  140.9700 O   0  0  0  0  0  0  0  0  0  0  0  0
  187.1200  178.8350  145.5570 O   0  0  0  0  0  0  0  0  0  0  0  0
  185.9320  180.1270  147.7070 O   0  0  0  0  0  1  0  0  0  0  0  0
  187.2340  177.7210  148.0980 O   0  0  0  0  0  1  0  0  0  0  0  0
  186.2890  178.6220  147.0200 P   0  0  0  0  0  0  0  0  0  0  0  0
  185.0000  177.8790  146.7530 O   0  0  0  0  0  0  0  0  0  0  0  0
  1 10  1  6  0  0  0
  1 24  1  0  0  0  0
  2  5  2  0  0  0  0
  2  4  1  0  0  0  0
  3  7  1  0  0  0  0
  3  1  1  0  0  0  0
  4  3  2  0  0  0  0
  5  8  1  0  0  0  0
  6  5  1  0  0  0  0
  8  7  2  0  0  0  0
  9 11  2  0  0  0  0
 11 12  1  0  0  0  0
 11 10  1  0  0  0  0
 13 14  1  0  0  0  0
 13 12  1  0  0  0  0
 14 15  1  0  0  0  0
 16 14  1  0  0  0  0
 17 18  1  0  0  0  0
 18 19  1  0  0  0  0
 20 17  1  0  0  0  0
 20 21  1  0  0  0  0
 21 14  1  6  0  0  0
 21 19  1  0  0  0  0
 23 22  2  0  0  0  0
 24 23  1  0  0  0  0
 25 31  1  0  0  0  0
 25 27  1  1  0  0  0
 26 23  1  6  0  0  0
 26 25  1  0  0  0  0
 26 27  1  0  0  0  0
 28 38  1  1  0  0  0
 29 28  1  0  0  0  0
 30 32  1  0  0  0  0
 31 30  1  6  0  0  0
 31 28  1  0  0  0  0
 32 33  1  6  0  0  0
 32 29  1  0  0  0  0
 34 36  1  0  0  0  0
 34 33  1  0  0  0  0
 36 35  1  0  0  0  0
 37 36  2  0  0  0  0
 38 41  1  0  0  0  0
 41 39  1  0  0  0  0
 41 40  1  0  0  0  0
 42 41  2  0  0  0  0
M  END
>  <MODEL>
4

>  <REMARK>
 VINA RESULT:      -6.6      2.810      7.687
  Name = 
  14 active torsions:
  status: ('A' for Active; 'I' for Inactive)
    1  A    between atoms: C_1  and  N_12
    2  A    between atoms: C_1  and  C_13
    3  A    between atoms: C_1  and  N_39
    4  A    between atoms: C_4  and  N_28
    5  A    between atoms: C_4  and  C_37
    6  A    between atoms: C_5  and  C_17
    7  A    between atoms: C_6  and  O_27
    8  A    between atoms: C_11  and  C_25
    9  A    between atoms: C_11  and  N_28
   10  A    between atoms: O_19  and  C_20
   11  A    between atoms: O_19  and  C_31
   12  A    between atoms: C_20  and  C_23
   13  A    between atoms: C_24  and  C_32
   14  A    between atoms: O_27  and  P_33
                            x       y       z     vdW  Elec       q    Type
                         _______ _______ _______ _____ _____    ______ ____

>  <TORSDO>
F 14

$$$$
=
 OpenBabel10222420413D

 42 45  0  0  1  0  0  0  0  0999 V2000
  190.8410  175.1320  137.0750 C   0  0  1  0  0  3  0  0  0  0  0  0
  194.4680  173.9810  137.3560 C   0  0  0  0  0  3  0  0  0  0  0  0
  192.3320  175.0530  136.9190 C   0  0  0  0  0  0  0  0  0  0  0  0
  193.0790  174.0210  137.5100 C   0  0  0  0  0  3  0  0  0  0  0  0
  195.1170  174.9710  136.6130 C   0  0  0  0  0  0  0  0  0  0  0  0
  196.4960  174.9300  136.4580 O   0  0  0  0  0  1  0  0  0  0  0  0
  192.9900  176.0450  136.1840 C   0  0  0  0  0  3  0  0  0  0  0  0
  194.3790  176.0030  136.0280 C   0  0  0  0  0  3  0  0  0  0  0  0
  188.4750  172.3270  137.1860 O   0  0  0  0  0  0  0  0  0  0  0  0
  190.2410  173.8280  137.3440 N   0  0  0  0  0  2  0  0  0  0  0  0
  188.9160  173.4780  136.9350 C   0  0  0  0  0  0  0  0  0  0  0  0
  188.0350  174.4660  136.2490 C   0  0  0  0  0  2  0  0  0  0  0  0
  186.9940  174.9210  137.1700 N   0  0  0  0  0  2  0  0  0  0  0  0
  185.7740  175.3110  136.4510 C   0  0  0  0  0  0  0  0  0  0  0  0
  186.0650  175.2260  134.9610 C   0  0  0  0  0  1  0  0  0  0  0  0
  185.4240  176.7630  136.7650 C   0  0  0  0  0  1  0  0  0  0  0  0
  183.3440  172.2760  135.8780 C   0  0  0  0  0  2  0  0  0  0  0  0
  183.8880  172.1090  137.2790 C   0  0  0  0  0  2  0  0  0  0  0  0
  185.0540  173.0550  137.4030 C   0  0  0  0  0  2  0  0  0  0  0  0
  183.4710  174.0320  135.4180 S   0  0  0  0  0  0  0  0  0  0  0  0
  184.5960  174.3810  136.8200 C   0  0  2  0  0  3  0  0  0  0  0  0
  189.4510  177.7030  136.6660 N   0  0  0  0  0  2  0  0  0  0  0  0
  189.7960  177.3520  137.8640 C   0  0  0  0  0  0  0  0  0  0  0  0
  190.4600  176.1020  138.1000 N   0  0  0  0  0  2  0  0  0  0  0  0
  188.7160  177.3330  140.0760 C   0  0  2  0  0  3  0  0  0  0  0  0
  189.3880  178.1990  139.0240 C   0  0  2  0  0  3  0  0  0  0  0  0
  187.8770  178.2060  139.1680 C   0  0  0  0  0  2  0  0  0  0  0  0
  187.5280  177.9410  142.1720 C   0  0  2  0  0  3  0  0  0  0  0  0
  187.8940  177.4430  143.5300 C   0  0  0  0  0  2  0  0  0  0  0  0
  189.8450  177.3400  142.1950 O   0  0  0  0  0  0  0  0  0  0  0  0
  188.8510  177.9930  141.4360 C   0  0  1  0  0  3  0  0  0  0  0  0
  189.1970  176.7290  143.2810 C   0  0  1  0  0  3  0  0  0  0  0  0
  190.0820  176.8000  144.5130 C   0  0  0  0  0  2  0  0  0  0  0  0
  189.2790  176.8360  145.6850 O   0  0  0  0  0  0  0  0  0  0  0  0
  189.2850  177.9650  147.7000 O   0  0  0  0  0  1  0  0  0  0  0  0
  189.8220  177.1160  146.9380 C   0  0  0  0  0  0  0  0  0  0  0  0
  190.9670  176.4500  147.3520 O   0  0  0  0  0  0  0  0  0  0  0  0
  186.9870  179.2260  142.2670 O   0  0  0  0  0  0  0  0  0  0  0  0
  184.8990  179.7290  140.5090 O   0  0  0  0  0  0  0  0  0  0  0  0
  184.4460  179.7910  143.2340 O   0  0  0  0  0  1  0  0  0  0  0  0
  185.3220  179.0410  141.9960 P   0  0  0  0  0  0  0  0  0  0  0  0
  184.9860  177.5680  141.9740 O   0  0  0  0  0  1  0  0  0  0  0  0
  1 10  1  1  0  0  0
  1 24  1  0  0  0  0
  2  4  1  0  0  0  0
  3  1  1  0  0  0  0
  3  4  2  0  0  0  0
  5  2  2  0  0  0  0
  6  5  1  0  0  0  0
  7  3  1  0  0  0  0
  8  7  2  0  0  0  0
  8  5  1  0  0  0  0
 11  9  2  0  0  0  0
 11 10  1  0  0  0  0
 12 11  1  0  0  0  0
 12 13  1  0  0  0  0
 14 16  1  0  0  0  0
 14 13  1  0  0  0  0
 15 14  1  0  0  0  0
 17 18  1  0  0  0  0
 18 19  1  0  0  0  0
 20 17  1  0  0  0  0
 20 21  1  0  0  0  0
 21 14  1  6  0  0  0
 21 19  1  0  0  0  0
 22 23  2  0  0  0  0
 23 24  1  0  0  0  0
 25 27  1  6  0  0  0
 25 31  1  0  0  0  0
 26 23  1  6  0  0  0
 26 27  1  0  0  0  0
 26 25  1  0  0  0  0
 28 38  1  1  0  0  0
 28 29  1  0  0  0  0
 30 32  1  0  0  0  0
 31 28  1  0  0  0  0
 31 30  1  1  0  0  0
 32 29  1  0  0  0  0
 32 33  1  1  0  0  0
 33 34  1  0  0  0  0
 34 36  1  0  0  0  0
 36 37  2  0  0  0  0
 36 35  1  0  0  0  0
 39 41  2  0  0  0  0
 41 38  1  0  0  0  0
 41 40  1  0  0  0  0
 42 41  1  0  0  0  0
M  END
>  <MODEL>
5

>  <REMARK>
 VINA RESULT:      -6.5      3.406      8.131
  Name = 
  14 active torsions:
  status: ('A' for Active; 'I' for Inactive)
    1  A    between atoms: C_1  and  N_12
    2  A    between atoms: C_1  and  C_13
    3  A    between atoms: C_1  and  N_39
    4  A    between atoms: C_4  and  N_28
    5  A    between atoms: C_4  and  C_37
    6  A    between atoms: C_5  and  C_17
    7  A    between atoms: C_6  and  O_27
    8  A    between atoms: C_11  and  C_25
    9  A    between atoms: C_11  and  N_28
   10  A    between atoms: O_19  and  C_20
   11  A    between atoms: O_19  and  C_31
   12  A    between atoms: C_20  and  C_23
   13  A    between atoms: C_24  and  C_32
   14  A    between atoms: O_27  and  P_33
                            x       y       z     vdW  Elec       q    Type
                         _______ _______ _______ _____ _____    ______ ____

>  <TORSDO>
F 14

$$$$
=
 OpenBabel10222420413D

 42 45  0  0  1  0  0  0  0  0999 V2000
  182.3700  177.4400  139.0070 C   0  0  1  0  0  3  0  0  0  0  0  0
  180.9680  180.6320  137.4570 C   0  0  0  0  0  3  0  0  0  0  0  0
  181.8340  178.4330  138.0170 C   0  0  0  0  0  0  0  0  0  0  0  0
  181.4750  179.7340  138.4010 C   0  0  0  0  0  3  0  0  0  0  0  0
  180.8150  180.2340  136.1260 C   0  0  0  0  0  0  0  0  0  0  0  0
  180.3150  181.1270  135.1870 O   0  0  0  0  0  1  0  0  0  0  0  0
  181.6700  178.0390  136.6840 C   0  0  0  0  0  3  0  0  0  0  0  0
  181.1650  178.9380  135.7400 C   0  0  0  0  0  3  0  0  0  0  0  0
  184.5430  175.0240  137.2980 O   0  0  0  0  0  0  0  0  0  0  0  0
  182.8630  176.2260  138.3630 N   0  0  0  0  0  2  0  0  0  0  0  0
  184.1820  176.1100  137.8210 C   0  0  0  0  0  0  0  0  0  0  0  0
  185.1240  177.2650  137.8320 C   0  0  0  0  0  2  0  0  0  0  0  0
  186.3860  176.8780  137.2030 N   0  0  0  0  0  2  0  0  0  0  0  0
  187.5190  177.6220  137.7690 C   0  0  0  0  0  0  0  0  0  0  0  0
  187.0520  178.2660  139.0660 C   0  0  0  0  0  1  0  0  0  0  0  0
  187.9300  178.7480  136.8240 C   0  0  0  0  0  1  0  0  0  0  0  0
  191.3050  176.5800  137.6270 C   0  0  0  0  0  2  0  0  0  0  0  0
  190.8930  176.4370  139.0750 C   0  0  0  0  0  2  0  0  0  0  0  0
  189.5650  177.1340  139.2150 C   0  0  0  0  0  2  0  0  0  0  0  0
  189.8140  176.4610  136.5920 S   0  0  0  0  0  0  0  0  0  0  0  0
  188.7160  176.6820  138.0390 C   0  0  2  0  0  3  0  0  0  0  0  0
  182.0580  178.3940  141.7820 N   0  0  0  0  0  2  0  0  0  0  0  0
  183.2100  178.5010  141.2000 C   0  0  0  0  0  0  0  0  0  0  0  0
  183.4000  178.0340  139.8570 N   0  0  0  0  0  2  0  0  0  0  0  0
  184.8320  177.9370  142.9630 C   0  0  2  0  0  3  0  0  0  0  0  0
  184.3820  179.0020  141.9780 C   0  0  2  0  0  3  0  0  0  0  0  0
  184.0280  179.1230  143.4490 C   0  0  0  0  0  2  0  0  0  0  0  0
  186.5490  177.8180  144.7550 C   0  0  2  0  0  3  0  0  0  0  0  0
  187.7510  176.9330  144.7220 C   0  0  0  0  0  2  0  0  0  0  0  0
  187.1020  177.3210  142.4790 O   0  0  0  0  0  0  0  0  0  0  0  0
  186.2990  178.1430  143.2980 C   0  0  1  0  0  3  0  0  0  0  0  0
  187.7160  176.3800  143.3210 C   0  0  1  0  0  3  0  0  0  0  0  0
  189.1240  176.0930  142.8310 C   0  0  0  0  0  2  0  0  0  0  0  0
  189.8600  177.3050  142.7370 O   0  0  0  0  0  0  0  0  0  0  0  0
  192.1140  177.2430  142.2310 O   0  0  0  0  0  0  0  0  0  0  0  0
  191.2060  177.3760  143.0960 C   0  0  0  0  0  0  0  0  0  0  0  0
  191.5490  177.5990  144.4220 O   0  0  0  0  0  1  0  0  0  0  0  0
  186.8410  178.9880  145.4600 O   0  0  0  0  0  0  0  0  0  0  0  0
  187.0560  177.7330  147.9250 O   0  0  0  0  0  1  0  0  0  0  0  0
  184.5610  178.1710  146.8200 O   0  0  0  0  0  0  0  0  0  0  0  0
  186.1270  178.7910  146.9870 P   0  0  0  0  0  0  0  0  0  0  0  0
  186.0560  180.1340  147.6760 O   0  0  0  0  0  1  0  0  0  0  0  0
  1 10  1  6  0  0  0
  1 24  1  0  0  0  0
  2  4  1  0  0  0  0
  3  4  2  0  0  0  0
  3  1  1  0  0  0  0
  5  2  2  0  0  0  0
  6  5  1  0  0  0  0
  7  3  1  0  0  0  0
  8  5  1  0  0  0  0
  8  7  2  0  0  0  0
  9 11  2  0  0  0  0
 11 12  1  0  0  0  0
 11 10  1  0  0  0  0
 13 14  1  0  0  0  0
 13 12  1  0  0  0  0
 14 15  1  0  0  0  0
 16 14  1  0  0  0  0
 17 18  1  0  0  0  0
 18 19  1  0  0  0  0
 20 17  1  0  0  0  0
 20 21  1  0  0  0  0
 21 14  1  6  0  0  0
 21 19  1  0  0  0  0
 23 22  2  0  0  0  0
 24 23  1  0  0  0  0
 25 31  1  0  0  0  0
 25 27  1  1  0  0  0
 26 23  1  6  0  0  0
 26 25  1  0  0  0  0
 26 27  1  0  0  0  0
 28 38  1  1  0  0  0
 29 28  1  0  0  0  0
 30 32  1  0  0  0  0
 31 30  1  6  0  0  0
 31 28  1  0  0  0  0
 32 33  1  6  0  0  0
 32 29  1  0  0  0  0
 34 33  1  0  0  0  0
 34 36  1  0  0  0  0
 35 36  2  0  0  0  0
 36 37  1  0  0  0  0
 38 41  1  0  0  0  0
 40 41  2  0  0  0  0
 41 42  1  0  0  0  0
 41 39  1  0  0  0  0
M  END
>  <MODEL>
6

>  <REMARK>
 VINA RESULT:      -6.3      2.884      7.858
  Name = 
  14 active torsions:
  status: ('A' for Active; 'I' for Inactive)
    1  A    between atoms: C_1  and  N_12
    2  A    between atoms: C_1  and  C_13
    3  A    between atoms: C_1  and  N_39
    4  A    between atoms: C_4  and  N_28
    5  A    between atoms: C_4  and  C_37
    6  A    between atoms: C_5  and  C_17
    7  A    between atoms: C_6  and  O_27
    8  A    between atoms: C_11  and  C_25
    9  A    between atoms: C_11  and  N_28
   10  A    between atoms: O_19  and  C_20
   11  A    between atoms: O_19  and  C_31
   12  A    between atoms: C_20  and  C_23
   13  A    between atoms: C_24  and  C_32
   14  A    between atoms: O_27  and  P_33
                            x       y       z     vdW  Elec       q    Type
                         _______ _______ _______ _____ _____    ______ ____

>  <TORSDO>
F 14

$$$$
=
 OpenBabel10222420413D

 42 45  0  0  1  0  0  0  0  0999 V2000
  181.0430  179.3310  141.5910 C   0  0  1  0  0  3  0  0  0  0  0  0
  179.2610  181.6280  139.1190 C   0  0  0  0  0  3  0  0  0  0  0  0
  180.7390  180.1760  140.3880 C   0  0  0  0  0  0  0  0  0  0  0  0
  179.5190  180.8580  140.2580 C   0  0  0  0  0  3  0  0  0  0  0  0
  180.2190  181.7180  138.1050 C   0  0  0  0  0  0  0  0  0  0  0  0
  179.9640  182.4860  136.9760 O   0  0  0  0  0  1  0  0  0  0  0  0
  181.6900  180.2650  139.3640 C   0  0  0  0  0  3  0  0  0  0  0  0
  181.4320  181.0370  138.2270 C   0  0  0  0  0  3  0  0  0  0  0  0
  179.0410  176.2610  141.3820 O   0  0  0  0  0  0  0  0  0  0  0  0
  180.0170  178.3210  141.8330 N   0  0  0  0  0  2  0  0  0  0  0  0
  179.9430  177.0920  141.1040 C   0  0  0  0  0  0  0  0  0  0  0  0
  180.8930  176.7970  139.9930 C   0  0  0  0  0  2  0  0  0  0  0  0
  180.2070  176.9270  138.7090 N   0  0  0  0  0  2  0  0  0  0  0  0
  181.1200  176.6800  137.5850 C   0  0  0  0  0  0  0  0  0  0  0  0
  180.8950  177.7740  136.5530 C   0  0  0  0  0  1  0  0  0  0  0  0
  180.7810  175.3490  136.9190 C   0  0  0  0  0  1  0  0  0  0  0  0
  184.9600  175.9260  137.2240 C   0  0  0  0  0  2  0  0  0  0  0  0
  184.8600  177.3910  137.5840 C   0  0  0  0  0  2  0  0  0  0  0  0
  183.4160  177.7800  137.4050 C   0  0  0  0  0  2  0  0  0  0  0  0
  183.4500  175.0900  137.8000 S   0  0  0  0  0  0  0  0  0  0  0  0
  182.5910  176.6850  138.0600 C   0  0  2  0  0  3  0  0  0  0  0  0
  183.0480  179.0680  143.7400 N   0  0  0  0  0  2  0  0  0  0  0  0
  183.3230  178.6190  142.5570 C   0  0  0  0  0  0  0  0  0  0  0  0
  182.3660  178.7170  141.4930 N   0  0  0  0  0  2  0  0  0  0  0  0
  185.7120  178.5230  143.1440 C   0  0  2  0  0  3  0  0  0  0  0  0
  184.6010  177.8790  142.3320 C   0  0  2  0  0  3  0  0  0  0  0  0
  185.6200  178.7780  141.6560 C   0  0  0  0  0  2  0  0  0  0  0  0
  188.0580  177.8580  142.6620 C   0  0  2  0  0  3  0  0  0  0  0  0
  189.1360  177.7450  143.6880 C   0  0  0  0  0  2  0  0  0  0  0  0
  187.0700  177.4410  144.8030 O   0  0  0  0  0  0  0  0  0  0  0  0
  186.7970  177.4970  143.4200 C   0  0  1  0  0  3  0  0  0  0  0  0
  188.3810  177.9120  144.9820 C   0  0  1  0  0  3  0  0  0  0  0  0
  189.0600  177.1340  146.0940 C   0  0  0  0  0  2  0  0  0  0  0  0
  190.3900  177.6010  146.2710 O   0  0  0  0  0  0  0  0  0  0  0  0
  191.9060  175.9980  145.5860 O   0  0  0  0  0  0  0  0  0  0  0  0
  191.4500  176.7270  146.5080 C   0  0  0  0  0  0  0  0  0  0  0  0
  192.0110  176.6600  147.7760 O   0  0  0  0  0  1  0  0  0  0  0  0
  188.2780  176.9340  141.6380 O   0  0  0  0  0  0  0  0  0  0  0  0
  188.2850  177.3460  138.8940 O   0  0  0  0  0  0  0  0  0  0  0  0
  190.6420  177.5550  140.3200 O   0  0  0  0  0  1  0  0  0  0  0  0
  188.9710  177.8180  140.3670 P   0  0  0  0  0  0  0  0  0  0  0  0
  188.7080  179.2900  140.5880 O   0  0  0  0  0  1  0  0  0  0  0  0
  1 24  1  6  0  0  0
  1 10  1  0  0  0  0
  2  4  1  0  0  0  0
  3  1  1  0  0  0  0
  4  3  2  0  0  0  0
  5  8  1  0  0  0  0
  5  2  2  0  0  0  0
  6  5  1  0  0  0  0
  7  3  1  0  0  0  0
  8  7  2  0  0  0  0
 11  9  2  0  0  0  0
 11 10  1  0  0  0  0
 12 11  1  0  0  0  0
 13 12  1  0  0  0  0
 14 13  1  0  0  0  0
 15 14  1  0  0  0  0
 16 14  1  0  0  0  0
 17 18  1  0  0  0  0
 17 20  1  0  0  0  0
 19 18  1  0  0  0  0
 19 21  1  0  0  0  0
 20 21  1  0  0  0  0
 21 14  1  6  0  0  0
 23 22  2  0  0  0  0
 24 23  1  0  0  0  0
 25 27  1  6  0  0  0
 25 31  1  0  0  0  0
 26 23  1  1  0  0  0
 26 25  1  0  0  0  0
 27 26  1  0  0  0  0
 28 38  1  6  0  0  0
 28 31  1  0  0  0  0
 28 29  1  0  0  0  0
 29 32  1  0  0  0  0
 30 32  1  0  0  0  0
 31 30  1  1  0  0  0
 32 33  1  1  0  0  0
 33 34  1  0  0  0  0
 34 36  1  0  0  0  0
 35 36  2  0  0  0  0
 36 37  1  0  0  0  0
 39 41  2  0  0  0  0
 40 41  1  0  0  0  0
 41 42  1  0  0  0  0
 41 38  1  0  0  0  0
M  END
>  <MODEL>
7

>  <REMARK>
 VINA RESULT:      -6.2      3.629      8.682
  Name = 
  14 active torsions:
  status: ('A' for Active; 'I' for Inactive)
    1  A    between atoms: C_1  and  N_12
    2  A    between atoms: C_1  and  C_13
    3  A    between atoms: C_1  and  N_39
    4  A    between atoms: C_4  and  N_28
    5  A    between atoms: C_4  and  C_37
    6  A    between atoms: C_5  and  C_17
    7  A    between atoms: C_6  and  O_27
    8  A    between atoms: C_11  and  C_25
    9  A    between atoms: C_11  and  N_28
   10  A    between atoms: O_19  and  C_20
   11  A    between atoms: O_19  and  C_31
   12  A    between atoms: C_20  and  C_23
   13  A    between atoms: C_24  and  C_32
   14  A    between atoms: O_27  and  P_33
                            x       y       z     vdW  Elec       q    Type
                         _______ _______ _______ _____ _____    ______ ____

>  <TORSDO>
F 14

$$$$
=
 OpenBabel10222420413D

 42 45  0  0  1  0  0  0  0  0999 V2000
  187.2590  177.2940  143.3050 C   0  0  1  0  0  3  0  0  0  0  0  0
  190.7880  176.3680  144.4210 C   0  0  0  0  0  3  0  0  0  0  0  0
  188.5040  177.1440  144.1290 C   0  0  0  0  0  0  0  0  0  0  0  0
  189.6460  176.5010  143.6250 C   0  0  0  0  0  3  0  0  0  0  0  0
  190.7930  176.8730  145.7250 C   0  0  0  0  0  0  0  0  0  0  0  0
  191.9280  176.7430  146.5140 O   0  0  0  0  0  1  0  0  0  0  0  0
  188.5150  177.6400  145.4380 C   0  0  0  0  0  3  0  0  0  0  0  0
  189.6580  177.5070  146.2330 C   0  0  0  0  0  3  0  0  0  0  0  0
  184.5400  179.7480  143.5680 O   0  0  0  0  0  0  0  0  0  0  0  0
  186.4090  178.3840  143.7790 N   0  0  0  0  0  2  0  0  0  0  0  0
  185.2330  178.8150  143.0880 C   0  0  0  0  0  0  0  0  0  0  0  0
  184.8350  178.2020  141.7880 C   0  0  0  0  0  2  0  0  0  0  0  0
  184.5070  179.2540  140.8270 N   0  0  0  0  0  2  0  0  0  0  0  0
  183.5160  178.7940  139.8460 C   0  0  0  0  0  0  0  0  0  0  0  0
  184.2390  177.9340  138.8200 C   0  0  0  0  0  1  0  0  0  0  0  0
  182.9230  179.9880  139.1020 C   0  0  0  0  0  1  0  0  0  0  0  0
  179.7890  178.0210  140.8250 C   0  0  0  0  0  2  0  0  0  0  0  0
  180.3360  176.7380  140.2400 C   0  0  0  0  0  2  0  0  0  0  0  0
  181.6340  177.0930  139.5630 C   0  0  0  0  0  2  0  0  0  0  0  0
  181.1860  179.0130  141.4360 S   0  0  0  0  0  0  0  0  0  0  0  0
  182.3970  177.9790  140.5330 C   0  0  2  0  0  3  0  0  0  0  0  0
  189.0670  179.2880  142.0960 N   0  0  0  0  0  2  0  0  0  0  0  0
  188.4450  178.4490  141.3300 C   0  0  0  0  0  0  0  0  0  0  0  0
  187.5710  177.4570  141.8860 N   0  0  0  0  0  2  0  0  0  0  0  0
  188.9160  177.0000  139.3970 C   0  0  2  0  0  3  0  0  0  0  0  0
  188.7390  178.4340  139.8660 C   0  0  2  0  0  3  0  0  0  0  0  0
  190.1280  177.8790  139.6110 C   0  0  0  0  0  2  0  0  0  0  0  0
  189.3910  175.7790  137.2860 C   0  0  2  0  0  3  0  0  0  0  0  0
  188.3710  175.0380  136.4860 C   0  0  0  0  0  2  0  0  0  0  0  0
  187.2250  176.7010  137.7190 O   0  0  0  0  0  0  0  0  0  0  0  0
  188.6060  176.9110  137.9130 C   0  0  1  0  0  3  0  0  0  0  0  0
  187.0790  175.4210  137.1600 C   0  0  1  0  0  3  0  0  0  0  0  0
  185.9400  175.4250  136.1560 C   0  0  0  0  0  2  0  0  0  0  0  0
  185.2310  174.1960  136.2230 O   0  0  0  0  0  0  0  0  0  0  0  0
  185.0120  172.6920  137.9640 O   0  0  0  0  0  0  0  0  0  0  0  0
  184.6330  173.7560  137.4040 C   0  0  0  0  0  0  0  0  0  0  0  0
  183.6090  174.5030  137.9710 O   0  0  0  0  0  1  0  0  0  0  0  0
  190.3760  176.2940  136.4390 O   0  0  0  0  0  0  0  0  0  0  0  0
  192.8530  176.7320  137.6100 O   0  0  0  0  0  1  0  0  0  0  0  0
  192.5930  174.8420  135.6100 O   0  0  0  0  0  0  0  0  0  0  0  0
  191.8270  175.5680  136.9340 P   0  0  0  0  0  0  0  0  0  0  0  0
  191.5230  174.5110  137.9700 O   0  0  0  0  0  1  0  0  0  0  0  0
  1 24  1  6  0  0  0
  1 10  1  0  0  0  0
  1  3  1  0  0  0  0
  2  5  1  0  0  0  0
  3  7  2  0  0  0  0
  4  3  1  0  0  0  0
  4  2  2  0  0  0  0
  5  8  2  0  0  0  0
  5  6  1  0  0  0  0
  7  8  1  0  0  0  0
 11  9  2  0  0  0  0
 11 10  1  0  0  0  0
 12 11  1  0  0  0  0
 13 12  1  0  0  0  0
 14 13  1  0  0  0  0
 15 14  1  0  0  0  0
 16 14  1  0  0  0  0
 17 20  1  0  0  0  0
 18 17  1  0  0  0  0
 19 18  1  0  0  0  0
 19 21  1  0  0  0  0
 21 14  1  6  0  0  0
 21 20  1  0  0  0  0
 23 24  1  0  0  0  0
 23 22  2  0  0  0  0
 25 27  1  6  0  0  0
 25 26  1  0  0  0  0
 26 23  1  1  0  0  0
 27 26  1  0  0  0  0
 28 38  1  6  0  0  0
 28 31  1  0  0  0  0
 29 32  1  0  0  0  0
 29 28  1  0  0  0  0
 31 30  1  1  0  0  0
 31 25  1  0  0  0  0
 32 33  1  6  0  0  0
 32 30  1  0  0  0  0
 33 34  1  0  0  0  0
 34 36  1  0  0  0  0
 36 35  2  0  0  0  0
 36 37  1  0  0  0  0
 38 41  1  0  0  0  0
 40 41  2  0  0  0  0
 41 39  1  0  0  0  0
 41 42  1  0  0  0  0
M  END
>  <MODEL>
8

>  <REMARK>
 VINA RESULT:      -6.2      3.422      6.528
  Name = 
  14 active torsions:
  status: ('A' for Active; 'I' for Inactive)
    1  A    between atoms: C_1  and  N_12
    2  A    between atoms: C_1  and  C_13
    3  A    between atoms: C_1  and  N_39
    4  A    between atoms: C_4  and  N_28
    5  A    between atoms: C_4  and  C_37
    6  A    between atoms: C_5  and  C_17
    7  A    between atoms: C_6  and  O_27
    8  A    between atoms: C_11  and  C_25
    9  A    between atoms: C_11  and  N_28
   10  A    between atoms: O_19  and  C_20
   11  A    between atoms: O_19  and  C_31
   12  A    between atoms: C_20  and  C_23
   13  A    between atoms: C_24  and  C_32
   14  A    between atoms: O_27  and  P_33
                            x       y       z     vdW  Elec       q    Type
                         _______ _______ _______ _____ _____    ______ ____

>  <TORSDO>
F 14

$$$$
=
 OpenBabel10222420413D

 42 45  0  0  1  0  0  0  0  0999 V2000
  190.4970  175.1800  137.4220 C   0  0  1  0  0  3  0  0  0  0  0  0
  187.1840  173.5410  136.4750 C   0  0  0  0  0  3  0  0  0  0  0  0
  189.4810  174.2520  136.8220 C   0  0  0  0  0  0  0  0  0  0  0  0
  188.1060  174.4290  137.0390 C   0  0  0  0  0  3  0  0  0  0  0  0
  187.6330  172.4720  135.6940 C   0  0  0  0  0  0  0  0  0  0  0  0
  186.7180  171.5920  135.1310 O   0  0  0  0  0  1  0  0  0  0  0  0
  189.9230  173.1750  136.0450 C   0  0  0  0  0  3  0  0  0  0  0  0
  189.0010  172.2890  135.4800 C   0  0  0  0  0  3  0  0  0  0  0  0
  193.4890  175.9190  135.4260 O   0  0  0  0  0  0  0  0  0  0  0  0
  191.3950  175.7430  136.4170 N   0  0  0  0  0  2  0  0  0  0  0  0
  192.7830  175.4080  136.3330 C   0  0  0  0  0  0  0  0  0  0  0  0
  193.4150  174.4900  137.3230 C   0  0  0  0  0  2  0  0  0  0  0  0
  194.2020  173.4760  136.6230 N   0  0  0  0  0  2  0  0  0  0  0  0
  195.4060  173.1130  137.3820 C   0  0  0  0  0  0  0  0  0  0  0  0
  195.1940  171.7190  137.9530 C   0  0  0  0  0  1  0  0  0  0  0  0
  195.5890  174.0650  138.5600 C   0  0  0  0  0  1  0  0  0  0  0  0
  198.8240  174.5640  136.0950 C   0  0  0  0  0  2  0  0  0  0  0  0
  199.0780  173.1000  136.3750 C   0  0  0  0  0  2  0  0  0  0  0  0
  197.8980  172.6040  137.1700 C   0  0  0  0  0  2  0  0  0  0  0  0
  197.0440  174.7910  135.7980 S   0  0  0  0  0  0  0  0  0  0  0  0
  196.6570  173.1340  136.4730 C   0  0  2  0  0  3  0  0  0  0  0  0
  191.7180  176.7780  139.5820 N   0  0  0  0  0  2  0  0  0  0  0  0
  190.4810  176.9870  139.2600 C   0  0  0  0  0  0  0  0  0  0  0  0
  189.8610  176.2380  138.2040 N   0  0  0  0  0  2  0  0  0  0  0  0
  188.3130  177.6560  140.2120 C   0  0  2  0  0  3  0  0  0  0  0  0
  189.7320  178.1030  139.9080 C   0  0  2  0  0  3  0  0  0  0  0  0
  188.5840  178.5540  139.0250 C   0  0  0  0  0  2  0  0  0  0  0  0
  186.2510  178.3300  141.4240 C   0  0  2  0  0  3  0  0  0  0  0  0
  185.9820  178.0480  142.8650 C   0  0  0  0  0  2  0  0  0  0  0  0
  188.3310  178.0650  142.5780 O   0  0  0  0  0  0  0  0  0  0  0  0
  187.7560  178.4810  141.3590 C   0  0  1  0  0  3  0  0  0  0  0  0
  187.3000  177.5000  143.3470 C   0  0  1  0  0  3  0  0  0  0  0  0
  187.5080  177.8350  144.8120 C   0  0  0  0  0  2  0  0  0  0  0  0
  186.3290  177.5420  145.5490 O   0  0  0  0  0  0  0  0  0  0  0  0
  186.4880  178.8520  147.4450 O   0  0  0  0  0  1  0  0  0  0  0  0
  185.7980  178.4410  146.4730 C   0  0  0  0  0  0  0  0  0  0  0  0
  184.4940  178.8910  146.3180 O   0  0  0  0  0  0  0  0  0  0  0  0
  185.6360  179.5290  141.0530 O   0  0  0  0  0  0  0  0  0  0  0  0
  183.9180  180.4790  139.0920 O   0  0  0  0  0  1  0  0  0  0  0  0
  183.1400  178.3660  140.6940 O   0  0  0  0  0  1  0  0  0  0  0  0
  184.4510  179.1010  139.9160 P   0  0  0  0  0  0  0  0  0  0  0  0
  185.0460  178.1280  138.9240 O   0  0  0  0  0  0  0  0  0  0  0  0
  1 10  1  6  0  0  0
  1 24  1  0  0  0  0
  2  4  1  0  0  0  0
  3  4  2  0  0  0  0
  3  1  1  0  0  0  0
  5  2  2  0  0  0  0
  6  5  1  0  0  0  0
  7  3  1  0  0  0  0
  8  5  1  0  0  0  0
  8  7  2  0  0  0  0
  9 11  2  0  0  0  0
 11 10  1  0  0  0  0
 11 12  1  0  0  0  0
 13 12  1  0  0  0  0
 13 14  1  0  0  0  0
 14 15  1  0  0  0  0
 14 16  1  0  0  0  0
 17 18  1  0  0  0  0
 18 19  1  0  0  0  0
 20 17  1  0  0  0  0
 20 21  1  0  0  0  0
 21 19  1  0  0  0  0
 21 14  1  1  0  0  0
 23 22  2  0  0  0  0
 24 23  1  0  0  0  0
 25 27  1  6  0  0  0
 25 31  1  0  0  0  0
 26 23  1  6  0  0  0
 26 25  1  0  0  0  0
 27 26  1  0  0  0  0
 28 38  1  1  0  0  0
 28 29  1  0  0  0  0
 29 32  1  0  0  0  0
 30 32  1  0  0  0  0
 31 28  1  0  0  0  0
 31 30  1  1  0  0  0
 32 33  1  1  0  0  0
 33 34  1  0  0  0  0
 34 36  1  0  0  0  0
 36 35  1  0  0  0  0
 37 36  2  0  0  0  0
 39 41  1  0  0  0  0
 41 40  1  0  0  0  0
 41 38  1  0  0  0  0
 42 41  2  0  0  0  0
M  END
>  <MODEL>
9

>  <REMARK>
 VINA RESULT:      -6.2      4.370      8.428
  Name = 
  14 active torsions:
  status: ('A' for Active; 'I' for Inactive)
    1  A    between atoms: C_1  and  N_12
    2  A    between atoms: C_1  and  C_13
    3  A    between atoms: C_1  and  N_39
    4  A    between atoms: C_4  and  N_28
    5  A    between atoms: C_4  and  C_37
    6  A    between atoms: C_5  and  C_17
    7  A    between atoms: C_6  and  O_27
    8  A    between atoms: C_11  and  C_25
    9  A    between atoms: C_11  and  N_28
   10  A    between atoms: O_19  and  C_20
   11  A    between atoms: O_19  and  C_31
   12  A    between atoms: C_20  and  C_23
   13  A    between atoms: C_24  and  C_32
   14  A    between atoms: O_27  and  P_33
                            x       y       z     vdW  Elec       q    Type
                         _______ _______ _______ _____ _____    ______ ____

>  <TORSDO>
F 14

$$$$
