=
 OpenBabel10222416303D

 32 34  0  0  1  0  0  0  0  0999 V2000
  188.6760  178.2410  143.3760 O   0  0  0  0  0  0  0  0  0  0  0  0
  187.9430  177.6810  144.4430 C   0  0  2  0  0  0  0  0  0  0  0  0
  188.5430  177.3450  142.3050 C   0  0  2  0  0  3  0  0  0  0  0  0
  188.4110  175.9430  142.8410 C   0  0  0  0  0  2  0  0  0  0  0  0
  187.9300  176.1610  144.2440 C   0  0  0  0  0  2  0  0  0  0  0  0
  192.0800  177.3080  139.4440 N   0  0  0  0  0  0  0  0  0  0  0  0
  189.7880  177.7100  138.8650 C   0  0  0  0  0  0  0  0  0  0  0  0
  191.4500  176.8340  143.3110 S   0  0  0  0  0  1  0  0  0  0  0  0
  189.6590  177.4870  141.3040 C   0  0  0  0  0  0  0  0  0  0  0  0
  192.1050  177.5130  140.7250 C   0  0  0  0  0  3  0  0  0  0  0  0
  190.9650  177.2820  141.6390 C   0  0  0  0  0  0  0  0  0  0  0  0
  190.9300  176.7680  138.7410 C   0  0  0  0  0  2  0  0  0  0  0  0
  189.2460  177.9740  140.0150 N   0  0  0  0  0  0  0  0  0  0  0  0
  189.1220  178.4330  137.4170 Cl  0  0  0  0  0  0  0  0  0  0  0  0
  183.6170  178.8230  143.6690 C   0  0  0  0  0  0  0  0  0  0  0  0
  185.9790  178.5920  145.7110 C   0  0  0  0  0  3  0  0  0  0  0  0
  186.0940  178.7430  143.1890 C   0  0  0  0  0  3  0  0  0  0  0  0
  184.8290  178.9870  142.8590 C   0  0  0  0  0  3  0  0  0  0  0  0
  184.6920  178.8250  145.9460 C   0  0  0  0  0  3  0  0  0  0  0  0
  183.5750  178.7870  144.9980 C   0  0  0  0  0  3  0  0  0  0  0  0
  186.5770  178.2470  144.4480 N   0  0  0  0  0  0  0  0  0  0  0  0
  182.3120  178.8220  142.9450 C   0  0  0  0  0  2  0  0  0  0  0  0
  179.9230  178.3820  143.6710 C   0  0  0  0  0  0  0  0  0  0  0  0
  181.2060  178.9750  143.8810 N   0  0  0  0  0  2  0  0  0  0  0  0
  178.9310  178.5360  144.6280 O   0  0  0  0  0  1  0  0  0  0  0  0
  179.6810  177.7280  142.6220 O   0  0  0  0  0  0  0  0  0  0  0  0
  188.6820  178.0170  145.7470 C   0  0  0  0  0  2  0  0  0  0  0  0
  189.3900  176.8250  146.3790 C   0  0  0  0  0  2  0  0  0  0  0  0
  192.3470  177.1340  148.5040 O   0  0  0  0  0  0  0  0  0  0  0  0
  191.5930  176.7020  147.5950 C   0  0  0  0  0  0  0  0  0  0  0  0
  190.3050  177.2870  147.4110 N   0  0  0  0  0  2  0  0  0  0  0  0
  192.0310  175.6330  146.7630 N   0  0  0  0  0  1  0  0  0  0  0  0
  1  2  1  0  0  0  0
  2 21  1  0  0  0  0
  2 27  1  1  0  0  0
  3  9  1  6  0  0  0
  3  4  1  0  0  0  0
  3  1  1  0  0  0  0
  4  5  1  0  0  0  0
  5  2  1  0  0  0  0
  6 10  2  0  0  0  0
  7 13  2  0  0  0  0
  9 11  2  0  0  0  0
 10 11  1  0  0  0  0
 11  8  1  0  0  0  0
 12  7  1  0  0  0  0
 12  6  1  0  0  0  0
 13  9  1  0  0  0  0
 14  7  1  0  0  0  0
 15 20  2  0  0  0  0
 16 19  2  0  0  0  0
 17 21  1  0  0  0  0
 18 17  2  0  0  0  0
 18 15  1  0  0  0  0
 20 19  1  0  0  0  0
 21 16  1  0  0  0  0
 22 15  1  0  0  0  0
 22 24  1  0  0  0  0
 23 24  1  0  0  0  0
 23 25  1  0  0  0  0
 26 23  2  0  0  0  0
 27 28  1  0  0  0  0
 28 31  1  0  0  0  0
 30 29  2  0  0  0  0
 31 30  1  0  0  0  0
 32 30  1  0  0  0  0
M  END
>  <MODEL>
1

>  <REMARK>
 VINA RESULT:      -8.7      0.000      0.000
  Name = 
  7 active torsions:
  status: ('A' for Active; 'I' for Inactive)
    1  A    between atoms: C_2  and  C_13
    2  A    between atoms: C_2  and  N_32
    3  A    between atoms: C_6  and  C_17
    4  A    between atoms: C_7  and  C_12
    5  A    between atoms: C_11  and  C_13
    6  A    between atoms: C_11  and  N_26
    7  A    between atoms: C_17  and  N_18
                            x       y       z     vdW  Elec       q    Type
                         _______ _______ _______ _____ _____    ______ ____

>  <TORSDO>
F 7

$$$$
=
 OpenBabel10222416303D

 32 34  0  0  1  0  0  0  0  0999 V2000
  186.7550  177.4800  142.1030 O   0  0  0  0  0  0  0  0  0  0  0  0
  185.9320  178.2560  142.9460 C   0  0  2  0  0  0  0  0  0  0  0  0
  187.7930  178.3280  141.6900 C   0  0  2  0  0  3  0  0  0  0  0  0
  187.2800  179.7430  141.6120 C   0  0  0  0  0  2  0  0  0  0  0  0
  186.0850  179.7200  142.5160 C   0  0  0  0  0  2  0  0  0  0  0  0
  189.7110  176.4440  138.0210 N   0  0  0  0  0  0  0  0  0  0  0  0
  187.7710  177.8530  138.0450 C   0  0  0  0  0  0  0  0  0  0  0  0
  190.3480  176.5560  141.9140 S   0  0  0  0  0  1  0  0  0  0  0  0
  188.4290  177.8630  140.4070 C   0  0  0  0  0  0  0  0  0  0  0  0
  190.2720  176.6870  139.1650 C   0  0  0  0  0  3  0  0  0  0  0  0
  189.5470  177.0810  140.3930 C   0  0  0  0  0  0  0  0  0  0  0  0
  188.2760  176.4750  137.8080 C   0  0  0  0  0  2  0  0  0  0  0  0
  187.8400  178.4110  139.2150 N   0  0  0  0  0  0  0  0  0  0  0  0
  187.0160  178.7190  136.7240 Cl  0  0  0  0  0  0  0  0  0  0  0  0
  188.1090  177.7100  146.8930 C   0  0  0  0  0  0  0  0  0  0  0  0
  185.4940  178.5630  145.3970 C   0  0  0  0  0  3  0  0  0  0  0  0
  187.3500  177.0530  144.5770 C   0  0  0  0  0  3  0  0  0  0  0  0
  188.1040  176.9110  145.6630 C   0  0  0  0  0  3  0  0  0  0  0  0
  185.8220  178.7400  146.6730 C   0  0  0  0  0  3  0  0  0  0  0  0
  187.1040  178.4660  147.3270 C   0  0  0  0  0  3  0  0  0  0  0  0
  186.3400  178.0510  144.3520 N   0  0  0  0  0  0  0  0  0  0  0  0
  189.2890  177.5640  147.7940 C   0  0  0  0  0  2  0  0  0  0  0  0
  191.6020  176.5370  147.6250 C   0  0  0  0  0  0  0  0  0  0  0  0
  190.2190  176.5760  147.2630 N   0  0  0  0  0  2  0  0  0  0  0  0
  192.4180  175.5390  147.1110 O   0  0  0  0  0  0  0  0  0  0  0  0
  192.0880  177.4020  148.4000 O   0  0  0  0  0  1  0  0  0  0  0  0
  184.4800  177.8090  142.7240 C   0  0  0  0  0  2  0  0  0  0  0  0
  183.7290  178.6420  141.6920 C   0  0  0  0  0  2  0  0  0  0  0  0
  184.0510  177.8990  138.1280 O   0  0  0  0  0  0  0  0  0  0  0  0
  184.1040  178.5510  139.2020 C   0  0  0  0  0  0  0  0  0  0  0  0
  183.6930  177.9350  140.4220 N   0  0  0  0  0  2  0  0  0  0  0  0
  184.5690  179.8960  139.1890 N   0  0  0  0  0  1  0  0  0  0  0  0
  1  2  1  0  0  0  0
  2 27  1  6  0  0  0
  2 21  1  0  0  0  0
  3  9  1  6  0  0  0
  3  1  1  0  0  0  0
  4  3  1  0  0  0  0
  4  5  1  0  0  0  0
  5  2  1  0  0  0  0
  6 10  2  0  0  0  0
  7 13  2  0  0  0  0
 10 11  1  0  0  0  0
 11  9  2  0  0  0  0
 11  8  1  0  0  0  0
 12  6  1  0  0  0  0
 12  7  1  0  0  0  0
 13  9  1  0  0  0  0
 14  7  1  0  0  0  0
 15 20  2  0  0  0  0
 15 22  1  0  0  0  0
 16 19  2  0  0  0  0
 17 18  2  0  0  0  0
 18 15  1  0  0  0  0
 19 20  1  0  0  0  0
 21 17  1  0  0  0  0
 21 16  1  0  0  0  0
 23 26  1  0  0  0  0
 24 23  1  0  0  0  0
 24 22  1  0  0  0  0
 25 23  2  0  0  0  0
 28 27  1  0  0  0  0
 29 30  2  0  0  0  0
 30 31  1  0  0  0  0
 31 28  1  0  0  0  0
 32 30  1  0  0  0  0
M  END
>  <MODEL>
2

>  <REMARK>
 VINA RESULT:      -8.5      2.597      6.856
  Name = 
  7 active torsions:
  status: ('A' for Active; 'I' for Inactive)
    1  A    between atoms: C_2  and  C_13
    2  A    between atoms: C_2  and  N_32
    3  A    between atoms: C_6  and  C_17
    4  A    between atoms: C_7  and  C_12
    5  A    between atoms: C_11  and  C_13
    6  A    between atoms: C_11  and  N_26
    7  A    between atoms: C_17  and  N_18
                            x       y       z     vdW  Elec       q    Type
                         _______ _______ _______ _____ _____    ______ ____

>  <TORSDO>
F 7

$$$$
=
 OpenBabel10222416303D

 32 34  0  0  1  0  0  0  0  0999 V2000
  188.7190  178.2530  143.3910 O   0  0  0  0  0  0  0  0  0  0  0  0
  187.9970  177.6980  144.4680 C   0  0  2  0  0  0  0  0  0  0  0  0
  188.5630  177.3590  142.3210 C   0  0  2  0  0  3  0  0  0  0  0  0
  188.4270  175.9580  142.8580 C   0  0  0  0  0  2  0  0  0  0  0  0
  187.9680  176.1790  144.2680 C   0  0  0  0  0  2  0  0  0  0  0  0
  192.0530  177.2920  139.4040 N   0  0  0  0  0  0  0  0  0  0  0  0
  189.7590  177.7390  138.8660 C   0  0  0  0  0  0  0  0  0  0  0  0
  191.4760  176.7870  143.2750 S   0  0  0  0  0  1  0  0  0  0  0  0
  189.6650  177.4930  141.3040 C   0  0  0  0  0  0  0  0  0  0  0  0
  192.1020  177.4830  140.6860 C   0  0  0  0  0  3  0  0  0  0  0  0
  190.9730  177.2620  141.6150 C   0  0  0  0  0  0  0  0  0  0  0  0
  190.8830  176.7800  138.7130 C   0  0  0  0  0  2  0  0  0  0  0  0
  189.2410  178.0010  140.0270 N   0  0  0  0  0  0  0  0  0  0  0  0
  189.0840  178.4900  137.4360 Cl  0  0  0  0  0  0  0  0  0  0  0  0
  183.6770  178.8960  143.7430 C   0  0  0  0  0  0  0  0  0  0  0  0
  186.0470  178.5940  145.7670 C   0  0  0  0  0  3  0  0  0  0  0  0
  186.1520  178.8060  143.2490 C   0  0  0  0  0  3  0  0  0  0  0  0
  184.8880  179.0700  142.9310 C   0  0  0  0  0  3  0  0  0  0  0  0
  184.7630  178.8320  146.0140 C   0  0  0  0  0  3  0  0  0  0  0  0
  183.6420  178.8280  145.0710 C   0  0  0  0  0  3  0  0  0  0  0  0
  186.6360  178.2760  144.4940 N   0  0  0  0  0  0  0  0  0  0  0  0
  182.3690  178.9240  143.0250 C   0  0  0  0  0  2  0  0  0  0  0  0
  181.4770  178.2630  140.7460 C   0  0  0  0  0  0  0  0  0  0  0  0
  182.5540  178.6310  141.6100 N   0  0  0  0  0  2  0  0  0  0  0  0
  181.7230  178.0410  139.3990 O   0  0  0  0  0  0  0  0  0  0  0  0
  180.3070  178.1330  141.1950 O   0  0  0  0  0  1  0  0  0  0  0  0
  188.7580  178.0280  145.7610 C   0  0  0  0  0  2  0  0  0  0  0  0
  189.3650  176.8100  146.4460 C   0  0  0  0  0  2  0  0  0  0  0  0
  192.3910  177.0800  148.4780 O   0  0  0  0  0  0  0  0  0  0  0  0
  191.6140  176.6790  147.5740 C   0  0  0  0  0  0  0  0  0  0  0  0
  190.3060  177.2380  147.4690 N   0  0  0  0  0  2  0  0  0  0  0  0
  192.0480  175.6690  146.6680 N   0  0  0  0  0  1  0  0  0  0  0  0
  1  2  1  0  0  0  0
  2 21  1  0  0  0  0
  2 27  1  1  0  0  0
  3  9  1  6  0  0  0
  3  4  1  0  0  0  0
  3  1  1  0  0  0  0
  4  5  1  0  0  0  0
  5  2  1  0  0  0  0
  6 10  2  0  0  0  0
  7 13  2  0  0  0  0
  9 11  2  0  0  0  0
 10 11  1  0  0  0  0
 11  8  1  0  0  0  0
 12  7  1  0  0  0  0
 12  6  1  0  0  0  0
 13  9  1  0  0  0  0
 14  7  1  0  0  0  0
 15 20  2  0  0  0  0
 16 19  2  0  0  0  0
 17 21  1  0  0  0  0
 18 17  2  0  0  0  0
 18 15  1  0  0  0  0
 20 19  1  0  0  0  0
 21 16  1  0  0  0  0
 22 15  1  0  0  0  0
 23 26  1  0  0  0  0
 23 24  1  0  0  0  0
 24 22  1  0  0  0  0
 25 23  2  0  0  0  0
 27 28  1  0  0  0  0
 28 31  1  0  0  0  0
 30 29  2  0  0  0  0
 31 30  1  0  0  0  0
 32 30  1  0  0  0  0
M  END
>  <MODEL>
3

>  <REMARK>
 VINA RESULT:      -8.2      0.974      1.326
  Name = 
  7 active torsions:
  status: ('A' for Active; 'I' for Inactive)
    1  A    between atoms: C_2  and  C_13
    2  A    between atoms: C_2  and  N_32
    3  A    between atoms: C_6  and  C_17
    4  A    between atoms: C_7  and  C_12
    5  A    between atoms: C_11  and  C_13
    6  A    between atoms: C_11  and  N_26
    7  A    between atoms: C_17  and  N_18
                            x       y       z     vdW  Elec       q    Type
                         _______ _______ _______ _____ _____    ______ ____

>  <TORSDO>
F 7

$$$$
=
 OpenBabel10222416303D

 32 34  0  0  1  0  0  0  0  0999 V2000
  187.1020  178.6650  144.1460 O   0  0  0  0  0  0  0  0  0  0  0  0
  185.8710  178.4020  144.7820 C   0  0  2  0  0  0  0  0  0  0  0  0
  187.5250  177.4420  143.6040 C   0  0  2  0  0  3  0  0  0  0  0  0
  187.0340  176.3150  144.4740 C   0  0  0  0  0  2  0  0  0  0  0  0
  185.8770  176.9280  145.2020 C   0  0  0  0  0  2  0  0  0  0  0  0
  191.9680  177.7950  142.6930 N   0  0  0  0  0  0  0  0  0  0  0  0
  190.9890  177.3220  144.8300 C   0  0  0  0  0  0  0  0  0  0  0  0
  188.5570  178.0290  140.7210 S   0  0  0  0  0  1  0  0  0  0  0  0
  189.0130  177.4050  143.3790 C   0  0  0  0  0  0  0  0  0  0  0  0
  191.0120  177.5220  141.8590 C   0  0  0  0  0  3  0  0  0  0  0  0
  189.5700  177.6510  142.1580 C   0  0  0  0  0  0  0  0  0  0  0  0
  191.7420  178.3200  144.0270 C   0  0  0  0  0  2  0  0  0  0  0  0
  189.7790  176.9710  144.5170 N   0  0  0  0  0  0  0  0  0  0  0  0
  191.7330  176.6490  146.2640 Cl  0  0  0  0  0  0  0  0  0  0  0  0
  182.9280  178.6600  141.3340 C   0  0  0  0  0  0  0  0  0  0  0  0
  183.4740  179.0310  144.3940 C   0  0  0  0  0  3  0  0  0  0  0  0
  185.1430  179.0010  142.4950 C   0  0  0  0  0  3  0  0  0  0  0  0
  184.3570  178.9810  141.4230 C   0  0  0  0  0  3  0  0  0  0  0  0
  182.3140  179.0390  143.7460 C   0  0  0  0  0  3  0  0  0  0  0  0
  182.0580  178.7220  142.3390 C   0  0  0  0  0  3  0  0  0  0  0  0
  184.7640  178.7040  143.8490 N   0  0  0  0  0  0  0  0  0  0  0  0
  182.3830  178.3600  139.9780 C   0  0  0  0  0  2  0  0  0  0  0  0
  182.6770  175.9710  139.1820 C   0  0  0  0  0  0  0  0  0  0  0  0
  183.1580  177.3080  139.3340 N   0  0  0  0  0  2  0  0  0  0  0  0
  183.4550  175.0330  138.5190 O   0  0  0  0  0  0  0  0  0  0  0  0
  181.5560  175.6340  139.6490 O   0  0  0  0  0  1  0  0  0  0  0  0
  185.7920  179.2880  146.0340 C   0  0  0  0  0  2  0  0  0  0  0  0
  186.0490  178.5400  147.3360 C   0  0  0  0  0  2  0  0  0  0  0  0
  189.4660  178.4870  148.6330 O   0  0  0  0  0  0  0  0  0  0  0  0
  188.3930  178.0650  148.1290 C   0  0  0  0  0  0  0  0  0  0  0  0
  187.3130  178.9720  147.9110 N   0  0  0  0  0  2  0  0  0  0  0  0
  188.2670  176.6890  147.7870 N   0  0  0  0  0  1  0  0  0  0  0  0
  1  2  1  0  0  0  0
  2  5  1  0  0  0  0
  2 27  1  1  0  0  0
  3  9  1  1  0  0  0
  3  1  1  0  0  0  0
  3  4  1  0  0  0  0
  4  5  1  0  0  0  0
  6 12  1  0  0  0  0
  7 14  1  0  0  0  0
  8 11  1  0  0  0  0
  9 13  1  0  0  0  0
 10 11  1  0  0  0  0
 10  6  2  0  0  0  0
 11  9  2  0  0  0  0
 12  7  1  0  0  0  0
 13  7  2  0  0  0  0
 15 18  1  0  0  0  0
 15 20  2  0  0  0  0
 17 21  1  0  0  0  0
 18 17  2  0  0  0  0
 19 16  2  0  0  0  0
 20 19  1  0  0  0  0
 21 16  1  0  0  0  0
 21  2  1  0  0  0  0
 22 15  1  0  0  0  0
 23 24  1  0  0  0  0
 23 26  1  0  0  0  0
 24 22  1  0  0  0  0
 25 23  2  0  0  0  0
 27 28  1  0  0  0  0
 28 31  1  0  0  0  0
 30 29  2  0  0  0  0
 31 30  1  0  0  0  0
 32 30  1  0  0  0  0
M  END
>  <MODEL>
4

>  <REMARK>
 VINA RESULT:      -8.1      3.106      3.994
  Name = 
  7 active torsions:
  status: ('A' for Active; 'I' for Inactive)
    1  A    between atoms: C_2  and  C_13
    2  A    between atoms: C_2  and  N_32
    3  A    between atoms: C_6  and  C_17
    4  A    between atoms: C_7  and  C_12
    5  A    between atoms: C_11  and  C_13
    6  A    between atoms: C_11  and  N_26
    7  A    between atoms: C_17  and  N_18
                            x       y       z     vdW  Elec       q    Type
                         _______ _______ _______ _____ _____    ______ ____

>  <TORSDO>
F 7

$$$$
=
 OpenBabel10222416303D

 32 34  0  0  1  0  0  0  0  0999 V2000
  188.0250  176.5140  138.2470 O   0  0  0  0  0  0  0  0  0  0  0  0
  189.3350  177.0090  138.4130 C   0  0  2  0  0  0  0  0  0  0  0  0
  187.5000  177.1800  137.1300 C   0  0  2  0  0  3  0  0  0  0  0  0
  188.1000  178.5600  137.0440 C   0  0  0  0  0  2  0  0  0  0  0  0
  189.3680  178.4270  137.8320 C   0  0  0  0  0  2  0  0  0  0  0  0
  182.9770  176.7030  137.2010 N   0  0  0  0  0  0  0  0  0  0  0  0
  184.2680  178.2130  138.5440 C   0  0  0  0  0  0  0  0  0  0  0  0
  186.0430  175.1660  135.2490 S   0  0  0  0  0  1  0  0  0  0  0  0
  185.9950  177.1940  137.1320 C   0  0  0  0  0  0  0  0  0  0  0  0
  183.7860  176.3960  136.2340 C   0  0  0  0  0  3  0  0  0  0  0  0
  185.2600  176.3510  136.3500 C   0  0  0  0  0  0  0  0  0  0  0  0
  183.4180  176.9950  138.5530 C   0  0  0  0  0  2  0  0  0  0  0  0
  185.4080  178.2420  137.9240 N   0  0  0  0  0  0  0  0  0  0  0  0
  183.7440  179.6210  139.4410 Cl  0  0  0  0  0  0  0  0  0  0  0  0
  192.9340  174.6860  136.9060 C   0  0  0  0  0  0  0  0  0  0  0  0
  189.8310  174.8150  137.3020 C   0  0  0  0  0  3  0  0  0  0  0  0
  191.4830  176.7280  137.2190 C   0  0  0  0  0  3  0  0  0  0  0  0
  192.6110  176.1170  136.8690 C   0  0  0  0  0  3  0  0  0  0  0  0
  190.5850  173.7790  136.9500 C   0  0  0  0  0  3  0  0  0  0  0  0
  192.0470  173.6940  136.9080 C   0  0  0  0  0  3  0  0  0  0  0  0
  190.2890  176.1110  137.7270 N   0  0  0  0  0  0  0  0  0  0  0  0
  194.3750  174.3120  136.8060 C   0  0  0  0  0  2  0  0  0  0  0  0
  195.7250  174.3140  138.9520 C   0  0  0  0  0  0  0  0  0  0  0  0
  195.1530  174.9930  137.8320 N   0  0  0  0  0  2  0  0  0  0  0  0
  196.4910  175.0230  139.8660 O   0  0  0  0  0  1  0  0  0  0  0  0
  195.5360  173.0810  139.1220 O   0  0  0  0  0  0  0  0  0  0  0  0
  189.6260  177.0700  139.9210 C   0  0  0  0  0  2  0  0  0  0  0  0
  188.5300  177.7500  140.7320 C   0  0  0  0  0  2  0  0  0  0  0  0
  189.3120  177.9530  144.2970 O   0  0  0  0  0  0  0  0  0  0  0  0
  188.8250  177.5150  143.2230 C   0  0  0  0  0  0  0  0  0  0  0  0
  189.0710  178.2090  142.0020 N   0  0  0  0  0  2  0  0  0  0  0  0
  188.0300  176.3330  143.2400 N   0  0  0  0  0  1  0  0  0  0  0  0
  1  2  1  0  0  0  0
  2 27  1  1  0  0  0
  3  9  1  1  0  0  0
  3  1  1  0  0  0  0
  4  3  1  0  0  0  0
  4  5  1  0  0  0  0
  5  2  1  0  0  0  0
  6 12  1  0  0  0  0
  7 12  1  0  0  0  0
  7 14  1  0  0  0  0
  8 11  1  0  0  0  0
  9 13  1  0  0  0  0
 10 11  1  0  0  0  0
 10  6  2  0  0  0  0
 11  9  2  0  0  0  0
 13  7  2  0  0  0  0
 15 20  2  0  0  0  0
 16 21  1  0  0  0  0
 17 21  1  0  0  0  0
 18 15  1  0  0  0  0
 18 17  2  0  0  0  0
 19 16  2  0  0  0  0
 20 19  1  0  0  0  0
 21  2  1  0  0  0  0
 22 15  1  0  0  0  0
 22 24  1  0  0  0  0
 23 26  2  0  0  0  0
 23 25  1  0  0  0  0
 24 23  1  0  0  0  0
 27 28  1  0  0  0  0
 28 31  1  0  0  0  0
 30 32  1  0  0  0  0
 30 29  2  0  0  0  0
 31 30  1  0  0  0  0
M  END
>  <MODEL>
5

>  <REMARK>
 VINA RESULT:      -7.6      4.830      9.743
  Name = 
  7 active torsions:
  status: ('A' for Active; 'I' for Inactive)
    1  A    between atoms: C_2  and  C_13
    2  A    between atoms: C_2  and  N_32
    3  A    between atoms: C_6  and  C_17
    4  A    between atoms: C_7  and  C_12
    5  A    between atoms: C_11  and  C_13
    6  A    between atoms: C_11  and  N_26
    7  A    between atoms: C_17  and  N_18
                            x       y       z     vdW  Elec       q    Type
                         _______ _______ _______ _____ _____    ______ ____

>  <TORSDO>
F 7

$$$$
=
 OpenBabel10222416303D

 32 34  0  0  1  0  0  0  0  0999 V2000
  188.8400  178.2570  142.8390 O   0  0  0  0  0  0  0  0  0  0  0  0
  188.1100  177.7670  143.9420 C   0  0  2  0  0  0  0  0  0  0  0  0
  188.7660  177.2590  141.8550 C   0  0  2  0  0  3  0  0  0  0  0  0
  188.6820  175.9090  142.5180 C   0  0  0  0  0  2  0  0  0  0  0  0
  188.1640  176.2360  143.8860 C   0  0  0  0  0  2  0  0  0  0  0  0
  192.3710  177.1260  139.0840 N   0  0  0  0  0  0  0  0  0  0  0  0
  190.0720  177.2680  138.4180 C   0  0  0  0  0  0  0  0  0  0  0  0
  191.6750  177.1120  142.9690 S   0  0  0  0  0  1  0  0  0  0  0  0
  189.8940  177.3570  140.8630 C   0  0  0  0  0  0  0  0  0  0  0  0
  192.3470  177.4980  140.3270 C   0  0  0  0  0  3  0  0  0  0  0  0
  191.2030  177.3000  141.2440 C   0  0  0  0  0  0  0  0  0  0  0  0
  191.2850  176.4110  138.4390 C   0  0  0  0  0  2  0  0  0  0  0  0
  189.4820  177.6380  139.5130 N   0  0  0  0  0  0  0  0  0  0  0  0
  189.3940  177.7420  136.8760 Cl  0  0  0  0  0  0  0  0  0  0  0  0
  183.7800  178.7020  142.9420 C   0  0  0  0  0  0  0  0  0  0  0  0
  186.0470  178.6040  145.0990 C   0  0  0  0  0  3  0  0  0  0  0  0
  186.2790  178.7270  142.5830 C   0  0  0  0  0  3  0  0  0  0  0  0
  185.0230  178.9100  142.1890 C   0  0  0  0  0  3  0  0  0  0  0  0
  184.7410  178.7820  145.2670 C   0  0  0  0  0  3  0  0  0  0  0  0
  183.6750  178.6820  144.2670 C   0  0  0  0  0  3  0  0  0  0  0  0
  186.7210  178.2700  143.8720 N   0  0  0  0  0  0  0  0  0  0  0  0
  182.5140  178.6320  142.1560 C   0  0  0  0  0  2  0  0  0  0  0  0
  180.2860  179.5760  142.9140 C   0  0  0  0  0  0  0  0  0  0  0  0
  181.3590  178.6400  143.0430 N   0  0  0  0  0  2  0  0  0  0  0  0
  179.1970  179.4950  143.7700 O   0  0  0  0  0  1  0  0  0  0  0  0
  180.3220  180.4780  142.0350 O   0  0  0  0  0  0  0  0  0  0  0  0
  188.8080  178.2550  145.2200 C   0  0  0  0  0  2  0  0  0  0  0  0
  189.2630  177.1300  146.1420 C   0  0  0  0  0  2  0  0  0  0  0  0
  187.5700  177.5170  149.3570 O   0  0  0  0  0  0  0  0  0  0  0  0
  188.4180  177.6970  148.4460 C   0  0  0  0  0  0  0  0  0  0  0  0
  188.3090  176.9650  147.2260 N   0  0  0  0  0  2  0  0  0  0  0  0
  189.4800  178.6240  148.6450 N   0  0  0  0  0  1  0  0  0  0  0  0
  1  2  1  0  0  0  0
  2 27  1  1  0  0  0
  3  9  1  6  0  0  0
  3  4  1  0  0  0  0
  3  1  1  0  0  0  0
  4  5  1  0  0  0  0
  5  2  1  0  0  0  0
  6 10  2  0  0  0  0
  7 12  1  0  0  0  0
  7 13  2  0  0  0  0
  9 11  2  0  0  0  0
 10 11  1  0  0  0  0
 11  8  1  0  0  0  0
 12  6  1  0  0  0  0
 13  9  1  0  0  0  0
 14  7  1  0  0  0  0
 15 20  2  0  0  0  0
 16 19  2  0  0  0  0
 17 21  1  0  0  0  0
 18 17  2  0  0  0  0
 18 15  1  0  0  0  0
 20 19  1  0  0  0  0
 21  2  1  0  0  0  0
 21 16  1  0  0  0  0
 22 15  1  0  0  0  0
 22 24  1  0  0  0  0
 23 24  1  0  0  0  0
 23 25  1  0  0  0  0
 26 23  2  0  0  0  0
 27 28  1  0  0  0  0
 28 31  1  0  0  0  0
 30 32  1  0  0  0  0
 30 29  2  0  0  0  0
 31 30  1  0  0  0  0
M  END
>  <MODEL>
6

>  <REMARK>
 VINA RESULT:      -7.5      1.472      1.587
  Name = 
  7 active torsions:
  status: ('A' for Active; 'I' for Inactive)
    1  A    between atoms: C_2  and  C_13
    2  A    between atoms: C_2  and  N_32
    3  A    between atoms: C_6  and  C_17
    4  A    between atoms: C_7  and  C_12
    5  A    between atoms: C_11  and  C_13
    6  A    between atoms: C_11  and  N_26
    7  A    between atoms: C_17  and  N_18
                            x       y       z     vdW  Elec       q    Type
                         _______ _______ _______ _____ _____    ______ ____

>  <TORSDO>
F 7

$$$$
=
 OpenBabel10222416303D

 32 34  0  0  1  0  0  0  0  0999 V2000
  183.0240  179.6730  140.2830 O   0  0  0  0  0  0  0  0  0  0  0  0
  183.9060  178.6260  140.6230 C   0  0  2  0  0  0  0  0  0  0  0  0
  181.7730  179.0710  140.0790 C   0  0  2  0  0  3  0  0  0  0  0  0
  181.9730  177.6760  139.5460 C   0  0  0  0  0  2  0  0  0  0  0  0
  183.3680  177.3430  139.9800 C   0  0  0  0  0  2  0  0  0  0  0  0
  179.1840  182.0040  137.7600 N   0  0  0  0  0  0  0  0  0  0  0  0
  180.8580  180.5540  136.8420 C   0  0  0  0  0  0  0  0  0  0  0  0
  179.6270  180.8290  141.5010 S   0  0  0  0  0  1  0  0  0  0  0  0
  180.8760  179.9090  139.2080 C   0  0  0  0  0  0  0  0  0  0  0  0
  178.9310  181.4750  138.9170 C   0  0  0  0  0  3  0  0  0  0  0  0
  179.9070  180.7160  139.7280 C   0  0  0  0  0  0  0  0  0  0  0  0
  180.4900  181.9650  137.1280 C   0  0  0  0  0  2  0  0  0  0  0  0
  181.0420  179.6930  137.7950 N   0  0  0  0  0  0  0  0  0  0  0  0
  181.1060  180.0610  135.1810 Cl  0  0  0  0  0  0  0  0  0  0  0  0
  185.0470  178.6990  145.0180 C   0  0  0  0  0  0  0  0  0  0  0  0
  182.7760  178.6430  142.8630 C   0  0  0  0  0  3  0  0  0  0  0  0
  185.1900  177.9260  142.6190 C   0  0  0  0  0  3  0  0  0  0  0  0
  185.6400  178.0080  143.8670 C   0  0  0  0  0  3  0  0  0  0  0  0
  182.6820  178.8640  144.1700 C   0  0  0  0  0  3  0  0  0  0  0  0
  183.7650  179.0300  145.1430 C   0  0  0  0  0  3  0  0  0  0  0  0
  183.9860  178.5120  142.0960 N   0  0  0  0  0  0  0  0  0  0  0  0
  185.9310  178.9370  146.1960 C   0  0  0  0  0  2  0  0  0  0  0  0
  187.8080  177.7490  147.4190 C   0  0  0  0  0  0  0  0  0  0  0  0
  186.9650  177.9130  146.2760 N   0  0  0  0  0  2  0  0  0  0  0  0
  188.7420  176.7230  147.4400 O   0  0  0  0  0  0  0  0  0  0  0  0
  187.7170  178.5290  148.4030 O   0  0  0  0  0  1  0  0  0  0  0  0
  185.2810  178.9590  140.0230 C   0  0  0  0  0  2  0  0  0  0  0  0
  185.4790  178.4320  138.6070 C   0  0  0  0  0  2  0  0  0  0  0  0
  188.8690  177.5190  137.5920 O   0  0  0  0  0  0  0  0  0  0  0  0
  187.7890  178.1610  137.6390 C   0  0  0  0  0  0  0  0  0  0  0  0
  186.7490  177.7310  138.5160 N   0  0  0  0  0  2  0  0  0  0  0  0
  187.6140  179.3080  136.8120 N   0  0  0  0  0  1  0  0  0  0  0  0
  1  2  1  0  0  0  0
  2 27  1  6  0  0  0
  2 21  1  0  0  0  0
  3  9  1  6  0  0  0
  3  1  1  0  0  0  0
  4  5  1  0  0  0  0
  4  3  1  0  0  0  0
  5  2  1  0  0  0  0
  6 10  2  0  0  0  0
  7 12  1  0  0  0  0
  7 13  2  0  0  0  0
  9 11  2  0  0  0  0
 10 11  1  0  0  0  0
 11  8  1  0  0  0  0
 12  6  1  0  0  0  0
 13  9  1  0  0  0  0
 14  7  1  0  0  0  0
 15 20  2  0  0  0  0
 15 22  1  0  0  0  0
 16 19  2  0  0  0  0
 17 18  2  0  0  0  0
 18 15  1  0  0  0  0
 19 20  1  0  0  0  0
 21 17  1  0  0  0  0
 21 16  1  0  0  0  0
 22 24  1  0  0  0  0
 23 25  2  0  0  0  0
 23 26  1  0  0  0  0
 24 23  1  0  0  0  0
 28 27  1  0  0  0  0
 29 30  2  0  0  0  0
 30 31  1  0  0  0  0
 31 28  1  0  0  0  0
 32 30  1  0  0  0  0
M  END
>  <MODEL>
7

>  <REMARK>
 VINA RESULT:      -7.5      4.644      8.583
  Name = 
  7 active torsions:
  status: ('A' for Active; 'I' for Inactive)
    1  A    between atoms: C_2  and  C_13
    2  A    between atoms: C_2  and  N_32
    3  A    between atoms: C_6  and  C_17
    4  A    between atoms: C_7  and  C_12
    5  A    between atoms: C_11  and  C_13
    6  A    between atoms: C_11  and  N_26
    7  A    between atoms: C_17  and  N_18
                            x       y       z     vdW  Elec       q    Type
                         _______ _______ _______ _____ _____    ______ ____

>  <TORSDO>
F 7

$$$$
=
 OpenBabel10222416303D

 32 34  0  0  1  0  0  0  0  0999 V2000
  189.1210  178.1390  143.4280 O   0  0  0  0  0  0  0  0  0  0  0  0
  188.8150  177.8070  142.0920 C   0  0  2  0  0  0  0  0  0  0  0  0
  188.9010  176.9720  144.1750 C   0  0  2  0  0  3  0  0  0  0  0  0
  187.7920  176.1750  143.5380 C   0  0  0  0  0  2  0  0  0  0  0  0
  187.7870  176.6710  142.1240 C   0  0  0  0  0  2  0  0  0  0  0  0
  188.5450  178.2000  148.5410 N   0  0  0  0  0  0  0  0  0  0  0  0
  186.7800  178.1950  146.9180 C   0  0  0  0  0  0  0  0  0  0  0  0
  191.3450  176.8540  146.1060 S   0  0  0  0  0  1  0  0  0  0  0  0
  188.6500  177.2680  145.6290 C   0  0  0  0  0  0  0  0  0  0  0  0
  189.4410  177.4250  148.0110 C   0  0  0  0  0  3  0  0  0  0  0  0
  189.6500  177.2480  146.5580 C   0  0  0  0  0  0  0  0  0  0  0  0
  187.6560  179.0450  147.7650 C   0  0  0  0  0  2  0  0  0  0  0  0
  187.2650  177.4480  145.9730 N   0  0  0  0  0  0  0  0  0  0  0  0
  185.0480  178.2480  147.1660 Cl  0  0  0  0  0  0  0  0  0  0  0  0
  192.1140  176.8560  139.1200 C   0  0  0  0  0  0  0  0  0  0  0  0
  191.3150  177.6070  142.0530 C   0  0  0  0  0  3  0  0  0  0  0  0
  189.8880  176.5300  140.2650 C   0  0  0  0  0  3  0  0  0  0  0  0
  190.7690  176.2970  139.2970 C   0  0  0  0  0  3  0  0  0  0  0  0
  192.5210  177.5940  141.4930 C   0  0  0  0  0  3  0  0  0  0  0  0
  192.8650  177.3810  140.0850 C   0  0  0  0  0  3  0  0  0  0  0  0
  190.0550  177.4080  141.3900 N   0  0  0  0  0  0  0  0  0  0  0  0
  192.7390  176.7080  137.7740 C   0  0  0  0  0  2  0  0  0  0  0  0
  194.1440  174.5980  137.7800 C   0  0  0  0  0  0  0  0  0  0  0  0
  192.9430  175.3020  137.4540 N   0  0  0  0  0  2  0  0  0  0  0  0
  194.2490  173.2470  137.4820 O   0  0  0  0  0  0  0  0  0  0  0  0
  195.1100  175.1930  138.3270 O   0  0  0  0  0  1  0  0  0  0  0  0
  188.1860  179.0450  141.4340 C   0  0  0  0  0  2  0  0  0  0  0  0
  186.7150  178.8710  141.0760 C   0  0  0  0  0  2  0  0  0  0  0  0
  183.8680  179.3210  143.3230 O   0  0  0  0  0  0  0  0  0  0  0  0
  184.5500  178.8760  142.3650 C   0  0  0  0  0  0  0  0  0  0  0  0
  185.8820  179.3480  142.1690 N   0  0  0  0  0  2  0  0  0  0  0  0
  183.9850  177.9090  141.4860 N   0  0  0  0  0  1  0  0  0  0  0  0
  1  3  1  0  0  0  0
  2 27  1  6  0  0  0
  2  5  1  0  0  0  0
  2  1  1  0  0  0  0
  3  9  1  1  0  0  0
  4  3  1  0  0  0  0
  5  4  1  0  0  0  0
  7 14  1  0  0  0  0
  7 12  1  0  0  0  0
  8 11  1  0  0  0  0
  9 13  1  0  0  0  0
  9 11  2  0  0  0  0
 10  6  2  0  0  0  0
 11 10  1  0  0  0  0
 12  6  1  0  0  0  0
 13  7  2  0  0  0  0
 15 18  1  0  0  0  0
 15 20  2  0  0  0  0
 17 21  1  0  0  0  0
 18 17  2  0  0  0  0
 19 16  2  0  0  0  0
 20 19  1  0  0  0  0
 21 16  1  0  0  0  0
 21  2  1  0  0  0  0
 22 15  1  0  0  0  0
 23 26  1  0  0  0  0
 24 22  1  0  0  0  0
 24 23  1  0  0  0  0
 25 23  2  0  0  0  0
 28 27  1  0  0  0  0
 28 31  1  0  0  0  0
 30 29  2  0  0  0  0
 31 30  1  0  0  0  0
 32 30  1  0  0  0  0
M  END
>  <MODEL>
8

>  <REMARK>
 VINA RESULT:      -7.4      3.536      8.914
  Name = 
  7 active torsions:
  status: ('A' for Active; 'I' for Inactive)
    1  A    between atoms: C_2  and  C_13
    2  A    between atoms: C_2  and  N_32
    3  A    between atoms: C_6  and  C_17
    4  A    between atoms: C_7  and  C_12
    5  A    between atoms: C_11  and  C_13
    6  A    between atoms: C_11  and  N_26
    7  A    between atoms: C_17  and  N_18
                            x       y       z     vdW  Elec       q    Type
                         _______ _______ _______ _____ _____    ______ ____

>  <TORSDO>
F 7

$$$$
=
 OpenBabel10222416303D

 32 34  0  0  1  0  0  0  0  0999 V2000
  188.5290  176.7880  141.2950 O   0  0  0  0  0  0  0  0  0  0  0  0
  188.2300  177.5870  142.4170 C   0  0  2  0  0  0  0  0  0  0  0  0
  189.2010  177.6260  140.3920 C   0  0  2  0  0  3  0  0  0  0  0  0
  188.6930  179.0360  140.5490 C   0  0  0  0  0  2  0  0  0  0  0  0
  188.1180  179.0370  141.9330 C   0  0  0  0  0  2  0  0  0  0  0  0
  189.1980  175.6900  136.2760 N   0  0  0  0  0  0  0  0  0  0  0  0
  187.2820  176.5090  137.4630 C   0  0  0  0  0  0  0  0  0  0  0  0
  191.8420  176.6730  139.0370 S   0  0  0  0  0  1  0  0  0  0  0  0
  189.1110  177.1240  138.9760 C   0  0  0  0  0  0  0  0  0  0  0  0
  190.1910  176.2780  136.8690 C   0  0  0  0  0  3  0  0  0  0  0  0
  190.2050  176.6800  138.2920 C   0  0  0  0  0  0  0  0  0  0  0  0
  187.9770  175.2980  136.9560 C   0  0  0  0  0  2  0  0  0  0  0  0
  187.8140  177.2670  138.3720 N   0  0  0  0  0  0  0  0  0  0  0  0
  185.6840  176.8860  136.8580 Cl  0  0  0  0  0  0  0  0  0  0  0  0
  190.7980  176.5960  146.0290 C   0  0  0  0  0  0  0  0  0  0  0  0
  190.6580  177.3090  142.9830 C   0  0  0  0  0  3  0  0  0  0  0  0
  188.9380  177.7610  144.7810 C   0  0  0  0  0  3  0  0  0  0  0  0
  189.5810  177.4050  145.8890 C   0  0  0  0  0  3  0  0  0  0  0  0
  191.6940  176.8710  143.6920 C   0  0  0  0  0  3  0  0  0  0  0  0
  191.7110  176.4050  145.0810 C   0  0  0  0  0  3  0  0  0  0  0  0
  189.2960  177.4270  143.4300 N   0  0  0  0  0  0  0  0  0  0  0  0
  191.0960  176.0480  147.3840 C   0  0  0  0  0  2  0  0  0  0  0  0
  193.0210  176.3810  149.0010 C   0  0  0  0  0  0  0  0  0  0  0  0
  192.0550  176.8950  148.0800 N   0  0  0  0  0  2  0  0  0  0  0  0
  193.9300  177.2450  149.5940 O   0  0  0  0  0  1  0  0  0  0  0  0
  193.0490  175.1540  149.2850 O   0  0  0  0  0  0  0  0  0  0  0  0
  186.8730  177.1290  142.9710 C   0  0  0  0  0  2  0  0  0  0  0  0
  185.8220  178.2310  143.0170 C   0  0  0  0  0  2  0  0  0  0  0  0
  183.7580  179.0030  145.9330 O   0  0  0  0  0  0  0  0  0  0  0  0
  184.0670  178.8110  144.7290 C   0  0  0  0  0  0  0  0  0  0  0  0
  185.4080  178.4600  144.3920 N   0  0  0  0  0  2  0  0  0  0  0  0
  183.0760  178.9510  143.7160 N   0  0  0  0  0  1  0  0  0  0  0  0
  1  2  1  0  0  0  0
  2 27  1  1  0  0  0
  2 21  1  0  0  0  0
  3  9  1  6  0  0  0
  3  4  1  0  0  0  0
  3  1  1  0  0  0  0
  4  5  1  0  0  0  0
  5  2  1  0  0  0  0
  6 10  2  0  0  0  0
  6 12  1  0  0  0  0
  7 13  2  0  0  0  0
 10 11  1  0  0  0  0
 11  9  2  0  0  0  0
 11  8  1  0  0  0  0
 12  7  1  0  0  0  0
 13  9  1  0  0  0  0
 14  7  1  0  0  0  0
 15 22  1  0  0  0  0
 16 21  1  0  0  0  0
 16 19  2  0  0  0  0
 17 18  2  0  0  0  0
 18 15  1  0  0  0  0
 19 20  1  0  0  0  0
 20 15  2  0  0  0  0
 21 17  1  0  0  0  0
 22 24  1  0  0  0  0
 23 26  2  0  0  0  0
 23 25  1  0  0  0  0
 24 23  1  0  0  0  0
 27 28  1  0  0  0  0
 28 31  1  0  0  0  0
 30 29  2  0  0  0  0
 31 30  1  0  0  0  0
 32 30  1  0  0  0  0
M  END
>  <MODEL>
9

>  <REMARK>
 VINA RESULT:      -7.4      2.443      7.283
  Name = 
  7 active torsions:
  status: ('A' for Active; 'I' for Inactive)
    1  A    between atoms: C_2  and  C_13
    2  A    between atoms: C_2  and  N_32
    3  A    between atoms: C_6  and  C_17
    4  A    between atoms: C_7  and  C_12
    5  A    between atoms: C_11  and  C_13
    6  A    between atoms: C_11  and  N_26
    7  A    between atoms: C_17  and  N_18
                            x       y       z     vdW  Elec       q    Type
                         _______ _______ _______ _____ _____    ______ ____

>  <TORSDO>
F 7

$$$$
