=
 OpenBabel10222416113D

 26 30  0  0  1  0  0  0  0  0999 V2000
  185.3580  178.4160  144.9680 C   0  0  0  0  0  0  0  0  0  0  0  0
  187.0060  178.7820  148.0200 C   0  0  0  0  0  3  0  0  0  0  0  0
  185.3100  178.8850  146.2460 N   0  0  0  0  0  0  0  0  0  0  0  0
  186.5110  178.5450  146.7450 C   0  0  0  0  0  0  0  0  0  0  0  0
  187.2550  177.8980  145.8100 C   0  0  0  0  0  0  0  0  0  0  0  0
  189.0360  177.6870  147.3790 C   0  0  0  0  0  3  0  0  0  0  0  0
  188.2680  178.3420  148.3070 N   0  0  0  0  0  0  0  0  0  0  0  0
  188.5430  177.4420  146.0850 C   0  0  0  0  0  3  0  0  0  0  0  0
  186.5420  177.8020  144.6710 N   0  0  0  0  0  0  0  0  0  0  0  0
  189.7560  178.0670  141.2640 C   0  0  0  0  0  2  0  0  0  0  0  0
  188.9750  176.3280  142.5990 C   0  0  1  0  0  3  0  0  0  0  0  0
  189.0850  177.7660  142.5230 N   0  0  2  0  0  0  0  0  0  0  0  0
  187.6990  178.2000  142.5200 C   0  0  0  0  0  2  0  0  0  0  0  0
  191.3950  176.6080  142.3890 O   0  0  0  0  0  0  0  0  0  0  0  0
  190.9110  176.2780  140.1620 F   0  0  0  0  0  0  0  0  0  0  0  0
  191.0580  177.2340  141.1540 C   0  0  0  0  0  0  0  0  0  0  0  0
  190.3610  175.7350  142.8400 C   0  0  0  0  0  2  0  0  0  0  0  0
  187.9190  176.0410  143.6300 C   0  0  0  0  0  2  0  0  0  0  0  0
  186.9510  177.1960  143.4020 C   0  0  1  0  0  3  0  0  0  0  0  0
  192.0870  178.0810  140.7910 F   0  0  0  0  0  0  0  0  0  0  0  0
  182.9390  178.8500  144.5530 C   0  0  0  0  0  3  0  0  0  0  0  0
  184.3740  178.4770  142.6460 C   0  0  0  0  0  3  0  0  0  0  0  0
  181.8440  179.0100  143.7000 C   0  0  0  0  0  3  0  0  0  0  0  0
  182.0140  178.9030  142.3180 C   0  0  0  0  0  3  0  0  0  0  0  0
  184.2160  178.5820  144.0360 C   0  0  0  0  0  0  0  0  0  0  0  0
  183.2810  178.6360  141.7910 C   0  0  0  0  0  3  0  0  0  0  0  0
  1  3  2  0  0  0  0
  2  7  1  0  0  0  0
  3  4  1  0  0  0  0
  4  2  2  0  0  0  0
  5  8  2  0  0  0  0
  5  4  1  0  0  0  0
  6  7  2  0  0  0  0
  8  6  1  0  0  0  0
  9  1  1  0  0  0  0
  9  5  1  0  0  0  0
 11 17  1  1  0  0  0
 11 18  1  0  0  0  0
 12 10  1  6  0  0  0
 12 11  1  0  0  0  0
 13 12  1  0  0  0  0
 14 17  1  0  0  0  0
 15 16  1  0  0  0  0
 16 10  1  0  0  0  0
 16 14  1  0  0  0  0
 19 13  1  6  0  0  0
 19 18  1  0  0  0  0
 19  9  1  0  0  0  0
 20 16  1  0  0  0  0
 22 25  2  0  0  0  0
 23 21  2  0  0  0  0
 24 23  1  0  0  0  0
 25 21  1  0  0  0  0
 25  1  1  0  0  0  0
 26 24  2  0  0  0  0
 26 22  1  0  0  0  0
M  END
>  <MODEL>
1

>  <REMARK>
 VINA RESULT:      -9.5      0.000      0.000
  Name = 
  2 active torsions:
  status: ('A' for Active; 'I' for Inactive)
    1  A    between atoms: C_1  and  C_19
    2  A    between atoms: C_21  and  N_26
                            x       y       z     vdW  Elec       q    Type
                         _______ _______ _______ _____ _____    ______ ____

>  <TORSDO>
F 2

$$$$
=
 OpenBabel10222416113D

 26 30  0  0  1  0  0  0  0  0999 V2000
  186.6410  178.3360  141.9930 C   0  0  0  0  0  0  0  0  0  0  0  0
  189.0850  178.4940  139.5100 C   0  0  0  0  0  3  0  0  0  0  0  0
  187.0230  178.8590  140.7950 N   0  0  0  0  0  0  0  0  0  0  0  0
  188.2320  178.3080  140.5900 C   0  0  0  0  0  0  0  0  0  0  0  0
  188.5680  177.4880  141.6190 C   0  0  0  0  0  0  0  0  0  0  0  0
  190.6350  176.9900  140.5420 C   0  0  0  0  0  3  0  0  0  0  0  0
  190.2760  177.8230  139.5150 N   0  0  0  0  0  0  0  0  0  0  0  0
  189.7780  176.7960  141.6410 C   0  0  0  0  0  3  0  0  0  0  0  0
  187.5720  177.4900  142.5260 N   0  0  0  0  0  0  0  0  0  0  0  0
  189.2180  177.3820  146.9170 C   0  0  0  0  0  2  0  0  0  0  0  0
  187.0760  177.3500  146.0070 C   0  0  1  0  0  3  0  0  0  0  0  0
  188.4440  177.7230  145.7300 N   0  0  2  0  0  0  0  0  0  0  0  0
  188.7870  176.8850  144.5950 C   0  0  0  0  0  2  0  0  0  0  0  0
  187.5190  178.9190  147.8310 O   0  0  0  0  0  0  0  0  0  0  0  0
  188.0150  176.9680  148.9510 F   0  0  0  0  0  0  0  0  0  0  0  0
  188.5420  177.9880  148.1740 C   0  0  0  0  0  0  0  0  0  0  0  0
  186.4970  178.3150  147.0390 C   0  0  0  0  0  2  0  0  0  0  0  0
  186.3830  177.2750  144.6750 C   0  0  0  0  0  2  0  0  0  0  0  0
  187.4970  176.7420  143.7830 C   0  0  1  0  0  3  0  0  0  0  0  0
  189.5080  178.6430  148.9140 F   0  0  0  0  0  0  0  0  0  0  0  0
  184.1610  178.1080  142.1040 C   0  0  0  0  0  3  0  0  0  0  0  0
  185.2440  179.5720  143.6920 C   0  0  0  0  0  3  0  0  0  0  0  0
  182.9190  178.4170  142.6660 C   0  0  0  0  0  3  0  0  0  0  0  0
  182.8390  179.3040  143.7410 C   0  0  0  0  0  3  0  0  0  0  0  0
  185.3380  178.6820  142.6110 C   0  0  0  0  0  0  0  0  0  0  0  0
  184.0030  179.8820  144.2540 C   0  0  0  0  0  3  0  0  0  0  0  0
  1  9  1  0  0  0  0
  1 25  1  0  0  0  0
  2  7  2  0  0  0  0
  2  4  1  0  0  0  0
  3  1  2  0  0  0  0
  4  3  1  0  0  0  0
  4  5  2  0  0  0  0
  5  8  1  0  0  0  0
  5  9  1  0  0  0  0
  6  8  2  0  0  0  0
  7  6  1  0  0  0  0
 10 16  1  0  0  0  0
 11 18  1  6  0  0  0
 11 17  1  0  0  0  0
 12 13  1  6  0  0  0
 12 11  1  0  0  0  0
 12 10  1  0  0  0  0
 14 16  1  0  0  0  0
 16 20  1  0  0  0  0
 16 15  1  0  0  0  0
 17 14  1  0  0  0  0
 19  9  1  6  0  0  0
 19 13  1  0  0  0  0
 19 18  1  0  0  0  0
 21 25  2  0  0  0  0
 21 23  1  0  0  0  0
 22 26  2  0  0  0  0
 23 24  2  0  0  0  0
 24 26  1  0  0  0  0
 25 22  1  0  0  0  0
M  END
>  <MODEL>
2

>  <REMARK>
 VINA RESULT:      -9.0      3.159      5.350
  Name = 
  2 active torsions:
  status: ('A' for Active; 'I' for Inactive)
    1  A    between atoms: C_1  and  C_19
    2  A    between atoms: C_21  and  N_26
                            x       y       z     vdW  Elec       q    Type
                         _______ _______ _______ _____ _____    ______ ____

>  <TORSDO>
F 2

$$$$
=
 OpenBabel10222416113D

 26 30  0  0  1  0  0  0  0  0999 V2000
  187.6200  177.7050  145.6000 C   0  0  0  0  0  0  0  0  0  0  0  0
  190.5460  177.5010  147.4870 C   0  0  0  0  0  3  0  0  0  0  0  0
  188.2490  177.9990  146.7720 N   0  0  0  0  0  0  0  0  0  0  0  0
  189.4790  177.4850  146.5980 C   0  0  0  0  0  0  0  0  0  0  0  0
  189.5910  176.9050  145.3750 C   0  0  0  0  0  0  0  0  0  0  0  0
  191.8490  176.3210  145.8610 C   0  0  0  0  0  3  0  0  0  0  0  0
  191.7140  176.9120  147.0910 N   0  0  0  0  0  0  0  0  0  0  0  0
  190.7740  176.3010  144.9550 C   0  0  0  0  0  3  0  0  0  0  0  0
  188.4200  177.0300  144.7210 N   0  0  0  0  0  0  0  0  0  0  0  0
  188.2240  178.4020  140.2400 C   0  0  0  0  0  2  0  0  0  0  0  0
  189.2250  176.6020  141.3220 C   0  0  1  0  0  3  0  0  0  0  0  0
  188.7130  177.9360  141.5310 N   0  0  2  0  0  0  0  0  0  0  0  0
  187.6340  177.7260  142.4800 C   0  0  0  0  0  2  0  0  0  0  0  0
  190.5840  177.8840  139.7440 O   0  0  0  0  0  0  0  0  0  0  0  0
  188.9350  177.2110  138.2830 F   0  0  0  0  0  0  0  0  0  0  0  0
  189.3230  178.2080  139.1640 C   0  0  0  0  0  0  0  0  0  0  0  0
  190.5190  176.6860  140.5160 C   0  0  0  0  0  2  0  0  0  0  0  0
  189.3060  175.9650  142.6820 C   0  0  0  0  0  2  0  0  0  0  0  0
  188.0880  176.5670  143.3720 C   0  0  1  0  0  3  0  0  0  0  0  0
  189.4510  179.3870  138.4550 F   0  0  0  0  0  0  0  0  0  0  0  0
  185.3590  178.3240  146.4470 C   0  0  0  0  0  3  0  0  0  0  0  0
  185.7010  178.2520  144.0570 C   0  0  0  0  0  3  0  0  0  0  0  0
  184.0270  178.6960  146.2470 C   0  0  0  0  0  3  0  0  0  0  0  0
  183.5310  178.8450  144.9500 C   0  0  0  0  0  3  0  0  0  0  0  0
  186.2110  178.0990  145.3550 C   0  0  0  0  0  0  0  0  0  0  0  0
  184.3690  178.6230  143.8540 C   0  0  0  0  0  3  0  0  0  0  0  0
  1  3  2  0  0  0  0
  4  3  1  0  0  0  0
  4  2  2  0  0  0  0
  5  4  1  0  0  0  0
  6  7  2  0  0  0  0
  7  2  1  0  0  0  0
  8  5  2  0  0  0  0
  8  6  1  0  0  0  0
  9  5  1  0  0  0  0
  9  1  1  0  0  0  0
 11 17  1  1  0  0  0
 11 12  1  0  0  0  0
 11 18  1  0  0  0  0
 12 10  1  6  0  0  0
 12 13  1  0  0  0  0
 14 17  1  0  0  0  0
 15 16  1  0  0  0  0
 16 14  1  0  0  0  0
 16 10  1  0  0  0  0
 18 19  1  0  0  0  0
 19 13  1  6  0  0  0
 19  9  1  0  0  0  0
 20 16  1  0  0  0  0
 22 25  1  0  0  0  0
 23 21  1  0  0  0  0
 24 23  2  0  0  0  0
 25  1  1  0  0  0  0
 25 21  2  0  0  0  0
 26 22  2  0  0  0  0
 26 24  1  0  0  0  0
M  END
>  <MODEL>
3

>  <REMARK>
 VINA RESULT:      -8.5      1.921      2.693
  Name = 
  2 active torsions:
  status: ('A' for Active; 'I' for Inactive)
    1  A    between atoms: C_1  and  C_19
    2  A    between atoms: C_21  and  N_26
                            x       y       z     vdW  Elec       q    Type
                         _______ _______ _______ _____ _____    ______ ____

>  <TORSDO>
F 2

$$$$
=
 OpenBabel10222416113D

 26 30  0  0  1  0  0  0  0  0999 V2000
  187.7610  177.9890  142.2540 C   0  0  0  0  0  0  0  0  0  0  0  0
  185.3470  179.2910  140.1000 C   0  0  0  0  0  3  0  0  0  0  0  0
  187.4990  178.6230  141.0770 N   0  0  0  0  0  0  0  0  0  0  0  0
  186.1590  178.7220  141.0720 C   0  0  0  0  0  0  0  0  0  0  0  0
  185.6310  178.1730  142.1970 C   0  0  0  0  0  0  0  0  0  0  0  0
  183.4420  178.7320  141.4380 C   0  0  0  0  0  3  0  0  0  0  0  0
  183.9960  179.2800  140.3110 N   0  0  0  0  0  0  0  0  0  0  0  0
  184.2570  178.1540  142.4280 C   0  0  0  0  0  3  0  0  0  0  0  0
  186.6310  177.6980  142.9640 N   0  0  0  0  0  0  0  0  0  0  0  0
  188.7440  177.3140  147.1350 C   0  0  0  0  0  2  0  0  0  0  0  0
  186.5670  177.8130  146.4810 C   0  0  1  0  0  3  0  0  0  0  0  0
  187.9370  177.8050  146.0250 N   0  0  2  0  0  0  0  0  0  0  0  0
  187.9060  176.8680  144.9160 C   0  0  0  0  0  2  0  0  0  0  0  0
  187.6260  179.2730  148.1330 O   0  0  0  0  0  0  0  0  0  0  0  0
  187.7470  177.3000  149.3160 F   0  0  0  0  0  0  0  0  0  0  0  0
  188.4130  178.1190  148.4180 C   0  0  0  0  0  0  0  0  0  0  0  0
  186.3910  178.9300  147.5070 C   0  0  0  0  0  2  0  0  0  0  0  0
  185.7120  177.8760  145.2460 C   0  0  0  0  0  2  0  0  0  0  0  0
  186.5290  177.0390  144.2690 C   0  0  1  0  0  3  0  0  0  0  0  0
  189.6000  178.5240  148.9960 F   0  0  0  0  0  0  0  0  0  0  0  0
  189.6430  176.3710  142.4870 C   0  0  0  0  0  3  0  0  0  0  0  0
  189.9840  178.6350  143.2570 C   0  0  0  0  0  3  0  0  0  0  0  0
  190.9460  176.0430  142.8740 C   0  0  0  0  0  3  0  0  0  0  0  0
  191.7680  177.0110  143.4530 C   0  0  0  0  0  3  0  0  0  0  0  0
  189.1480  177.6710  142.6740 C   0  0  0  0  0  0  0  0  0  0  0  0
  191.2860  178.3090  143.6450 C   0  0  0  0  0  3  0  0  0  0  0  0
  1 25  1  0  0  0  0
  1  9  1  0  0  0  0
  2  7  2  0  0  0  0
  2  4  1  0  0  0  0
  3  1  2  0  0  0  0
  4  3  1  0  0  0  0
  4  5  2  0  0  0  0
  5  8  1  0  0  0  0
  5  9  1  0  0  0  0
  6  8  2  0  0  0  0
  7  6  1  0  0  0  0
 10 16  1  0  0  0  0
 11 18  1  6  0  0  0
 11 17  1  0  0  0  0
 12 13  1  6  0  0  0
 12 11  1  0  0  0  0
 12 10  1  0  0  0  0
 14 16  1  0  0  0  0
 16 20  1  0  0  0  0
 16 15  1  0  0  0  0
 17 14  1  0  0  0  0
 19  9  1  6  0  0  0
 19 13  1  0  0  0  0
 19 18  1  0  0  0  0
 21 25  2  0  0  0  0
 21 23  1  0  0  0  0
 22 26  2  0  0  0  0
 23 24  2  0  0  0  0
 24 26  1  0  0  0  0
 25 22  1  0  0  0  0
M  END
>  <MODEL>
4

>  <REMARK>
 VINA RESULT:      -8.0      3.395      6.628
  Name = 
  2 active torsions:
  status: ('A' for Active; 'I' for Inactive)
    1  A    between atoms: C_1  and  C_19
    2  A    between atoms: C_21  and  N_26
                            x       y       z     vdW  Elec       q    Type
                         _______ _______ _______ _____ _____    ______ ____

>  <TORSDO>
F 2

$$$$
=
 OpenBabel10222416113D

 26 30  0  0  1  0  0  0  0  0999 V2000
  187.8110  177.7430  144.1900 C   0  0  0  0  0  0  0  0  0  0  0  0
  184.4390  178.3300  143.5220 C   0  0  0  0  0  3  0  0  0  0  0  0
  186.5400  177.7970  144.6770 N   0  0  0  0  0  0  0  0  0  0  0  0
  185.8120  178.1360  143.6000 C   0  0  0  0  0  0  0  0  0  0  0  0
  186.6060  178.2810  142.5070 C   0  0  0  0  0  0  0  0  0  0  0  0
  184.6930  178.8250  141.1930 C   0  0  0  0  0  3  0  0  0  0  0  0
  183.9110  178.6730  142.3080 N   0  0  0  0  0  0  0  0  0  0  0  0
  186.0850  178.6310  141.2630 C   0  0  0  0  0  3  0  0  0  0  0  0
  187.8830  178.0380  142.8580 N   0  0  0  0  0  0  0  0  0  0  0  0
  189.7570  176.1420  138.9980 C   0  0  0  0  0  2  0  0  0  0  0  0
  189.4040  178.3330  139.6980 C   0  0  1  0  0  3  0  0  0  0  0  0
  188.9620  176.9720  139.8940 N   0  0  2  0  0  0  0  0  0  0  0  0
  189.2770  176.7250  141.2900 C   0  0  0  0  0  2  0  0  0  0  0  0
  188.7020  177.7300  137.4340 O   0  0  0  0  0  0  0  0  0  0  0  0
  190.9430  177.2360  137.2230 F   0  0  0  0  0  0  0  0  0  0  0  0
  189.7010  176.7210  137.5620 C   0  0  0  0  0  0  0  0  0  0  0  0
  188.9300  178.8170  138.3290 C   0  0  0  0  0  2  0  0  0  0  0  0
  188.9330  179.1060  140.8980 C   0  0  0  0  0  2  0  0  0  0  0  0
  189.0720  178.0650  142.0030 C   0  0  1  0  0  3  0  0  0  0  0  0
  189.4060  175.6920  136.6890 F   0  0  0  0  0  0  0  0  0  0  0  0
  188.7510  177.1920  146.4320 C   0  0  0  0  0  3  0  0  0  0  0  0
  190.2620  177.2620  144.5480 C   0  0  0  0  0  3  0  0  0  0  0  0
  189.8170  176.8640  147.2750 C   0  0  0  0  0  3  0  0  0  0  0  0
  191.1060  176.7350  146.7540 C   0  0  0  0  0  3  0  0  0  0  0  0
  188.9620  177.3940  145.0580 C   0  0  0  0  0  0  0  0  0  0  0  0
  191.3280  176.9340  145.3890 C   0  0  0  0  0  3  0  0  0  0  0  0
  1  3  2  0  0  0  0
  1 25  1  0  0  0  0
  2  4  1  0  0  0  0
  4  3  1  0  0  0  0
  5  9  1  0  0  0  0
  5  4  2  0  0  0  0
  6  8  2  0  0  0  0
  6  7  1  0  0  0  0
  7  2  2  0  0  0  0
  8  5  1  0  0  0  0
  9  1  1  0  0  0  0
 11 17  1  6  0  0  0
 11 12  1  0  0  0  0
 11 18  1  0  0  0  0
 12 10  1  6  0  0  0
 12 13  1  0  0  0  0
 13 19  1  0  0  0  0
 14 16  1  0  0  0  0
 14 17  1  0  0  0  0
 15 16  1  0  0  0  0
 16 10  1  0  0  0  0
 19 18  1  6  0  0  0
 19  9  1  0  0  0  0
 20 16  1  0  0  0  0
 21 23  1  0  0  0  0
 22 25  1  0  0  0  0
 22 26  2  0  0  0  0
 24 23  2  0  0  0  0
 25 21  2  0  0  0  0
 26 24  1  0  0  0  0
M  END
>  <MODEL>
5

>  <REMARK>
 VINA RESULT:      -8.0      2.433      5.419
  Name = 
  2 active torsions:
  status: ('A' for Active; 'I' for Inactive)
    1  A    between atoms: C_1  and  C_19
    2  A    between atoms: C_21  and  N_26
                            x       y       z     vdW  Elec       q    Type
                         _______ _______ _______ _____ _____    ______ ____

>  <TORSDO>
F 2

$$$$
=
 OpenBabel10222416113D

 26 30  0  0  1  0  0  0  0  0999 V2000
  187.5240  178.0040  145.2300 C   0  0  0  0  0  0  0  0  0  0  0  0
  184.3650  179.2580  146.0110 C   0  0  0  0  0  3  0  0  0  0  0  0
  186.7330  178.6200  146.1520 N   0  0  0  0  0  0  0  0  0  0  0  0
  185.5460  178.7110  145.5280 C   0  0  0  0  0  0  0  0  0  0  0  0
  185.6150  178.1740  144.2820 C   0  0  0  0  0  0  0  0  0  0  0  0
  183.3180  178.7040  143.9310 C   0  0  0  0  0  3  0  0  0  0  0  0
  183.2710  179.2400  145.1920 N   0  0  0  0  0  0  0  0  0  0  0  0
  184.5100  178.1480  143.4330 C   0  0  0  0  0  3  0  0  0  0  0  0
  186.8640  177.7200  144.0680 N   0  0  0  0  0  0  0  0  0  0  0  0
  190.1860  178.0270  140.7700 C   0  0  0  0  0  2  0  0  0  0  0  0
  189.5230  176.3360  142.2230 C   0  0  1  0  0  3  0  0  0  0  0  0
  189.4920  177.7660  142.0250 N   0  0  2  0  0  0  0  0  0  0  0  0
  188.0720  178.0520  141.9340 C   0  0  0  0  0  2  0  0  0  0  0  0
  191.9100  176.8460  142.0780 O   0  0  0  0  0  0  0  0  0  0  0  0
  191.5630  176.2810  139.8720 F   0  0  0  0  0  0  0  0  0  0  0  0
  191.5690  177.3270  140.7810 C   0  0  0  0  0  0  0  0  0  0  0  0
  190.9490  175.9110  142.5660 C   0  0  0  0  0  2  0  0  0  0  0  0
  188.4550  176.0290  143.2360 C   0  0  0  0  0  2  0  0  0  0  0  0
  187.3880  177.0550  142.8730 C   0  0  1  0  0  3  0  0  0  0  0  0
  192.5230  178.2430  140.3830 F   0  0  0  0  0  0  0  0  0  0  0  0
  189.2680  176.6420  146.3780 C   0  0  0  0  0  3  0  0  0  0  0  0
  189.9920  178.4360  144.9310 C   0  0  0  0  0  3  0  0  0  0  0  0
  190.6000  176.3310  146.6610 C   0  0  0  0  0  3  0  0  0  0  0  0
  191.6300  177.0730  146.0790 C   0  0  0  0  0  3  0  0  0  0  0  0
  188.9480  177.6980  145.5090 C   0  0  0  0  0  0  0  0  0  0  0  0
  191.3250  178.1270  145.2130 C   0  0  0  0  0  3  0  0  0  0  0  0
  1 25  1  0  0  0  0
  1  3  2  0  0  0  0
  4  2  1  0  0  0  0
  4  3  1  0  0  0  0
  5  4  2  0  0  0  0
  6  7  1  0  0  0  0
  7  2  2  0  0  0  0
  8  6  2  0  0  0  0
  8  5  1  0  0  0  0
  9  5  1  0  0  0  0
  9  1  1  0  0  0  0
 10 16  1  0  0  0  0
 11 17  1  1  0  0  0
 11 18  1  0  0  0  0
 12 10  1  6  0  0  0
 12 11  1  0  0  0  0
 13 12  1  0  0  0  0
 14 17  1  0  0  0  0
 15 16  1  0  0  0  0
 16 14  1  0  0  0  0
 19 13  1  6  0  0  0
 19 18  1  0  0  0  0
 19  9  1  0  0  0  0
 20 16  1  0  0  0  0
 21 23  1  0  0  0  0
 22 26  2  0  0  0  0
 22 25  1  0  0  0  0
 24 23  2  0  0  0  0
 25 21  2  0  0  0  0
 26 24  1  0  0  0  0
M  END
>  <MODEL>
6

>  <REMARK>
 VINA RESULT:      -7.8      1.346      4.497
  Name = 
  2 active torsions:
  status: ('A' for Active; 'I' for Inactive)
    1  A    between atoms: C_1  and  C_19
    2  A    between atoms: C_21  and  N_26
                            x       y       z     vdW  Elec       q    Type
                         _______ _______ _______ _____ _____    ______ ____

>  <TORSDO>
F 2

$$$$
=
 OpenBabel10222416113D

 26 30  0  0  1  0  0  0  0  0999 V2000
  188.2000  177.5940  143.0700 C   0  0  0  0  0  0  0  0  0  0  0  0
  184.8240  178.4340  142.8150 C   0  0  0  0  0  3  0  0  0  0  0  0
  187.0030  177.7330  143.7070 N   0  0  0  0  0  0  0  0  0  0  0  0
  186.1790  178.1400  142.7270 C   0  0  0  0  0  0  0  0  0  0  0  0
  186.8460  178.2440  141.5480 C   0  0  0  0  0  0  0  0  0  0  0  0
  184.8360  178.9440  140.4760 C   0  0  0  0  0  3  0  0  0  0  0  0
  184.1830  178.8320  141.6760 N   0  0  0  0  0  0  0  0  0  0  0  0
  186.2080  178.6490  140.3770 C   0  0  0  0  0  3  0  0  0  0  0  0
  188.1350  177.9030  141.7410 N   0  0  0  0  0  0  0  0  0  0  0  0
  189.3590  175.9930  137.6360 C   0  0  0  0  0  2  0  0  0  0  0  0
  189.2930  178.1790  138.4300 C   0  0  1  0  0  3  0  0  0  0  0  0
  188.7550  176.8560  138.6430 N   0  0  2  0  0  0  0  0  0  0  0  0
  189.2080  176.5310  139.9840 C   0  0  0  0  0  2  0  0  0  0  0  0
  188.2780  177.7230  136.2520 O   0  0  0  0  0  0  0  0  0  0  0  0
  190.4230  177.0430  135.7600 F   0  0  0  0  0  0  0  0  0  0  0  0
  189.1880  176.6270  136.2320 C   0  0  0  0  0  0  0  0  0  0  0  0
  188.7080  178.7530  137.1420 C   0  0  0  0  0  2  0  0  0  0  0  0
  189.0390  178.9460  139.6980 C   0  0  0  0  0  2  0  0  0  0  0  0
  189.2120  177.8570  140.7500 C   0  0  1  0  0  3  0  0  0  0  0  0
  188.6990  175.6600  135.3750 F   0  0  0  0  0  0  0  0  0  0  0  0
  189.6650  177.6340  145.0870 C   0  0  0  0  0  3  0  0  0  0  0  0
  190.3350  176.2580  143.2190 C   0  0  0  0  0  3  0  0  0  0  0  0
  190.8040  177.2340  145.7910 C   0  0  0  0  0  3  0  0  0  0  0  0
  191.7090  176.3450  145.2080 C   0  0  0  0  0  3  0  0  0  0  0  0
  189.4170  177.1500  143.7930 C   0  0  0  0  0  0  0  0  0  0  0  0
  191.4740  175.8570  143.9210 C   0  0  0  0  0  3  0  0  0  0  0  0
  1  3  2  0  0  0  0
  1 25  1  0  0  0  0
  4  2  1  0  0  0  0
  4  3  1  0  0  0  0
  5  9  1  0  0  0  0
  5  4  2  0  0  0  0
  6  7  1  0  0  0  0
  7  2  2  0  0  0  0
  8  6  2  0  0  0  0
  8  5  1  0  0  0  0
  9  1  1  0  0  0  0
 11 17  1  6  0  0  0
 11 12  1  0  0  0  0
 11 18  1  0  0  0  0
 12 10  1  6  0  0  0
 12 13  1  0  0  0  0
 13 19  1  0  0  0  0
 14 17  1  0  0  0  0
 15 16  1  0  0  0  0
 16 14  1  0  0  0  0
 16 10  1  0  0  0  0
 19 18  1  6  0  0  0
 19  9  1  0  0  0  0
 20 16  1  0  0  0  0
 21 23  1  0  0  0  0
 22 25  1  0  0  0  0
 22 26  2  0  0  0  0
 24 23  2  0  0  0  0
 25 21  2  0  0  0  0
 26 24  1  0  0  0  0
M  END
>  <MODEL>
7

>  <REMARK>
 VINA RESULT:      -7.7      3.087      6.054
  Name = 
  2 active torsions:
  status: ('A' for Active; 'I' for Inactive)
    1  A    between atoms: C_1  and  C_19
    2  A    between atoms: C_21  and  N_26
                            x       y       z     vdW  Elec       q    Type
                         _______ _______ _______ _____ _____    ______ ____

>  <TORSDO>
F 2

$$$$
=
 OpenBabel10222416113D

 26 30  0  0  1  0  0  0  0  0999 V2000
  185.5170  178.3470  143.5670 C   0  0  0  0  0  0  0  0  0  0  0  0
  182.8920  178.3180  141.2710 C   0  0  0  0  0  3  0  0  0  0  0  0
  184.1730  178.2520  143.3660 N   0  0  0  0  0  0  0  0  0  0  0  0
  184.0540  178.3530  142.0310 C   0  0  0  0  0  0  0  0  0  0  0  0
  185.2720  178.5020  141.4490 C   0  0  0  0  0  0  0  0  0  0  0  0
  184.2330  178.5910  139.3050 C   0  0  0  0  0  3  0  0  0  0  0  0
  183.0140  178.4390  139.9140 N   0  0  0  0  0  0  0  0  0  0  0  0
  185.4140  178.6280  140.0680 C   0  0  0  0  0  3  0  0  0  0  0  0
  186.2190  178.5040  142.4060 N   0  0  0  0  0  0  0  0  0  0  0  0
  189.9610  176.3670  140.5510 C   0  0  0  0  0  2  0  0  0  0  0  0
  189.0990  178.5220  140.3830 C   0  0  1  0  0  3  0  0  0  0  0  0
  188.7470  177.1590  140.7080 N   0  0  2  0  0  0  0  0  0  0  0  0
  188.3310  177.2520  142.0960 C   0  0  0  0  0  2  0  0  0  0  0  0
  189.7040  177.3690  138.3120 O   0  0  0  0  0  0  0  0  0  0  0  0
  191.7750  177.3380  139.3190 F   0  0  0  0  0  0  0  0  0  0  0  0
  190.5880  176.6410  139.1600 C   0  0  0  0  0  0  0  0  0  0  0  0
  189.3430  178.6270  138.8790 C   0  0  0  0  0  2  0  0  0  0  0  0
  188.0140  179.3860  140.9620 C   0  0  0  0  0  2  0  0  0  0  0  0
  187.6690  178.6250  142.2380 C   0  0  1  0  0  3  0  0  0  0  0  0
  190.8740  175.4270  138.5650 F   0  0  0  0  0  0  0  0  0  0  0  0
  185.5180  179.0190  145.9680 C   0  0  0  0  0  3  0  0  0  0  0  0
  187.2380  177.5020  145.2070 C   0  0  0  0  0  3  0  0  0  0  0  0
  186.0510  178.9770  147.2590 C   0  0  0  0  0  3  0  0  0  0  0  0
  187.1790  178.1970  147.5250 C   0  0  0  0  0  3  0  0  0  0  0  0
  186.1050  178.2810  144.9270 C   0  0  0  0  0  0  0  0  0  0  0  0
  187.7720  177.4590  146.4970 C   0  0  0  0  0  3  0  0  0  0  0  0
  1 25  1  0  0  0  0
  2  4  1  0  0  0  0
  3  1  2  0  0  0  0
  4  3  1  0  0  0  0
  5  4  2  0  0  0  0
  5  9  1  0  0  0  0
  6  7  1  0  0  0  0
  6  8  2  0  0  0  0
  7  2  2  0  0  0  0
  8  5  1  0  0  0  0
  9  1  1  0  0  0  0
 11 17  1  6  0  0  0
 11 12  1  0  0  0  0
 11 18  1  0  0  0  0
 12 10  1  1  0  0  0
 12 13  1  0  0  0  0
 13 19  1  0  0  0  0
 14 17  1  0  0  0  0
 14 16  1  0  0  0  0
 16 15  1  0  0  0  0
 16 10  1  0  0  0  0
 19 18  1  6  0  0  0
 19  9  1  0  0  0  0
 20 16  1  0  0  0  0
 21 23  1  0  0  0  0
 22 26  2  0  0  0  0
 23 24  2  0  0  0  0
 25 22  1  0  0  0  0
 25 21  2  0  0  0  0
 26 24  1  0  0  0  0
M  END
>  <MODEL>
8

>  <REMARK>
 VINA RESULT:      -7.6      2.226      4.923
  Name = 
  2 active torsions:
  status: ('A' for Active; 'I' for Inactive)
    1  A    between atoms: C_1  and  C_19
    2  A    between atoms: C_21  and  N_26
                            x       y       z     vdW  Elec       q    Type
                         _______ _______ _______ _____ _____    ______ ____

>  <TORSDO>
F 2

$$$$
=
 OpenBabel10222416113D

 26 30  0  0  1  0  0  0  0  0999 V2000
  187.5010  177.8300  144.9860 C   0  0  0  0  0  0  0  0  0  0  0  0
  189.6670  176.4950  147.3720 C   0  0  0  0  0  3  0  0  0  0  0  0
  187.6410  177.2760  146.2230 N   0  0  0  0  0  0  0  0  0  0  0  0
  188.9630  177.0510  146.3110 C   0  0  0  0  0  0  0  0  0  0  0  0
  189.5970  177.4500  145.1780 C   0  0  0  0  0  0  0  0  0  0  0  0
  191.6810  176.7580  146.1040 C   0  0  0  0  0  3  0  0  0  0  0  0
  191.0210  176.3620  147.2380 N   0  0  0  0  0  0  0  0  0  0  0  0
  190.9760  177.3220  145.0250 C   0  0  0  0  0  3  0  0  0  0  0  0
  188.6880  177.9480  144.3180 N   0  0  0  0  0  0  0  0  0  0  0  0
  191.6350  177.8130  140.6710 C   0  0  0  0  0  2  0  0  0  0  0  0
  189.3320  177.5550  140.8810 C   0  0  1  0  0  3  0  0  0  0  0  0
  190.5740  177.4840  141.6150 N   0  0  2  0  0  0  0  0  0  0  0  0
  190.4110  178.5070  142.6320 C   0  0  0  0  0  2  0  0  0  0  0  0
  190.5550  175.8820  139.5820 O   0  0  0  0  0  0  0  0  0  0  0  0
  191.1110  177.7360  138.3320 F   0  0  0  0  0  0  0  0  0  0  0  0
  191.4940  176.9390  139.4000 C   0  0  0  0  0  0  0  0  0  0  0  0
  189.2580  176.3780  139.9120 C   0  0  0  0  0  2  0  0  0  0  0  0
  188.2410  177.6640  141.9100 C   0  0  0  0  0  2  0  0  0  0  0  0
  188.9210  178.5050  142.9840 C   0  0  1  0  0  3  0  0  0  0  0  0
  192.7280  176.3900  139.1100 F   0  0  0  0  0  0  0  0  0  0  0  0
  185.8010  177.8760  143.1640 C   0  0  0  0  0  3  0  0  0  0  0  0
  185.2800  178.9990  145.2380 C   0  0  0  0  0  3  0  0  0  0  0  0
  184.5580  178.2540  142.6470 C   0  0  0  0  0  3  0  0  0  0  0  0
  183.6760  179.0050  143.4260 C   0  0  0  0  0  3  0  0  0  0  0  0
  186.1750  178.2440  144.4660 C   0  0  0  0  0  0  0  0  0  0  0  0
  184.0380  179.3780  144.7230 C   0  0  0  0  0  3  0  0  0  0  0  0
  1  3  2  0  0  0  0
  3  4  1  0  0  0  0
  4  2  2  0  0  0  0
  5  4  1  0  0  0  0
  6  7  2  0  0  0  0
  7  2  1  0  0  0  0
  8  5  2  0  0  0  0
  8  6  1  0  0  0  0
  9  1  1  0  0  0  0
  9  5  1  0  0  0  0
 11 17  1  1  0  0  0
 11 12  1  0  0  0  0
 11 18  1  0  0  0  0
 12 10  1  6  0  0  0
 12 13  1  0  0  0  0
 13 19  1  0  0  0  0
 14 17  1  0  0  0  0
 15 16  1  0  0  0  0
 16 14  1  0  0  0  0
 16 10  1  0  0  0  0
 19 18  1  6  0  0  0
 19  9  1  0  0  0  0
 20 16  1  0  0  0  0
 21 25  1  0  0  0  0
 23 21  2  0  0  0  0
 23 24  1  0  0  0  0
 24 26  2  0  0  0  0
 25  1  1  0  0  0  0
 25 22  2  0  0  0  0
 26 22  1  0  0  0  0
M  END
>  <MODEL>
9

>  <REMARK>
 VINA RESULT:      -7.6      1.858      2.666
  Name = 
  2 active torsions:
  status: ('A' for Active; 'I' for Inactive)
    1  A    between atoms: C_1  and  C_19
    2  A    between atoms: C_21  and  N_26
                            x       y       z     vdW  Elec       q    Type
                         _______ _______ _______ _____ _____    ______ ____

>  <TORSDO>
F 2

$$$$
