=
 OpenBabel10222419193D

 35 39  0  0  1  0  0  0  0  0999 V2000
  185.1450  178.4930  140.9550 C   0  0  0  0  0  0  0  0  0  0  0  0
  184.5630  178.2960  143.6720 C   0  0  0  0  0  0  0  0  0  0  0  0
  185.3510  178.7620  139.4880 C   0  0  0  0  0  2  0  0  0  0  0  0
  182.2230  180.7020  138.9400 N   0  0  0  0  0  0  0  0  0  0  0  0
  185.9150  178.4420  143.2640 C   0  0  0  0  0  0  0  0  0  0  0  0
  182.4900  178.2320  140.2200 S   0  0  0  0  0  0  0  0  0  0  0  0
  181.9200  182.0240  138.3190 C   0  0  0  0  0  2  0  0  0  0  0  0
  183.1130  179.6550  139.3040 C   0  0  0  0  0  0  0  0  0  0  0  0
  180.8710  181.3300  138.8830 C   0  0  0  0  0  2  0  0  0  0  0  0
  183.5760  178.2440  142.7390 N   0  0  0  0  0  0  0  0  0  0  0  0
  184.3810  179.7590  139.0340 N   0  0  0  0  0  0  0  0  0  0  0  0
  186.1980  178.5360  141.8840 C   0  0  0  0  0  0  0  0  0  0  0  0
  183.8340  178.3160  141.4110 C   0  0  0  0  0  0  0  0  0  0  0  0
  184.1510  178.2650  145.1050 C   0  0  0  0  0  2  0  0  0  0  0  0
  183.3250  179.3540  145.3810 O   0  0  0  0  0  1  0  0  0  0  0  0
  187.0140  178.5140  144.1910 N   0  0  0  0  0  2  0  0  0  0  0  0
  187.4670  177.4570  145.0800 C   0  0  0  0  0  2  0  0  0  0  0  0
  188.1640  178.1530  148.7080 C   0  0  0  0  0  1  0  0  0  0  0  0
  188.3050  177.6250  147.3230 C   0  0  0  0  0  0  0  0  0  0  0  0
  189.4850  176.7600  147.0000 C   0  0  0  0  0  1  0  0  0  0  0  0
  187.4120  177.9230  146.4430 N   0  0  0  0  0  0  0  0  0  0  0  0
  187.6230  178.6940  141.4190 C   0  0  0  0  0  2  0  0  0  0  0  0
  188.2930  177.3740  141.0020 C   0  0  2  0  0  3  0  0  0  0  0  0
  190.1010  178.3370  142.4920 C   0  0  0  0  0  2  0  0  0  0  0  0
  189.5820  177.0680  141.7930 C   0  0  1  0  0  3  0  0  0  0  0  0
  190.6500  175.5870  143.1030 C   0  0  0  0  0  2  0  0  0  0  0  0
  191.8890  179.3100  144.2870 Cl  0  0  0  0  0  0  0  0  0  0  0  0
  191.4720  176.6650  143.8300 C   0  0  0  0  0  2  0  0  0  0  0  0
  190.7540  178.0170  143.8390 C   0  0  2  0  0  3  0  0  0  0  0  0
  189.3710  176.0530  142.7440 O   0  0  0  0  0  0  0  0  0  0  0  0
  189.7320  178.4460  137.9140 C   0  0  0  0  0  2  0  0  0  0  0  0
  190.1070  176.9880  137.9040 C   0  0  0  0  0  2  0  0  0  0  0  0
  188.5610  178.5520  138.8710 C   0  0  0  0  0  2  0  0  0  0  0  0
  188.3900  177.2570  139.5340 N   0  0  0  0  0  0  0  0  0  0  0  0
  189.5520  176.4480  139.1980 C   0  0  0  0  0  2  0  0  0  0  0  0
  1 13  2  0  0  0  0
  1 12  1  0  0  0  0
  2 14  1  0  0  0  0
  3  1  1  0  0  0  0
  4  8  1  0  0  0  0
  5  2  1  0  0  0  0
  5 16  1  0  0  0  0
  6 13  1  0  0  0  0
  7  9  1  0  0  0  0
  7  4  1  0  0  0  0
  8  6  1  0  0  0  0
  9  4  1  0  0  0  0
 10  2  2  0  0  0  0
 11  8  2  0  0  0  0
 11  3  1  0  0  0  0
 12  5  2  0  0  0  0
 13 10  1  0  0  0  0
 14 15  1  0  0  0  0
 16 17  1  0  0  0  0
 17 21  1  0  0  0  0
 19 18  1  0  0  0  0
 20 19  1  0  0  0  0
 21 19  2  0  0  0  0
 22 12  1  0  0  0  0
 23 22  1  6  0  0  0
 24 29  1  0  0  0  0
 25 23  1  1  0  0  0
 25 24  1  0  0  0  0
 25 30  1  0  0  0  0
 26 28  1  0  0  0  0
 28 29  1  0  0  0  0
 29 27  1  6  0  0  0
 30 26  1  0  0  0  0
 31 33  1  0  0  0  0
 32 31  1  0  0  0  0
 32 35  1  0  0  0  0
 33 34  1  0  0  0  0
 34 23  1  0  0  0  0
 35 34  1  0  0  0  0
M  END
>  <MODEL>
1

>  <REMARK>
 VINA RESULT:      -7.9      0.000      0.000
  Name = 
  8 active torsions:
  status: ('A' for Active; 'I' for Inactive)
    1  A    between atoms: CA_4  and  C_10
    2  A    between atoms: C_5  and  C_18
    3  A    between atoms: C_8  and  N_25
    4  A    between atoms: C_18  and  N_27
    5  A    between atoms: C_18  and  C_28
    6  A    between atoms: N_22  and  C_35
    7  A    between atoms: N_25  and  C_35
    8  A    between atoms: C_28  and  C_32
                            x       y       z     vdW  Elec       q    Type
                         _______ _______ _______ _____ _____    ______ ____

>  <TORSDO>
F 8

$$$$
=
 OpenBabel10222419193D

 35 39  0  0  1  0  0  0  0  0999 V2000
  189.3580  176.7190  139.2000 C   0  0  0  0  0  0  0  0  0  0  0  0
  187.1360  177.1540  137.5770 C   0  0  0  0  0  0  0  0  0  0  0  0
  190.6650  176.5530  139.9270 C   0  0  0  0  0  2  0  0  0  0  0  0
  192.8210  176.2080  136.9130 N   0  0  0  0  0  0  0  0  0  0  0  0
  187.2410  177.8550  138.8080 C   0  0  0  0  0  0  0  0  0  0  0  0
  190.4390  174.8530  137.4660 S   0  0  0  0  0  0  0  0  0  0  0  0
  194.0790  176.8690  136.4590 C   0  0  0  0  0  2  0  0  0  0  0  0
  191.7820  175.9900  137.8600 C   0  0  0  0  0  0  0  0  0  0  0  0
  193.4960  175.9550  135.6070 C   0  0  0  0  0  2  0  0  0  0  0  0
  188.1080  176.2770  137.2120 N   0  0  0  0  0  0  0  0  0  0  0  0
  191.7710  176.6590  138.9750 N   0  0  0  0  0  0  0  0  0  0  0  0
  188.3690  177.6220  139.6230 C   0  0  0  0  0  0  0  0  0  0  0  0
  189.1880  176.0320  137.9930 C   0  0  0  0  0  0  0  0  0  0  0  0
  186.0250  177.3840  136.6100 C   0  0  0  0  0  2  0  0  0  0  0  0
  186.5390  177.8820  135.4130 O   0  0  0  0  0  1  0  0  0  0  0  0
  186.2580  178.8060  139.2590 N   0  0  0  0  0  2  0  0  0  0  0  0
  184.8170  178.6200  139.2730 C   0  0  0  0  0  2  0  0  0  0  0  0
  182.3200  181.3520  138.6220 C   0  0  0  0  0  1  0  0  0  0  0  0
  182.9000  180.0000  138.8500 C   0  0  0  0  0  0  0  0  0  0  0  0
  181.9850  178.8140  138.8440 C   0  0  0  0  0  1  0  0  0  0  0  0
  184.1680  179.8860  139.0440 N   0  0  0  0  0  0  0  0  0  0  0  0
  188.5110  178.3540  140.9340 C   0  0  0  0  0  2  0  0  0  0  0  0
  188.0960  177.5220  142.1600 C   0  0  2  0  0  3  0  0  0  0  0  0
  186.5980  177.6640  144.1970 C   0  0  0  0  0  2  0  0  0  0  0  0
  186.6800  177.8600  142.6730 C   0  0  1  0  0  3  0  0  0  0  0  0
  184.9170  179.2400  142.4840 C   0  0  0  0  0  2  0  0  0  0  0  0
  185.0700  178.0580  146.4050 Cl  0  0  0  0  0  0  0  0  0  0  0  0
  184.4800  179.0500  143.9470 C   0  0  0  0  0  2  0  0  0  0  0  0
  185.6600  178.6840  144.8500 C   0  0  2  0  0  3  0  0  0  0  0  0
  186.3170  179.1780  142.3410 O   0  0  0  0  0  0  0  0  0  0  0  0
  191.3400  176.4370  143.1870 C   0  0  0  0  0  2  0  0  0  0  0  0
  191.5040  177.9300  143.2820 C   0  0  0  0  0  2  0  0  0  0  0  0
  189.8460  176.1930  143.2440 C   0  0  0  0  0  2  0  0  0  0  0  0
  189.1640  177.4880  143.1770 N   0  0  0  0  0  0  0  0  0  0  0  0
  190.1710  178.4830  142.8410 C   0  0  0  0  0  2  0  0  0  0  0  0
  1 12  1  0  0  0  0
  1  3  1  0  0  0  0
  2  5  1  0  0  0  0
  4  8  1  0  0  0  0
  5 16  1  0  0  0  0
  5 12  2  0  0  0  0
  6  8  1  0  0  0  0
  6 13  1  0  0  0  0
  7  4  1  0  0  0  0
  8 11  2  0  0  0  0
  9  7  1  0  0  0  0
  9  4  1  0  0  0  0
 10  2  2  0  0  0  0
 10 13  1  0  0  0  0
 11  3  1  0  0  0  0
 12 22  1  0  0  0  0
 13  1  2  0  0  0  0
 14  2  1  0  0  0  0
 15 14  1  0  0  0  0
 16 17  1  0  0  0  0
 18 19  1  0  0  0  0
 19 21  2  0  0  0  0
 20 19  1  0  0  0  0
 21 17  1  0  0  0  0
 23 22  1  6  0  0  0
 23 34  1  0  0  0  0
 24 29  1  0  0  0  0
 25 23  1  1  0  0  0
 25 24  1  0  0  0  0
 26 28  1  0  0  0  0
 28 29  1  0  0  0  0
 29 27  1  1  0  0  0
 30 26  1  0  0  0  0
 30 25  1  0  0  0  0
 31 33  1  0  0  0  0
 31 32  1  0  0  0  0
 34 33  1  0  0  0  0
 35 34  1  0  0  0  0
 35 32  1  0  0  0  0
M  END
>  <MODEL>
2

>  <REMARK>
 VINA RESULT:      -7.1      3.187      7.640
  Name = 
  8 active torsions:
  status: ('A' for Active; 'I' for Inactive)
    1  A    between atoms: CA_4  and  C_10
    2  A    between atoms: C_5  and  C_18
    3  A    between atoms: C_8  and  N_25
    4  A    between atoms: C_18  and  N_27
    5  A    between atoms: C_18  and  C_28
    6  A    between atoms: N_22  and  C_35
    7  A    between atoms: N_25  and  C_35
    8  A    between atoms: C_28  and  C_32
                            x       y       z     vdW  Elec       q    Type
                         _______ _______ _______ _____ _____    ______ ____

>  <TORSDO>
F 8

$$$$
=
 OpenBabel10222419193D

 35 39  0  0  1  0  0  0  0  0999 V2000
  188.3900  177.9730  139.9900 C   0  0  0  0  0  0  0  0  0  0  0  0
  190.1110  176.8900  141.8950 C   0  0  0  0  0  0  0  0  0  0  0  0
  187.4290  178.3730  138.9030 C   0  0  0  0  0  2  0  0  0  0  0  0
  187.9650  175.4150  136.7100 N   0  0  0  0  0  0  0  0  0  0  0  0
  188.9740  177.6220  142.3270 C   0  0  0  0  0  0  0  0  0  0  0  0
  189.9140  177.0450  137.8750 S   0  0  0  0  0  0  0  0  0  0  0  0
  187.0520  174.4370  136.0500 C   0  0  0  0  0  2  0  0  0  0  0  0
  188.2160  176.5720  137.4980 C   0  0  0  0  0  0  0  0  0  0  0  0
  188.4090  174.2380  135.9080 C   0  0  0  0  0  2  0  0  0  0  0  0
  190.3520  176.7360  140.5660 N   0  0  0  0  0  0  0  0  0  0  0  0
  187.2200  177.2440  137.9960 N   0  0  0  0  0  0  0  0  0  0  0  0
  188.1120  178.1700  141.3520 C   0  0  0  0  0  0  0  0  0  0  0  0
  189.5420  177.2710  139.6190 C   0  0  0  0  0  0  0  0  0  0  0  0
  191.0400  176.2080  142.8410 C   0  0  0  0  0  2  0  0  0  0  0  0
  190.5840  174.9150  143.0970 O   0  0  0  0  0  1  0  0  0  0  0  0
  188.6460  177.8210  143.7150 N   0  0  0  0  0  2  0  0  0  0  0  0
  189.5710  178.1720  144.7810 C   0  0  0  0  0  2  0  0  0  0  0  0
  188.5020  177.6300  148.3430 C   0  0  0  0  0  1  0  0  0  0  0  0
  189.2970  177.5630  147.0860 C   0  0  0  0  0  0  0  0  0  0  0  0
  190.5700  176.7740  147.0810 C   0  0  0  0  0  1  0  0  0  0  0  0
  188.8690  178.1810  146.0390 N   0  0  0  0  0  0  0  0  0  0  0  0
  186.8940  178.9490  141.7810 C   0  0  0  0  0  2  0  0  0  0  0  0
  185.6020  178.1140  141.8170 C   0  0  2  0  0  3  0  0  0  0  0  0
  183.2920  177.7750  140.8350 C   0  0  0  0  0  2  0  0  0  0  0  0
  184.7050  178.3260  140.5790 C   0  0  1  0  0  3  0  0  0  0  0  0
  184.1500  179.7190  138.9050 C   0  0  0  0  0  2  0  0  0  0  0  0
  180.7560  177.6410  139.8790 Cl  0  0  0  0  0  0  0  0  0  0  0  0
  182.7100  179.1890  138.8030 C   0  0  0  0  0  2  0  0  0  0  0  0
  182.2200  178.6150  140.1340 C   0  0  2  0  0  3  0  0  0  0  0  0
  184.6300  179.6870  140.2280 O   0  0  0  0  0  0  0  0  0  0  0  0
  185.8050  178.5390  145.3580 C   0  0  0  0  0  2  0  0  0  0  0  0
  184.9250  179.7030  144.9890 C   0  0  0  0  0  2  0  0  0  0  0  0
  185.6860  177.5640  144.2030 C   0  0  0  0  0  2  0  0  0  0  0  0
  184.9320  178.2130  143.1280 N   0  0  0  0  0  0  0  0  0  0  0  0
  184.7980  179.6170  143.4880 C   0  0  0  0  0  2  0  0  0  0  0  0
  1 12  1  0  0  0  0
  2  5  1  0  0  0  0
  2 14  1  0  0  0  0
  3  1  1  0  0  0  0
  4  8  1  0  0  0  0
  5 16  1  0  0  0  0
  6 13  1  0  0  0  0
  7  4  1  0  0  0  0
  8  6  1  0  0  0  0
  8 11  2  0  0  0  0
  9  7  1  0  0  0  0
  9  4  1  0  0  0  0
 10  2  2  0  0  0  0
 11  3  1  0  0  0  0
 12 22  1  0  0  0  0
 12  5  2  0  0  0  0
 13  1  2  0  0  0  0
 13 10  1  0  0  0  0
 14 15  1  0  0  0  0
 16 17  1  0  0  0  0
 17 21  1  0  0  0  0
 19 18  1  0  0  0  0
 20 19  1  0  0  0  0
 21 19  2  0  0  0  0
 23 22  1  1  0  0  0
 23 34  1  0  0  0  0
 25 24  1  0  0  0  0
 25 23  1  1  0  0  0
 26 30  1  0  0  0  0
 28 26  1  0  0  0  0
 28 29  1  0  0  0  0
 29 27  1  6  0  0  0
 29 24  1  0  0  0  0
 30 25  1  0  0  0  0
 32 31  1  0  0  0  0
 33 31  1  0  0  0  0
 34 35  1  0  0  0  0
 34 33  1  0  0  0  0
 35 32  1  0  0  0  0
M  END
>  <MODEL>
3

>  <REMARK>
 VINA RESULT:      -6.9      3.156      6.564
  Name = 
  8 active torsions:
  status: ('A' for Active; 'I' for Inactive)
    1  A    between atoms: CA_4  and  C_10
    2  A    between atoms: C_5  and  C_18
    3  A    between atoms: C_8  and  N_25
    4  A    between atoms: C_18  and  N_27
    5  A    between atoms: C_18  and  C_28
    6  A    between atoms: N_22  and  C_35
    7  A    between atoms: N_25  and  C_35
    8  A    between atoms: C_28  and  C_32
                            x       y       z     vdW  Elec       q    Type
                         _______ _______ _______ _____ _____    ______ ____

>  <TORSDO>
F 8

$$$$
=
 OpenBabel10222419193D

 35 39  0  0  1  0  0  0  0  0999 V2000
  183.2470  176.8120  137.7540 C   0  0  0  0  0  0  0  0  0  0  0  0
  185.7560  178.0120  137.9060 C   0  0  0  0  0  0  0  0  0  0  0  0
  181.9850  175.9930  137.6960 C   0  0  0  0  0  2  0  0  0  0  0  0
  183.5510  172.8300  136.5140 N   0  0  0  0  0  0  0  0  0  0  0  0
  184.7730  178.3400  138.8770 C   0  0  0  0  0  0  0  0  0  0  0  0
  183.9030  175.3980  135.4670 S   0  0  0  0  0  0  0  0  0  0  0  0
  183.4950  171.4130  136.9740 C   0  0  0  0  0  2  0  0  0  0  0  0
  183.1630  174.1960  136.5890 C   0  0  0  0  0  0  0  0  0  0  0  0
  184.3280  171.7060  135.9150 C   0  0  0  0  0  2  0  0  0  0  0  0
  185.4610  177.1310  136.9150 N   0  0  0  0  0  0  0  0  0  0  0  0
  182.3270  174.5820  137.5080 N   0  0  0  0  0  0  0  0  0  0  0  0
  183.5040  177.7290  138.7860 C   0  0  0  0  0  0  0  0  0  0  0  0
  184.2420  176.5490  136.8050 C   0  0  0  0  0  0  0  0  0  0  0  0
  187.1490  178.5430  137.9570 C   0  0  0  0  0  2  0  0  0  0  0  0
  187.3860  179.3480  136.8430 O   0  0  0  0  0  1  0  0  0  0  0  0
  185.0120  179.2570  139.9610 N   0  0  0  0  0  2  0  0  0  0  0  0
  185.5840  178.9320  141.2580 C   0  0  0  0  0  2  0  0  0  0  0  0
  183.6410  178.8850  144.4740 C   0  0  0  0  0  1  0  0  0  0  0  0
  184.7380  178.6790  143.4890 C   0  0  0  0  0  0  0  0  0  0  0  0
  185.9930  177.9980  143.9420 C   0  0  0  0  0  1  0  0  0  0  0  0
  184.5790  179.0890  142.2780 N   0  0  0  0  0  0  0  0  0  0  0  0
  182.4400  178.0540  139.8040 C   0  0  0  0  0  2  0  0  0  0  0  0
  181.6890  179.3660  139.5220 C   0  0  2  0  0  3  0  0  0  0  0  0
  180.7310  178.8500  141.8090 C   0  0  0  0  0  2  0  0  0  0  0  0
  180.5160  179.6170  140.4940 C   0  0  1  0  0  3  0  0  0  0  0  0
  179.0660  181.1330  141.3020 C   0  0  0  0  0  2  0  0  0  0  0  0
  179.8350  178.5000  144.3470 Cl  0  0  0  0  0  0  0  0  0  0  0  0
  178.9310  180.4300  142.6630 C   0  0  0  0  0  2  0  0  0  0  0  0
  180.1830  179.6220  143.0120 C   0  0  2  0  0  3  0  0  0  0  0  0
  180.3590  180.9900  140.7620 O   0  0  0  0  0  0  0  0  0  0  0  0
  179.3790  180.2170  136.9340 C   0  0  0  0  0  2  0  0  0  0  0  0
  180.4880  181.1930  136.6480 C   0  0  0  0  0  2  0  0  0  0  0  0
  180.0180  179.1100  137.7480 C   0  0  0  0  0  2  0  0  0  0  0  0
  181.3850  179.5170  138.0860 N   0  0  0  0  0  0  0  0  0  0  0  0
  181.5160  180.9190  137.7180 C   0  0  0  0  0  2  0  0  0  0  0  0
  1 12  1  0  0  0  0
  2 14  1  0  0  0  0
  2  5  1  0  0  0  0
  3  1  1  0  0  0  0
  4  8  1  0  0  0  0
  4  7  1  0  0  0  0
  5 16  1  0  0  0  0
  6  8  1  0  0  0  0
  6 13  1  0  0  0  0
  8 11  2  0  0  0  0
  9  4  1  0  0  0  0
  9  7  1  0  0  0  0
 10  2  2  0  0  0  0
 11  3  1  0  0  0  0
 12  5  2  0  0  0  0
 12 22  1  0  0  0  0
 13 10  1  0  0  0  0
 13  1  2  0  0  0  0
 15 14  1  0  0  0  0
 16 17  1  0  0  0  0
 17 21  1  0  0  0  0
 19 20  1  0  0  0  0
 19 18  1  0  0  0  0
 21 19  2  0  0  0  0
 23 22  1  6  0  0  0
 24 29  1  0  0  0  0
 25 23  1  6  0  0  0
 25 30  1  0  0  0  0
 25 24  1  0  0  0  0
 26 28  1  0  0  0  0
 28 29  1  0  0  0  0
 29 27  1  1  0  0  0
 30 26  1  0  0  0  0
 31 33  1  0  0  0  0
 32 31  1  0  0  0  0
 32 35  1  0  0  0  0
 33 34  1  0  0  0  0
 34 23  1  0  0  0  0
 35 34  1  0  0  0  0
M  END
>  <MODEL>
4

>  <REMARK>
 VINA RESULT:      -6.4      4.363      8.103
  Name = 
  8 active torsions:
  status: ('A' for Active; 'I' for Inactive)
    1  A    between atoms: CA_4  and  C_10
    2  A    between atoms: C_5  and  C_18
    3  A    between atoms: C_8  and  N_25
    4  A    between atoms: C_18  and  N_27
    5  A    between atoms: C_18  and  C_28
    6  A    between atoms: N_22  and  C_35
    7  A    between atoms: N_25  and  C_35
    8  A    between atoms: C_28  and  C_32
                            x       y       z     vdW  Elec       q    Type
                         _______ _______ _______ _____ _____    ______ ____

>  <TORSDO>
F 8

$$$$
=
 OpenBabel10222419193D

 35 39  0  0  1  0  0  0  0  0999 V2000
  190.6730  176.1730  138.5050 C   0  0  0  0  0  0  0  0  0  0  0  0
  188.3730  175.7220  137.0000 C   0  0  0  0  0  0  0  0  0  0  0  0
  191.9940  176.4890  139.1540 C   0  0  0  0  0  2  0  0  0  0  0  0
  194.0690  176.3100  136.0700 N   0  0  0  0  0  0  0  0  0  0  0  0
  188.3090  176.6010  138.1130 C   0  0  0  0  0  0  0  0  0  0  0  0
  192.1920  174.4440  136.9690 S   0  0  0  0  0  0  0  0  0  0  0  0
  195.0710  177.2190  135.4430 C   0  0  0  0  0  2  0  0  0  0  0  0
  193.1640  175.9550  137.1090 C   0  0  0  0  0  0  0  0  0  0  0  0
  194.7500  176.0610  134.7660 C   0  0  0  0  0  2  0  0  0  0  0  0
  189.5440  175.1060  136.6900 N   0  0  0  0  0  0  0  0  0  0  0  0
  192.9940  176.7550  138.1200 N   0  0  0  0  0  0  0  0  0  0  0  0
  189.4800  176.8180  138.8710 C   0  0  0  0  0  0  0  0  0  0  0  0
  190.6720  175.2920  137.4180 C   0  0  0  0  0  0  0  0  0  0  0  0
  187.2150  175.4850  136.0910 C   0  0  0  0  0  2  0  0  0  0  0  0
  187.6270  174.7330  134.9910 O   0  0  0  0  0  1  0  0  0  0  0  0
  187.1090  177.2970  138.4990 N   0  0  0  0  0  2  0  0  0  0  0  0
  186.3970  178.2930  137.7170 C   0  0  0  0  0  2  0  0  0  0  0  0
  182.8040  178.5350  138.7920 C   0  0  0  0  0  1  0  0  0  0  0  0
  184.0260  178.1240  138.0480 C   0  0  0  0  0  0  0  0  0  0  0  0
  183.8910  177.1340  136.9320 C   0  0  0  0  0  1  0  0  0  0  0  0
  185.1630  178.6310  138.3800 N   0  0  0  0  0  0  0  0  0  0  0  0
  189.4450  177.7480  140.0560 C   0  0  0  0  0  2  0  0  0  0  0  0
  189.3450  177.0270  141.4120 C   0  0  2  0  0  3  0  0  0  0  0  0
  187.1450  178.2710  141.5790 C   0  0  0  0  0  2  0  0  0  0  0  0
  188.3200  177.6700  142.3700 C   0  0  1  0  0  3  0  0  0  0  0  0
  187.2530  177.4920  144.3400 C   0  0  0  0  0  2  0  0  0  0  0  0
  184.6730  179.3750  141.7720 Cl  0  0  0  0  0  0  0  0  0  0  0  0
  186.0150  178.2660  143.8570 C   0  0  0  0  0  2  0  0  0  0  0  0
  185.8240  178.1460  142.3430 C   0  0  2  0  0  3  0  0  0  0  0  0
  187.8370  176.7360  143.3050 O   0  0  0  0  0  0  0  0  0  0  0  0
  191.6900  177.3830  144.0820 C   0  0  0  0  0  2  0  0  0  0  0  0
  191.5820  175.8840  144.0060 C   0  0  0  0  0  2  0  0  0  0  0  0
  191.2200  177.8890  142.7330 C   0  0  0  0  0  2  0  0  0  0  0  0
  190.6790  176.7540  141.9790 N   0  0  0  0  0  0  0  0  0  0  0  0
  190.5830  175.6350  142.9030 C   0  0  0  0  0  2  0  0  0  0  0  0
  1 12  1  0  0  0  0
  1  3  1  0  0  0  0
  2  5  1  0  0  0  0
  4  8  1  0  0  0  0
  5 16  1  0  0  0  0
  5 12  2  0  0  0  0
  6  8  1  0  0  0  0
  6 13  1  0  0  0  0
  7  4  1  0  0  0  0
  8 11  2  0  0  0  0
  9  7  1  0  0  0  0
  9  4  1  0  0  0  0
 10  2  2  0  0  0  0
 10 13  1  0  0  0  0
 11  3  1  0  0  0  0
 12 22  1  0  0  0  0
 13  1  2  0  0  0  0
 14  2  1  0  0  0  0
 15 14  1  0  0  0  0
 17 21  1  0  0  0  0
 17 16  1  0  0  0  0
 19 21  2  0  0  0  0
 19 18  1  0  0  0  0
 20 19  1  0  0  0  0
 23 22  1  6  0  0  0
 23 34  1  0  0  0  0
 24 29  1  0  0  0  0
 24 25  1  0  0  0  0
 25 23  1  6  0  0  0
 25 30  1  0  0  0  0
 28 26  1  0  0  0  0
 29 27  1  6  0  0  0
 29 28  1  0  0  0  0
 30 26  1  0  0  0  0
 32 31  1  0  0  0  0
 33 31  1  0  0  0  0
 34 33  1  0  0  0  0
 34 35  1  0  0  0  0
 35 32  1  0  0  0  0
M  END
>  <MODEL>
5

>  <REMARK>
 VINA RESULT:      -6.3      3.711      8.215
  Name = 
  8 active torsions:
  status: ('A' for Active; 'I' for Inactive)
    1  A    between atoms: CA_4  and  C_10
    2  A    between atoms: C_5  and  C_18
    3  A    between atoms: C_8  and  N_25
    4  A    between atoms: C_18  and  N_27
    5  A    between atoms: C_18  and  C_28
    6  A    between atoms: N_22  and  C_35
    7  A    between atoms: N_25  and  C_35
    8  A    between atoms: C_28  and  C_32
                            x       y       z     vdW  Elec       q    Type
                         _______ _______ _______ _____ _____    ______ ____

>  <TORSDO>
F 8

$$$$
=
 OpenBabel10222419193D

 35 39  0  0  1  0  0  0  0  0999 V2000
  185.6910  178.4120  139.5190 C   0  0  0  0  0  0  0  0  0  0  0  0
  187.4620  177.0290  137.8730 C   0  0  0  0  0  0  0  0  0  0  0  0
  184.6240  178.9970  140.4060 C   0  0  0  0  0  2  0  0  0  0  0  0
  181.8200  176.8620  139.2120 N   0  0  0  0  0  0  0  0  0  0  0  0
  187.9070  177.4780  139.1450 C   0  0  0  0  0  0  0  0  0  0  0  0
  183.6460  178.2980  137.6570 S   0  0  0  0  0  0  0  0  0  0  0  0
  180.7970  176.0190  139.8960 C   0  0  0  0  0  2  0  0  0  0  0  0
  182.9160  177.7680  139.2180 C   0  0  0  0  0  0  0  0  0  0  0  0
  180.8040  176.0190  138.5170 C   0  0  0  0  0  2  0  0  0  0  0  0
  186.1900  177.2870  137.4710 N   0  0  0  0  0  0  0  0  0  0  0  0
  183.4280  178.1570  140.3490 N   0  0  0  0  0  0  0  0  0  0  0  0
  187.0010  178.1820  139.9670 C   0  0  0  0  0  0  0  0  0  0  0  0
  185.3150  177.9760  138.2430 C   0  0  0  0  0  0  0  0  0  0  0  0
  188.3140  176.2120  136.9620 C   0  0  0  0  0  2  0  0  0  0  0  0
  188.9340  177.0420  136.0280 O   0  0  0  0  0  1  0  0  0  0  0  0
  189.2350  177.2360  139.6450 N   0  0  0  0  0  2  0  0  0  0  0  0
  190.4590  177.8780  139.1940 C   0  0  0  0  0  2  0  0  0  0  0  0
  193.2460  175.6730  137.9680 C   0  0  0  0  0  1  0  0  0  0  0  0
  192.4940  176.6780  138.7700 C   0  0  0  0  0  0  0  0  0  0  0  0
  193.1980  177.3730  139.8950 C   0  0  0  0  0  1  0  0  0  0  0  0
  191.2640  176.9230  138.4750 N   0  0  0  0  0  0  0  0  0  0  0  0
  187.4430  178.6680  141.3250 C   0  0  0  0  0  2  0  0  0  0  0  0
  187.1910  177.6600  142.4600 C   0  0  2  0  0  3  0  0  0  0  0  0
  186.2650  177.8290  144.8110 C   0  0  0  0  0  2  0  0  0  0  0  0
  185.9530  178.0030  143.3150 C   0  0  1  0  0  3  0  0  0  0  0  0
  184.1930  179.3780  143.5660 C   0  0  0  0  0  2  0  0  0  0  0  0
  185.3540  178.2530  147.3320 Cl  0  0  0  0  0  0  0  0  0  0  0  0
  184.1480  179.2080  145.0940 C   0  0  0  0  0  2  0  0  0  0  0  0
  185.5220  178.8570  145.6690 C   0  0  2  0  0  3  0  0  0  0  0  0
  185.5090  179.3160  143.0690 O   0  0  0  0  0  0  0  0  0  0  0  0
  190.3950  176.0880  142.6050 C   0  0  0  0  0  2  0  0  0  0  0  0
  190.7800  177.5250  142.8360 C   0  0  0  0  0  2  0  0  0  0  0  0
  188.9250  176.0040  142.9630 C   0  0  0  0  0  2  0  0  0  0  0  0
  188.4300  177.3620  143.2030 N   0  0  0  0  0  0  0  0  0  0  0  0
  189.4750  178.2790  142.7700 C   0  0  0  0  0  2  0  0  0  0  0  0
  1 12  1  0  0  0  0
  1  3  1  0  0  0  0
  2  5  1  0  0  0  0
  4  8  1  0  0  0  0
  4  7  1  0  0  0  0
  5 16  1  0  0  0  0
  5 12  2  0  0  0  0
  6 13  1  0  0  0  0
  6  8  1  0  0  0  0
  8 11  2  0  0  0  0
  9  4  1  0  0  0  0
  9  7  1  0  0  0  0
 10  2  2  0  0  0  0
 10 13  1  0  0  0  0
 11  3  1  0  0  0  0
 12 22  1  0  0  0  0
 13  1  2  0  0  0  0
 14  2  1  0  0  0  0
 15 14  1  0  0  0  0
 17 16  1  0  0  0  0
 18 19  1  0  0  0  0
 19 20  1  0  0  0  0
 21 19  2  0  0  0  0
 21 17  1  0  0  0  0
 23 22  1  6  0  0  0
 23 34  1  0  0  0  0
 24 29  1  0  0  0  0
 25 23  1  6  0  0  0
 25 24  1  0  0  0  0
 26 28  1  0  0  0  0
 28 29  1  0  0  0  0
 29 27  1  1  0  0  0
 30 25  1  0  0  0  0
 30 26  1  0  0  0  0
 31 32  1  0  0  0  0
 31 33  1  0  0  0  0
 33 34  1  0  0  0  0
 35 32  1  0  0  0  0
 35 34  1  0  0  0  0
M  END
>  <MODEL>
6

>  <REMARK>
 VINA RESULT:      -6.2      2.756      6.004
  Name = 
  8 active torsions:
  status: ('A' for Active; 'I' for Inactive)
    1  A    between atoms: CA_4  and  C_10
    2  A    between atoms: C_5  and  C_18
    3  A    between atoms: C_8  and  N_25
    4  A    between atoms: C_18  and  N_27
    5  A    between atoms: C_18  and  C_28
    6  A    between atoms: N_22  and  C_35
    7  A    between atoms: N_25  and  C_35
    8  A    between atoms: C_28  and  C_32
                            x       y       z     vdW  Elec       q    Type
                         _______ _______ _______ _____ _____    ______ ____

>  <TORSDO>
F 8

$$$$
=
 OpenBabel10222419193D

 35 39  0  0  1  0  0  0  0  0999 V2000
  187.0280  177.8880  138.0370 C   0  0  0  0  0  0  0  0  0  0  0  0
  187.7490  178.2530  140.7030 C   0  0  0  0  0  0  0  0  0  0  0  0
  186.6790  177.5000  136.6250 C   0  0  0  0  0  2  0  0  0  0  0  0
  188.8320  174.4710  136.4390 N   0  0  0  0  0  0  0  0  0  0  0  0
  186.4260  178.5670  140.2960 C   0  0  0  0  0  0  0  0  0  0  0  0
  189.5570  177.0220  137.3210 S   0  0  0  0  0  0  0  0  0  0  0  0
  188.5940  173.0550  136.0340 C   0  0  0  0  0  2  0  0  0  0  0  0
  188.4120  175.8170  136.6230 C   0  0  0  0  0  0  0  0  0  0  0  0
  189.8480  173.3800  136.5050 C   0  0  0  0  0  2  0  0  0  0  0  0
  188.6460  177.7920  139.7920 N   0  0  0  0  0  0  0  0  0  0  0  0
  187.1870  176.1570  136.3470 N   0  0  0  0  0  0  0  0  0  0  0  0
  186.0740  178.3810  138.9420 C   0  0  0  0  0  0  0  0  0  0  0  0
  188.3270  177.6260  138.4850 C   0  0  0  0  0  0  0  0  0  0  0  0
  188.2000  178.3410  142.1220 C   0  0  0  0  0  2  0  0  0  0  0  0
  188.1970  177.0690  142.6950 O   0  0  0  0  0  1  0  0  0  0  0  0
  185.4170  179.0500  141.2020 N   0  0  0  0  0  2  0  0  0  0  0  0
  184.5870  178.2450  142.0830 C   0  0  0  0  0  2  0  0  0  0  0  0
  184.9940  178.7120  145.7900 C   0  0  0  0  0  1  0  0  0  0  0  0
  184.3750  178.6590  144.4370 C   0  0  0  0  0  0  0  0  0  0  0  0
  182.9240  179.0030  144.2970 C   0  0  0  0  0  1  0  0  0  0  0  0
  185.1010  178.3220  143.4270 N   0  0  0  0  0  0  0  0  0  0  0  0
  184.6740  178.7010  138.4790 C   0  0  0  0  0  2  0  0  0  0  0  0
  183.7000  177.5140  138.5730 C   0  0  2  0  0  3  0  0  0  0  0  0
  183.8050  175.0660  137.9320 C   0  0  0  0  0  2  0  0  0  0  0  0
  183.8490  176.5120  137.4090 C   0  0  1  0  0  3  0  0  0  0  0  0
  183.2980  176.0430  135.2810 C   0  0  0  0  0  2  0  0  0  0  0  0
  183.6640  172.4510  137.2190 Cl  0  0  0  0  0  0  0  0  0  0  0  0
  183.3950  174.5220  135.4820 C   0  0  0  0  0  2  0  0  0  0  0  0
  183.1280  174.1220  136.9350 C   0  0  2  0  0  3  0  0  0  0  0  0
  182.8440  176.6990  136.4420 O   0  0  0  0  0  0  0  0  0  0  0  0
  181.1370  178.2160  140.9590 C   0  0  0  0  0  2  0  0  0  0  0  0
  181.2710  179.5590  140.2930 C   0  0  0  0  0  2  0  0  0  0  0  0
  181.7110  177.2190  139.9730 C   0  0  0  0  0  2  0  0  0  0  0  0
  182.3270  177.9640  138.8710 N   0  0  0  0  0  0  0  0  0  0  0  0
  182.3620  179.3630  139.2690 C   0  0  0  0  0  2  0  0  0  0  0  0
  1 13  2  0  0  0  0
  1 12  1  0  0  0  0
  2 14  1  0  0  0  0
  3  1  1  0  0  0  0
  4  9  1  0  0  0  0
  4  8  1  0  0  0  0
  5  2  1  0  0  0  0
  5 16  1  0  0  0  0
  6 13  1  0  0  0  0
  7  4  1  0  0  0  0
  7  9  1  0  0  0  0
  8  6  1  0  0  0  0
 10  2  2  0  0  0  0
 11  8  2  0  0  0  0
 11  3  1  0  0  0  0
 12  5  2  0  0  0  0
 13 10  1  0  0  0  0
 14 15  1  0  0  0  0
 16 17  1  0  0  0  0
 17 21  1  0  0  0  0
 19 18  1  0  0  0  0
 20 19  1  0  0  0  0
 21 19  2  0  0  0  0
 22 12  1  0  0  0  0
 23 22  1  6  0  0  0
 23 34  1  0  0  0  0
 25 24  1  0  0  0  0
 25 23  1  1  0  0  0
 26 28  1  0  0  0  0
 26 30  1  0  0  0  0
 28 29  1  0  0  0  0
 29 27  1  6  0  0  0
 29 24  1  0  0  0  0
 30 25  1  0  0  0  0
 32 31  1  0  0  0  0
 33 31  1  0  0  0  0
 34 35  1  0  0  0  0
 34 33  1  0  0  0  0
 35 32  1  0  0  0  0
M  END
>  <MODEL>
7

>  <REMARK>
 VINA RESULT:      -6.2      4.073      7.461
  Name = 
  8 active torsions:
  status: ('A' for Active; 'I' for Inactive)
    1  A    between atoms: CA_4  and  C_10
    2  A    between atoms: C_5  and  C_18
    3  A    between atoms: C_8  and  N_25
    4  A    between atoms: C_18  and  N_27
    5  A    between atoms: C_18  and  C_28
    6  A    between atoms: N_22  and  C_35
    7  A    between atoms: N_25  and  C_35
    8  A    between atoms: C_28  and  C_32
                            x       y       z     vdW  Elec       q    Type
                         _______ _______ _______ _____ _____    ______ ____

>  <TORSDO>
F 8

$$$$
=
 OpenBabel10222419193D

 35 39  0  0  1  0  0  0  0  0999 V2000
  181.0310  180.0020  139.2920 C   0  0  0  0  0  0  0  0  0  0  0  0
  179.9780  179.8930  141.8680 C   0  0  0  0  0  0  0  0  0  0  0  0
  181.6160  180.2540  137.9280 C   0  0  0  0  0  2  0  0  0  0  0  0
  180.4900  183.7860  137.5980 N   0  0  0  0  0  0  0  0  0  0  0  0
  181.1810  179.1950  141.5840 C   0  0  0  0  0  0  0  0  0  0  0  0
  178.9560  181.5750  138.3550 S   0  0  0  0  0  0  0  0  0  0  0  0
  181.1760  185.0630  137.2460 C   0  0  0  0  0  2  0  0  0  0  0  0
  180.4700  182.3780  137.7930 C   0  0  0  0  0  0  0  0  0  0  0  0
  179.8420  185.1300  137.5880 C   0  0  0  0  0  2  0  0  0  0  0  0
  179.3510  180.5920  140.8850 N   0  0  0  0  0  0  0  0  0  0  0  0
  181.5590  181.6860  137.6300 N   0  0  0  0  0  0  0  0  0  0  0  0
  181.7020  179.2550  140.2730 C   0  0  0  0  0  0  0  0  0  0  0  0
  179.8310  180.6430  139.6190 C   0  0  0  0  0  0  0  0  0  0  0  0
  179.3860  179.9570  143.2350 C   0  0  0  0  0  2  0  0  0  0  0  0
  178.9310  178.6930  143.6110 O   0  0  0  0  0  1  0  0  0  0  0  0
  181.9070  178.4410  142.5720 N   0  0  0  0  0  2  0  0  0  0  0  0
  182.8620  178.9690  143.5340 C   0  0  0  0  0  2  0  0  0  0  0  0
  186.4340  177.8150  143.7050 C   0  0  0  0  0  1  0  0  0  0  0  0
  185.1050  178.3460  144.1140 C   0  0  0  0  0  0  0  0  0  0  0  0
  184.8940  178.7270  145.5470 C   0  0  0  0  0  1  0  0  0  0  0  0
  184.1770  178.4650  143.2290 N   0  0  0  0  0  0  0  0  0  0  0  0
  182.9810  178.5280  139.9410 C   0  0  0  0  0  2  0  0  0  0  0  0
  182.7630  177.1530  139.2860 C   0  0  2  0  0  3  0  0  0  0  0  0
  184.8040  177.9260  137.9990 C   0  0  0  0  0  2  0  0  0  0  0  0
  183.6270  176.9350  138.0260 C   0  0  1  0  0  3  0  0  0  0  0  0
  184.5220  175.4210  136.6260 C   0  0  0  0  0  2  0  0  0  0  0  0
  187.1240  178.5840  136.7550 Cl  0  0  0  0  0  0  0  0  0  0  0  0
  185.7150  176.3170  136.2540 C   0  0  0  0  0  2  0  0  0  0  0  0
  186.0550  177.3050  137.3720 C   0  0  2  0  0  3  0  0  0  0  0  0
  184.1130  175.6160  137.9600 O   0  0  0  0  0  0  0  0  0  0  0  0
  180.1420  175.3570  137.6560 C   0  0  0  0  0  2  0  0  0  0  0  0
  179.9550  174.8930  139.0750 C   0  0  0  0  0  2  0  0  0  0  0  0
  180.9150  176.6560  137.7560 C   0  0  0  0  0  2  0  0  0  0  0  0
  181.3280  176.8400  139.1500 N   0  0  0  0  0  0  0  0  0  0  0  0
  181.0460  175.5930  139.8460 C   0  0  0  0  0  2  0  0  0  0  0  0
  1 13  2  0  0  0  0
  1 12  1  0  0  0  0
  2 14  1  0  0  0  0
  3  1  1  0  0  0  0
  4  8  1  0  0  0  0
  5  2  1  0  0  0  0
  5 16  1  0  0  0  0
  6 13  1  0  0  0  0
  7  9  1  0  0  0  0
  7  4  1  0  0  0  0
  8  6  1  0  0  0  0
  9  4  1  0  0  0  0
 10  2  2  0  0  0  0
 11  8  2  0  0  0  0
 11  3  1  0  0  0  0
 12  5  2  0  0  0  0
 13 10  1  0  0  0  0
 14 15  1  0  0  0  0
 16 17  1  0  0  0  0
 18 19  1  0  0  0  0
 19 20  1  0  0  0  0
 21 17  1  0  0  0  0
 21 19  2  0  0  0  0
 22 12  1  0  0  0  0
 23 22  1  6  0  0  0
 24 25  1  0  0  0  0
 25 23  1  1  0  0  0
 26 30  1  0  0  0  0
 28 26  1  0  0  0  0
 28 29  1  0  0  0  0
 29 27  1  6  0  0  0
 29 24  1  0  0  0  0
 30 25  1  0  0  0  0
 31 33  1  0  0  0  0
 31 32  1  0  0  0  0
 32 35  1  0  0  0  0
 33 34  1  0  0  0  0
 34 23  1  0  0  0  0
 34 35  1  0  0  0  0
M  END
>  <MODEL>
8

>  <REMARK>
 VINA RESULT:      -5.9      3.859      6.302
  Name = 
  8 active torsions:
  status: ('A' for Active; 'I' for Inactive)
    1  A    between atoms: CA_4  and  C_10
    2  A    between atoms: C_5  and  C_18
    3  A    between atoms: C_8  and  N_25
    4  A    between atoms: C_18  and  N_27
    5  A    between atoms: C_18  and  C_28
    6  A    between atoms: N_22  and  C_35
    7  A    between atoms: N_25  and  C_35
    8  A    between atoms: C_28  and  C_32
                            x       y       z     vdW  Elec       q    Type
                         _______ _______ _______ _____ _____    ______ ____

>  <TORSDO>
F 8

$$$$
=
 OpenBabel10222419193D

 35 39  0  0  1  0  0  0  0  0999 V2000
  189.3610  177.8640  138.8950 C   0  0  0  0  0  0  0  0  0  0  0  0
  188.9080  177.5100  141.6200 C   0  0  0  0  0  0  0  0  0  0  0  0
  189.6450  177.8630  137.4160 C   0  0  0  0  0  2  0  0  0  0  0  0
  191.9050  174.9060  137.3900 N   0  0  0  0  0  0  0  0  0  0  0  0
  187.8440  177.9640  140.7960 C   0  0  0  0  0  0  0  0  0  0  0  0
  192.0190  177.1200  139.0930 S   0  0  0  0  0  0  0  0  0  0  0  0
  191.9570  173.6510  136.5860 C   0  0  0  0  0  2  0  0  0  0  0  0
  191.3490  176.1750  137.7110 C   0  0  0  0  0  0  0  0  0  0  0  0
  192.8840  173.8000  137.5960 C   0  0  0  0  0  2  0  0  0  0  0  0
  190.1290  177.2650  141.0760 N   0  0  0  0  0  0  0  0  0  0  0  0
  190.3200  176.6180  137.0500 N   0  0  0  0  0  0  0  0  0  0  0  0
  188.0880  178.1440  139.4170 C   0  0  0  0  0  0  0  0  0  0  0  0
  190.3810  177.4500  139.7570 C   0  0  0  0  0  0  0  0  0  0  0  0
  188.7350  177.2160  143.0720 C   0  0  0  0  0  2  0  0  0  0  0  0
  188.1260  175.9710  143.2300 O   0  0  0  0  0  1  0  0  0  0  0  0
  186.5220  178.2360  141.2960 N   0  0  0  0  0  2  0  0  0  0  0  0
  186.1190  179.3760  142.1030 C   0  0  0  0  0  2  0  0  0  0  0  0
  182.9390  178.8890  144.0460 C   0  0  0  0  0  1  0  0  0  0  0  0
  184.3850  179.0440  143.7290 C   0  0  0  0  0  0  0  0  0  0  0  0
  185.3780  178.9920  144.8490 C   0  0  0  0  0  1  0  0  0  0  0  0
  184.7440  179.2170  142.5030 N   0  0  0  0  0  0  0  0  0  0  0  0
  186.9780  178.6210  138.5160 C   0  0  0  0  0  2  0  0  0  0  0  0
  186.0020  177.5110  138.0880 C   0  0  2  0  0  3  0  0  0  0  0  0
  186.5910  175.2160  137.1940 C   0  0  0  0  0  2  0  0  0  0  0  0
  186.4880  176.7140  136.8590 C   0  0  1  0  0  3  0  0  0  0  0  0
  186.3610  176.4810  134.6280 C   0  0  0  0  0  2  0  0  0  0  0  0
  186.9770  172.7340  136.1680 Cl  0  0  0  0  0  0  0  0  0  0  0  0
  186.6630  174.9740  134.6640 C   0  0  0  0  0  2  0  0  0  0  0  0
  186.2370  174.3400  135.9900 C   0  0  2  0  0  3  0  0  0  0  0  0
  185.6310  176.8980  135.7580 O   0  0  0  0  0  0  0  0  0  0  0  0
  182.8190  177.9410  139.6510 C   0  0  0  0  0  2  0  0  0  0  0  0
  183.1810  179.3720  139.3590 C   0  0  0  0  0  2  0  0  0  0  0  0
  183.6640  177.1120  138.7040 C   0  0  0  0  0  2  0  0  0  0  0  0
  184.6130  178.0050  138.0320 N   0  0  0  0  0  0  0  0  0  0  0  0
  184.5390  179.2920  138.7080 C   0  0  0  0  0  2  0  0  0  0  0  0
  1 12  2  0  0  0  0
  1 13  1  0  0  0  0
  2 14  1  0  0  0  0
  3  1  1  0  0  0  0
  4  9  1  0  0  0  0
  4  8  1  0  0  0  0
  5 16  1  0  0  0  0
  5  2  2  0  0  0  0
  6 13  1  0  0  0  0
  7  4  1  0  0  0  0
  7  9  1  0  0  0  0
  8  6  1  0  0  0  0
 10  2  1  0  0  0  0
 11  3  1  0  0  0  0
 11  8  2  0  0  0  0
 12  5  1  0  0  0  0
 13 10  2  0  0  0  0
 14 15  1  0  0  0  0
 16 17  1  0  0  0  0
 17 21  1  0  0  0  0
 19 18  1  0  0  0  0
 19 20  1  0  0  0  0
 21 19  2  0  0  0  0
 22 12  1  0  0  0  0
 23 22  1  6  0  0  0
 25 24  1  0  0  0  0
 25 23  1  1  0  0  0
 26 28  1  0  0  0  0
 26 30  1  0  0  0  0
 28 29  1  0  0  0  0
 29 27  1  1  0  0  0
 29 24  1  0  0  0  0
 30 25  1  0  0  0  0
 32 31  1  0  0  0  0
 33 31  1  0  0  0  0
 34 23  1  0  0  0  0
 34 33  1  0  0  0  0
 34 35  1  0  0  0  0
 35 32  1  0  0  0  0
M  END
>  <MODEL>
9

>  <REMARK>
 VINA RESULT:      -5.9      3.839      7.400
  Name = 
  8 active torsions:
  status: ('A' for Active; 'I' for Inactive)
    1  A    between atoms: CA_4  and  C_10
    2  A    between atoms: C_5  and  C_18
    3  A    between atoms: C_8  and  N_25
    4  A    between atoms: C_18  and  N_27
    5  A    between atoms: C_18  and  C_28
    6  A    between atoms: N_22  and  C_35
    7  A    between atoms: N_25  and  C_35
    8  A    between atoms: C_28  and  C_32
                            x       y       z     vdW  Elec       q    Type
                         _______ _______ _______ _____ _____    ______ ____

>  <TORSDO>
F 8

$$$$
