=
 OpenBabel10222417573D

 33 36  0  0  1  0  0  0  0  0999 V2000
  190.7130  177.7550  142.4400 N   0  0  0  0  0  2  0  0  0  0  0  0
  190.9780  177.5640  141.0460 C   0  0  0  0  0  0  0  0  0  0  0  0
  188.7040  178.4900  137.7610 S   0  0  0  0  0  0  0  0  0  0  0  0
  184.6010  178.8400  140.8440 F   0  0  0  0  0  0  0  0  0  0  0  0
  185.9220  178.5840  140.6840 C   0  0  0  0  0  0  0  0  0  0  0  0
  188.5850  178.0660  140.3780 C   0  0  0  0  0  0  0  0  0  0  0  0
  186.7040  178.2040  141.7870 C   0  0  0  0  0  3  0  0  0  0  0  0
  187.8190  178.4280  139.3030 C   0  0  0  0  0  0  0  0  0  0  0  0
  189.9440  177.7810  140.0700 N   0  0  0  0  0  0  0  0  0  0  0  0
  190.2200  177.8920  138.6320 C   0  0  1  0  0  3  0  0  0  0  0  0
  192.1330  177.2220  140.6690 O   0  0  0  0  0  0  0  0  0  0  0  0
  188.0300  177.9440  141.6130 N   0  0  0  0  0  0  0  0  0  0  0  0
  186.4960  178.6880  139.4520 N   0  0  0  0  0  0  0  0  0  0  0  0
  190.6810  176.5850  138.0630 C   0  0  0  0  0  0  0  0  0  0  0  0
  189.7740  175.5630  137.7530 C   0  0  0  0  0  3  0  0  0  0  0  0
  190.2360  174.3420  137.2560 C   0  0  0  0  0  3  0  0  0  0  0  0
  191.6120  174.1300  137.0600 C   0  0  0  0  0  0  0  0  0  0  0  0
  192.0470  176.3800  137.8590 C   0  0  0  0  0  3  0  0  0  0  0  0
  192.5200  175.1560  137.3640 C   0  0  0  0  0  0  0  0  0  0  0  0
  191.7930  172.4190  135.2810 C   0  0  0  0  0  1  0  0  0  0  0  0
  192.1020  172.9130  136.5760 O   0  0  0  0  0  0  0  0  0  0  0  0
  193.8920  174.9420  137.1990 O   0  0  0  0  0  0  0  0  0  0  0  0
  194.7750  175.2980  138.1410 O   0  0  0  0  0  0  0  0  0  0  0  0
  195.3390  174.0900  138.5660 C   0  0  0  0  0  1  0  0  0  0  0  0
  191.7110  177.4790  143.4670 C   0  0  0  0  0  2  0  0  0  0  0  0
  189.8100  176.8440  147.2580 C   0  0  0  0  0  3  0  0  0  0  0  0
  191.7550  176.6580  145.8250 C   0  0  0  0  0  3  0  0  0  0  0  0
  189.7090  177.6320  144.9680 C   0  0  0  0  0  3  0  0  0  0  0  0
  191.0380  177.2370  144.7720 C   0  0  0  0  0  0  0  0  0  0  0  0
  187.7810  177.8330  146.4090 O   0  0  0  0  0  1  0  0  0  0  0  0
  191.8340  175.8890  148.0800 F   0  0  0  0  0  0  0  0  0  0  0  0
  189.0970  177.4370  146.2120 C   0  0  0  0  0  0  0  0  0  0  0  0
  191.1420  176.4590  147.0650 C   0  0  0  0  0  0  0  0  0  0  0  0
  1 25  1  0  0  0  0
  2  1  1  0  0  0  0
  3 10  1  0  0  0  0
  3  8  1  0  0  0  0
  5  4  1  0  0  0  0
  5  7  1  0  0  0  0
  6 12  1  0  0  0  0
  8 13  1  0  0  0  0
  8  6  2  0  0  0  0
  9  6  1  0  0  0  0
  9  2  1  0  0  0  0
 10 14  1  6  0  0  0
 10  9  1  0  0  0  0
 11  2  2  0  0  0  0
 12  7  2  0  0  0  0
 13  5  2  0  0  0  0
 15 14  2  0  0  0  0
 16 15  1  0  0  0  0
 17 16  2  0  0  0  0
 17 19  1  0  0  0  0
 18 14  1  0  0  0  0
 19 18  2  0  0  0  0
 20 21  1  0  0  0  0
 21 17  1  0  0  0  0
 22 19  1  0  0  0  0
 22 23  1  0  0  0  0
 23 24  1  0  0  0  0
 25 29  1  0  0  0  0
 27 33  2  0  0  0  0
 28 32  1  0  0  0  0
 29 28  2  0  0  0  0
 29 27  1  0  0  0  0
 32 30  1  0  0  0  0
 32 26  2  0  0  0  0
 33 26  1  0  0  0  0
 33 31  1  0  0  0  0
M  END
>  <MODEL>
1

>  <REMARK>
 VINA RESULT:      -8.6      0.000      0.000
  Name = 
  6 active torsions:
  status: ('A' for Active; 'I' for Inactive)
    1  A    between atoms: N_1  and  C_12
    2  A    between atoms: C_3  and  C_26
    3  A    between atoms: O_10  and  O_29
    4  A    between atoms: C_12  and  C_14
    5  A    between atoms: C_21  and  O_33
    6  A    between atoms: C_27  and  O_29
                            x       y       z     vdW  Elec       q    Type
                         _______ _______ _______ _____ _____    ______ ____

>  <TORSDO>
F 6

$$$$
=
 OpenBabel10222417573D

 33 36  0  0  1  0  0  0  0  0999 V2000
  190.6820  177.7840  142.2170 N   0  0  0  0  0  2  0  0  0  0  0  0
  190.9180  177.5770  140.8190 C   0  0  0  0  0  0  0  0  0  0  0  0
  188.5760  178.4690  137.5720 S   0  0  0  0  0  0  0  0  0  0  0  0
  184.5390  178.8610  140.7370 F   0  0  0  0  0  0  0  0  0  0  0  0
  185.8560  178.6010  140.5520 C   0  0  0  0  0  0  0  0  0  0  0  0
  188.5110  178.0750  140.1970 C   0  0  0  0  0  0  0  0  0  0  0  0
  186.6600  178.2330  141.6430 C   0  0  0  0  0  3  0  0  0  0  0  0
  187.7230  178.4260  139.1330 C   0  0  0  0  0  0  0  0  0  0  0  0
  189.8630  177.7840  139.8630 N   0  0  0  0  0  0  0  0  0  0  0  0
  190.1090  177.8790  138.4190 C   0  0  1  0  0  3  0  0  0  0  0  0
  192.0640  177.2290  140.4220 O   0  0  0  0  0  0  0  0  0  0  0  0
  187.9820  177.9680  141.4440 N   0  0  0  0  0  0  0  0  0  0  0  0
  186.4040  178.6900  139.3070 N   0  0  0  0  0  0  0  0  0  0  0  0
  190.5560  176.5650  137.8550 C   0  0  0  0  0  0  0  0  0  0  0  0
  189.6750  175.4810  137.7410 C   0  0  0  0  0  3  0  0  0  0  0  0
  190.1290  174.2570  137.2430 C   0  0  0  0  0  3  0  0  0  0  0  0
  191.4700  174.1030  136.8520 C   0  0  0  0  0  0  0  0  0  0  0  0
  191.8860  176.4160  137.4560 C   0  0  0  0  0  3  0  0  0  0  0  0
  192.3510  175.1900  136.9600 C   0  0  0  0  0  0  0  0  0  0  0  0
  191.5280  172.3280  135.1280 C   0  0  0  0  0  1  0  0  0  0  0  0
  191.9540  172.8850  136.3630 O   0  0  0  0  0  0  0  0  0  0  0  0
  193.6930  175.0360  136.5990 O   0  0  0  0  0  0  0  0  0  0  0  0
  194.6860  175.4630  137.3910 O   0  0  0  0  0  0  0  0  0  0  0  0
  195.0020  174.3550  138.1830 C   0  0  0  0  0  1  0  0  0  0  0  0
  191.7010  177.5190  143.2250 C   0  0  0  0  0  2  0  0  0  0  0  0
  189.8200  177.0670  147.0520 C   0  0  0  0  0  3  0  0  0  0  0  0
  189.7490  177.8270  144.7530 C   0  0  0  0  0  3  0  0  0  0  0  0
  191.7500  176.7690  145.6170 C   0  0  0  0  0  3  0  0  0  0  0  0
  191.0630  177.3840  144.5630 C   0  0  0  0  0  0  0  0  0  0  0  0
  191.8060  175.9950  147.9040 O   0  0  0  0  0  1  0  0  0  0  0  0
  187.8620  178.1110  146.1820 F   0  0  0  0  0  0  0  0  0  0  0  0
  191.1270  176.6090  146.8600 C   0  0  0  0  0  0  0  0  0  0  0  0
  189.1290  177.6720  145.9960 C   0  0  0  0  0  0  0  0  0  0  0  0
  1 25  1  0  0  0  0
  2  1  1  0  0  0  0
  3 10  1  0  0  0  0
  3  8  1  0  0  0  0
  5  4  1  0  0  0  0
  5  7  1  0  0  0  0
  6 12  1  0  0  0  0
  8 13  1  0  0  0  0
  8  6  2  0  0  0  0
  9  6  1  0  0  0  0
  9  2  1  0  0  0  0
 10 14  1  6  0  0  0
 10  9  1  0  0  0  0
 11  2  2  0  0  0  0
 12  7  2  0  0  0  0
 13  5  2  0  0  0  0
 15 14  1  0  0  0  0
 16 15  2  0  0  0  0
 17 19  2  0  0  0  0
 17 16  1  0  0  0  0
 18 14  2  0  0  0  0
 19 18  1  0  0  0  0
 20 21  1  0  0  0  0
 21 17  1  0  0  0  0
 22 19  1  0  0  0  0
 22 23  1  0  0  0  0
 23 24  1  0  0  0  0
 25 29  1  0  0  0  0
 27 33  1  0  0  0  0
 28 32  2  0  0  0  0
 29 27  2  0  0  0  0
 29 28  1  0  0  0  0
 32 26  1  0  0  0  0
 32 30  1  0  0  0  0
 33 31  1  0  0  0  0
 33 26  2  0  0  0  0
M  END
>  <MODEL>
2

>  <REMARK>
 VINA RESULT:      -8.5      1.222      1.484
  Name = 
  6 active torsions:
  status: ('A' for Active; 'I' for Inactive)
    1  A    between atoms: N_1  and  C_12
    2  A    between atoms: C_3  and  C_26
    3  A    between atoms: O_10  and  O_29
    4  A    between atoms: C_12  and  C_14
    5  A    between atoms: C_21  and  O_33
    6  A    between atoms: C_27  and  O_29
                            x       y       z     vdW  Elec       q    Type
                         _______ _______ _______ _____ _____    ______ ____

>  <TORSDO>
F 6

$$$$
=
 OpenBabel10222417573D

 33 36  0  0  1  0  0  0  0  0999 V2000
  190.6950  177.7660  142.4480 N   0  0  0  0  0  2  0  0  0  0  0  0
  190.9460  177.5550  141.0540 C   0  0  0  0  0  0  0  0  0  0  0  0
  188.6500  178.4560  137.7770 S   0  0  0  0  0  0  0  0  0  0  0  0
  184.5770  178.8770  140.8900 F   0  0  0  0  0  0  0  0  0  0  0  0
  185.8950  178.6090  140.7230 C   0  0  0  0  0  0  0  0  0  0  0  0
  188.5510  178.0660  140.4010 C   0  0  0  0  0  0  0  0  0  0  0  0
  186.6830  178.2380  141.8230 C   0  0  0  0  0  3  0  0  0  0  0  0
  187.7780  178.4200  139.3270 C   0  0  0  0  0  0  0  0  0  0  0  0
  189.9050  177.7670  140.0850 N   0  0  0  0  0  0  0  0  0  0  0  0
  190.1690  177.8580  138.6430 C   0  0  1  0  0  3  0  0  0  0  0  0
  192.0950  177.1990  140.6720 O   0  0  0  0  0  0  0  0  0  0  0  0
  188.0060  177.9650  141.6410 N   0  0  0  0  0  0  0  0  0  0  0  0
  186.4590  178.6930  139.4840 N   0  0  0  0  0  0  0  0  0  0  0  0
  190.6150  176.5400  138.0870 C   0  0  0  0  0  0  0  0  0  0  0  0
  191.9700  176.2670  137.8520 C   0  0  0  0  0  3  0  0  0  0  0  0
  192.3530  175.0430  137.3000 C   0  0  0  0  0  3  0  0  0  0  0  0
  191.3850  174.0750  136.9770 C   0  0  0  0  0  0  0  0  0  0  0  0
  189.6540  175.5760  137.7760 C   0  0  0  0  0  3  0  0  0  0  0  0
  190.0290  174.3460  137.2180 C   0  0  0  0  0  0  0  0  0  0  0  0
  192.6600  172.7320  135.3350 C   0  0  0  0  0  1  0  0  0  0  0  0
  191.7400  172.8460  136.4110 O   0  0  0  0  0  0  0  0  0  0  0  0
  189.0590  173.4000  136.8730 O   0  0  0  0  0  0  0  0  0  0  0  0
  187.7890  173.7540  136.6330 O   0  0  0  0  0  0  0  0  0  0  0  0
  187.0300  172.6890  137.1280 C   0  0  0  0  0  1  0  0  0  0  0  0
  191.6990  177.4960  143.4690 C   0  0  0  0  0  2  0  0  0  0  0  0
  189.8230  176.8570  147.2720 C   0  0  0  0  0  3  0  0  0  0  0  0
  191.7520  176.6520  145.8200 C   0  0  0  0  0  3  0  0  0  0  0  0
  189.7140  177.6670  144.9910 C   0  0  0  0  0  3  0  0  0  0  0  0
  191.0340  177.2520  144.7790 C   0  0  0  0  0  0  0  0  0  0  0  0
  187.8020  177.8870  146.4520 O   0  0  0  0  0  1  0  0  0  0  0  0
  191.8380  175.8610  148.0670 F   0  0  0  0  0  0  0  0  0  0  0  0
  189.1100  177.4710  146.2380 C   0  0  0  0  0  0  0  0  0  0  0  0
  191.1460  176.4510  147.0630 C   0  0  0  0  0  0  0  0  0  0  0  0
  1 25  1  0  0  0  0
  2  1  1  0  0  0  0
  3 10  1  0  0  0  0
  3  8  1  0  0  0  0
  5  4  1  0  0  0  0
  5  7  1  0  0  0  0
  6 12  1  0  0  0  0
  8 13  1  0  0  0  0
  8  6  2  0  0  0  0
  9  6  1  0  0  0  0
  9  2  1  0  0  0  0
 10 14  1  6  0  0  0
 10  9  1  0  0  0  0
 11  2  2  0  0  0  0
 12  7  2  0  0  0  0
 13  5  2  0  0  0  0
 15 14  1  0  0  0  0
 16 15  2  0  0  0  0
 17 19  2  0  0  0  0
 17 16  1  0  0  0  0
 18 14  2  0  0  0  0
 19 18  1  0  0  0  0
 20 21  1  0  0  0  0
 21 17  1  0  0  0  0
 22 19  1  0  0  0  0
 23 22  1  0  0  0  0
 23 24  1  0  0  0  0
 25 29  1  0  0  0  0
 27 33  2  0  0  0  0
 28 32  1  0  0  0  0
 29 28  2  0  0  0  0
 29 27  1  0  0  0  0
 32 30  1  0  0  0  0
 32 26  2  0  0  0  0
 33 26  1  0  0  0  0
 33 31  1  0  0  0  0
M  END
>  <MODEL>
3

>  <REMARK>
 VINA RESULT:      -8.3      1.144      2.316
  Name = 
  6 active torsions:
  status: ('A' for Active; 'I' for Inactive)
    1  A    between atoms: N_1  and  C_12
    2  A    between atoms: C_3  and  C_26
    3  A    between atoms: O_10  and  O_29
    4  A    between atoms: C_12  and  C_14
    5  A    between atoms: C_21  and  O_33
    6  A    between atoms: C_27  and  O_29
                            x       y       z     vdW  Elec       q    Type
                         _______ _______ _______ _____ _____    ______ ____

>  <TORSDO>
F 6

$$$$
=
 OpenBabel10222417573D

 33 36  0  0  1  0  0  0  0  0999 V2000
  190.7200  177.8410  142.2880 N   0  0  0  0  0  2  0  0  0  0  0  0
  190.9650  177.6180  140.8940 C   0  0  0  0  0  0  0  0  0  0  0  0
  188.6320  178.4470  137.6250 S   0  0  0  0  0  0  0  0  0  0  0  0
  184.5750  178.8390  140.7630 F   0  0  0  0  0  0  0  0  0  0  0  0
  185.8950  178.5900  140.5890 C   0  0  0  0  0  0  0  0  0  0  0  0
  188.5570  178.0850  140.2530 C   0  0  0  0  0  0  0  0  0  0  0  0
  186.6970  178.2430  141.6880 C   0  0  0  0  0  3  0  0  0  0  0  0
  187.7710  178.4160  139.1820 C   0  0  0  0  0  0  0  0  0  0  0  0
  189.9130  177.8040  139.9310 N   0  0  0  0  0  0  0  0  0  0  0  0
  190.1660  177.8830  138.4860 C   0  0  1  0  0  3  0  0  0  0  0  0
  192.1160  177.2760  140.5080 O   0  0  0  0  0  0  0  0  0  0  0  0
  188.0220  177.9890  141.4990 N   0  0  0  0  0  0  0  0  0  0  0  0
  186.4490  178.6690  139.3450 N   0  0  0  0  0  0  0  0  0  0  0  0
  190.6290  176.5660  137.9410 C   0  0  0  0  0  0  0  0  0  0  0  0
  191.9590  176.3650  137.5490 C   0  0  0  0  0  3  0  0  0  0  0  0
  192.3530  175.1370  137.0120 C   0  0  0  0  0  3  0  0  0  0  0  0
  191.4210  174.0950  136.8610 C   0  0  0  0  0  0  0  0  0  0  0  0
  189.7040  175.5290  137.8020 C   0  0  0  0  0  3  0  0  0  0  0  0
  190.0910  174.2950  137.2600 C   0  0  0  0  0  0  0  0  0  0  0  0
  193.1350  172.5130  136.0310 C   0  0  0  0  0  1  0  0  0  0  0  0
  191.7870  172.8610  136.3140 O   0  0  0  0  0  0  0  0  0  0  0  0
  189.1520  173.2730  137.0870 O   0  0  0  0  0  0  0  0  0  0  0  0
  187.8680  173.5390  136.8100 O   0  0  0  0  0  0  0  0  0  0  0  0
  187.2810  172.2840  136.6290 C   0  0  0  0  0  1  0  0  0  0  0  0
  191.7350  177.5980  143.3050 C   0  0  0  0  0  2  0  0  0  0  0  0
  189.8230  177.0050  147.0970 C   0  0  0  0  0  3  0  0  0  0  0  0
  189.7790  177.8700  144.8340 C   0  0  0  0  0  3  0  0  0  0  0  0
  191.7560  176.7380  145.6600 C   0  0  0  0  0  3  0  0  0  0  0  0
  191.0870  177.4130  144.6320 C   0  0  0  0  0  0  0  0  0  0  0  0
  191.7840  175.8600  147.9100 O   0  0  0  0  0  1  0  0  0  0  0  0
  187.8890  178.1230  146.2640 F   0  0  0  0  0  0  0  0  0  0  0  0
  191.1230  176.5330  146.8910 C   0  0  0  0  0  0  0  0  0  0  0  0
  189.1500  177.6700  146.0660 C   0  0  0  0  0  0  0  0  0  0  0  0
  1 25  1  0  0  0  0
  2  1  1  0  0  0  0
  3 10  1  0  0  0  0
  3  8  1  0  0  0  0
  5  4  1  0  0  0  0
  5  7  1  0  0  0  0
  6 12  1  0  0  0  0
  8 13  1  0  0  0  0
  8  6  2  0  0  0  0
  9  6  1  0  0  0  0
  9  2  1  0  0  0  0
 10 14  1  6  0  0  0
 10  9  1  0  0  0  0
 11  2  2  0  0  0  0
 12  7  2  0  0  0  0
 13  5  2  0  0  0  0
 15 14  2  0  0  0  0
 16 15  1  0  0  0  0
 17 16  2  0  0  0  0
 17 19  1  0  0  0  0
 18 14  1  0  0  0  0
 19 18  2  0  0  0  0
 20 21  1  0  0  0  0
 21 17  1  0  0  0  0
 22 19  1  0  0  0  0
 23 22  1  0  0  0  0
 24 23  1  0  0  0  0
 25 29  1  0  0  0  0
 27 33  1  0  0  0  0
 28 32  2  0  0  0  0
 29 27  2  0  0  0  0
 29 28  1  0  0  0  0
 32 26  1  0  0  0  0
 32 30  1  0  0  0  0
 33 31  1  0  0  0  0
 33 26  2  0  0  0  0
M  END
>  <MODEL>
4

>  <REMARK>
 VINA RESULT:      -8.3      1.655      2.730
  Name = 
  6 active torsions:
  status: ('A' for Active; 'I' for Inactive)
    1  A    between atoms: N_1  and  C_12
    2  A    between atoms: C_3  and  C_26
    3  A    between atoms: O_10  and  O_29
    4  A    between atoms: C_12  and  C_14
    5  A    between atoms: C_21  and  O_33
    6  A    between atoms: C_27  and  O_29
                            x       y       z     vdW  Elec       q    Type
                         _______ _______ _______ _____ _____    ______ ____

>  <TORSDO>
F 6

$$$$
=
 OpenBabel10222417573D

 33 36  0  0  1  0  0  0  0  0999 V2000
  187.6260  178.4430  141.8180 N   0  0  0  0  0  2  0  0  0  0  0  0
  187.1530  178.4900  140.4670 C   0  0  0  0  0  0  0  0  0  0  0  0
  183.4560  179.4630  138.9810 S   0  0  0  0  0  0  0  0  0  0  0  0
  181.4970  178.7020  143.6770 F   0  0  0  0  0  0  0  0  0  0  0  0
  182.5650  178.6940  142.8430 C   0  0  0  0  0  0  0  0  0  0  0  0
  184.7260  178.6720  141.1740 C   0  0  0  0  0  0  0  0  0  0  0  0
  183.8270  178.3030  143.3180 C   0  0  0  0  0  3  0  0  0  0  0  0
  183.4930  179.0450  140.7100 C   0  0  0  0  0  0  0  0  0  0  0  0
  185.7520  178.6620  140.1900 N   0  0  0  0  0  0  0  0  0  0  0  0
  185.2450  179.0130  138.8580 C   0  0  1  0  0  3  0  0  0  0  0  0
  187.9740  178.3990  139.5130 O   0  0  0  0  0  0  0  0  0  0  0  0
  184.8920  178.2930  142.4690 N   0  0  0  0  0  0  0  0  0  0  0  0
  182.4180  179.0590  141.5370 N   0  0  0  0  0  0  0  0  0  0  0  0
  185.4450  177.8910  137.8850 C   0  0  0  0  0  0  0  0  0  0  0  0
  186.3380  178.0050  136.8120 C   0  0  0  0  0  3  0  0  0  0  0  0
  186.4780  176.9550  135.9010 C   0  0  0  0  0  3  0  0  0  0  0  0
  185.7270  175.7770  136.0540 C   0  0  0  0  0  0  0  0  0  0  0  0
  184.7060  176.7160  138.0450 C   0  0  0  0  0  3  0  0  0  0  0  0
  184.8370  175.6600  137.1340 C   0  0  0  0  0  0  0  0  0  0  0  0
  186.9300  173.8060  135.1600 C   0  0  0  0  0  1  0  0  0  0  0  0
  185.8380  174.7160  135.1500 O   0  0  0  0  0  0  0  0  0  0  0  0
  184.0660  174.5010  137.2760 O   0  0  0  0  0  0  0  0  0  0  0  0
  184.5250  173.4320  137.9400 O   0  0  0  0  0  0  0  0  0  0  0  0
  184.1150  172.3400  137.1700 C   0  0  0  0  0  1  0  0  0  0  0  0
  189.0260  178.2000  142.1450 C   0  0  0  0  0  2  0  0  0  0  0  0
  189.3860  177.1890  146.2960 C   0  0  0  0  0  3  0  0  0  0  0  0
  188.0080  177.6930  144.3680 C   0  0  0  0  0  3  0  0  0  0  0  0
  190.4220  177.7000  144.1660 C   0  0  0  0  0  3  0  0  0  0  0  0
  189.1570  177.8760  143.5910 C   0  0  0  0  0  0  0  0  0  0  0  0
  191.7890  177.1760  146.0880 O   0  0  0  0  0  1  0  0  0  0  0  0
  187.0090  177.1880  146.4730 F   0  0  0  0  0  0  0  0  0  0  0  0
  190.5350  177.3550  145.5180 C   0  0  0  0  0  0  0  0  0  0  0  0
  188.1220  177.3540  145.7200 C   0  0  0  0  0  0  0  0  0  0  0  0
  1 25  1  0  0  0  0
  2  1  1  0  0  0  0
  3  8  1  0  0  0  0
  5  7  1  0  0  0  0
  5  4  1  0  0  0  0
  6 12  1  0  0  0  0
  8  6  2  0  0  0  0
  8 13  1  0  0  0  0
  9  2  1  0  0  0  0
  9  6  1  0  0  0  0
 10 14  1  6  0  0  0
 10  3  1  0  0  0  0
 10  9  1  0  0  0  0
 11  2  2  0  0  0  0
 12  7  2  0  0  0  0
 13  5  2  0  0  0  0
 14 18  1  0  0  0  0
 15 14  2  0  0  0  0
 16 17  2  0  0  0  0
 16 15  1  0  0  0  0
 17 19  1  0  0  0  0
 19 22  1  0  0  0  0
 19 18  2  0  0  0  0
 21 20  1  0  0  0  0
 21 17  1  0  0  0  0
 22 23  1  0  0  0  0
 24 23  1  0  0  0  0
 25 29  1  0  0  0  0
 27 33  2  0  0  0  0
 28 32  1  0  0  0  0
 29 28  2  0  0  0  0
 29 27  1  0  0  0  0
 32 30  1  0  0  0  0
 32 26  2  0  0  0  0
 33 26  1  0  0  0  0
 33 31  1  0  0  0  0
M  END
>  <MODEL>
5

>  <REMARK>
 VINA RESULT:      -7.8      4.144      5.380
  Name = 
  6 active torsions:
  status: ('A' for Active; 'I' for Inactive)
    1  A    between atoms: N_1  and  C_12
    2  A    between atoms: C_3  and  C_26
    3  A    between atoms: O_10  and  O_29
    4  A    between atoms: C_12  and  C_14
    5  A    between atoms: C_21  and  O_33
    6  A    between atoms: C_27  and  O_29
                            x       y       z     vdW  Elec       q    Type
                         _______ _______ _______ _____ _____    ______ ____

>  <TORSDO>
F 6

$$$$
=
 OpenBabel10222417573D

 33 36  0  0  1  0  0  0  0  0999 V2000
  185.5930  178.3120  142.6220 N   0  0  0  0  0  2  0  0  0  0  0  0
  184.5120  178.3530  141.6830 C   0  0  0  0  0  0  0  0  0  0  0  0
  184.4790  177.6550  137.6420 S   0  0  0  0  0  0  0  0  0  0  0  0
  189.5820  178.3070  137.6050 F   0  0  0  0  0  0  0  0  0  0  0  0
  188.4120  178.2940  138.2890 C   0  0  0  0  0  0  0  0  0  0  0  0
  186.0630  178.2730  139.6800 C   0  0  0  0  0  0  0  0  0  0  0  0
  188.3960  178.5930  139.6610 C   0  0  0  0  0  3  0  0  0  0  0  0
  186.0810  177.9910  138.3410 C   0  0  0  0  0  0  0  0  0  0  0  0
  184.7700  178.2710  140.2710 N   0  0  0  0  0  0  0  0  0  0  0  0
  183.7120  178.0110  139.2850 C   0  0  1  0  0  3  0  0  0  0  0  0
  183.3240  178.4420  142.1000 O   0  0  0  0  0  0  0  0  0  0  0  0
  187.2120  178.5830  140.3370 N   0  0  0  0  0  0  0  0  0  0  0  0
  187.2460  177.9980  137.6470 N   0  0  0  0  0  0  0  0  0  0  0  0
  182.7600  179.1630  139.1900 C   0  0  0  0  0  0  0  0  0  0  0  0
  183.1770  180.4180  138.7250 C   0  0  0  0  0  3  0  0  0  0  0  0
  182.2740  181.4840  138.6800 C   0  0  0  0  0  3  0  0  0  0  0  0
  180.9440  181.3070  139.0980 C   0  0  0  0  0  0  0  0  0  0  0  0
  181.4360  178.9830  139.5950 C   0  0  0  0  0  3  0  0  0  0  0  0
  180.5250  180.0480  139.5570 C   0  0  0  0  0  0  0  0  0  0  0  0
  179.8230  183.1830  137.9340 C   0  0  0  0  0  1  0  0  0  0  0  0
  180.0240  182.3600  139.0750 O   0  0  0  0  0  0  0  0  0  0  0  0
  179.2110  179.8720  140.0000 O   0  0  0  0  0  0  0  0  0  0  0  0
  178.9410  179.4460  141.2420 O   0  0  0  0  0  0  0  0  0  0  0  0
  179.2400  180.5410  142.0590 C   0  0  0  0  0  1  0  0  0  0  0  0
  185.3830  178.4620  144.0570 C   0  0  0  0  0  2  0  0  0  0  0  0
  188.8710  177.1310  146.1660 C   0  0  0  0  0  3  0  0  0  0  0  0
  187.6930  177.5110  144.0840 C   0  0  0  0  0  3  0  0  0  0  0  0
  186.6220  178.0310  146.1940 C   0  0  0  0  0  3  0  0  0  0  0  0
  186.5810  177.9760  144.7950 C   0  0  0  0  0  0  0  0  0  0  0  0
  187.8120  177.6690  148.2650 O   0  0  0  0  0  1  0  0  0  0  0  0
  189.9070  176.6260  144.0780 F   0  0  0  0  0  0  0  0  0  0  0  0
  187.7680  177.6100  146.8780 C   0  0  0  0  0  0  0  0  0  0  0  0
  188.8350  177.0860  144.7680 C   0  0  0  0  0  0  0  0  0  0  0  0
  1 25  1  0  0  0  0
  2 11  2  0  0  0  0
  2  1  1  0  0  0  0
  3  8  1  0  0  0  0
  3 10  1  0  0  0  0
  4  5  1  0  0  0  0
  5  7  1  0  0  0  0
  6  9  1  0  0  0  0
  6 12  1  0  0  0  0
  7 12  2  0  0  0  0
  8  6  2  0  0  0  0
  9  2  1  0  0  0  0
 10 14  1  6  0  0  0
 10  9  1  0  0  0  0
 13  5  2  0  0  0  0
 13  8  1  0  0  0  0
 14 18  1  0  0  0  0
 15 14  2  0  0  0  0
 16 15  1  0  0  0  0
 16 17  2  0  0  0  0
 17 19  1  0  0  0  0
 19 18  2  0  0  0  0
 19 22  1  0  0  0  0
 20 21  1  0  0  0  0
 21 17  1  0  0  0  0
 22 23  1  0  0  0  0
 23 24  1  0  0  0  0
 25 29  1  0  0  0  0
 26 32  1  0  0  0  0
 27 33  1  0  0  0  0
 27 29  2  0  0  0  0
 28 32  2  0  0  0  0
 29 28  1  0  0  0  0
 31 33  1  0  0  0  0
 32 30  1  0  0  0  0
 33 26  2  0  0  0  0
M  END
>  <MODEL>
6

>  <REMARK>
 VINA RESULT:      -7.7      5.259      8.721
  Name = 
  6 active torsions:
  status: ('A' for Active; 'I' for Inactive)
    1  A    between atoms: N_1  and  C_12
    2  A    between atoms: C_3  and  C_26
    3  A    between atoms: O_10  and  O_29
    4  A    between atoms: C_12  and  C_14
    5  A    between atoms: C_21  and  O_33
    6  A    between atoms: C_27  and  O_29
                            x       y       z     vdW  Elec       q    Type
                         _______ _______ _______ _____ _____    ______ ____

>  <TORSDO>
F 6

$$$$
=
 OpenBabel10222417573D

 33 36  0  0  1  0  0  0  0  0999 V2000
  187.6020  178.4420  141.8950 N   0  0  0  0  0  2  0  0  0  0  0  0
  187.1040  178.5010  140.5530 C   0  0  0  0  0  0  0  0  0  0  0  0
  183.3880  179.5140  139.1450 S   0  0  0  0  0  0  0  0  0  0  0  0
  181.5130  178.7450  143.8730 F   0  0  0  0  0  0  0  0  0  0  0  0
  182.5640  178.7320  143.0180 C   0  0  0  0  0  0  0  0  0  0  0  0
  184.6920  178.7010  141.3090 C   0  0  0  0  0  0  0  0  0  0  0  0
  183.8310  178.3280  143.4680 C   0  0  0  0  0  3  0  0  0  0  0  0
  183.4540  179.0870  140.8710 C   0  0  0  0  0  0  0  0  0  0  0  0
  185.6990  178.6870  140.3050 N   0  0  0  0  0  0  0  0  0  0  0  0
  185.1690  179.0500  138.9840 C   0  0  1  0  0  3  0  0  0  0  0  0
  187.9060  178.4080  139.5840 O   0  0  0  0  0  0  0  0  0  0  0  0
  184.8800  178.3130  142.5980 N   0  0  0  0  0  0  0  0  0  0  0  0
  182.3950  179.1060  141.7180 N   0  0  0  0  0  0  0  0  0  0  0  0
  185.3410  177.9310  138.0020 C   0  0  0  0  0  0  0  0  0  0  0  0
  184.5290  176.7900  138.0460 C   0  0  0  0  0  3  0  0  0  0  0  0
  184.7350  175.7470  137.1390 C   0  0  0  0  0  3  0  0  0  0  0  0
  185.7550  175.8350  136.1760 C   0  0  0  0  0  0  0  0  0  0  0  0
  186.3480  178.0250  137.0390 C   0  0  0  0  0  3  0  0  0  0  0  0
  186.5640  176.9810  136.1270 C   0  0  0  0  0  0  0  0  0  0  0  0
  185.9750  173.4290  135.6360 C   0  0  0  0  0  1  0  0  0  0  0  0
  185.9920  174.8000  135.2650 O   0  0  0  0  0  0  0  0  0  0  0  0
  187.5980  177.0630  135.1900 O   0  0  0  0  0  0  0  0  0  0  0  0
  188.8160  177.5080  135.5280 O   0  0  0  0  0  0  0  0  0  0  0  0
  189.5060  176.3640  135.9370 C   0  0  0  0  0  1  0  0  0  0  0  0
  189.0050  178.1850  142.1930 C   0  0  0  0  0  2  0  0  0  0  0  0
  189.4390  177.1750  146.3380 C   0  0  0  0  0  3  0  0  0  0  0  0
  188.0280  177.7050  144.4410 C   0  0  0  0  0  3  0  0  0  0  0  0
  190.4370  177.6590  144.1830 C   0  0  0  0  0  3  0  0  0  0  0  0
  189.1630  177.8610  143.6370 C   0  0  0  0  0  0  0  0  0  0  0  0
  191.8360  177.1090  146.0740 O   0  0  0  0  0  1  0  0  0  0  0  0
  187.0670  177.2270  146.5700 F   0  0  0  0  0  0  0  0  0  0  0  0
  190.5730  177.3140  145.5330 C   0  0  0  0  0  0  0  0  0  0  0  0
  188.1660  177.3670  145.7900 C   0  0  0  0  0  0  0  0  0  0  0  0
  1 25  1  0  0  0  0
  2  1  1  0  0  0  0
  3  8  1  0  0  0  0
  5  7  1  0  0  0  0
  5  4  1  0  0  0  0
  6 12  1  0  0  0  0
  8  6  2  0  0  0  0
  8 13  1  0  0  0  0
  9  2  1  0  0  0  0
  9  6  1  0  0  0  0
 10 14  1  6  0  0  0
 10  3  1  0  0  0  0
 10  9  1  0  0  0  0
 11  2  2  0  0  0  0
 12  7  2  0  0  0  0
 13  5  2  0  0  0  0
 14 15  1  0  0  0  0
 16 15  2  0  0  0  0
 17 16  1  0  0  0  0
 18 14  2  0  0  0  0
 19 17  2  0  0  0  0
 19 18  1  0  0  0  0
 21 20  1  0  0  0  0
 21 17  1  0  0  0  0
 22 23  1  0  0  0  0
 22 19  1  0  0  0  0
 23 24  1  0  0  0  0
 25 29  1  0  0  0  0
 27 33  2  0  0  0  0
 28 32  1  0  0  0  0
 29 28  2  0  0  0  0
 29 27  1  0  0  0  0
 32 30  1  0  0  0  0
 32 26  2  0  0  0  0
 33 26  1  0  0  0  0
 33 31  1  0  0  0  0
M  END
>  <MODEL>
7

>  <REMARK>
 VINA RESULT:      -7.6      3.586      4.795
  Name = 
  6 active torsions:
  status: ('A' for Active; 'I' for Inactive)
    1  A    between atoms: N_1  and  C_12
    2  A    between atoms: C_3  and  C_26
    3  A    between atoms: O_10  and  O_29
    4  A    between atoms: C_12  and  C_14
    5  A    between atoms: C_21  and  O_33
    6  A    between atoms: C_27  and  O_29
                            x       y       z     vdW  Elec       q    Type
                         _______ _______ _______ _____ _____    ______ ____

>  <TORSDO>
F 6

$$$$
=
 OpenBabel10222417573D

 33 36  0  0  1  0  0  0  0  0999 V2000
  184.8080  178.5810  142.2430 N   0  0  0  0  0  2  0  0  0  0  0  0
  184.1990  178.6100  140.9470 C   0  0  0  0  0  0  0  0  0  0  0  0
  180.4200  179.7350  139.8170 S   0  0  0  0  0  0  0  0  0  0  0  0
  178.9310  179.2360  144.7160 F   0  0  0  0  0  0  0  0  0  0  0  0
  179.9030  179.1430  143.7760 C   0  0  0  0  0  0  0  0  0  0  0  0
  181.8720  178.9480  141.8950 C   0  0  0  0  0  0  0  0  0  0  0  0
  181.1860  178.6990  144.1330 C   0  0  0  0  0  3  0  0  0  0  0  0
  180.6180  179.3730  141.5480 C   0  0  0  0  0  0  0  0  0  0  0  0
  182.7870  178.8500  140.8110 N   0  0  0  0  0  0  0  0  0  0  0  0
  182.1600  179.1850  139.5260 C   0  0  1  0  0  3  0  0  0  0  0  0
  184.9090  178.4440  139.9180 O   0  0  0  0  0  0  0  0  0  0  0  0
  182.1540  178.6030  143.1790 N   0  0  0  0  0  0  0  0  0  0  0  0
  179.6380  179.4730  142.4800 N   0  0  0  0  0  0  0  0  0  0  0  0
  182.1990  178.0220  138.5810 C   0  0  0  0  0  0  0  0  0  0  0  0
  182.7620  178.1380  137.3030 C   0  0  0  0  0  3  0  0  0  0  0  0
  182.7530  177.0460  136.4320 C   0  0  0  0  0  3  0  0  0  0  0  0
  182.1810  175.8250  136.8280 C   0  0  0  0  0  0  0  0  0  0  0  0
  181.6400  176.8060  138.9810 C   0  0  0  0  0  3  0  0  0  0  0  0
  181.6230  175.7070  138.1110 C   0  0  0  0  0  0  0  0  0  0  0  0
  181.3280  174.6730  134.8100 C   0  0  0  0  0  1  0  0  0  0  0  0
  182.1470  174.7210  135.9710 O   0  0  0  0  0  0  0  0  0  0  0  0
  181.0280  174.5030  138.5020 O   0  0  0  0  0  0  0  0  0  0  0  0
  179.7160  174.2860  138.3410 O   0  0  0  0  0  0  0  0  0  0  0  0
  179.6370  172.9880  137.8270 C   0  0  0  0  0  1  0  0  0  0  0  0
  186.2200  178.2720  142.4320 C   0  0  0  0  0  2  0  0  0  0  0  0
  187.0720  177.6990  146.5950 C   0  0  0  0  0  3  0  0  0  0  0  0
  187.7280  177.5090  144.2700 C   0  0  0  0  0  3  0  0  0  0  0  0
  185.5620  178.4300  144.8460 C   0  0  0  0  0  3  0  0  0  0  0  0
  186.5000  178.0510  143.8770 C   0  0  0  0  0  0  0  0  0  0  0  0
  184.9240  178.6350  147.1670 O   0  0  0  0  0  1  0  0  0  0  0  0
  189.1980  176.7950  146.0070 F   0  0  0  0  0  0  0  0  0  0  0  0
  185.8510  178.2550  146.2040 C   0  0  0  0  0  0  0  0  0  0  0  0
  188.0130  177.3290  145.6270 C   0  0  0  0  0  0  0  0  0  0  0  0
  1 25  1  0  0  0  0
  2  1  1  0  0  0  0
  3  8  1  0  0  0  0
  5  7  1  0  0  0  0
  5  4  1  0  0  0  0
  6 12  1  0  0  0  0
  8  6  2  0  0  0  0
  8 13  1  0  0  0  0
  9  2  1  0  0  0  0
  9  6  1  0  0  0  0
 10 14  1  6  0  0  0
 10  3  1  0  0  0  0
 10  9  1  0  0  0  0
 11  2  2  0  0  0  0
 12  7  2  0  0  0  0
 13  5  2  0  0  0  0
 14 18  1  0  0  0  0
 15 14  2  0  0  0  0
 16 17  2  0  0  0  0
 16 15  1  0  0  0  0
 17 19  1  0  0  0  0
 19 22  1  0  0  0  0
 19 18  2  0  0  0  0
 20 21  1  0  0  0  0
 21 17  1  0  0  0  0
 23 22  1  0  0  0  0
 24 23  1  0  0  0  0
 25 29  1  0  0  0  0
 27 33  1  0  0  0  0
 28 32  2  0  0  0  0
 29 27  2  0  0  0  0
 29 28  1  0  0  0  0
 32 26  1  0  0  0  0
 32 30  1  0  0  0  0
 33 31  1  0  0  0  0
 33 26  2  0  0  0  0
M  END
>  <MODEL>
8

>  <REMARK>
 VINA RESULT:      -7.6      6.252      8.133
  Name = 
  6 active torsions:
  status: ('A' for Active; 'I' for Inactive)
    1  A    between atoms: N_1  and  C_12
    2  A    between atoms: C_3  and  C_26
    3  A    between atoms: O_10  and  O_29
    4  A    between atoms: C_12  and  C_14
    5  A    between atoms: C_21  and  O_33
    6  A    between atoms: C_27  and  O_29
                            x       y       z     vdW  Elec       q    Type
                         _______ _______ _______ _____ _____    ______ ____

>  <TORSDO>
F 6

$$$$
=
 OpenBabel10222417573D

 33 36  0  0  1  0  0  0  0  0999 V2000
  189.5020  177.9790  142.4780 N   0  0  0  0  0  2  0  0  0  0  0  0
  189.4360  177.8650  141.0510 C   0  0  0  0  0  0  0  0  0  0  0  0
  186.4080  178.8050  138.4500 S   0  0  0  0  0  0  0  0  0  0  0  0
  183.1430  178.7860  142.4250 F   0  0  0  0  0  0  0  0  0  0  0  0
  184.3980  178.6130  141.9450 C   0  0  0  0  0  0  0  0  0  0  0  0
  186.9330  178.2600  140.9940 C   0  0  0  0  0  0  0  0  0  0  0  0
  185.4350  178.2300  142.8100 C   0  0  0  0  0  3  0  0  0  0  0  0
  185.9180  178.6250  140.1510 C   0  0  0  0  0  0  0  0  0  0  0  0
  188.1910  178.0660  140.3600 N   0  0  0  0  0  0  0  0  0  0  0  0
  188.1130  178.2560  138.9060 C   0  0  1  0  0  3  0  0  0  0  0  0
  190.4830  177.6060  140.3960 O   0  0  0  0  0  0  0  0  0  0  0  0
  186.6930  178.0530  142.3150 N   0  0  0  0  0  0  0  0  0  0  0  0
  184.6590  178.8040  140.6200 N   0  0  0  0  0  0  0  0  0  0  0  0
  188.4830  177.0040  138.1720 C   0  0  0  0  0  0  0  0  0  0  0  0
  189.8010  176.7600  137.7620 C   0  0  0  0  0  3  0  0  0  0  0  0
  190.1090  175.5990  137.0480 C   0  0  0  0  0  3  0  0  0  0  0  0
  189.1040  174.6670  136.7370 C   0  0  0  0  0  0  0  0  0  0  0  0
  187.4850  176.0740  137.8730 C   0  0  0  0  0  3  0  0  0  0  0  0
  187.7850  174.9090  137.1540 C   0  0  0  0  0  0  0  0  0  0  0  0
  190.7010  173.0010  135.8430 C   0  0  0  0  0  1  0  0  0  0  0  0
  189.3830  173.5040  136.0130 O   0  0  0  0  0  0  0  0  0  0  0  0
  186.7750  174.0000  136.8240 O   0  0  0  0  0  0  0  0  0  0  0  0
  186.4170  173.0160  137.6600 O   0  0  0  0  0  0  0  0  0  0  0  0
  185.0200  173.0040  137.6090 C   0  0  0  0  0  1  0  0  0  0  0  0
  190.7250  177.7150  143.2240 C   0  0  0  0  0  2  0  0  0  0  0  0
  189.8130  176.9550  147.3440 C   0  0  0  0  0  3  0  0  0  0  0  0
  191.3980  176.9720  145.5120 C   0  0  0  0  0  3  0  0  0  0  0  0
  189.1050  177.6600  145.1370 C   0  0  0  0  0  3  0  0  0  0  0  0
  190.3960  177.4280  144.6470 C   0  0  0  0  0  0  0  0  0  0  0  0
  187.5370  177.6600  146.9740 O   0  0  0  0  0  1  0  0  0  0  0  0
  192.0740  176.2820  147.6920 F   0  0  0  0  0  0  0  0  0  0  0  0
  188.8150  177.4260  146.4860 C   0  0  0  0  0  0  0  0  0  0  0  0
  191.1060  176.7330  146.8580 C   0  0  0  0  0  0  0  0  0  0  0  0
  1 25  1  0  0  0  0
  2  1  1  0  0  0  0
  3 10  1  0  0  0  0
  3  8  1  0  0  0  0
  5  4  1  0  0  0  0
  5  7  1  0  0  0  0
  6 12  1  0  0  0  0
  8 13  1  0  0  0  0
  8  6  2  0  0  0  0
  9  6  1  0  0  0  0
  9  2  1  0  0  0  0
 10 14  1  6  0  0  0
 10  9  1  0  0  0  0
 11  2  2  0  0  0  0
 12  7  2  0  0  0  0
 13  5  2  0  0  0  0
 15 14  2  0  0  0  0
 16 15  1  0  0  0  0
 17 16  2  0  0  0  0
 17 19  1  0  0  0  0
 18 14  1  0  0  0  0
 19 18  2  0  0  0  0
 20 21  1  0  0  0  0
 21 17  1  0  0  0  0
 22 19  1  0  0  0  0
 22 23  1  0  0  0  0
 24 23  1  0  0  0  0
 25 29  1  0  0  0  0
 27 33  2  0  0  0  0
 28 32  1  0  0  0  0
 29 28  2  0  0  0  0
 29 27  1  0  0  0  0
 32 30  1  0  0  0  0
 32 26  2  0  0  0  0
 33 26  1  0  0  0  0
 33 31  1  0  0  0  0
M  END
>  <MODEL>
9

>  <REMARK>
 VINA RESULT:      -7.4      2.169      3.273
  Name = 
  6 active torsions:
  status: ('A' for Active; 'I' for Inactive)
    1  A    between atoms: N_1  and  C_12
    2  A    between atoms: C_3  and  C_26
    3  A    between atoms: O_10  and  O_29
    4  A    between atoms: C_12  and  C_14
    5  A    between atoms: C_21  and  O_33
    6  A    between atoms: C_27  and  O_29
                            x       y       z     vdW  Elec       q    Type
                         _______ _______ _______ _____ _____    ______ ____

>  <TORSDO>
F 6

$$$$
