=
 OpenBabel10222421023D

 38 43  0  0  1  0  0  0  0  0999 V2000
  186.3950  178.4120  140.8690 C   0  0  0  0  0  0  0  0  0  0  0  0
  188.5910  178.5940  139.6100 C   0  0  2  0  0  3  0  0  0  0  0  0
  185.0570  178.0910  140.6430 C   0  0  0  0  0  3  0  0  0  0  0  0
  189.4490  178.5020  142.1550 C   0  0  1  0  0  3  0  0  0  0  0  0
  185.9090  178.4340  143.2990 C   0  0  0  0  0  0  0  0  0  0  0  0
  188.9480  178.4390  143.5540 N   0  0  0  0  0  0  0  0  0  0  0  0
  189.1590  177.2080  141.3800 C   0  0  1  0  0  3  0  0  0  0  0  0
  188.7080  177.9020  144.8320 C   0  0  0  0  0  0  0  0  0  0  0  0
  186.8650  178.6210  142.2110 C   0  0  0  0  0  0  0  0  0  0  0  0
  184.5840  178.1020  142.9900 C   0  0  0  0  0  3  0  0  0  0  0  0
  187.4620  178.1020  145.0640 C   0  0  0  0  0  0  0  0  0  0  0  0
  188.2830  179.2150  142.4550 C   0  0  2  0  0  3  0  0  0  0  0  0
  189.2280  177.3870  139.9780 O   0  0  0  0  0  0  0  0  0  0  0  0
  187.1750  178.4950  139.7020 O   0  0  0  0  0  0  0  0  0  0  0  0
  184.1580  177.9440  141.6830 C   0  0  0  0  0  3  0  0  0  0  0  0
  186.2470  178.4370  144.7690 C   0  0  0  0  0  0  0  0  0  0  0  0
  191.0800  177.4660  145.3700 C   0  0  0  0  0  0  0  0  0  0  0  0
  189.4010  176.8410  146.9710 C   0  0  0  0  0  2  0  0  0  0  0  0
  191.6930  175.8910  145.9210 S   0  0  0  0  0  0  0  0  0  0  0  0
  191.7660  178.2180  144.6960 O   0  0  0  0  0  0  0  0  0  0  0  0
  190.6830  176.1440  147.4060 C   0  0  0  0  0  2  0  0  0  0  0  0
  189.7530  177.8780  145.9090 C   0  0  2  0  0  3  0  0  0  0  0  0
  184.1040  179.1340  145.5460 O   0  0  0  0  0  0  0  0  0  0  0  0
  185.2830  178.8020  145.8370 C   0  0  0  0  0  0  0  0  0  0  0  0
  185.6890  178.8100  147.2730 C   0  0  0  0  0  1  0  0  0  0  0  0
  189.5960  175.3750  142.8420 O   0  0  0  0  0  1  0  0  0  0  0  0
  190.1400  176.1300  141.8030 C   0  0  0  0  0  2  0  0  0  0  0  0
  188.9740  178.9630  138.2860 O   0  0  0  0  0  0  0  0  0  0  0  0
  189.0850  176.5360  135.4850 C   0  0  0  0  0  3  0  0  0  0  0  0
  187.0450  177.8230  135.3130 C   0  0  0  0  0  0  0  0  0  0  0  0
  187.4000  178.5360  136.4600 C   0  0  0  0  0  3  0  0  0  0  0  0
  189.4480  177.2490  136.6330 C   0  0  0  0  0  0  0  0  0  0  0  0
  187.8880  176.8220  134.8250 C   0  0  0  0  0  3  0  0  0  0  0  0
  188.6020  178.2570  137.1310 C   0  0  0  0  0  0  0  0  0  0  0  0
  185.8830  178.1000  134.6760 F   0  0  0  0  0  0  0  0  0  0  0  0
  190.7320  176.9100  137.3220 C   0  0  0  0  0  2  0  0  0  0  0  0
  190.7820  175.4380  137.7040 C   0  0  0  0  0  2  0  0  0  0  0  0
  192.1810  174.8820  137.5160 C   0  0  0  0  0  1  0  0  0  0  0  0
  1  9  1  0  0  0  0
  2 28  1  6  0  0  0
  2 14  1  0  0  0  0
  2 13  1  0  0  0  0
  3  1  2  0  0  0  0
  3 15  1  0  0  0  0
  4 12  1  0  0  0  0
  4  6  1  1  0  0  0
  5 16  1  0  0  0  0
  6  8  1  0  0  0  0
  7 27  1  1  0  0  0
  7  4  1  0  0  0  0
  8 11  2  0  0  0  0
  9  5  2  0  0  0  0
 10  5  1  0  0  0  0
 12  9  1  6  0  0  0
 12  6  1  0  0  0  0
 13  7  1  0  0  0  0
 14  1  1  0  0  0  0
 15 10  2  0  0  0  0
 16 11  2  0  0  0  0
 16 24  1  0  0  0  0
 17 22  1  0  0  0  0
 17 19  1  0  0  0  0
 18 21  1  0  0  0  0
 19 21  1  0  0  0  0
 20 17  2  0  0  0  0
 22  8  1  6  0  0  0
 22 18  1  0  0  0  0
 23 24  2  0  0  0  0
 24 25  1  0  0  0  0
 27 26  1  0  0  0  0
 29 32  1  0  0  0  0
 30 31  2  0  0  0  0
 31 34  1  0  0  0  0
 32 34  2  0  0  0  0
 32 36  1  0  0  0  0
 33 30  1  0  0  0  0
 33 29  2  0  0  0  0
 34 28  1  0  0  0  0
 35 30  1  0  0  0  0
 36 37  1  0  0  0  0
 38 37  1  0  0  0  0
M  END
>  <MODEL>
1

>  <REMARK>
 VINA RESULT:      -8.4      0.000      0.000
  Name = 
  7 active torsions:
  status: ('A' for Active; 'I' for Inactive)
    1  A    between atoms: C_4  and  O_12
    2  A    between atoms: C_5  and  C_36
    3  A    between atoms: O_12  and  C_23
    4  A    between atoms: C_17  and  C_35
    5  A    between atoms: C_18  and  C_27
    6  A    between atoms: C_22  and  C_38
    7  A    between atoms: C_24  and  C_27
                            x       y       z     vdW  Elec       q    Type
                         _______ _______ _______ _____ _____    ______ ____

>  <TORSDO>
F 7

$$$$
=
 OpenBabel10222421023D

 38 43  0  0  1  0  0  0  0  0999 V2000
  186.3790  178.3700  140.8530 C   0  0  0  0  0  0  0  0  0  0  0  0
  188.5640  178.5240  139.5720 C   0  0  2  0  0  3  0  0  0  0  0  0
  185.0370  178.0520  140.6430 C   0  0  0  0  0  3  0  0  0  0  0  0
  189.4450  178.4650  142.1090 C   0  0  1  0  0  3  0  0  0  0  0  0
  185.9140  178.4300  143.2860 C   0  0  0  0  0  0  0  0  0  0  0  0
  188.9560  178.4250  143.5130 N   0  0  0  0  0  0  0  0  0  0  0  0
  189.1420  177.1620  141.3560 C   0  0  1  0  0  3  0  0  0  0  0  0
  188.7250  177.9080  144.8010 C   0  0  0  0  0  0  0  0  0  0  0  0
  186.8620  178.5970  142.1860 C   0  0  0  0  0  0  0  0  0  0  0  0
  184.5850  178.0990  142.9940 C   0  0  0  0  0  3  0  0  0  0  0  0
  187.4820  178.1160  145.0410 C   0  0  0  0  0  0  0  0  0  0  0  0
  188.2840  179.1880  142.4100 C   0  0  2  0  0  3  0  0  0  0  0  0
  189.1990  177.3200  139.9510 O   0  0  0  0  0  0  0  0  0  0  0  0
  187.1480  178.4330  139.6770 O   0  0  0  0  0  0  0  0  0  0  0  0
  184.1470  177.9240  141.6940 C   0  0  0  0  0  3  0  0  0  0  0  0
  186.2660  178.4520  144.7530 C   0  0  0  0  0  0  0  0  0  0  0  0
  191.1050  177.4900  145.3200 C   0  0  0  0  0  0  0  0  0  0  0  0
  189.4450  176.8590  146.9370 C   0  0  0  0  0  2  0  0  0  0  0  0
  191.7340  175.9210  145.8710 S   0  0  0  0  0  0  0  0  0  0  0  0
  191.7800  178.2450  144.6380 O   0  0  0  0  0  0  0  0  0  0  0  0
  190.7360  176.1720  147.3630 C   0  0  0  0  0  2  0  0  0  0  0  0
  189.7800  177.8950  145.8690 C   0  0  2  0  0  3  0  0  0  0  0  0
  184.1800  179.3030  145.5330 O   0  0  0  0  0  0  0  0  0  0  0  0
  185.3140  178.8380  145.8240 C   0  0  0  0  0  0  0  0  0  0  0  0
  185.6800  178.7090  147.2650 C   0  0  0  0  0  1  0  0  0  0  0  0
  189.5720  175.3300  142.8220 O   0  0  0  0  0  1  0  0  0  0  0  0
  190.1220  176.0860  141.7860 C   0  0  0  0  0  2  0  0  0  0  0  0
  188.9360  178.8720  138.2380 O   0  0  0  0  0  0  0  0  0  0  0  0
  188.7670  176.7740  135.1860 C   0  0  0  0  0  3  0  0  0  0  0  0
  190.8560  176.3250  136.3180 C   0  0  0  0  0  0  0  0  0  0  0  0
  190.5150  177.2470  137.3100 C   0  0  0  0  0  3  0  0  0  0  0  0
  188.4170  177.6970  136.1780 C   0  0  0  0  0  0  0  0  0  0  0  0
  189.9820  176.0900  135.2540 C   0  0  0  0  0  3  0  0  0  0  0  0
  189.2950  177.9420  137.2510 C   0  0  0  0  0  0  0  0  0  0  0  0
  192.0360  175.6640  136.3850 F   0  0  0  0  0  0  0  0  0  0  0  0
  187.1140  178.4220  136.0680 C   0  0  0  0  0  2  0  0  0  0  0  0
  185.9580  177.4530  135.8620 C   0  0  0  0  0  2  0  0  0  0  0  0
  185.6380  176.7180  137.1500 C   0  0  0  0  0  1  0  0  0  0  0  0
  1  9  1  0  0  0  0
  2 28  1  6  0  0  0
  2 14  1  0  0  0  0
  2 13  1  0  0  0  0
  3  1  2  0  0  0  0
  3 15  1  0  0  0  0
  4 12  1  0  0  0  0
  4  6  1  1  0  0  0
  5 16  1  0  0  0  0
  6  8  1  0  0  0  0
  7 27  1  1  0  0  0
  7  4  1  0  0  0  0
  8 11  2  0  0  0  0
  9  5  2  0  0  0  0
 10  5  1  0  0  0  0
 12  9  1  6  0  0  0
 12  6  1  0  0  0  0
 13  7  1  0  0  0  0
 14  1  1  0  0  0  0
 15 10  2  0  0  0  0
 16 11  2  0  0  0  0
 16 24  1  0  0  0  0
 17 22  1  0  0  0  0
 17 19  1  0  0  0  0
 18 21  1  0  0  0  0
 19 21  1  0  0  0  0
 20 17  2  0  0  0  0
 22  8  1  6  0  0  0
 22 18  1  0  0  0  0
 23 24  2  0  0  0  0
 24 25  1  0  0  0  0
 27 26  1  0  0  0  0
 29 33  2  0  0  0  0
 29 32  1  0  0  0  0
 30 35  1  0  0  0  0
 30 31  2  0  0  0  0
 32 34  2  0  0  0  0
 33 30  1  0  0  0  0
 34 31  1  0  0  0  0
 34 28  1  0  0  0  0
 36 32  1  0  0  0  0
 37 36  1  0  0  0  0
 37 38  1  0  0  0  0
M  END
>  <MODEL>
2

>  <REMARK>
 VINA RESULT:      -8.3      1.256      2.165
  Name = 
  7 active torsions:
  status: ('A' for Active; 'I' for Inactive)
    1  A    between atoms: C_4  and  O_12
    2  A    between atoms: C_5  and  C_36
    3  A    between atoms: O_12  and  C_23
    4  A    between atoms: C_17  and  C_35
    5  A    between atoms: C_18  and  C_27
    6  A    between atoms: C_22  and  C_38
    7  A    between atoms: C_24  and  C_27
                            x       y       z     vdW  Elec       q    Type
                         _______ _______ _______ _____ _____    ______ ____

>  <TORSDO>
F 7

$$$$
=
 OpenBabel10222421023D

 38 43  0  0  1  0  0  0  0  0999 V2000
  186.6240  178.1730  144.3260 C   0  0  0  0  0  0  0  0  0  0  0  0
  188.6670  177.0600  145.3380 C   0  0  2  0  0  3  0  0  0  0  0  0
  185.5230  178.9380  144.7110 C   0  0  0  0  0  3  0  0  0  0  0  0
  189.3270  177.1030  142.7330 C   0  0  1  0  0  3  0  0  0  0  0  0
  186.0040  178.5930  141.9630 C   0  0  0  0  0  0  0  0  0  0  0  0
  188.7940  177.4960  141.4010 N   0  0  0  0  0  0  0  0  0  0  0  0
  189.5970  178.3210  143.6290 C   0  0  1  0  0  3  0  0  0  0  0  0
  188.6900  178.2180  140.1980 C   0  0  0  0  0  0  0  0  0  0  0  0
  186.8900  177.9510  142.9320 C   0  0  0  0  0  0  0  0  0  0  0  0
  184.9260  179.3550  142.4290 C   0  0  0  0  0  3  0  0  0  0  0  0
  187.4480  178.5180  140.0800 C   0  0  0  0  0  0  0  0  0  0  0  0
  187.9600  176.9060  142.5000 C   0  0  2  0  0  3  0  0  0  0  0  0
  189.6860  177.9800  144.9990 O   0  0  0  0  0  0  0  0  0  0  0  0
  187.3900  177.6830  145.3980 O   0  0  0  0  0  0  0  0  0  0  0  0
  184.6780  179.5180  143.7810 C   0  0  0  0  0  3  0  0  0  0  0  0
  186.2180  178.6250  140.4700 C   0  0  0  0  0  0  0  0  0  0  0  0
  189.0320  178.5550  137.7740 C   0  0  0  0  0  0  0  0  0  0  0  0
  189.7250  176.4750  138.7580 C   0  0  0  0  0  2  0  0  0  0  0  0
  188.5130  177.3920  136.5330 S   0  0  0  0  0  0  0  0  0  0  0  0
  189.0490  179.7560  137.5570 O   0  0  0  0  0  0  0  0  0  0  0  0
  189.7290  176.2550  137.2510 C   0  0  0  0  0  2  0  0  0  0  0  0
  189.5930  177.9710  139.0250 C   0  0  2  0  0  3  0  0  0  0  0  0
  184.5680  179.8720  139.2870 O   0  0  0  0  0  0  0  0  0  0  0  0
  185.1200  178.7570  139.4820 C   0  0  0  0  0  0  0  0  0  0  0  0
  184.6260  177.5760  138.7140 C   0  0  0  0  0  1  0  0  0  0  0  0
  191.7760  179.0580  144.2590 O   0  0  0  0  0  1  0  0  0  0  0  0
  190.8810  179.0000  143.1900 C   0  0  0  0  0  2  0  0  0  0  0  0
  188.9700  176.4360  146.5850 O   0  0  0  0  0  0  0  0  0  0  0  0
  191.3800  177.9580  148.9560 C   0  0  0  0  0  3  0  0  0  0  0  0
  192.4370  176.0640  147.8870 C   0  0  0  0  0  0  0  0  0  0  0  0
  191.2720  175.8290  147.1540 C   0  0  0  0  0  3  0  0  0  0  0  0
  190.2100  177.7310  148.2220 C   0  0  0  0  0  0  0  0  0  0  0  0
  192.4910  177.1280  148.7900 C   0  0  0  0  0  3  0  0  0  0  0  0
  190.1490  176.6580  147.3130 C   0  0  0  0  0  0  0  0  0  0  0  0
  193.5130  175.2570  147.7270 F   0  0  0  0  0  0  0  0  0  0  0  0
  189.0350  178.6310  148.4330 C   0  0  0  0  0  2  0  0  0  0  0  0
  187.8010  177.8420  148.8440 C   0  0  0  0  0  2  0  0  0  0  0  0
  186.5580  178.4030  148.1790 C   0  0  0  0  0  1  0  0  0  0  0  0
  1  3  1  0  0  0  0
  1 14  1  0  0  0  0
  2 14  1  0  0  0  0
  2 28  1  1  0  0  0
  4  6  1  6  0  0  0
  4  7  1  0  0  0  0
  5 10  2  0  0  0  0
  5  9  1  0  0  0  0
  6 12  1  0  0  0  0
  7 27  1  6  0  0  0
  7 13  1  0  0  0  0
  8  6  1  0  0  0  0
  9  1  2  0  0  0  0
 10 15  1  0  0  0  0
 11  8  2  0  0  0  0
 11 16  2  0  0  0  0
 12  4  1  0  0  0  0
 12  9  1  1  0  0  0
 13  2  1  0  0  0  0
 15  3  2  0  0  0  0
 16  5  1  0  0  0  0
 17 22  1  0  0  0  0
 18 22  1  0  0  0  0
 19 21  1  0  0  0  0
 19 17  1  0  0  0  0
 20 17  2  0  0  0  0
 21 18  1  0  0  0  0
 22  8  1  1  0  0  0
 23 24  2  0  0  0  0
 24 16  1  0  0  0  0
 25 24  1  0  0  0  0
 27 26  1  0  0  0  0
 28 34  1  0  0  0  0
 30 33  2  0  0  0  0
 31 34  2  0  0  0  0
 31 30  1  0  0  0  0
 32 36  1  0  0  0  0
 32 29  2  0  0  0  0
 33 29  1  0  0  0  0
 34 32  1  0  0  0  0
 35 30  1  0  0  0  0
 36 37  1  0  0  0  0
 38 37  1  0  0  0  0
M  END
>  <MODEL>
3

>  <REMARK>
 VINA RESULT:      -8.3      3.500      8.215
  Name = 
  7 active torsions:
  status: ('A' for Active; 'I' for Inactive)
    1  A    between atoms: C_4  and  O_12
    2  A    between atoms: C_5  and  C_36
    3  A    between atoms: O_12  and  C_23
    4  A    between atoms: C_17  and  C_35
    5  A    between atoms: C_18  and  C_27
    6  A    between atoms: C_22  and  C_38
    7  A    between atoms: C_24  and  C_27
                            x       y       z     vdW  Elec       q    Type
                         _______ _______ _______ _____ _____    ______ ____

>  <TORSDO>
F 7

$$$$
=
 OpenBabel10222421023D

 38 43  0  0  1  0  0  0  0  0999 V2000
  182.8910  179.5430  138.9430 C   0  0  0  0  0  0  0  0  0  0  0  0
  185.0250  179.0150  140.2110 C   0  0  2  0  0  3  0  0  0  0  0  0
  182.0470  180.6200  138.6740 C   0  0  0  0  0  3  0  0  0  0  0  0
  184.8460  176.8920  138.5750 C   0  0  1  0  0  3  0  0  0  0  0  0
  181.6160  178.2160  137.2830 C   0  0  0  0  0  0  0  0  0  0  0  0
  183.9690  176.2910  137.5340 N   0  0  0  0  0  0  0  0  0  0  0  0
  185.5010  178.1940  138.0960 C   0  0  1  0  0  3  0  0  0  0  0  0
  183.5700  175.8490  136.2590 C   0  0  0  0  0  0  0  0  0  0  0  0
  182.6890  178.2880  138.2730 C   0  0  0  0  0  0  0  0  0  0  0  0
  180.8180  179.3440  137.0620 C   0  0  0  0  0  3  0  0  0  0  0  0
  182.3900  176.3200  136.0820 C   0  0  0  0  0  0  0  0  0  0  0  0
  183.4620  177.0220  138.7420 C   0  0  2  0  0  3  0  0  0  0  0  0
  185.9760  178.9900  139.1660 O   0  0  0  0  0  0  0  0  0  0  0  0
  183.8990  179.8200  139.8840 O   0  0  0  0  0  0  0  0  0  0  0  0
  181.0190  180.5270  137.7530 C   0  0  0  0  0  3  0  0  0  0  0  0
  181.3590  177.0530  136.3580 C   0  0  0  0  0  0  0  0  0  0  0  0
  184.1370  173.4870  136.7110 C   0  0  0  0  0  0  0  0  0  0  0  0
  185.4420  174.6970  135.0960 C   0  0  0  0  0  2  0  0  0  0  0  0
  185.7790  172.9220  137.0940 S   0  0  0  0  0  0  0  0  0  0  0  0
  183.1490  172.9420  137.1760 O   0  0  0  0  0  0  0  0  0  0  0  0
  186.2260  173.4300  135.4120 C   0  0  0  0  0  2  0  0  0  0  0  0
  184.0360  174.5500  135.6710 C   0  0  2  0  0  3  0  0  0  0  0  0
  179.7500  177.0400  134.6000 O   0  0  0  0  0  0  0  0  0  0  0  0
  180.0280  176.7300  135.7880 C   0  0  0  0  0  0  0  0  0  0  0  0
  178.9800  176.0550  136.6090 C   0  0  0  0  0  1  0  0  0  0  0  0
  187.3730  179.0300  136.8770 O   0  0  0  0  0  1  0  0  0  0  0  0
  186.6480  177.8710  137.1560 C   0  0  0  0  0  2  0  0  0  0  0  0
  185.6340  179.4860  141.4120 O   0  0  0  0  0  0  0  0  0  0  0  0
  185.9000  177.9070  144.7560 C   0  0  0  0  0  3  0  0  0  0  0  0
  187.5570  176.9170  143.2990 C   0  0  0  0  0  0  0  0  0  0  0  0
  187.1270  177.7380  142.2540 C   0  0  0  0  0  3  0  0  0  0  0  0
  185.4670  178.7350  143.7150 C   0  0  0  0  0  0  0  0  0  0  0  0
  186.9430  177.0000  144.5500 C   0  0  0  0  0  3  0  0  0  0  0  0
  186.0800  178.6540  142.4500 C   0  0  0  0  0  0  0  0  0  0  0  0
  188.5670  176.0370  143.0970 F   0  0  0  0  0  0  0  0  0  0  0  0
  184.3400  179.6860  143.9660 C   0  0  0  0  0  2  0  0  0  0  0  0
  183.0570  178.9440  144.3110 C   0  0  0  0  0  2  0  0  0  0  0  0
  182.0940  178.9640  143.1390 C   0  0  0  0  0  1  0  0  0  0  0  0
  1 14  1  0  0  0  0
  2 28  1  1  0  0  0
  3  1  1  0  0  0  0
  4  6  1  6  0  0  0
  4 12  1  0  0  0  0
  5  9  1  0  0  0  0
  6 12  1  0  0  0  0
  7 27  1  6  0  0  0
  7  4  1  0  0  0  0
  7 13  1  0  0  0  0
  8  6  1  0  0  0  0
  9  1  2  0  0  0  0
 10  5  2  0  0  0  0
 10 15  1  0  0  0  0
 11  8  2  0  0  0  0
 11 16  2  0  0  0  0
 12  9  1  6  0  0  0
 13  2  1  0  0  0  0
 14  2  1  0  0  0  0
 15  3  2  0  0  0  0
 16  5  1  0  0  0  0
 17 19  1  0  0  0  0
 17 20  2  0  0  0  0
 18 21  1  0  0  0  0
 18 22  1  0  0  0  0
 21 19  1  0  0  0  0
 22  8  1  1  0  0  0
 22 17  1  0  0  0  0
 23 24  2  0  0  0  0
 24 16  1  0  0  0  0
 24 25  1  0  0  0  0
 26 27  1  0  0  0  0
 28 34  1  0  0  0  0
 30 33  2  0  0  0  0
 31 34  2  0  0  0  0
 31 30  1  0  0  0  0
 32 36  1  0  0  0  0
 32 29  2  0  0  0  0
 33 29  1  0  0  0  0
 34 32  1  0  0  0  0
 35 30  1  0  0  0  0
 36 37  1  0  0  0  0
 38 37  1  0  0  0  0
M  END
>  <MODEL>
4

>  <REMARK>
 VINA RESULT:      -8.2      4.755      8.911
  Name = 
  7 active torsions:
  status: ('A' for Active; 'I' for Inactive)
    1  A    between atoms: C_4  and  O_12
    2  A    between atoms: C_5  and  C_36
    3  A    between atoms: O_12  and  C_23
    4  A    between atoms: C_17  and  C_35
    5  A    between atoms: C_18  and  C_27
    6  A    between atoms: C_22  and  C_38
    7  A    between atoms: C_24  and  C_27
                            x       y       z     vdW  Elec       q    Type
                         _______ _______ _______ _____ _____    ______ ____

>  <TORSDO>
F 7

$$$$
=
 OpenBabel10222421023D

 38 43  0  0  1  0  0  0  0  0999 V2000
  190.8920  177.7020  142.4490 C   0  0  0  0  0  0  0  0  0  0  0  0
  189.8500  177.2020  140.1900 C   0  0  2  0  0  3  0  0  0  0  0  0
  192.0640  178.2270  142.9920 C   0  0  0  0  0  3  0  0  0  0  0  0
  187.6940  177.1280  141.7920 C   0  0  1  0  0  3  0  0  0  0  0  0
  189.9090  177.7220  144.7230 C   0  0  0  0  0  0  0  0  0  0  0  0
  187.2970  177.2470  143.2200 N   0  0  0  0  0  0  0  0  0  0  0  0
  188.1970  178.4600  141.2190 C   0  0  1  0  0  3  0  0  0  0  0  0
  186.6930  177.7970  144.3660 C   0  0  0  0  0  0  0  0  0  0  0  0
  189.7760  177.4050  143.3030 C   0  0  0  0  0  0  0  0  0  0  0  0
  191.1150  178.2580  145.1910 C   0  0  0  0  0  3  0  0  0  0  0  0
  187.6000  177.7880  145.2740 C   0  0  0  0  0  0  0  0  0  0  0  0
  188.5660  176.5970  142.7510 C   0  0  2  0  0  3  0  0  0  0  0  0
  188.9620  178.2920  140.0410 O   0  0  0  0  0  0  0  0  0  0  0  0
  190.9340  177.5160  141.0560 O   0  0  0  0  0  0  0  0  0  0  0  0
  192.1830  178.4970  144.3430 C   0  0  0  0  0  3  0  0  0  0  0  0
  188.7990  177.6480  145.7420 C   0  0  0  0  0  0  0  0  0  0  0  0
  184.3950  178.3370  143.6380 C   0  0  0  0  0  0  0  0  0  0  0  0
  184.8820  178.3100  145.9900 C   0  0  0  0  0  2  0  0  0  0  0  0
  183.4910  179.7620  144.1980 S   0  0  0  0  0  0  0  0  0  0  0  0
  184.2340  177.8780  142.5180 O   0  0  0  0  0  0  0  0  0  0  0  0
  183.5340  179.0030  145.8430 C   0  0  0  0  0  2  0  0  0  0  0  0
  185.2300  177.6470  144.6610 C   0  0  2  0  0  3  0  0  0  0  0  0
  189.8030  176.5130  147.5820 O   0  0  0  0  0  0  0  0  0  0  0  0
  189.0230  177.4210  147.1910 C   0  0  0  0  0  0  0  0  0  0  0  0
  188.3160  178.2400  148.2200 C   0  0  0  0  0  1  0  0  0  0  0  0
  186.1810  178.7760  139.9840 O   0  0  0  0  0  1  0  0  0  0  0  0
  187.0160  179.3690  140.9320 C   0  0  0  0  0  2  0  0  0  0  0  0
  190.3410  176.7960  138.9130 O   0  0  0  0  0  0  0  0  0  0  0  0
  189.5690  174.1570  136.4260 C   0  0  0  0  0  3  0  0  0  0  0  0
  187.5580  175.4300  136.8530 C   0  0  0  0  0  0  0  0  0  0  0  0
  188.2580  176.2300  137.7580 C   0  0  0  0  0  3  0  0  0  0  0  0
  190.2780  174.9570  137.3290 C   0  0  0  0  0  0  0  0  0  0  0  0
  188.2130  174.3920  136.1870 C   0  0  0  0  0  3  0  0  0  0  0  0
  189.6220  176.0030  138.0060 C   0  0  0  0  0  0  0  0  0  0  0  0
  186.2430  175.6580  136.6240 F   0  0  0  0  0  0  0  0  0  0  0  0
  191.7260  174.6710  137.5700 C   0  0  0  0  0  2  0  0  0  0  0  0
  192.6070  175.3890  136.5600 C   0  0  0  0  0  2  0  0  0  0  0  0
  193.5240  176.3790  137.2550 C   0  0  0  0  0  1  0  0  0  0  0  0
  1  3  2  0  0  0  0
  1  9  1  0  0  0  0
  2 28  1  6  0  0  0
  2 14  1  0  0  0  0
  3 15  1  0  0  0  0
  4 12  1  0  0  0  0
  4  6  1  1  0  0  0
  5 10  1  0  0  0  0
  5 16  1  0  0  0  0
  6  8  1  0  0  0  0
  7 27  1  6  0  0  0
  7  4  1  0  0  0  0
  8 11  2  0  0  0  0
  9  5  2  0  0  0  0
 11 16  2  0  0  0  0
 12  6  1  0  0  0  0
 12  9  1  1  0  0  0
 13  2  1  0  0  0  0
 13  7  1  0  0  0  0
 14  1  1  0  0  0  0
 15 10  2  0  0  0  0
 16 24  1  0  0  0  0
 17 19  1  0  0  0  0
 17 22  1  0  0  0  0
 19 21  1  0  0  0  0
 20 17  2  0  0  0  0
 21 18  1  0  0  0  0
 22  8  1  6  0  0  0
 22 18  1  0  0  0  0
 24 23  2  0  0  0  0
 24 25  1  0  0  0  0
 26 27  1  0  0  0  0
 29 32  1  0  0  0  0
 30 31  2  0  0  0  0
 31 34  1  0  0  0  0
 32 36  1  0  0  0  0
 32 34  2  0  0  0  0
 33 29  2  0  0  0  0
 33 30  1  0  0  0  0
 34 28  1  0  0  0  0
 35 30  1  0  0  0  0
 37 38  1  0  0  0  0
 37 36  1  0  0  0  0
M  END
>  <MODEL>
5

>  <REMARK>
 VINA RESULT:      -8.2      2.399      4.531
  Name = 
  7 active torsions:
  status: ('A' for Active; 'I' for Inactive)
    1  A    between atoms: C_4  and  O_12
    2  A    between atoms: C_5  and  C_36
    3  A    between atoms: O_12  and  C_23
    4  A    between atoms: C_17  and  C_35
    5  A    between atoms: C_18  and  C_27
    6  A    between atoms: C_22  and  C_38
    7  A    between atoms: C_24  and  C_27
                            x       y       z     vdW  Elec       q    Type
                         _______ _______ _______ _____ _____    ______ ____

>  <TORSDO>
F 7

$$$$
=
 OpenBabel10222421023D

 38 43  0  0  1  0  0  0  0  0999 V2000
  184.6040  179.1290  142.1700 C   0  0  0  0  0  0  0  0  0  0  0  0
  185.6530  178.7880  139.8850 C   0  0  2  0  0  3  0  0  0  0  0  0
  184.8880  179.7290  143.3970 C   0  0  0  0  0  3  0  0  0  0  0  0
  183.0750  178.2360  139.3680 C   0  0  1  0  0  3  0  0  0  0  0  0
  182.2930  178.7360  142.9720 C   0  0  0  0  0  0  0  0  0  0  0  0
  181.7500  178.1220  140.0340 N   0  0  0  0  0  0  0  0  0  0  0  0
  183.5850  179.6830  139.3410 C   0  0  1  0  0  3  0  0  0  0  0  0
  180.4170  178.4420  140.3520 C   0  0  0  0  0  0  0  0  0  0  0  0
  183.2980  178.5860  141.9220 C   0  0  0  0  0  0  0  0  0  0  0  0
  182.6520  179.3600  144.1730 C   0  0  0  0  0  3  0  0  0  0  0  0
  180.3550  178.4350  141.6340 C   0  0  0  0  0  0  0  0  0  0  0  0
  183.0460  177.7060  140.6640 C   0  0  2  0  0  3  0  0  0  0  0  0
  184.9800  179.7640  139.1160 O   0  0  0  0  0  0  0  0  0  0  0  0
  185.6810  179.1270  141.2660 O   0  0  0  0  0  0  0  0  0  0  0  0
  183.9320  179.8390  144.3910 C   0  0  0  0  0  3  0  0  0  0  0  0
  180.8300  178.3920  142.8370 C   0  0  0  0  0  0  0  0  0  0  0  0
  179.2740  176.6130  139.1450 C   0  0  0  0  0  0  0  0  0  0  0  0
  179.3600  178.7880  138.1290 C   0  0  0  0  0  2  0  0  0  0  0  0
  179.6040  176.1930  137.4500 S   0  0  0  0  0  0  0  0  0  0  0  0
  178.9470  175.7670  139.9620 O   0  0  0  0  0  0  0  0  0  0  0  0
  178.9310  177.8230  137.0320 C   0  0  0  0  0  2  0  0  0  0  0  0
  179.2620  178.0680  139.4700 C   0  0  2  0  0  3  0  0  0  0  0  0
  179.9400  176.8280  144.3990 O   0  0  0  0  0  0  0  0  0  0  0  0
  179.9620  178.0150  143.9800 C   0  0  0  0  0  0  0  0  0  0  0  0
  179.0800  179.0190  144.6440 C   0  0  0  0  0  1  0  0  0  0  0  0
  182.0660  181.4550  138.8490 O   0  0  0  0  0  1  0  0  0  0  0  0
  182.8510  180.4610  138.2640 C   0  0  0  0  0  2  0  0  0  0  0  0
  186.9820  178.6130  139.3940 O   0  0  0  0  0  0  0  0  0  0  0  0
  190.0380  176.7560  140.3710 C   0  0  0  0  0  3  0  0  0  0  0  0
  189.3140  178.0960  142.2490 C   0  0  0  0  0  0  0  0  0  0  0  0
  188.2400  178.5720  141.4930 C   0  0  0  0  0  3  0  0  0  0  0  0
  188.9630  177.2260  139.6090 C   0  0  0  0  0  0  0  0  0  0  0  0
  190.2140  177.1880  141.6880 C   0  0  0  0  0  3  0  0  0  0  0  0
  188.0540  178.1440  140.1680 C   0  0  0  0  0  0  0  0  0  0  0  0
  189.4830  178.5180  143.5250 F   0  0  0  0  0  0  0  0  0  0  0  0
  188.8110  176.7530  138.1990 C   0  0  0  0  0  2  0  0  0  0  0  0
  189.7810  177.4660  137.2680 C   0  0  0  0  0  2  0  0  0  0  0  0
  189.0390  178.1130  136.1130 C   0  0  0  0  0  1  0  0  0  0  0  0
  1  3  1  0  0  0  0
  2 28  1  6  0  0  0
  2 14  1  0  0  0  0
  3 15  2  0  0  0  0
  4  6  1  1  0  0  0
  4 12  1  0  0  0  0
  5 10  2  0  0  0  0
  6  8  1  0  0  0  0
  6 12  1  0  0  0  0
  7 27  1  6  0  0  0
  7  4  1  0  0  0  0
  8 11  2  0  0  0  0
  9  1  2  0  0  0  0
  9  5  1  0  0  0  0
 10 15  1  0  0  0  0
 11 16  2  0  0  0  0
 12  9  1  1  0  0  0
 13  7  1  0  0  0  0
 13  2  1  0  0  0  0
 14  1  1  0  0  0  0
 16  5  1  0  0  0  0
 16 24  1  0  0  0  0
 17 22  1  0  0  0  0
 17 20  2  0  0  0  0
 18 22  1  0  0  0  0
 19 17  1  0  0  0  0
 21 19  1  0  0  0  0
 21 18  1  0  0  0  0
 22  8  1  1  0  0  0
 24 23  2  0  0  0  0
 24 25  1  0  0  0  0
 27 26  1  0  0  0  0
 28 34  1  0  0  0  0
 29 33  1  0  0  0  0
 30 35  1  0  0  0  0
 31 30  1  0  0  0  0
 32 34  1  0  0  0  0
 32 29  2  0  0  0  0
 33 30  2  0  0  0  0
 34 31  2  0  0  0  0
 36 32  1  0  0  0  0
 37 36  1  0  0  0  0
 38 37  1  0  0  0  0
M  END
>  <MODEL>
6

>  <REMARK>
 VINA RESULT:      -7.9      4.666      7.690
  Name = 
  7 active torsions:
  status: ('A' for Active; 'I' for Inactive)
    1  A    between atoms: C_4  and  O_12
    2  A    between atoms: C_5  and  C_36
    3  A    between atoms: O_12  and  C_23
    4  A    between atoms: C_17  and  C_35
    5  A    between atoms: C_18  and  C_27
    6  A    between atoms: C_22  and  C_38
    7  A    between atoms: C_24  and  C_27
                            x       y       z     vdW  Elec       q    Type
                         _______ _______ _______ _____ _____    ______ ____

>  <TORSDO>
F 7

$$$$
=
 OpenBabel10222421023D

 38 43  0  0  1  0  0  0  0  0999 V2000
  183.0880  179.6450  138.9110 C   0  0  0  0  0  0  0  0  0  0  0  0
  185.2830  178.9580  139.9810 C   0  0  2  0  0  3  0  0  0  0  0  0
  182.3020  180.7820  138.7190 C   0  0  0  0  0  3  0  0  0  0  0  0
  184.8050  176.8630  138.3680 C   0  0  1  0  0  3  0  0  0  0  0  0
  181.5760  178.4240  137.3740 C   0  0  0  0  0  0  0  0  0  0  0  0
  183.7970  176.3330  137.4110 N   0  0  0  0  0  0  0  0  0  0  0  0
  185.5070  178.1180  137.8320 C   0  0  1  0  0  3  0  0  0  0  0  0
  183.2540  175.9290  136.1780 C   0  0  0  0  0  0  0  0  0  0  0  0
  182.7360  178.4130  138.2620 C   0  0  0  0  0  0  0  0  0  0  0  0
  180.8440  179.6080  137.2250 C   0  0  0  0  0  3  0  0  0  0  0  0
  182.0990  176.4840  136.1080 C   0  0  0  0  0  0  0  0  0  0  0  0
  183.4550  177.0910  138.6600 C   0  0  2  0  0  3  0  0  0  0  0  0
  186.1320  178.8710  138.8540 O   0  0  0  0  0  0  0  0  0  0  0  0
  184.1930  179.8440  139.7570 O   0  0  0  0  0  0  0  0  0  0  0  0
  181.1910  180.7680  137.8950 C   0  0  0  0  0  3  0  0  0  0  0  0
  181.1530  177.2880  136.4760 C   0  0  0  0  0  0  0  0  0  0  0  0
  183.1720  173.4730  136.4370 C   0  0  0  0  0  0  0  0  0  0  0  0
  185.0740  174.4540  135.3450 C   0  0  0  0  0  2  0  0  0  0  0  0
  184.5010  172.5080  137.1170 S   0  0  0  0  0  0  0  0  0  0  0  0
  182.0050  173.1460  136.5820 O   0  0  0  0  0  0  0  0  0  0  0  0
  185.4630  173.0180  135.6680 C   0  0  0  0  0  2  0  0  0  0  0  0
  183.5700  174.6030  135.5500 C   0  0  2  0  0  3  0  0  0  0  0  0
  178.9310  176.4820  136.7810 O   0  0  0  0  0  0  0  0  0  0  0  0
  179.7560  177.0650  136.0290 C   0  0  0  0  0  0  0  0  0  0  0  0
  179.2990  177.5010  134.6770 C   0  0  0  0  0  1  0  0  0  0  0  0
  187.7660  178.3090  137.0920 O   0  0  0  0  0  1  0  0  0  0  0  0
  186.5380  177.7190  136.7920 C   0  0  0  0  0  2  0  0  0  0  0  0
  186.0310  179.3760  141.1220 O   0  0  0  0  0  0  0  0  0  0  0  0
  186.4010  177.7800  144.4480 C   0  0  0  0  0  3  0  0  0  0  0  0
  184.2990  178.9740  144.3930 C   0  0  0  0  0  0  0  0  0  0  0  0
  184.5630  179.3760  143.0810 C   0  0  0  0  0  3  0  0  0  0  0  0
  186.6710  178.1760  143.1330 C   0  0  0  0  0  0  0  0  0  0  0  0
  185.2190  178.1770  145.0770 C   0  0  0  0  0  3  0  0  0  0  0  0
  185.7490  178.9820  142.4390 C   0  0  0  0  0  0  0  0  0  0  0  0
  183.1530  179.3620  145.0010 F   0  0  0  0  0  0  0  0  0  0  0  0
  187.9520  177.7430  142.4940 C   0  0  0  0  0  2  0  0  0  0  0  0
  188.5150  176.5020  143.1700 C   0  0  0  0  0  2  0  0  0  0  0  0
  189.8970  176.7780  143.7330 C   0  0  0  0  0  1  0  0  0  0  0  0
  1 14  1  0  0  0  0
  2 28  1  1  0  0  0
  3  1  1  0  0  0  0
  4  6  1  6  0  0  0
  4 12  1  0  0  0  0
  5  9  1  0  0  0  0
  6 12  1  0  0  0  0
  7 27  1  6  0  0  0
  7  4  1  0  0  0  0
  7 13  1  0  0  0  0
  8  6  1  0  0  0  0
  9  1  2  0  0  0  0
 10  5  2  0  0  0  0
 10 15  1  0  0  0  0
 11  8  2  0  0  0  0
 11 16  2  0  0  0  0
 12  9  1  6  0  0  0
 13  2  1  0  0  0  0
 14  2  1  0  0  0  0
 15  3  2  0  0  0  0
 16  5  1  0  0  0  0
 17 20  2  0  0  0  0
 17 19  1  0  0  0  0
 18 22  1  0  0  0  0
 18 21  1  0  0  0  0
 21 19  1  0  0  0  0
 22  8  1  1  0  0  0
 22 17  1  0  0  0  0
 24 16  1  0  0  0  0
 24 23  2  0  0  0  0
 25 24  1  0  0  0  0
 27 26  1  0  0  0  0
 28 34  1  0  0  0  0
 29 33  1  0  0  0  0
 30 35  1  0  0  0  0
 30 33  2  0  0  0  0
 31 30  1  0  0  0  0
 32 29  2  0  0  0  0
 34 31  2  0  0  0  0
 34 32  1  0  0  0  0
 36 32  1  0  0  0  0
 36 37  1  0  0  0  0
 37 38  1  0  0  0  0
M  END
>  <MODEL>
7

>  <REMARK>
 VINA RESULT:      -7.8      4.965      8.765
  Name = 
  7 active torsions:
  status: ('A' for Active; 'I' for Inactive)
    1  A    between atoms: C_4  and  O_12
    2  A    between atoms: C_5  and  C_36
    3  A    between atoms: O_12  and  C_23
    4  A    between atoms: C_17  and  C_35
    5  A    between atoms: C_18  and  C_27
    6  A    between atoms: C_22  and  C_38
    7  A    between atoms: C_24  and  C_27
                            x       y       z     vdW  Elec       q    Type
                         _______ _______ _______ _____ _____    ______ ____

>  <TORSDO>
F 7

$$$$
=
 OpenBabel10222421023D

 38 43  0  0  1  0  0  0  0  0999 V2000
  188.6030  177.4670  140.2330 C   0  0  0  0  0  0  0  0  0  0  0  0
  190.3220  176.6470  141.9090 C   0  0  2  0  0  3  0  0  0  0  0  0
  187.5000  178.3190  140.1630 C   0  0  0  0  0  3  0  0  0  0  0  0
  191.4940  175.9830  139.5840 C   0  0  1  0  0  3  0  0  0  0  0  0
  188.5020  177.2450  137.7670 C   0  0  0  0  0  0  0  0  0  0  0  0
  191.2690  176.0090  138.1140 N   0  0  0  0  0  0  0  0  0  0  0  0
  191.6590  177.3930  140.1680 C   0  0  1  0  0  3  0  0  0  0  0  0
  191.4570  176.3820  136.7710 C   0  0  0  0  0  0  0  0  0  0  0  0
  189.1300  176.8770  139.0340 C   0  0  0  0  0  0  0  0  0  0  0  0
  187.4050  178.1140  137.7790 C   0  0  0  0  0  3  0  0  0  0  0  0
  190.2870  176.6520  136.3180 C   0  0  0  0  0  0  0  0  0  0  0  0
  190.1930  175.7440  139.1260 C   0  0  2  0  0  3  0  0  0  0  0  0
  191.4470  177.4310  141.5670 O   0  0  0  0  0  0  0  0  0  0  0  0
  189.1030  177.2760  141.5330 O   0  0  0  0  0  0  0  0  0  0  0  0
  186.9010  178.6360  138.9570 C   0  0  0  0  0  3  0  0  0  0  0  0
  189.0140  176.8720  136.3980 C   0  0  0  0  0  0  0  0  0  0  0  0
  192.6700  174.3430  136.0810 C   0  0  0  0  0  0  0  0  0  0  0  0
  193.9090  176.3820  136.3600 C   0  0  0  0  0  2  0  0  0  0  0  0
  194.1410  173.7500  136.8850 S   0  0  0  0  0  0  0  0  0  0  0  0
  191.8660  173.5770  135.5740 O   0  0  0  0  0  0  0  0  0  0  0  0
  194.9410  175.2640  136.2890 C   0  0  0  0  0  2  0  0  0  0  0  0
  192.5600  175.8210  135.9220 C   0  0  2  0  0  3  0  0  0  0  0  0
  187.7380  177.7720  134.5970 O   0  0  0  0  0  0  0  0  0  0  0  0
  188.1490  176.7450  135.1990 C   0  0  0  0  0  0  0  0  0  0  0  0
  187.7240  175.4070  134.6910 C   0  0  0  0  0  1  0  0  0  0  0  0
  193.9690  176.8700  139.8880 O   0  0  0  0  0  1  0  0  0  0  0  0
  193.0470  177.9170  139.8500 C   0  0  0  0  0  2  0  0  0  0  0  0
  190.3250  176.3770  143.3100 O   0  0  0  0  0  0  0  0  0  0  0  0
  188.7560  177.6730  146.4100 C   0  0  0  0  0  3  0  0  0  0  0  0
  187.0390  177.4040  144.7280 C   0  0  0  0  0  0  0  0  0  0  0  0
  187.9990  176.9410  143.8240 C   0  0  0  0  0  3  0  0  0  0  0  0
  189.7220  177.2070  145.5110 C   0  0  0  0  0  0  0  0  0  0  0  0
  187.4180  177.7710  146.0210 C   0  0  0  0  0  3  0  0  0  0  0  0
  189.3470  176.8390  144.2050 C   0  0  0  0  0  0  0  0  0  0  0  0
  185.7430  177.5000  144.3480 F   0  0  0  0  0  0  0  0  0  0  0  0
  191.1470  177.1260  145.9560 C   0  0  0  0  0  2  0  0  0  0  0  0
  191.2550  176.5760  147.3700 C   0  0  0  0  0  2  0  0  0  0  0  0
  192.4320  175.6260  147.4880 C   0  0  0  0  0  1  0  0  0  0  0  0
  1 14  1  0  0  0  0
  2 28  1  1  0  0  0
  3  1  1  0  0  0  0
  4  6  1  6  0  0  0
  4  7  1  0  0  0  0
  5 10  2  0  0  0  0
  5  9  1  0  0  0  0
  6 12  1  0  0  0  0
  7 27  1  1  0  0  0
  7 13  1  0  0  0  0
  8  6  1  0  0  0  0
  9  1  2  0  0  0  0
 10 15  1  0  0  0  0
 11 16  2  0  0  0  0
 11  8  2  0  0  0  0
 12  9  1  1  0  0  0
 12  4  1  0  0  0  0
 13  2  1  0  0  0  0
 14  2  1  0  0  0  0
 15  3  2  0  0  0  0
 16  5  1  0  0  0  0
 17 19  1  0  0  0  0
 20 17  2  0  0  0  0
 21 18  1  0  0  0  0
 21 19  1  0  0  0  0
 22 17  1  0  0  0  0
 22 18  1  0  0  0  0
 22  8  1  1  0  0  0
 23 24  2  0  0  0  0
 24 16  1  0  0  0  0
 25 24  1  0  0  0  0
 27 26  1  0  0  0  0
 28 34  1  0  0  0  0
 30 33  2  0  0  0  0
 31 34  2  0  0  0  0
 31 30  1  0  0  0  0
 32 36  1  0  0  0  0
 32 29  2  0  0  0  0
 33 29  1  0  0  0  0
 34 32  1  0  0  0  0
 35 30  1  0  0  0  0
 36 37  1  0  0  0  0
 37 38  1  0  0  0  0
M  END
>  <MODEL>
8

>  <REMARK>
 VINA RESULT:      -7.8      3.236      8.220
  Name = 
  7 active torsions:
  status: ('A' for Active; 'I' for Inactive)
    1  A    between atoms: C_4  and  O_12
    2  A    between atoms: C_5  and  C_36
    3  A    between atoms: O_12  and  C_23
    4  A    between atoms: C_17  and  C_35
    5  A    between atoms: C_18  and  C_27
    6  A    between atoms: C_22  and  C_38
    7  A    between atoms: C_24  and  C_27
                            x       y       z     vdW  Elec       q    Type
                         _______ _______ _______ _____ _____    ______ ____

>  <TORSDO>
F 7

$$$$
=
 OpenBabel10222421023D

 38 43  0  0  1  0  0  0  0  0999 V2000
  190.9720  177.7520  142.3120 C   0  0  0  0  0  0  0  0  0  0  0  0
  189.9270  177.4210  140.0240 C   0  0  2  0  0  3  0  0  0  0  0  0
  192.1490  178.2270  142.8910 C   0  0  0  0  0  3  0  0  0  0  0  0
  187.7700  177.2540  141.6170 C   0  0  1  0  0  3  0  0  0  0  0  0
  189.9880  177.6220  144.5830 C   0  0  0  0  0  0  0  0  0  0  0  0
  187.3730  177.2770  143.0500 N   0  0  0  0  0  0  0  0  0  0  0  0
  188.2850  178.6190  141.1390 C   0  0  1  0  0  3  0  0  0  0  0  0
  186.7740  177.7510  144.2320 C   0  0  0  0  0  0  0  0  0  0  0  0
  189.8530  177.4060  143.1440 C   0  0  0  0  0  0  0  0  0  0  0  0
  191.1990  178.1130  145.0870 C   0  0  0  0  0  3  0  0  0  0  0  0
  187.6800  177.6700  145.1370 C   0  0  0  0  0  0  0  0  0  0  0  0
  188.6360  176.6500  142.5360 C   0  0  2  0  0  3  0  0  0  0  0  0
  189.0490  178.5270  139.9520 O   0  0  0  0  0  0  0  0  0  0  0  0
  191.0130  177.6630  140.9100 O   0  0  0  0  0  0  0  0  0  0  0  0
  192.2690  178.4010  144.2580 C   0  0  0  0  0  3  0  0  0  0  0  0
  188.8770  177.4860  145.5940 C   0  0  0  0  0  0  0  0  0  0  0  0
  184.4780  178.2710  143.4800 C   0  0  0  0  0  0  0  0  0  0  0  0
  184.9460  178.2640  145.8370 C   0  0  0  0  0  2  0  0  0  0  0  0
  183.5610  179.6950  144.0220 S   0  0  0  0  0  0  0  0  0  0  0  0
  184.3300  177.8030  142.3630 O   0  0  0  0  0  0  0  0  0  0  0  0
  183.5950  178.9470  145.6740 C   0  0  0  0  0  2  0  0  0  0  0  0
  185.3090  177.5930  144.5160 C   0  0  2  0  0  3  0  0  0  0  0  0
  189.9320  176.2710  147.3520 O   0  0  0  0  0  0  0  0  0  0  0  0
  189.0980  177.1560  147.0240 C   0  0  0  0  0  0  0  0  0  0  0  0
  188.3260  177.8400  148.1030 C   0  0  0  0  0  1  0  0  0  0  0  0
  186.1710  178.9490  140.0850 O   0  0  0  0  0  1  0  0  0  0  0  0
  187.1120  179.5570  140.9160 C   0  0  0  0  0  2  0  0  0  0  0  0
  190.4150  177.1020  138.7220 O   0  0  0  0  0  0  0  0  0  0  0  0
  188.4190  174.5840  136.8710 C   0  0  0  0  0  3  0  0  0  0  0  0
  190.6970  173.7900  137.0450 C   0  0  0  0  0  0  0  0  0  0  0  0
  191.0450  174.9460  137.7460 C   0  0  0  0  0  3  0  0  0  0  0  0
  188.7610  175.7440  137.5760 C   0  0  0  0  0  0  0  0  0  0  0  0
  189.3840  173.6090  136.6060 C   0  0  0  0  0  3  0  0  0  0  0  0
  190.0830  175.9330  138.0190 C   0  0  0  0  0  0  0  0  0  0  0  0
  191.6340  172.8470  136.7870 F   0  0  0  0  0  0  0  0  0  0  0  0
  187.7070  176.7730  137.8330 C   0  0  0  0  0  2  0  0  0  0  0  0
  187.5630  177.7230  136.6530 C   0  0  0  0  0  2  0  0  0  0  0  0
  186.2470  177.4910  135.9340 C   0  0  0  0  0  1  0  0  0  0  0  0
  1  3  2  0  0  0  0
  1  9  1  0  0  0  0
  2 28  1  6  0  0  0
  2 14  1  0  0  0  0
  3 15  1  0  0  0  0
  4 12  1  0  0  0  0
  4  6  1  1  0  0  0
  5 10  1  0  0  0  0
  5 16  1  0  0  0  0
  6  8  1  0  0  0  0
  7 27  1  6  0  0  0
  7  4  1  0  0  0  0
  8 11  2  0  0  0  0
  9  5  2  0  0  0  0
 11 16  2  0  0  0  0
 12  6  1  0  0  0  0
 12  9  1  1  0  0  0
 13  2  1  0  0  0  0
 13  7  1  0  0  0  0
 14  1  1  0  0  0  0
 15 10  2  0  0  0  0
 16 24  1  0  0  0  0
 17 19  1  0  0  0  0
 17 22  1  0  0  0  0
 19 21  1  0  0  0  0
 20 17  2  0  0  0  0
 21 18  1  0  0  0  0
 22  8  1  6  0  0  0
 22 18  1  0  0  0  0
 24 23  2  0  0  0  0
 24 25  1  0  0  0  0
 26 27  1  0  0  0  0
 29 32  1  0  0  0  0
 30 31  2  0  0  0  0
 31 34  1  0  0  0  0
 32 36  1  0  0  0  0
 32 34  2  0  0  0  0
 33 29  2  0  0  0  0
 33 30  1  0  0  0  0
 34 28  1  0  0  0  0
 35 30  1  0  0  0  0
 37 36  1  0  0  0  0
 38 37  1  0  0  0  0
M  END
>  <MODEL>
9

>  <REMARK>
 VINA RESULT:      -7.6      2.593      4.984
  Name = 
  7 active torsions:
  status: ('A' for Active; 'I' for Inactive)
    1  A    between atoms: C_4  and  O_12
    2  A    between atoms: C_5  and  C_36
    3  A    between atoms: O_12  and  C_23
    4  A    between atoms: C_17  and  C_35
    5  A    between atoms: C_18  and  C_27
    6  A    between atoms: C_22  and  C_38
    7  A    between atoms: C_24  and  C_27
                            x       y       z     vdW  Elec       q    Type
                         _______ _______ _______ _____ _____    ______ ____

>  <TORSDO>
F 7

$$$$
