=
 OpenBabel10222420193D

 27 28  0  0  1  0  0  0  0  0999 V2000
  185.1940  178.3030  144.6160 C   0  0  0  0  0  0  0  0  0  0  0  0
  188.7990  177.3200  147.5020 C   0  0  0  0  0  3  0  0  0  0  0  0
  186.7060  178.1430  146.9400 C   0  0  0  0  0  0  0  0  0  0  0  0
  187.2260  177.6870  145.7620 C   0  0  0  0  0  0  0  0  0  0  0  0
  187.0240  177.2610  143.3860 O   0  0  0  0  0  1  0  0  0  0  0  0
  186.4890  177.7450  144.5750 C   0  0  0  0  0  0  0  0  0  0  0  0
  184.6750  178.7830  145.8350 C   0  0  0  0  0  3  0  0  0  0  0  0
  185.4320  178.7010  147.0140 C   0  0  0  0  0  3  0  0  0  0  0  0
  188.5920  177.1410  145.9810 C   0  0  1  0  0  3  0  0  0  0  0  0
  187.5940  177.9660  148.0220 N   0  0  0  0  0  0  0  0  0  0  0  0
  189.6160  177.9730  145.2190 C   0  0  0  0  0  2  0  0  0  0  0  0
  190.3400  177.1290  144.1790 C   0  0  0  0  0  2  0  0  0  0  0  0
  191.8370  178.4600  142.8670 O   0  0  0  0  0  1  0  0  0  0  0  0
  190.5520  177.9160  142.8930 C   0  0  1  0  0  3  0  0  0  0  0  0
  190.0020  175.8710  141.8430 O   0  0  0  0  0  0  0  0  0  0  0  0
  190.3500  177.0330  141.7020 C   0  0  0  0  0  0  0  0  0  0  0  0
  190.5620  177.5910  140.3340 C   0  0  0  0  0  2  0  0  0  0  0  0
  187.9090  178.1970  140.5600 O   0  0  0  0  0  1  0  0  0  0  0  0
  189.1290  179.2670  138.5090 O   0  0  0  0  0  0  0  0  0  0  0  0
  188.9700  177.9200  139.5190 P   0  0  0  0  0  0  0  0  0  0  0  0
  188.5180  176.5780  138.5950 O   0  0  0  0  0  1  0  0  0  0  0  0
  184.3710  178.4210  143.3740 C   0  0  0  0  0  2  0  0  0  0  0  0
  182.9270  180.2560  143.8380 O   0  0  0  0  0  0  0  0  0  0  0  0
  181.8940  178.1590  143.7760 N   0  0  0  0  0  2  0  0  0  0  0  0
  183.0370  179.0100  143.6860 C   0  0  0  0  0  0  0  0  0  0  0  0
  180.6110  178.6600  144.0400 C   0  0  0  0  0  0  0  0  0  0  0  0
  179.5080  179.0900  144.2670 C   0  0  0  0  0  3  0  0  0  0  0  0
  1  7  1  0  0  0  0
  2 10  2  0  0  0  0
  3  8  1  0  0  0  0
  3 10  1  0  0  0  0
  4  9  1  0  0  0  0
  4  3  2  0  0  0  0
  5  6  1  0  0  0  0
  6  1  2  0  0  0  0
  6  4  1  0  0  0  0
  7  8  2  0  0  0  0
  9 11  1  6  0  0  0
  9  2  1  0  0  0  0
 12 11  1  0  0  0  0
 14 13  1  1  0  0  0
 14 12  1  0  0  0  0
 16 15  2  0  0  0  0
 16 14  1  0  0  0  0
 17 16  1  0  0  0  0
 19 20  2  0  0  0  0
 20 17  1  0  0  0  0
 20 18  1  0  0  0  0
 21 20  1  0  0  0  0
 22 25  1  0  0  0  0
 22  1  1  0  0  0  0
 24 26  1  0  0  0  0
 25 24  1  0  0  0  0
 25 23  2  0  0  0  0
 26 27  3  0  0  0  0
M  END
>  <MODEL>
1

>  <REMARK>
 VINA RESULT:      -7.6      0.000      0.000
  Name = 
  9 active torsions:
  status: ('A' for Active; 'I' for Inactive)
    1  A    between atoms: C_1  and  C_19
    2  A    between atoms: C_4  and  C_17
    3  A    between atoms: C_4  and  C_18
    4  A    between atoms: C_9  and  N_12
    5  A    between atoms: C_13  and  C_19
    6  A    between atoms: C_17  and  C_26
    7  A    between atoms: C_18  and  C_24
    8  A    between atoms: P_22  and  C_23
    9  A    between atoms: C_23  and  C_26
                            x       y       z     vdW  Elec       q    Type
                         _______ _______ _______ _____ _____    ______ ____

>  <TORSDO>
F 9

$$$$
=
 OpenBabel10222420193D

 27 28  0  0  1  0  0  0  0  0999 V2000
  190.7570  177.2950  144.8180 C   0  0  0  0  0  0  0  0  0  0  0  0
  186.9130  177.9920  147.4690 C   0  0  0  0  0  3  0  0  0  0  0  0
  189.0100  177.1390  146.9710 C   0  0  0  0  0  0  0  0  0  0  0  0
  188.6460  177.8360  145.8540 C   0  0  0  0  0  0  0  0  0  0  0  0
  189.1290  178.6690  143.6310 O   0  0  0  0  0  1  0  0  0  0  0  0
  189.5050  177.9420  144.7550 C   0  0  0  0  0  0  0  0  0  0  0  0
  191.1140  176.5670  145.9700 C   0  0  0  0  0  3  0  0  0  0  0  0
  190.2370  176.4870  147.0640 C   0  0  0  0  0  3  0  0  0  0  0  0
  187.2940  178.4290  146.0360 C   0  0  1  0  0  3  0  0  0  0  0  0
  188.0190  177.1800  147.9740 N   0  0  0  0  0  0  0  0  0  0  0  0
  186.3180  177.8230  145.0350 C   0  0  0  0  0  2  0  0  0  0  0  0
  185.3950  178.8880  144.4600 C   0  0  0  0  0  2  0  0  0  0  0  0
  183.1060  178.6050  143.8160 O   0  0  0  0  0  1  0  0  0  0  0  0
  184.4170  178.2800  143.4640 C   0  0  1  0  0  3  0  0  0  0  0  0
  185.5040  179.6780  141.9000 O   0  0  0  0  0  0  0  0  0  0  0  0
  184.7090  178.7690  142.0810 C   0  0  0  0  0  0  0  0  0  0  0  0
  184.0290  178.1250  140.9190 C   0  0  0  0  0  2  0  0  0  0  0  0
  184.1460  177.9430  138.1970 O   0  0  0  0  0  0  0  0  0  0  0  0
  184.3260  180.3670  139.1640 O   0  0  0  0  0  1  0  0  0  0  0  0
  184.7210  178.7330  139.3510 P   0  0  0  0  0  0  0  0  0  0  0  0
  186.4030  178.5620  139.3680 O   0  0  0  0  0  1  0  0  0  0  0  0
  191.7040  177.3450  143.6630 C   0  0  0  0  0  2  0  0  0  0  0  0
  190.4830  175.6160  142.5740 O   0  0  0  0  0  0  0  0  0  0  0  0
  191.1740  177.3740  141.1960 N   0  0  0  0  0  2  0  0  0  0  0  0
  191.0920  176.7140  142.4590 C   0  0  0  0  0  0  0  0  0  0  0  0
  190.5940  176.8400  140.0360 C   0  0  0  0  0  0  0  0  0  0  0  0
  190.0950  176.3800  139.0400 C   0  0  0  0  0  3  0  0  0  0  0  0
  1  7  1  0  0  0  0
  2 10  2  0  0  0  0
  3  8  1  0  0  0  0
  3 10  1  0  0  0  0
  4  9  1  0  0  0  0
  4  3  2  0  0  0  0
  5  6  1  0  0  0  0
  6  1  2  0  0  0  0
  6  4  1  0  0  0  0
  7  8  2  0  0  0  0
  9 11  1  6  0  0  0
  9  2  1  0  0  0  0
 12 11  1  0  0  0  0
 14 13  1  1  0  0  0
 14 12  1  0  0  0  0
 15 16  2  0  0  0  0
 16 14  1  0  0  0  0
 17 16  1  0  0  0  0
 18 20  2  0  0  0  0
 19 20  1  0  0  0  0
 20 21  1  0  0  0  0
 20 17  1  0  0  0  0
 22  1  1  0  0  0  0
 24 25  1  0  0  0  0
 25 23  2  0  0  0  0
 25 22  1  0  0  0  0
 26 24  1  0  0  0  0
 27 26  3  0  0  0  0
M  END
>  <MODEL>
2

>  <REMARK>
 VINA RESULT:      -7.6      2.513      6.217
  Name = 
  9 active torsions:
  status: ('A' for Active; 'I' for Inactive)
    1  A    between atoms: C_1  and  C_19
    2  A    between atoms: C_4  and  C_17
    3  A    between atoms: C_4  and  C_18
    4  A    between atoms: C_9  and  N_12
    5  A    between atoms: C_13  and  C_19
    6  A    between atoms: C_17  and  C_26
    7  A    between atoms: C_18  and  C_24
    8  A    between atoms: P_22  and  C_23
    9  A    between atoms: C_23  and  C_26
                            x       y       z     vdW  Elec       q    Type
                         _______ _______ _______ _____ _____    ______ ____

>  <TORSDO>
F 9

$$$$
=
 OpenBabel10222420193D

 27 28  0  0  1  0  0  0  0  0999 V2000
  185.4780  178.6120  142.5780 C   0  0  0  0  0  0  0  0  0  0  0  0
  186.0980  178.1580  147.2370 C   0  0  0  0  0  3  0  0  0  0  0  0
  185.1300  178.9990  145.3060 C   0  0  0  0  0  0  0  0  0  0  0  0
  186.1030  178.1500  144.8630 C   0  0  0  0  0  0  0  0  0  0  0  0
  187.2840  177.0450  143.0590 O   0  0  0  0  0  1  0  0  0  0  0  0
  186.3000  177.9260  143.4960 C   0  0  0  0  0  0  0  0  0  0  0  0
  184.4870  179.4960  143.0480 C   0  0  0  0  0  3  0  0  0  0  0  0
  184.3020  179.6940  144.4260 C   0  0  0  0  0  3  0  0  0  0  0  0
  186.8230  177.5470  146.0160 C   0  0  1  0  0  3  0  0  0  0  0  0
  185.0740  179.0620  146.7140 N   0  0  0  0  0  0  0  0  0  0  0  0
  188.2820  177.9860  146.0100 C   0  0  0  0  0  2  0  0  0  0  0  0
  189.2070  176.7990  145.7780 C   0  0  0  0  0  2  0  0  0  0  0  0
  191.1480  176.5380  147.1570 O   0  0  0  0  0  1  0  0  0  0  0  0
  190.6590  177.1870  146.0220 C   0  0  1  0  0  3  0  0  0  0  0  0
  192.0090  175.7310  144.7410 O   0  0  0  0  0  0  0  0  0  0  0  0
  191.5000  176.8370  144.8350 C   0  0  0  0  0  0  0  0  0  0  0  0
  191.6980  177.8480  143.7550 C   0  0  0  0  0  2  0  0  0  0  0  0
  189.6970  178.2310  141.9370 O   0  0  0  0  0  1  0  0  0  0  0  0
  191.9710  177.4100  140.9400 O   0  0  0  0  0  0  0  0  0  0  0  0
  190.8730  177.3230  142.2230 P   0  0  0  0  0  0  0  0  0  0  0  0
  190.3290  175.7310  142.3870 O   0  0  0  0  0  1  0  0  0  0  0  0
  185.6630  178.4370  141.1050 C   0  0  0  0  0  2  0  0  0  0  0  0
  183.4220  177.8520  140.5580 O   0  0  0  0  0  0  0  0  0  0  0  0
  184.2240  179.8000  139.5430 N   0  0  0  0  0  2  0  0  0  0  0  0
  184.3750  178.6590  140.3880 C   0  0  0  0  0  0  0  0  0  0  0  0
  183.0270  180.0730  138.8660 C   0  0  0  0  0  0  0  0  0  0  0  0
  181.9980  180.3070  138.2830 C   0  0  0  0  0  3  0  0  0  0  0  0
  1  7  2  0  0  0  0
  1  6  1  0  0  0  0
  3 10  1  0  0  0  0
  4  3  1  0  0  0  0
  4  9  1  0  0  0  0
  5  6  1  0  0  0  0
  6  4  2  0  0  0  0
  7  8  1  0  0  0  0
  8  3  2  0  0  0  0
  9 11  1  6  0  0  0
  9  2  1  0  0  0  0
 10  2  2  0  0  0  0
 12 11  1  0  0  0  0
 12 14  1  0  0  0  0
 14 13  1  1  0  0  0
 15 16  2  0  0  0  0
 16 14  1  0  0  0  0
 17 16  1  0  0  0  0
 18 20  1  0  0  0  0
 19 20  2  0  0  0  0
 20 21  1  0  0  0  0
 20 17  1  0  0  0  0
 22  1  1  0  0  0  0
 24 25  1  0  0  0  0
 25 23  2  0  0  0  0
 25 22  1  0  0  0  0
 26 24  1  0  0  0  0
 27 26  3  0  0  0  0
M  END
>  <MODEL>
3

>  <REMARK>
 VINA RESULT:      -7.5      2.694      3.446
  Name = 
  9 active torsions:
  status: ('A' for Active; 'I' for Inactive)
    1  A    between atoms: C_1  and  C_19
    2  A    between atoms: C_4  and  C_17
    3  A    between atoms: C_4  and  C_18
    4  A    between atoms: C_9  and  N_12
    5  A    between atoms: C_13  and  C_19
    6  A    between atoms: C_17  and  C_26
    7  A    between atoms: C_18  and  C_24
    8  A    between atoms: P_22  and  C_23
    9  A    between atoms: C_23  and  C_26
                            x       y       z     vdW  Elec       q    Type
                         _______ _______ _______ _____ _____    ______ ____

>  <TORSDO>
F 9

$$$$
=
 OpenBabel10222420193D

 27 28  0  0  1  0  0  0  0  0999 V2000
  188.6240  177.3400  144.8780 C   0  0  0  0  0  0  0  0  0  0  0  0
  184.2980  179.2300  144.9740 C   0  0  0  0  0  3  0  0  0  0  0  0
  186.1810  178.2140  145.8670 C   0  0  0  0  0  0  0  0  0  0  0  0
  186.4480  178.3260  144.5320 C   0  0  0  0  0  0  0  0  0  0  0  0
  187.9380  178.0370  142.6430 O   0  0  0  0  0  1  0  0  0  0  0  0
  187.6720  177.9030  144.0020 C   0  0  0  0  0  0  0  0  0  0  0  0
  188.3300  177.2180  146.2500 C   0  0  0  0  0  3  0  0  0  0  0  0
  187.0980  177.6620  146.7580 C   0  0  0  0  0  3  0  0  0  0  0  0
  185.2990  178.9540  143.8280 C   0  0  1  0  0  3  0  0  0  0  0  0
  184.9100  178.7250  146.2030 N   0  0  0  0  0  0  0  0  0  0  0  0
  184.6910  177.9690  142.8370 C   0  0  0  0  0  2  0  0  0  0  0  0
  183.9140  178.6990  141.7500 C   0  0  0  0  0  2  0  0  0  0  0  0
  182.6150  177.4790  140.1500 O   0  0  0  0  0  1  0  0  0  0  0  0
  183.9110  177.8990  140.4550 C   0  0  1  0  0  3  0  0  0  0  0  0
  184.5410  179.9360  139.4360 O   0  0  0  0  0  0  0  0  0  0  0  0
  184.4560  178.7220  139.3310 C   0  0  0  0  0  0  0  0  0  0  0  0
  184.9140  178.0440  138.0820 C   0  0  0  0  0  2  0  0  0  0  0  0
  187.2150  176.6660  137.5740 O   0  0  0  0  0  1  0  0  0  0  0  0
  187.2250  179.1720  136.8270 O   0  0  0  0  0  0  0  0  0  0  0  0
  186.7290  178.0390  137.9800 P   0  0  0  0  0  0  0  0  0  0  0  0
  187.3830  178.4480  139.4840 O   0  0  0  0  0  1  0  0  0  0  0  0
  189.9360  176.8410  144.3640 C   0  0  0  0  0  2  0  0  0  0  0  0
  191.6950  177.9440  145.5300 O   0  0  0  0  0  0  0  0  0  0  0  0
  191.1210  175.8300  146.3490 N   0  0  0  0  0  2  0  0  0  0  0  0
  190.9750  176.9140  145.4310 C   0  0  0  0  0  0  0  0  0  0  0  0
  192.0630  175.8550  147.3880 C   0  0  0  0  0  0  0  0  0  0  0  0
  192.8720  175.8770  148.2810 C   0  0  0  0  0  3  0  0  0  0  0  0
  1  7  1  0  0  0  0
  2 10  2  0  0  0  0
  3 10  1  0  0  0  0
  3  8  1  0  0  0  0
  4  3  2  0  0  0  0
  5  6  1  0  0  0  0
  6  4  1  0  0  0  0
  6  1  2  0  0  0  0
  7  8  2  0  0  0  0
  9 11  1  6  0  0  0
  9  4  1  0  0  0  0
  9  2  1  0  0  0  0
 12 11  1  0  0  0  0
 14 13  1  6  0  0  0
 14 12  1  0  0  0  0
 16 15  2  0  0  0  0
 16 14  1  0  0  0  0
 17 16  1  0  0  0  0
 18 20  1  0  0  0  0
 19 20  2  0  0  0  0
 20 17  1  0  0  0  0
 20 21  1  0  0  0  0
 22  1  1  0  0  0  0
 22 25  1  0  0  0  0
 24 26  1  0  0  0  0
 25 23  2  0  0  0  0
 25 24  1  0  0  0  0
 26 27  3  0  0  0  0
M  END
>  <MODEL>
4

>  <REMARK>
 VINA RESULT:      -7.4      2.685      6.468
  Name = 
  9 active torsions:
  status: ('A' for Active; 'I' for Inactive)
    1  A    between atoms: C_1  and  C_19
    2  A    between atoms: C_4  and  C_17
    3  A    between atoms: C_4  and  C_18
    4  A    between atoms: C_9  and  N_12
    5  A    between atoms: C_13  and  C_19
    6  A    between atoms: C_17  and  C_26
    7  A    between atoms: C_18  and  C_24
    8  A    between atoms: P_22  and  C_23
    9  A    between atoms: C_23  and  C_26
                            x       y       z     vdW  Elec       q    Type
                         _______ _______ _______ _____ _____    ______ ____

>  <TORSDO>
F 9

$$$$
=
 OpenBabel10222420193D

 27 28  0  0  1  0  0  0  0  0999 V2000
  185.5670  178.1490  145.6850 C   0  0  0  0  0  0  0  0  0  0  0  0
  190.0520  177.1840  146.8000 C   0  0  0  0  0  3  0  0  0  0  0  0
  187.9220  178.0280  147.1520 C   0  0  0  0  0  0  0  0  0  0  0  0
  187.8910  177.5290  145.8800 C   0  0  0  0  0  0  0  0  0  0  0  0
  186.6980  177.0400  143.8300 O   0  0  0  0  0  1  0  0  0  0  0  0
  186.7190  177.5670  145.1170 C   0  0  0  0  0  0  0  0  0  0  0  0
  185.6160  178.6720  146.9920 C   0  0  0  0  0  3  0  0  0  0  0  0
  186.8020  178.6100  147.7410 C   0  0  0  0  0  3  0  0  0  0  0  0
  189.2180  176.9660  145.5170 C   0  0  1  0  0  3  0  0  0  0  0  0
  189.1840  177.8660  147.7600 N   0  0  0  0  0  0  0  0  0  0  0  0
  189.8250  177.7570  144.3660 C   0  0  0  0  0  2  0  0  0  0  0  0
  190.1280  176.8520  143.1800 C   0  0  0  0  0  2  0  0  0  0  0  0
  191.6810  177.2960  141.4120 O   0  0  0  0  0  1  0  0  0  0  0  0
  190.4430  177.6710  141.9360 C   0  0  1  0  0  3  0  0  0  0  0  0
  188.2230  177.8130  141.1370 O   0  0  0  0  0  0  0  0  0  0  0  0
  189.3760  177.4840  140.9040 C   0  0  0  0  0  0  0  0  0  0  0  0
  189.7370  176.9040  139.5770 C   0  0  0  0  0  2  0  0  0  0  0  0
  189.0450  179.3260  138.5220 O   0  0  0  0  0  1  0  0  0  0  0  0
  189.7600  177.5110  136.7800 O   0  0  0  0  0  0  0  0  0  0  0  0
  188.9570  177.8450  138.2300 P   0  0  0  0  0  0  0  0  0  0  0  0
  187.3340  177.3930  138.0890 O   0  0  0  0  0  1  0  0  0  0  0  0
  184.2950  178.2460  144.9060 C   0  0  0  0  0  2  0  0  0  0  0  0
  185.0120  180.0650  143.5480 O   0  0  0  0  0  0  0  0  0  0  0  0
  184.2680  178.1790  142.3840 N   0  0  0  0  0  2  0  0  0  0  0  0
  184.5400  178.8970  143.5870 C   0  0  0  0  0  0  0  0  0  0  0  0
  184.5040  178.7310  141.1160 C   0  0  0  0  0  0  0  0  0  0  0  0
  184.7060  179.2060  140.0270 C   0  0  0  0  0  3  0  0  0  0  0  0
  1  7  1  0  0  0  0
  2 10  2  0  0  0  0
  3  8  1  0  0  0  0
  3 10  1  0  0  0  0
  4  3  2  0  0  0  0
  5  6  1  0  0  0  0
  6  1  2  0  0  0  0
  6  4  1  0  0  0  0
  7  8  2  0  0  0  0
  9 11  1  6  0  0  0
  9  4  1  0  0  0  0
  9  2  1  0  0  0  0
 12 11  1  0  0  0  0
 14 13  1  6  0  0  0
 14 12  1  0  0  0  0
 16 15  2  0  0  0  0
 16 14  1  0  0  0  0
 17 16  1  0  0  0  0
 19 20  2  0  0  0  0
 20 18  1  0  0  0  0
 20 17  1  0  0  0  0
 21 20  1  0  0  0  0
 22  1  1  0  0  0  0
 23 25  2  0  0  0  0
 24 25  1  0  0  0  0
 25 22  1  0  0  0  0
 26 24  1  0  0  0  0
 27 26  3  0  0  0  0
M  END
>  <MODEL>
5

>  <REMARK>
 VINA RESULT:      -7.3      1.720      2.228
  Name = 
  9 active torsions:
  status: ('A' for Active; 'I' for Inactive)
    1  A    between atoms: C_1  and  C_19
    2  A    between atoms: C_4  and  C_17
    3  A    between atoms: C_4  and  C_18
    4  A    between atoms: C_9  and  N_12
    5  A    between atoms: C_13  and  C_19
    6  A    between atoms: C_17  and  C_26
    7  A    between atoms: C_18  and  C_24
    8  A    between atoms: P_22  and  C_23
    9  A    between atoms: C_23  and  C_26
                            x       y       z     vdW  Elec       q    Type
                         _______ _______ _______ _____ _____    ______ ____

>  <TORSDO>
F 9

$$$$
=
 OpenBabel10222420193D

 27 28  0  0  1  0  0  0  0  0999 V2000
  184.8730  178.4380  142.7860 C   0  0  0  0  0  0  0  0  0  0  0  0
  186.1220  178.1340  147.3290 C   0  0  0  0  0  3  0  0  0  0  0  0
  184.8680  178.8790  145.5280 C   0  0  0  0  0  0  0  0  0  0  0  0
  185.8160  178.0650  144.9760 C   0  0  0  0  0  0  0  0  0  0  0  0
  186.8020  176.9700  143.0540 O   0  0  0  0  0  1  0  0  0  0  0  0
  185.8420  177.8150  143.6000 C   0  0  0  0  0  0  0  0  0  0  0  0
  183.9100  179.2870  143.3660 C   0  0  0  0  0  3  0  0  0  0  0  0
  183.8980  179.5110  144.7520 C   0  0  0  0  0  3  0  0  0  0  0  0
  186.7100  177.5260  146.0350 C   0  0  1  0  0  3  0  0  0  0  0  0
  184.9950  178.9760  146.9290 N   0  0  0  0  0  0  0  0  0  0  0  0
  188.1310  178.0320  145.8270 C   0  0  0  0  0  2  0  0  0  0  0  0
  189.1190  176.8750  145.7700 C   0  0  0  0  0  2  0  0  0  0  0  0
  190.9820  176.8300  147.2750 O   0  0  0  0  0  1  0  0  0  0  0  0
  190.5350  177.3550  146.0610 C   0  0  1  0  0  3  0  0  0  0  0  0
  192.0230  175.8640  144.9900 O   0  0  0  0  0  0  0  0  0  0  0  0
  191.4610  176.9480  144.9590 C   0  0  0  0  0  0  0  0  0  0  0  0
  191.6800  177.8730  143.8080 C   0  0  0  0  0  2  0  0  0  0  0  0
  189.4760  178.2490  142.2420 O   0  0  0  0  0  1  0  0  0  0  0  0
  191.6320  177.4900  140.9720 O   0  0  0  0  0  0  0  0  0  0  0  0
  190.6920  177.3590  142.3710 P   0  0  0  0  0  0  0  0  0  0  0  0
  190.1980  175.7540  142.5660 O   0  0  0  0  0  1  0  0  0  0  0  0
  184.8710  178.2340  141.3060 C   0  0  0  0  0  2  0  0  0  0  0  0
  186.7010  179.7480  141.1500 O   0  0  0  0  0  0  0  0  0  0  0  0
  186.7780  177.9290  139.6810 N   0  0  0  0  0  2  0  0  0  0  0  0
  186.1580  178.6970  140.7130 C   0  0  0  0  0  0  0  0  0  0  0  0
  188.0010  178.3030  139.1070 C   0  0  0  0  0  0  0  0  0  0  0  0
  189.0530  178.6230  138.6120 C   0  0  0  0  0  3  0  0  0  0  0  0
  1  7  2  0  0  0  0
  1  6  1  0  0  0  0
  3 10  1  0  0  0  0
  4  3  1  0  0  0  0
  4  9  1  0  0  0  0
  5  6  1  0  0  0  0
  6  4  2  0  0  0  0
  7  8  1  0  0  0  0
  8  3  2  0  0  0  0
  9 11  1  6  0  0  0
  9  2  1  0  0  0  0
 10  2  2  0  0  0  0
 12 11  1  0  0  0  0
 12 14  1  0  0  0  0
 14 13  1  1  0  0  0
 16 15  2  0  0  0  0
 16 14  1  0  0  0  0
 17 16  1  0  0  0  0
 18 20  1  0  0  0  0
 19 20  2  0  0  0  0
 20 21  1  0  0  0  0
 20 17  1  0  0  0  0
 22  1  1  0  0  0  0
 24 25  1  0  0  0  0
 25 23  2  0  0  0  0
 25 22  1  0  0  0  0
 26 24  1  0  0  0  0
 27 26  3  0  0  0  0
M  END
>  <MODEL>
6

>  <REMARK>
 VINA RESULT:      -7.1      2.435      4.163
  Name = 
  9 active torsions:
  status: ('A' for Active; 'I' for Inactive)
    1  A    between atoms: C_1  and  C_19
    2  A    between atoms: C_4  and  C_17
    3  A    between atoms: C_4  and  C_18
    4  A    between atoms: C_9  and  N_12
    5  A    between atoms: C_13  and  C_19
    6  A    between atoms: C_17  and  C_26
    7  A    between atoms: C_18  and  C_24
    8  A    between atoms: P_22  and  C_23
    9  A    between atoms: C_23  and  C_26
                            x       y       z     vdW  Elec       q    Type
                         _______ _______ _______ _____ _____    ______ ____

>  <TORSDO>
F 9

$$$$
=
 OpenBabel10222420193D

 27 28  0  0  1  0  0  0  0  0999 V2000
  185.6060  178.8530  144.1920 C   0  0  0  0  0  0  0  0  0  0  0  0
  188.7790  176.8250  147.0400 C   0  0  0  0  0  3  0  0  0  0  0  0
  186.9150  178.1020  146.5240 C   0  0  0  0  0  0  0  0  0  0  0  0
  187.4130  177.7110  145.3130 C   0  0  0  0  0  0  0  0  0  0  0  0
  187.2820  177.6460  142.8950 O   0  0  0  0  0  1  0  0  0  0  0  0
  186.7740  178.0650  144.1200 C   0  0  0  0  0  0  0  0  0  0  0  0
  185.1110  179.2610  145.4470 C   0  0  0  0  0  3  0  0  0  0  0  0
  185.7660  178.8820  146.6290 C   0  0  0  0  0  3  0  0  0  0  0  0
  188.6370  176.8880  145.5020 C   0  0  1  0  0  3  0  0  0  0  0  0
  187.6860  177.6180  147.6010 N   0  0  0  0  0  0  0  0  0  0  0  0
  189.8430  177.5990  144.9010 C   0  0  0  0  0  2  0  0  0  0  0  0
  190.9930  176.6270  144.6770 C   0  0  0  0  0  2  0  0  0  0  0  0
  190.0700  175.3120  142.9010 O   0  0  0  0  0  1  0  0  0  0  0  0
  191.0840  176.2200  143.2130 C   0  0  1  0  0  3  0  0  0  0  0  0
  191.6940  178.3940  142.5170 O   0  0  0  0  0  0  0  0  0  0  0  0
  190.9780  177.4230  142.3300 C   0  0  0  0  0  0  0  0  0  0  0  0
  189.9980  177.4190  141.2040 C   0  0  0  0  0  2  0  0  0  0  0  0
  190.6030  175.5940  139.2650 O   0  0  0  0  0  1  0  0  0  0  0  0
  190.1890  178.0330  138.4140 O   0  0  0  0  0  0  0  0  0  0  0  0
  190.8270  177.0450  139.6300 P   0  0  0  0  0  0  0  0  0  0  0  0
  192.4850  177.3390  139.7770 O   0  0  0  0  0  1  0  0  0  0  0  0
  184.8980  179.2880  142.9500 C   0  0  0  0  0  2  0  0  0  0  0  0
  183.2600  177.7870  142.0950 O   0  0  0  0  0  0  0  0  0  0  0  0
  182.5260  179.2030  143.8050 N   0  0  0  0  0  2  0  0  0  0  0  0
  183.5220  178.7160  142.9060 C   0  0  0  0  0  0  0  0  0  0  0  0
  181.2230  178.6830  143.8270 C   0  0  0  0  0  0  0  0  0  0  0  0
  180.1030  178.2370  143.8460 C   0  0  0  0  0  3  0  0  0  0  0  0
  1  7  1  0  0  0  0
  2 10  2  0  0  0  0
  3  8  1  0  0  0  0
  3 10  1  0  0  0  0
  4  9  1  0  0  0  0
  4  3  2  0  0  0  0
  5  6  1  0  0  0  0
  6  1  2  0  0  0  0
  6  4  1  0  0  0  0
  7  8  2  0  0  0  0
  9 11  1  6  0  0  0
  9  2  1  0  0  0  0
 12 11  1  0  0  0  0
 14 13  1  6  0  0  0
 14 12  1  0  0  0  0
 16 15  2  0  0  0  0
 16 14  1  0  0  0  0
 17 16  1  0  0  0  0
 18 20  1  0  0  0  0
 19 20  2  0  0  0  0
 20 21  1  0  0  0  0
 20 17  1  0  0  0  0
 22  1  1  0  0  0  0
 23 25  2  0  0  0  0
 24 26  1  0  0  0  0
 25 22  1  0  0  0  0
 25 24  1  0  0  0  0
 26 27  3  0  0  0  0
M  END
>  <MODEL>
7

>  <REMARK>
 VINA RESULT:      -7.0      1.332      1.805
  Name = 
  9 active torsions:
  status: ('A' for Active; 'I' for Inactive)
    1  A    between atoms: C_1  and  C_19
    2  A    between atoms: C_4  and  C_17
    3  A    between atoms: C_4  and  C_18
    4  A    between atoms: C_9  and  N_12
    5  A    between atoms: C_13  and  C_19
    6  A    between atoms: C_17  and  C_26
    7  A    between atoms: C_18  and  C_24
    8  A    between atoms: P_22  and  C_23
    9  A    between atoms: C_23  and  C_26
                            x       y       z     vdW  Elec       q    Type
                         _______ _______ _______ _____ _____    ______ ____

>  <TORSDO>
F 9

$$$$
=
 OpenBabel10222420193D

 27 28  0  0  1  0  0  0  0  0999 V2000
  189.0180  177.5470  144.9290 C   0  0  0  0  0  0  0  0  0  0  0  0
  184.5060  178.8260  145.4810 C   0  0  0  0  0  3  0  0  0  0  0  0
  186.5230  177.8690  146.1060 C   0  0  0  0  0  0  0  0  0  0  0  0
  186.7320  178.3140  144.8310 C   0  0  0  0  0  0  0  0  0  0  0  0
  188.1810  178.6490  142.9200 O   0  0  0  0  0  1  0  0  0  0  0  0
  187.9780  178.1760  144.2120 C   0  0  0  0  0  0  0  0  0  0  0  0
  188.7850  177.0800  146.2370 C   0  0  0  0  0  3  0  0  0  0  0  0
  187.5270  177.2430  146.8400 C   0  0  0  0  0  3  0  0  0  0  0  0
  185.4940  178.9430  144.2970 C   0  0  1  0  0  3  0  0  0  0  0  0
  185.2130  178.1310  146.5570 N   0  0  0  0  0  0  0  0  0  0  0  0
  184.9730  178.1450  143.1090 C   0  0  0  0  0  2  0  0  0  0  0  0
  184.7760  179.0410  141.8940 C   0  0  0  0  0  2  0  0  0  0  0  0
  182.7690  178.2590  140.8460 O   0  0  0  0  0  1  0  0  0  0  0  0
  184.1610  178.2630  140.7390 C   0  0  1  0  0  3  0  0  0  0  0  0
  184.5520  180.0740  139.2720 O   0  0  0  0  0  0  0  0  0  0  0  0
  184.5680  178.8630  139.4310 C   0  0  0  0  0  0  0  0  0  0  0  0
  185.0110  177.9680  138.3210 C   0  0  0  0  0  2  0  0  0  0  0  0
  187.4650  178.4110  139.4340 O   0  0  0  0  0  1  0  0  0  0  0  0
  187.3830  176.5230  137.6260 O   0  0  0  0  0  1  0  0  0  0  0  0
  186.8170  178.0390  138.1190 P   0  0  0  0  0  0  0  0  0  0  0  0
  187.2120  179.1920  136.9480 O   0  0  0  0  0  0  0  0  0  0  0  0
  190.3610  177.3430  144.3070 C   0  0  0  0  0  2  0  0  0  0  0  0
  189.6540  175.5880  142.8630 O   0  0  0  0  0  0  0  0  0  0  0  0
  190.7090  177.3880  141.8080 N   0  0  0  0  0  2  0  0  0  0  0  0
  190.2240  176.7070  142.9660 C   0  0  0  0  0  0  0  0  0  0  0  0
  190.5830  176.8510  140.5190 C   0  0  0  0  0  0  0  0  0  0  0  0
  190.4760  176.3890  139.4110 C   0  0  0  0  0  3  0  0  0  0  0  0
  1  7  1  0  0  0  0
  2 10  2  0  0  0  0
  3 10  1  0  0  0  0
  3  8  1  0  0  0  0
  4  3  2  0  0  0  0
  5  6  1  0  0  0  0
  6  4  1  0  0  0  0
  6  1  2  0  0  0  0
  7  8  2  0  0  0  0
  9 11  1  6  0  0  0
  9  4  1  0  0  0  0
  9  2  1  0  0  0  0
 12 11  1  0  0  0  0
 14 13  1  1  0  0  0
 14 12  1  0  0  0  0
 15 16  2  0  0  0  0
 16 14  1  0  0  0  0
 17 16  1  0  0  0  0
 19 20  1  0  0  0  0
 20 17  1  0  0  0  0
 20 18  1  0  0  0  0
 21 20  2  0  0  0  0
 22  1  1  0  0  0  0
 23 25  2  0  0  0  0
 24 25  1  0  0  0  0
 25 22  1  0  0  0  0
 26 24  1  0  0  0  0
 27 26  3  0  0  0  0
M  END
>  <MODEL>
8

>  <REMARK>
 VINA RESULT:      -7.0      2.512      5.993
  Name = 
  9 active torsions:
  status: ('A' for Active; 'I' for Inactive)
    1  A    between atoms: C_1  and  C_19
    2  A    between atoms: C_4  and  C_17
    3  A    between atoms: C_4  and  C_18
    4  A    between atoms: C_9  and  N_12
    5  A    between atoms: C_13  and  C_19
    6  A    between atoms: C_17  and  C_26
    7  A    between atoms: C_18  and  C_24
    8  A    between atoms: P_22  and  C_23
    9  A    between atoms: C_23  and  C_26
                            x       y       z     vdW  Elec       q    Type
                         _______ _______ _______ _____ _____    ______ ____

>  <TORSDO>
F 9

$$$$
=
 OpenBabel10222420193D

 27 28  0  0  1  0  0  0  0  0999 V2000
  190.7410  177.4160  144.6800 C   0  0  0  0  0  0  0  0  0  0  0  0
  186.8350  177.8290  147.3010 C   0  0  0  0  0  3  0  0  0  0  0  0
  189.0150  177.1860  146.8430 C   0  0  0  0  0  0  0  0  0  0  0  0
  188.5800  177.7770  145.6910 C   0  0  0  0  0  0  0  0  0  0  0  0
  188.9750  178.5370  143.4250 O   0  0  0  0  0  1  0  0  0  0  0  0
  189.4260  177.9170  144.5860 C   0  0  0  0  0  0  0  0  0  0  0  0
  191.1730  176.7960  145.8690 C   0  0  0  0  0  3  0  0  0  0  0  0
  190.3070  176.6800  146.9680 C   0  0  0  0  0  3  0  0  0  0  0  0
  187.1700  178.2270  145.8450 C   0  0  1  0  0  3  0  0  0  0  0  0
  188.0230  177.1720  147.8460 N   0  0  0  0  0  0  0  0  0  0  0  0
  186.2700  177.4640  144.8810 C   0  0  0  0  0  2  0  0  0  0  0  0
  185.4280  178.4200  144.0490 C   0  0  0  0  0  2  0  0  0  0  0  0
  183.7100  179.0920  145.5770 O   0  0  0  0  0  1  0  0  0  0  0  0
  183.9580  178.3260  144.4360 C   0  0  1  0  0  3  0  0  0  0  0  0
  183.3660  178.5090  142.1550 O   0  0  0  0  0  0  0  0  0  0  0  0
  183.0910  178.7950  143.3110 C   0  0  0  0  0  0  0  0  0  0  0  0
  181.8740  179.6040  143.6130 C   0  0  0  0  0  2  0  0  0  0  0  0
  179.2250  179.7230  142.9620 O   0  0  0  0  0  1  0  0  0  0  0  0
  180.6540  178.0640  141.5320 O   0  0  0  0  0  0  0  0  0  0  0  0
  180.3730  178.7430  143.0550 P   0  0  0  0  0  0  0  0  0  0  0  0
  179.9810  177.5170  144.1510 O   0  0  0  0  0  1  0  0  0  0  0  0
  191.6800  177.5080  143.5210 C   0  0  0  0  0  2  0  0  0  0  0  0
  190.5670  175.6900  142.4620 O   0  0  0  0  0  0  0  0  0  0  0  0
  191.1410  177.4680  141.0560 N   0  0  0  0  0  2  0  0  0  0  0  0
  191.1050  176.8220  142.3290 C   0  0  0  0  0  0  0  0  0  0  0  0
  190.5920  176.8810  139.9060 C   0  0  0  0  0  0  0  0  0  0  0  0
  190.1200  176.3780  138.9170 C   0  0  0  0  0  3  0  0  0  0  0  0
  1  7  1  0  0  0  0
  2 10  2  0  0  0  0
  3  8  1  0  0  0  0
  3 10  1  0  0  0  0
  4  9  1  0  0  0  0
  4  3  2  0  0  0  0
  5  6  1  0  0  0  0
  6  1  2  0  0  0  0
  6  4  1  0  0  0  0
  7  8  2  0  0  0  0
  9 11  1  6  0  0  0
  9  2  1  0  0  0  0
 12 14  1  0  0  0  0
 12 11  1  0  0  0  0
 14 13  1  1  0  0  0
 15 16  2  0  0  0  0
 16 17  1  0  0  0  0
 16 14  1  0  0  0  0
 18 20  1  0  0  0  0
 19 20  2  0  0  0  0
 20 17  1  0  0  0  0
 20 21  1  0  0  0  0
 22  1  1  0  0  0  0
 24 25  1  0  0  0  0
 25 23  2  0  0  0  0
 25 22  1  0  0  0  0
 26 24  1  0  0  0  0
 27 26  3  0  0  0  0
M  END
>  <MODEL>
9

>  <REMARK>
 VINA RESULT:      -6.9      2.978      7.251
  Name = 
  9 active torsions:
  status: ('A' for Active; 'I' for Inactive)
    1  A    between atoms: C_1  and  C_19
    2  A    between atoms: C_4  and  C_17
    3  A    between atoms: C_4  and  C_18
    4  A    between atoms: C_9  and  N_12
    5  A    between atoms: C_13  and  C_19
    6  A    between atoms: C_17  and  C_26
    7  A    between atoms: C_18  and  C_24
    8  A    between atoms: P_22  and  C_23
    9  A    between atoms: C_23  and  C_26
                            x       y       z     vdW  Elec       q    Type
                         _______ _______ _______ _____ _____    ______ ____

>  <TORSDO>
F 9

$$$$
