=
 OpenBabel10222419583D

 36 37  0  0  1  0  0  0  0  0999 V2000
  188.5870  177.8200  142.0940 C   0  0  0  0  0  0  0  0  0  0  0  0
  189.3140  178.2700  143.0750 N   0  0  0  0  0  0  0  0  0  0  0  0
  189.2060  177.1890  140.9670 N   0  0  0  0  0  0  0  0  0  0  0  0
  189.5320  177.8570  139.9100 C   0  0  0  0  0  3  0  0  0  0  0  0
  190.1420  177.1960  138.8090 N   0  0  0  0  0  0  0  0  0  0  0  0
  190.9700  176.2270  139.0200 C   0  0  0  0  0  3  0  0  0  0  0  0
  191.5720  174.2680  137.8330 O   0  0  0  0  0  0  0  0  0  0  0  0
  191.6160  175.5250  137.9030 C   0  0  0  0  0  0  0  0  0  0  0  0
  192.3460  176.2900  136.8470 C   0  0  2  0  0  3  0  0  0  0  0  0
  192.4890  175.4530  135.5900 C   0  0  0  0  0  1  0  0  0  0  0  0
  193.6060  176.6720  137.3080 O   0  0  0  0  0  1  0  0  0  0  0  0
  190.7720  178.2010  143.1190 C   0  0  1  0  0  3  0  0  0  0  0  0
  191.3400  179.3370  143.9600 C   0  0  0  0  0  1  0  0  0  0  0  0
  191.2180  176.8500  143.6710 C   0  0  0  0  0  2  0  0  0  0  0  0
  190.4420  176.4670  144.9280 C   0  0  0  0  0  2  0  0  0  0  0  0
  191.2670  176.7530  146.1850 C   0  0  2  0  0  3  0  0  0  0  0  0
  192.2080  175.7360  146.4760 O   0  0  0  0  0  0  0  0  0  0  0  0
  192.4190  175.6870  147.8660 C   0  0  0  0  0  1  0  0  0  0  0  0
  190.3880  177.1070  147.3890 C   0  0  0  0  0  2  0  0  0  0  0  0
  188.3210  178.1100  149.0880 O   0  0  0  0  0  0  0  0  0  0  0  0
  189.0380  177.4540  146.9640 N   0  0  0  0  0  2  0  0  0  0  0  0
  188.0530  177.9580  147.8660 C   0  0  0  0  0  0  0  0  0  0  0  0
  186.7060  178.3300  147.3550 C   0  0  0  0  0  2  0  0  0  0  0  0
  186.4750  177.7000  145.9960 C   0  0  0  0  0  1  0  0  0  0  0  0
  187.1920  177.9560  142.1330 O   0  0  0  0  0  0  0  0  0  0  0  0
  186.4750  178.9380  141.3860 C   0  0  0  0  0  2  0  0  0  0  0  0
  180.2090  178.8130  141.4190 S   0  0  0  0  0  0  0  0  0  0  0  0
  181.8710  178.7890  141.6250 C   0  0  0  0  0  0  0  0  0  0  0  0
  183.4360  178.7410  143.5870 N   0  0  0  0  0  0  0  0  0  0  0  0
  179.7970  178.8120  143.0510 C   0  0  0  0  0  3  0  0  0  0  0  0
  184.6200  178.7680  143.0580 C   0  0  0  0  0  3  0  0  0  0  0  0
  180.9880  178.7890  143.7740 C   0  0  0  0  0  3  0  0  0  0  0  0
  185.0050  178.8460  141.6390 C   0  0  0  0  0  0  0  0  0  0  0  0
  182.7860  178.7650  140.5390 N   0  0  0  0  0  0  0  0  0  0  0  0
  184.2110  178.8250  140.5660 C   0  0  0  0  0  3  0  0  0  0  0  0
  182.1440  178.7770  142.9800 C   0  0  2  0  0  3  0  0  0  0  0  0
  1 25  1  0  0  0  0
  1  2  2  0  0  0  0
  2 12  1  0  0  0  0
  3  1  1  0  0  0  0
  4  3  2  0  0  0  0
  5  6  2  0  0  0  0
  5  4  1  0  0  0  0
  7  8  2  0  0  0  0
  8  6  1  0  0  0  0
  9 10  1  6  0  0  0
  9 11  1  0  0  0  0
  9  8  1  0  0  0  0
 12 14  1  0  0  0  0
 12 13  1  1  0  0  0
 14 15  1  0  0  0  0
 16 15  1  6  0  0  0
 16 17  1  0  0  0  0
 16 19  1  0  0  0  0
 17 18  1  0  0  0  0
 21 19  1  0  0  0  0
 21 22  1  0  0  0  0
 22 20  2  0  0  0  0
 23 22  1  0  0  0  0
 24 23  1  0  0  0  0
 26 33  1  0  0  0  0
 26 25  1  0  0  0  0
 27 28  1  0  0  0  0
 27 30  1  0  0  0  0
 28 36  1  0  0  0  0
 30 32  2  0  0  0  0
 31 29  2  0  0  0  0
 33 31  1  0  0  0  0
 34 35  1  0  0  0  0
 34 28  2  0  0  0  0
 35 33  2  0  0  0  0
 36 29  1  0  0  0  0
 36 32  1  6  0  0  0
M  END
>  <MODEL>
1

>  <REMARK>
 VINA RESULT:      -7.5      0.000      0.000
  Name = 
  15 active torsions:
  status: ('A' for Active; 'I' for Inactive)
    1  A    between atoms: N_1  and  C_18
    2  A    between atoms: O_7  and  C_14
    3  A    between atoms: O_7  and  C_18
    4  A    between atoms: C_9  and  C_23
    5  A    between atoms: C_10  and  N_21
    6  A    between atoms: C_10  and  C_24
    7  A    between atoms: C_11  and  N_30
    8  A    between atoms: C_11  and  C_31
    9  A    between atoms: C_13  and  C_17
   10  A    between atoms: C_14  and  C_25
   11  A    between atoms: C_15  and  C_24
   12  A    between atoms: C_15  and  C_31
   13  A    between atoms: C_17  and  C_29
   14  A    between atoms: N_20  and  C_22
   15  A    between atoms: C_24  and  O_27
                            x       y       z     vdW  Elec       q    Type
                         _______ _______ _______ _____ _____    ______ ____

>  <TORSDO>
F 15

$$$$
=
 OpenBabel10222419583D

 36 37  0  0  1  0  0  0  0  0999 V2000
  188.3880  178.6100  141.0190 C   0  0  0  0  0  0  0  0  0  0  0  0
  189.2510  177.8630  141.6430 N   0  0  0  0  0  0  0  0  0  0  0  0
  187.2390  179.1140  141.7090 N   0  0  0  0  0  0  0  0  0  0  0  0
  186.0490  178.6780  141.4560 C   0  0  0  0  0  3  0  0  0  0  0  0
  184.9320  179.2050  142.1590 N   0  0  0  0  0  0  0  0  0  0  0  0
  183.8780  178.4780  142.3290 C   0  0  0  0  0  3  0  0  0  0  0  0
  182.8320  179.4390  144.2240 O   0  0  0  0  0  0  0  0  0  0  0  0
  182.7080  178.9950  143.0520 C   0  0  0  0  0  0  0  0  0  0  0  0
  181.3580  178.9860  142.4120 C   0  0  2  0  0  3  0  0  0  0  0  0
  181.4870  178.9540  140.9020 C   0  0  0  0  0  1  0  0  0  0  0  0
  180.6300  180.1120  142.8010 O   0  0  0  0  0  1  0  0  0  0  0  0
  189.1350  177.4600  143.0420 C   0  0  1  0  0  3  0  0  0  0  0  0
  188.5800  176.0450  143.1500 C   0  0  0  0  0  1  0  0  0  0  0  0
  190.4930  177.5580  143.7310 C   0  0  0  0  0  2  0  0  0  0  0  0
  190.6580  176.4960  144.8140 C   0  0  0  0  0  2  0  0  0  0  0  0
  190.8230  177.1440  146.1910 C   0  0  2  0  0  3  0  0  0  0  0  0
  192.1220  176.9850  146.7290 O   0  0  0  0  0  0  0  0  0  0  0  0
  192.2380  175.6980  147.2850 C   0  0  0  0  0  1  0  0  0  0  0  0
  189.7220  176.7190  147.1680 C   0  0  0  0  0  2  0  0  0  0  0  0
  187.8680  178.4280  148.5130 O   0  0  0  0  0  0  0  0  0  0  0  0
  188.4070  177.1000  146.6690 N   0  0  0  0  0  2  0  0  0  0  0  0
  187.5310  177.9650  147.3900 C   0  0  0  0  0  0  0  0  0  0  0  0
  186.2190  178.3450  146.8010 C   0  0  0  0  0  2  0  0  0  0  0  0
  186.2080  178.0380  145.3170 C   0  0  0  0  0  1  0  0  0  0  0  0
  188.5760  178.9220  139.6650 O   0  0  0  0  0  0  0  0  0  0  0  0
  189.0330  177.9790  138.6960 C   0  0  0  0  0  2  0  0  0  0  0  0
  183.6500  175.8490  136.2950 S   0  0  0  0  0  0  0  0  0  0  0  0
  185.1830  176.2370  136.8490 C   0  0  0  0  0  0  0  0  0  0  0  0
  187.3660  175.0210  137.0840 N   0  0  0  0  0  0  0  0  0  0  0  0
  183.9700  174.2430  135.9050 C   0  0  0  0  0  3  0  0  0  0  0  0
  188.1660  175.8920  137.6190 C   0  0  0  0  0  3  0  0  0  0  0  0
  185.3090  174.0070  136.2100 C   0  0  0  0  0  3  0  0  0  0  0  0
  187.8890  177.2760  138.0400 C   0  0  0  0  0  0  0  0  0  0  0  0
  185.5320  177.5310  137.3200 N   0  0  0  0  0  2  0  0  0  0  0  0
  186.7620  177.9750  137.8890 C   0  0  0  0  0  3  0  0  0  0  0  0
  185.9850  175.1170  136.7370 C   0  0  0  0  0  0  0  0  0  0  0  0
  1  2  2  0  0  0  0
  1  3  1  0  0  0  0
  2 12  1  0  0  0  0
  4  3  2  0  0  0  0
  4  5  1  0  0  0  0
  5  6  2  0  0  0  0
  6  8  1  0  0  0  0
  8  7  2  0  0  0  0
  9 10  1  6  0  0  0
  9 11  1  0  0  0  0
  9  8  1  0  0  0  0
 12 13  1  6  0  0  0
 12 14  1  0  0  0  0
 14 15  1  0  0  0  0
 16 15  1  6  0  0  0
 16 17  1  0  0  0  0
 16 19  1  0  0  0  0
 17 18  1  0  0  0  0
 21 19  1  0  0  0  0
 21 22  1  0  0  0  0
 22 20  2  0  0  0  0
 23 22  1  0  0  0  0
 24 23  1  0  0  0  0
 25  1  1  0  0  0  0
 26 25  1  0  0  0  0
 27 28  1  0  0  0  0
 28 34  1  0  0  0  0
 29 31  2  0  0  0  0
 30 32  2  0  0  0  0
 30 27  1  0  0  0  0
 31 33  1  0  0  0  0
 32 36  1  0  0  0  0
 33 26  1  0  0  0  0
 34 35  1  0  0  0  0
 35 33  2  0  0  0  0
 36 28  2  0  0  0  0
 36 29  1  0  0  0  0
M  END
>  <MODEL>
2

>  <REMARK>
 VINA RESULT:      -7.3      3.172      6.463
  Name = 
  15 active torsions:
  status: ('A' for Active; 'I' for Inactive)
    1  A    between atoms: N_1  and  C_18
    2  A    between atoms: O_7  and  C_14
    3  A    between atoms: O_7  and  C_18
    4  A    between atoms: C_9  and  C_23
    5  A    between atoms: C_10  and  N_21
    6  A    between atoms: C_10  and  C_24
    7  A    between atoms: C_11  and  N_30
    8  A    between atoms: C_11  and  C_31
    9  A    between atoms: C_13  and  C_17
   10  A    between atoms: C_14  and  C_25
   11  A    between atoms: C_15  and  C_24
   12  A    between atoms: C_15  and  C_31
   13  A    between atoms: C_17  and  C_29
   14  A    between atoms: N_20  and  C_22
   15  A    between atoms: C_24  and  O_27
                            x       y       z     vdW  Elec       q    Type
                         _______ _______ _______ _____ _____    ______ ____

>  <TORSDO>
F 15

$$$$
=
 OpenBabel10222419583D

 36 37  0  0  1  0  0  0  0  0999 V2000
  188.0370  178.1370  141.1020 C   0  0  0  0  0  0  0  0  0  0  0  0
  188.1760  178.1570  142.3950 N   0  0  0  0  0  0  0  0  0  0  0  0
  189.0340  177.5230  140.2780 N   0  0  0  0  0  0  0  0  0  0  0  0
  189.2460  177.9120  139.0640 C   0  0  0  0  0  3  0  0  0  0  0  0
  190.2440  177.2750  138.2760 N   0  0  0  0  0  0  0  0  0  0  0  0
  190.7880  176.1800  138.6900 C   0  0  0  0  0  3  0  0  0  0  0  0
  191.7410  174.2610  137.6800 O   0  0  0  0  0  0  0  0  0  0  0  0
  191.8210  175.4990  137.8980 C   0  0  0  0  0  0  0  0  0  0  0  0
  192.9850  176.2630  137.3540 C   0  0  2  0  0  3  0  0  0  0  0  0
  193.6790  175.4660  136.2660 C   0  0  0  0  0  1  0  0  0  0  0  0
  193.8900  176.5590  138.3740 O   0  0  0  0  0  1  0  0  0  0  0  0
  189.3210  177.6000  143.1100 C   0  0  1  0  0  3  0  0  0  0  0  0
  190.2780  178.7050  143.5400 C   0  0  0  0  0  1  0  0  0  0  0  0
  188.8460  176.8010  144.3210 C   0  0  0  0  0  2  0  0  0  0  0  0
  189.0010  177.5900  145.6180 C   0  0  0  0  0  2  0  0  0  0  0  0
  187.6400  178.0690  146.1290 C   0  0  2  0  0  3  0  0  0  0  0  0
  187.5950  178.2200  147.5350 O   0  0  0  0  0  0  0  0  0  0  0  0
  188.8810  178.0040  148.0640 C   0  0  0  0  0  1  0  0  0  0  0  0
  186.4850  177.2190  145.5880 C   0  0  0  0  0  2  0  0  0  0  0  0
  184.2610  178.7870  146.4600 O   0  0  0  0  0  0  0  0  0  0  0  0
  185.6170  178.0090  144.7250 N   0  0  0  0  0  2  0  0  0  0  0  0
  184.5240  178.7770  145.2280 C   0  0  0  0  0  0  0  0  0  0  0  0
  183.7040  179.5930  144.2930 C   0  0  0  0  0  2  0  0  0  0  0  0
  182.3820  178.9030  144.0250 C   0  0  0  0  0  1  0  0  0  0  0  0
  186.9110  178.7230  140.5070 O   0  0  0  0  0  0  0  0  0  0  0  0
  185.7380  179.0910  141.2330 C   0  0  0  0  0  2  0  0  0  0  0  0
  180.7030  178.8710  137.5070 S   0  0  0  0  0  0  0  0  0  0  0  0
  181.9900  178.7260  138.5690 C   0  0  0  0  0  0  0  0  0  0  0  0
  182.5960  177.1820  140.4540 N   0  0  0  0  0  0  0  0  0  0  0  0
  179.7990  177.5800  138.0980 C   0  0  0  0  0  3  0  0  0  0  0  0
  183.7280  177.6370  140.8940 C   0  0  0  0  0  3  0  0  0  0  0  0
  180.5230  177.0200  139.1480 C   0  0  0  0  0  3  0  0  0  0  0  0
  184.5000  178.8080  140.4440 C   0  0  0  0  0  0  0  0  0  0  0  0
  183.1230  179.5820  138.5350 N   0  0  0  0  0  0  0  0  0  0  0  0
  184.2410  179.6230  139.4200 C   0  0  0  0  0  3  0  0  0  0  0  0
  181.7440  177.6580  139.4120 C   0  0  2  0  0  3  0  0  0  0  0  0
  1  2  2  0  0  0  0
  2 12  1  0  0  0  0
  3  1  1  0  0  0  0
  4  3  2  0  0  0  0
  5  6  2  0  0  0  0
  5  4  1  0  0  0  0
  7  8  2  0  0  0  0
  8  6  1  0  0  0  0
  9 10  1  6  0  0  0
  9  8  1  0  0  0  0
  9 11  1  0  0  0  0
 12 13  1  1  0  0  0
 12 14  1  0  0  0  0
 14 15  1  0  0  0  0
 15 16  1  0  0  0  0
 16 19  1  1  0  0  0
 16 17  1  0  0  0  0
 17 18  1  0  0  0  0
 21 22  1  0  0  0  0
 21 19  1  0  0  0  0
 22 20  2  0  0  0  0
 23 22  1  0  0  0  0
 24 23  1  0  0  0  0
 25  1  1  0  0  0  0
 25 26  1  0  0  0  0
 27 30  1  0  0  0  0
 27 28  1  0  0  0  0
 28 36  1  0  0  0  0
 29 31  2  0  0  0  0
 30 32  2  0  0  0  0
 33 31  1  0  0  0  0
 33 26  1  0  0  0  0
 34 28  2  0  0  0  0
 34 35  1  0  0  0  0
 35 33  2  0  0  0  0
 36 32  1  6  0  0  0
 36 29  1  0  0  0  0
M  END
>  <MODEL>
3

>  <REMARK>
 VINA RESULT:      -7.2      2.021      3.017
  Name = 
  15 active torsions:
  status: ('A' for Active; 'I' for Inactive)
    1  A    between atoms: N_1  and  C_18
    2  A    between atoms: O_7  and  C_14
    3  A    between atoms: O_7  and  C_18
    4  A    between atoms: C_9  and  C_23
    5  A    between atoms: C_10  and  N_21
    6  A    between atoms: C_10  and  C_24
    7  A    between atoms: C_11  and  N_30
    8  A    between atoms: C_11  and  C_31
    9  A    between atoms: C_13  and  C_17
   10  A    between atoms: C_14  and  C_25
   11  A    between atoms: C_15  and  C_24
   12  A    between atoms: C_15  and  C_31
   13  A    between atoms: C_17  and  C_29
   14  A    between atoms: N_20  and  C_22
   15  A    between atoms: C_24  and  O_27
                            x       y       z     vdW  Elec       q    Type
                         _______ _______ _______ _____ _____    ______ ____

>  <TORSDO>
F 15

$$$$
=
 OpenBabel10222419583D

 36 37  0  0  1  0  0  0  0  0999 V2000
  188.0980  178.4970  140.6350 C   0  0  0  0  0  0  0  0  0  0  0  0
  188.9520  177.9800  141.4700 N   0  0  0  0  0  0  0  0  0  0  0  0
  186.8080  178.9190  141.0930 N   0  0  0  0  0  0  0  0  0  0  0  0
  185.7460  178.7550  140.3760 C   0  0  0  0  0  3  0  0  0  0  0  0
  184.4830  179.1900  140.8630 N   0  0  0  0  0  0  0  0  0  0  0  0
  183.6880  178.3460  141.4320 C   0  0  0  0  0  3  0  0  0  0  0  0
  182.2620  179.1820  143.1280 O   0  0  0  0  0  0  0  0  0  0  0  0
  182.3770  178.7650  141.9450 C   0  0  0  0  0  0  0  0  0  0  0  0
  181.1640  178.6890  141.0760 C   0  0  2  0  0  3  0  0  0  0  0  0
  181.1560  177.3920  140.2900 C   0  0  0  0  0  1  0  0  0  0  0  0
  181.1250  179.7740  140.2000 O   0  0  0  0  0  1  0  0  0  0  0  0
  188.6920  177.7660  142.8910 C   0  0  1  0  0  3  0  0  0  0  0  0
  188.1910  176.3490  143.1390 C   0  0  0  0  0  1  0  0  0  0  0  0
  189.9550  178.0390  143.7030 C   0  0  0  0  0  2  0  0  0  0  0  0
  190.3510  176.8370  144.5560 C   0  0  0  0  0  2  0  0  0  0  0  0
  190.6780  177.2710  145.9870 C   0  0  2  0  0  3  0  0  0  0  0  0
  191.9820  176.9030  146.3970 O   0  0  0  0  0  0  0  0  0  0  0  0
  191.8910  175.9030  147.3830 C   0  0  0  0  0  1  0  0  0  0  0  0
  189.6000  176.8380  146.9860 C   0  0  0  0  0  2  0  0  0  0  0  0
  187.7820  178.1270  148.7750 O   0  0  0  0  0  0  0  0  0  0  0  0
  188.3000  177.3880  146.6210 N   0  0  0  0  0  2  0  0  0  0  0  0
  187.4420  178.0260  147.5660 C   0  0  0  0  0  0  0  0  0  0  0  0
  186.1460  178.6020  147.1140 C   0  0  0  0  0  2  0  0  0  0  0  0
  185.8430  178.1490  145.7000 C   0  0  0  0  0  1  0  0  0  0  0  0
  188.4330  178.6380  139.2820 O   0  0  0  0  0  0  0  0  0  0  0  0
  188.1080  177.6700  138.2840 C   0  0  0  0  0  2  0  0  0  0  0  0
  193.5590  174.7120  137.3820 S   0  0  0  0  0  0  0  0  0  0  0  0
  192.0060  175.3110  137.5670 C   0  0  0  0  0  0  0  0  0  0  0  0
  189.7020  174.5560  136.9120 N   0  0  0  0  0  0  0  0  0  0  0  0
  193.1470  173.3200  136.5320 C   0  0  0  0  0  3  0  0  0  0  0  0
  188.9200  175.5030  137.3310 C   0  0  0  0  0  3  0  0  0  0  0  0
  191.7600  173.3210  136.3930 C   0  0  0  0  0  3  0  0  0  0  0  0
  189.2640  176.7650  138.0080 C   0  0  0  0  0  0  0  0  0  0  0  0
  191.7170  176.5200  138.2550 N   0  0  0  0  0  2  0  0  0  0  0  0
  190.4640  177.1810  138.4170 C   0  0  0  0  0  3  0  0  0  0  0  0
  191.1230  174.4300  136.9690 C   0  0  0  0  0  0  0  0  0  0  0  0
  1  3  1  0  0  0  0
  1  2  2  0  0  0  0
  2 12  1  0  0  0  0
  4  5  1  0  0  0  0
  4  3  2  0  0  0  0
  5  6  2  0  0  0  0
  6  8  1  0  0  0  0
  8  7  2  0  0  0  0
  9 10  1  6  0  0  0
  9  8  1  0  0  0  0
 11  9  1  0  0  0  0
 12 13  1  6  0  0  0
 12 14  1  0  0  0  0
 14 15  1  0  0  0  0
 16 15  1  6  0  0  0
 16 17  1  0  0  0  0
 16 19  1  0  0  0  0
 17 18  1  0  0  0  0
 21 19  1  0  0  0  0
 21 22  1  0  0  0  0
 22 20  2  0  0  0  0
 23 22  1  0  0  0  0
 24 23  1  0  0  0  0
 25  1  1  0  0  0  0
 26 25  1  0  0  0  0
 27 28  1  0  0  0  0
 28 34  1  0  0  0  0
 29 36  1  0  0  0  0
 29 31  2  0  0  0  0
 30 27  1  0  0  0  0
 31 33  1  0  0  0  0
 32 30  2  0  0  0  0
 32 36  1  0  0  0  0
 33 26  1  0  0  0  0
 33 35  2  0  0  0  0
 34 35  1  0  0  0  0
 36 28  2  0  0  0  0
M  END
>  <MODEL>
4

>  <REMARK>
 VINA RESULT:      -7.2      3.222      7.788
  Name = 
  15 active torsions:
  status: ('A' for Active; 'I' for Inactive)
    1  A    between atoms: N_1  and  C_18
    2  A    between atoms: O_7  and  C_14
    3  A    between atoms: O_7  and  C_18
    4  A    between atoms: C_9  and  C_23
    5  A    between atoms: C_10  and  N_21
    6  A    between atoms: C_10  and  C_24
    7  A    between atoms: C_11  and  N_30
    8  A    between atoms: C_11  and  C_31
    9  A    between atoms: C_13  and  C_17
   10  A    between atoms: C_14  and  C_25
   11  A    between atoms: C_15  and  C_24
   12  A    between atoms: C_15  and  C_31
   13  A    between atoms: C_17  and  C_29
   14  A    between atoms: N_20  and  C_22
   15  A    between atoms: C_24  and  O_27
                            x       y       z     vdW  Elec       q    Type
                         _______ _______ _______ _____ _____    ______ ____

>  <TORSDO>
F 15

$$$$
=
 OpenBabel10222419583D

 36 37  0  0  1  0  0  0  0  0999 V2000
  189.2580  177.6320  140.0640 C   0  0  0  0  0  0  0  0  0  0  0  0
  189.1710  177.6490  141.3620 N   0  0  0  0  0  0  0  0  0  0  0  0
  190.0980  176.6730  139.4100 N   0  0  0  0  0  0  0  0  0  0  0  0
  191.0380  177.0350  138.6000 C   0  0  0  0  0  3  0  0  0  0  0  0
  191.8500  176.0540  137.9670 N   0  0  0  0  0  0  0  0  0  0  0  0
  193.1300  176.0740  138.1340 C   0  0  0  0  0  3  0  0  0  0  0  0
  193.7060  174.6240  136.3530 O   0  0  0  0  0  0  0  0  0  0  0  0
  193.9950  175.0750  137.4930 C   0  0  0  0  0  0  0  0  0  0  0  0
  195.2160  174.5700  138.1900 C   0  0  2  0  0  3  0  0  0  0  0  0
  195.1450  173.0640  138.3610 C   0  0  0  0  0  1  0  0  0  0  0  0
  195.3510  175.1810  139.4370 O   0  0  0  0  0  1  0  0  0  0  0  0
  189.9020  176.7490  142.2500 C   0  0  1  0  0  3  0  0  0  0  0  0
  191.1960  177.3970  142.7270 C   0  0  0  0  0  1  0  0  0  0  0  0
  189.0280  176.3590  143.4380 C   0  0  0  0  0  2  0  0  0  0  0  0
  188.4360  177.5820  144.1320 C   0  0  0  0  0  2  0  0  0  0  0  0
  188.8290  177.6120  145.6110 C   0  0  2  0  0  3  0  0  0  0  0  0
  189.7890  176.6290  145.9520 O   0  0  0  0  0  0  0  0  0  0  0  0
  190.3960  176.9800  147.1720 C   0  0  0  0  0  1  0  0  0  0  0  0
  187.6090  177.5930  146.5370 C   0  0  0  0  0  2  0  0  0  0  0  0
  185.5170  179.4500  147.1200 O   0  0  0  0  0  0  0  0  0  0  0  0
  186.3750  177.7430  145.7770 N   0  0  0  0  0  2  0  0  0  0  0  0
  185.3720  178.6980  146.1200 C   0  0  0  0  0  0  0  0  0  0  0  0
  184.1540  178.8250  145.2730 C   0  0  0  0  0  2  0  0  0  0  0  0
  184.4640  179.6480  144.0400 C   0  0  0  0  0  1  0  0  0  0  0  0
  188.5340  178.5560  139.2980 O   0  0  0  0  0  0  0  0  0  0  0  0
  187.7040  178.1870  138.1960 C   0  0  0  0  0  2  0  0  0  0  0  0
  181.5080  177.5460  138.8890 S   0  0  0  0  0  0  0  0  0  0  0  0
  183.1690  177.7620  138.9210 C   0  0  0  0  0  0  0  0  0  0  0  0
  184.8200  178.7350  140.5430 N   0  0  0  0  0  0  0  0  0  0  0  0
  181.1780  178.2410  140.3850 C   0  0  0  0  0  3  0  0  0  0  0  0
  185.9660  178.6250  139.9430 C   0  0  0  0  0  3  0  0  0  0  0  0
  182.3970  178.6490  140.9250 C   0  0  0  0  0  3  0  0  0  0  0  0
  186.2700  178.0910  138.6050 C   0  0  0  0  0  0  0  0  0  0  0  0
  184.0280  177.3330  137.8740 N   0  0  0  0  0  0  0  0  0  0  0  0
  185.4340  177.5220  137.7340 C   0  0  0  0  0  3  0  0  0  0  0  0
  183.5070  178.3820  140.1100 C   0  0  2  0  0  3  0  0  0  0  0  0
  1  2  2  0  0  0  0
  2 12  1  0  0  0  0
  3  1  1  0  0  0  0
  4  3  2  0  0  0  0
  5  6  2  0  0  0  0
  5  4  1  0  0  0  0
  7  8  2  0  0  0  0
  8  6  1  0  0  0  0
  8  9  1  0  0  0  0
  9 10  1  1  0  0  0
  9 11  1  0  0  0  0
 12 13  1  1  0  0  0
 12 14  1  0  0  0  0
 14 15  1  0  0  0  0
 16 15  1  6  0  0  0
 16 17  1  0  0  0  0
 16 19  1  0  0  0  0
 17 18  1  0  0  0  0
 21 22  1  0  0  0  0
 21 19  1  0  0  0  0
 22 20  2  0  0  0  0
 23 22  1  0  0  0  0
 24 23  1  0  0  0  0
 25  1  1  0  0  0  0
 26 33  1  0  0  0  0
 26 25  1  0  0  0  0
 27 28  1  0  0  0  0
 27 30  1  0  0  0  0
 28 36  1  0  0  0  0
 30 32  2  0  0  0  0
 31 29  2  0  0  0  0
 33 31  1  0  0  0  0
 34 28  2  0  0  0  0
 35 34  1  0  0  0  0
 35 33  2  0  0  0  0
 36 29  1  0  0  0  0
 36 32  1  1  0  0  0
M  END
>  <MODEL>
5

>  <REMARK>
 VINA RESULT:      -7.0      2.292      2.958
  Name = 
  15 active torsions:
  status: ('A' for Active; 'I' for Inactive)
    1  A    between atoms: N_1  and  C_18
    2  A    between atoms: O_7  and  C_14
    3  A    between atoms: O_7  and  C_18
    4  A    between atoms: C_9  and  C_23
    5  A    between atoms: C_10  and  N_21
    6  A    between atoms: C_10  and  C_24
    7  A    between atoms: C_11  and  N_30
    8  A    between atoms: C_11  and  C_31
    9  A    between atoms: C_13  and  C_17
   10  A    between atoms: C_14  and  C_25
   11  A    between atoms: C_15  and  C_24
   12  A    between atoms: C_15  and  C_31
   13  A    between atoms: C_17  and  C_29
   14  A    between atoms: N_20  and  C_22
   15  A    between atoms: C_24  and  O_27
                            x       y       z     vdW  Elec       q    Type
                         _______ _______ _______ _____ _____    ______ ____

>  <TORSDO>
F 15

$$$$
=
 OpenBabel10222419583D

 36 37  0  0  1  0  0  0  0  0999 V2000
  190.0190  176.6670  139.0090 C   0  0  0  0  0  0  0  0  0  0  0  0
  188.7650  176.7410  138.6680 N   0  0  0  0  0  0  0  0  0  0  0  0
  191.0450  176.7910  138.0170 N   0  0  0  0  0  0  0  0  0  0  0  0
  191.9690  175.8990  137.8810 C   0  0  0  0  0  3  0  0  0  0  0  0
  192.9730  176.0590  136.8870 N   0  0  0  0  0  0  0  0  0  0  0  0
  194.1190  175.4790  137.0310 C   0  0  0  0  0  3  0  0  0  0  0  0
  194.9470  176.2470  134.9500 O   0  0  0  0  0  0  0  0  0  0  0  0
  195.1750  175.6260  136.0220 C   0  0  0  0  0  0  0  0  0  0  0  0
  196.5260  175.0280  136.2460 C   0  0  2  0  0  3  0  0  0  0  0  0
  196.6130  174.4200  137.6330 C   0  0  0  0  0  1  0  0  0  0  0  0
  197.5180  175.9980  136.0930 O   0  0  0  0  0  1  0  0  0  0  0  0
  188.2930  176.9300  137.2990 C   0  0  1  0  0  3  0  0  0  0  0  0
  187.7960  175.6140  136.7140 C   0  0  0  0  0  1  0  0  0  0  0  0
  187.1880  177.9830  137.2650 C   0  0  0  0  0  2  0  0  0  0  0  0
  186.6270  178.2610  138.6570 C   0  0  0  0  0  2  0  0  0  0  0  0
  185.1170  178.0160  138.6940 C   0  0  2  0  0  3  0  0  0  0  0  0
  184.5420  177.8900  137.4070 O   0  0  0  0  0  0  0  0  0  0  0  0
  183.1540  177.6960  137.5380 C   0  0  0  0  0  1  0  0  0  0  0  0
  184.3840  179.0360  139.5720 C   0  0  0  0  0  2  0  0  0  0  0  0
  185.9380  179.7260  141.8690 O   0  0  0  0  0  0  0  0  0  0  0  0
  184.1820  178.5140  140.9180 N   0  0  0  0  0  2  0  0  0  0  0  0
  184.9920  178.9080  142.0250 C   0  0  0  0  0  0  0  0  0  0  0  0
  184.7030  178.3660  143.3800 C   0  0  0  0  0  2  0  0  0  0  0  0
  183.5680  179.1430  144.0170 C   0  0  0  0  0  1  0  0  0  0  0  0
  190.3720  176.4580  140.3490 O   0  0  0  0  0  0  0  0  0  0  0  0
  191.0670  177.4220  141.1400 C   0  0  0  0  0  2  0  0  0  0  0  0
  189.7700  177.1170  147.2640 S   0  0  0  0  0  0  0  0  0  0  0  0
  189.9190  177.2970  145.6050 C   0  0  0  0  0  0  0  0  0  0  0  0
  188.3630  177.8510  143.7150 N   0  0  0  0  0  0  0  0  0  0  0  0
  188.1180  177.4200  147.3600 C   0  0  0  0  0  3  0  0  0  0  0  0
  189.1100  177.7990  142.6550 C   0  0  0  0  0  3  0  0  0  0  0  0
  187.6720  177.6720  146.0630 C   0  0  0  0  0  3  0  0  0  0  0  0
  190.5380  177.4610  142.5370 C   0  0  0  0  0  0  0  0  0  0  0  0
  191.1550  177.1630  144.9180 N   0  0  0  0  0  0  0  0  0  0  0  0
  191.4100  177.2100  143.5160 C   0  0  0  0  0  3  0  0  0  0  0  0
  188.6750  177.6030  145.0850 C   0  0  2  0  0  3  0  0  0  0  0  0
  1 25  1  0  0  0  0
  2  1  2  0  0  0  0
  3  1  1  0  0  0  0
  4  3  2  0  0  0  0
  5  6  2  0  0  0  0
  5  4  1  0  0  0  0
  7  8  2  0  0  0  0
  8  9  1  0  0  0  0
  8  6  1  0  0  0  0
  9 10  1  1  0  0  0
 11  9  1  0  0  0  0
 12 13  1  1  0  0  0
 12  2  1  0  0  0  0
 14 12  1  0  0  0  0
 14 15  1  0  0  0  0
 16 15  1  6  0  0  0
 16 19  1  0  0  0  0
 17 18  1  0  0  0  0
 17 16  1  0  0  0  0
 19 21  1  0  0  0  0
 20 22  2  0  0  0  0
 21 22  1  0  0  0  0
 22 23  1  0  0  0  0
 23 24  1  0  0  0  0
 25 26  1  0  0  0  0
 26 33  1  0  0  0  0
 27 30  1  0  0  0  0
 28 27  1  0  0  0  0
 29 36  1  0  0  0  0
 31 29  2  0  0  0  0
 32 30  2  0  0  0  0
 33 31  1  0  0  0  0
 33 35  2  0  0  0  0
 34 28  2  0  0  0  0
 35 34  1  0  0  0  0
 36 28  1  0  0  0  0
 36 32  1  1  0  0  0
M  END
>  <MODEL>
6

>  <REMARK>
 VINA RESULT:      -6.9      3.176      7.143
  Name = 
  15 active torsions:
  status: ('A' for Active; 'I' for Inactive)
    1  A    between atoms: N_1  and  C_18
    2  A    between atoms: O_7  and  C_14
    3  A    between atoms: O_7  and  C_18
    4  A    between atoms: C_9  and  C_23
    5  A    between atoms: C_10  and  N_21
    6  A    between atoms: C_10  and  C_24
    7  A    between atoms: C_11  and  N_30
    8  A    between atoms: C_11  and  C_31
    9  A    between atoms: C_13  and  C_17
   10  A    between atoms: C_14  and  C_25
   11  A    between atoms: C_15  and  C_24
   12  A    between atoms: C_15  and  C_31
   13  A    between atoms: C_17  and  C_29
   14  A    between atoms: N_20  and  C_22
   15  A    between atoms: C_24  and  O_27
                            x       y       z     vdW  Elec       q    Type
                         _______ _______ _______ _____ _____    ______ ____

>  <TORSDO>
F 15

$$$$
=
 OpenBabel10222419583D

 36 37  0  0  1  0  0  0  0  0999 V2000
  189.2400  177.6270  140.3550 C   0  0  0  0  0  0  0  0  0  0  0  0
  189.7240  177.4820  139.1560 N   0  0  0  0  0  0  0  0  0  0  0  0
  187.8470  177.8980  140.5420 N   0  0  0  0  0  0  0  0  0  0  0  0
  187.4370  178.8300  141.3380 C   0  0  0  0  0  3  0  0  0  0  0  0
  186.0450  179.0680  141.5010 N   0  0  0  0  0  0  0  0  0  0  0  0
  185.3990  178.4780  142.4510 C   0  0  0  0  0  3  0  0  0  0  0  0
  183.1450  178.4230  141.7260 O   0  0  0  0  0  0  0  0  0  0  0  0
  183.9600  178.7030  142.6440 C   0  0  0  0  0  0  0  0  0  0  0  0
  183.4480  179.2820  143.9230 C   0  0  2  0  0  3  0  0  0  0  0  0
  184.3190  178.8470  145.0870 C   0  0  0  0  0  1  0  0  0  0  0  0
  182.1300  178.8810  144.1440 O   0  0  0  0  0  1  0  0  0  0  0  0
  188.9380  177.5950  137.9300 C   0  0  1  0  0  3  0  0  0  0  0  0
  189.0560  178.9960  137.3420 C   0  0  0  0  0  1  0  0  0  0  0  0
  189.3930  176.5490  136.9160 C   0  0  0  0  0  2  0  0  0  0  0  0
  189.9730  175.3130  137.5980 C   0  0  0  0  0  2  0  0  0  0  0  0
  191.2810  174.8860  136.9280 C   0  0  2  0  0  3  0  0  0  0  0  0
  191.4090  173.4830  136.7990 O   0  0  0  0  0  0  0  0  0  0  0  0
  190.8000  173.0720  135.5990 C   0  0  0  0  0  1  0  0  0  0  0  0
  192.5070  175.5350  137.5800 C   0  0  0  0  0  2  0  0  0  0  0  0
  194.7170  176.5940  136.1110 O   0  0  0  0  0  0  0  0  0  0  0  0
  193.7240  174.8070  137.2410 N   0  0  0  0  0  2  0  0  0  0  0  0
  194.7950  175.4010  136.5090 C   0  0  0  0  0  0  0  0  0  0  0  0
  196.0270  174.6110  136.2340 C   0  0  0  0  0  2  0  0  0  0  0  0
  195.7300  173.5250  135.2190 C   0  0  0  0  0  1  0  0  0  0  0  0
  190.0830  177.5240  141.4700 O   0  0  0  0  0  0  0  0  0  0  0  0
  190.1260  176.3790  142.3220 C   0  0  0  0  0  2  0  0  0  0  0  0
  187.1330  177.9500  147.6000 S   0  0  0  0  0  0  0  0  0  0  0  0
  188.1100  177.4930  146.3180 C   0  0  0  0  0  0  0  0  0  0  0  0
  190.5740  177.1560  145.9710 N   0  0  0  0  0  0  0  0  0  0  0  0
  188.3600  178.1700  148.7300 C   0  0  0  0  0  3  0  0  0  0  0  0
  190.6830  176.8280  144.7210 C   0  0  0  0  0  3  0  0  0  0  0  0
  189.5630  177.8750  148.0900 C   0  0  0  0  0  3  0  0  0  0  0  0
  189.6330  176.7040  143.6950 C   0  0  0  0  0  0  0  0  0  0  0  0
  187.6000  177.1510  145.0370 N   0  0  0  0  0  0  0  0  0  0  0  0
  188.3130  176.8260  143.8460 C   0  0  0  0  0  3  0  0  0  0  0  0
  189.4250  177.4980  146.7460 C   0  0  2  0  0  3  0  0  0  0  0  0
  1  3  1  0  0  0  0
  1 25  1  0  0  0  0
  2  1  2  0  0  0  0
  3  4  2  0  0  0  0
  4  5  1  0  0  0  0
  5  6  2  0  0  0  0
  6  8  1  0  0  0  0
  7  8  2  0  0  0  0
  8  9  1  0  0  0  0
  9 11  1  0  0  0  0
  9 10  1  1  0  0  0
 12 13  1  6  0  0  0
 12  2  1  0  0  0  0
 14 15  1  0  0  0  0
 14 12  1  0  0  0  0
 16 19  1  1  0  0  0
 16 15  1  0  0  0  0
 17 16  1  0  0  0  0
 18 17  1  0  0  0  0
 20 22  2  0  0  0  0
 21 19  1  0  0  0  0
 22 21  1  0  0  0  0
 23 22  1  0  0  0  0
 24 23  1  0  0  0  0
 25 26  1  0  0  0  0
 26 33  1  0  0  0  0
 27 30  1  0  0  0  0
 28 36  1  0  0  0  0
 28 27  1  0  0  0  0
 29 36  1  0  0  0  0
 31 29  2  0  0  0  0
 32 30  2  0  0  0  0
 33 35  2  0  0  0  0
 33 31  1  0  0  0  0
 34 28  2  0  0  0  0
 35 34  1  0  0  0  0
 36 32  1  1  0  0  0
M  END
>  <MODEL>
7

>  <REMARK>
 VINA RESULT:      -6.9      2.970      9.193
  Name = 
  15 active torsions:
  status: ('A' for Active; 'I' for Inactive)
    1  A    between atoms: N_1  and  C_18
    2  A    between atoms: O_7  and  C_14
    3  A    between atoms: O_7  and  C_18
    4  A    between atoms: C_9  and  C_23
    5  A    between atoms: C_10  and  N_21
    6  A    between atoms: C_10  and  C_24
    7  A    between atoms: C_11  and  N_30
    8  A    between atoms: C_11  and  C_31
    9  A    between atoms: C_13  and  C_17
   10  A    between atoms: C_14  and  C_25
   11  A    between atoms: C_15  and  C_24
   12  A    between atoms: C_15  and  C_31
   13  A    between atoms: C_17  and  C_29
   14  A    between atoms: N_20  and  C_22
   15  A    between atoms: C_24  and  O_27
                            x       y       z     vdW  Elec       q    Type
                         _______ _______ _______ _____ _____    ______ ____

>  <TORSDO>
F 15

$$$$
=
 OpenBabel10222419583D

 36 37  0  0  1  0  0  0  0  0999 V2000
  185.3100  178.6990  139.1960 C   0  0  0  0  0  0  0  0  0  0  0  0
  186.5610  178.5080  138.8940 N   0  0  0  0  0  0  0  0  0  0  0  0
  184.2790  178.2790  138.2950 N   0  0  0  0  0  0  0  0  0  0  0  0
  183.5440  177.2450  138.5380 C   0  0  0  0  0  3  0  0  0  0  0  0
  182.5320  176.8570  137.6180 N   0  0  0  0  0  0  0  0  0  0  0  0
  181.7700  175.8490  137.8870 C   0  0  0  0  0  3  0  0  0  0  0  0
  180.5470  176.0370  135.8680 O   0  0  0  0  0  0  0  0  0  0  0  0
  180.7170  175.4250  136.9550 C   0  0  0  0  0  0  0  0  0  0  0  0
  179.8250  174.2740  137.2930 C   0  0  2  0  0  3  0  0  0  0  0  0
  180.0320  173.8480  138.7340 C   0  0  0  0  0  1  0  0  0  0  0  0
  180.0790  173.1980  136.4410 O   0  0  0  0  0  1  0  0  0  0  0  0
  187.0260  177.8950  137.6530 C   0  0  1  0  0  3  0  0  0  0  0  0
  187.4600  178.9610  136.6550 C   0  0  0  0  0  1  0  0  0  0  0  0
  188.1750  176.9320  137.9420 C   0  0  0  0  0  2  0  0  0  0  0  0
  189.4890  177.6700  138.1780 C   0  0  0  0  0  2  0  0  0  0  0  0
  190.2480  177.0650  139.3610 C   0  0  2  0  0  3  0  0  0  0  0  0
  190.7660  175.7770  139.0910 O   0  0  0  0  0  0  0  0  0  0  0  0
  191.6810  175.8610  138.0260 C   0  0  0  0  0  1  0  0  0  0  0  0
  189.4360  177.1160  140.6590 C   0  0  0  0  0  2  0  0  0  0  0  0
  190.1890  175.3980  142.8140 O   0  0  0  0  0  0  0  0  0  0  0  0
  190.2780  177.4930  141.7870 N   0  0  0  0  0  2  0  0  0  0  0  0
  190.6220  176.5810  142.8290 C   0  0  0  0  0  0  0  0  0  0  0  0
  191.5220  177.0230  143.9290 C   0  0  0  0  0  2  0  0  0  0  0  0
  191.5770  178.5360  143.9770 C   0  0  0  0  0  1  0  0  0  0  0  0
  184.9650  179.3210  140.4040 O   0  0  0  0  0  0  0  0  0  0  0  0
  184.2320  178.6720  141.4430 C   0  0  0  0  0  2  0  0  0  0  0  0
  188.3010  177.4770  146.0570 S   0  0  0  0  0  0  0  0  0  0  0  0
  187.1060  177.9230  144.9720 C   0  0  0  0  0  0  0  0  0  0  0  0
  184.8490  179.0090  145.1350 N   0  0  0  0  0  0  0  0  0  0  0  0
  187.5130  177.9820  147.4550 C   0  0  0  0  0  3  0  0  0  0  0  0
  184.4160  179.0410  143.9120 C   0  0  0  0  0  3  0  0  0  0  0  0
  186.2870  178.5170  147.0630 C   0  0  0  0  0  3  0  0  0  0  0  0
  185.0540  178.5370  142.6840 C   0  0  0  0  0  0  0  0  0  0  0  0
  187.2280  177.7430  143.5680 N   0  0  0  0  0  0  0  0  0  0  0  0
  186.2670  178.0000  142.5450 C   0  0  0  0  0  3  0  0  0  0  0  0
  186.0590  178.4840  145.6790 C   0  0  2  0  0  3  0  0  0  0  0  0
  1 25  1  0  0  0  0
  2  1  2  0  0  0  0
  3  4  2  0  0  0  0
  3  1  1  0  0  0  0
  5  6  2  0  0  0  0
  5  4  1  0  0  0  0
  7  8  2  0  0  0  0
  8  9  1  0  0  0  0
  8  6  1  0  0  0  0
  9 10  1  1  0  0  0
 11  9  1  0  0  0  0
 12 13  1  6  0  0  0
 12 14  1  0  0  0  0
 12  2  1  0  0  0  0
 14 15  1  0  0  0  0
 16 15  1  6  0  0  0
 16 19  1  0  0  0  0
 17 16  1  0  0  0  0
 18 17  1  0  0  0  0
 19 21  1  0  0  0  0
 20 22  2  0  0  0  0
 21 22  1  0  0  0  0
 22 23  1  0  0  0  0
 23 24  1  0  0  0  0
 25 26  1  0  0  0  0
 26 33  1  0  0  0  0
 27 30  1  0  0  0  0
 28 36  1  0  0  0  0
 28 27  1  0  0  0  0
 29 36  1  0  0  0  0
 31 29  2  0  0  0  0
 32 30  2  0  0  0  0
 33 31  1  0  0  0  0
 34 28  2  0  0  0  0
 35 33  2  0  0  0  0
 35 34  1  0  0  0  0
 36 32  1  6  0  0  0
M  END
>  <MODEL>
8

>  <REMARK>
 VINA RESULT:      -6.9      3.912      7.442
  Name = 
  15 active torsions:
  status: ('A' for Active; 'I' for Inactive)
    1  A    between atoms: N_1  and  C_18
    2  A    between atoms: O_7  and  C_14
    3  A    between atoms: O_7  and  C_18
    4  A    between atoms: C_9  and  C_23
    5  A    between atoms: C_10  and  N_21
    6  A    between atoms: C_10  and  C_24
    7  A    between atoms: C_11  and  N_30
    8  A    between atoms: C_11  and  C_31
    9  A    between atoms: C_13  and  C_17
   10  A    between atoms: C_14  and  C_25
   11  A    between atoms: C_15  and  C_24
   12  A    between atoms: C_15  and  C_31
   13  A    between atoms: C_17  and  C_29
   14  A    between atoms: N_20  and  C_22
   15  A    between atoms: C_24  and  O_27
                            x       y       z     vdW  Elec       q    Type
                         _______ _______ _______ _____ _____    ______ ____

>  <TORSDO>
F 15

$$$$
=
 OpenBabel10222419583D

 36 37  0  0  1  0  0  0  0  0999 V2000
  186.2670  178.7540  141.4320 C   0  0  0  0  0  0  0  0  0  0  0  0
  186.2290  178.4480  142.6960 N   0  0  0  0  0  0  0  0  0  0  0  0
  185.2680  179.6100  140.8670 N   0  0  0  0  0  0  0  0  0  0  0  0
  184.5630  179.2500  139.8450 C   0  0  0  0  0  3  0  0  0  0  0  0
  183.5830  180.1290  139.3100 N   0  0  0  0  0  0  0  0  0  0  0  0
  182.5910  179.6510  138.6330 C   0  0  0  0  0  3  0  0  0  0  0  0
  181.5350  181.7540  138.3760 O   0  0  0  0  0  0  0  0  0  0  0  0
  181.5630  180.5330  138.0680 C   0  0  0  0  0  0  0  0  0  0  0  0
  180.5300  179.9920  137.1340 C   0  0  2  0  0  3  0  0  0  0  0  0
  181.1680  179.0630  136.1180 C   0  0  0  0  0  1  0  0  0  0  0  0
  179.8770  181.0350  136.4760 O   0  0  0  0  0  1  0  0  0  0  0  0
  185.2000  178.9070  143.6250 C   0  0  1  0  0  3  0  0  0  0  0  0
  183.8600  178.2520  143.3110 C   0  0  0  0  0  1  0  0  0  0  0  0
  185.6190  178.6090  145.0620 C   0  0  0  0  0  2  0  0  0  0  0  0
  187.0140  177.9940  145.1300 C   0  0  0  0  0  2  0  0  0  0  0  0
  187.3190  177.4910  146.5430 C   0  0  2  0  0  3  0  0  0  0  0  0
  186.8390  178.3540  147.5570 O   0  0  0  0  0  0  0  0  0  0  0  0
  187.7020  178.2870  148.6660 C   0  0  0  0  0  1  0  0  0  0  0  0
  188.7960  177.1270  146.7250 C   0  0  0  0  0  2  0  0  0  0  0  0
  191.5590  176.5370  146.3010 O   0  0  0  0  0  0  0  0  0  0  0  0
  189.5770  177.5260  145.5600 N   0  0  0  0  0  2  0  0  0  0  0  0
  190.9560  177.1910  145.4090 C   0  0  0  0  0  0  0  0  0  0  0  0
  191.6820  177.5960  144.1740 C   0  0  0  0  0  2  0  0  0  0  0  0
  191.2780  179.0000  143.7730 C   0  0  0  0  0  1  0  0  0  0  0  0
  187.2850  178.2420  140.6150 O   0  0  0  0  0  0  0  0  0  0  0  0
  188.6170  178.0080  141.0690 C   0  0  0  0  0  2  0  0  0  0  0  0
  191.4210  175.9450  135.8570 S   0  0  0  0  0  0  0  0  0  0  0  0
  190.8760  176.5290  137.3300 C   0  0  0  0  0  0  0  0  0  0  0  0
  191.9060  176.9690  139.5760 N   0  0  0  0  0  0  0  0  0  0  0  0
  193.0180  175.6780  136.3160 C   0  0  0  0  0  3  0  0  0  0  0  0
  190.9210  177.3950  140.3060 C   0  0  0  0  0  3  0  0  0  0  0  0
  193.1290  176.0590  137.6520 C   0  0  0  0  0  3  0  0  0  0  0  0
  189.5020  177.5640  139.9500 C   0  0  0  0  0  0  0  0  0  0  0  0
  189.5380  176.9510  137.5490 N   0  0  0  0  0  0  0  0  0  0  0  0
  188.9240  177.3890  138.7600 C   0  0  0  0  0  3  0  0  0  0  0  0
  191.9360  176.5330  138.2180 C   0  0  2  0  0  3  0  0  0  0  0  0
  1  2  2  0  0  0  0
  2 12  1  0  0  0  0
  3  1  1  0  0  0  0
  4  3  2  0  0  0  0
  5  4  1  0  0  0  0
  6  5  2  0  0  0  0
  8  7  2  0  0  0  0
  8  6  1  0  0  0  0
  9 10  1  6  0  0  0
  9  8  1  0  0  0  0
 11  9  1  0  0  0  0
 12 13  1  6  0  0  0
 12 14  1  0  0  0  0
 14 15  1  0  0  0  0
 16 15  1  6  0  0  0
 16 19  1  0  0  0  0
 16 17  1  0  0  0  0
 17 18  1  0  0  0  0
 21 19  1  0  0  0  0
 22 21  1  0  0  0  0
 22 20  2  0  0  0  0
 23 22  1  0  0  0  0
 24 23  1  0  0  0  0
 25 26  1  0  0  0  0
 25  1  1  0  0  0  0
 27 30  1  0  0  0  0
 27 28  1  0  0  0  0
 28 34  2  0  0  0  0
 28 36  1  0  0  0  0
 29 31  2  0  0  0  0
 30 32  2  0  0  0  0
 33 31  1  0  0  0  0
 33 26  1  0  0  0  0
 34 35  1  0  0  0  0
 35 33  2  0  0  0  0
 36 32  1  6  0  0  0
 36 29  1  0  0  0  0
M  END
>  <MODEL>
9

>  <REMARK>
 VINA RESULT:      -6.9      3.554      8.143
  Name = 
  15 active torsions:
  status: ('A' for Active; 'I' for Inactive)
    1  A    between atoms: N_1  and  C_18
    2  A    between atoms: O_7  and  C_14
    3  A    between atoms: O_7  and  C_18
    4  A    between atoms: C_9  and  C_23
    5  A    between atoms: C_10  and  N_21
    6  A    between atoms: C_10  and  C_24
    7  A    between atoms: C_11  and  N_30
    8  A    between atoms: C_11  and  C_31
    9  A    between atoms: C_13  and  C_17
   10  A    between atoms: C_14  and  C_25
   11  A    between atoms: C_15  and  C_24
   12  A    between atoms: C_15  and  C_31
   13  A    between atoms: C_17  and  C_29
   14  A    between atoms: N_20  and  C_22
   15  A    between atoms: C_24  and  O_27
                            x       y       z     vdW  Elec       q    Type
                         _______ _______ _______ _____ _____    ______ ____

>  <TORSDO>
F 15

$$$$
