=
 OpenBabel10222416333D

 32 33  0  0  1  0  0  0  0  0999 V2000
  185.7330  178.9030  147.2160 O   0  0  0  0  0  0  0  0  0  0  0  0
  186.4490  177.9250  145.3990 C   0  0  0  0  0  0  0  0  0  0  0  0
  186.6640  178.1040  146.7470 C   0  0  0  0  0  0  0  0  0  0  0  0
  185.3350  178.6900  145.1340 C   0  0  0  0  0  0  0  0  0  0  0  0
  184.9170  179.2810  146.2720 N   0  0  0  0  0  0  0  0  0  0  0  0
  184.7030  178.9090  143.7990 C   0  0  0  0  0  2  0  0  0  0  0  0
  183.2070  179.1300  143.9390 C   0  0  0  0  0  2  0  0  0  0  0  0
  182.5780  178.9320  142.7110 O   0  0  0  0  0  0  0  0  0  0  0  0
  183.5920  178.5040  141.8560 C   0  0  0  0  0  2  0  0  0  0  0  0
  183.2400  178.8600  140.4220 C   0  0  0  0  0  2  0  0  0  0  0  0
  184.7430  178.8220  138.6360 C   0  0  0  0  0  1  0  0  0  0  0  0
  184.3420  179.5830  139.8080 N   0  0  0  0  0  2  0  0  0  0  0  0
  187.2790  177.1510  144.4320 C   0  0  0  0  0  2  0  0  0  0  0  0
  187.9750  178.0700  143.5440 N   0  0  0  0  0  2  0  0  0  0  0  0
  189.1150  177.3450  143.0050 C   0  0  1  0  0  3  0  0  0  0  0  0
  188.9770  175.8600  143.2990 C   0  0  0  0  0  1  0  0  0  0  0  0
  188.1290  178.1610  140.7830 C   0  0  0  0  0  0  0  0  0  0  0  0
  189.2700  177.5970  141.5280 C   0  0  0  0  0  0  0  0  0  0  0  0
  188.3000  178.5690  139.4240 N   0  0  0  0  0  0  0  0  0  0  0  0
  190.4320  177.3840  140.8790 C   0  0  0  0  0  0  0  0  0  0  0  0
  187.0160  178.3250  141.3450 O   0  0  0  0  0  0  0  0  0  0  0  0
  189.4090  178.3640  138.7810 C   0  0  0  0  0  3  0  0  0  0  0  0
  191.5420  176.9050  141.5700 O   0  0  0  0  0  1  0  0  0  0  0  0
  190.7830  176.3220  138.6680 C   0  0  0  0  0  1  0  0  0  0  0  0
  190.5760  177.6360  139.3950 C   0  0  2  0  0  3  0  0  0  0  0  0
  187.7410  177.4810  147.5730 C   0  0  0  0  0  2  0  0  0  0  0  0
  189.0870  177.6410  146.8860 C   0  0  0  0  0  2  0  0  0  0  0  0
  189.6900  176.3910  146.7100 O   0  0  0  0  0  0  0  0  0  0  0  0
  191.7750  177.7390  145.4590 O   0  0  0  0  0  0  0  0  0  0  0  0
  191.3630  176.6860  146.7220 P   0  0  0  0  0  0  0  0  0  0  0  0
  191.7750  177.2960  148.0440 O   0  0  0  0  0  1  0  0  0  0  0  0
  192.1850  175.2210  146.5130 O   0  0  0  0  0  1  0  0  0  0  0  0
  2  3  2  0  0  0  0
  3  1  1  0  0  0  0
  3 26  1  0  0  0  0
  4  2  1  0  0  0  0
  4  5  2  0  0  0  0
  5  1  1  0  0  0  0
  6  7  1  0  0  0  0
  6  4  1  0  0  0  0
  8  7  1  0  0  0  0
  9  8  1  0  0  0  0
 10  9  1  0  0  0  0
 11 12  1  0  0  0  0
 12 10  1  0  0  0  0
 13  2  1  0  0  0  0
 14 13  1  0  0  0  0
 15 16  1  6  0  0  0
 15 14  1  0  0  0  0
 17 21  2  0  0  0  0
 17 18  1  0  0  0  0
 18 15  1  0  0  0  0
 19 17  1  0  0  0  0
 20 18  2  0  0  0  0
 20 23  1  0  0  0  0
 22 25  1  0  0  0  0
 22 19  2  0  0  0  0
 25 24  1  6  0  0  0
 25 20  1  0  0  0  0
 27 26  1  0  0  0  0
 28 30  1  0  0  0  0
 28 27  1  0  0  0  0
 29 30  2  0  0  0  0
 30 31  1  0  0  0  0
 32 30  1  0  0  0  0
M  END
>  <MODEL>
1

>  <REMARK>
 VINA RESULT:      -7.4      0.000      0.000
  Name = 
  14 active torsions:
  status: ('A' for Active; 'I' for Inactive)
    1  A    between atoms: O_1  and  C_10
    2  A    between atoms: O_1  and  C_28
    3  A    between atoms: C_2  and  N_27
    4  A    between atoms: C_2  and  C_28
    5  A    between atoms: C_5  and  C_15
    6  A    between atoms: C_6  and  O_11
    7  A    between atoms: C_6  and  C_32
    8  A    between atoms: C_7  and  C_17
    9  A    between atoms: C_10  and  C_13
   10  A    between atoms: O_11  and  P_26
   11  A    between atoms: C_13  and  C_22
   12  A    between atoms: C_15  and  N_25
   13  A    between atoms: C_17  and  N_25
   14  A    between atoms: C_21  and  C_32
                            x       y       z     vdW  Elec       q    Type
                         _______ _______ _______ _____ _____    ______ ____

>  <TORSDO>
F 14

$$$$
=
 OpenBabel10222416333D

 32 33  0  0  1  0  0  0  0  0999 V2000
  184.7460  179.4040  146.2170 O   0  0  0  0  0  0  0  0  0  0  0  0
  185.9620  178.1540  144.9020 C   0  0  0  0  0  0  0  0  0  0  0  0
  184.9410  179.0760  144.9610 C   0  0  0  0  0  0  0  0  0  0  0  0
  186.3230  177.9720  146.2180 C   0  0  0  0  0  0  0  0  0  0  0  0
  185.5570  178.7550  147.0050 N   0  0  0  0  0  0  0  0  0  0  0  0
  187.3500  177.0190  146.7360 C   0  0  0  0  0  2  0  0  0  0  0  0
  188.1280  177.6340  147.8860 C   0  0  0  0  0  2  0  0  0  0  0  0
  189.3470  178.1330  147.4260 O   0  0  0  0  0  0  0  0  0  0  0  0
  190.2060  177.0350  147.4370 C   0  0  0  0  0  2  0  0  0  0  0  0
  190.9520  176.9560  146.1160 C   0  0  0  0  0  2  0  0  0  0  0  0
  192.3260  175.8260  147.6290 C   0  0  0  0  0  1  0  0  0  0  0  0
  192.0260  175.9790  146.2140 N   0  0  0  0  0  2  0  0  0  0  0  0
  186.4950  177.4500  143.7000 C   0  0  0  0  0  2  0  0  0  0  0  0
  187.3300  178.3620  142.9330 N   0  0  0  0  0  2  0  0  0  0  0  0
  188.5620  177.6490  142.6360 C   0  0  1  0  0  3  0  0  0  0  0  0
  188.4420  176.1960  143.0660 C   0  0  0  0  0  1  0  0  0  0  0  0
  187.9190  178.3290  140.2480 C   0  0  0  0  0  0  0  0  0  0  0  0
  188.9130  177.7580  141.1750 C   0  0  0  0  0  0  0  0  0  0  0  0
  188.2840  178.6030  138.8940 N   0  0  0  0  0  0  0  0  0  0  0  0
  190.1260  177.4100  140.6980 C   0  0  0  0  0  0  0  0  0  0  0  0
  186.7620  178.6180  140.6490 O   0  0  0  0  0  0  0  0  0  0  0  0
  189.4440  178.2680  138.4160 C   0  0  0  0  0  3  0  0  0  0  0  0
  191.1030  176.9200  141.5600 O   0  0  0  0  0  1  0  0  0  0  0  0
  190.6580  176.1350  138.6410 C   0  0  0  0  0  1  0  0  0  0  0  0
  190.4680  177.5200  139.2290 C   0  0  2  0  0  3  0  0  0  0  0  0
  184.1890  179.6550  143.8070 C   0  0  0  0  0  2  0  0  0  0  0  0
  183.0870  178.7030  143.3710 C   0  0  0  0  0  2  0  0  0  0  0  0
  181.9050  178.9880  144.0620 O   0  0  0  0  0  0  0  0  0  0  0  0
  179.4720  178.0890  143.0610 O   0  0  0  0  0  1  0  0  0  0  0  0
  180.7210  179.2180  142.8650 P   0  0  0  0  0  0  0  0  0  0  0  0
  180.1560  180.6180  142.9540 O   0  0  0  0  0  1  0  0  0  0  0  0
  181.4260  179.0060  141.3410 O   0  0  0  0  0  0  0  0  0  0  0  0
  1  5  1  0  0  0  0
  2  3  2  0  0  0  0
  2  4  1  0  0  0  0
  3  1  1  0  0  0  0
  4  6  1  0  0  0  0
  4  5  2  0  0  0  0
  6  7  1  0  0  0  0
  8  9  1  0  0  0  0
  8  7  1  0  0  0  0
 10 12  1  0  0  0  0
 10  9  1  0  0  0  0
 12 11  1  0  0  0  0
 13  2  1  0  0  0  0
 14 13  1  0  0  0  0
 15 14  1  0  0  0  0
 15 16  1  6  0  0  0
 17 21  2  0  0  0  0
 17 18  1  0  0  0  0
 18 15  1  0  0  0  0
 19 17  1  0  0  0  0
 20 18  2  0  0  0  0
 20 23  1  0  0  0  0
 22 19  2  0  0  0  0
 22 25  1  0  0  0  0
 25 24  1  6  0  0  0
 25 20  1  0  0  0  0
 26  3  1  0  0  0  0
 27 26  1  0  0  0  0
 27 28  1  0  0  0  0
 30 31  1  0  0  0  0
 30 29  1  0  0  0  0
 30 28  1  0  0  0  0
 32 30  2  0  0  0  0
M  END
>  <MODEL>
2

>  <REMARK>
 VINA RESULT:      -7.4      2.680      6.514
  Name = 
  14 active torsions:
  status: ('A' for Active; 'I' for Inactive)
    1  A    between atoms: O_1  and  C_10
    2  A    between atoms: O_1  and  C_28
    3  A    between atoms: C_2  and  N_27
    4  A    between atoms: C_2  and  C_28
    5  A    between atoms: C_5  and  C_15
    6  A    between atoms: C_6  and  O_11
    7  A    between atoms: C_6  and  C_32
    8  A    between atoms: C_7  and  C_17
    9  A    between atoms: C_10  and  C_13
   10  A    between atoms: O_11  and  P_26
   11  A    between atoms: C_13  and  C_22
   12  A    between atoms: C_15  and  N_25
   13  A    between atoms: C_17  and  N_25
   14  A    between atoms: C_21  and  C_32
                            x       y       z     vdW  Elec       q    Type
                         _______ _______ _______ _____ _____    ______ ____

>  <TORSDO>
F 14

$$$$
=
 OpenBabel10222416333D

 32 33  0  0  1  0  0  0  0  0999 V2000
  185.6550  178.9570  147.0650 O   0  0  0  0  0  0  0  0  0  0  0  0
  186.3370  177.9920  145.2290 C   0  0  0  0  0  0  0  0  0  0  0  0
  186.5640  178.1440  146.5790 C   0  0  0  0  0  0  0  0  0  0  0  0
  185.2410  178.7880  144.9830 C   0  0  0  0  0  0  0  0  0  0  0  0
  184.8430  179.3700  146.1330 N   0  0  0  0  0  0  0  0  0  0  0  0
  184.6070  179.0440  143.6550 C   0  0  0  0  0  2  0  0  0  0  0  0
  183.0970  178.9050  143.7400 C   0  0  0  0  0  2  0  0  0  0  0  0
  182.5450  178.8930  142.4600 O   0  0  0  0  0  0  0  0  0  0  0  0
  181.1670  178.8590  142.6680 C   0  0  0  0  0  2  0  0  0  0  0  0
  180.8760  178.5030  144.1160 C   0  0  0  0  0  2  0  0  0  0  0  0
  178.9310  179.7050  143.6420 C   0  0  0  0  0  1  0  0  0  0  0  0
  179.4420  178.5450  144.3560 N   0  0  0  0  0  2  0  0  0  0  0  0
  187.1430  177.2130  144.2450 C   0  0  0  0  0  2  0  0  0  0  0  0
  187.8450  178.1300  143.3580 N   0  0  0  0  0  2  0  0  0  0  0  0
  188.9850  177.4020  142.8260 C   0  0  1  0  0  3  0  0  0  0  0  0
  188.8510  175.9200  143.1360 C   0  0  0  0  0  1  0  0  0  0  0  0
  188.0070  178.2220  140.6030 C   0  0  0  0  0  0  0  0  0  0  0  0
  189.1380  177.6380  141.3460 C   0  0  0  0  0  0  0  0  0  0  0  0
  188.1790  178.6150  139.2390 N   0  0  0  0  0  0  0  0  0  0  0  0
  190.2910  177.3930  140.6930 C   0  0  0  0  0  0  0  0  0  0  0  0
  186.9010  178.4160  141.1690 O   0  0  0  0  0  0  0  0  0  0  0  0
  189.2800  178.3790  138.5920 C   0  0  0  0  0  3  0  0  0  0  0  0
  191.3940  176.8940  141.3820 O   0  0  0  0  0  1  0  0  0  0  0  0
  190.6060  176.3050  138.4880 C   0  0  0  0  0  1  0  0  0  0  0  0
  190.4330  177.6300  139.2060 C   0  0  2  0  0  3  0  0  0  0  0  0
  187.6290  177.4810  147.3890 C   0  0  0  0  0  2  0  0  0  0  0  0
  188.9810  177.6550  146.7160 C   0  0  0  0  0  2  0  0  0  0  0  0
  189.6050  176.4130  146.5620 O   0  0  0  0  0  0  0  0  0  0  0  0
  192.0300  175.4150  145.6370 O   0  0  0  0  0  1  0  0  0  0  0  0
  191.2520  176.7570  146.3200 P   0  0  0  0  0  0  0  0  0  0  0  0
  191.4050  177.9510  145.4030 O   0  0  0  0  0  0  0  0  0  0  0  0
  191.9680  177.1130  147.8110 O   0  0  0  0  0  1  0  0  0  0  0  0
  2  3  2  0  0  0  0
  3  1  1  0  0  0  0
  3 26  1  0  0  0  0
  4  2  1  0  0  0  0
  4  5  2  0  0  0  0
  5  1  1  0  0  0  0
  6  7  1  0  0  0  0
  6  4  1  0  0  0  0
  8  9  1  0  0  0  0
  8  7  1  0  0  0  0
  9 10  1  0  0  0  0
 10 12  1  0  0  0  0
 11 12  1  0  0  0  0
 13  2  1  0  0  0  0
 14 13  1  0  0  0  0
 15 16  1  6  0  0  0
 15 14  1  0  0  0  0
 17 21  2  0  0  0  0
 17 18  1  0  0  0  0
 18 15  1  0  0  0  0
 19 17  1  0  0  0  0
 20 18  2  0  0  0  0
 20 23  1  0  0  0  0
 22 25  1  0  0  0  0
 22 19  2  0  0  0  0
 25 24  1  6  0  0  0
 25 20  1  0  0  0  0
 27 26  1  0  0  0  0
 28 27  1  0  0  0  0
 29 30  1  0  0  0  0
 30 28  1  0  0  0  0
 30 32  1  0  0  0  0
 31 30  2  0  0  0  0
M  END
>  <MODEL>
3

>  <REMARK>
 VINA RESULT:      -7.1      1.449      2.174
  Name = 
  14 active torsions:
  status: ('A' for Active; 'I' for Inactive)
    1  A    between atoms: O_1  and  C_10
    2  A    between atoms: O_1  and  C_28
    3  A    between atoms: C_2  and  N_27
    4  A    between atoms: C_2  and  C_28
    5  A    between atoms: C_5  and  C_15
    6  A    between atoms: C_6  and  O_11
    7  A    between atoms: C_6  and  C_32
    8  A    between atoms: C_7  and  C_17
    9  A    between atoms: C_10  and  C_13
   10  A    between atoms: O_11  and  P_26
   11  A    between atoms: C_13  and  C_22
   12  A    between atoms: C_15  and  N_25
   13  A    between atoms: C_17  and  N_25
   14  A    between atoms: C_21  and  C_32
                            x       y       z     vdW  Elec       q    Type
                         _______ _______ _______ _____ _____    ______ ____

>  <TORSDO>
F 14

$$$$
=
 OpenBabel10222416333D

 32 33  0  0  1  0  0  0  0  0999 V2000
  187.0500  178.4990  139.1520 O   0  0  0  0  0  0  0  0  0  0  0  0
  188.2420  178.4370  140.9820 C   0  0  0  0  0  0  0  0  0  0  0  0
  188.2790  178.4070  139.6050 C   0  0  0  0  0  0  0  0  0  0  0  0
  186.9000  178.5400  141.2770 C   0  0  0  0  0  0  0  0  0  0  0  0
  186.1910  178.5760  140.1300 N   0  0  0  0  0  0  0  0  0  0  0  0
  186.2870  178.5460  142.6380 C   0  0  0  0  0  2  0  0  0  0  0  0
  185.0580  179.4390  142.6740 C   0  0  0  0  0  2  0  0  0  0  0  0
  183.9570  178.7190  143.1350 O   0  0  0  0  0  0  0  0  0  0  0  0
  183.4920  179.4440  144.2310 C   0  0  0  0  0  2  0  0  0  0  0  0
  183.8750  178.7330  145.5170 C   0  0  0  0  0  2  0  0  0  0  0  0
  185.9370  178.1950  146.4720 C   0  0  0  0  0  1  0  0  0  0  0  0
  185.1000  179.3080  146.0530 N   0  0  0  0  0  2  0  0  0  0  0  0
  189.3810  178.3030  141.9340 C   0  0  0  0  0  2  0  0  0  0  0  0
  189.2840  177.0280  142.6310 N   0  0  0  0  0  2  0  0  0  0  0  0
  190.6440  176.6220  142.9460 C   0  0  1  0  0  3  0  0  0  0  0  0
  191.6370  177.5880  142.3210 C   0  0  0  0  0  1  0  0  0  0  0  0
  191.7900  175.5070  144.9510 C   0  0  0  0  0  0  0  0  0  0  0  0
  190.8480  176.5170  144.4350 C   0  0  0  0  0  0  0  0  0  0  0  0
  192.1320  175.4970  146.3390 N   0  0  0  0  0  0  0  0  0  0  0  0
  190.2460  177.3530  145.3050 C   0  0  0  0  0  0  0  0  0  0  0  0
  192.3290  174.6790  144.1730 O   0  0  0  0  0  0  0  0  0  0  0  0
  191.5570  176.2900  147.1910 C   0  0  0  0  0  3  0  0  0  0  0  0
  189.3940  178.3520  144.8410 O   0  0  0  0  0  1  0  0  0  0  0  0
  189.1620  176.8020  147.4650 C   0  0  0  0  0  1  0  0  0  0  0  0
  190.4540  177.2370  146.7990 C   0  0  2  0  0  3  0  0  0  0  0  0
  189.4960  178.3240  138.7440 C   0  0  0  0  0  2  0  0  0  0  0  0
  189.9260  176.8750  138.5860 C   0  0  0  0  0  2  0  0  0  0  0  0
  190.3780  176.6470  137.2810 O   0  0  0  0  0  0  0  0  0  0  0  0
  191.7480  174.3000  137.8690 O   0  0  0  0  0  1  0  0  0  0  0  0
  191.9120  175.9340  137.4490 P   0  0  0  0  0  0  0  0  0  0  0  0
  192.6840  176.0480  136.1530 O   0  0  0  0  0  0  0  0  0  0  0  0
  192.7650  176.7370  138.6700 O   0  0  0  0  0  1  0  0  0  0  0  0
  1  3  1  0  0  0  0
  1  5  1  0  0  0  0
  2  4  1  0  0  0  0
  2 13  1  0  0  0  0
  3  2  2  0  0  0  0
  4  6  1  0  0  0  0
  5  4  2  0  0  0  0
  6  7  1  0  0  0  0
  7  8  1  0  0  0  0
  8  9  1  0  0  0  0
  9 10  1  0  0  0  0
 10 12  1  0  0  0  0
 12 11  1  0  0  0  0
 13 14  1  0  0  0  0
 14 15  1  0  0  0  0
 15 16  1  1  0  0  0
 15 18  1  0  0  0  0
 17 19  1  0  0  0  0
 18 17  1  0  0  0  0
 18 20  2  0  0  0  0
 19 22  2  0  0  0  0
 20 25  1  0  0  0  0
 21 17  2  0  0  0  0
 23 20  1  0  0  0  0
 25 22  1  0  0  0  0
 25 24  1  1  0  0  0
 26  3  1  0  0  0  0
 27 26  1  0  0  0  0
 28 30  1  0  0  0  0
 28 27  1  0  0  0  0
 30 29  1  0  0  0  0
 30 32  1  0  0  0  0
 31 30  2  0  0  0  0
M  END
>  <MODEL>
4

>  <REMARK>
 VINA RESULT:      -6.9      2.954      6.629
  Name = 
  14 active torsions:
  status: ('A' for Active; 'I' for Inactive)
    1  A    between atoms: O_1  and  C_10
    2  A    between atoms: O_1  and  C_28
    3  A    between atoms: C_2  and  N_27
    4  A    between atoms: C_2  and  C_28
    5  A    between atoms: C_5  and  C_15
    6  A    between atoms: C_6  and  O_11
    7  A    between atoms: C_6  and  C_32
    8  A    between atoms: C_7  and  C_17
    9  A    between atoms: C_10  and  C_13
   10  A    between atoms: O_11  and  P_26
   11  A    between atoms: C_13  and  C_22
   12  A    between atoms: C_15  and  N_25
   13  A    between atoms: C_17  and  N_25
   14  A    between atoms: C_21  and  C_32
                            x       y       z     vdW  Elec       q    Type
                         _______ _______ _______ _____ _____    ______ ____

>  <TORSDO>
F 14

$$$$
=
 OpenBabel10222416333D

 32 33  0  0  1  0  0  0  0  0999 V2000
  188.2980  177.8530  143.4160 O   0  0  0  0  0  0  0  0  0  0  0  0
  190.0650  177.5490  142.1680 C   0  0  0  0  0  0  0  0  0  0  0  0
  188.7620  177.9950  142.1960 C   0  0  0  0  0  0  0  0  0  0  0  0
  190.3020  177.1310  143.4590 C   0  0  0  0  0  0  0  0  0  0  0  0
  189.1950  177.3310  144.2040 N   0  0  0  0  0  0  0  0  0  0  0  0
  191.5500  176.4920  143.9720 C   0  0  0  0  0  2  0  0  0  0  0  0
  191.3890  176.0820  145.4260 C   0  0  0  0  0  2  0  0  0  0  0  0
  191.8990  177.0740  146.2620 O   0  0  0  0  0  0  0  0  0  0  0  0
  191.3700  176.7840  147.5190 C   0  0  0  0  0  2  0  0  0  0  0  0
  189.8550  176.8780  147.4720 C   0  0  0  0  0  2  0  0  0  0  0  0
  187.9660  177.8760  148.4160 C   0  0  0  0  0  1  0  0  0  0  0  0
  189.4060  178.0140  148.2620 N   0  0  0  0  0  2  0  0  0  0  0  0
  190.9800  177.4580  140.9940 C   0  0  0  0  0  2  0  0  0  0  0  0
  190.4320  176.5220  140.0230 N   0  0  0  0  0  2  0  0  0  0  0  0
  190.7030  177.0810  138.7080 C   0  0  1  0  0  3  0  0  0  0  0  0
  191.9460  176.4410  138.1120 C   0  0  0  0  0  1  0  0  0  0  0  0
  188.7940  178.1290  137.3550 C   0  0  0  0  0  0  0  0  0  0  0  0
  189.5150  176.9220  137.7950 C   0  0  0  0  0  0  0  0  0  0  0  0
  187.7740  178.0240  136.3580 N   0  0  0  0  0  0  0  0  0  0  0  0
  189.1300  175.7200  137.3190 C   0  0  0  0  0  0  0  0  0  0  0  0
  189.0950  179.2590  137.8180 O   0  0  0  0  0  0  0  0  0  0  0  0
  187.3850  176.8750  135.8950 C   0  0  0  0  0  3  0  0  0  0  0  0
  189.8280  174.5690  137.6750 O   0  0  0  0  0  1  0  0  0  0  0  0
  186.8320  174.8120  137.1240 C   0  0  0  0  0  1  0  0  0  0  0  0
  187.9330  175.5690  136.4070 C   0  0  2  0  0  3  0  0  0  0  0  0
  187.9920  178.5820  141.0580 C   0  0  0  0  0  2  0  0  0  0  0  0
  186.5030  178.3530  141.2610 C   0  0  0  0  0  2  0  0  0  0  0  0
  185.7920  179.5190  140.9590 O   0  0  0  0  0  0  0  0  0  0  0  0
  184.0530  180.4440  138.9980 O   0  0  0  0  0  1  0  0  0  0  0  0
  184.6540  179.0660  139.7810 P   0  0  0  0  0  0  0  0  0  0  0  0
  185.2940  178.1450  138.7660 O   0  0  0  0  0  0  0  0  0  0  0  0
  183.3740  178.2520  140.5330 O   0  0  0  0  0  1  0  0  0  0  0  0
  1  5  1  0  0  0  0
  2  3  2  0  0  0  0
  2  4  1  0  0  0  0
  3  1  1  0  0  0  0
  4  6  1  0  0  0  0
  4  5  2  0  0  0  0
  6  7  1  0  0  0  0
  7  8  1  0  0  0  0
  8  9  1  0  0  0  0
 10  9  1  0  0  0  0
 10 12  1  0  0  0  0
 12 11  1  0  0  0  0
 13  2  1  0  0  0  0
 14 13  1  0  0  0  0
 15 16  1  6  0  0  0
 15 14  1  0  0  0  0
 17 18  1  0  0  0  0
 17 21  2  0  0  0  0
 18 15  1  0  0  0  0
 19 17  1  0  0  0  0
 20 23  1  0  0  0  0
 20 18  2  0  0  0  0
 22 19  2  0  0  0  0
 22 25  1  0  0  0  0
 25 24  1  1  0  0  0
 25 20  1  0  0  0  0
 26 27  1  0  0  0  0
 26  3  1  0  0  0  0
 28 27  1  0  0  0  0
 29 30  1  0  0  0  0
 30 32  1  0  0  0  0
 30 28  1  0  0  0  0
 31 30  2  0  0  0  0
M  END
>  <MODEL>
5

>  <REMARK>
 VINA RESULT:      -6.9      3.228      7.102
  Name = 
  14 active torsions:
  status: ('A' for Active; 'I' for Inactive)
    1  A    between atoms: O_1  and  C_10
    2  A    between atoms: O_1  and  C_28
    3  A    between atoms: C_2  and  N_27
    4  A    between atoms: C_2  and  C_28
    5  A    between atoms: C_5  and  C_15
    6  A    between atoms: C_6  and  O_11
    7  A    between atoms: C_6  and  C_32
    8  A    between atoms: C_7  and  C_17
    9  A    between atoms: C_10  and  C_13
   10  A    between atoms: O_11  and  P_26
   11  A    between atoms: C_13  and  C_22
   12  A    between atoms: C_15  and  N_25
   13  A    between atoms: C_17  and  N_25
   14  A    between atoms: C_21  and  C_32
                            x       y       z     vdW  Elec       q    Type
                         _______ _______ _______ _____ _____    ______ ____

>  <TORSDO>
F 14

$$$$
=
 OpenBabel10222416333D

 32 33  0  0  1  0  0  0  0  0999 V2000
  188.8070  177.1970  142.6570 O   0  0  0  0  0  0  0  0  0  0  0  0
  186.8020  177.9830  143.0230 C   0  0  0  0  0  0  0  0  0  0  0  0
  187.8330  177.8900  142.1140 C   0  0  0  0  0  0  0  0  0  0  0  0
  187.2680  177.3020  144.1260 C   0  0  0  0  0  0  0  0  0  0  0  0
  188.5050  176.8300  143.8700 N   0  0  0  0  0  0  0  0  0  0  0  0
  186.5700  177.1480  145.4370 C   0  0  0  0  0  2  0  0  0  0  0  0
  187.2650  177.9560  146.5180 C   0  0  0  0  0  2  0  0  0  0  0  0
  187.8920  177.1030  147.4250 O   0  0  0  0  0  0  0  0  0  0  0  0
  189.1540  177.6610  147.6250 C   0  0  0  0  0  2  0  0  0  0  0  0
  190.2090  176.7970  146.9560 C   0  0  0  0  0  2  0  0  0  0  0  0
  192.2550  175.7560  147.3830 C   0  0  0  0  0  1  0  0  0  0  0  0
  191.4850  176.9650  147.6330 N   0  0  0  0  0  2  0  0  0  0  0  0
  185.5150  178.7220  142.8790 C   0  0  0  0  0  2  0  0  0  0  0  0
  184.5920  177.9380  142.0720 N   0  0  0  0  0  2  0  0  0  0  0  0
  183.7550  178.8890  141.3570 C   0  0  1  0  0  3  0  0  0  0  0  0
  184.4000  179.2600  140.0310 C   0  0  0  0  0  1  0  0  0  0  0  0
  182.1640  177.2670  140.1680 C   0  0  0  0  0  0  0  0  0  0  0  0
  182.3650  178.3430  141.1550 C   0  0  0  0  0  0  0  0  0  0  0  0
  180.8950  176.6150  140.0760 N   0  0  0  0  0  0  0  0  0  0  0  0
  181.3140  178.7620  141.8880 C   0  0  0  0  0  0  0  0  0  0  0  0
  183.1110  176.8880  139.4320 O   0  0  0  0  0  0  0  0  0  0  0  0
  179.8700  177.0100  140.7690 C   0  0  0  0  0  3  0  0  0  0  0  0
  181.4870  179.7380  142.8660 O   0  0  0  0  0  1  0  0  0  0  0  0
  179.0200  179.2960  141.1180 C   0  0  0  0  0  1  0  0  0  0  0  0
  179.9220  178.2120  141.6750 C   0  0  2  0  0  3  0  0  0  0  0  0
  187.8550  178.4410  140.7260 C   0  0  0  0  0  2  0  0  0  0  0  0
  188.8570  177.6760  139.8760 C   0  0  0  0  0  2  0  0  0  0  0  0
  189.2810  178.4680  138.8030 O   0  0  0  0  0  0  0  0  0  0  0  0
  187.7340  176.4220  137.7310 O   0  0  0  0  0  1  0  0  0  0  0  0
  188.3300  177.9890  137.4790 P   0  0  0  0  0  0  0  0  0  0  0  0
  187.1730  178.9460  137.2940 O   0  0  0  0  0  1  0  0  0  0  0  0
  189.2830  178.0010  136.0800 O   0  0  0  0  0  0  0  0  0  0  0  0
  1  5  1  0  0  0  0
  2  4  1  0  0  0  0
  3  1  1  0  0  0  0
  3  2  2  0  0  0  0
  4  6  1  0  0  0  0
  5  4  2  0  0  0  0
  6  7  1  0  0  0  0
  7  8  1  0  0  0  0
  8  9  1  0  0  0  0
 10  9  1  0  0  0  0
 10 12  1  0  0  0  0
 11 12  1  0  0  0  0
 13  2  1  0  0  0  0
 14 13  1  0  0  0  0
 15 16  1  6  0  0  0
 15 14  1  0  0  0  0
 17 18  1  0  0  0  0
 18 15  1  0  0  0  0
 18 20  2  0  0  0  0
 19 17  1  0  0  0  0
 19 22  2  0  0  0  0
 20 23  1  0  0  0  0
 21 17  2  0  0  0  0
 22 25  1  0  0  0  0
 25 24  1  6  0  0  0
 25 20  1  0  0  0  0
 26  3  1  0  0  0  0
 27 26  1  0  0  0  0
 28 27  1  0  0  0  0
 30 29  1  0  0  0  0
 30 28  1  0  0  0  0
 31 30  1  0  0  0  0
 32 30  2  0  0  0  0
M  END
>  <MODEL>
6

>  <REMARK>
 VINA RESULT:      -6.6      3.298      7.974
  Name = 
  14 active torsions:
  status: ('A' for Active; 'I' for Inactive)
    1  A    between atoms: O_1  and  C_10
    2  A    between atoms: O_1  and  C_28
    3  A    between atoms: C_2  and  N_27
    4  A    between atoms: C_2  and  C_28
    5  A    between atoms: C_5  and  C_15
    6  A    between atoms: C_6  and  O_11
    7  A    between atoms: C_6  and  C_32
    8  A    between atoms: C_7  and  C_17
    9  A    between atoms: C_10  and  C_13
   10  A    between atoms: O_11  and  P_26
   11  A    between atoms: C_13  and  C_22
   12  A    between atoms: C_15  and  N_25
   13  A    between atoms: C_17  and  N_25
   14  A    between atoms: C_21  and  C_32
                            x       y       z     vdW  Elec       q    Type
                         _______ _______ _______ _____ _____    ______ ____

>  <TORSDO>
F 14

$$$$
=
 OpenBabel10222416333D

 32 33  0  0  1  0  0  0  0  0999 V2000
  187.5000  176.5880  144.4490 O   0  0  0  0  0  0  0  0  0  0  0  0
  188.1860  177.5950  142.6370 C   0  0  0  0  0  0  0  0  0  0  0  0
  188.5700  176.8700  143.7420 C   0  0  0  0  0  0  0  0  0  0  0  0
  186.8210  177.7160  142.7740 C   0  0  0  0  0  0  0  0  0  0  0  0
  186.4280  177.0850  143.9000 N   0  0  0  0  0  0  0  0  0  0  0  0
  185.8990  178.4730  141.8760 C   0  0  0  0  0  2  0  0  0  0  0  0
  184.9390  179.3280  142.6840 C   0  0  0  0  0  2  0  0  0  0  0  0
  183.8010  178.5910  143.0110 O   0  0  0  0  0  0  0  0  0  0  0  0
  183.3000  179.2030  144.1590 C   0  0  0  0  0  2  0  0  0  0  0  0
  184.4440  179.5440  145.0990 C   0  0  0  0  0  2  0  0  0  0  0  0
  185.7220  178.7830  146.8990 C   0  0  0  0  0  1  0  0  0  0  0  0
  184.4380  178.6320  146.2330 N   0  0  0  0  0  2  0  0  0  0  0  0
  189.0550  178.1880  141.5800 C   0  0  0  0  0  2  0  0  0  0  0  0
  189.5150  177.1380  140.6830 N   0  0  0  0  0  2  0  0  0  0  0  0
  190.3560  177.7810  139.6860 C   0  0  1  0  0  3  0  0  0  0  0  0
  191.8190  177.4690  139.9560 C   0  0  0  0  0  1  0  0  0  0  0  0
  189.2900  178.3600  137.4280 C   0  0  0  0  0  0  0  0  0  0  0  0
  189.9570  177.3710  138.2930 C   0  0  0  0  0  0  0  0  0  0  0  0
  189.0540  178.0560  136.0510 N   0  0  0  0  0  0  0  0  0  0  0  0
  190.2450  176.1530  137.7910 C   0  0  0  0  0  0  0  0  0  0  0  0
  188.9620  179.4870  137.8790 O   0  0  0  0  0  0  0  0  0  0  0  0
  189.3180  176.8860  135.5530 C   0  0  0  0  0  3  0  0  0  0  0  0
  190.9240  175.2180  138.5680 O   0  0  0  0  0  1  0  0  0  0  0  0
  188.7850  174.6570  136.4590 C   0  0  0  0  0  1  0  0  0  0  0  0
  189.8360  175.7480  136.3930 C   0  0  2  0  0  3  0  0  0  0  0  0
  189.9550  176.4290  144.0880 C   0  0  0  0  0  2  0  0  0  0  0  0
  190.6220  177.4570  144.9870 C   0  0  0  0  0  2  0  0  0  0  0  0
  189.6590  178.1230  145.7520 O   0  0  0  0  0  0  0  0  0  0  0  0
  189.4290  178.6320  148.4760 O   0  0  0  0  0  1  0  0  0  0  0  0
  189.7700  177.4510  147.3090 P   0  0  0  0  0  0  0  0  0  0  0  0
  188.7960  176.3020  147.4510 O   0  0  0  0  0  0  0  0  0  0  0  0
  191.3420  176.8710  147.5500 O   0  0  0  0  0  1  0  0  0  0  0  0
  2  4  1  0  0  0  0
  2  3  2  0  0  0  0
  3 26  1  0  0  0  0
  3  1  1  0  0  0  0
  4  5  2  0  0  0  0
  5  1  1  0  0  0  0
  6  7  1  0  0  0  0
  6  4  1  0  0  0  0
  7  8  1  0  0  0  0
  8  9  1  0  0  0  0
  9 10  1  0  0  0  0
 10 12  1  0  0  0  0
 12 11  1  0  0  0  0
 13  2  1  0  0  0  0
 14 13  1  0  0  0  0
 15 16  1  1  0  0  0
 15 14  1  0  0  0  0
 17 21  2  0  0  0  0
 17 18  1  0  0  0  0
 18 15  1  0  0  0  0
 19 17  1  0  0  0  0
 20 18  2  0  0  0  0
 20 23  1  0  0  0  0
 22 19  2  0  0  0  0
 22 25  1  0  0  0  0
 25 24  1  1  0  0  0
 25 20  1  0  0  0  0
 26 27  1  0  0  0  0
 27 28  1  0  0  0  0
 28 30  1  0  0  0  0
 30 31  2  0  0  0  0
 30 32  1  0  0  0  0
 30 29  1  0  0  0  0
M  END
>  <MODEL>
7

>  <REMARK>
 VINA RESULT:      -6.6      2.149      3.746
  Name = 
  14 active torsions:
  status: ('A' for Active; 'I' for Inactive)
    1  A    between atoms: O_1  and  C_10
    2  A    between atoms: O_1  and  C_28
    3  A    between atoms: C_2  and  N_27
    4  A    between atoms: C_2  and  C_28
    5  A    between atoms: C_5  and  C_15
    6  A    between atoms: C_6  and  O_11
    7  A    between atoms: C_6  and  C_32
    8  A    between atoms: C_7  and  C_17
    9  A    between atoms: C_10  and  C_13
   10  A    between atoms: O_11  and  P_26
   11  A    between atoms: C_13  and  C_22
   12  A    between atoms: C_15  and  N_25
   13  A    between atoms: C_17  and  N_25
   14  A    between atoms: C_21  and  C_32
                            x       y       z     vdW  Elec       q    Type
                         _______ _______ _______ _____ _____    ______ ____

>  <TORSDO>
F 14

$$$$
=
 OpenBabel10222416333D

 32 33  0  0  1  0  0  0  0  0999 V2000
  188.5700  178.9390  139.0780 O   0  0  0  0  0  0  0  0  0  0  0  0
  189.6200  177.4950  140.3370 C   0  0  0  0  0  0  0  0  0  0  0  0
  188.5950  178.4130  140.2810 C   0  0  0  0  0  0  0  0  0  0  0  0
  190.1840  177.5490  139.0810 C   0  0  0  0  0  0  0  0  0  0  0  0
  189.5160  178.4470  138.3290 N   0  0  0  0  0  0  0  0  0  0  0  0
  191.3850  176.7960  138.6130 C   0  0  0  0  0  2  0  0  0  0  0  0
  190.9810  175.6050  137.7620 C   0  0  0  0  0  2  0  0  0  0  0  0
  191.7840  174.5060  138.0640 O   0  0  0  0  0  0  0  0  0  0  0  0
  192.7710  174.5080  137.0800 C   0  0  0  0  0  2  0  0  0  0  0  0
  194.0720  173.9750  137.6580 C   0  0  0  0  0  2  0  0  0  0  0  0
  195.8280  174.3680  139.1460 C   0  0  0  0  0  1  0  0  0  0  0  0
  194.7090  175.0020  138.4670 N   0  0  0  0  0  2  0  0  0  0  0  0
  190.0720  176.6930  141.5100 C   0  0  0  0  0  2  0  0  0  0  0  0
  190.1850  177.5570  142.6750 N   0  0  0  0  0  2  0  0  0  0  0  0
  189.1230  177.1660  143.5880 C   0  0  1  0  0  3  0  0  0  0  0  0
  188.5960  175.7890  143.2180 C   0  0  0  0  0  1  0  0  0  0  0  0
  190.9410  176.6970  145.3340 C   0  0  0  0  0  0  0  0  0  0  0  0
  189.5940  177.2050  145.0180 C   0  0  0  0  0  0  0  0  0  0  0  0
  191.4800  176.8760  146.6450 N   0  0  0  0  0  0  0  0  0  0  0  0
  188.8520  177.7450  146.0060 C   0  0  0  0  0  0  0  0  0  0  0  0
  191.6390  176.1420  144.4470 O   0  0  0  0  0  0  0  0  0  0  0  0
  190.7760  177.3870  147.6100 C   0  0  0  0  0  3  0  0  0  0  0  0
  187.5990  178.2830  145.7260 O   0  0  0  0  0  1  0  0  0  0  0  0
  188.4660  176.8670  148.2910 C   0  0  0  0  0  1  0  0  0  0  0  0
  189.3320  177.7760  147.4400 C   0  0  2  0  0  3  0  0  0  0  0  0
  187.6320  178.7480  141.3730 C   0  0  0  0  0  2  0  0  0  0  0  0
  186.2140  178.7820  140.8280 C   0  0  0  0  0  2  0  0  0  0  0  0
  185.4170  179.6220  141.6130 O   0  0  0  0  0  0  0  0  0  0  0  0
  183.3140  179.5010  143.4280 O   0  0  0  0  0  1  0  0  0  0  0  0
  184.3930  178.5890  142.4910 P   0  0  0  0  0  0  0  0  0  0  0  0
  183.6160  177.7000  141.5460 O   0  0  0  0  0  0  0  0  0  0  0  0
  185.3300  177.6180  143.5130 O   0  0  0  0  0  1  0  0  0  0  0  0
  1  3  1  0  0  0  0
  2 13  1  0  0  0  0
  3  2  2  0  0  0  0
  3 26  1  0  0  0  0
  4  2  1  0  0  0  0
  5  1  1  0  0  0  0
  5  4  2  0  0  0  0
  6  4  1  0  0  0  0
  7  8  1  0  0  0  0
  7  6  1  0  0  0  0
  9 10  1  0  0  0  0
  9  8  1  0  0  0  0
 10 12  1  0  0  0  0
 12 11  1  0  0  0  0
 13 14  1  0  0  0  0
 14 15  1  0  0  0  0
 15 16  1  6  0  0  0
 15 18  1  0  0  0  0
 17 19  1  0  0  0  0
 18 17  1  0  0  0  0
 18 20  2  0  0  0  0
 19 22  2  0  0  0  0
 20 25  1  0  0  0  0
 21 17  2  0  0  0  0
 23 20  1  0  0  0  0
 25 22  1  0  0  0  0
 25 24  1  1  0  0  0
 27 26  1  0  0  0  0
 27 28  1  0  0  0  0
 28 30  1  0  0  0  0
 30 29  1  0  0  0  0
 30 32  1  0  0  0  0
 31 30  2  0  0  0  0
M  END
>  <MODEL>
8

>  <REMARK>
 VINA RESULT:      -6.6      3.045      8.095
  Name = 
  14 active torsions:
  status: ('A' for Active; 'I' for Inactive)
    1  A    between atoms: O_1  and  C_10
    2  A    between atoms: O_1  and  C_28
    3  A    between atoms: C_2  and  N_27
    4  A    between atoms: C_2  and  C_28
    5  A    between atoms: C_5  and  C_15
    6  A    between atoms: C_6  and  O_11
    7  A    between atoms: C_6  and  C_32
    8  A    between atoms: C_7  and  C_17
    9  A    between atoms: C_10  and  C_13
   10  A    between atoms: O_11  and  P_26
   11  A    between atoms: C_13  and  C_22
   12  A    between atoms: C_15  and  N_25
   13  A    between atoms: C_17  and  N_25
   14  A    between atoms: C_21  and  C_32
                            x       y       z     vdW  Elec       q    Type
                         _______ _______ _______ _____ _____    ______ ____

>  <TORSDO>
F 14

$$$$
=
 OpenBabel10222416333D

 32 33  0  0  1  0  0  0  0  0999 V2000
  189.7710  178.2630  138.3970 O   0  0  0  0  0  0  0  0  0  0  0  0
  189.4580  177.5060  140.4210 C   0  0  0  0  0  0  0  0  0  0  0  0
  190.3060  177.5170  139.3360 C   0  0  0  0  0  0  0  0  0  0  0  0
  188.3970  178.2890  140.0240 C   0  0  0  0  0  0  0  0  0  0  0  0
  188.6180  178.7400  138.7720 N   0  0  0  0  0  0  0  0  0  0  0  0
  187.1510  178.5610  140.8010 C   0  0  0  0  0  2  0  0  0  0  0  0
  185.9440  178.6290  139.8830 C   0  0  0  0  0  2  0  0  0  0  0  0
  185.0530  179.6010  140.3340 O   0  0  0  0  0  0  0  0  0  0  0  0
  183.8010  179.1640  139.9030 C   0  0  0  0  0  2  0  0  0  0  0  0
  183.1860  178.2550  140.9540 C   0  0  0  0  0  2  0  0  0  0  0  0
  181.3850  179.3790  139.9810 C   0  0  0  0  0  1  0  0  0  0  0  0
  181.7840  178.5950  141.1390 N   0  0  0  0  0  2  0  0  0  0  0  0
  189.6110  176.7510  141.6980 C   0  0  0  0  0  2  0  0  0  0  0  0
  189.7520  177.6880  142.8030 N   0  0  0  0  0  2  0  0  0  0  0  0
  188.6990  177.3720  143.7540 C   0  0  1  0  0  3  0  0  0  0  0  0
  188.0630  176.0360  143.4060 C   0  0  0  0  0  1  0  0  0  0  0  0
  190.5950  176.8960  145.4130 C   0  0  0  0  0  0  0  0  0  0  0  0
  189.2240  177.3760  145.1660 C   0  0  0  0  0  0  0  0  0  0  0  0
  191.1790  177.0460  146.7090 N   0  0  0  0  0  0  0  0  0  0  0  0
  188.5050  177.8590  146.2000 C   0  0  0  0  0  0  0  0  0  0  0  0
  191.2740  176.3920  144.4810 O   0  0  0  0  0  0  0  0  0  0  0  0
  190.5000  177.5030  147.7170 C   0  0  0  0  0  3  0  0  0  0  0  0
  187.2280  178.3700  145.9860 O   0  0  0  0  0  1  0  0  0  0  0  0
  188.2330  176.8920  148.4650 C   0  0  0  0  0  1  0  0  0  0  0  0
  189.0390  177.8550  147.6150 C   0  0  2  0  0  3  0  0  0  0  0  0
  191.6330  176.8400  139.2290 C   0  0  0  0  0  2  0  0  0  0  0  0
  191.8330  176.3020  137.8220 C   0  0  0  0  0  2  0  0  0  0  0  0
  192.3840  175.0170  137.8720 O   0  0  0  0  0  0  0  0  0  0  0  0
  194.4450  173.8940  136.3820 O   0  0  0  0  0  0  0  0  0  0  0  0
  193.9990  175.1940  137.3740 P   0  0  0  0  0  0  0  0  0  0  0  0
  194.1710  176.4920  136.6160 O   0  0  0  0  0  1  0  0  0  0  0  0
  195.0000  175.2190  138.7390 O   0  0  0  0  0  1  0  0  0  0  0  0
  1  5  1  0  0  0  0
  1  3  1  0  0  0  0
  2 13  1  0  0  0  0
  3  2  2  0  0  0  0
  4  2  1  0  0  0  0
  4  6  1  0  0  0  0
  5  4  2  0  0  0  0
  7  8  1  0  0  0  0
  7  6  1  0  0  0  0
  9  8  1  0  0  0  0
  9 10  1  0  0  0  0
 10 12  1  0  0  0  0
 11 12  1  0  0  0  0
 13 14  1  0  0  0  0
 14 15  1  0  0  0  0
 15 16  1  6  0  0  0
 15 18  1  0  0  0  0
 17 19  1  0  0  0  0
 18 17  1  0  0  0  0
 18 20  2  0  0  0  0
 19 22  2  0  0  0  0
 20 25  1  0  0  0  0
 21 17  2  0  0  0  0
 23 20  1  0  0  0  0
 25 22  1  0  0  0  0
 25 24  1  1  0  0  0
 26  3  1  0  0  0  0
 27 28  1  0  0  0  0
 27 26  1  0  0  0  0
 29 30  2  0  0  0  0
 30 28  1  0  0  0  0
 30 32  1  0  0  0  0
 31 30  1  0  0  0  0
M  END
>  <MODEL>
9

>  <REMARK>
 VINA RESULT:      -6.6      3.100      6.927
  Name = 
  14 active torsions:
  status: ('A' for Active; 'I' for Inactive)
    1  A    between atoms: O_1  and  C_10
    2  A    between atoms: O_1  and  C_28
    3  A    between atoms: C_2  and  N_27
    4  A    between atoms: C_2  and  C_28
    5  A    between atoms: C_5  and  C_15
    6  A    between atoms: C_6  and  O_11
    7  A    between atoms: C_6  and  C_32
    8  A    between atoms: C_7  and  C_17
    9  A    between atoms: C_10  and  C_13
   10  A    between atoms: O_11  and  P_26
   11  A    between atoms: C_13  and  C_22
   12  A    between atoms: C_15  and  N_25
   13  A    between atoms: C_17  and  N_25
   14  A    between atoms: C_21  and  C_32
                            x       y       z     vdW  Elec       q    Type
                         _______ _______ _______ _____ _____    ______ ____

>  <TORSDO>
F 14

$$$$
