=
 OpenBabel10222419383D

 39 44  0  0  1  0  0  0  0  0999 V2000
  182.9010  179.2500  145.4530 O   0  0  0  0  0  0  0  0  0  0  0  0
  188.1810  177.8770  145.2660 C   0  0  0  0  0  3  0  0  0  0  0  0
  186.0440  178.1620  144.2990 C   0  0  0  0  0  0  0  0  0  0  0  0
  183.0290  178.4850  142.3480 C   0  0  0  0  0  1  0  0  0  0  0  0
  184.8810  179.0190  146.5790 N   0  0  0  0  0  0  0  0  0  0  0  0
  189.1740  178.0920  140.9710 C   0  0  2  0  0  3  0  0  0  0  0  0
  185.4620  177.8340  142.2420 N   0  0  0  0  0  0  0  0  0  0  0  0
  190.1270  177.0710  143.8120 C   0  0  2  0  0  3  0  0  0  0  0  0
  187.7640  177.4070  142.8880 C   0  0  0  0  0  0  0  0  0  0  0  0
  186.4710  177.7750  143.1050 N   0  0  0  0  0  0  0  0  0  0  0  0
  190.5720  177.8460  141.4880 C   0  0  0  0  0  0  0  0  0  0  0  0
  188.2120  177.0370  141.5070 C   0  0  0  0  0  2  0  0  0  0  0  0
  192.2540  178.0520  143.1580 O   0  0  0  0  0  1  0  0  0  0  0  0
  184.7390  178.4890  144.2690 C   0  0  0  0  0  0  0  0  0  0  0  0
  186.2190  178.6850  146.5960 C   0  0  0  0  0  3  0  0  0  0  0  0
  190.8720  178.0990  142.9410 C   0  0  2  0  0  3  0  0  0  0  0  0
  188.6670  177.4410  143.9970 C   0  0  0  0  0  0  0  0  0  0  0  0
  184.3750  178.2730  142.9430 C   0  0  0  0  0  0  0  0  0  0  0  0
  184.1190  178.9330  145.4370 C   0  0  0  0  0  0  0  0  0  0  0  0
  186.8370  178.2400  145.4150 C   0  0  0  0  0  0  0  0  0  0  0  0
  191.4260  177.3530  140.7640 O   0  0  0  0  0  0  0  0  0  0  0  0
  192.1430  176.0850  147.5020 C   0  0  0  0  0  0  0  0  0  0  0  0
  191.7490  175.6440  145.1460 C   0  0  0  0  0  3  0  0  0  0  0  0
  192.4000  175.3370  146.3440 C   0  0  0  0  0  3  0  0  0  0  0  0
  190.8290  176.7030  145.0950 C   0  0  0  0  0  0  0  0  0  0  0  0
  190.5760  177.4540  146.2460 C   0  0  0  0  0  3  0  0  0  0  0  0
  191.2270  177.1460  147.4440 C   0  0  0  0  0  3  0  0  0  0  0  0
  193.4950  176.7810  149.5060 N   0  0  0  0  0  1  0  0  0  0  0  0
  192.8300  175.7610  148.7650 C   0  0  0  0  0  0  0  0  0  0  0  0
  192.8340  174.5800  149.2030 O   0  0  0  0  0  0  0  0  0  0  0  0
  189.0300  176.8100  137.6930 C   0  0  0  0  0  2  0  0  0  0  0  0
  189.8020  177.2480  138.7860 O   0  0  0  0  0  0  0  0  0  0  0  0
  189.0570  178.2430  139.4480 C   0  0  1  0  0  3  0  0  0  0  0  0
  187.6300  178.2280  138.9500 C   0  0  0  0  0  2  0  0  0  0  0  0
  187.7680  177.6370  137.5890 C   0  0  2  0  0  3  0  0  0  0  0  0
  185.8620  176.8950  136.1010 C   0  0  0  0  0  0  0  0  0  0  0  0
  184.7130  175.9820  135.8730 C   0  0  0  0  0  1  0  0  0  0  0  0
  186.6240  176.7850  137.3050 N   0  0  0  0  0  2  0  0  0  0  0  0
  186.1520  177.7620  135.2330 O   0  0  0  0  0  0  0  0  0  0  0  0
  2 20  2  0  0  0  0
  3 20  1  0  0  0  0
  4 18  1  0  0  0  0
  5 15  2  0  0  0  0
  6 11  1  0  0  0  0
  6 12  1  6  0  0  0
  7 18  2  0  0  0  0
  7 10  1  0  0  0  0
  8 17  1  0  0  0  0
  8 25  1  1  0  0  0
  9 10  1  0  0  0  0
  9 17  2  0  0  0  0
 10  3  1  0  0  0  0
 11 16  1  0  0  0  0
 12  9  1  0  0  0  0
 14  3  2  0  0  0  0
 14 19  1  0  0  0  0
 16 13  1  6  0  0  0
 16  8  1  0  0  0  0
 17  2  1  0  0  0  0
 18 14  1  0  0  0  0
 19  1  2  0  0  0  0
 19  5  1  0  0  0  0
 20 15  1  0  0  0  0
 21 11  2  0  0  0  0
 22 29  1  0  0  0  0
 23 24  1  0  0  0  0
 24 22  2  0  0  0  0
 25 23  2  0  0  0  0
 25 26  1  0  0  0  0
 26 27  2  0  0  0  0
 27 22  1  0  0  0  0
 29 30  2  0  0  0  0
 29 28  1  0  0  0  0
 31 32  1  0  0  0  0
 32 33  1  0  0  0  0
 33 34  1  1  0  0  0
 33  6  1  0  0  0  0
 35 38  1  1  0  0  0
 35 31  1  0  0  0  0
 35 34  1  0  0  0  0
 36 38  1  0  0  0  0
 37 36  1  0  0  0  0
 39 36  2  0  0  0  0
M  END
>  <MODEL>
1

>  <REMARK>
 VINA RESULT:     -10.1      0.000      0.000
  Name = 
  4 active torsions:
  status: ('A' for Active; 'I' for Inactive)
    1  A    between atoms: C_3  and  C_9
    2  A    between atoms: C_11  and  C_19
    3  A    between atoms: C_12  and  C_22
    4  A    between atoms: N_15  and  C_35
                            x       y       z     vdW  Elec       q    Type
                         _______ _______ _______ _____ _____    ______ ____

>  <TORSDO>
F 4

$$$$
=
 OpenBabel10222419383D

 39 44  0  0  1  0  0  0  0  0999 V2000
  190.6760  176.6190  136.7870 O   0  0  0  0  0  0  0  0  0  0  0  0
  189.4690  176.9660  142.1000 C   0  0  0  0  0  3  0  0  0  0  0  0
  189.1360  177.5110  139.8250 C   0  0  0  0  0  0  0  0  0  0  0  0
  188.1750  178.5990  136.5240 C   0  0  0  0  0  1  0  0  0  0  0  0
  191.1750  175.9870  138.9300 N   0  0  0  0  0  0  0  0  0  0  0  0
  185.3050  178.4300  142.1410 C   0  0  2  0  0  3  0  0  0  0  0  0
  187.6090  178.7840  138.9730 N   0  0  0  0  0  0  0  0  0  0  0  0
  187.9100  177.9510  143.8750 C   0  0  2  0  0  3  0  0  0  0  0  0
  187.6620  178.4730  141.3810 C   0  0  0  0  0  0  0  0  0  0  0  0
  188.0970  178.2870  140.1050 N   0  0  0  0  0  0  0  0  0  0  0  0
  185.4430  178.1760  143.6230 C   0  0  0  0  0  0  0  0  0  0  0  0
  186.4460  179.3090  141.6400 C   0  0  0  0  0  2  0  0  0  0  0  0
  186.3510  176.9770  145.4680 O   0  0  0  0  0  1  0  0  0  0  0  0
  189.3700  177.4680  138.5000 C   0  0  0  0  0  0  0  0  0  0  0  0
  190.9210  176.0340  140.2840 C   0  0  0  0  0  3  0  0  0  0  0  0
  186.5470  177.2770  144.1140 C   0  0  2  0  0  3  0  0  0  0  0  0
  188.3650  177.8060  142.4340 C   0  0  0  0  0  0  0  0  0  0  0  0
  188.3850  178.2910  137.9640 C   0  0  0  0  0  0  0  0  0  0  0  0
  190.4210  176.6880  138.0180 C   0  0  0  0  0  0  0  0  0  0  0  0
  189.8610  176.8230  140.7640 C   0  0  0  0  0  0  0  0  0  0  0  0
  184.7350  178.7680  144.4260 O   0  0  0  0  0  0  0  0  0  0  0  0
  190.9770  176.9060  146.7300 C   0  0  0  0  0  0  0  0  0  0  0  0
  188.6950  177.5910  146.2620 C   0  0  0  0  0  3  0  0  0  0  0  0
  189.6930  177.2450  147.1770 C   0  0  0  0  0  3  0  0  0  0  0  0
  188.9730  177.6020  144.8870 C   0  0  0  0  0  0  0  0  0  0  0  0
  190.2510  177.2590  144.4380 C   0  0  0  0  0  3  0  0  0  0  0  0
  191.2490  176.9140  145.3540 C   0  0  0  0  0  3  0  0  0  0  0  0
  192.7780  175.3410  147.5280 N   0  0  0  0  0  1  0  0  0  0  0  0
  192.0300  176.5420  147.6950 C   0  0  0  0  0  0  0  0  0  0  0  0
  192.2790  177.2900  148.6770 O   0  0  0  0  0  0  0  0  0  0  0  0
  182.8080  179.0350  139.7320 C   0  0  0  0  0  2  0  0  0  0  0  0
  183.9960  179.4430  140.3700 O   0  0  0  0  0  0  0  0  0  0  0  0
  183.9390  178.9680  141.6940 C   0  0  1  0  0  3  0  0  0  0  0  0
  182.8220  177.9570  141.8260 C   0  0  0  0  0  2  0  0  0  0  0  0
  181.8970  178.3510  140.7270 C   0  0  2  0  0  3  0  0  0  0  0  0
  180.0450  176.6350  140.5650 C   0  0  0  0  0  0  0  0  0  0  0  0
  179.4930  175.4240  139.9070 C   0  0  0  0  0  1  0  0  0  0  0  0
  181.3020  177.1620  140.1360 N   0  0  0  0  0  2  0  0  0  0  0  0
  179.4020  177.1860  141.4990 O   0  0  0  0  0  0  0  0  0  0  0  0
  1 19  2  0  0  0  0
  2 17  1  0  0  0  0
  3 10  1  0  0  0  0
  3 20  1  0  0  0  0
  4 18  1  0  0  0  0
  5 15  2  0  0  0  0
  6 12  1  1  0  0  0
  6 11  1  0  0  0  0
  7 10  1  0  0  0  0
  8 16  1  0  0  0  0
  8 25  1  1  0  0  0
  9 12  1  0  0  0  0
  9 17  2  0  0  0  0
 10  9  1  0  0  0  0
 11 16  1  0  0  0  0
 11 21  2  0  0  0  0
 14  3  2  0  0  0  0
 15 20  1  0  0  0  0
 16 13  1  1  0  0  0
 17  8  1  0  0  0  0
 18 14  1  0  0  0  0
 18  7  2  0  0  0  0
 19 14  1  0  0  0  0
 19  5  1  0  0  0  0
 20  2  2  0  0  0  0
 22 24  1  0  0  0  0
 22 29  1  0  0  0  0
 23 24  2  0  0  0  0
 25 23  1  0  0  0  0
 26 25  2  0  0  0  0
 26 27  1  0  0  0  0
 27 22  2  0  0  0  0
 28 29  1  0  0  0  0
 29 30  2  0  0  0  0
 31 32  1  0  0  0  0
 31 35  1  0  0  0  0
 32 33  1  0  0  0  0
 33 34  1  6  0  0  0
 33  6  1  0  0  0  0
 35 38  1  6  0  0  0
 35 34  1  0  0  0  0
 36 39  2  0  0  0  0
 37 36  1  0  0  0  0
 38 36  1  0  0  0  0
M  END
>  <MODEL>
2

>  <REMARK>
 VINA RESULT:     -10.0      2.574      5.867
  Name = 
  4 active torsions:
  status: ('A' for Active; 'I' for Inactive)
    1  A    between atoms: C_3  and  C_9
    2  A    between atoms: C_11  and  C_19
    3  A    between atoms: C_12  and  C_22
    4  A    between atoms: N_15  and  C_35
                            x       y       z     vdW  Elec       q    Type
                         _______ _______ _______ _____ _____    ______ ____

>  <TORSDO>
F 4

$$$$
=
 OpenBabel10222419383D

 39 44  0  0  1  0  0  0  0  0999 V2000
  190.3390  177.4940  147.8440 O   0  0  0  0  0  0  0  0  0  0  0  0
  190.5380  177.3090  142.3910 C   0  0  0  0  0  3  0  0  0  0  0  0
  189.3890  177.3890  144.4550 C   0  0  0  0  0  0  0  0  0  0  0  0
  187.1850  177.5750  147.3030 C   0  0  0  0  0  1  0  0  0  0  0  0
  191.6310  177.3940  145.9570 N   0  0  0  0  0  0  0  0  0  0  0  0
  186.5720  178.7920  141.1420 C   0  0  2  0  0  3  0  0  0  0  0  0
  187.2540  177.4770  144.7850 N   0  0  0  0  0  0  0  0  0  0  0  0
  189.2060  177.3050  140.2060 C   0  0  2  0  0  3  0  0  0  0  0  0
  188.0810  177.3770  142.5040 C   0  0  0  0  0  0  0  0  0  0  0  0
  188.2050  177.4090  143.8590 N   0  0  0  0  0  0  0  0  0  0  0  0
  187.1980  178.7120  139.7700 C   0  0  0  0  0  0  0  0  0  0  0  0
  186.7230  177.4640  141.8770 C   0  0  0  0  0  2  0  0  0  0  0  0
  189.0770  178.8280  138.3140 O   0  0  0  0  0  1  0  0  0  0  0  0
  189.2630  177.4430  145.7940 C   0  0  0  0  0  0  0  0  0  0  0  0
  191.7480  177.3440  144.5840 C   0  0  0  0  0  3  0  0  0  0  0  0
  188.6980  178.6480  139.6500 C   0  0  2  0  0  3  0  0  0  0  0  0
  189.2780  177.3140  141.7220 C   0  0  0  0  0  0  0  0  0  0  0  0
  187.8880  177.4980  145.9940 C   0  0  0  0  0  0  0  0  0  0  0  0
  190.4110  177.4450  146.5880 C   0  0  0  0  0  0  0  0  0  0  0  0
  190.5880  177.3440  143.7900 C   0  0  0  0  0  0  0  0  0  0  0  0
  186.5000  178.6000  138.7720 O   0  0  0  0  0  0  0  0  0  0  0  0
  192.8000  175.8570  138.3000 C   0  0  0  0  0  0  0  0  0  0  0  0
  190.3890  175.7600  138.5760 C   0  0  0  0  0  3  0  0  0  0  0  0
  191.5580  175.3030  137.9610 C   0  0  0  0  0  3  0  0  0  0  0  0
  190.4520  176.7770  139.5410 C   0  0  0  0  0  0  0  0  0  0  0  0
  191.6890  177.3350  139.8760 C   0  0  0  0  0  3  0  0  0  0  0  0
  192.8570  176.8770  139.2600 C   0  0  0  0  0  3  0  0  0  0  0  0
  194.5430  174.0770  137.9430 N   0  0  0  0  0  1  0  0  0  0  0  0
  194.0330  175.3750  137.6510 C   0  0  0  0  0  0  0  0  0  0  0  0
  194.6470  176.1070  136.8290 O   0  0  0  0  0  0  0  0  0  0  0  0
  183.4080  179.3290  139.6890 C   0  0  0  0  0  2  0  0  0  0  0  0
  184.7290  179.7680  139.9050 O   0  0  0  0  0  0  0  0  0  0  0  0
  185.1220  179.2930  141.1710 C   0  0  1  0  0  3  0  0  0  0  0  0
  184.1360  178.2540  141.6550 C   0  0  0  0  0  2  0  0  0  0  0  0
  182.8920  178.6220  140.9230 C   0  0  2  0  0  3  0  0  0  0  0  0
  180.7400  177.3730  140.4700 C   0  0  0  0  0  0  0  0  0  0  0  0
  180.0660  176.1110  140.0710 C   0  0  0  0  0  1  0  0  0  0  0  0
  182.1660  177.4180  140.5510 N   0  0  0  0  0  2  0  0  0  0  0  0
  180.0480  178.3920  140.7370 O   0  0  0  0  0  0  0  0  0  0  0  0
  2 20  2  0  0  0  0
  3 14  2  0  0  0  0
  5 19  1  0  0  0  0
  6 33  1  0  0  0  0
  6 12  1  6  0  0  0
  7 18  2  0  0  0  0
  8 25  1  6  0  0  0
  8 17  1  0  0  0  0
  9 10  1  0  0  0  0
 10  3  1  0  0  0  0
 10  7  1  0  0  0  0
 11  6  1  0  0  0  0
 12  9  1  0  0  0  0
 14 18  1  0  0  0  0
 14 19  1  0  0  0  0
 15  5  2  0  0  0  0
 16 13  1  6  0  0  0
 16 11  1  0  0  0  0
 16  8  1  0  0  0  0
 17  2  1  0  0  0  0
 17  9  2  0  0  0  0
 18  4  1  0  0  0  0
 19  1  2  0  0  0  0
 20  3  1  0  0  0  0
 20 15  1  0  0  0  0
 21 11  2  0  0  0  0
 22 27  1  0  0  0  0
 23 25  2  0  0  0  0
 24 22  2  0  0  0  0
 24 23  1  0  0  0  0
 25 26  1  0  0  0  0
 27 26  2  0  0  0  0
 29 28  1  0  0  0  0
 29 22  1  0  0  0  0
 30 29  2  0  0  0  0
 31 32  1  0  0  0  0
 31 35  1  0  0  0  0
 32 33  1  0  0  0  0
 33 34  1  6  0  0  0
 35 38  1  6  0  0  0
 35 34  1  0  0  0  0
 36 38  1  0  0  0  0
 36 39  2  0  0  0  0
 37 36  1  0  0  0  0
M  END
>  <MODEL>
3

>  <REMARK>
 VINA RESULT:      -9.9      3.073      6.336
  Name = 
  4 active torsions:
  status: ('A' for Active; 'I' for Inactive)
    1  A    between atoms: C_3  and  C_9
    2  A    between atoms: C_11  and  C_19
    3  A    between atoms: C_12  and  C_22
    4  A    between atoms: N_15  and  C_35
                            x       y       z     vdW  Elec       q    Type
                         _______ _______ _______ _____ _____    ______ ____

>  <TORSDO>
F 4

$$$$
=
 OpenBabel10222419383D

 39 44  0  0  1  0  0  0  0  0999 V2000
  191.8980  177.2150  140.2640 O   0  0  0  0  0  0  0  0  0  0  0  0
  186.6290  178.4270  141.0160 C   0  0  0  0  0  3  0  0  0  0  0  0
  188.7200  177.5890  141.7310 C   0  0  0  0  0  0  0  0  0  0  0  0
  191.6810  176.2770  143.3160 C   0  0  0  0  0  1  0  0  0  0  0  0
  189.9580  178.0430  139.3760 N   0  0  0  0  0  0  0  0  0  0  0  0
  186.2100  178.6280  145.4050 C   0  0  2  0  0  3  0  0  0  0  0  0
  189.2460  176.8170  143.6810 N   0  0  0  0  0  0  0  0  0  0  0  0
  184.6600  178.4650  142.6500 C   0  0  2  0  0  3  0  0  0  0  0  0
  186.9700  177.5720  143.2980 C   0  0  0  0  0  0  0  0  0  0  0  0
  188.2600  177.3210  142.9460 N   0  0  0  0  0  0  0  0  0  0  0  0
  184.8250  179.1120  145.0490 C   0  0  0  0  0  0  0  0  0  0  0  0
  186.5150  177.3110  144.7010 C   0  0  0  0  0  2  0  0  0  0  0  0
  183.3070  180.2450  143.6090 O   0  0  0  0  0  1  0  0  0  0  0  0
  190.0230  177.2710  141.6200 C   0  0  0  0  0  0  0  0  0  0  0  0
  188.6240  178.3700  139.5030 C   0  0  0  0  0  3  0  0  0  0  0  0
  184.5610  179.6250  143.6590 C   0  0  2  0  0  3  0  0  0  0  0  0
  186.1020  178.1360  142.3090 C   0  0  0  0  0  0  0  0  0  0  0  0
  190.3490  176.7750  142.8790 C   0  0  0  0  0  0  0  0  0  0  0  0
  190.6800  177.4970  140.4110 C   0  0  0  0  0  0  0  0  0  0  0  0
  187.9680  178.1410  140.7250 C   0  0  0  0  0  0  0  0  0  0  0  0
  183.9020  178.9970  145.8440 O   0  0  0  0  0  0  0  0  0  0  0  0
  182.0780  178.7870  139.2030 C   0  0  0  0  0  0  0  0  0  0  0  0
  184.1420  179.3780  140.3380 C   0  0  0  0  0  3  0  0  0  0  0  0
  183.3010  179.4700  139.2260 C   0  0  0  0  0  3  0  0  0  0  0  0
  183.7650  178.6000  141.4440 C   0  0  0  0  0  0  0  0  0  0  0  0
  182.5480  177.9130  141.4220 C   0  0  0  0  0  3  0  0  0  0  0  0
  181.7080  178.0070  140.3090 C   0  0  0  0  0  3  0  0  0  0  0  0
  181.1440  180.0810  137.2580 N   0  0  0  0  0  1  0  0  0  0  0  0
  181.1920  178.8840  138.0300 C   0  0  0  0  0  0  0  0  0  0  0  0
  180.4690  177.9080  137.6960 O   0  0  0  0  0  0  0  0  0  0  0  0
  187.3770  176.9750  148.2890 C   0  0  0  0  0  2  0  0  0  0  0  0
  186.3270  177.2370  147.3880 O   0  0  0  0  0  0  0  0  0  0  0  0
  186.5090  178.5490  146.9090 C   0  0  1  0  0  3  0  0  0  0  0  0
  187.8920  179.0380  147.2740 C   0  0  0  0  0  2  0  0  0  0  0  0
  188.2190  178.2180  148.4740 C   0  0  2  0  0  3  0  0  0  0  0  0
  190.2210  177.0470  147.4630 C   0  0  0  0  0  0  0  0  0  0  0  0
  191.6760  176.7530  147.5110 C   0  0  0  0  0  1  0  0  0  0  0  0
  189.6340  177.8780  148.4660 N   0  0  0  0  0  2  0  0  0  0  0  0
  189.5160  176.5590  146.5380 O   0  0  0  0  0  0  0  0  0  0  0  0
  1 19  2  0  0  0  0
  2 17  1  0  0  0  0
  3 10  1  0  0  0  0
  5 15  2  0  0  0  0
  5 19  1  0  0  0  0
  6 12  1  1  0  0  0
  6 33  1  0  0  0  0
  8 25  1  6  0  0  0
  8 16  1  0  0  0  0
  9 12  1  0  0  0  0
 10  9  1  0  0  0  0
 10  7  1  0  0  0  0
 11  6  1  0  0  0  0
 11 21  2  0  0  0  0
 14  3  2  0  0  0  0
 14 18  1  0  0  0  0
 15 20  1  0  0  0  0
 16 13  1  1  0  0  0
 16 11  1  0  0  0  0
 17  8  1  0  0  0  0
 17  9  2  0  0  0  0
 18  4  1  0  0  0  0
 18  7  2  0  0  0  0
 19 14  1  0  0  0  0
 20  2  2  0  0  0  0
 20  3  1  0  0  0  0
 22 24  2  0  0  0  0
 22 27  1  0  0  0  0
 23 25  2  0  0  0  0
 24 23  1  0  0  0  0
 26 25  1  0  0  0  0
 27 26  2  0  0  0  0
 28 29  1  0  0  0  0
 29 22  1  0  0  0  0
 30 29  2  0  0  0  0
 31 35  1  0  0  0  0
 32 31  1  0  0  0  0
 33 34  1  6  0  0  0
 33 32  1  0  0  0  0
 34 35  1  0  0  0  0
 35 38  1  6  0  0  0
 36 37  1  0  0  0  0
 36 38  1  0  0  0  0
 39 36  2  0  0  0  0
M  END
>  <MODEL>
4

>  <REMARK>
 VINA RESULT:      -9.7      2.647      9.538
  Name = 
  4 active torsions:
  status: ('A' for Active; 'I' for Inactive)
    1  A    between atoms: C_3  and  C_9
    2  A    between atoms: C_11  and  C_19
    3  A    between atoms: C_12  and  C_22
    4  A    between atoms: N_15  and  C_35
                            x       y       z     vdW  Elec       q    Type
                         _______ _______ _______ _____ _____    ______ ____

>  <TORSDO>
F 4

$$$$
=
 OpenBabel10222419383D

 39 44  0  0  1  0  0  0  0  0999 V2000
  188.7550  177.6700  145.2140 O   0  0  0  0  0  0  0  0  0  0  0  0
  184.9770  178.4790  141.3580 C   0  0  0  0  0  3  0  0  0  0  0  0
  187.1950  178.1250  142.0910 C   0  0  0  0  0  0  0  0  0  0  0  0
  190.7040  177.5390  142.6790 C   0  0  0  0  0  1  0  0  0  0  0  0
  186.5510  178.0300  144.7100 N   0  0  0  0  0  0  0  0  0  0  0  0
  186.9040  177.0080  137.6700 C   0  0  2  0  0  3  0  0  0  0  0  0
  188.9780  177.9240  140.8830 N   0  0  0  0  0  0  0  0  0  0  0  0
  184.4930  178.6840  138.8530 C   0  0  2  0  0  3  0  0  0  0  0  0
  186.8520  178.3120  139.7750 C   0  0  0  0  0  0  0  0  0  0  0  0
  187.6650  178.1310  140.8510 N   0  0  0  0  0  0  0  0  0  0  0  0
  185.5330  177.2640  137.0910 C   0  0  0  0  0  0  0  0  0  0  0  0
  187.4220  178.2470  138.3900 C   0  0  0  0  0  2  0  0  0  0  0  0
  183.1640  177.3810  137.2870 O   0  0  0  0  0  1  0  0  0  0  0  0
  188.1790  177.9150  142.9850 C   0  0  0  0  0  0  0  0  0  0  0  0
  185.5510  178.2390  143.7840 C   0  0  0  0  0  3  0  0  0  0  0  0
  184.3560  177.3950  138.0210 C   0  0  2  0  0  3  0  0  0  0  0  0
  185.4550  178.5060  140.0140 C   0  0  0  0  0  0  0  0  0  0  0  0
  189.3190  177.7890  142.1980 C   0  0  0  0  0  0  0  0  0  0  0  0
  187.8670  177.8640  144.3440 C   0  0  0  0  0  0  0  0  0  0  0  0
  185.8730  178.2880  142.4160 C   0  0  0  0  0  0  0  0  0  0  0  0
  185.3900  177.4640  135.8930 O   0  0  0  0  0  0  0  0  0  0  0  0
  180.7760  180.5870  139.9560 C   0  0  0  0  0  0  0  0  0  0  0  0
  182.3260  178.7300  140.1750 C   0  0  0  0  0  3  0  0  0  0  0  0
  181.1280  179.3570  140.5280 C   0  0  0  0  0  3  0  0  0  0  0  0
  183.1850  179.3270  139.2390 C   0  0  0  0  0  0  0  0  0  0  0  0
  182.8390  180.5560  138.6710 C   0  0  0  0  0  3  0  0  0  0  0  0
  181.6410  181.1830  139.0260 C   0  0  0  0  0  3  0  0  0  0  0  0
  178.9310  181.0210  141.6090 N   0  0  0  0  0  1  0  0  0  0  0  0
  179.5140  181.2490  140.3290 C   0  0  0  0  0  0  0  0  0  0  0  0
  178.9390  182.0260  139.5210 O   0  0  0  0  0  0  0  0  0  0  0  0
  189.7590  177.2990  135.6260 C   0  0  0  0  0  2  0  0  0  0  0  0
  188.3690  177.4590  135.7910 O   0  0  0  0  0  0  0  0  0  0  0  0
  187.9390  176.4550  136.6800 C   0  0  1  0  0  3  0  0  0  0  0  0
  189.1360  175.8210  137.3520 C   0  0  0  0  0  2  0  0  0  0  0  0
  190.2270  176.0670  136.3690 C   0  0  2  0  0  3  0  0  0  0  0  0
  192.3430  175.3050  137.5270 C   0  0  0  0  0  0  0  0  0  0  0  0
  193.6030  175.6600  138.2280 C   0  0  0  0  0  1  0  0  0  0  0  0
  191.4700  176.3410  137.0730 N   0  0  0  0  0  2  0  0  0  0  0  0
  192.0520  174.0920  137.3420 O   0  0  0  0  0  0  0  0  0  0  0  0
  2 20  2  0  0  0  0
  3 20  1  0  0  0  0
  3 14  2  0  0  0  0
  6 12  1  6  0  0  0
  7 18  2  0  0  0  0
  8 25  1  1  0  0  0
  8 17  1  0  0  0  0
  9 17  2  0  0  0  0
  9 10  1  0  0  0  0
 10  7  1  0  0  0  0
 10  3  1  0  0  0  0
 11  6  1  0  0  0  0
 11 16  1  0  0  0  0
 12  9  1  0  0  0  0
 14 19  1  0  0  0  0
 15  5  2  0  0  0  0
 16 13  1  6  0  0  0
 16  8  1  0  0  0  0
 17  2  1  0  0  0  0
 18  4  1  0  0  0  0
 18 14  1  0  0  0  0
 19  5  1  0  0  0  0
 19  1  2  0  0  0  0
 20 15  1  0  0  0  0
 21 11  2  0  0  0  0
 22 29  1  0  0  0  0
 22 24  1  0  0  0  0
 23 24  2  0  0  0  0
 25 23  1  0  0  0  0
 26 27  1  0  0  0  0
 26 25  2  0  0  0  0
 27 22  2  0  0  0  0
 29 28  1  0  0  0  0
 30 29  2  0  0  0  0
 31 32  1  0  0  0  0
 31 35  1  0  0  0  0
 32 33  1  0  0  0  0
 33 34  1  1  0  0  0
 33  6  1  0  0  0  0
 35 38  1  1  0  0  0
 35 34  1  0  0  0  0
 36 37  1  0  0  0  0
 38 36  1  0  0  0  0
 39 36  2  0  0  0  0
M  END
>  <MODEL>
5

>  <REMARK>
 VINA RESULT:      -8.8      3.299      8.365
  Name = 
  4 active torsions:
  status: ('A' for Active; 'I' for Inactive)
    1  A    between atoms: C_3  and  C_9
    2  A    between atoms: C_11  and  C_19
    3  A    between atoms: C_12  and  C_22
    4  A    between atoms: N_15  and  C_35
                            x       y       z     vdW  Elec       q    Type
                         _______ _______ _______ _____ _____    ______ ____

>  <TORSDO>
F 4

$$$$
=
 OpenBabel10222419383D

 39 44  0  0  1  0  0  0  0  0999 V2000
  189.2920  177.2390  146.4260 O   0  0  0  0  0  0  0  0  0  0  0  0
  186.0580  178.0170  142.0970 C   0  0  0  0  0  3  0  0  0  0  0  0
  188.1660  177.9310  143.1630 C   0  0  0  0  0  0  0  0  0  0  0  0
  191.5910  177.8640  144.2880 C   0  0  0  0  0  1  0  0  0  0  0  0
  187.1630  177.2950  145.5860 N   0  0  0  0  0  0  0  0  0  0  0  0
  188.7740  177.5280  138.6520 C   0  0  2  0  0  3  0  0  0  0  0  0
  190.1150  178.2400  142.2790 N   0  0  0  0  0  0  0  0  0  0  0  0
  185.9300  178.5480  139.5960 C   0  0  2  0  0  3  0  0  0  0  0  0
  188.1480  178.4370  140.8690 C   0  0  0  0  0  0  0  0  0  0  0  0
  188.8080  178.2220  142.0400 N   0  0  0  0  0  0  0  0  0  0  0  0
  187.4830  177.6390  137.8760 C   0  0  0  0  0  0  0  0  0  0  0  0
  188.9230  178.7010  139.6130 C   0  0  0  0  0  2  0  0  0  0  0  0
  185.1360  177.3150  137.6560 O   0  0  0  0  0  1  0  0  0  0  0  0
  189.0240  177.7470  144.1830 C   0  0  0  0  0  0  0  0  0  0  0  0
  186.2940  177.4800  144.5320 C   0  0  0  0  0  3  0  0  0  0  0  0
  186.1760  177.4110  138.5880 C   0  0  2  0  0  3  0  0  0  0  0  0
  186.7200  178.3470  140.8770 C   0  0  0  0  0  0  0  0  0  0  0  0
  190.2730  177.9500  143.6040 C   0  0  0  0  0  0  0  0  0  0  0  0
  188.5250  177.4190  145.4440 C   0  0  0  0  0  0  0  0  0  0  0  0
  186.8040  177.8100  143.2640 C   0  0  0  0  0  0  0  0  0  0  0  0
  187.4870  178.0070  136.7090 O   0  0  0  0  0  0  0  0  0  0  0  0
  181.7580  179.4490  140.2590 C   0  0  0  0  0  0  0  0  0  0  0  0
  183.8330  179.8800  139.0720 C   0  0  0  0  0  3  0  0  0  0  0  0
  182.4810  180.1590  139.2910 C   0  0  0  0  0  3  0  0  0  0  0  0
  184.4780  178.8850  139.8240 C   0  0  0  0  0  0  0  0  0  0  0  0
  183.7580  178.1720  140.7860 C   0  0  0  0  0  3  0  0  0  0  0  0
  182.4060  178.4530  141.0040 C   0  0  0  0  0  3  0  0  0  0  0  0
  179.9400  180.6590  141.5080 N   0  0  0  0  0  1  0  0  0  0  0  0
  180.3330  179.7440  140.4890 C   0  0  0  0  0  0  0  0  0  0  0  0
  179.4480  179.1900  139.7850 O   0  0  0  0  0  0  0  0  0  0  0  0
  191.9680  176.1740  138.0400 C   0  0  0  0  0  2  0  0  0  0  0  0
  191.1740  177.1860  138.6140 O   0  0  0  0  0  0  0  0  0  0  0  0
  190.0350  177.3310  137.7990 C   0  0  1  0  0  3  0  0  0  0  0  0
  189.9390  176.1640  136.8420 C   0  0  0  0  0  2  0  0  0  0  0  0
  191.3560  175.7180  136.7350 C   0  0  2  0  0  3  0  0  0  0  0  0
  192.4160  173.5850  135.8820 C   0  0  0  0  0  0  0  0  0  0  0  0
  192.4130  172.1000  135.8300 C   0  0  0  0  0  1  0  0  0  0  0  0
  191.4080  174.2670  136.6300 N   0  0  0  0  0  2  0  0  0  0  0  0
  193.3050  174.2290  135.2630 O   0  0  0  0  0  0  0  0  0  0  0  0
  2 20  2  0  0  0  0
  3 20  1  0  0  0  0
  3 14  2  0  0  0  0
  6 12  1  6  0  0  0
  7 18  2  0  0  0  0
  8 25  1  1  0  0  0
  8 17  1  0  0  0  0
  9 17  2  0  0  0  0
  9 10  1  0  0  0  0
 10  7  1  0  0  0  0
 10  3  1  0  0  0  0
 11 16  1  0  0  0  0
 11  6  1  0  0  0  0
 12  9  1  0  0  0  0
 14 19  1  0  0  0  0
 15  5  2  0  0  0  0
 16 13  1  6  0  0  0
 16  8  1  0  0  0  0
 17  2  1  0  0  0  0
 18 14  1  0  0  0  0
 18  4  1  0  0  0  0
 19  5  1  0  0  0  0
 19  1  2  0  0  0  0
 20 15  1  0  0  0  0
 21 11  2  0  0  0  0
 22 29  1  0  0  0  0
 22 27  1  0  0  0  0
 23 24  1  0  0  0  0
 23 25  2  0  0  0  0
 24 22  2  0  0  0  0
 25 26  1  0  0  0  0
 26 27  2  0  0  0  0
 29 28  1  0  0  0  0
 30 29  2  0  0  0  0
 31 32  1  0  0  0  0
 33 34  1  1  0  0  0
 33 32  1  0  0  0  0
 33  6  1  0  0  0  0
 35 38  1  1  0  0  0
 35 34  1  0  0  0  0
 35 31  1  0  0  0  0
 36 38  1  0  0  0  0
 37 36  1  0  0  0  0
 39 36  2  0  0  0  0
M  END
>  <MODEL>
6

>  <REMARK>
 VINA RESULT:      -8.7      3.088      7.693
  Name = 
  4 active torsions:
  status: ('A' for Active; 'I' for Inactive)
    1  A    between atoms: C_3  and  C_9
    2  A    between atoms: C_11  and  C_19
    3  A    between atoms: C_12  and  C_22
    4  A    between atoms: N_15  and  C_35
                            x       y       z     vdW  Elec       q    Type
                         _______ _______ _______ _____ _____    ______ ____

>  <TORSDO>
F 4

$$$$
=
 OpenBabel10222419383D

 39 44  0  0  1  0  0  0  0  0999 V2000
  189.4230  177.8180  147.6060 O   0  0  0  0  0  0  0  0  0  0  0  0
  190.3360  177.4920  142.2340 C   0  0  0  0  0  3  0  0  0  0  0  0
  188.9280  177.5470  144.1310 C   0  0  0  0  0  0  0  0  0  0  0  0
  186.3680  177.6540  146.6680 C   0  0  0  0  0  1  0  0  0  0  0  0
  190.9520  177.7570  145.9030 N   0  0  0  0  0  0  0  0  0  0  0  0
  186.4720  178.6460  140.4370 C   0  0  2  0  0  3  0  0  0  0  0  0
  186.7670  177.4890  144.1850 N   0  0  0  0  0  0  0  0  0  0  0  0
  189.3000  177.3280  139.8990 C   0  0  2  0  0  3  0  0  0  0  0  0
  187.8860  177.3840  142.0320 C   0  0  0  0  0  0  0  0  0  0  0  0
  187.8320  177.4640  143.3900 N   0  0  0  0  0  0  0  0  0  0  0  0
  187.2740  178.5730  139.1600 C   0  0  0  0  0  0  0  0  0  0  0  0
  186.6170  177.3550  141.2350 C   0  0  0  0  0  2  0  0  0  0  0  0
  189.3120  178.7840  137.9500 O   0  0  0  0  0  1  0  0  0  0  0  0
  188.6270  177.6300  145.4410 C   0  0  0  0  0  0  0  0  0  0  0  0
  191.2480  177.6770  144.5590 C   0  0  0  0  0  3  0  0  0  0  0  0
  188.7770  178.6140  139.2330 C   0  0  2  0  0  3  0  0  0  0  0  0
  189.1750  177.3860  141.4110 C   0  0  0  0  0  0  0  0  0  0  0  0
  187.2360  177.5900  145.4630 C   0  0  0  0  0  0  0  0  0  0  0  0
  189.6600  177.7380  146.3720 C   0  0  0  0  0  0  0  0  0  0  0  0
  190.2020  177.5700  143.6250 C   0  0  0  0  0  0  0  0  0  0  0  0
  186.7190  178.3810  138.0860 O   0  0  0  0  0  0  0  0  0  0  0  0
  193.1580  175.9630  138.5190 C   0  0  0  0  0  0  0  0  0  0  0  0
  191.8330  177.4940  139.8600 C   0  0  0  0  0  3  0  0  0  0  0  0
  193.0760  177.0410  139.4120 C   0  0  0  0  0  3  0  0  0  0  0  0
  190.6550  176.8740  139.4170 C   0  0  0  0  0  0  0  0  0  0  0  0
  190.7340  175.7960  138.5320 C   0  0  0  0  0  3  0  0  0  0  0  0
  191.9780  175.3430  138.0830 C   0  0  0  0  0  3  0  0  0  0  0  0
  194.8900  175.7350  136.7090 N   0  0  0  0  0  1  0  0  0  0  0  0
  194.4700  175.4840  138.0470 C   0  0  0  0  0  0  0  0  0  0  0  0
  195.2320  174.8510  138.8240 O   0  0  0  0  0  0  0  0  0  0  0  0
  183.0260  177.9270  140.2950 C   0  0  0  0  0  2  0  0  0  0  0  0
  184.2720  178.0080  139.6430 O   0  0  0  0  0  0  0  0  0  0  0  0
  184.9990  179.0410  140.2640 C   0  0  1  0  0  3  0  0  0  0  0  0
  184.3250  179.4330  141.5590 C   0  0  0  0  0  2  0  0  0  0  0  0
  182.9100  179.0320  141.3220 C   0  0  2  0  0  3  0  0  0  0  0  0
  181.0750  178.9770  143.0620 C   0  0  0  0  0  0  0  0  0  0  0  0
  180.5380  178.4010  144.3210 C   0  0  0  0  0  1  0  0  0  0  0  0
  182.3300  178.5210  142.5540 N   0  0  0  0  0  2  0  0  0  0  0  0
  180.4200  179.8670  142.4540 O   0  0  0  0  0  0  0  0  0  0  0  0
  2 20  2  0  0  0  0
  3 14  2  0  0  0  0
  5 19  1  0  0  0  0
  6 12  1  6  0  0  0
  7 18  2  0  0  0  0
  8 25  1  1  0  0  0
  8 17  1  0  0  0  0
  9 10  1  0  0  0  0
 10  3  1  0  0  0  0
 10  7  1  0  0  0  0
 11 16  1  0  0  0  0
 11  6  1  0  0  0  0
 12  9  1  0  0  0  0
 14 18  1  0  0  0  0
 14 19  1  0  0  0  0
 15  5  2  0  0  0  0
 16 13  1  6  0  0  0
 16  8  1  0  0  0  0
 17  9  2  0  0  0  0
 17  2  1  0  0  0  0
 18  4  1  0  0  0  0
 19  1  2  0  0  0  0
 20  3  1  0  0  0  0
 20 15  1  0  0  0  0
 21 11  2  0  0  0  0
 22 24  1  0  0  0  0
 24 23  2  0  0  0  0
 25 23  1  0  0  0  0
 26 25  2  0  0  0  0
 27 22  2  0  0  0  0
 27 26  1  0  0  0  0
 28 29  1  0  0  0  0
 29 22  1  0  0  0  0
 29 30  2  0  0  0  0
 31 35  1  0  0  0  0
 32 33  1  0  0  0  0
 32 31  1  0  0  0  0
 33  6  1  0  0  0  0
 33 34  1  1  0  0  0
 35 34  1  0  0  0  0
 35 38  1  1  0  0  0
 36 37  1  0  0  0  0
 38 36  1  0  0  0  0
 39 36  2  0  0  0  0
M  END
>  <MODEL>
7

>  <REMARK>
 VINA RESULT:      -8.3      2.935      6.416
  Name = 
  4 active torsions:
  status: ('A' for Active; 'I' for Inactive)
    1  A    between atoms: C_3  and  C_9
    2  A    between atoms: C_11  and  C_19
    3  A    between atoms: C_12  and  C_22
    4  A    between atoms: N_15  and  C_35
                            x       y       z     vdW  Elec       q    Type
                         _______ _______ _______ _____ _____    ______ ____

>  <TORSDO>
F 4

$$$$
=
 OpenBabel10222419383D

 39 44  0  0  1  0  0  0  0  0999 V2000
  190.8390  176.5590  137.9690 O   0  0  0  0  0  0  0  0  0  0  0  0
  187.8230  177.5590  142.4080 C   0  0  0  0  0  3  0  0  0  0  0  0
  188.2870  177.7240  140.0970 C   0  0  0  0  0  0  0  0  0  0  0  0
  188.5020  178.2070  136.5300 C   0  0  0  0  0  1  0  0  0  0  0  0
  190.5800  176.3070  140.2300 N   0  0  0  0  0  0  0  0  0  0  0  0
  183.8480  178.5700  140.7770 C   0  0  2  0  0  3  0  0  0  0  0  0
  187.1010  178.6910  138.5690 N   0  0  0  0  0  0  0  0  0  0  0  0
  185.6950  178.6270  143.3470 C   0  0  2  0  0  3  0  0  0  0  0  0
  186.3170  178.7460  140.8670 C   0  0  0  0  0  0  0  0  0  0  0  0
  187.1820  178.4200  139.8680 N   0  0  0  0  0  0  0  0  0  0  0  0
  183.4670  178.5520  142.2370 C   0  0  0  0  0  0  0  0  0  0  0  0
  185.0500  179.4790  140.5470 C   0  0  0  0  0  2  0  0  0  0  0  0
  183.7210  177.7410  144.4600 O   0  0  0  0  0  1  0  0  0  0  0  0
  188.9750  177.5110  138.9600 C   0  0  0  0  0  0  0  0  0  0  0  0
  189.8630  176.5270  141.3870 C   0  0  0  0  0  3  0  0  0  0  0  0
  184.3670  177.8560  143.2230 C   0  0  2  0  0  3  0  0  0  0  0  0
  186.6340  178.3190  142.1950 C   0  0  0  0  0  0  0  0  0  0  0  0
  188.2050  178.1380  137.9860 C   0  0  0  0  0  0  0  0  0  0  0  0
  190.1640  176.7820  139.0080 C   0  0  0  0  0  0  0  0  0  0  0  0
  188.6660  177.2620  141.3310 C   0  0  0  0  0  0  0  0  0  0  0  0
  182.4940  179.1790  142.6350 O   0  0  0  0  0  0  0  0  0  0  0  0
  187.5770  178.3250  147.2230 C   0  0  0  0  0  0  0  0  0  0  0  0
  185.8400  179.2550  145.8030 C   0  0  0  0  0  3  0  0  0  0  0  0
  186.4530  179.1460  147.0540 C   0  0  0  0  0  3  0  0  0  0  0  0
  186.3470  178.5440  144.7040 C   0  0  0  0  0  0  0  0  0  0  0  0
  187.4640  177.7210  144.8710 C   0  0  0  0  0  3  0  0  0  0  0  0
  188.0770  177.6130  146.1230 C   0  0  0  0  0  3  0  0  0  0  0  0
  189.6160  178.4740  148.6890 N   0  0  0  0  0  1  0  0  0  0  0  0
  188.2230  178.2100  148.5420 C   0  0  0  0  0  0  0  0  0  0  0  0
  187.5490  177.8780  149.5530 O   0  0  0  0  0  0  0  0  0  0  0  0
  180.9560  180.3320  139.8060 C   0  0  0  0  0  2  0  0  0  0  0  0
  181.5390  179.2570  140.5060 O   0  0  0  0  0  0  0  0  0  0  0  0
  182.7030  178.8890  139.8050 C   0  0  1  0  0  3  0  0  0  0  0  0
  183.0520  179.9600  138.7960 C   0  0  0  0  0  2  0  0  0  0  0  0
  181.7330  180.6010  138.5360 C   0  0  2  0  0  3  0  0  0  0  0  0
  181.1820  182.7760  137.3670 C   0  0  0  0  0  0  0  0  0  0  0  0
  181.4070  184.2380  137.2360 C   0  0  0  0  0  1  0  0  0  0  0  0
  181.9120  182.0330  138.3450 N   0  0  0  0  0  2  0  0  0  0  0  0
  180.3510  182.2020  136.6120 O   0  0  0  0  0  0  0  0  0  0  0  0
  1 19  2  0  0  0  0
  3 20  1  0  0  0  0
  4 18  1  0  0  0  0
  5 15  2  0  0  0  0
  6 12  1  1  0  0  0
  6 11  1  0  0  0  0
  7 10  1  0  0  0  0
  8 25  1  1  0  0  0
  9 17  2  0  0  0  0
 10  3  1  0  0  0  0
 10  9  1  0  0  0  0
 11 21  2  0  0  0  0
 11 16  1  0  0  0  0
 12  9  1  0  0  0  0
 14 19  1  0  0  0  0
 14  3  2  0  0  0  0
 16  8  1  0  0  0  0
 16 13  1  1  0  0  0
 17  2  1  0  0  0  0
 17  8  1  0  0  0  0
 18  7  2  0  0  0  0
 18 14  1  0  0  0  0
 19  5  1  0  0  0  0
 20 15  1  0  0  0  0
 20  2  2  0  0  0  0
 22 29  1  0  0  0  0
 23 24  2  0  0  0  0
 24 22  1  0  0  0  0
 25 26  2  0  0  0  0
 25 23  1  0  0  0  0
 26 27  1  0  0  0  0
 27 22  2  0  0  0  0
 29 28  1  0  0  0  0
 29 30  2  0  0  0  0
 31 32  1  0  0  0  0
 33 34  1  6  0  0  0
 33 32  1  0  0  0  0
 33  6  1  0  0  0  0
 35 38  1  1  0  0  0
 35 34  1  0  0  0  0
 35 31  1  0  0  0  0
 36 38  1  0  0  0  0
 37 36  1  0  0  0  0
 39 36  2  0  0  0  0
M  END
>  <MODEL>
8

>  <REMARK>
 VINA RESULT:      -8.3      3.388      6.551
  Name = 
  4 active torsions:
  status: ('A' for Active; 'I' for Inactive)
    1  A    between atoms: C_3  and  C_9
    2  A    between atoms: C_11  and  C_19
    3  A    between atoms: C_12  and  C_22
    4  A    between atoms: N_15  and  C_35
                            x       y       z     vdW  Elec       q    Type
                         _______ _______ _______ _____ _____    ______ ____

>  <TORSDO>
F 4

$$$$
=
 OpenBabel10222419383D

 39 44  0  0  1  0  0  0  0  0999 V2000
  183.8560  179.1520  138.3670 O   0  0  0  0  0  0  0  0  0  0  0  0
  188.4780  177.9760  141.0230 C   0  0  0  0  0  3  0  0  0  0  0  0
  187.0260  177.8430  139.1640 C   0  0  0  0  0  0  0  0  0  0  0  0
  185.2210  177.3830  136.0760 C   0  0  0  0  0  1  0  0  0  0  0  0
  185.1070  179.3840  140.2710 N   0  0  0  0  0  0  0  0  0  0  0  0
  191.2540  176.7540  137.8160 C   0  0  2  0  0  3  0  0  0  0  0  0
  187.3570  176.8170  137.2890 N   0  0  0  0  0  0  0  0  0  0  0  0
  190.7450  176.7900  140.9400 C   0  0  2  0  0  3  0  0  0  0  0  0
  189.0780  176.7130  138.9990 C   0  0  0  0  0  0  0  0  0  0  0  0
  187.8770  177.0890  138.4820 N   0  0  0  0  0  0  0  0  0  0  0  0
  192.2460  176.7460  138.9550 C   0  0  0  0  0  0  0  0  0  0  0  0
  190.0320  175.9120  138.1650 C   0  0  0  0  0  2  0  0  0  0  0  0
  193.0490  177.5630  141.0400 O   0  0  0  0  0  1  0  0  0  0  0  0
  185.9150  178.0970  138.4470 C   0  0  0  0  0  0  0  0  0  0  0  0
  186.2510  179.1220  140.9930 C   0  0  0  0  0  3  0  0  0  0  0  0
  191.9150  177.4870  140.2220 C   0  0  2  0  0  3  0  0  0  0  0  0
  189.4080  177.1520  140.3200 C   0  0  0  0  0  0  0  0  0  0  0  0
  186.1390  177.4310  137.2460 C   0  0  0  0  0  0  0  0  0  0  0  0
  184.9110  178.8900  139.0020 C   0  0  0  0  0  0  0  0  0  0  0  0
  187.2600  178.3220  140.4270 C   0  0  0  0  0  0  0  0  0  0  0  0
  193.2610  176.0650  138.8920 O   0  0  0  0  0  0  0  0  0  0  0  0
  190.7960  177.0520  145.2510 C   0  0  0  0  0  0  0  0  0  0  0  0
  190.3690  178.0820  143.0930 C   0  0  0  0  0  3  0  0  0  0  0  0
  190.3840  178.1540  144.4890 C   0  0  0  0  0  3  0  0  0  0  0  0
  190.7700  176.9040  142.4440 C   0  0  0  0  0  0  0  0  0  0  0  0
  191.1760  175.8030  143.2020 C   0  0  0  0  0  3  0  0  0  0  0  0
  191.1910  175.8760  144.5970 C   0  0  0  0  0  3  0  0  0  0  0  0
  191.9750  176.7510  147.4530 N   0  0  0  0  0  1  0  0  0  0  0  0
  190.8110  177.1280  146.7230 C   0  0  0  0  0  0  0  0  0  0  0  0
  189.7950  177.5290  147.3490 O   0  0  0  0  0  0  0  0  0  0  0  0
  193.8560  175.7060  135.6850 C   0  0  0  0  0  2  0  0  0  0  0  0
  193.1820  176.7520  136.3460 O   0  0  0  0  0  0  0  0  0  0  0  0
  191.8290  176.3750  136.4440 C   0  0  1  0  0  3  0  0  0  0  0  0
  191.6820  174.9060  136.1150 C   0  0  0  0  0  2  0  0  0  0  0  0
  192.8660  174.6490  135.2490 C   0  0  2  0  0  3  0  0  0  0  0  0
  192.6690  172.1280  135.2020 C   0  0  0  0  0  0  0  0  0  0  0  0
  193.2740  170.8030  135.4930 C   0  0  0  0  0  1  0  0  0  0  0  0
  193.3920  173.3190  135.5170 N   0  0  0  0  0  2  0  0  0  0  0  0
  191.5210  172.1890  134.6840 O   0  0  0  0  0  0  0  0  0  0  0  0
  1 19  2  0  0  0  0
  3 20  1  0  0  0  0
  4 18  1  0  0  0  0
  5 15  2  0  0  0  0
  6 12  1  1  0  0  0
  6 11  1  0  0  0  0
  7 10  1  0  0  0  0
  8 25  1  1  0  0  0
  9 17  2  0  0  0  0
 10  9  1  0  0  0  0
 10  3  1  0  0  0  0
 11 16  1  0  0  0  0
 12  9  1  0  0  0  0
 14 19  1  0  0  0  0
 14  3  2  0  0  0  0
 16  8  1  0  0  0  0
 16 13  1  1  0  0  0
 17  8  1  0  0  0  0
 17  2  1  0  0  0  0
 18  7  2  0  0  0  0
 18 14  1  0  0  0  0
 19  5  1  0  0  0  0
 20 15  1  0  0  0  0
 20  2  2  0  0  0  0
 21 11  2  0  0  0  0
 22 29  1  0  0  0  0
 23 24  1  0  0  0  0
 24 22  2  0  0  0  0
 25 23  2  0  0  0  0
 25 26  1  0  0  0  0
 26 27  2  0  0  0  0
 27 22  1  0  0  0  0
 29 30  2  0  0  0  0
 29 28  1  0  0  0  0
 31 32  1  0  0  0  0
 32 33  1  0  0  0  0
 33 34  1  1  0  0  0
 33  6  1  0  0  0  0
 35 38  1  1  0  0  0
 35 31  1  0  0  0  0
 35 34  1  0  0  0  0
 36 37  1  0  0  0  0
 36 38  1  0  0  0  0
 39 36  2  0  0  0  0
M  END
>  <MODEL>
9

>  <REMARK>
 VINA RESULT:      -8.2      3.298      5.180
  Name = 
  4 active torsions:
  status: ('A' for Active; 'I' for Inactive)
    1  A    between atoms: C_3  and  C_9
    2  A    between atoms: C_11  and  C_19
    3  A    between atoms: C_12  and  C_22
    4  A    between atoms: N_15  and  C_35
                            x       y       z     vdW  Elec       q    Type
                         _______ _______ _______ _____ _____    ______ ____

>  <TORSDO>
F 4

$$$$
