=
 OpenBabel10222415113D

 34 36  0  0  1  0  0  0  0  0999 V2000
  185.0760  178.2130  143.8960 C   0  0  0  0  0  3  0  0  0  0  0  0
  187.1410  177.8570  145.0830 C   0  0  0  0  0  0  0  0  0  0  0  0
  188.4310  177.2810  144.7860 C   0  0  0  0  0  0  0  0  0  0  0  0
  186.3920  177.7520  143.9440 C   0  0  0  0  0  0  0  0  0  0  0  0
  185.3180  178.9070  146.2260 C   0  0  0  0  0  3  0  0  0  0  0  0
  187.2130  177.0930  142.8830 C   0  0  2  0  0  3  0  0  0  0  0  0
  188.4940  176.8500  143.5630 N   0  0  0  0  0  0  0  0  0  0  0  0
  184.5310  178.8010  145.0580 C   0  0  0  0  0  0  0  0  0  0  0  0
  186.6400  178.4320  146.2490 C   0  0  0  0  0  3  0  0  0  0  0  0
  190.7340  177.4510  145.3820 C   0  0  0  0  0  3  0  0  0  0  0  0
  189.5110  177.1940  145.7170 N   0  0  0  0  0  0  0  0  0  0  0  0
  191.7480  177.3540  146.3270 O   0  0  0  0  0  0  0  0  0  0  0  0
  191.4930  176.7920  147.6050 C   0  0  2  0  0  3  0  0  0  0  0  0
  191.9600  177.6420  148.5950 F   0  0  0  0  0  0  0  0  0  0  0  0
  192.7210  175.0680  146.5080 F   0  0  0  0  0  0  0  0  0  0  0  0
  192.1670  175.4320  147.7230 C   0  0  0  0  0  0  0  0  0  0  0  0
  191.2350  174.4840  148.1030 F   0  0  0  0  0  0  0  0  0  0  0  0
  193.1630  175.4920  148.6800 F   0  0  0  0  0  0  0  0  0  0  0  0
  183.2210  179.2840  145.0840 O   0  0  0  0  0  0  0  0  0  0  0  0
  182.2640  178.9590  144.0840 C   0  0  0  0  0  1  0  0  0  0  0  0
  187.3900  177.9780  141.7240 N   0  0  0  0  0  0  0  0  0  0  0  0
  189.6250  177.1120  141.1140 C   0  0  0  0  0  3  0  0  0  0  0  0
  189.1320  177.6210  138.4150 C   0  0  0  0  0  3  0  0  0  0  0  0
  188.1600  177.9230  139.3730 C   0  0  0  0  0  3  0  0  0  0  0  0
  190.5990  176.8130  140.1570 C   0  0  0  0  0  3  0  0  0  0  0  0
  188.3940  177.6700  140.7340 C   0  0  0  0  0  0  0  0  0  0  0  0
  190.3590  177.0640  138.8010 C   0  0  0  0  0  0  0  0  0  0  0  0
  191.0360  176.5420  136.5910 O   0  0  0  0  0  0  0  0  0  0  0  0
  191.3790  176.7380  137.7890 C   0  0  0  0  0  0  0  0  0  0  0  0
  193.5030  175.6450  137.8430 C   0  0  0  0  0  2  0  0  0  0  0  0
  192.7580  176.6520  138.1680 N   0  0  0  0  0  0  0  0  0  0  0  0
  186.5000  179.1300  141.5400 C   0  0  0  0  0  2  0  0  0  0  0  0
  185.3580  178.7890  140.6370 C   0  0  0  0  0  3  0  0  0  0  0  0
  184.8210  179.6890  139.8990 N   0  0  0  0  0  2  0  0  0  0  0  0
  1  4  2  0  0  0  0
  1  8  1  0  0  0  0
  2  9  2  0  0  0  0
  3  2  1  0  0  0  0
  3 11  1  0  0  0  0
  4  2  1  0  0  0  0
  5  9  1  0  0  0  0
  6 21  1  6  0  0  0
  6  7  1  0  0  0  0
  6  4  1  0  0  0  0
  7  3  2  0  0  0  0
  8 19  1  0  0  0  0
  8  5  2  0  0  0  0
 10 11  2  0  0  0  0
 10 12  1  0  0  0  0
 12 13  1  0  0  0  0
 13 16  1  0  0  0  0
 13 14  1  1  0  0  0
 15 16  1  0  0  0  0
 16 17  1  0  0  0  0
 16 18  1  0  0  0  0
 20 19  1  0  0  0  0
 23 27  2  0  0  0  0
 23 24  1  0  0  0  0
 24 26  2  0  0  0  0
 25 22  2  0  0  0  0
 26 22  1  0  0  0  0
 26 21  1  0  0  0  0
 27 25  1  0  0  0  0
 28 29  2  0  0  0  0
 29 31  1  0  0  0  0
 29 27  1  0  0  0  0
 30 31  2  0  0  0  0
 32 21  1  0  0  0  0
 33 32  1  0  0  0  0
 34 33  2  0  0  0  0
M  END
>  <MODEL>
1

>  <REMARK>
 VINA RESULT:      -8.6      0.000      0.000
  Name = 
  11 active torsions:
  status: ('A' for Active; 'I' for Inactive)
    1  A    between atoms: C_1  and  O_11
    2  A    between atoms: N_2  and  C_17
    3  A    between atoms: O_3  and  C_30
    4  A    between atoms: C_8  and  C_9
    5  A    between atoms: C_8  and  O_11
    6  A    between atoms: C_10  and  C_13
    7  A    between atoms: C_10  and  N_21
    8  A    between atoms: N_21  and  C_24
    9  A    between atoms: N_21  and  C_28
   10  A    between atoms: N_22  and  C_26
   11  A    between atoms: C_26  and  C_34
                            x       y       z     vdW  Elec       q    Type
                         _______ _______ _______ _____ _____    ______ ____

>  <TORSDO>
F 11

$$$$
=
 OpenBabel10222415113D

 34 36  0  0  1  0  0  0  0  0999 V2000
  189.6850  176.9550  145.7260 C   0  0  0  0  0  3  0  0  0  0  0  0
  189.7340  177.4640  143.3730 C   0  0  0  0  0  0  0  0  0  0  0  0
  188.7670  177.5660  142.3050 C   0  0  0  0  0  0  0  0  0  0  0  0
  189.0380  177.1390  144.5040 C   0  0  0  0  0  0  0  0  0  0  0  0
  191.7910  177.4620  144.5960 C   0  0  0  0  0  3  0  0  0  0  0  0
  187.5870  177.0260  144.1640 C   0  0  2  0  0  3  0  0  0  0  0  0
  187.5620  177.3280  142.7250 N   0  0  0  0  0  0  0  0  0  0  0  0
  191.0870  177.1200  145.7710 C   0  0  0  0  0  0  0  0  0  0  0  0
  191.1170  177.6370  143.3770 C   0  0  0  0  0  3  0  0  0  0  0  0
  188.2950  178.5840  140.2010 C   0  0  0  0  0  3  0  0  0  0  0  0
  189.0890  177.8910  140.9510 N   0  0  0  0  0  0  0  0  0  0  0  0
  188.6560  178.8750  138.8920 O   0  0  0  0  0  0  0  0  0  0  0  0
  188.1190  178.1260  137.8110 C   0  0  2  0  0  3  0  0  0  0  0  0
  187.2630  177.1500  138.2960 F   0  0  0  0  0  0  0  0  0  0  0  0
  190.4410  177.5980  137.6930 F   0  0  0  0  0  0  0  0  0  0  0  0
  189.2430  177.4860  137.0090 C   0  0  0  0  0  0  0  0  0  0  0  0
  189.3550  178.1160  135.7840 F   0  0  0  0  0  0  0  0  0  0  0  0
  188.9580  176.1480  136.8020 F   0  0  0  0  0  0  0  0  0  0  0  0
  191.8010  176.9520  146.9600 O   0  0  0  0  0  0  0  0  0  0  0  0
  192.3010  175.6910  147.3830 C   0  0  0  0  0  1  0  0  0  0  0  0
  186.7890  177.9990  144.9220 N   0  0  0  0  0  0  0  0  0  0  0  0
  185.0720  178.2440  143.1580 C   0  0  0  0  0  3  0  0  0  0  0  0
  183.1440  178.8940  145.0680 C   0  0  0  0  0  3  0  0  0  0  0  0
  184.4550  178.6190  145.4640 C   0  0  0  0  0  3  0  0  0  0  0  0
  183.7610  178.5230  142.7610 C   0  0  0  0  0  3  0  0  0  0  0  0
  185.4350  178.2870  144.5140 C   0  0  0  0  0  0  0  0  0  0  0  0
  182.7870  178.8480  143.7130 C   0  0  0  0  0  0  0  0  0  0  0  0
  181.1830  179.8980  142.3200 O   0  0  0  0  0  0  0  0  0  0  0  0
  181.4020  179.1300  143.2980 C   0  0  0  0  0  0  0  0  0  0  0  0
  179.1840  179.1380  144.1870 C   0  0  0  0  0  2  0  0  0  0  0  0
  180.3090  178.5260  144.0000 N   0  0  0  0  0  0  0  0  0  0  0  0
  187.3450  178.6220  146.1280 C   0  0  0  0  0  2  0  0  0  0  0  0
  186.9240  177.8810  147.3580 C   0  0  0  0  0  3  0  0  0  0  0  0
  187.6510  177.9060  148.4130 N   0  0  0  0  0  2  0  0  0  0  0  0
  1  8  1  0  0  0  0
  2  9  2  0  0  0  0
  2  4  1  0  0  0  0
  3  7  2  0  0  0  0
  3  2  1  0  0  0  0
  4  1  2  0  0  0  0
  5  8  2  0  0  0  0
  6  4  1  0  0  0  0
  6 21  1  1  0  0  0
  7  6  1  0  0  0  0
  8 19  1  0  0  0  0
  9  5  1  0  0  0  0
 10 11  2  0  0  0  0
 11  3  1  0  0  0  0
 12 10  1  0  0  0  0
 13 14  1  1  0  0  0
 13 12  1  0  0  0  0
 16 15  1  0  0  0  0
 16 13  1  0  0  0  0
 17 16  1  0  0  0  0
 18 16  1  0  0  0  0
 19 20  1  0  0  0  0
 21 32  1  0  0  0  0
 22 26  1  0  0  0  0
 23 24  1  0  0  0  0
 25 22  2  0  0  0  0
 25 27  1  0  0  0  0
 26 21  1  0  0  0  0
 26 24  2  0  0  0  0
 27 23  2  0  0  0  0
 28 29  2  0  0  0  0
 29 27  1  0  0  0  0
 29 31  1  0  0  0  0
 31 30  2  0  0  0  0
 32 33  1  0  0  0  0
 33 34  2  0  0  0  0
M  END
>  <MODEL>
2

>  <REMARK>
 VINA RESULT:      -8.4      4.260      8.579
  Name = 
  11 active torsions:
  status: ('A' for Active; 'I' for Inactive)
    1  A    between atoms: C_1  and  O_11
    2  A    between atoms: N_2  and  C_17
    3  A    between atoms: O_3  and  C_30
    4  A    between atoms: C_8  and  C_9
    5  A    between atoms: C_8  and  O_11
    6  A    between atoms: C_10  and  C_13
    7  A    between atoms: C_10  and  N_21
    8  A    between atoms: N_21  and  C_24
    9  A    between atoms: N_21  and  C_28
   10  A    between atoms: N_22  and  C_26
   11  A    between atoms: C_26  and  C_34
                            x       y       z     vdW  Elec       q    Type
                         _______ _______ _______ _____ _____    ______ ____

>  <TORSDO>
F 11

$$$$
=
 OpenBabel10222415113D

 34 36  0  0  1  0  0  0  0  0999 V2000
  190.3950  176.7270  141.5180 C   0  0  0  0  0  3  0  0  0  0  0  0
  188.2650  177.8450  141.6120 C   0  0  0  0  0  0  0  0  0  0  0  0
  187.4470  178.6140  140.7040 C   0  0  0  0  0  0  0  0  0  0  0  0
  189.3860  177.4810  140.9200 C   0  0  0  0  0  0  0  0  0  0  0  0
  189.0640  176.7180  143.5670 C   0  0  0  0  0  3  0  0  0  0  0  0
  189.2970  178.0260  139.5310 C   0  0  2  0  0  3  0  0  0  0  0  0
  188.0030  178.7260  139.5350 N   0  0  0  0  0  0  0  0  0  0  0  0
  190.2300  176.3390  142.8660 C   0  0  0  0  0  0  0  0  0  0  0  0
  188.0640  177.4800  142.9420 C   0  0  0  0  0  3  0  0  0  0  0  0
  185.1220  178.4610  141.2110 C   0  0  0  0  0  3  0  0  0  0  0  0
  186.1810  179.1840  141.0400 N   0  0  0  0  0  0  0  0  0  0  0  0
  183.9150  179.0640  141.5400 O   0  0  0  0  0  0  0  0  0  0  0  0
  183.1980  178.6610  142.6970 C   0  0  2  0  0  3  0  0  0  0  0  0
  181.9700  179.3030  142.7370 F   0  0  0  0  0  0  0  0  0  0  0  0
  184.6640  180.1900  143.7910 F   0  0  0  0  0  0  0  0  0  0  0  0
  183.9990  178.9870  143.9500 C   0  0  0  0  0  0  0  0  0  0  0  0
  184.9190  177.9830  144.1860 F   0  0  0  0  0  0  0  0  0  0  0  0
  183.1440  179.0770  145.0340 F   0  0  0  0  0  0  0  0  0  0  0  0
  191.1990  175.5840  143.5300 O   0  0  0  0  0  0  0  0  0  0  0  0
  191.7330  175.9600  144.7930 C   0  0  0  0  0  1  0  0  0  0  0  0
  189.3080  176.9460  138.5360 N   0  0  0  0  0  0  0  0  0  0  0  0
  191.7790  176.9270  138.4100 C   0  0  0  0  0  3  0  0  0  0  0  0
  191.7480  174.3240  137.4020 C   0  0  0  0  0  3  0  0  0  0  0  0
  190.5470  174.9700  137.7070 C   0  0  0  0  0  3  0  0  0  0  0  0
  192.9800  176.2830  138.1010 C   0  0  0  0  0  3  0  0  0  0  0  0
  190.5480  176.2790  138.2170 C   0  0  0  0  0  0  0  0  0  0  0  0
  192.9740  174.9760  137.5960 C   0  0  0  0  0  0  0  0  0  0  0  0
  194.2460  173.3190  136.4770 O   0  0  0  0  0  0  0  0  0  0  0  0
  194.2400  174.2910  137.2830 C   0  0  0  0  0  0  0  0  0  0  0  0
  195.9440  174.1860  138.9540 C   0  0  0  0  0  2  0  0  0  0  0  0
  195.4610  174.7350  137.8870 N   0  0  0  0  0  0  0  0  0  0  0  0
  188.0520  176.5010  137.9230 C   0  0  0  0  0  2  0  0  0  0  0  0
  187.9770  176.9170  136.4890 C   0  0  0  0  0  3  0  0  0  0  0  0
  188.4000  178.0700  136.1220 N   0  0  0  0  0  2  0  0  0  0  0  0
  1  8  1  0  0  0  0
  2  9  2  0  0  0  0
  3 11  1  0  0  0  0
  3  2  1  0  0  0  0
  4  1  2  0  0  0  0
  4  2  1  0  0  0  0
  6 21  1  6  0  0  0
  6  7  1  0  0  0  0
  6  4  1  0  0  0  0
  7  3  2  0  0  0  0
  8 19  1  0  0  0  0
  8  5  2  0  0  0  0
  9  5  1  0  0  0  0
 10 12  1  0  0  0  0
 11 10  2  0  0  0  0
 12 13  1  0  0  0  0
 13 14  1  1  0  0  0
 13 16  1  0  0  0  0
 15 16  1  0  0  0  0
 16 17  1  0  0  0  0
 16 18  1  0  0  0  0
 19 20  1  0  0  0  0
 23 27  2  0  0  0  0
 23 24  1  0  0  0  0
 24 26  2  0  0  0  0
 25 22  2  0  0  0  0
 26 22  1  0  0  0  0
 26 21  1  0  0  0  0
 27 25  1  0  0  0  0
 28 29  2  0  0  0  0
 29 27  1  0  0  0  0
 29 31  1  0  0  0  0
 31 30  2  0  0  0  0
 32 21  1  0  0  0  0
 33 32  1  0  0  0  0
 34 33  2  0  0  0  0
M  END
>  <MODEL>
3

>  <REMARK>
 VINA RESULT:      -8.2      3.967      6.446
  Name = 
  11 active torsions:
  status: ('A' for Active; 'I' for Inactive)
    1  A    between atoms: C_1  and  O_11
    2  A    between atoms: N_2  and  C_17
    3  A    between atoms: O_3  and  C_30
    4  A    between atoms: C_8  and  C_9
    5  A    between atoms: C_8  and  O_11
    6  A    between atoms: C_10  and  C_13
    7  A    between atoms: C_10  and  N_21
    8  A    between atoms: N_21  and  C_24
    9  A    between atoms: N_21  and  C_28
   10  A    between atoms: N_22  and  C_26
   11  A    between atoms: C_26  and  C_34
                            x       y       z     vdW  Elec       q    Type
                         _______ _______ _______ _____ _____    ______ ____

>  <TORSDO>
F 11

$$$$
=
 OpenBabel10222415113D

 34 36  0  0  1  0  0  0  0  0999 V2000
  185.6820  179.0640  144.1460 C   0  0  0  0  0  3  0  0  0  0  0  0
  184.3350  178.8840  142.1590 C   0  0  0  0  0  0  0  0  0  0  0  0
  184.5560  178.9730  140.7350 C   0  0  0  0  0  0  0  0  0  0  0  0
  185.5480  179.0800  142.7580 C   0  0  0  0  0  0  0  0  0  0  0  0
  183.2830  178.6260  144.2940 C   0  0  0  0  0  3  0  0  0  0  0  0
  186.5800  179.3030  141.7010 C   0  0  2  0  0  3  0  0  0  0  0  0
  185.8030  179.2040  140.4560 N   0  0  0  0  0  0  0  0  0  0  0  0
  184.5280  178.8330  144.9270 C   0  0  0  0  0  0  0  0  0  0  0  0
  183.1740  178.6510  142.8940 C   0  0  0  0  0  3  0  0  0  0  0  0
  183.1970  179.7870  138.9520 C   0  0  0  0  0  3  0  0  0  0  0  0
  183.5340  178.8240  139.7470 N   0  0  0  0  0  0  0  0  0  0  0  0
  182.1990  179.5910  138.0070 O   0  0  0  0  0  0  0  0  0  0  0  0
  181.2250  180.5950  137.7650 C   0  0  2  0  0  3  0  0  0  0  0  0
  181.8190  181.8470  137.8120 F   0  0  0  0  0  0  0  0  0  0  0  0
  180.4280  181.2690  139.9070 F   0  0  0  0  0  0  0  0  0  0  0  0
  180.1110  180.5050  138.7980 C   0  0  0  0  0  0  0  0  0  0  0  0
  179.9410  179.1880  139.1830 F   0  0  0  0  0  0  0  0  0  0  0  0
  178.9310  180.9680  138.2460 F   0  0  0  0  0  0  0  0  0  0  0  0
  184.5870  178.8030  146.3220 O   0  0  0  0  0  0  0  0  0  0  0  0
  185.8060  178.6400  147.0350 C   0  0  0  0  0  1  0  0  0  0  0  0
  187.6240  178.2700  141.7540 N   0  0  0  0  0  0  0  0  0  0  0  0
  189.4760  178.6920  143.3390 C   0  0  0  0  0  3  0  0  0  0  0  0
  188.4580  176.7820  145.1010 C   0  0  0  0  0  3  0  0  0  0  0  0
  187.8020  177.0400  143.8950 C   0  0  0  0  0  3  0  0  0  0  0  0
  190.1340  178.4320  144.5440 C   0  0  0  0  0  3  0  0  0  0  0  0
  188.3020  178.0000  142.9990 C   0  0  0  0  0  0  0  0  0  0  0  0
  189.6290  177.4770  145.4350 C   0  0  0  0  0  0  0  0  0  0  0  0
  189.6780  177.3010  147.7970 O   0  0  0  0  0  0  0  0  0  0  0  0
  190.3150  177.2100  146.7110 C   0  0  0  0  0  0  0  0  0  0  0  0
  192.0940  175.6300  146.4980 C   0  0  0  0  0  2  0  0  0  0  0  0
  191.6990  176.8430  146.7150 N   0  0  0  0  0  0  0  0  0  0  0  0
  187.9240  177.4700  140.5620 C   0  0  0  0  0  2  0  0  0  0  0  0
  189.1050  178.0190  139.8280 C   0  0  0  0  0  3  0  0  0  0  0  0
  188.9490  178.9020  138.9120 N   0  0  0  0  0  2  0  0  0  0  0  0
  1  8  1  0  0  0  0
  2  4  1  0  0  0  0
  2  9  2  0  0  0  0
  3  2  1  0  0  0  0
  4  1  2  0  0  0  0
  5  8  2  0  0  0  0
  6 21  1  6  0  0  0
  6  4  1  0  0  0  0
  7  3  2  0  0  0  0
  7  6  1  0  0  0  0
  8 19  1  0  0  0  0
  9  5  1  0  0  0  0
 10 11  2  0  0  0  0
 11  3  1  0  0  0  0
 12 10  1  0  0  0  0
 13 14  1  1  0  0  0
 13 12  1  0  0  0  0
 13 16  1  0  0  0  0
 16 17  1  0  0  0  0
 16 15  1  0  0  0  0
 18 16  1  0  0  0  0
 19 20  1  0  0  0  0
 21 26  1  0  0  0  0
 22 25  1  0  0  0  0
 23 27  1  0  0  0  0
 24 23  2  0  0  0  0
 25 27  2  0  0  0  0
 26 22  2  0  0  0  0
 26 24  1  0  0  0  0
 27 29  1  0  0  0  0
 29 31  1  0  0  0  0
 29 28  2  0  0  0  0
 30 31  2  0  0  0  0
 32 21  1  0  0  0  0
 33 32  1  0  0  0  0
 34 33  2  0  0  0  0
M  END
>  <MODEL>
4

>  <REMARK>
 VINA RESULT:      -8.2      5.842      8.643
  Name = 
  11 active torsions:
  status: ('A' for Active; 'I' for Inactive)
    1  A    between atoms: C_1  and  O_11
    2  A    between atoms: N_2  and  C_17
    3  A    between atoms: O_3  and  C_30
    4  A    between atoms: C_8  and  C_9
    5  A    between atoms: C_8  and  O_11
    6  A    between atoms: C_10  and  C_13
    7  A    between atoms: C_10  and  N_21
    8  A    between atoms: N_21  and  C_24
    9  A    between atoms: N_21  and  C_28
   10  A    between atoms: N_22  and  C_26
   11  A    between atoms: C_26  and  C_34
                            x       y       z     vdW  Elec       q    Type
                         _______ _______ _______ _____ _____    ______ ____

>  <TORSDO>
F 11

$$$$
=
 OpenBabel10222415113D

 34 36  0  0  1  0  0  0  0  0999 V2000
  182.5620  178.8530  144.3010 C   0  0  0  0  0  3  0  0  0  0  0  0
  183.5920  178.9700  142.1270 C   0  0  0  0  0  0  0  0  0  0  0  0
  184.9150  179.2280  141.6100 C   0  0  0  0  0  0  0  0  0  0  0  0
  183.6800  179.0470  143.4890 C   0  0  0  0  0  0  0  0  0  0  0  0
  181.2520  178.4840  142.2710 C   0  0  0  0  0  3  0  0  0  0  0  0
  185.0900  179.3630  143.8670 C   0  0  2  0  0  3  0  0  0  0  0  0
  185.7680  179.4490  142.5640 N   0  0  0  0  0  0  0  0  0  0  0  0
  181.3260  178.5660  143.6790 C   0  0  0  0  0  0  0  0  0  0  0  0
  182.3920  178.6880  141.4770 C   0  0  0  0  0  3  0  0  0  0  0  0
  186.1850  178.4900  139.7320 C   0  0  0  0  0  3  0  0  0  0  0  0
  185.2530  179.2410  140.2220 N   0  0  0  0  0  0  0  0  0  0  0  0
  186.4730  178.5380  138.3740 O   0  0  0  0  0  0  0  0  0  0  0  0
  187.4630  177.6880  137.8150 C   0  0  2  0  0  3  0  0  0  0  0  0
  188.1500  177.0370  138.8280 F   0  0  0  0  0  0  0  0  0  0  0  0
  189.1040  179.4160  137.7530 F   0  0  0  0  0  0  0  0  0  0  0  0
  188.4310  178.4980  136.9650 C   0  0  0  0  0  0  0  0  0  0  0  0
  187.7320  179.1690  135.9790 F   0  0  0  0  0  0  0  0  0  0  0  0
  189.3450  177.6490  136.3690 F   0  0  0  0  0  0  0  0  0  0  0  0
  180.1660  178.3600  144.4280 O   0  0  0  0  0  0  0  0  0  0  0  0
  179.0870  179.2860  144.4420 C   0  0  0  0  0  1  0  0  0  0  0  0
  185.6700  178.2960  144.6940 N   0  0  0  0  0  0  0  0  0  0  0  0
  188.1080  178.2440  145.1060 C   0  0  0  0  0  3  0  0  0  0  0  0
  188.4510  176.3470  143.0880 C   0  0  0  0  0  3  0  0  0  0  0  0
  187.1750  176.8380  143.3770 C   0  0  0  0  0  3  0  0  0  0  0  0
  189.3850  177.7570  144.8150 C   0  0  0  0  0  3  0  0  0  0  0  0
  186.9870  177.7910  144.3920 C   0  0  0  0  0  0  0  0  0  0  0  0
  189.5660  176.8040  143.8050 C   0  0  0  0  0  0  0  0  0  0  0  0
  191.2190  175.1070  143.8570 O   0  0  0  0  0  0  0  0  0  0  0  0
  190.9090  176.2790  143.5050 C   0  0  0  0  0  0  0  0  0  0  0  0
  191.7270  177.3950  141.5570 C   0  0  0  0  0  2  0  0  0  0  0  0
  191.8570  177.0980  142.8100 N   0  0  0  0  0  0  0  0  0  0  0  0
  184.9380  177.7970  145.8640 C   0  0  0  0  0  2  0  0  0  0  0  0
  185.4860  178.3780  147.1280 C   0  0  0  0  0  3  0  0  0  0  0  0
  185.7400  179.6320  147.2120 N   0  0  0  0  0  2  0  0  0  0  0  0
  2  4  1  0  0  0  0
  3  2  1  0  0  0  0
  3  7  2  0  0  0  0
  4  6  1  0  0  0  0
  4  1  2  0  0  0  0
  5  8  2  0  0  0  0
  6 21  1  1  0  0  0
  7  6  1  0  0  0  0
  8  1  1  0  0  0  0
  8 19  1  0  0  0  0
  9  2  2  0  0  0  0
  9  5  1  0  0  0  0
 10 11  2  0  0  0  0
 11  3  1  0  0  0  0
 12 10  1  0  0  0  0
 13 12  1  0  0  0  0
 13 14  1  1  0  0  0
 16 15  1  0  0  0  0
 16 13  1  0  0  0  0
 17 16  1  0  0  0  0
 18 16  1  0  0  0  0
 19 20  1  0  0  0  0
 21 32  1  0  0  0  0
 23 24  2  0  0  0  0
 23 27  1  0  0  0  0
 24 26  1  0  0  0  0
 25 22  1  0  0  0  0
 26 21  1  0  0  0  0
 26 22  2  0  0  0  0
 27 25  2  0  0  0  0
 29 27  1  0  0  0  0
 29 28  2  0  0  0  0
 30 31  2  0  0  0  0
 31 29  1  0  0  0  0
 32 33  1  0  0  0  0
 33 34  2  0  0  0  0
M  END
>  <MODEL>
5

>  <REMARK>
 VINA RESULT:      -8.2      4.323      6.876
  Name = 
  11 active torsions:
  status: ('A' for Active; 'I' for Inactive)
    1  A    between atoms: C_1  and  O_11
    2  A    between atoms: N_2  and  C_17
    3  A    between atoms: O_3  and  C_30
    4  A    between atoms: C_8  and  C_9
    5  A    between atoms: C_8  and  O_11
    6  A    between atoms: C_10  and  C_13
    7  A    between atoms: C_10  and  N_21
    8  A    between atoms: N_21  and  C_24
    9  A    between atoms: N_21  and  C_28
   10  A    between atoms: N_22  and  C_26
   11  A    between atoms: C_26  and  C_34
                            x       y       z     vdW  Elec       q    Type
                         _______ _______ _______ _____ _____    ______ ____

>  <TORSDO>
F 11

$$$$
=
 OpenBabel10222415113D

 34 36  0  0  1  0  0  0  0  0999 V2000
  185.7720  179.1450  144.1500 C   0  0  0  0  0  3  0  0  0  0  0  0
  184.2820  178.8550  142.2800 C   0  0  0  0  0  0  0  0  0  0  0  0
  184.3930  178.8880  140.8410 C   0  0  0  0  0  0  0  0  0  0  0  0
  185.5330  179.0990  142.7760 C   0  0  0  0  0  0  0  0  0  0  0  0
  183.4010  178.6690  144.4980 C   0  0  0  0  0  3  0  0  0  0  0  0
  186.4770  179.2950  141.6350 C   0  0  2  0  0  3  0  0  0  0  0  0
  185.6110  179.1300  140.4590 N   0  0  0  0  0  0  0  0  0  0  0  0
  184.6860  178.9260  145.0250 C   0  0  0  0  0  0  0  0  0  0  0  0
  183.1860  178.6320  143.1110 C   0  0  0  0  0  3  0  0  0  0  0  0
  183.0630  177.5270  139.4040 C   0  0  0  0  0  3  0  0  0  0  0  0
  183.3030  178.6790  139.9410 N   0  0  0  0  0  0  0  0  0  0  0  0
  181.9880  177.3750  138.5370 O   0  0  0  0  0  0  0  0  0  0  0  0
  181.2910  176.1410  138.4590 C   0  0  2  0  0  3  0  0  0  0  0  0
  181.3110  175.5110  139.6940 F   0  0  0  0  0  0  0  0  0  0  0  0
  182.4550  176.0140  136.3830 F   0  0  0  0  0  0  0  0  0  0  0  0
  181.9270  175.2450  137.4060 C   0  0  0  0  0  0  0  0  0  0  0  0
  180.9740  174.3880  136.8890 F   0  0  0  0  0  0  0  0  0  0  0  0
  182.9370  174.4980  137.9830 F   0  0  0  0  0  0  0  0  0  0  0  0
  184.8500  178.9570  146.4120 O   0  0  0  0  0  0  0  0  0  0  0  0
  186.0750  178.6130  147.0470 C   0  0  0  0  0  1  0  0  0  0  0  0
  187.5440  178.2850  141.6510 N   0  0  0  0  0  0  0  0  0  0  0  0
  187.7810  176.9530  143.7220 C   0  0  0  0  0  3  0  0  0  0  0  0
  190.0260  178.4350  144.4670 C   0  0  0  0  0  3  0  0  0  0  0  0
  189.3600  178.7270  143.2740 C   0  0  0  0  0  3  0  0  0  0  0  0
  188.4440  176.6640  144.9170 C   0  0  0  0  0  3  0  0  0  0  0  0
  188.2300  177.9880  142.8850 C   0  0  0  0  0  0  0  0  0  0  0  0
  189.5720  177.4010  145.2980 C   0  0  0  0  0  0  0  0  0  0  0  0
  189.6410  177.0380  147.6390 O   0  0  0  0  0  0  0  0  0  0  0  0
  190.2800  177.0880  146.5520 C   0  0  0  0  0  0  0  0  0  0  0  0
  192.2030  175.7380  146.9850 C   0  0  0  0  0  2  0  0  0  0  0  0
  191.6900  176.8360  146.5320 N   0  0  0  0  0  0  0  0  0  0  0  0
  187.8590  177.5340  140.4310 C   0  0  0  0  0  2  0  0  0  0  0  0
  188.9850  178.1730  139.6820 C   0  0  0  0  0  3  0  0  0  0  0  0
  188.7500  178.9190  138.6660 N   0  0  0  0  0  2  0  0  0  0  0  0
  1  8  1  0  0  0  0
  2  4  1  0  0  0  0
  2  9  2  0  0  0  0
  3  2  1  0  0  0  0
  4  1  2  0  0  0  0
  5  8  2  0  0  0  0
  6 21  1  6  0  0  0
  6  4  1  0  0  0  0
  7  3  2  0  0  0  0
  7  6  1  0  0  0  0
  8 19  1  0  0  0  0
  9  5  1  0  0  0  0
 10 11  2  0  0  0  0
 11  3  1  0  0  0  0
 12 10  1  0  0  0  0
 13 12  1  0  0  0  0
 13 14  1  1  0  0  0
 15 16  1  0  0  0  0
 16 18  1  0  0  0  0
 16 13  1  0  0  0  0
 17 16  1  0  0  0  0
 19 20  1  0  0  0  0
 21 26  1  0  0  0  0
 22 25  1  0  0  0  0
 23 27  1  0  0  0  0
 24 23  2  0  0  0  0
 25 27  2  0  0  0  0
 26 24  1  0  0  0  0
 26 22  2  0  0  0  0
 27 29  1  0  0  0  0
 29 28  2  0  0  0  0
 31 29  1  0  0  0  0
 31 30  2  0  0  0  0
 32 21  1  0  0  0  0
 33 32  1  0  0  0  0
 34 33  2  0  0  0  0
M  END
>  <MODEL>
6

>  <REMARK>
 VINA RESULT:      -8.1      5.320      8.156
  Name = 
  11 active torsions:
  status: ('A' for Active; 'I' for Inactive)
    1  A    between atoms: C_1  and  O_11
    2  A    between atoms: N_2  and  C_17
    3  A    between atoms: O_3  and  C_30
    4  A    between atoms: C_8  and  C_9
    5  A    between atoms: C_8  and  O_11
    6  A    between atoms: C_10  and  C_13
    7  A    between atoms: C_10  and  N_21
    8  A    between atoms: N_21  and  C_24
    9  A    between atoms: N_21  and  C_28
   10  A    between atoms: N_22  and  C_26
   11  A    between atoms: C_26  and  C_34
                            x       y       z     vdW  Elec       q    Type
                         _______ _______ _______ _____ _____    ______ ____

>  <TORSDO>
F 11

$$$$
=
 OpenBabel10222415113D

 34 36  0  0  1  0  0  0  0  0999 V2000
  188.3570  178.1480  140.4890 C   0  0  0  0  0  3  0  0  0  0  0  0
  190.5840  177.5070  139.8340 C   0  0  0  0  0  0  0  0  0  0  0  0
  191.8550  177.3220  140.4940 C   0  0  0  0  0  0  0  0  0  0  0  0
  189.6910  177.8800  140.7990 C   0  0  0  0  0  0  0  0  0  0  0  0
  188.8780  177.6260  138.1600 C   0  0  0  0  0  3  0  0  0  0  0  0
  190.3960  177.9410  142.1150 C   0  0  2  0  0  3  0  0  0  0  0  0
  191.7720  177.5570  141.7690 N   0  0  0  0  0  0  0  0  0  0  0  0
  187.9450  178.0180  139.1440 C   0  0  0  0  0  0  0  0  0  0  0  0
  190.2160  177.3660  138.4980 C   0  0  0  0  0  3  0  0  0  0  0  0
  193.0560  176.3680  138.6680 C   0  0  0  0  0  3  0  0  0  0  0  0
  193.0590  176.9290  139.8340 N   0  0  0  0  0  0  0  0  0  0  0  0
  194.2550  176.0070  138.0680 O   0  0  0  0  0  0  0  0  0  0  0  0
  194.5230  174.6490  137.7500 C   0  0  2  0  0  3  0  0  0  0  0  0
  193.3700  173.8940  137.9010 F   0  0  0  0  0  0  0  0  0  0  0  0
  196.8500  174.2050  138.0130 F   0  0  0  0  0  0  0  0  0  0  0  0
  195.6250  174.1080  138.6500 C   0  0  0  0  0  0  0  0  0  0  0  0
  195.3690  172.7830  138.9500 F   0  0  0  0  0  0  0  0  0  0  0  0
  195.6610  174.8360  139.8250 F   0  0  0  0  0  0  0  0  0  0  0  0
  186.6260  178.2700  138.7600 O   0  0  0  0  0  0  0  0  0  0  0  0
  186.1300  177.9550  137.4660 C   0  0  0  0  0  1  0  0  0  0  0  0
  189.8100  176.9940  143.0740 N   0  0  0  0  0  0  0  0  0  0  0  0
  187.3610  177.2640  143.3010 C   0  0  0  0  0  3  0  0  0  0  0  0
  187.6690  178.2450  145.8960 C   0  0  0  0  0  3  0  0  0  0  0  0
  188.7920  177.8770  145.1500 C   0  0  0  0  0  3  0  0  0  0  0  0
  186.2390  177.6360  144.0450 C   0  0  0  0  0  3  0  0  0  0  0  0
  188.6520  177.3790  143.8440 C   0  0  0  0  0  0  0  0  0  0  0  0
  186.3840  178.1280  145.3480 C   0  0  0  0  0  0  0  0  0  0  0  0
  185.3370  178.8680  147.3410 O   0  0  0  0  0  0  0  0  0  0  0  0
  185.2000  178.5090  146.1390 C   0  0  0  0  0  0  0  0  0  0  0  0
  183.5060  179.3730  144.6920 C   0  0  0  0  0  2  0  0  0  0  0  0
  183.9000  178.4770  145.5380 N   0  0  0  0  0  0  0  0  0  0  0  0
  190.3590  175.6390  143.1940 C   0  0  0  0  0  2  0  0  0  0  0  0
  191.6470  175.6460  143.9530 C   0  0  0  0  0  3  0  0  0  0  0  0
  191.6790  176.0210  145.1780 N   0  0  0  0  0  2  0  0  0  0  0  0
  1  4  1  0  0  0  0
  2  3  1  0  0  0  0
  2  4  2  0  0  0  0
  3  7  2  0  0  0  0
  4  6  1  0  0  0  0
  5  9  2  0  0  0  0
  5  8  1  0  0  0  0
  6 21  1  1  0  0  0
  7  6  1  0  0  0  0
  8  1  2  0  0  0  0
  9  2  1  0  0  0  0
 10 11  2  0  0  0  0
 11  3  1  0  0  0  0
 12 10  1  0  0  0  0
 13 14  1  1  0  0  0
 13 12  1  0  0  0  0
 13 16  1  0  0  0  0
 15 16  1  0  0  0  0
 16 17  1  0  0  0  0
 16 18  1  0  0  0  0
 19  8  1  0  0  0  0
 20 19  1  0  0  0  0
 21 32  1  0  0  0  0
 21 26  1  0  0  0  0
 22 26  2  0  0  0  0
 22 25  1  0  0  0  0
 24 23  2  0  0  0  0
 25 27  2  0  0  0  0
 26 24  1  0  0  0  0
 27 23  1  0  0  0  0
 27 29  1  0  0  0  0
 29 28  2  0  0  0  0
 30 31  2  0  0  0  0
 31 29  1  0  0  0  0
 32 33  1  0  0  0  0
 33 34  2  0  0  0  0
M  END
>  <MODEL>
7

>  <REMARK>
 VINA RESULT:      -8.1      3.865      8.041
  Name = 
  11 active torsions:
  status: ('A' for Active; 'I' for Inactive)
    1  A    between atoms: C_1  and  O_11
    2  A    between atoms: N_2  and  C_17
    3  A    between atoms: O_3  and  C_30
    4  A    between atoms: C_8  and  C_9
    5  A    between atoms: C_8  and  O_11
    6  A    between atoms: C_10  and  C_13
    7  A    between atoms: C_10  and  N_21
    8  A    between atoms: N_21  and  C_24
    9  A    between atoms: N_21  and  C_28
   10  A    between atoms: N_22  and  C_26
   11  A    between atoms: C_26  and  C_34
                            x       y       z     vdW  Elec       q    Type
                         _______ _______ _______ _____ _____    ______ ____

>  <TORSDO>
F 11

$$$$
=
 OpenBabel10222415113D

 34 36  0  0  1  0  0  0  0  0999 V2000
  185.6490  179.0760  144.1260 C   0  0  0  0  0  3  0  0  0  0  0  0
  184.2590  178.8790  142.1690 C   0  0  0  0  0  0  0  0  0  0  0  0
  184.4490  178.9610  140.7400 C   0  0  0  0  0  0  0  0  0  0  0  0
  185.4840  179.0840  142.7410 C   0  0  0  0  0  0  0  0  0  0  0  0
  183.2560  178.6270  144.3280 C   0  0  0  0  0  3  0  0  0  0  0  0
  186.4930  179.3060  141.6600 C   0  0  2  0  0  3  0  0  0  0  0  0
  185.6890  179.1970  140.4330 N   0  0  0  0  0  0  0  0  0  0  0  0
  184.5130  178.8430  144.9330 C   0  0  0  0  0  0  0  0  0  0  0  0
  183.1160  178.6440  142.9310 C   0  0  0  0  0  3  0  0  0  0  0  0
  183.0350  177.6410  139.3460 C   0  0  0  0  0  3  0  0  0  0  0  0
  183.4070  178.8030  139.7760 N   0  0  0  0  0  0  0  0  0  0  0  0
  182.0140  177.5410  138.4090 O   0  0  0  0  0  0  0  0  0  0  0  0
  182.3050  177.5570  137.0200 C   0  0  2  0  0  3  0  0  0  0  0  0
  183.6430  177.8620  136.8230 F   0  0  0  0  0  0  0  0  0  0  0  0
  181.7950  178.6820  134.9820 F   0  0  0  0  0  0  0  0  0  0  0  0
  181.4260  178.5780  136.3120 C   0  0  0  0  0  0  0  0  0  0  0  0
  181.5620  179.8100  136.9220 F   0  0  0  0  0  0  0  0  0  0  0  0
  180.1040  178.1810  136.3890 F   0  0  0  0  0  0  0  0  0  0  0  0
  184.6030  178.8210  146.3260 O   0  0  0  0  0  0  0  0  0  0  0  0
  185.8310  178.6190  147.0140 C   0  0  0  0  0  1  0  0  0  0  0  0
  187.5420  178.2780  141.6960 N   0  0  0  0  0  0  0  0  0  0  0  0
  189.4070  178.6470  143.2790 C   0  0  0  0  0  3  0  0  0  0  0  0
  188.3470  176.7530  145.0340 C   0  0  0  0  0  3  0  0  0  0  0  0
  187.6950  177.0330  143.8300 C   0  0  0  0  0  3  0  0  0  0  0  0
  190.0610  178.3650  144.4810 C   0  0  0  0  0  3  0  0  0  0  0  0
  188.2160  177.9860  142.9380 C   0  0  0  0  0  0  0  0  0  0  0  0
  189.5360  177.4170  145.3680 C   0  0  0  0  0  0  0  0  0  0  0  0
  189.5550  177.0970  147.7160 O   0  0  0  0  0  0  0  0  0  0  0  0
  190.2170  177.1280  146.6420 C   0  0  0  0  0  0  0  0  0  0  0  0
  192.1150  175.6810  146.7560 C   0  0  0  0  0  2  0  0  0  0  0  0
  191.6270  176.8750  146.6550 N   0  0  0  0  0  0  0  0  0  0  0  0
  187.8520  177.5060  140.4880 C   0  0  0  0  0  2  0  0  0  0  0  0
  189.0730  178.0370  139.8090 C   0  0  0  0  0  3  0  0  0  0  0  0
  188.9830  179.0010  138.9680 N   0  0  0  0  0  2  0  0  0  0  0  0
  1  8  1  0  0  0  0
  2  4  1  0  0  0  0
  2  9  2  0  0  0  0
  3  2  1  0  0  0  0
  4  1  2  0  0  0  0
  5  8  2  0  0  0  0
  6 21  1  6  0  0  0
  6  4  1  0  0  0  0
  7  3  2  0  0  0  0
  7  6  1  0  0  0  0
  8 19  1  0  0  0  0
  9  5  1  0  0  0  0
 10 11  2  0  0  0  0
 11  3  1  0  0  0  0
 12 10  1  0  0  0  0
 13 14  1  1  0  0  0
 13 12  1  0  0  0  0
 15 16  1  0  0  0  0
 16 18  1  0  0  0  0
 16 17  1  0  0  0  0
 16 13  1  0  0  0  0
 19 20  1  0  0  0  0
 21 26  1  0  0  0  0
 22 25  1  0  0  0  0
 23 27  1  0  0  0  0
 24 23  2  0  0  0  0
 25 27  2  0  0  0  0
 26 22  2  0  0  0  0
 26 24  1  0  0  0  0
 27 29  1  0  0  0  0
 29 31  1  0  0  0  0
 29 28  2  0  0  0  0
 31 30  2  0  0  0  0
 32 21  1  0  0  0  0
 33 32  1  0  0  0  0
 34 33  2  0  0  0  0
M  END
>  <MODEL>
8

>  <REMARK>
 VINA RESULT:      -8.0      5.777      8.606
  Name = 
  11 active torsions:
  status: ('A' for Active; 'I' for Inactive)
    1  A    between atoms: C_1  and  O_11
    2  A    between atoms: N_2  and  C_17
    3  A    between atoms: O_3  and  C_30
    4  A    between atoms: C_8  and  C_9
    5  A    between atoms: C_8  and  O_11
    6  A    between atoms: C_10  and  C_13
    7  A    between atoms: C_10  and  N_21
    8  A    between atoms: N_21  and  C_24
    9  A    between atoms: N_21  and  C_28
   10  A    between atoms: N_22  and  C_26
   11  A    between atoms: C_26  and  C_34
                            x       y       z     vdW  Elec       q    Type
                         _______ _______ _______ _____ _____    ______ ____

>  <TORSDO>
F 11

$$$$
=
 OpenBabel10222415113D

 34 36  0  0  1  0  0  0  0  0999 V2000
  187.9270  177.3290  145.5790 C   0  0  0  0  0  3  0  0  0  0  0  0
  188.7190  177.9190  143.3830 C   0  0  0  0  0  0  0  0  0  0  0  0
  188.1420  178.0580  142.0670 C   0  0  0  0  0  0  0  0  0  0  0  0
  187.7020  177.5540  144.2210 C   0  0  0  0  0  0  0  0  0  0  0  0
  190.2770  177.8760  145.1990 C   0  0  0  0  0  3  0  0  0  0  0  0
  186.4370  177.4520  143.4330 C   0  0  2  0  0  3  0  0  0  0  0  0
  186.8680  177.8040  142.0720 N   0  0  0  0  0  0  0  0  0  0  0  0
  189.2390  177.4930  146.0760 C   0  0  0  0  0  0  0  0  0  0  0  0
  190.0250  178.0930  143.8350 C   0  0  0  0  0  3  0  0  0  0  0  0
  188.2990  178.6280  139.7570 C   0  0  0  0  0  3  0  0  0  0  0  0
  188.8750  178.4300  140.8980 N   0  0  0  0  0  0  0  0  0  0  0  0
  189.0570  178.9910  138.6510 O   0  0  0  0  0  0  0  0  0  0  0  0
  188.7510  178.4740  137.3640 C   0  0  2  0  0  3  0  0  0  0  0  0
  187.3950  178.1960  137.2790 F   0  0  0  0  0  0  0  0  0  0  0  0
  189.8970  177.1350  135.7590 F   0  0  0  0  0  0  0  0  0  0  0  0
  189.5610  177.2130  137.1000 C   0  0  0  0  0  0  0  0  0  0  0  0
  188.8160  176.1020  137.4490 F   0  0  0  0  0  0  0  0  0  0  0  0
  190.7150  177.2370  137.8600 F   0  0  0  0  0  0  0  0  0  0  0  0
  189.5380  177.2840  147.4240 O   0  0  0  0  0  0  0  0  0  0  0  0
  188.9360  178.0360  148.4690 C   0  0  0  0  0  1  0  0  0  0  0  0
  185.4270  178.3980  143.9270 N   0  0  0  0  0  0  0  0  0  0  0  0
  183.0020  178.8880  143.9430 C   0  0  0  0  0  3  0  0  0  0  0  0
  182.8410  178.3850  141.2020 C   0  0  0  0  0  3  0  0  0  0  0  0
  184.0660  178.2650  141.8640 C   0  0  0  0  0  3  0  0  0  0  0  0
  181.7770  179.0040  143.2820 C   0  0  0  0  0  3  0  0  0  0  0  0
  184.1620  178.5170  143.2430 C   0  0  0  0  0  0  0  0  0  0  0  0
  181.6870  178.7550  141.9070 C   0  0  0  0  0  0  0  0  0  0  0  0
  179.3730  178.3080  141.6580 O   0  0  0  0  0  0  0  0  0  0  0  0
  180.3980  178.8900  141.2060 C   0  0  0  0  0  0  0  0  0  0  0  0
  180.0350  180.9500  140.0520 C   0  0  0  0  0  2  0  0  0  0  0  0
  180.3110  179.6860  140.0190 N   0  0  0  0  0  0  0  0  0  0  0  0
  185.6790  179.1640  145.1520 C   0  0  0  0  0  2  0  0  0  0  0  0
  184.8740  178.6320  146.2950 C   0  0  0  0  0  3  0  0  0  0  0  0
  185.3330  178.6760  147.4910 N   0  0  0  0  0  2  0  0  0  0  0  0
  1  8  1  0  0  0  0
  2  9  2  0  0  0  0
  2  4  1  0  0  0  0
  3  7  2  0  0  0  0
  3  2  1  0  0  0  0
  4  1  2  0  0  0  0
  5  8  2  0  0  0  0
  6 21  1  1  0  0  0
  6  4  1  0  0  0  0
  7  6  1  0  0  0  0
  8 19  1  0  0  0  0
  9  5  1  0  0  0  0
 10 11  2  0  0  0  0
 11  3  1  0  0  0  0
 12 10  1  0  0  0  0
 13 14  1  1  0  0  0
 13 12  1  0  0  0  0
 15 16  1  0  0  0  0
 16 13  1  0  0  0  0
 16 17  1  0  0  0  0
 16 18  1  0  0  0  0
 19 20  1  0  0  0  0
 21 32  1  0  0  0  0
 23 24  2  0  0  0  0
 23 27  1  0  0  0  0
 24 26  1  0  0  0  0
 25 22  1  0  0  0  0
 26 21  1  0  0  0  0
 26 22  2  0  0  0  0
 27 25  2  0  0  0  0
 29 28  2  0  0  0  0
 29 27  1  0  0  0  0
 31 30  2  0  0  0  0
 31 29  1  0  0  0  0
 32 33  1  0  0  0  0
 33 34  2  0  0  0  0
M  END
>  <MODEL>
9

>  <REMARK>
 VINA RESULT:      -7.9      4.327      8.119
  Name = 
  11 active torsions:
  status: ('A' for Active; 'I' for Inactive)
    1  A    between atoms: C_1  and  O_11
    2  A    between atoms: N_2  and  C_17
    3  A    between atoms: O_3  and  C_30
    4  A    between atoms: C_8  and  C_9
    5  A    between atoms: C_8  and  O_11
    6  A    between atoms: C_10  and  C_13
    7  A    between atoms: C_10  and  N_21
    8  A    between atoms: N_21  and  C_24
    9  A    between atoms: N_21  and  C_28
   10  A    between atoms: N_22  and  C_26
   11  A    between atoms: C_26  and  C_34
                            x       y       z     vdW  Elec       q    Type
                         _______ _______ _______ _____ _____    ______ ____

>  <TORSDO>
F 11

$$$$
