=
 OpenBabel10222416463D

 45 47  0  0  1  0  0  0  0  0999 V2000
  187.0530  177.4660  137.4250 C   0  0  2  0  0  3  0  0  0  0  0  0
  187.6480  178.6780  135.3600 C   0  0  0  0  0  3  0  0  0  0  0  0
  187.1320  177.4980  134.5950 C   0  0  0  0  0  2  0  0  0  0  0  0
  187.6030  178.6650  136.6950 C   0  0  0  0  0  3  0  0  0  0  0  0
  185.7950  176.9120  136.7050 C   0  0  1  0  0  3  0  0  0  0  0  0
  185.7840  177.0590  135.1680 C   0  0  0  0  0  2  0  0  0  0  0  0
  185.4720  175.5360  137.1050 N   0  0  0  0  0  0  0  0  0  0  0  0
  183.7420  174.0410  137.6600 O   0  0  0  0  0  0  0  0  0  0  0  0
  186.4970  174.5140  137.1570 C   0  0  0  0  0  0  0  0  0  0  0  0
  186.3180  173.4640  137.8290 O   0  0  0  0  0  0  0  0  0  0  0  0
  184.0980  175.2260  137.4230 C   0  0  0  0  0  0  0  0  0  0  0  0
  181.8650  175.8430  138.2660 C   0  0  0  0  0  1  0  0  0  0  0  0
  183.0540  176.2970  137.4440 C   0  0  0  0  0  2  0  0  0  0  0  0
  187.7950  174.6790  136.4300 C   0  0  0  0  0  2  0  0  0  0  0  0
  188.9750  174.4390  137.3570 C   0  0  0  0  0  2  0  0  0  0  0  0
  190.1170  174.1380  136.6130 O   0  0  0  0  0  0  0  0  0  0  0  0
  191.1590  174.7810  137.2820 C   0  0  0  0  0  2  0  0  0  0  0  0
  190.6360  175.6100  138.2740 O   0  0  0  0  0  0  0  0  0  0  0  0
  191.6530  176.5260  138.5450 C   0  0  0  0  0  2  0  0  0  0  0  0
  192.5430  177.5930  140.6020 C   0  0  0  0  0  1  0  0  0  0  0  0
  191.2970  177.3500  139.7710 C   0  0  2  0  0  3  0  0  0  0  0  0
  190.2800  176.5930  140.6100 C   0  0  0  0  0  2  0  0  0  0  0  0
  190.3410  176.9540  142.0950 C   0  0  1  0  0  3  0  0  0  0  0  0
  189.3160  177.8380  142.4450 O   0  0  0  0  0  1  0  0  0  0  0  0
  190.3680  175.7360  143.0160 C   0  0  0  0  0  2  0  0  0  0  0  0
  191.4580  175.8290  143.9740 N   0  0  0  0  0  1  0  0  0  0  0  0
  187.8410  178.5260  139.4380 O   0  0  0  0  0  1  0  0  0  0  0  0
  186.7640  177.8310  138.8840 C   0  0  1  0  0  3  0  0  0  0  0  0
  185.5710  178.6670  138.9600 N   0  0  0  0  0  2  0  0  0  0  0  0
  185.2620  178.9140  141.3980 C   0  0  0  0  0  3  0  0  0  0  0  0
  182.5340  178.7050  141.0520 N   0  0  0  0  0  0  0  0  0  0  0  0
  184.4160  178.9810  142.5070 C   0  0  0  0  0  0  0  0  0  0  0  0
  184.7310  178.7410  140.1150 C   0  0  0  0  0  0  0  0  0  0  0  0
  183.3470  178.6370  139.9640 C   0  0  0  0  0  3  0  0  0  0  0  0
  183.0340  178.8730  142.3050 C   0  0  0  0  0  3  0  0  0  0  0  0
  186.2660  178.5560  145.8320 N   0  0  0  0  0  2  0  0  0  0  0  0
  186.0580  177.0850  144.0360 O   0  0  0  0  0  0  0  0  0  0  0  0
  184.9880  179.1590  143.8100 N   0  0  0  0  0  2  0  0  0  0  0  0
  185.7790  178.2090  144.5340 C   0  0  0  0  0  0  0  0  0  0  0  0
  188.2960  177.1920  145.8450 C   0  0  0  0  0  2  0  0  0  0  0  0
  189.8980  177.9070  147.6600 C   0  0  0  0  0  2  0  0  0  0  0  0
  187.0660  177.6500  146.6430 C   0  0  0  0  0  3  0  0  0  0  0  0
  187.4220  178.3180  147.9790 C   0  0  0  0  0  2  0  0  0  0  0  0
  188.6840  177.7080  148.5800 C   0  0  0  0  0  2  0  0  0  0  0  0
  189.5290  178.0280  146.1770 C   0  0  0  0  0  2  0  0  0  0  0  0
  1 28  1  1  0  0  0
  2  4  2  0  0  0  0
  3  6  1  0  0  0  0
  3  2  1  0  0  0  0
  4  1  1  0  0  0  0
  5  7  1  6  0  0  0
  5  1  1  0  0  0  0
  6  5  1  0  0  0  0
  7  9  1  0  0  0  0
  7 11  1  0  0  0  0
  9 10  2  0  0  0  0
 11 13  1  0  0  0  0
 11  8  2  0  0  0  0
 13 12  1  0  0  0  0
 14  9  1  0  0  0  0
 14 15  1  0  0  0  0
 16 17  1  0  0  0  0
 16 15  1  0  0  0  0
 17 18  1  0  0  0  0
 18 19  1  0  0  0  0
 19 21  1  0  0  0  0
 21 20  1  1  0  0  0
 21 22  1  0  0  0  0
 22 23  1  0  0  0  0
 23 24  1  1  0  0  0
 23 25  1  0  0  0  0
 25 26  1  0  0  0  0
 28 29  1  0  0  0  0
 28 27  1  6  0  0  0
 29 33  1  0  0  0  0
 30 32  1  0  0  0  0
 31 35  1  0  0  0  0
 32 38  1  0  0  0  0
 33 30  2  0  0  0  0
 34 33  1  0  0  0  0
 34 31  2  0  0  0  0
 35 32  2  0  0  0  0
 36 42  1  0  0  0  0
 37 39  2  0  0  0  0
 38 39  1  0  0  0  0
 39 36  1  0  0  0  0
 40 45  1  0  0  0  0
 40 42  1  0  0  0  0
 41 44  1  0  0  0  0
 42 43  1  0  0  0  0
 43 44  1  0  0  0  0
 45 41  1  0  0  0  0
M  END
>  <MODEL>
1

>  <REMARK>
 VINA RESULT:      -6.7      0.000      0.000
  Name = 
  17 active torsions:
  status: ('A' for Active; 'I' for Inactive)
    1  A    between atoms: N_1  and  C_10
    2  A    between atoms: N_2  and  C_29
    3  A    between atoms: C_3  and  C_26
    4  A    between atoms: C_5  and  C_11
    5  A    between atoms: C_5  and  O_21
    6  A    between atoms: C_8  and  C_9
    7  A    between atoms: C_8  and  C_13
    8  A    between atoms: C_9  and  C_42
    9  A    between atoms: C_11  and  C_34
   10  A    between atoms: C_19  and  O_21
   11  A    between atoms: C_19  and  O_33
   12  A    between atoms: C_26  and  N_30
   13  A    between atoms: N_30  and  C_37
   14  A    between atoms: N_32  and  C_35
   15  A    between atoms: O_33  and  C_45
   16  A    between atoms: C_39  and  C_44
   17  A    between atoms: C_42  and  C_45
                            x       y       z     vdW  Elec       q    Type
                         _______ _______ _______ _____ _____    ______ ____

>  <TORSDO>
F 17

$$$$
=
 OpenBabel10222416463D

 45 47  0  0  1  0  0  0  0  0999 V2000
  188.0990  177.4330  146.0130 C   0  0  2  0  0  3  0  0  0  0  0  0
  187.8260  178.1100  148.3700 C   0  0  0  0  0  3  0  0  0  0  0  0
  189.3030  177.9170  148.5300 C   0  0  0  0  0  2  0  0  0  0  0  0
  187.2600  177.8880  147.1800 C   0  0  0  0  0  3  0  0  0  0  0  0
  189.4560  178.1850  145.9830 C   0  0  1  0  0  3  0  0  0  0  0  0
  190.0390  178.5690  147.3600 C   0  0  0  0  0  2  0  0  0  0  0  0
  190.4620  177.5070  145.1540 N   0  0  0  0  0  0  0  0  0  0  0  0
  191.9950  175.7250  145.0490 O   0  0  0  0  0  0  0  0  0  0  0  0
  190.6890  177.9040  143.7800 C   0  0  0  0  0  0  0  0  0  0  0  0
  191.7620  177.5970  143.1960 O   0  0  0  0  0  0  0  0  0  0  0  0
  191.2030  176.4170  145.7440 C   0  0  0  0  0  0  0  0  0  0  0  0
  192.3660  175.7260  147.8050 C   0  0  0  0  0  1  0  0  0  0  0  0
  191.0230  176.0560  147.1850 C   0  0  0  0  0  2  0  0  0  0  0  0
  189.6700  178.6980  143.0240 C   0  0  0  0  0  2  0  0  0  0  0  0
  189.2590  177.9840  141.7470 C   0  0  0  0  0  2  0  0  0  0  0  0
  188.2080  178.6660  141.1320 O   0  0  0  0  0  0  0  0  0  0  0  0
  187.8630  177.8780  140.0340 C   0  0  0  0  0  2  0  0  0  0  0  0
  187.2700  178.6760  139.0550 O   0  0  0  0  0  0  0  0  0  0  0  0
  187.1810  177.8530  137.9310 C   0  0  0  0  0  2  0  0  0  0  0  0
  187.0730  178.1390  135.4680 C   0  0  0  0  0  1  0  0  0  0  0  0
  187.8090  178.5410  136.7320 C   0  0  2  0  0  3  0  0  0  0  0  0
  189.2660  178.1210  136.6140 C   0  0  0  0  0  2  0  0  0  0  0  0
  189.5010  176.6620  137.0060 C   0  0  1  0  0  3  0  0  0  0  0  0
  189.6340  175.8480  135.8760 O   0  0  0  0  0  1  0  0  0  0  0  0
  190.6690  176.4720  137.9720 C   0  0  0  0  0  2  0  0  0  0  0  0
  190.9060  175.0620  138.2350 N   0  0  0  0  0  1  0  0  0  0  0  0
  186.7120  176.4070  144.3340 O   0  0  0  0  0  1  0  0  0  0  0  0
  187.3170  177.6090  144.7080 C   0  0  1  0  0  3  0  0  0  0  0  0
  186.2860  178.6260  144.8800 N   0  0  0  0  0  2  0  0  0  0  0  0
  185.1380  178.5940  142.6940 C   0  0  0  0  0  3  0  0  0  0  0  0
  182.7200  178.9050  143.9830 N   0  0  0  0  0  0  0  0  0  0  0  0
  183.9590  178.6590  141.9480 C   0  0  0  0  0  0  0  0  0  0  0  0
  185.0970  178.6870  144.0900 C   0  0  0  0  0  0  0  0  0  0  0  0
  183.8610  178.8450  144.7200 C   0  0  0  0  0  3  0  0  0  0  0  0
  182.7440  178.8160  142.6270 C   0  0  0  0  0  3  0  0  0  0  0  0
  183.6360  177.5910  138.2870 N   0  0  0  0  0  2  0  0  0  0  0  0
  182.7960  176.5920  140.2170 O   0  0  0  0  0  0  0  0  0  0  0  0
  184.0320  178.5610  140.5200 N   0  0  0  0  0  2  0  0  0  0  0  0
  183.4590  177.5320  139.7030 C   0  0  0  0  0  0  0  0  0  0  0  0
  182.5710  177.2620  136.1100 C   0  0  0  0  0  2  0  0  0  0  0  0
  183.9550  175.7900  134.5970 C   0  0  0  0  0  2  0  0  0  0  0  0
  183.1000  176.5840  137.3820 C   0  0  0  0  0  3  0  0  0  0  0  0
  184.1630  175.5100  137.1030 C   0  0  0  0  0  2  0  0  0  0  0  0
  183.8980  174.8070  135.7760 C   0  0  0  0  0  2  0  0  0  0  0  0
  183.5990  177.2310  134.9830 C   0  0  0  0  0  2  0  0  0  0  0  0
  1 28  1  6  0  0  0
  1  4  1  0  0  0  0
  2  3  1  0  0  0  0
  4  2  2  0  0  0  0
  5  7  1  1  0  0  0
  5  1  1  0  0  0  0
  5  6  1  0  0  0  0
  6  3  1  0  0  0  0
  7 11  1  0  0  0  0
  8 11  2  0  0  0  0
  9  7  1  0  0  0  0
 10  9  2  0  0  0  0
 11 13  1  0  0  0  0
 13 12  1  0  0  0  0
 14  9  1  0  0  0  0
 15 14  1  0  0  0  0
 16 15  1  0  0  0  0
 17 16  1  0  0  0  0
 18 17  1  0  0  0  0
 19 18  1  0  0  0  0
 21 20  1  6  0  0  0
 21 19  1  0  0  0  0
 22 21  1  0  0  0  0
 22 23  1  0  0  0  0
 23 24  1  6  0  0  0
 23 25  1  0  0  0  0
 25 26  1  0  0  0  0
 28 27  1  1  0  0  0
 28 29  1  0  0  0  0
 30 33  1  0  0  0  0
 31 34  1  0  0  0  0
 32 35  1  0  0  0  0
 32 30  2  0  0  0  0
 33 34  2  0  0  0  0
 33 29  1  0  0  0  0
 35 31  2  0  0  0  0
 36 39  1  0  0  0  0
 38 32  1  0  0  0  0
 39 37  2  0  0  0  0
 39 38  1  0  0  0  0
 40 42  1  0  0  0  0
 41 45  1  0  0  0  0
 41 44  1  0  0  0  0
 42 36  1  0  0  0  0
 43 42  1  0  0  0  0
 44 43  1  0  0  0  0
 45 40  1  0  0  0  0
M  END
>  <MODEL>
2

>  <REMARK>
 VINA RESULT:      -6.4      1.950      8.604
  Name = 
  17 active torsions:
  status: ('A' for Active; 'I' for Inactive)
    1  A    between atoms: N_1  and  C_10
    2  A    between atoms: N_2  and  C_29
    3  A    between atoms: C_3  and  C_26
    4  A    between atoms: C_5  and  C_11
    5  A    between atoms: C_5  and  O_21
    6  A    between atoms: C_8  and  C_9
    7  A    between atoms: C_8  and  C_13
    8  A    between atoms: C_9  and  C_42
    9  A    between atoms: C_11  and  C_34
   10  A    between atoms: C_19  and  O_21
   11  A    between atoms: C_19  and  O_33
   12  A    between atoms: C_26  and  N_30
   13  A    between atoms: N_30  and  C_37
   14  A    between atoms: N_32  and  C_35
   15  A    between atoms: O_33  and  C_45
   16  A    between atoms: C_39  and  C_44
   17  A    between atoms: C_42  and  C_45
                            x       y       z     vdW  Elec       q    Type
                         _______ _______ _______ _____ _____    ______ ____

>  <TORSDO>
F 17

$$$$
=
 OpenBabel10222416463D

 45 47  0  0  1  0  0  0  0  0999 V2000
  184.7610  177.8480  138.3930 C   0  0  2  0  0  3  0  0  0  0  0  0
  186.3170  177.7010  136.4830 C   0  0  0  0  0  3  0  0  0  0  0  0
  185.2800  176.8750  135.7860 C   0  0  0  0  0  2  0  0  0  0  0  0
  186.0670  178.1660  137.7110 C   0  0  0  0  0  3  0  0  0  0  0  0
  183.5800  177.9330  137.3900 C   0  0  1  0  0  3  0  0  0  0  0  0
  183.9080  177.5310  135.9350 C   0  0  0  0  0  2  0  0  0  0  0  0
  182.3770  177.2390  137.8700 N   0  0  0  0  0  0  0  0  0  0  0  0
  180.0390  177.3650  138.1050 O   0  0  0  0  0  0  0  0  0  0  0  0
  182.4460  175.8790  138.3610 C   0  0  0  0  0  0  0  0  0  0  0  0
  181.5310  175.4180  139.0950 O   0  0  0  0  0  0  0  0  0  0  0  0
  181.1190  177.9470  137.8150 C   0  0  0  0  0  0  0  0  0  0  0  0
  180.5210  179.4630  135.9660 C   0  0  0  0  0  1  0  0  0  0  0  0
  181.0600  179.3770  137.3800 C   0  0  0  0  0  2  0  0  0  0  0  0
  183.6030  174.9910  138.0280 C   0  0  0  0  0  2  0  0  0  0  0  0
  183.2240  173.9750  136.9620 C   0  0  0  0  0  2  0  0  0  0  0  0
  184.3480  173.2460  136.5710 O   0  0  0  0  0  0  0  0  0  0  0  0
  185.0430  172.9980  137.7550 C   0  0  0  0  0  2  0  0  0  0  0  0
  186.4010  172.8420  137.4750 O   0  0  0  0  0  0  0  0  0  0  0  0
  186.6940  173.8500  136.5560 C   0  0  0  0  0  2  0  0  0  0  0  0
  188.8770  172.7470  136.9760 C   0  0  0  0  0  1  0  0  0  0  0  0
  188.1960  173.9540  136.3590 C   0  0  2  0  0  3  0  0  0  0  0  0
  188.7090  175.2150  137.0360 C   0  0  0  0  0  2  0  0  0  0  0  0
  189.9290  175.8160  136.3360 C   0  0  1  0  0  3  0  0  0  0  0  0
  189.6350  177.0690  135.7890 O   0  0  0  0  0  1  0  0  0  0  0  0
  191.1720  175.8700  137.2230 C   0  0  0  0  0  2  0  0  0  0  0  0
  190.8780  175.3980  138.5660 N   0  0  0  0  0  1  0  0  0  0  0  0
  184.1730  180.0500  139.1700 O   0  0  0  0  0  1  0  0  0  0  0  0
  184.5600  178.7770  139.5940 C   0  0  1  0  0  3  0  0  0  0  0  0
  183.5300  178.2350  140.4730 N   0  0  0  0  0  2  0  0  0  0  0  0
  184.5490  178.5630  142.6990 C   0  0  0  0  0  3  0  0  0  0  0  0
  182.0640  179.1840  143.7220 N   0  0  0  0  0  0  0  0  0  0  0  0
  184.4170  178.8810  144.0530 C   0  0  0  0  0  0  0  0  0  0  0  0
  183.4270  178.5590  141.8620 C   0  0  0  0  0  0  0  0  0  0  0  0
  182.1800  178.8750  142.4030 C   0  0  0  0  0  3  0  0  0  0  0  0
  183.1440  179.1940  144.5470 C   0  0  0  0  0  3  0  0  0  0  0  0
  187.6630  178.0020  145.8810 N   0  0  0  0  0  2  0  0  0  0  0  0
  186.4620  176.7870  144.2960 O   0  0  0  0  0  0  0  0  0  0  0  0
  185.5830  178.8790  144.8860 N   0  0  0  0  0  2  0  0  0  0  0  0
  186.5600  177.8350  144.9890 C   0  0  0  0  0  0  0  0  0  0  0  0
  189.4790  176.8190  144.7490 C   0  0  0  0  0  2  0  0  0  0  0  0
  191.7020  177.2010  145.8830 C   0  0  0  0  0  2  0  0  0  0  0  0
  188.6950  176.9900  146.0570 C   0  0  0  0  0  3  0  0  0  0  0  0
  189.5840  177.3510  147.2570 C   0  0  0  0  0  2  0  0  0  0  0  0
  190.9610  176.7080  147.1340 C   0  0  0  0  0  2  0  0  0  0  0  0
  190.7660  177.6390  144.7490 C   0  0  0  0  0  2  0  0  0  0  0  0
  1 28  1  1  0  0  0
  2  4  2  0  0  0  0
  3  6  1  0  0  0  0
  3  2  1  0  0  0  0
  4  1  1  0  0  0  0
  5  7  1  1  0  0  0
  5  1  1  0  0  0  0
  6  5  1  0  0  0  0
  7  9  1  0  0  0  0
  9 10  2  0  0  0  0
 11  7  1  0  0  0  0
 11  8  2  0  0  0  0
 12 13  1  0  0  0  0
 13 11  1  0  0  0  0
 14  9  1  0  0  0  0
 15 14  1  0  0  0  0
 16 15  1  0  0  0  0
 16 17  1  0  0  0  0
 18 17  1  0  0  0  0
 19 18  1  0  0  0  0
 21 19  1  0  0  0  0
 21 20  1  1  0  0  0
 21 22  1  0  0  0  0
 23 24  1  1  0  0  0
 23 22  1  0  0  0  0
 23 25  1  0  0  0  0
 25 26  1  0  0  0  0
 28 27  1  6  0  0  0
 28 29  1  0  0  0  0
 29 33  1  0  0  0  0
 30 32  1  0  0  0  0
 31 35  1  0  0  0  0
 32 35  2  0  0  0  0
 32 38  1  0  0  0  0
 33 34  1  0  0  0  0
 33 30  2  0  0  0  0
 34 31  2  0  0  0  0
 36 42  1  0  0  0  0
 37 39  2  0  0  0  0
 38 39  1  0  0  0  0
 39 36  1  0  0  0  0
 40 45  1  0  0  0  0
 40 42  1  0  0  0  0
 41 44  1  0  0  0  0
 42 43  1  0  0  0  0
 44 43  1  0  0  0  0
 45 41  1  0  0  0  0
M  END
>  <MODEL>
3

>  <REMARK>
 VINA RESULT:      -6.3      2.168      3.930
  Name = 
  17 active torsions:
  status: ('A' for Active; 'I' for Inactive)
    1  A    between atoms: N_1  and  C_10
    2  A    between atoms: N_2  and  C_29
    3  A    between atoms: C_3  and  C_26
    4  A    between atoms: C_5  and  C_11
    5  A    between atoms: C_5  and  O_21
    6  A    between atoms: C_8  and  C_9
    7  A    between atoms: C_8  and  C_13
    8  A    between atoms: C_9  and  C_42
    9  A    between atoms: C_11  and  C_34
   10  A    between atoms: C_19  and  O_21
   11  A    between atoms: C_19  and  O_33
   12  A    between atoms: C_26  and  N_30
   13  A    between atoms: N_30  and  C_37
   14  A    between atoms: N_32  and  C_35
   15  A    between atoms: O_33  and  C_45
   16  A    between atoms: C_39  and  C_44
   17  A    between atoms: C_42  and  C_45
                            x       y       z     vdW  Elec       q    Type
                         _______ _______ _______ _____ _____    ______ ____

>  <TORSDO>
F 17

$$$$
=
 OpenBabel10222416463D

 45 47  0  0  1  0  0  0  0  0999 V2000
  182.0310  178.1380  138.8830 C   0  0  2  0  0  3  0  0  0  0  0  0
  181.1690  179.7140  137.1910 C   0  0  0  0  0  3  0  0  0  0  0  0
  180.1840  180.1780  138.2190 C   0  0  0  0  0  2  0  0  0  0  0  0
  182.0450  178.7560  137.5080 C   0  0  0  0  0  3  0  0  0  0  0  0
  181.7940  179.2180  139.9710 C   0  0  1  0  0  3  0  0  0  0  0  0
  180.8950  180.4020  139.5540 C   0  0  0  0  0  2  0  0  0  0  0  0
  181.3540  178.6480  141.2510 N   0  0  0  0  0  0  0  0  0  0  0  0
  179.7670  177.2690  142.3080 O   0  0  0  0  0  0  0  0  0  0  0  0
  182.1340  178.8320  142.4580 C   0  0  0  0  0  0  0  0  0  0  0  0
  181.6040  178.6750  143.5900 O   0  0  0  0  0  0  0  0  0  0  0  0
  180.1330  177.8770  141.2660 C   0  0  0  0  0  0  0  0  0  0  0  0
  179.0420  176.2880  139.7300 C   0  0  0  0  0  1  0  0  0  0  0  0
  179.2890  177.7510  140.0380 C   0  0  0  0  0  2  0  0  0  0  0  0
  183.5760  179.2250  142.3980 C   0  0  0  0  0  2  0  0  0  0  0  0
  184.3860  178.4980  143.4580 C   0  0  0  0  0  2  0  0  0  0  0  0
  184.8460  179.4030  144.4160 O   0  0  0  0  0  0  0  0  0  0  0  0
  185.1190  178.6250  145.5420 C   0  0  0  0  0  2  0  0  0  0  0  0
  186.4820  178.6880  145.8330 O   0  0  0  0  0  0  0  0  0  0  0  0
  186.8690  177.3600  146.0150 C   0  0  0  0  0  2  0  0  0  0  0  0
  188.8390  177.6540  147.4960 C   0  0  0  0  0  1  0  0  0  0  0  0
  188.3820  177.2670  146.1020 C   0  0  2  0  0  3  0  0  0  0  0  0
  189.0060  178.2170  145.0920 C   0  0  0  0  0  2  0  0  0  0  0  0
  190.3680  177.7410  144.5840 C   0  0  1  0  0  3  0  0  0  0  0  0
  190.3430  176.3800  144.2640 O   0  0  0  0  0  1  0  0  0  0  0  0
  190.9120  178.5790  143.4280 C   0  0  0  0  0  2  0  0  0  0  0  0
  191.5070  177.7340  142.4060 N   0  0  0  0  0  1  0  0  0  0  0  0
  183.1900  176.0340  138.7080 O   0  0  0  0  0  1  0  0  0  0  0  0
  183.3300  177.3610  139.1200 C   0  0  1  0  0  3  0  0  0  0  0  0
  184.4200  177.9780  138.3730 N   0  0  0  0  0  2  0  0  0  0  0  0
  186.8700  177.7720  138.1320 C   0  0  0  0  0  3  0  0  0  0  0  0
  187.1830  178.7780  140.6800 N   0  0  0  0  0  0  0  0  0  0  0  0
  188.1520  177.9260  138.6620 C   0  0  0  0  0  0  0  0  0  0  0  0
  185.7460  178.1260  138.8870 C   0  0  0  0  0  0  0  0  0  0  0  0
  185.9290  178.6310  140.1750 C   0  0  0  0  0  3  0  0  0  0  0  0
  188.2850  178.4400  139.9590 C   0  0  0  0  0  3  0  0  0  0  0  0
  191.3820  176.3870  137.3020 N   0  0  0  0  0  2  0  0  0  0  0  0
  190.2920  176.0290  139.3310 O   0  0  0  0  0  0  0  0  0  0  0  0
  189.2850  177.5570  137.8650 N   0  0  0  0  0  2  0  0  0  0  0  0
  190.3190  176.6320  138.2250 C   0  0  0  0  0  0  0  0  0  0  0  0
  192.1180  174.0640  137.0980 C   0  0  0  0  0  2  0  0  0  0  0  0
  194.2280  173.8620  135.7270 C   0  0  0  0  0  2  0  0  0  0  0  0
  192.4790  175.4730  137.5880 C   0  0  0  0  0  3  0  0  0  0  0  0
  193.7830  176.0130  136.9810 C   0  0  0  0  0  2  0  0  0  0  0  0
  194.7800  174.8860  136.7290 C   0  0  0  0  0  2  0  0  0  0  0  0
  192.6960  173.7800  135.7150 C   0  0  0  0  0  2  0  0  0  0  0  0
  1 28  1  1  0  0  0
  1  5  1  0  0  0  0
  2  4  2  0  0  0  0
  2  3  1  0  0  0  0
  3  6  1  0  0  0  0
  4  1  1  0  0  0  0
  5  7  1  1  0  0  0
  6  5  1  0  0  0  0
  7 11  1  0  0  0  0
  7  9  1  0  0  0  0
  9 10  2  0  0  0  0
 11  8  2  0  0  0  0
 12 13  1  0  0  0  0
 13 11  1  0  0  0  0
 14  9  1  0  0  0  0
 14 15  1  0  0  0  0
 15 16  1  0  0  0  0
 16 17  1  0  0  0  0
 17 18  1  0  0  0  0
 18 19  1  0  0  0  0
 19 21  1  0  0  0  0
 21 20  1  1  0  0  0
 22 21  1  0  0  0  0
 23 24  1  6  0  0  0
 23 22  1  0  0  0  0
 25 23  1  0  0  0  0
 26 25  1  0  0  0  0
 28 27  1  6  0  0  0
 29 33  1  0  0  0  0
 29 28  1  0  0  0  0
 30 32  2  0  0  0  0
 30 33  1  0  0  0  0
 32 35  1  0  0  0  0
 33 34  2  0  0  0  0
 34 31  1  0  0  0  0
 35 31  2  0  0  0  0
 36 42  1  0  0  0  0
 36 39  1  0  0  0  0
 38 39  1  0  0  0  0
 38 32  1  0  0  0  0
 39 37  2  0  0  0  0
 40 42  1  0  0  0  0
 41 44  1  0  0  0  0
 43 42  1  0  0  0  0
 44 43  1  0  0  0  0
 45 41  1  0  0  0  0
 45 40  1  0  0  0  0
M  END
>  <MODEL>
4

>  <REMARK>
 VINA RESULT:      -6.1      2.648      7.574
  Name = 
  17 active torsions:
  status: ('A' for Active; 'I' for Inactive)
    1  A    between atoms: N_1  and  C_10
    2  A    between atoms: N_2  and  C_29
    3  A    between atoms: C_3  and  C_26
    4  A    between atoms: C_5  and  C_11
    5  A    between atoms: C_5  and  O_21
    6  A    between atoms: C_8  and  C_9
    7  A    between atoms: C_8  and  C_13
    8  A    between atoms: C_9  and  C_42
    9  A    between atoms: C_11  and  C_34
   10  A    between atoms: C_19  and  O_21
   11  A    between atoms: C_19  and  O_33
   12  A    between atoms: C_26  and  N_30
   13  A    between atoms: N_30  and  C_37
   14  A    between atoms: N_32  and  C_35
   15  A    between atoms: O_33  and  C_45
   16  A    between atoms: C_39  and  C_44
   17  A    between atoms: C_42  and  C_45
                            x       y       z     vdW  Elec       q    Type
                         _______ _______ _______ _____ _____    ______ ____

>  <TORSDO>
F 17

$$$$
=
 OpenBabel10222416463D

 45 47  0  0  1  0  0  0  0  0999 V2000
  181.3860  178.1260  138.4080 C   0  0  2  0  0  3  0  0  0  0  0  0
  181.0890  179.9490  136.7710 C   0  0  0  0  0  3  0  0  0  0  0  0
  181.0750  180.8990  137.9290 C   0  0  0  0  0  2  0  0  0  0  0  0
  181.2430  178.6410  136.9980 C   0  0  0  0  0  3  0  0  0  0  0  0
  182.2900  179.0650  139.2490 C   0  0  1  0  0  3  0  0  0  0  0  0
  182.2180  180.5650  138.8880 C   0  0  0  0  0  2  0  0  0  0  0  0
  182.1280  178.8640  140.6950 N   0  0  0  0  0  0  0  0  0  0  0  0
  180.5810  178.5580  142.4420 O   0  0  0  0  0  0  0  0  0  0  0  0
  183.2770  178.6690  141.5560 C   0  0  0  0  0  0  0  0  0  0  0  0
  183.1840  178.8610  142.7970 O   0  0  0  0  0  0  0  0  0  0  0  0
  180.7870  178.8410  141.2310 C   0  0  0  0  0  0  0  0  0  0  0  0
  178.9310  180.4030  140.7900 C   0  0  0  0  0  1  0  0  0  0  0  0
  179.6050  179.1170  140.3560 C   0  0  0  0  0  2  0  0  0  0  0  0
  184.6010  178.2520  140.9980 C   0  0  0  0  0  2  0  0  0  0  0  0
  185.7270  179.0950  141.5770 C   0  0  0  0  0  2  0  0  0  0  0  0
  186.7250  178.2690  142.0980 O   0  0  0  0  0  0  0  0  0  0  0  0
  187.7810  178.3690  141.1920 C   0  0  0  0  0  2  0  0  0  0  0  0
  188.9540  178.6930  141.8750 O   0  0  0  0  0  0  0  0  0  0  0  0
  189.1020  177.6820  142.8270 C   0  0  0  0  0  2  0  0  0  0  0  0
  191.4780  178.3060  143.1820 C   0  0  0  0  0  1  0  0  0  0  0  0
  190.1380  178.0890  143.8600 C   0  0  2  0  0  3  0  0  0  0  0  0
  190.2770  176.9850  144.8970 C   0  0  0  0  0  2  0  0  0  0  0  0
  189.7890  177.4030  146.2840 C   0  0  1  0  0  3  0  0  0  0  0  0
  188.3990  177.2870  146.3890 O   0  0  0  0  0  1  0  0  0  0  0  0
  190.4990  176.6740  147.4230 C   0  0  0  0  0  2  0  0  0  0  0  0
  191.9410  176.6960  147.2400 N   0  0  0  0  0  1  0  0  0  0  0  0
  181.0290  175.8320  139.0430 O   0  0  0  0  0  1  0  0  0  0  0  0
  181.9150  176.6890  138.3870 C   0  0  1  0  0  3  0  0  0  0  0  0
  182.0780  176.2390  137.0100 N   0  0  0  0  0  2  0  0  0  0  0  0
  184.3490  175.2770  137.1310 C   0  0  0  0  0  3  0  0  0  0  0  0
  183.6250  173.3870  135.2580 N   0  0  0  0  0  0  0  0  0  0  0  0
  185.2810  174.3240  136.7120 C   0  0  0  0  0  0  0  0  0  0  0  0
  183.0530  175.2760  136.6030 C   0  0  0  0  0  0  0  0  0  0  0  0
  182.7090  174.3100  135.6560 C   0  0  0  0  0  3  0  0  0  0  0  0
  184.8880  173.3740  135.7610 C   0  0  0  0  0  3  0  0  0  0  0  0
  188.9150  175.1380  137.5980 N   0  0  0  0  0  2  0  0  0  0  0  0
  187.4700  176.1830  136.0980 O   0  0  0  0  0  0  0  0  0  0  0  0
  186.6010  174.3480  137.2710 N   0  0  0  0  0  2  0  0  0  0  0  0
  187.6510  175.2660  136.9420 C   0  0  0  0  0  0  0  0  0  0  0  0
  190.0070  177.2180  138.2760 C   0  0  0  0  0  2  0  0  0  0  0  0
  192.3760  176.8270  139.0530 C   0  0  0  0  0  2  0  0  0  0  0  0
  190.0400  176.0180  137.3190 C   0  0  0  0  0  3  0  0  0  0  0  0
  191.3540  175.2240  137.3850 C   0  0  0  0  0  2  0  0  0  0  0  0
  192.5350  176.1400  137.6890 C   0  0  0  0  0  2  0  0  0  0  0  0
  190.9150  177.0060  139.4840 C   0  0  0  0  0  2  0  0  0  0  0  0
  1 28  1  6  0  0  0
  1  5  1  0  0  0  0
  2  4  2  0  0  0  0
  2  3  1  0  0  0  0
  3  6  1  0  0  0  0
  4  1  1  0  0  0  0
  5  7  1  1  0  0  0
  6  5  1  0  0  0  0
  7 11  1  0  0  0  0
  7  9  1  0  0  0  0
  9 10  2  0  0  0  0
 11  8  2  0  0  0  0
 13 12  1  0  0  0  0
 13 11  1  0  0  0  0
 14  9  1  0  0  0  0
 14 15  1  0  0  0  0
 15 16  1  0  0  0  0
 17 18  1  0  0  0  0
 17 16  1  0  0  0  0
 18 19  1  0  0  0  0
 19 21  1  0  0  0  0
 21 20  1  6  0  0  0
 21 22  1  0  0  0  0
 22 23  1  0  0  0  0
 23 24  1  6  0  0  0
 23 25  1  0  0  0  0
 26 25  1  0  0  0  0
 28 27  1  1  0  0  0
 29 28  1  0  0  0  0
 31 34  2  0  0  0  0
 31 35  1  0  0  0  0
 32 30  1  0  0  0  0
 32 38  1  0  0  0  0
 33 29  1  0  0  0  0
 33 30  2  0  0  0  0
 34 33  1  0  0  0  0
 35 32  2  0  0  0  0
 37 39  2  0  0  0  0
 39 38  1  0  0  0  0
 39 36  1  0  0  0  0
 40 45  1  0  0  0  0
 41 45  1  0  0  0  0
 42 43  1  0  0  0  0
 42 36  1  0  0  0  0
 42 40  1  0  0  0  0
 43 44  1  0  0  0  0
 44 41  1  0  0  0  0
M  END
>  <MODEL>
5

>  <REMARK>
 VINA RESULT:      -6.0      2.527      6.904
  Name = 
  17 active torsions:
  status: ('A' for Active; 'I' for Inactive)
    1  A    between atoms: N_1  and  C_10
    2  A    between atoms: N_2  and  C_29
    3  A    between atoms: C_3  and  C_26
    4  A    between atoms: C_5  and  C_11
    5  A    between atoms: C_5  and  O_21
    6  A    between atoms: C_8  and  C_9
    7  A    between atoms: C_8  and  C_13
    8  A    between atoms: C_9  and  C_42
    9  A    between atoms: C_11  and  C_34
   10  A    between atoms: C_19  and  O_21
   11  A    between atoms: C_19  and  O_33
   12  A    between atoms: C_26  and  N_30
   13  A    between atoms: N_30  and  C_37
   14  A    between atoms: N_32  and  C_35
   15  A    between atoms: O_33  and  C_45
   16  A    between atoms: C_39  and  C_44
   17  A    between atoms: C_42  and  C_45
                            x       y       z     vdW  Elec       q    Type
                         _______ _______ _______ _____ _____    ______ ____

>  <TORSDO>
F 17

$$$$
=
 OpenBabel10222416463D

 45 47  0  0  1  0  0  0  0  0999 V2000
  182.8430  176.7100  137.1350 C   0  0  2  0  0  3  0  0  0  0  0  0
  182.2570  177.8600  135.0320 C   0  0  0  0  0  3  0  0  0  0  0  0
  181.0770  178.4380  135.7520 C   0  0  0  0  0  2  0  0  0  0  0  0
  183.0940  177.0510  135.6880 C   0  0  0  0  0  3  0  0  0  0  0  0
  182.3630  177.9600  137.9200 C   0  0  1  0  0  3  0  0  0  0  0  0
  181.5130  178.9690  137.1170 C   0  0  0  0  0  2  0  0  0  0  0  0
  181.7100  177.6150  139.1910 N   0  0  0  0  0  0  0  0  0  0  0  0
  180.1890  176.1660  140.2510 O   0  0  0  0  0  0  0  0  0  0  0  0
  182.0860  178.2730  140.4250 C   0  0  0  0  0  0  0  0  0  0  0  0
  181.3100  178.2590  141.4180 O   0  0  0  0  0  0  0  0  0  0  0  0
  180.7000  176.5840  139.1760 C   0  0  0  0  0  0  0  0  0  0  0  0
  180.1620  174.4550  138.0560 C   0  0  0  0  0  1  0  0  0  0  0  0
  180.2580  175.9580  137.8910 C   0  0  0  0  0  2  0  0  0  0  0  0
  183.3890  178.9970  140.5530 C   0  0  0  0  0  2  0  0  0  0  0  0
  184.3350  178.2590  141.4870 C   0  0  0  0  0  2  0  0  0  0  0  0
  184.9400  179.1580  142.3670 O   0  0  0  0  0  0  0  0  0  0  0  0
  184.9420  178.5050  143.6000 C   0  0  0  0  0  2  0  0  0  0  0  0
  186.1110  177.7540  143.7270 O   0  0  0  0  0  0  0  0  0  0  0  0
  186.6550  178.1470  144.9510 C   0  0  0  0  0  2  0  0  0  0  0  0
  188.3030  177.5460  146.7070 C   0  0  0  0  0  1  0  0  0  0  0  0
  187.8790  177.3050  145.2700 C   0  0  2  0  0  3  0  0  0  0  0  0
  189.0180  177.6970  144.3420 C   0  0  0  0  0  2  0  0  0  0  0  0
  190.1270  176.6460  144.2790 C   0  0  1  0  0  3  0  0  0  0  0  0
  190.2030  176.0650  143.0090 O   0  0  0  0  0  1  0  0  0  0  0  0
  191.4860  177.1690  144.7380 C   0  0  0  0  0  2  0  0  0  0  0  0
  191.6650  176.9750  146.1680 N   0  0  0  0  0  1  0  0  0  0  0  0
  183.9240  174.7280  137.9710 O   0  0  0  0  0  1  0  0  0  0  0  0
  184.1030  176.0950  137.7520 C   0  0  1  0  0  3  0  0  0  0  0  0
  185.2390  176.2890  136.8590 N   0  0  0  0  0  2  0  0  0  0  0  0
  187.6900  176.5600  136.7290 C   0  0  0  0  0  3  0  0  0  0  0  0
  187.5370  178.6200  138.5550 N   0  0  0  0  0  0  0  0  0  0  0  0
  188.8550  177.2160  137.1320 C   0  0  0  0  0  0  0  0  0  0  0  0
  186.4490  176.9430  137.2490 C   0  0  0  0  0  0  0  0  0  0  0  0
  186.3960  177.9880  138.1730 C   0  0  0  0  0  3  0  0  0  0  0  0
  188.7510  178.2610  138.0590 C   0  0  0  0  0  3  0  0  0  0  0  0
  192.2010  175.5000  136.4140 N   0  0  0  0  0  2  0  0  0  0  0  0
  190.6540  175.1120  138.1130 O   0  0  0  0  0  0  0  0  0  0  0  0
  190.1130  176.8030  136.5820 N   0  0  0  0  0  2  0  0  0  0  0  0
  190.9730  175.7760  137.0910 C   0  0  0  0  0  0  0  0  0  0  0  0
  193.8950  173.9050  135.6610 C   0  0  0  0  0  2  0  0  0  0  0  0
  196.1520  174.3740  136.6890 C   0  0  0  0  0  2  0  0  0  0  0  0
  193.1400  174.4830  136.8660 C   0  0  0  0  0  3  0  0  0  0  0  0
  194.0670  175.0680  137.9420 C   0  0  0  0  0  2  0  0  0  0  0  0
  195.3800  174.2960  138.0140 C   0  0  0  0  0  2  0  0  0  0  0  0
  195.2500  174.5790  135.4650 C   0  0  0  0  0  2  0  0  0  0  0  0
  1 28  1  1  0  0  0
  1  5  1  0  0  0  0
  2  4  2  0  0  0  0
  2  3  1  0  0  0  0
  3  6  1  0  0  0  0
  4  1  1  0  0  0  0
  5  7  1  1  0  0  0
  6  5  1  0  0  0  0
  7  9  1  0  0  0  0
  9 14  1  0  0  0  0
  9 10  2  0  0  0  0
 11  7  1  0  0  0  0
 11  8  2  0  0  0  0
 13 12  1  0  0  0  0
 13 11  1  0  0  0  0
 14 15  1  0  0  0  0
 15 16  1  0  0  0  0
 16 17  1  0  0  0  0
 17 18  1  0  0  0  0
 18 19  1  0  0  0  0
 19 21  1  0  0  0  0
 21 20  1  1  0  0  0
 22 21  1  0  0  0  0
 23 24  1  6  0  0  0
 23 22  1  0  0  0  0
 23 25  1  0  0  0  0
 25 26  1  0  0  0  0
 28 27  1  6  0  0  0
 29 33  1  0  0  0  0
 29 28  1  0  0  0  0
 30 32  2  0  0  0  0
 30 33  1  0  0  0  0
 32 35  1  0  0  0  0
 33 34  2  0  0  0  0
 34 31  1  0  0  0  0
 35 31  2  0  0  0  0
 36 42  1  0  0  0  0
 36 39  1  0  0  0  0
 38 39  1  0  0  0  0
 38 32  1  0  0  0  0
 39 37  2  0  0  0  0
 40 42  1  0  0  0  0
 41 44  1  0  0  0  0
 42 43  1  0  0  0  0
 43 44  1  0  0  0  0
 45 40  1  0  0  0  0
 45 41  1  0  0  0  0
M  END
>  <MODEL>
6

>  <REMARK>
 VINA RESULT:      -6.0      2.668      7.355
  Name = 
  17 active torsions:
  status: ('A' for Active; 'I' for Inactive)
    1  A    between atoms: N_1  and  C_10
    2  A    between atoms: N_2  and  C_29
    3  A    between atoms: C_3  and  C_26
    4  A    between atoms: C_5  and  C_11
    5  A    between atoms: C_5  and  O_21
    6  A    between atoms: C_8  and  C_9
    7  A    between atoms: C_8  and  C_13
    8  A    between atoms: C_9  and  C_42
    9  A    between atoms: C_11  and  C_34
   10  A    between atoms: C_19  and  O_21
   11  A    between atoms: C_19  and  O_33
   12  A    between atoms: C_26  and  N_30
   13  A    between atoms: N_30  and  C_37
   14  A    between atoms: N_32  and  C_35
   15  A    between atoms: O_33  and  C_45
   16  A    between atoms: C_39  and  C_44
   17  A    between atoms: C_42  and  C_45
                            x       y       z     vdW  Elec       q    Type
                         _______ _______ _______ _____ _____    ______ ____

>  <TORSDO>
F 17

$$$$
=
 OpenBabel10222416463D

 45 47  0  0  1  0  0  0  0  0999 V2000
  189.6220  176.5350  136.7640 C   0  0  2  0  0  3  0  0  0  0  0  0
  188.8260  174.4150  135.7830 C   0  0  0  0  0  3  0  0  0  0  0  0
  190.1820  173.8480  136.0700 C   0  0  0  0  0  2  0  0  0  0  0  0
  188.5610  175.6820  136.1180 C   0  0  0  0  0  3  0  0  0  0  0  0
  190.4250  175.7170  137.8100 C   0  0  1  0  0  3  0  0  0  0  0  0
  190.6080  174.2180  137.4910 C   0  0  0  0  0  2  0  0  0  0  0  0
  191.7090  176.3430  138.1550 N   0  0  0  0  0  0  0  0  0  0  0  0
  193.8100  177.0190  137.3380 O   0  0  0  0  0  0  0  0  0  0  0  0
  191.9340  176.9120  139.4680 C   0  0  0  0  0  0  0  0  0  0  0  0
  193.1060  177.1090  139.8860 O   0  0  0  0  0  0  0  0  0  0  0  0
  192.7330  176.3950  137.1380 C   0  0  0  0  0  0  0  0  0  0  0  0
  193.7330  174.8890  135.4620 C   0  0  0  0  0  1  0  0  0  0  0  0
  192.5290  175.7410  135.8080 C   0  0  0  0  0  2  0  0  0  0  0  0
  190.7910  177.2660  140.3660 C   0  0  0  0  0  2  0  0  0  0  0  0
  191.0940  176.8970  141.8090 C   0  0  0  0  0  2  0  0  0  0  0  0
  190.3030  177.6540  142.6750 O   0  0  0  0  0  0  0  0  0  0  0  0
  189.3110  176.7760  143.1130 C   0  0  0  0  0  2  0  0  0  0  0  0
  188.3100  177.4930  143.7690 O   0  0  0  0  0  0  0  0  0  0  0  0
  188.8250  177.7400  145.0420 C   0  0  0  0  0  2  0  0  0  0  0  0
  188.0050  177.3200  147.3470 C   0  0  0  0  0  1  0  0  0  0  0  0
  187.6920  177.9890  146.0220 C   0  0  2  0  0  3  0  0  0  0  0  0
  186.4030  177.4080  145.4630 C   0  0  0  0  0  2  0  0  0  0  0  0
  185.2010  178.3370  145.6400 C   0  0  1  0  0  3  0  0  0  0  0  0
  185.5910  179.5800  146.1490 O   0  0  0  0  0  1  0  0  0  0  0  0
  184.3590  178.4890  144.3750 C   0  0  0  0  0  2  0  0  0  0  0  0
  184.0240  179.8830  144.1350 N   0  0  0  0  0  1  0  0  0  0  0  0
  189.3050  178.9180  136.6310 O   0  0  0  0  0  1  0  0  0  0  0  0
  188.9840  177.7840  137.3810 C   0  0  1  0  0  3  0  0  0  0  0  0
  187.5340  177.6340  137.4180 N   0  0  0  0  0  2  0  0  0  0  0  0
  185.3460  178.3010  138.3500 C   0  0  0  0  0  3  0  0  0  0  0  0
  186.5490  178.7620  140.7880 N   0  0  0  0  0  0  0  0  0  0  0  0
  184.5780  178.7480  139.4270 C   0  0  0  0  0  0  0  0  0  0  0  0
  186.7210  178.0880  138.5030 C   0  0  0  0  0  0  0  0  0  0  0  0
  187.3080  178.3290  139.7470 C   0  0  0  0  0  3  0  0  0  0  0  0
  185.2130  178.9730  140.6560 C   0  0  0  0  0  3  0  0  0  0  0  0
  180.7710  178.3940  139.2570 N   0  0  0  0  0  2  0  0  0  0  0  0
  182.3850  176.8710  139.9660 O   0  0  0  0  0  0  0  0  0  0  0  0
  183.1720  178.9570  139.2420 N   0  0  0  0  0  2  0  0  0  0  0  0
  182.1250  178.0150  139.5070 C   0  0  0  0  0  0  0  0  0  0  0  0
  179.4390  176.6040  138.2560 C   0  0  0  0  0  2  0  0  0  0  0  0
  179.5310  174.4850  139.6250 C   0  0  0  0  0  2  0  0  0  0  0  0
  179.6460  177.4990  139.4860 C   0  0  0  0  0  3  0  0  0  0  0  0
  179.8620  176.7080  140.7850 C   0  0  0  0  0  2  0  0  0  0  0  0
  179.0760  175.4010  140.7700 C   0  0  0  0  0  2  0  0  0  0  0  0
  180.1120  175.2440  138.4260 C   0  0  0  0  0  2  0  0  0  0  0  0
  1 28  1  1  0  0  0
  1  5  1  0  0  0  0
  2  3  1  0  0  0  0
  2  4  2  0  0  0  0
  3  6  1  0  0  0  0
  4  1  1  0  0  0  0
  5  7  1  6  0  0  0
  6  5  1  0  0  0  0
  7  9  1  0  0  0  0
  9 10  2  0  0  0  0
  9 14  1  0  0  0  0
 11  8  2  0  0  0  0
 11  7  1  0  0  0  0
 12 13  1  0  0  0  0
 13 11  1  0  0  0  0
 14 15  1  0  0  0  0
 15 16  1  0  0  0  0
 16 17  1  0  0  0  0
 17 18  1  0  0  0  0
 18 19  1  0  0  0  0
 19 21  1  0  0  0  0
 21 20  1  1  0  0  0
 22 23  1  0  0  0  0
 22 21  1  0  0  0  0
 23 24  1  6  0  0  0
 25 23  1  0  0  0  0
 26 25  1  0  0  0  0
 28 27  1  6  0  0  0
 28 29  1  0  0  0  0
 29 33  1  0  0  0  0
 30 33  2  0  0  0  0
 30 32  1  0  0  0  0
 32 35  2  0  0  0  0
 33 34  1  0  0  0  0
 34 31  2  0  0  0  0
 35 31  1  0  0  0  0
 36 42  1  0  0  0  0
 36 39  1  0  0  0  0
 38 32  1  0  0  0  0
 38 39  1  0  0  0  0
 39 37  2  0  0  0  0
 40 45  1  0  0  0  0
 40 42  1  0  0  0  0
 41 44  1  0  0  0  0
 42 43  1  0  0  0  0
 44 43  1  0  0  0  0
 45 41  1  0  0  0  0
M  END
>  <MODEL>
7

>  <REMARK>
 VINA RESULT:      -5.9      2.413      7.298
  Name = 
  17 active torsions:
  status: ('A' for Active; 'I' for Inactive)
    1  A    between atoms: N_1  and  C_10
    2  A    between atoms: N_2  and  C_29
    3  A    between atoms: C_3  and  C_26
    4  A    between atoms: C_5  and  C_11
    5  A    between atoms: C_5  and  O_21
    6  A    between atoms: C_8  and  C_9
    7  A    between atoms: C_8  and  C_13
    8  A    between atoms: C_9  and  C_42
    9  A    between atoms: C_11  and  C_34
   10  A    between atoms: C_19  and  O_21
   11  A    between atoms: C_19  and  O_33
   12  A    between atoms: C_26  and  N_30
   13  A    between atoms: N_30  and  C_37
   14  A    between atoms: N_32  and  C_35
   15  A    between atoms: O_33  and  C_45
   16  A    between atoms: C_39  and  C_44
   17  A    between atoms: C_42  and  C_45
                            x       y       z     vdW  Elec       q    Type
                         _______ _______ _______ _____ _____    ______ ____

>  <TORSDO>
F 17

$$$$
=
 OpenBabel10222416463D

 45 47  0  0  1  0  0  0  0  0999 V2000
  183.7640  177.8210  138.5980 C   0  0  2  0  0  3  0  0  0  0  0  0
  184.9130  176.7970  136.6690 C   0  0  0  0  0  3  0  0  0  0  0  0
  183.5590  176.4730  136.1170 C   0  0  0  0  0  2  0  0  0  0  0  0
  185.0080  177.4390  137.8370 C   0  0  0  0  0  3  0  0  0  0  0  0
  182.6650  178.3400  137.6330 C   0  0  1  0  0  3  0  0  0  0  0  0
  182.6480  177.6960  136.2300 C   0  0  0  0  0  2  0  0  0  0  0  0
  181.3260  178.3230  138.2370 N   0  0  0  0  0  0  0  0  0  0  0  0
  179.2830  179.4730  138.4390 O   0  0  0  0  0  0  0  0  0  0  0  0
  180.8580  177.1740  138.9850 C   0  0  0  0  0  0  0  0  0  0  0  0
  179.8980  177.2850  139.7920 O   0  0  0  0  0  0  0  0  0  0  0  0
  180.4800  179.4770  138.0440 C   0  0  0  0  0  0  0  0  0  0  0  0
  181.5170  181.6930  138.3460 C   0  0  0  0  0  1  0  0  0  0  0  0
  180.9890  180.6930  137.3370 C   0  0  0  0  0  2  0  0  0  0  0  0
  181.5060  175.8340  138.8330 C   0  0  0  0  0  2  0  0  0  0  0  0
  180.4970  174.7840  138.3970 C   0  0  0  0  0  2  0  0  0  0  0  0
  180.7430  174.3990  137.0780 O   0  0  0  0  0  0  0  0  0  0  0  0
  181.3370  173.1400  137.1780 C   0  0  0  0  0  2  0  0  0  0  0  0
  182.5730  173.1550  136.5320 O   0  0  0  0  0  0  0  0  0  0  0  0
  182.5250  172.0790  135.6450 C   0  0  0  0  0  2  0  0  0  0  0  0
  184.0250  170.1040  135.7330 C   0  0  0  0  0  1  0  0  0  0  0  0
  183.9290  171.5720  135.3650 C   0  0  2  0  0  3  0  0  0  0  0  0
  184.9260  172.3610  136.2000 C   0  0  0  0  0  2  0  0  0  0  0  0
  186.2750  172.5460  135.5030 C   0  0  1  0  0  3  0  0  0  0  0  0
  186.6440  173.8940  135.4610 O   0  0  0  0  0  1  0  0  0  0  0  0
  187.3870  171.6800  136.0930 C   0  0  0  0  0  2  0  0  0  0  0  0
  188.0480  172.3580  137.1960 N   0  0  0  0  0  1  0  0  0  0  0  0
  184.5380  180.0450  139.1000 O   0  0  0  0  0  1  0  0  0  0  0  0
  184.1090  178.8490  139.6800 C   0  0  1  0  0  3  0  0  0  0  0  0
  182.9350  179.1150  140.5030 N   0  0  0  0  0  2  0  0  0  0  0  0
  184.1160  178.8900  142.6610 C   0  0  0  0  0  3  0  0  0  0  0  0
  181.6860  178.8910  143.9660 N   0  0  0  0  0  0  0  0  0  0  0  0
  184.0770  178.7790  144.0530 C   0  0  0  0  0  0  0  0  0  0  0  0
  182.9280  179.0020  141.9290 C   0  0  0  0  0  0  0  0  0  0  0  0
  181.7100  178.9990  142.6110 C   0  0  0  0  0  3  0  0  0  0  0  0
  182.8310  178.7830  144.6920 C   0  0  0  0  0  3  0  0  0  0  0  0
  187.5950  177.8790  145.2630 N   0  0  0  0  0  2  0  0  0  0  0  0
  186.4470  177.1910  143.3560 O   0  0  0  0  0  0  0  0  0  0  0  0
  185.3090  178.6670  144.7770 N   0  0  0  0  0  2  0  0  0  0  0  0
  186.4470  177.8750  144.4140 C   0  0  0  0  0  0  0  0  0  0  0  0
  189.4350  177.5950  143.6770 C   0  0  0  0  0  2  0  0  0  0  0  0
  191.6830  177.9350  144.7730 C   0  0  0  0  0  2  0  0  0  0  0  0
  188.7900  177.0970  144.9780 C   0  0  0  0  0  3  0  0  0  0  0  0
  189.7420  177.1360  146.1830 C   0  0  0  0  0  2  0  0  0  0  0  0
  191.1810  176.8680  145.7560 C   0  0  0  0  0  2  0  0  0  0  0  0
  190.5650  178.5840  143.9480 C   0  0  0  0  0  2  0  0  0  0  0  0
  1 28  1  1  0  0  0
  2  4  2  0  0  0  0
  3  6  1  0  0  0  0
  3  2  1  0  0  0  0
  4  1  1  0  0  0  0
  5  7  1  1  0  0  0
  5  1  1  0  0  0  0
  6  5  1  0  0  0  0
  7  9  1  0  0  0  0
  9 10  2  0  0  0  0
 11  7  1  0  0  0  0
 11  8  2  0  0  0  0
 13 11  1  0  0  0  0
 13 12  1  0  0  0  0
 14  9  1  0  0  0  0
 15 14  1  0  0  0  0
 16 17  1  0  0  0  0
 16 15  1  0  0  0  0
 18 17  1  0  0  0  0
 19 18  1  0  0  0  0
 21 19  1  0  0  0  0
 21 20  1  1  0  0  0
 21 22  1  0  0  0  0
 23 24  1  1  0  0  0
 23 25  1  0  0  0  0
 23 22  1  0  0  0  0
 25 26  1  0  0  0  0
 28 27  1  6  0  0  0
 28 29  1  0  0  0  0
 29 33  1  0  0  0  0
 30 32  1  0  0  0  0
 31 35  1  0  0  0  0
 32 35  2  0  0  0  0
 32 38  1  0  0  0  0
 33 34  1  0  0  0  0
 33 30  2  0  0  0  0
 34 31  2  0  0  0  0
 37 39  2  0  0  0  0
 39 38  1  0  0  0  0
 39 36  1  0  0  0  0
 40 45  1  0  0  0  0
 40 42  1  0  0  0  0
 41 44  1  0  0  0  0
 42 36  1  0  0  0  0
 42 43  1  0  0  0  0
 44 43  1  0  0  0  0
 45 41  1  0  0  0  0
M  END
>  <MODEL>
8

>  <REMARK>
 VINA RESULT:      -5.8      2.778      5.931
  Name = 
  17 active torsions:
  status: ('A' for Active; 'I' for Inactive)
    1  A    between atoms: N_1  and  C_10
    2  A    between atoms: N_2  and  C_29
    3  A    between atoms: C_3  and  C_26
    4  A    between atoms: C_5  and  C_11
    5  A    between atoms: C_5  and  O_21
    6  A    between atoms: C_8  and  C_9
    7  A    between atoms: C_8  and  C_13
    8  A    between atoms: C_9  and  C_42
    9  A    between atoms: C_11  and  C_34
   10  A    between atoms: C_19  and  O_21
   11  A    between atoms: C_19  and  O_33
   12  A    between atoms: C_26  and  N_30
   13  A    between atoms: N_30  and  C_37
   14  A    between atoms: N_32  and  C_35
   15  A    between atoms: O_33  and  C_45
   16  A    between atoms: C_39  and  C_44
   17  A    between atoms: C_42  and  C_45
                            x       y       z     vdW  Elec       q    Type
                         _______ _______ _______ _____ _____    ______ ____

>  <TORSDO>
F 17

$$$$
=
 OpenBabel10222416463D

 45 47  0  0  1  0  0  0  0  0999 V2000
  182.1950  179.2550  139.2620 C   0  0  2  0  0  3  0  0  0  0  0  0
  180.8070  178.5000  141.1570 C   0  0  0  0  0  3  0  0  0  0  0  0
  179.6440  178.4760  140.2130 C   0  0  0  0  0  2  0  0  0  0  0  0
  182.0120  178.8610  140.7050 C   0  0  0  0  0  3  0  0  0  0  0  0
  181.3770  178.3230  138.3280 C   0  0  1  0  0  3  0  0  0  0  0  0
  180.0500  177.7900  138.9090 C   0  0  0  0  0  2  0  0  0  0  0  0
  181.1740  178.8960  136.9900 N   0  0  0  0  0  0  0  0  0  0  0  0
  180.7370  180.8660  135.7790 O   0  0  0  0  0  0  0  0  0  0  0  0
  181.3550  178.0940  135.7980 C   0  0  0  0  0  0  0  0  0  0  0  0
  180.8420  178.4510  134.7050 O   0  0  0  0  0  0  0  0  0  0  0  0
  180.8110  180.2910  136.8990 C   0  0  0  0  0  0  0  0  0  0  0  0
  181.1700  182.4760  137.9840 C   0  0  0  0  0  1  0  0  0  0  0  0
  180.5510  181.1000  138.1300 C   0  0  0  0  0  2  0  0  0  0  0  0
  182.1370  176.8190  135.8330 C   0  0  0  0  0  2  0  0  0  0  0  0
  183.3520  176.8970  134.9230 C   0  0  0  0  0  2  0  0  0  0  0  0
  184.2290  175.8480  135.2020 O   0  0  0  0  0  0  0  0  0  0  0  0
  184.5410  175.9930  136.5540 C   0  0  0  0  0  2  0  0  0  0  0  0
  185.7730  175.3920  136.8150 O   0  0  0  0  0  0  0  0  0  0  0  0
  186.4580  175.4410  135.6010 C   0  0  0  0  0  2  0  0  0  0  0  0
  187.3090  177.6950  135.0040 C   0  0  0  0  0  1  0  0  0  0  0  0
  187.6380  176.3930  135.7080 C   0  0  2  0  0  3  0  0  0  0  0  0
  188.8550  175.7630  135.0480 C   0  0  0  0  0  2  0  0  0  0  0  0
  190.0480  175.6310  135.9960 C   0  0  1  0  0  3  0  0  0  0  0  0
  190.5240  176.8850  136.3910 O   0  0  0  0  0  1  0  0  0  0  0  0
  189.7700  174.7330  137.2000 C   0  0  0  0  0  2  0  0  0  0  0  0
  190.9820  174.5010  137.9700 N   0  0  0  0  0  1  0  0  0  0  0  0
  184.1990  180.5550  138.9660 O   0  0  0  0  0  1  0  0  0  0  0  0
  183.6840  179.2580  138.9060 C   0  0  1  0  0  3  0  0  0  0  0  0
  184.4190  178.4120  139.8380 N   0  0  0  0  0  2  0  0  0  0  0  0
  186.5350  178.3960  141.1120 C   0  0  0  0  0  3  0  0  0  0  0  0
  187.9340  178.1940  138.7440 N   0  0  0  0  0  0  0  0  0  0  0  0
  187.9310  178.3380  141.1340 C   0  0  0  0  0  0  0  0  0  0  0  0
  185.8470  178.3520  139.8940 C   0  0  0  0  0  0  0  0  0  0  0  0
  186.5760  178.2510  138.7080 C   0  0  0  0  0  3  0  0  0  0  0  0
  188.6180  178.2340  139.9180 C   0  0  0  0  0  3  0  0  0  0  0  0
  189.0560  177.8250  144.7570 N   0  0  0  0  0  2  0  0  0  0  0  0
  187.2900  176.8540  143.5870 O   0  0  0  0  0  0  0  0  0  0  0  0
  188.6100  178.3830  142.3960 N   0  0  0  0  0  2  0  0  0  0  0  0
  188.2660  177.6510  143.5790 C   0  0  0  0  0  0  0  0  0  0  0  0
  190.0280  177.1320  146.8910 C   0  0  0  0  0  2  0  0  0  0  0  0
  188.7960  178.1310  148.8550 C   0  0  0  0  0  2  0  0  0  0  0  0
  188.7740  177.1320  146.0050 C   0  0  0  0  0  3  0  0  0  0  0  0
  187.5480  177.7580  146.6870 C   0  0  0  0  0  2  0  0  0  0  0  0
  187.5630  177.5010  148.1900 C   0  0  0  0  0  2  0  0  0  0  0  0
  189.9990  178.2650  147.9130 C   0  0  0  0  0  2  0  0  0  0  0  0
  1 28  1  6  0  0  0
  1  4  1  0  0  0  0
  3  2  1  0  0  0  0
  4  2  2  0  0  0  0
  5  7  1  6  0  0  0
  5  6  1  0  0  0  0
  5  1  1  0  0  0  0
  6  3  1  0  0  0  0
  8 11  2  0  0  0  0
  9 14  1  0  0  0  0
  9  7  1  0  0  0  0
 10  9  2  0  0  0  0
 11  7  1  0  0  0  0
 11 13  1  0  0  0  0
 12 13  1  0  0  0  0
 15 16  1  0  0  0  0
 15 14  1  0  0  0  0
 16 17  1  0  0  0  0
 17 18  1  0  0  0  0
 19 21  1  0  0  0  0
 19 18  1  0  0  0  0
 21 20  1  6  0  0  0
 22 21  1  0  0  0  0
 22 23  1  0  0  0  0
 23 24  1  1  0  0  0
 23 25  1  0  0  0  0
 25 26  1  0  0  0  0
 28 27  1  1  0  0  0
 28 29  1  0  0  0  0
 29 33  1  0  0  0  0
 30 32  1  0  0  0  0
 31 35  1  0  0  0  0
 32 38  1  0  0  0  0
 33 30  2  0  0  0  0
 34 31  2  0  0  0  0
 34 33  1  0  0  0  0
 35 32  2  0  0  0  0
 36 42  1  0  0  0  0
 38 39  1  0  0  0  0
 39 37  2  0  0  0  0
 39 36  1  0  0  0  0
 40 45  1  0  0  0  0
 42 43  1  0  0  0  0
 42 40  1  0  0  0  0
 43 44  1  0  0  0  0
 44 41  1  0  0  0  0
 45 41  1  0  0  0  0
M  END
>  <MODEL>
9

>  <REMARK>
 VINA RESULT:      -5.8      2.891      5.399
  Name = 
  17 active torsions:
  status: ('A' for Active; 'I' for Inactive)
    1  A    between atoms: N_1  and  C_10
    2  A    between atoms: N_2  and  C_29
    3  A    between atoms: C_3  and  C_26
    4  A    between atoms: C_5  and  C_11
    5  A    between atoms: C_5  and  O_21
    6  A    between atoms: C_8  and  C_9
    7  A    between atoms: C_8  and  C_13
    8  A    between atoms: C_9  and  C_42
    9  A    between atoms: C_11  and  C_34
   10  A    between atoms: C_19  and  O_21
   11  A    between atoms: C_19  and  O_33
   12  A    between atoms: C_26  and  N_30
   13  A    between atoms: N_30  and  C_37
   14  A    between atoms: N_32  and  C_35
   15  A    between atoms: O_33  and  C_45
   16  A    between atoms: C_39  and  C_44
   17  A    between atoms: C_42  and  C_45
                            x       y       z     vdW  Elec       q    Type
                         _______ _______ _______ _____ _____    ______ ____

>  <TORSDO>
F 17

$$$$
