=
 OpenBabel10222417103D

 25 28  0  0  1  0  0  0  0  0999 V2000
  187.2310  178.7160  140.5440 N   0  0  0  0  0  0  0  0  0  0  0  0
  188.0590  178.0550  142.6270 C   0  0  1  0  0  3  0  0  0  0  0  0
  189.0690  177.8260  141.5340 C   0  0  0  0  0  0  0  0  0  0  0  0
  190.3240  177.3700  141.7050 C   0  0  0  0  0  0  0  0  0  0  0  0
  191.1140  177.2450  139.3270 N   0  0  0  0  0  0  0  0  0  0  0  0
  186.9510  178.6650  141.9100 N   0  0  0  0  0  2  0  0  0  0  0  0
  191.2590  177.0710  140.6050 C   0  0  0  0  0  3  0  0  0  0  0  0
  190.0480  177.7770  138.5340 C   0  0  0  0  0  3  0  0  0  0  0  0
  188.4050  178.2450  140.3040 C   0  0  0  0  0  0  0  0  0  0  0  0
  188.9070  178.1990  138.9720 N   0  0  0  0  0  0  0  0  0  0  0  0
  191.3720  175.9790  143.4240 N   0  0  0  0  0  0  0  0  0  0  0  0
  190.8210  178.0930  144.1880 C   0  0  0  0  0  2  0  0  0  0  0  0
  191.4600  177.3150  145.3380 C   0  0  2  0  0  3  0  0  0  0  0  0
  191.7550  176.0140  144.7630 N   0  0  0  0  0  2  0  0  0  0  0  0
  190.8700  177.1080  143.0620 C   0  0  0  0  0  0  0  0  0  0  0  0
  190.4950  177.1630  146.4290 C   0  0  0  0  0  0  0  0  0  0  0  0
  189.7330  177.0430  147.2920 N   0  0  0  0  0  0  0  0  0  0  0  0
  187.6080  176.7450  143.2000 C   0  0  0  0  0  3  0  0  0  0  0  0
  186.8310  176.6210  144.2780 C   0  0  0  0  0  3  0  0  0  0  0  0
  186.3080  177.7300  145.0960 C   0  0  0  0  0  0  0  0  0  0  0  0
  184.9780  179.3700  145.7900 N   0  0  0  0  0  0  0  0  0  0  0  0
  186.0280  179.1920  146.6250 C   0  0  0  0  0  3  0  0  0  0  0  0
  185.1690  178.4450  144.8380 C   0  0  0  0  0  0  0  0  0  0  0  0
  184.2950  178.2540  143.7310 N   0  0  0  0  0  1  0  0  0  0  0  0
  186.8570  178.1970  146.2310 N   0  0  0  0  0  2  0  0  0  0  0  0
  1  6  1  0  0  0  0
  2 18  1  6  0  0  0
  3  4  2  0  0  0  0
  3  2  1  0  0  0  0
  4 15  1  0  0  0  0
  5  7  2  0  0  0  0
  6  2  1  0  0  0  0
  7  4  1  0  0  0  0
  8 10  2  0  0  0  0
  8  5  1  0  0  0  0
  9  1  2  0  0  0  0
  9  3  1  0  0  0  0
 10  9  1  0  0  0  0
 11 14  1  0  0  0  0
 12 13  1  0  0  0  0
 13 16  1  1  0  0  0
 14 13  1  0  0  0  0
 15 11  2  0  0  0  0
 15 12  1  0  0  0  0
 16 17  3  0  0  0  0
 18 19  2  0  0  0  0
 19 20  1  0  0  0  0
 20 25  1  0  0  0  0
 21 22  2  0  0  0  0
 23 20  2  0  0  0  0
 23 21  1  0  0  0  0
 24 23  1  0  0  0  0
 25 22  1  0  0  0  0
M  END
>  <MODEL>
1

>  <REMARK>
 VINA RESULT:      -8.0      0.000      0.000
  Name = 
  4 active torsions:
  status: ('A' for Active; 'I' for Inactive)
    1  A    between atoms: C_3  and  C_6
    2  A    between atoms: C_4  and  C_16
    3  A    between atoms: C_8  and  C_12
    4  A    between atoms: C_10  and  C_22
                            x       y       z     vdW  Elec       q    Type
                         _______ _______ _______ _____ _____    ______ ____

>  <TORSDO>
F 4

$$$$
=
 OpenBabel10222417103D

 25 28  0  0  1  0  0  0  0  0999 V2000
  188.1610  177.7890  146.4490 N   0  0  0  0  0  0  0  0  0  0  0  0
  188.0850  177.6650  144.1160 C   0  0  1  0  0  3  0  0  0  0  0  0
  186.7530  178.0640  144.6910 C   0  0  0  0  0  0  0  0  0  0  0  0
  185.6550  178.3890  143.9820 C   0  0  0  0  0  0  0  0  0  0  0  0
  183.9960  178.7770  145.8230 N   0  0  0  0  0  0  0  0  0  0  0  0
  188.9220  177.5620  145.3000 N   0  0  0  0  0  2  0  0  0  0  0  0
  184.3390  178.6880  144.5750 C   0  0  0  0  0  3  0  0  0  0  0  0
  184.7280  178.6350  147.0440 C   0  0  0  0  0  3  0  0  0  0  0  0
  186.9430  178.0630  146.1380 C   0  0  0  0  0  0  0  0  0  0  0  0
  185.9820  178.3350  147.1530 N   0  0  0  0  0  0  0  0  0  0  0  0
  186.6950  178.8900  141.8240 N   0  0  0  0  0  0  0  0  0  0  0  0
  184.5300  178.0950  141.6180 C   0  0  0  0  0  2  0  0  0  0  0  0
  185.0770  178.3780  140.2190 C   0  0  2  0  0  3  0  0  0  0  0  0
  186.4190  178.8750  140.4590 N   0  0  0  0  0  2  0  0  0  0  0  0
  185.6880  178.4510  142.4970 C   0  0  0  0  0  0  0  0  0  0  0  0
  184.2730  179.4190  139.5750 C   0  0  0  0  0  0  0  0  0  0  0  0
  183.6390  180.2410  139.0650 N   0  0  0  0  0  0  0  0  0  0  0  0
  187.9880  176.3160  143.4690 C   0  0  0  0  0  3  0  0  0  0  0  0
  188.9070  175.8070  142.6460 C   0  0  0  0  0  3  0  0  0  0  0  0
  190.1470  176.4780  142.2160 C   0  0  0  0  0  0  0  0  0  0  0  0
  191.5890  177.5870  140.9390 N   0  0  0  0  0  0  0  0  0  0  0  0
  192.1070  177.3210  142.1600 C   0  0  0  0  0  3  0  0  0  0  0  0
  190.3610  177.0530  140.9920 C   0  0  0  0  0  0  0  0  0  0  0  0
  189.4310  177.0950  139.9150 N   0  0  0  0  0  1  0  0  0  0  0  0
  191.2520  176.6470  142.9640 N   0  0  0  0  0  2  0  0  0  0  0  0
  2 18  1  1  0  0  0
  2  3  1  0  0  0  0
  2  6  1  0  0  0  0
  3  9  1  0  0  0  0
  4  7  1  0  0  0  0
  4  3  2  0  0  0  0
  5  8  1  0  0  0  0
  6  1  1  0  0  0  0
  7  5  2  0  0  0  0
  8 10  2  0  0  0  0
  9  1  2  0  0  0  0
  9 10  1  0  0  0  0
 11 15  2  0  0  0  0
 12 15  1  0  0  0  0
 13 16  1  1  0  0  0
 13 14  1  0  0  0  0
 13 12  1  0  0  0  0
 14 11  1  0  0  0  0
 15  4  1  0  0  0  0
 17 16  3  0  0  0  0
 19 18  2  0  0  0  0
 20 19  1  0  0  0  0
 20 25  1  0  0  0  0
 21 23  1  0  0  0  0
 21 22  2  0  0  0  0
 22 25  1  0  0  0  0
 23 20  2  0  0  0  0
 24 23  1  0  0  0  0
M  END
>  <MODEL>
2

>  <REMARK>
 VINA RESULT:      -7.8      1.960      6.907
  Name = 
  4 active torsions:
  status: ('A' for Active; 'I' for Inactive)
    1  A    between atoms: C_3  and  C_6
    2  A    between atoms: C_4  and  C_16
    3  A    between atoms: C_8  and  C_12
    4  A    between atoms: C_10  and  C_22
                            x       y       z     vdW  Elec       q    Type
                         _______ _______ _______ _____ _____    ______ ____

>  <TORSDO>
F 4

$$$$
=
 OpenBabel10222417103D

 25 28  0  0  1  0  0  0  0  0999 V2000
  184.4680  178.4020  142.2860 N   0  0  0  0  0  0  0  0  0  0  0  0
  186.7460  177.9350  142.0620 C   0  0  1  0  0  3  0  0  0  0  0  0
  186.3450  178.0470  143.5090 C   0  0  0  0  0  0  0  0  0  0  0  0
  187.1510  177.8370  144.5680 C   0  0  0  0  0  0  0  0  0  0  0  0
  185.5950  178.3680  146.4630 N   0  0  0  0  0  0  0  0  0  0  0  0
  185.4830  178.1260  141.3690 N   0  0  0  0  0  2  0  0  0  0  0  0
  186.7510  178.0420  145.9710 C   0  0  0  0  0  3  0  0  0  0  0  0
  184.3240  178.6310  145.8610 C   0  0  0  0  0  3  0  0  0  0  0  0
  184.9230  178.3730  143.4890 C   0  0  0  0  0  0  0  0  0  0  0  0
  184.0620  178.6240  144.5940 N   0  0  0  0  0  0  0  0  0  0  0  0
  188.8850  176.2990  143.7820 N   0  0  0  0  0  0  0  0  0  0  0  0
  189.7420  178.0960  144.9640 C   0  0  0  0  0  2  0  0  0  0  0  0
  190.9040  177.2050  144.5280 C   0  0  2  0  0  3  0  0  0  0  0  0
  190.2650  176.1150  143.8130 N   0  0  0  0  0  2  0  0  0  0  0  0
  188.5560  177.3870  144.3880 C   0  0  0  0  0  0  0  0  0  0  0  0
  191.5950  176.6800  145.7090 C   0  0  0  0  0  0  0  0  0  0  0  0
  192.1410  176.2670  146.6410 N   0  0  0  0  0  0  0  0  0  0  0  0
  187.6790  179.0500  141.6950 C   0  0  0  0  0  3  0  0  0  0  0  0
  188.4930  179.0350  140.6370 C   0  0  0  0  0  3  0  0  0  0  0  0
  188.6370  177.9270  139.6750 C   0  0  0  0  0  0  0  0  0  0  0  0
  188.2690  176.6360  137.9040 N   0  0  0  0  0  0  0  0  0  0  0  0
  189.3120  176.1890  138.6390 C   0  0  0  0  0  3  0  0  0  0  0  0
  187.8590  177.7270  138.5660 C   0  0  0  0  0  0  0  0  0  0  0  0
  186.7690  178.5440  138.1520 N   0  0  0  0  0  1  0  0  0  0  0  0
  189.5640  176.9550  139.7260 N   0  0  0  0  0  2  0  0  0  0  0  0
  1  9  2  0  0  0  0
  2 18  1  6  0  0  0
  2  3  1  0  0  0  0
  3  4  2  0  0  0  0
  4  7  1  0  0  0  0
  6  2  1  0  0  0  0
  6  1  1  0  0  0  0
  7  5  2  0  0  0  0
  8  5  1  0  0  0  0
  9  3  1  0  0  0  0
  9 10  1  0  0  0  0
 10  8  2  0  0  0  0
 11 14  1  0  0  0  0
 11 15  2  0  0  0  0
 13 12  1  0  0  0  0
 13 16  1  1  0  0  0
 14 13  1  0  0  0  0
 15  4  1  0  0  0  0
 15 12  1  0  0  0  0
 16 17  3  0  0  0  0
 19 18  2  0  0  0  0
 20 25  1  0  0  0  0
 20 19  1  0  0  0  0
 21 23  1  0  0  0  0
 21 22  2  0  0  0  0
 22 25  1  0  0  0  0
 23 20  2  0  0  0  0
 24 23  1  0  0  0  0
M  END
>  <MODEL>
3

>  <REMARK>
 VINA RESULT:      -7.3      1.635      5.422
  Name = 
  4 active torsions:
  status: ('A' for Active; 'I' for Inactive)
    1  A    between atoms: C_3  and  C_6
    2  A    between atoms: C_4  and  C_16
    3  A    between atoms: C_8  and  C_12
    4  A    between atoms: C_10  and  C_22
                            x       y       z     vdW  Elec       q    Type
                         _______ _______ _______ _____ _____    ______ ____

>  <TORSDO>
F 4

$$$$
=
 OpenBabel10222417103D

 25 28  0  0  1  0  0  0  0  0999 V2000
  185.5640  178.3400  145.6350 N   0  0  0  0  0  0  0  0  0  0  0  0
  187.1530  178.0820  143.9410 C   0  0  1  0  0  3  0  0  0  0  0  0
  185.7930  178.3950  143.3780 C   0  0  0  0  0  0  0  0  0  0  0  0
  185.5040  178.5840  142.0760 C   0  0  0  0  0  0  0  0  0  0  0  0
  183.0210  178.9290  142.1840 N   0  0  0  0  0  0  0  0  0  0  0  0
  186.9180  178.1170  145.3750 N   0  0  0  0  0  2  0  0  0  0  0  0
  184.1450  178.8010  141.5480 C   0  0  0  0  0  3  0  0  0  0  0  0
  182.6870  178.9170  143.5750 C   0  0  0  0  0  3  0  0  0  0  0  0
  184.9110  178.4900  144.5360 C   0  0  0  0  0  0  0  0  0  0  0  0
  183.5080  178.7330  144.5580 N   0  0  0  0  0  0  0  0  0  0  0  0
  186.3450  178.3670  139.7890 N   0  0  0  0  0  0  0  0  0  0  0  0
  188.0310  178.6930  141.3420 C   0  0  0  0  0  2  0  0  0  0  0  0
  188.6660  178.5670  139.9580 C   0  0  2  0  0  3  0  0  0  0  0  0
  187.5380  178.3570  139.0690 N   0  0  0  0  0  2  0  0  0  0  0  0
  186.5700  178.5670  141.0410 C   0  0  0  0  0  0  0  0  0  0  0  0
  189.5450  177.3960  139.9210 C   0  0  0  0  0  0  0  0  0  0  0  0
  190.2410  176.4710  139.8920 N   0  0  0  0  0  0  0  0  0  0  0  0
  187.5700  176.6960  143.5490 C   0  0  0  0  0  3  0  0  0  0  0  0
  188.8250  176.2440  143.5990 C   0  0  0  0  0  3  0  0  0  0  0  0
  190.0060  177.0210  144.0170 C   0  0  0  0  0  0  0  0  0  0  0  0
  191.5550  177.9280  145.3280 N   0  0  0  0  0  0  0  0  0  0  0  0
  191.7690  178.2230  144.0250 C   0  0  0  0  0  3  0  0  0  0  0  0
  190.4480  177.1720  145.3040 C   0  0  2  0  0  3  0  0  0  0  0  0
  189.8410  176.6180  146.4670 N   0  0  0  0  0  1  0  0  0  0  0  0
  190.8430  177.6840  143.1990 N   0  0  0  0  0  0  0  0  0  0  0  0
  2 18  1  6  0  0  0
  2  6  1  0  0  0  0
  3  2  1  0  0  0  0
  3  9  1  0  0  0  0
  4  3  2  0  0  0  0
  5  8  1  0  0  0  0
  6  1  1  0  0  0  0
  7  4  1  0  0  0  0
  7  5  2  0  0  0  0
  8 10  2  0  0  0  0
  9 10  1  0  0  0  0
  9  1  2  0  0  0  0
 11 15  2  0  0  0  0
 13 16  1  1  0  0  0
 13 12  1  0  0  0  0
 14 11  1  0  0  0  0
 14 13  1  0  0  0  0
 15 12  1  0  0  0  0
 15  4  1  0  0  0  0
 17 16  3  0  0  0  0
 18 19  2  0  0  0  0
 19 20  1  0  0  0  0
 20 23  1  0  0  0  0
 22 21  2  0  0  0  0
 23 21  1  0  0  0  0
 23 24  1  6  0  0  0
 25 20  2  0  0  0  0
 25 22  1  0  0  0  0
M  END
>  <MODEL>
4

>  <REMARK>
 VINA RESULT:      -7.3      1.636      5.885
  Name = 
  4 active torsions:
  status: ('A' for Active; 'I' for Inactive)
    1  A    between atoms: C_3  and  C_6
    2  A    between atoms: C_4  and  C_16
    3  A    between atoms: C_8  and  C_12
    4  A    between atoms: C_10  and  C_22
                            x       y       z     vdW  Elec       q    Type
                         _______ _______ _______ _____ _____    ______ ____

>  <TORSDO>
F 4

$$$$
=
 OpenBabel10222417103D

 25 28  0  0  1  0  0  0  0  0999 V2000
  183.8360  178.8230  145.2370 N   0  0  0  0  0  0  0  0  0  0  0  0
  185.1190  178.2740  143.3620 C   0  0  1  0  0  3  0  0  0  0  0  0
  185.9390  178.2300  144.6240 C   0  0  0  0  0  0  0  0  0  0  0  0
  187.2300  177.8560  144.7120 C   0  0  0  0  0  0  0  0  0  0  0  0
  187.6690  178.2310  147.1530 N   0  0  0  0  0  0  0  0  0  0  0  0
  183.7940  178.6090  143.8580 N   0  0  0  0  0  2  0  0  0  0  0  0
  188.0300  177.9100  145.9480 C   0  0  0  0  0  3  0  0  0  0  0  0
  186.4170  178.6270  147.7180 C   0  0  0  0  0  3  0  0  0  0  0  0
  185.0240  178.6270  145.6900 C   0  0  0  0  0  0  0  0  0  0  0  0
  185.3040  178.7850  147.0770 N   0  0  0  0  0  0  0  0  0  0  0  0
  188.1490  176.1140  143.2610 N   0  0  0  0  0  0  0  0  0  0  0  0
  188.6660  178.2520  142.5400 C   0  0  0  0  0  2  0  0  0  0  0  0
  189.2900  177.2500  141.5690 C   0  0  2  0  0  3  0  0  0  0  0  0
  188.9200  175.9550  142.1110 N   0  0  0  0  0  2  0  0  0  0  0  0
  187.9700  177.3620  143.5220 C   0  0  0  0  0  0  0  0  0  0  0  0
  190.7480  177.3910  141.5820 C   0  0  0  0  0  0  0  0  0  0  0  0
  191.9000  177.5030  141.5930 N   0  0  0  0  0  0  0  0  0  0  0  0
  185.6000  179.3780  142.4690 C   0  0  0  0  0  3  0  0  0  0  0  0
  185.3070  179.4790  141.1700 C   0  0  0  0  0  3  0  0  0  0  0  0
  184.4940  178.5260  140.3930 C   0  0  0  0  0  0  0  0  0  0  0  0
  183.8040  177.2610  138.7000 N   0  0  0  0  0  0  0  0  0  0  0  0
  183.0210  177.1050  139.7920 C   0  0  0  0  0  3  0  0  0  0  0  0
  184.7230  178.1540  139.0950 C   0  0  0  0  0  0  0  0  0  0  0  0
  185.7770  178.6280  138.2640 N   0  0  0  0  0  1  0  0  0  0  0  0
  183.4150  177.8610  140.8430 N   0  0  0  0  0  2  0  0  0  0  0  0
  1  9  2  0  0  0  0
  2 18  1  6  0  0  0
  2  6  1  0  0  0  0
  2  3  1  0  0  0  0
  3  4  2  0  0  0  0
  3  9  1  0  0  0  0
  4  7  1  0  0  0  0
  5  8  1  0  0  0  0
  6  1  1  0  0  0  0
  7  5  2  0  0  0  0
  9 10  1  0  0  0  0
 10  8  2  0  0  0  0
 11 15  2  0  0  0  0
 12 15  1  0  0  0  0
 13 16  1  1  0  0  0
 13 14  1  0  0  0  0
 13 12  1  0  0  0  0
 14 11  1  0  0  0  0
 15  4  1  0  0  0  0
 16 17  3  0  0  0  0
 19 18  2  0  0  0  0
 20 25  1  0  0  0  0
 20 19  1  0  0  0  0
 21 23  1  0  0  0  0
 21 22  2  0  0  0  0
 22 25  1  0  0  0  0
 23 20  2  0  0  0  0
 24 23  1  0  0  0  0
M  END
>  <MODEL>
5

>  <REMARK>
 VINA RESULT:      -7.0      2.482      5.756
  Name = 
  4 active torsions:
  status: ('A' for Active; 'I' for Inactive)
    1  A    between atoms: C_3  and  C_6
    2  A    between atoms: C_4  and  C_16
    3  A    between atoms: C_8  and  C_12
    4  A    between atoms: C_10  and  C_22
                            x       y       z     vdW  Elec       q    Type
                         _______ _______ _______ _____ _____    ______ ____

>  <TORSDO>
F 4

$$$$
=
 OpenBabel10222417103D

 25 28  0  0  1  0  0  0  0  0999 V2000
  191.4730  176.8170  141.0290 N   0  0  0  0  0  0  0  0  0  0  0  0
  189.9120  177.4160  142.6610 C   0  0  1  0  0  3  0  0  0  0  0  0
  189.3580  177.6000  141.2740 C   0  0  0  0  0  0  0  0  0  0  0  0
  188.1040  177.9880  140.9710 C   0  0  0  0  0  0  0  0  0  0  0  0
  188.2270  178.0900  138.4680 N   0  0  0  0  0  0  0  0  0  0  0  0
  191.2340  176.8710  142.4040 N   0  0  0  0  0  2  0  0  0  0  0  0
  187.6190  178.2460  139.6040 C   0  0  0  0  0  3  0  0  0  0  0  0
  189.5340  177.6220  138.1230 C   0  0  0  0  0  3  0  0  0  0  0  0
  190.4440  177.2270  140.3740 C   0  0  0  0  0  0  0  0  0  0  0  0
  190.4590  177.2570  138.9510 N   0  0  0  0  0  0  0  0  0  0  0  0
  186.9120  177.4090  143.0280 N   0  0  0  0  0  0  0  0  0  0  0  0
  186.1030  179.3340  142.0290 C   0  0  0  0  0  2  0  0  0  0  0  0
  185.2880  179.0670  143.2940 C   0  0  2  0  0  3  0  0  0  0  0  0
  185.8620  177.8470  143.8330 N   0  0  0  0  0  2  0  0  0  0  0  0
  187.0900  178.2090  142.0350 C   0  0  0  0  0  0  0  0  0  0  0  0
  183.8850  178.8360  142.9400 C   0  0  0  0  0  0  0  0  0  0  0  0
  182.7770  178.6540  142.6590 N   0  0  0  0  0  0  0  0  0  0  0  0
  190.0550  178.7430  143.3440 C   0  0  0  0  0  3  0  0  0  0  0  0
  190.3640  178.8990  144.6330 C   0  0  0  0  0  3  0  0  0  0  0  0
  190.5910  177.8120  145.6030 C   0  0  0  0  0  0  0  0  0  0  0  0
  190.1840  176.2940  147.1740 N   0  0  0  0  0  0  0  0  0  0  0  0
  191.4740  176.2590  146.7680 C   0  0  0  0  0  3  0  0  0  0  0  0
  189.6450  177.2720  146.4330 C   0  0  2  0  0  3  0  0  0  0  0  0
  188.2810  177.6700  146.5150 N   0  0  0  0  0  1  0  0  0  0  0  0
  191.7550  177.1710  145.8090 N   0  0  0  0  0  0  0  0  0  0  0  0
  1  6  1  0  0  0  0
  2 18  1  6  0  0  0
  3  2  1  0  0  0  0
  4  3  2  0  0  0  0
  4 15  1  0  0  0  0
  5  7  2  0  0  0  0
  6  2  1  0  0  0  0
  7  4  1  0  0  0  0
  8  5  1  0  0  0  0
  8 10  2  0  0  0  0
  9  1  2  0  0  0  0
  9  3  1  0  0  0  0
 10  9  1  0  0  0  0
 11 14  1  0  0  0  0
 12 15  1  0  0  0  0
 12 13  1  0  0  0  0
 13 16  1  6  0  0  0
 13 14  1  0  0  0  0
 15 11  2  0  0  0  0
 17 16  3  0  0  0  0
 18 19  2  0  0  0  0
 19 20  1  0  0  0  0
 20 25  2  0  0  0  0
 20 23  1  0  0  0  0
 22 21  2  0  0  0  0
 23 24  1  6  0  0  0
 23 21  1  0  0  0  0
 25 22  1  0  0  0  0
M  END
>  <MODEL>
6

>  <REMARK>
 VINA RESULT:      -7.0      1.639      4.761
  Name = 
  4 active torsions:
  status: ('A' for Active; 'I' for Inactive)
    1  A    between atoms: C_3  and  C_6
    2  A    between atoms: C_4  and  C_16
    3  A    between atoms: C_8  and  C_12
    4  A    between atoms: C_10  and  C_22
                            x       y       z     vdW  Elec       q    Type
                         _______ _______ _______ _____ _____    ______ ____

>  <TORSDO>
F 4

$$$$
=
 OpenBabel10222417103D

 25 28  0  0  1  0  0  0  0  0999 V2000
  185.1600  179.3110  141.9740 N   0  0  0  0  0  0  0  0  0  0  0  0
  186.8490  178.4030  143.3100 C   0  0  1  0  0  3  0  0  0  0  0  0
  187.1900  178.3040  141.8470 C   0  0  0  0  0  0  0  0  0  0  0  0
  188.3420  177.8290  141.3370 C   0  0  0  0  0  0  0  0  0  0  0  0
  187.8770  177.9890  138.8770 N   0  0  0  0  0  0  0  0  0  0  0  0
  185.5720  179.0970  143.2910 N   0  0  0  0  0  2  0  0  0  0  0  0
  188.6090  177.6620  139.8970 C   0  0  0  0  0  3  0  0  0  0  0  0
  186.5950  178.6130  138.7630 C   0  0  0  0  0  3  0  0  0  0  0  0
  186.0410  178.8690  141.1470 C   0  0  0  0  0  0  0  0  0  0  0  0
  185.8340  178.9830  139.7420 N   0  0  0  0  0  0  0  0  0  0  0  0
  189.8930  176.1950  142.2930 N   0  0  0  0  0  0  0  0  0  0  0  0
  190.1470  178.3120  143.1940 C   0  0  0  0  0  2  0  0  0  0  0  0
  191.1550  177.3780  143.8620 C   0  0  2  0  0  3  0  0  0  0  0  0
  190.9080  176.0900  143.2410 N   0  0  0  0  0  2  0  0  0  0  0  0
  189.4580  177.4060  142.2220 C   0  0  0  0  0  0  0  0  0  0  0  0
  190.8760  177.2940  145.2980 C   0  0  0  0  0  0  0  0  0  0  0  0
  190.6550  177.2260  146.4310 N   0  0  0  0  0  0  0  0  0  0  0  0
  186.6530  177.0350  143.8900 C   0  0  0  0  0  3  0  0  0  0  0  0
  186.5490  176.7770  145.1960 C   0  0  0  0  0  3  0  0  0  0  0  0
  186.6320  177.7720  146.2810 C   0  0  0  0  0  0  0  0  0  0  0  0
  186.0250  179.3610  147.7120 N   0  0  0  0  0  0  0  0  0  0  0  0
  187.3120  178.9870  147.8980 C   0  0  0  0  0  3  0  0  0  0  0  0
  185.6150  178.5890  146.6950 C   0  0  0  0  0  0  0  0  0  0  0  0
  184.3010  178.6320  146.1470 N   0  0  0  0  0  1  0  0  0  0  0  0
  187.7130  178.0180  147.0420 N   0  0  0  0  0  2  0  0  0  0  0  0
  1  6  1  0  0  0  0
  2 18  1  6  0  0  0
  3  2  1  0  0  0  0
  4  3  2  0  0  0  0
  4 15  1  0  0  0  0
  5  7  2  0  0  0  0
  6  2  1  0  0  0  0
  7  4  1  0  0  0  0
  8  5  1  0  0  0  0
  8 10  2  0  0  0  0
  9  3  1  0  0  0  0
  9  1  2  0  0  0  0
 10  9  1  0  0  0  0
 11 14  1  0  0  0  0
 12 13  1  0  0  0  0
 13 16  1  1  0  0  0
 14 13  1  0  0  0  0
 15 11  2  0  0  0  0
 15 12  1  0  0  0  0
 16 17  3  0  0  0  0
 18 19  2  0  0  0  0
 19 20  1  0  0  0  0
 20 23  2  0  0  0  0
 20 25  1  0  0  0  0
 21 22  2  0  0  0  0
 23 21  1  0  0  0  0
 24 23  1  0  0  0  0
 25 22  1  0  0  0  0
M  END
>  <MODEL>
7

>  <REMARK>
 VINA RESULT:      -6.9      1.448      2.091
  Name = 
  4 active torsions:
  status: ('A' for Active; 'I' for Inactive)
    1  A    between atoms: C_3  and  C_6
    2  A    between atoms: C_4  and  C_16
    3  A    between atoms: C_8  and  C_12
    4  A    between atoms: C_10  and  C_22
                            x       y       z     vdW  Elec       q    Type
                         _______ _______ _______ _____ _____    ______ ____

>  <TORSDO>
F 4

$$$$
=
 OpenBabel10222417103D

 25 28  0  0  1  0  0  0  0  0999 V2000
  185.4180  178.8390  138.3130 N   0  0  0  0  0  0  0  0  0  0  0  0
  184.2080  178.8800  140.3120 C   0  0  1  0  0  3  0  0  0  0  0  0
  185.6770  178.6670  140.5600 C   0  0  0  0  0  0  0  0  0  0  0  0
  186.2670  178.5810  141.7680 C   0  0  0  0  0  0  0  0  0  0  0  0
  188.6440  178.1280  141.1060 N   0  0  0  0  0  0  0  0  0  0  0  0
  184.1500  179.0270  138.8670 N   0  0  0  0  0  2  0  0  0  0  0  0
  187.6950  178.2830  141.9780 C   0  0  0  0  0  3  0  0  0  0  0  0
  188.6700  178.1930  139.6780 C   0  0  0  0  0  3  0  0  0  0  0  0
  186.2890  178.6270  139.2360 C   0  0  0  0  0  0  0  0  0  0  0  0
  187.6560  178.4110  138.9040 N   0  0  0  0  0  0  0  0  0  0  0  0
  184.6780  179.7520  143.2150 N   0  0  0  0  0  0  0  0  0  0  0  0
  185.6190  177.8940  144.2270 C   0  0  0  0  0  2  0  0  0  0  0  0
  184.6530  178.5460  145.2150 C   0  0  2  0  0  3  0  0  0  0  0  0
  184.1310  179.6930  144.4950 N   0  0  0  0  0  2  0  0  0  0  0  0
  185.4880  178.7700  143.0200 C   0  0  0  0  0  0  0  0  0  0  0  0
  185.3870  179.0000  146.3990 C   0  0  0  0  0  0  0  0  0  0  0  0
  185.9680  179.3590  147.3330 N   0  0  0  0  0  0  0  0  0  0  0  0
  183.4320  177.6610  140.7110 C   0  0  0  0  0  3  0  0  0  0  0  0
  182.1400  177.6660  141.0460 C   0  0  0  0  0  3  0  0  0  0  0  0
  181.2690  178.8540  141.1070 C   0  0  0  0  0  0  0  0  0  0  0  0
  180.0400  180.5040  141.9470 N   0  0  0  0  0  0  0  0  0  0  0  0
  180.0840  180.5530  140.5960 C   0  0  0  0  0  3  0  0  0  0  0  0
  180.7880  179.4340  142.2500 C   0  0  2  0  0  3  0  0  0  0  0  0
  181.0340  178.9890  143.5800 N   0  0  0  0  0  1  0  0  0  0  0  0
  180.8270  179.5610  140.0520 N   0  0  0  0  0  0  0  0  0  0  0  0
  1  6  1  0  0  0  0
  1  9  2  0  0  0  0
  2  3  1  0  0  0  0
  2 18  1  6  0  0  0
  3  4  2  0  0  0  0
  4  7  1  0  0  0  0
  4 15  1  0  0  0  0
  5  7  2  0  0  0  0
  6  2  1  0  0  0  0
  8  5  1  0  0  0  0
  9  3  1  0  0  0  0
 10  9  1  0  0  0  0
 10  8  2  0  0  0  0
 11 14  1  0  0  0  0
 12 13  1  0  0  0  0
 13 16  1  1  0  0  0
 14 13  1  0  0  0  0
 15 11  2  0  0  0  0
 15 12  1  0  0  0  0
 16 17  3  0  0  0  0
 18 19  2  0  0  0  0
 19 20  1  0  0  0  0
 20 23  1  0  0  0  0
 21 23  1  0  0  0  0
 22 21  2  0  0  0  0
 23 24  1  1  0  0  0
 25 22  1  0  0  0  0
 25 20  2  0  0  0  0
M  END
>  <MODEL>
8

>  <REMARK>
 VINA RESULT:      -6.8      3.404      5.403
  Name = 
  4 active torsions:
  status: ('A' for Active; 'I' for Inactive)
    1  A    between atoms: C_3  and  C_6
    2  A    between atoms: C_4  and  C_16
    3  A    between atoms: C_8  and  C_12
    4  A    between atoms: C_10  and  C_22
                            x       y       z     vdW  Elec       q    Type
                         _______ _______ _______ _____ _____    ______ ____

>  <TORSDO>
F 4

$$$$
=
 OpenBabel10222417103D

 25 28  0  0  1  0  0  0  0  0999 V2000
  185.7080  178.2280  145.5380 N   0  0  0  0  0  0  0  0  0  0  0  0
  187.2730  177.8690  143.8400 C   0  0  1  0  0  3  0  0  0  0  0  0
  185.9420  178.2940  143.2820 C   0  0  0  0  0  0  0  0  0  0  0  0
  185.6690  178.5210  141.9830 C   0  0  0  0  0  0  0  0  0  0  0  0
  183.2200  179.0550  142.0960 N   0  0  0  0  0  0  0  0  0  0  0  0
  187.0400  177.9040  145.2750 N   0  0  0  0  0  2  0  0  0  0  0  0
  184.3310  178.8490  141.4580 C   0  0  0  0  0  3  0  0  0  0  0  0
  182.8850  179.0520  143.4870 C   0  0  0  0  0  3  0  0  0  0  0  0
  185.0690  178.4420  144.4420 C   0  0  0  0  0  0  0  0  0  0  0  0
  183.6890  178.7920  144.4670 N   0  0  0  0  0  0  0  0  0  0  0  0
  187.8560  179.0570  141.0260 N   0  0  0  0  0  0  0  0  0  0  0  0
  186.5840  177.6910  139.6570 C   0  0  0  0  0  2  0  0  0  0  0  0
  187.9180  177.9630  138.9630 C   0  0  2  0  0  3  0  0  0  0  0  0
  188.6280  178.8270  139.8890 N   0  0  0  0  0  2  0  0  0  0  0  0
  186.7310  178.4350  140.9470 C   0  0  0  0  0  0  0  0  0  0  0  0
  187.6860  178.6760  137.7050 C   0  0  0  0  0  0  0  0  0  0  0  0
  187.5030  179.2400  136.7110 N   0  0  0  0  0  0  0  0  0  0  0  0
  187.5830  176.4610  143.4300 C   0  0  0  0  0  3  0  0  0  0  0  0
  188.8030  176.0140  143.1260 C   0  0  0  0  0  3  0  0  0  0  0  0
  190.0380  176.8200  143.1150 C   0  0  0  0  0  0  0  0  0  0  0  0
  191.8950  177.7900  142.3730 N   0  0  0  0  0  0  0  0  0  0  0  0
  191.6500  178.1040  143.6660 C   0  0  0  0  0  3  0  0  0  0  0  0
  190.8740  176.9860  142.0440 C   0  0  0  0  0  0  0  0  0  0  0  0
  190.7070  176.4040  140.7550 N   0  0  0  0  0  1  0  0  0  0  0  0
  190.5240  177.5300  144.1490 N   0  0  0  0  0  2  0  0  0  0  0  0
  2 18  1  6  0  0  0
  2  6  1  0  0  0  0
  3  2  1  0  0  0  0
  3  9  1  0  0  0  0
  4  3  2  0  0  0  0
  5  8  1  0  0  0  0
  6  1  1  0  0  0  0
  7  4  1  0  0  0  0
  7  5  2  0  0  0  0
  8 10  2  0  0  0  0
  9 10  1  0  0  0  0
  9  1  2  0  0  0  0
 12 15  1  0  0  0  0
 13 16  1  6  0  0  0
 13 12  1  0  0  0  0
 13 14  1  0  0  0  0
 14 11  1  0  0  0  0
 15 11  2  0  0  0  0
 15  4  1  0  0  0  0
 17 16  3  0  0  0  0
 19 18  2  0  0  0  0
 20 19  1  0  0  0  0
 20 25  1  0  0  0  0
 21 22  2  0  0  0  0
 22 25  1  0  0  0  0
 23 21  1  0  0  0  0
 23 20  2  0  0  0  0
 24 23  1  0  0  0  0
M  END
>  <MODEL>
9

>  <REMARK>
 VINA RESULT:      -6.8      1.810      6.328
  Name = 
  4 active torsions:
  status: ('A' for Active; 'I' for Inactive)
    1  A    between atoms: C_3  and  C_6
    2  A    between atoms: C_4  and  C_16
    3  A    between atoms: C_8  and  C_12
    4  A    between atoms: C_10  and  C_22
                            x       y       z     vdW  Elec       q    Type
                         _______ _______ _______ _____ _____    ______ ____

>  <TORSDO>
F 4

$$$$
