=
 OpenBabel10222417473D

 52 57  0  0  1  0  0  0  0  0999 V2000
  188.0430  177.7660  138.3760 O   0  0  0  0  0  0  0  0  0  0  0  0
  187.6670  178.1850  139.5730 C   0  0  0  0  0  0  0  0  0  0  0  0
  190.1110  176.8790  137.4660 C   0  0  0  0  0  3  0  0  0  0  0  0
  189.2960  177.3880  138.4740 C   0  0  0  0  0  0  0  0  0  0  0  0
  191.9020  176.7150  139.1300 C   0  0  0  0  0  3  0  0  0  0  0  0
  191.4340  176.5350  137.8040 C   0  0  0  0  0  0  0  0  0  0  0  0
  189.7550  177.5570  139.7570 C   0  0  0  0  0  0  0  0  0  0  0  0
  188.7070  178.0690  140.4850 C   0  0  0  0  0  0  0  0  0  0  0  0
  191.0570  177.2330  140.1270 C   0  0  0  0  0  3  0  0  0  0  0  0
  192.3400  175.9860  136.7470 C   0  0  1  0  0  3  0  0  0  0  0  0
  193.4560  176.8210  136.6220 O   0  0  0  0  0  1  0  0  0  0  0  0
  194.2810  174.4670  137.2390 C   0  0  0  0  0  2  0  0  0  0  0  0
  194.7080  173.1190  137.6420 N   0  0  0  0  0  0  0  0  0  0  0  0
  194.4470  172.2380  136.4810 C   0  0  2  0  0  3  0  0  0  0  0  0
  192.3920  173.5910  135.9100 C   0  0  1  0  0  3  0  0  0  0  0  0
  191.0080  173.4980  135.7780 O   0  0  0  0  0  1  0  0  0  0  0  0
  192.7660  174.5380  137.0530 C   0  0  2  0  0  3  0  0  0  0  0  0
  192.9480  172.1990  136.1740 C   0  0  0  0  0  2  0  0  0  0  0  0
  196.3800  173.6950  139.2220 O   0  0  0  0  0  1  0  0  0  0  0  0
  196.1580  173.1960  137.9350 C   0  0  2  0  0  3  0  0  0  0  0  0
  196.8850  174.0970  136.9710 C   0  0  0  0  0  0  0  0  0  0  0  0
  197.0950  173.6550  135.5640 C   0  0  0  0  0  1  0  0  0  0  0  0
  197.2910  175.1900  137.3280 O   0  0  0  0  0  0  0  0  0  0  0  0
  194.8730  170.7930  136.7320 C   0  0  0  0  0  2  0  0  0  0  0  0
  195.8330  170.3200  135.6490 C   0  0  0  0  0  2  0  0  0  0  0  0
  197.2350  169.6290  137.7040 C   0  0  0  0  0  1  0  0  0  0  0  0
  198.1170  169.7450  135.5350 O   0  0  0  0  0  0  0  0  0  0  0  0
  197.1340  169.8840  136.2420 C   0  0  0  0  0  0  0  0  0  0  0  0
  186.3930  178.6630  139.8740 O   0  0  0  0  0  0  0  0  0  0  0  0
  180.2410  178.6840  138.7590 C   0  0  0  0  0  1  0  0  0  0  0  0
  185.3630  178.6940  138.8960 C   0  0  2  0  0  3  0  0  0  0  0  0
  183.9010  179.1730  141.0080 C   0  0  0  0  0  2  0  0  0  0  0  0
  182.8610  178.2090  141.5590 C   0  0  0  0  0  2  0  0  0  0  0  0
  181.5560  178.3820  140.8350 C   0  0  0  0  0  0  0  0  0  0  0  0
  184.7670  179.9710  138.8830 O   0  0  0  0  0  0  0  0  0  0  0  0
  182.8050  178.5500  138.6770 C   0  0  0  0  0  2  0  0  0  0  0  0
  184.0330  178.9450  139.5020 C   0  0  1  0  0  0  0  0  0  0  0  0
  180.0790  178.3910  141.7950 Cl  0  0  0  0  0  0  0  0  0  0  0  0
  181.5330  178.5390  139.4950 C   0  0  0  0  0  0  0  0  0  0  0  0
  188.7080  178.4800  141.9170 C   0  0  0  0  0  2  0  0  0  0  0  0
  188.1340  177.3610  142.7680 C   0  0  0  0  0  2  0  0  0  0  0  0
  187.6180  177.9050  144.1000 C   0  0  2  0  0  3  0  0  0  0  0  0
  188.4260  177.7060  147.6120 C   0  0  0  0  0  0  0  0  0  0  0  0
  189.6830  177.6220  145.6040 C   0  0  1  0  0  3  0  0  0  0  0  0
  188.1140  177.8830  148.8920 C   0  0  0  0  0  2  0  0  0  0  0  0
  189.8170  177.7680  147.1100 C   0  0  0  0  0  2  0  0  0  0  0  0
  190.5710  176.6510  145.1450 O   0  0  0  0  0  1  0  0  0  0  0  0
  187.4160  177.4310  146.5640 C   0  0  0  0  0  2  0  0  0  0  0  0
  188.2390  177.1910  145.3090 C   0  0  1  0  0  3  0  0  0  0  0  0
  185.5620  177.4190  142.9700 F   0  0  0  0  0  0  0  0  0  0  0  0
  186.0890  177.9110  144.1500 C   0  0  0  0  0  3  0  0  0  0  0  0
  185.5960  179.1820  144.3930 F   0  0  0  0  0  0  0  0  0  0  0  0
  1  4  1  0  0  0  0
  1  2  1  0  0  0  0
  2 29  1  0  0  0  0
  2  8  2  0  0  0  0
  3  6  2  0  0  0  0
  3  4  1  0  0  0  0
  4  7  2  0  0  0  0
  5  9  2  0  0  0  0
  6  5  1  0  0  0  0
  7  9  1  0  0  0  0
  7  8  1  0  0  0  0
  8 40  1  0  0  0  0
 10 11  1  1  0  0  0
 10  6  1  0  0  0  0
 12 13  1  0  0  0  0
 13 20  1  0  0  0  0
 14 24  1  1  0  0  0
 14 13  1  0  0  0  0
 15 16  1  1  0  0  0
 15 18  1  0  0  0  0
 15 17  1  0  0  0  0
 17 10  1  6  0  0  0
 17 12  1  0  0  0  0
 18 14  1  0  0  0  0
 20 19  1  1  0  0  0
 21 23  2  0  0  0  0
 21 20  1  0  0  0  0
 22 21  1  0  0  0  0
 25 28  1  0  0  0  0
 25 24  1  0  0  0  0
 27 28  2  0  0  0  0
 28 26  1  0  0  0  0
 30 39  1  0  0  0  0
 31 37  1  0  0  0  0
 31 29  1  1  0  0  0
 32 33  1  0  0  0  0
 34 33  1  0  0  0  0
 34 38  1  0  0  0  0
 35 31  1  0  0  0  0
 35 37  1  0  0  0  0
 36 39  1  0  0  0  0
 37 36  1  6  0  0  0
 37 32  1  0  0  0  0
 39 34  2  0  0  0  0
 40 41  1  0  0  0  0
 42 41  1  6  0  0  0
 42 51  1  0  0  0  0
 43 45  2  0  0  0  0
 44 47  1  1  0  0  0
 44 46  1  0  0  0  0
 46 43  1  0  0  0  0
 48 43  1  0  0  0  0
 49 42  1  6  0  0  0
 49 44  1  0  0  0  0
 49 48  1  0  0  0  0
 50 51  1  0  0  0  0
 51 52  1  0  0  0  0
M  END
>  <MODEL>
1

>  <REMARK>
 VINA RESULT:      -8.7      0.000      0.000
  Name = 
  14 active torsions:
  status: ('A' for Active; 'I' for Inactive)
    1  A    between atoms: C_4  and  C_28
    2  A    between atoms: C_4  and  C_45
    3  A    between atoms: O_6  and  C_10
    4  A    between atoms: O_6  and  C_17
    5  A    between atoms: N_9  and  C_50
    6  A    between atoms: C_16  and  C_21
    7  A    between atoms: C_18  and  C_50
    8  A    between atoms: C_21  and  C_42
    9  A    between atoms: C_21  and  C_47
   10  A    between atoms: C_30  and  C_36
   11  A    between atoms: C_36  and  C_44
   12  A    between atoms: C_37  and  C_45
   13  A    between atoms: C_38  and  C_40
   14  A    between atoms: C_40  and  C_47
                            x       y       z     vdW  Elec       q    Type
                         _______ _______ _______ _____ _____    ______ ____

>  <TORSDO>
F 14

$$$$
=
 OpenBabel10222417473D

 52 57  0  0  1  0  0  0  0  0999 V2000
  186.3850  178.6620  139.1720 O   0  0  0  0  0  0  0  0  0  0  0  0
  187.5230  178.5750  139.8390 C   0  0  0  0  0  0  0  0  0  0  0  0
  184.0430  178.6730  139.8130 C   0  0  0  0  0  3  0  0  0  0  0  0
  185.4140  178.6180  140.0540 C   0  0  0  0  0  0  0  0  0  0  0  0
  183.7080  178.4860  142.2330 C   0  0  0  0  0  3  0  0  0  0  0  0
  183.1800  178.6100  140.9230 C   0  0  0  0  0  0  0  0  0  0  0  0
  185.9190  178.5010  141.3260 C   0  0  0  0  0  0  0  0  0  0  0  0
  187.2880  178.4770  141.2040 C   0  0  0  0  0  0  0  0  0  0  0  0
  185.0960  178.4300  142.4460 C   0  0  0  0  0  3  0  0  0  0  0  0
  181.7000  178.6660  140.7030 C   0  0  1  0  0  3  0  0  0  0  0  0
  181.4090  179.7050  139.8130 O   0  0  0  0  0  1  0  0  0  0  0  0
  181.4320  177.1830  138.6930 C   0  0  0  0  0  2  0  0  0  0  0  0
  181.0130  175.8650  138.1920 N   0  0  0  0  0  0  0  0  0  0  0  0
  179.5350  175.8400  138.2790 C   0  0  2  0  0  3  0  0  0  0  0  0
  179.6300  177.2340  140.3830 C   0  0  1  0  0  3  0  0  0  0  0  0
  179.3060  177.2160  141.7380 O   0  0  0  0  0  1  0  0  0  0  0  0
  181.1450  177.3260  140.1870 C   0  0  2  0  0  3  0  0  0  0  0  0
  179.0900  175.9660  139.7380 C   0  0  0  0  0  2  0  0  0  0  0  0
  182.4790  174.8260  136.6440 O   0  0  0  0  0  1  0  0  0  0  0  0
  181.4640  175.7770  136.7840 C   0  0  2  0  0  3  0  0  0  0  0  0
  182.0020  177.0890  136.2770 C   0  0  0  0  0  0  0  0  0  0  0  0
  183.4640  177.3660  136.3520 C   0  0  0  0  0  1  0  0  0  0  0  0
  181.2530  177.9230  135.7940 O   0  0  0  0  0  0  0  0  0  0  0  0
  178.9380  174.5340  137.7580 C   0  0  0  0  0  2  0  0  0  0  0  0
  179.4440  173.3490  138.5700 C   0  0  0  0  0  2  0  0  0  0  0  0
  178.9480  171.6670  136.6760 C   0  0  0  0  0  1  0  0  0  0  0  0
  181.0210  171.7930  137.7640 O   0  0  0  0  0  0  0  0  0  0  0  0
  179.8900  172.2400  137.6740 C   0  0  0  0  0  0  0  0  0  0  0  0
  188.7850  178.5930  139.2480 O   0  0  0  0  0  0  0  0  0  0  0  0
  192.5530  175.0520  135.7340 C   0  0  0  0  0  1  0  0  0  0  0  0
  189.0150  178.0020  137.9760 C   0  0  2  0  0  3  0  0  0  0  0  0
  190.8260  176.7010  139.3370 C   0  0  0  0  0  2  0  0  0  0  0  0
  192.3250  176.8680  139.1360 C   0  0  0  0  0  2  0  0  0  0  0  0
  192.7990  175.9940  138.0090 C   0  0  0  0  0  0  0  0  0  0  0  0
  188.7670  176.6170  138.0520 O   0  0  0  0  0  0  0  0  0  0  0  0
  190.7800  176.6470  136.6880 C   0  0  0  0  0  2  0  0  0  0  0  0
  190.1160  177.0100  138.0190 C   0  0  1  0  0  0  0  0  0  0  0  0
  194.3010  175.1030  138.2370 Cl  0  0  0  0  0  0  0  0  0  0  0  0
  192.0800  175.8950  136.8720 C   0  0  0  0  0  0  0  0  0  0  0  0
  188.2950  178.3080  142.2880 C   0  0  0  0  0  2  0  0  0  0  0  0
  188.5320  176.8290  142.5380 C   0  0  0  0  0  2  0  0  0  0  0  0
  189.1350  176.6040  143.9260 C   0  0  2  0  0  3  0  0  0  0  0  0
  188.8900  177.8610  147.2990 C   0  0  0  0  0  0  0  0  0  0  0  0
  187.3230  177.2090  145.6450 C   0  0  1  0  0  3  0  0  0  0  0  0
  189.4260  178.1270  148.4870 C   0  0  0  0  0  2  0  0  0  0  0  0
  187.4550  177.5430  147.1220 C   0  0  0  0  0  2  0  0  0  0  0  0
  186.2540  177.9160  145.0970 O   0  0  0  0  0  1  0  0  0  0  0  0
  189.6710  177.8570  146.0420 C   0  0  0  0  0  2  0  0  0  0  0  0
  188.6320  177.6230  144.9590 C   0  0  1  0  0  3  0  0  0  0  0  0
  191.1580  177.4740  142.9840 F   0  0  0  0  0  0  0  0  0  0  0  0
  190.6620  176.5370  143.8710 C   0  0  0  0  0  3  0  0  0  0  0  0
  191.0990  175.2730  143.5140 F   0  0  0  0  0  0  0  0  0  0  0  0
  1  2  1  0  0  0  0
  1  4  1  0  0  0  0
  2  8  2  0  0  0  0
  3  4  2  0  0  0  0
  3  6  1  0  0  0  0
  4  7  1  0  0  0  0
  5  9  1  0  0  0  0
  6  5  2  0  0  0  0
  7  9  2  0  0  0  0
  8  7  1  0  0  0  0
  8 40  1  0  0  0  0
 10 11  1  6  0  0  0
 10  6  1  0  0  0  0
 12 17  1  0  0  0  0
 13 14  1  0  0  0  0
 13 12  1  0  0  0  0
 14 24  1  1  0  0  0
 14 18  1  0  0  0  0
 15 16  1  1  0  0  0
 17 15  1  0  0  0  0
 17 10  1  6  0  0  0
 18 15  1  0  0  0  0
 20 19  1  1  0  0  0
 20 13  1  0  0  0  0
 21 22  1  0  0  0  0
 21 20  1  0  0  0  0
 23 21  2  0  0  0  0
 24 25  1  0  0  0  0
 26 28  1  0  0  0  0
 28 27  2  0  0  0  0
 28 25  1  0  0  0  0
 29  2  1  0  0  0  0
 30 39  1  0  0  0  0
 31 37  1  0  0  0  0
 31 35  1  0  0  0  0
 31 29  1  1  0  0  0
 33 32  1  0  0  0  0
 34 38  1  0  0  0  0
 34 33  1  0  0  0  0
 36 39  1  0  0  0  0
 37 36  1  6  0  0  0
 37 35  1  0  0  0  0
 37 32  1  0  0  0  0
 39 34  2  0  0  0  0
 40 41  1  0  0  0  0
 42 41  1  6  0  0  0
 43 45  2  0  0  0  0
 44 47  1  6  0  0  0
 44 46  1  0  0  0  0
 46 43  1  0  0  0  0
 48 43  1  0  0  0  0
 49 42  1  6  0  0  0
 49 44  1  0  0  0  0
 49 48  1  0  0  0  0
 50 51  1  0  0  0  0
 51 42  1  0  0  0  0
 52 51  1  0  0  0  0
M  END
>  <MODEL>
2

>  <REMARK>
 VINA RESULT:      -8.6      4.657     10.477
  Name = 
  14 active torsions:
  status: ('A' for Active; 'I' for Inactive)
    1  A    between atoms: C_4  and  C_28
    2  A    between atoms: C_4  and  C_45
    3  A    between atoms: O_6  and  C_10
    4  A    between atoms: O_6  and  C_17
    5  A    between atoms: N_9  and  C_50
    6  A    between atoms: C_16  and  C_21
    7  A    between atoms: C_18  and  C_50
    8  A    between atoms: C_21  and  C_42
    9  A    between atoms: C_21  and  C_47
   10  A    between atoms: C_30  and  C_36
   11  A    between atoms: C_36  and  C_44
   12  A    between atoms: C_37  and  C_45
   13  A    between atoms: C_38  and  C_40
   14  A    between atoms: C_40  and  C_47
                            x       y       z     vdW  Elec       q    Type
                         _______ _______ _______ _____ _____    ______ ____

>  <TORSDO>
F 14

$$$$
=
 OpenBabel10222417473D

 52 57  0  0  1  0  0  0  0  0999 V2000
  190.0120  176.5500  137.5450 O   0  0  0  0  0  0  0  0  0  0  0  0
  190.9330  176.5830  138.4930 C   0  0  0  0  0  0  0  0  0  0  0  0
  187.6880  177.2420  137.4200 C   0  0  0  0  0  3  0  0  0  0  0  0
  188.9180  177.0720  138.0510 C   0  0  0  0  0  0  0  0  0  0  0  0
  186.8640  178.2260  139.5070 C   0  0  0  0  0  3  0  0  0  0  0  0
  186.6480  177.8320  138.1620 C   0  0  0  0  0  0  0  0  0  0  0  0
  189.1220  177.4580  139.3530 C   0  0  0  0  0  0  0  0  0  0  0  0
  190.4280  177.1520  139.6530 C   0  0  0  0  0  0  0  0  0  0  0  0
  188.1150  178.0390  140.1180 C   0  0  0  0  0  3  0  0  0  0  0  0
  185.3110  178.0310  137.5180 C   0  0  1  0  0  3  0  0  0  0  0  0
  185.0610  176.9670  136.6450 O   0  0  0  0  0  1  0  0  0  0  0  0
  183.0750  177.1580  138.2630 C   0  0  0  0  0  2  0  0  0  0  0  0
  182.0370  177.1840  139.3040 N   0  0  0  0  0  0  0  0  0  0  0  0
  181.3700  178.5000  139.1920 C   0  0  2  0  0  3  0  0  0  0  0  0
  183.5660  179.5640  138.5410 C   0  0  1  0  0  3  0  0  0  0  0  0
  184.4950  180.5220  138.9440 O   0  0  0  0  0  1  0  0  0  0  0  0
  184.1860  178.1640  138.5610 C   0  0  2  0  0  3  0  0  0  0  0  0
  182.3690  179.6250  139.4770 C   0  0  0  0  0  2  0  0  0  0  0  0
  181.1980  175.0610  139.9470 O   0  0  0  0  0  1  0  0  0  0  0  0
  181.0950  176.0820  138.9990 C   0  0  2  0  0  3  0  0  0  0  0  0
  181.3550  175.4710  137.6470 C   0  0  0  0  0  0  0  0  0  0  0  0
  180.6790  176.0270  136.4430 C   0  0  0  0  0  1  0  0  0  0  0  0
  182.1260  174.5320  137.5280 O   0  0  0  0  0  0  0  0  0  0  0  0
  180.2310  178.6700  140.1960 C   0  0  0  0  0  2  0  0  0  0  0  0
  180.7780  178.7990  141.6110 C   0  0  0  0  0  2  0  0  0  0  0  0
  179.9500  178.3480  144.0150 C   0  0  0  0  0  1  0  0  0  0  0  0
  179.3290  177.0270  142.1810 O   0  0  0  0  0  0  0  0  0  0  0  0
  179.9680  177.9890  142.5720 C   0  0  0  0  0  0  0  0  0  0  0  0
  192.2390  176.1210  138.3360 O   0  0  0  0  0  0  0  0  0  0  0  0
  197.1190  174.4250  134.8140 C   0  0  0  0  0  1  0  0  0  0  0  0
  192.9530  176.3140  137.1230 C   0  0  2  0  0  3  0  0  0  0  0  0
  194.1060  174.1010  137.8980 C   0  0  0  0  0  2  0  0  0  0  0  0
  195.5630  174.0060  138.3260 C   0  0  0  0  0  2  0  0  0  0  0  0
  196.4480  173.8380  137.1240 C   0  0  0  0  0  0  0  0  0  0  0  0
  192.7110  175.2270  136.2590 O   0  0  0  0  0  0  0  0  0  0  0  0
  195.0950  175.5600  135.9190 C   0  0  0  0  0  2  0  0  0  0  0  0
  193.9610  175.2500  136.9000 C   0  0  1  0  0  0  0  0  0  0  0  0
  197.7530  172.6600  137.2240 Cl  0  0  0  0  0  0  0  0  0  0  0  0
  196.2300  174.5630  136.0070 C   0  0  0  0  0  0  0  0  0  0  0  0
  191.1250  177.3240  140.9590 C   0  0  0  0  0  2  0  0  0  0  0  0
  190.5330  176.3720  141.9820 C   0  0  0  0  0  2  0  0  0  0  0  0
  190.8330  176.8490  143.4030 C   0  0  2  0  0  3  0  0  0  0  0  0
  187.5100  177.4630  144.6690 C   0  0  0  0  0  0  0  0  0  0  0  0
  189.6820  177.4690  145.6160 C   0  0  1  0  0  3  0  0  0  0  0  0
  186.2200  177.7280  144.4800 C   0  0  0  0  0  2  0  0  0  0  0  0
  188.2440  177.8830  145.8830 C   0  0  0  0  0  2  0  0  0  0  0  0
  190.1820  176.7700  146.7140 O   0  0  0  0  0  1  0  0  0  0  0  0
  188.3350  176.7230  143.6870 C   0  0  0  0  0  2  0  0  0  0  0  0
  189.6800  176.5640  144.3760 C   0  0  1  0  0  3  0  0  0  0  0  0
  192.0360  178.5810  144.5390 F   0  0  0  0  0  0  0  0  0  0  0  0
  191.2630  178.3170  143.4240 C   0  0  0  0  0  3  0  0  0  0  0  0
  190.1690  179.1640  143.3970 F   0  0  0  0  0  0  0  0  0  0  0  0
  1  4  1  0  0  0  0
  1  2  1  0  0  0  0
  2  8  2  0  0  0  0
  3  4  2  0  0  0  0
  3  6  1  0  0  0  0
  4  7  1  0  0  0  0
  5  9  1  0  0  0  0
  6  5  2  0  0  0  0
  7  8  1  0  0  0  0
  7  9  2  0  0  0  0
  8 40  1  0  0  0  0
 10 11  1  6  0  0  0
 10  6  1  0  0  0  0
 12 17  1  0  0  0  0
 12 13  1  0  0  0  0
 14 13  1  0  0  0  0
 14 18  1  0  0  0  0
 14 24  1  1  0  0  0
 15 17  1  0  0  0  0
 15 16  1  1  0  0  0
 15 18  1  0  0  0  0
 17 10  1  6  0  0  0
 20 13  1  0  0  0  0
 20 19  1  1  0  0  0
 21 20  1  0  0  0  0
 22 21  1  0  0  0  0
 23 21  2  0  0  0  0
 24 25  1  0  0  0  0
 25 28  1  0  0  0  0
 27 28  2  0  0  0  0
 28 26  1  0  0  0  0
 29  2  1  0  0  0  0
 30 39  1  0  0  0  0
 31 29  1  1  0  0  0
 32 33  1  0  0  0  0
 34 38  1  0  0  0  0
 34 33  1  0  0  0  0
 35 37  1  0  0  0  0
 35 31  1  0  0  0  0
 36 39  1  0  0  0  0
 37 36  1  6  0  0  0
 37 31  1  0  0  0  0
 37 32  1  0  0  0  0
 39 34  2  0  0  0  0
 40 41  1  0  0  0  0
 42 41  1  6  0  0  0
 42 51  1  0  0  0  0
 43 46  1  0  0  0  0
 44 46  1  0  0  0  0
 44 47  1  1  0  0  0
 45 43  2  0  0  0  0
 48 49  1  0  0  0  0
 48 43  1  0  0  0  0
 49 42  1  6  0  0  0
 49 44  1  0  0  0  0
 51 50  1  0  0  0  0
 52 51  1  0  0  0  0
M  END
>  <MODEL>
3

>  <REMARK>
 VINA RESULT:      -8.5      4.098     11.200
  Name = 
  14 active torsions:
  status: ('A' for Active; 'I' for Inactive)
    1  A    between atoms: C_4  and  C_28
    2  A    between atoms: C_4  and  C_45
    3  A    between atoms: O_6  and  C_10
    4  A    between atoms: O_6  and  C_17
    5  A    between atoms: N_9  and  C_50
    6  A    between atoms: C_16  and  C_21
    7  A    between atoms: C_18  and  C_50
    8  A    between atoms: C_21  and  C_42
    9  A    between atoms: C_21  and  C_47
   10  A    between atoms: C_30  and  C_36
   11  A    between atoms: C_36  and  C_44
   12  A    between atoms: C_37  and  C_45
   13  A    between atoms: C_38  and  C_40
   14  A    between atoms: C_40  and  C_47
                            x       y       z     vdW  Elec       q    Type
                         _______ _______ _______ _____ _____    ______ ____

>  <TORSDO>
F 14

$$$$
=
 OpenBabel10222417473D

 52 57  0  0  1  0  0  0  0  0999 V2000
  185.8860  178.7250  139.4210 O   0  0  0  0  0  0  0  0  0  0  0  0
  185.2020  178.4320  138.3280 C   0  0  0  0  0  0  0  0  0  0  0  0
  185.3160  178.9240  141.7720 C   0  0  0  0  0  3  0  0  0  0  0  0
  185.0450  178.6810  140.4280 C   0  0  0  0  0  0  0  0  0  0  0  0
  182.9510  178.4770  142.2290 C   0  0  0  0  0  3  0  0  0  0  0  0
  184.2500  178.8160  142.6850 C   0  0  0  0  0  0  0  0  0  0  0  0
  183.7850  178.3500  139.9930 C   0  0  0  0  0  0  0  0  0  0  0  0
  183.8720  178.1800  138.6320 C   0  0  0  0  0  0  0  0  0  0  0  0
  182.7060  178.2400  140.8660 C   0  0  0  0  0  3  0  0  0  0  0  0
  184.5020  179.0700  144.1390 C   0  0  1  0  0  3  0  0  0  0  0  0
  183.7070  178.2040  144.8980 O   0  0  0  0  0  1  0  0  0  0  0  0
  186.6270  177.8320  143.6240 C   0  0  0  0  0  2  0  0  0  0  0  0
  188.0740  177.7330  143.8670 N   0  0  0  0  0  0  0  0  0  0  0  0
  188.2290  177.2160  145.2450 C   0  0  2  0  0  3  0  0  0  0  0  0
  186.1710  178.4940  145.9610 C   0  0  1  0  0  3  0  0  0  0  0  0
  185.7380  179.5030  146.8200 O   0  0  0  0  0  1  0  0  0  0  0  0
  185.9900  178.9110  144.4990 C   0  0  2  0  0  3  0  0  0  0  0  0
  187.6370  178.2080  146.2500 C   0  0  0  0  0  2  0  0  0  0  0  0
  189.5650  175.9340  143.4590 O   0  0  0  0  0  1  0  0  0  0  0  0
  188.6110  176.7720  142.8750 C   0  0  2  0  0  3  0  0  0  0  0  0
  189.2710  177.4650  141.7120 C   0  0  0  0  0  0  0  0  0  0  0  0
  190.5700  176.9570  141.1900 C   0  0  0  0  0  1  0  0  0  0  0  0
  188.7450  178.4320  141.1860 O   0  0  0  0  0  0  0  0  0  0  0  0
  189.6920  177.0230  145.6400 C   0  0  0  0  0  2  0  0  0  0  0  0
  189.8120  176.7210  147.1270 C   0  0  0  0  0  2  0  0  0  0  0  0
  192.1130  175.5510  147.0780 C   0  0  0  0  0  1  0  0  0  0  0  0
  191.7070  177.5230  148.2790 O   0  0  0  0  0  0  0  0  0  0  0  0
  191.2450  176.6650  147.5460 C   0  0  0  0  0  0  0  0  0  0  0  0
  185.7520  178.3710  137.0490 O   0  0  0  0  0  0  0  0  0  0  0  0
  191.5190  176.0800  136.2830 C   0  0  0  0  0  1  0  0  0  0  0  0
  187.1250  178.6600  136.8180 C   0  0  2  0  0  3  0  0  0  0  0  0
  187.1970  176.0820  136.3930 C   0  0  0  0  0  2  0  0  0  0  0  0
  187.9220  175.0920  137.2920 C   0  0  0  0  0  2  0  0  0  0  0  0
  189.3750  175.0170  136.9160 C   0  0  0  0  0  0  0  0  0  0  0  0
  187.4570  178.3220  135.4900 O   0  0  0  0  0  0  0  0  0  0  0  0
  189.4160  177.5030  136.6740 C   0  0  0  0  0  2  0  0  0  0  0  0
  187.8980  177.4370  136.4890 C   0  0  1  0  0  0  0  0  0  0  0  0
  190.1230  173.4230  136.8460 Cl  0  0  0  0  0  0  0  0  0  0  0  0
  190.0680  176.1390  136.6310 C   0  0  0  0  0  0  0  0  0  0  0  0
  182.7670  177.8680  137.6820 C   0  0  0  0  0  2  0  0  0  0  0  0
  183.0570  176.5560  136.9760 C   0  0  0  0  0  2  0  0  0  0  0  0
  182.8220  175.3720  137.9140 C   0  0  2  0  0  3  0  0  0  0  0  0
  184.8990  172.8960  136.3090 C   0  0  0  0  0  0  0  0  0  0  0  0
  182.9530  174.0970  135.6860 C   0  0  1  0  0  3  0  0  0  0  0  0
  186.0310  172.2030  136.2190 C   0  0  0  0  0  2  0  0  0  0  0  0
  184.0610  173.2180  135.1320 C   0  0  0  0  0  2  0  0  0  0  0  0
  181.7160  173.6300  135.2440 O   0  0  0  0  0  1  0  0  0  0  0  0
  184.3650  173.4100  137.5910 C   0  0  0  0  0  2  0  0  0  0  0  0
  183.0240  174.0190  137.2180 C   0  0  1  0  0  3  0  0  0  0  0  0
  181.6120  175.3220  139.9810 F   0  0  0  0  0  0  0  0  0  0  0  0
  181.4660  175.4700  138.6140 C   0  0  0  0  0  3  0  0  0  0  0  0
  180.5780  174.5260  138.1290 F   0  0  0  0  0  0  0  0  0  0  0  0
  1  4  1  0  0  0  0
  2  8  2  0  0  0  0
  2  1  1  0  0  0  0
  3  6  1  0  0  0  0
  4  3  2  0  0  0  0
  5  6  2  0  0  0  0
  6 10  1  0  0  0  0
  7  4  1  0  0  0  0
  7  9  2  0  0  0  0
  8  7  1  0  0  0  0
  9  5  1  0  0  0  0
 10 11  1  1  0  0  0
 12 13  1  0  0  0  0
 12 17  1  0  0  0  0
 13 14  1  0  0  0  0
 14 24  1  1  0  0  0
 14 18  1  0  0  0  0
 15 18  1  0  0  0  0
 15 16  1  1  0  0  0
 17 10  1  6  0  0  0
 17 15  1  0  0  0  0
 20 19  1  1  0  0  0
 20 13  1  0  0  0  0
 21 20  1  0  0  0  0
 22 21  1  0  0  0  0
 23 21  2  0  0  0  0
 24 25  1  0  0  0  0
 25 28  1  0  0  0  0
 26 28  1  0  0  0  0
 28 27  2  0  0  0  0
 29  2  1  0  0  0  0
 30 39  1  0  0  0  0
 31 29  1  6  0  0  0
 32 33  1  0  0  0  0
 34 33  1  0  0  0  0
 35 37  1  0  0  0  0
 35 31  1  0  0  0  0
 37 32  1  1  0  0  0
 37 36  1  0  0  0  0
 37 31  1  0  0  0  0
 38 34  1  0  0  0  0
 39 36  1  0  0  0  0
 39 34  2  0  0  0  0
 40  8  1  0  0  0  0
 41 40  1  0  0  0  0
 42 41  1  6  0  0  0
 42 51  1  0  0  0  0
 43 48  1  0  0  0  0
 44 47  1  6  0  0  0
 44 49  1  0  0  0  0
 45 43  2  0  0  0  0
 46 44  1  0  0  0  0
 46 43  1  0  0  0  0
 49 48  1  0  0  0  0
 49 42  1  1  0  0  0
 51 50  1  0  0  0  0
 52 51  1  0  0  0  0
M  END
>  <MODEL>
4

>  <REMARK>
 VINA RESULT:      -8.5      4.866     10.022
  Name = 
  14 active torsions:
  status: ('A' for Active; 'I' for Inactive)
    1  A    between atoms: C_4  and  C_28
    2  A    between atoms: C_4  and  C_45
    3  A    between atoms: O_6  and  C_10
    4  A    between atoms: O_6  and  C_17
    5  A    between atoms: N_9  and  C_50
    6  A    between atoms: C_16  and  C_21
    7  A    between atoms: C_18  and  C_50
    8  A    between atoms: C_21  and  C_42
    9  A    between atoms: C_21  and  C_47
   10  A    between atoms: C_30  and  C_36
   11  A    between atoms: C_36  and  C_44
   12  A    between atoms: C_37  and  C_45
   13  A    between atoms: C_38  and  C_40
   14  A    between atoms: C_40  and  C_47
                            x       y       z     vdW  Elec       q    Type
                         _______ _______ _______ _____ _____    ______ ____

>  <TORSDO>
F 14

$$$$
=
 OpenBabel10222417473D

 52 57  0  0  1  0  0  0  0  0999 V2000
  184.5150  178.5310  139.9310 O   0  0  0  0  0  0  0  0  0  0  0  0
  185.6470  178.7100  140.5900 C   0  0  0  0  0  0  0  0  0  0  0  0
  182.1830  178.3650  140.5880 C   0  0  0  0  0  3  0  0  0  0  0  0
  183.5470  178.5270  140.8190 C   0  0  0  0  0  0  0  0  0  0  0  0
  181.8480  178.5820  143.0060 C   0  0  0  0  0  3  0  0  0  0  0  0
  181.3220  178.3970  141.7010 C   0  0  0  0  0  0  0  0  0  0  0  0
  184.0490  178.7080  142.0840 C   0  0  0  0  0  0  0  0  0  0  0  0
  185.4120  178.8340  141.9520 C   0  0  0  0  0  0  0  0  0  0  0  0
  183.2290  178.7400  143.2080 C   0  0  0  0  0  3  0  0  0  0  0  0
  179.8490  178.2270  141.4930 C   0  0  1  0  0  3  0  0  0  0  0  0
  179.1990  178.3300  142.7270 O   0  0  0  0  0  1  0  0  0  0  0  0
  179.6400  178.8240  139.0610 C   0  0  0  0  0  2  0  0  0  0  0  0
  179.0260  179.7200  138.0700 N   0  0  0  0  0  0  0  0  0  0  0  0
  179.6940  181.0310  138.2280 C   0  0  2  0  0  3  0  0  0  0  0  0
  179.8830  180.6420  140.7160 C   0  0  1  0  0  3  0  0  0  0  0  0
  179.4820  181.1530  141.9500 O   0  0  0  0  0  1  0  0  0  0  0  0
  179.2910  179.2490  140.4870 C   0  0  2  0  0  3  0  0  0  0  0  0
  179.4240  181.5970  139.6240 C   0  0  0  0  0  2  0  0  0  0  0  0
  178.9350  177.7910  136.6930 O   0  0  0  0  0  1  0  0  0  0  0  0
  179.3020  179.1390  136.7360 C   0  0  2  0  0  3  0  0  0  0  0  0
  180.7620  179.2210  136.3730 C   0  0  0  0  0  0  0  0  0  0  0  0
  181.7300  178.2720  136.9890 C   0  0  0  0  0  1  0  0  0  0  0  0
  181.1560  180.0490  135.5680 O   0  0  0  0  0  0  0  0  0  0  0  0
  179.1850  182.0740  137.2340 C   0  0  0  0  0  2  0  0  0  0  0  0
  179.5980  183.4740  137.6660 C   0  0  0  0  0  2  0  0  0  0  0  0
  181.9020  184.6380  137.5920 C   0  0  0  0  0  1  0  0  0  0  0  0
  180.8490  183.7640  135.6880 O   0  0  0  0  0  0  0  0  0  0  0  0
  180.7880  183.9410  136.8930 C   0  0  0  0  0  0  0  0  0  0  0  0
  186.9030  178.7780  139.9890 O   0  0  0  0  0  0  0  0  0  0  0  0
  191.6570  175.2940  137.9040 C   0  0  0  0  0  1  0  0  0  0  0  0
  187.9310  177.8530  140.3170 C   0  0  2  0  0  3  0  0  0  0  0  0
  188.7190  178.4650  137.9010 C   0  0  0  0  0  2  0  0  0  0  0  0
  188.7050  177.4930  136.7300 C   0  0  0  0  0  2  0  0  0  0  0  0
  189.9530  176.6560  136.7350 C   0  0  0  0  0  0  0  0  0  0  0  0
  189.1790  178.5090  140.2860 O   0  0  0  0  0  0  0  0  0  0  0  0
  189.7440  176.4030  139.2120 C   0  0  0  0  0  2  0  0  0  0  0  0
  188.8870  177.6710  139.1970 C   0  0  1  0  0  0  0  0  0  0  0  0
  190.7640  176.3840  135.1950 Cl  0  0  0  0  0  0  0  0  0  0  0  0
  190.4330  176.1490  137.8890 C   0  0  0  0  0  0  0  0  0  0  0  0
  186.4200  178.9930  143.0370 C   0  0  0  0  0  2  0  0  0  0  0  0
  186.3040  177.8370  144.0150 C   0  0  0  0  0  2  0  0  0  0  0  0
  187.2230  178.0510  145.2170 C   0  0  2  0  0  3  0  0  0  0  0  0
  190.4630  177.0370  146.4420 C   0  0  0  0  0  0  0  0  0  0  0  0
  189.6160  177.7240  144.3370 C   0  0  1  0  0  3  0  0  0  0  0  0
  191.3120  176.7990  147.4380 C   0  0  0  0  0  2  0  0  0  0  0  0
  190.9070  177.4730  145.0980 C   0  0  0  0  0  2  0  0  0  0  0  0
  189.6670  177.0850  143.1000 O   0  0  0  0  0  1  0  0  0  0  0  0
  188.9960  176.8910  146.5760 C   0  0  0  0  0  2  0  0  0  0  0  0
  188.4660  177.1500  145.1760 C   0  0  1  0  0  3  0  0  0  0  0  0
  185.1060  177.7720  146.3030 F   0  0  0  0  0  0  0  0  0  0  0  0
  186.4600  177.9290  146.5370 C   0  0  0  0  0  3  0  0  0  0  0  0
  186.6730  179.0310  147.3470 F   0  0  0  0  0  0  0  0  0  0  0  0
  1  2  1  0  0  0  0
  1  4  1  0  0  0  0
  2  8  2  0  0  0  0
  3  4  2  0  0  0  0
  3  6  1  0  0  0  0
  4  7  1  0  0  0  0
  5  9  1  0  0  0  0
  6  5  2  0  0  0  0
  7  9  2  0  0  0  0
  8  7  1  0  0  0  0
  8 40  1  0  0  0  0
 10  6  1  0  0  0  0
 10 11  1  1  0  0  0
 12 17  1  0  0  0  0
 13 14  1  0  0  0  0
 13 12  1  0  0  0  0
 14 24  1  6  0  0  0
 14 18  1  0  0  0  0
 15 16  1  1  0  0  0
 17 15  1  0  0  0  0
 17 10  1  1  0  0  0
 18 15  1  0  0  0  0
 20 19  1  1  0  0  0
 20 13  1  0  0  0  0
 21 20  1  0  0  0  0
 21 22  1  0  0  0  0
 23 21  2  0  0  0  0
 24 25  1  0  0  0  0
 27 28  2  0  0  0  0
 28 26  1  0  0  0  0
 28 25  1  0  0  0  0
 29  2  1  0  0  0  0
 31 29  1  6  0  0  0
 33 34  1  0  0  0  0
 33 32  1  0  0  0  0
 34 39  2  0  0  0  0
 35 31  1  0  0  0  0
 37 32  1  6  0  0  0
 37 36  1  0  0  0  0
 37 35  1  0  0  0  0
 37 31  1  0  0  0  0
 38 34  1  0  0  0  0
 39 30  1  0  0  0  0
 39 36  1  0  0  0  0
 40 41  1  0  0  0  0
 42 41  1  6  0  0  0
 42 51  1  0  0  0  0
 43 48  1  0  0  0  0
 43 45  2  0  0  0  0
 44 47  1  6  0  0  0
 44 46  1  0  0  0  0
 44 49  1  0  0  0  0
 46 43  1  0  0  0  0
 49 42  1  1  0  0  0
 49 48  1  0  0  0  0
 50 51  1  0  0  0  0
 51 52  1  0  0  0  0
M  END
>  <MODEL>
5

>  <REMARK>
 VINA RESULT:      -8.2      5.002     11.756
  Name = 
  14 active torsions:
  status: ('A' for Active; 'I' for Inactive)
    1  A    between atoms: C_4  and  C_28
    2  A    between atoms: C_4  and  C_45
    3  A    between atoms: O_6  and  C_10
    4  A    between atoms: O_6  and  C_17
    5  A    between atoms: N_9  and  C_50
    6  A    between atoms: C_16  and  C_21
    7  A    between atoms: C_18  and  C_50
    8  A    between atoms: C_21  and  C_42
    9  A    between atoms: C_21  and  C_47
   10  A    between atoms: C_30  and  C_36
   11  A    between atoms: C_36  and  C_44
   12  A    between atoms: C_37  and  C_45
   13  A    between atoms: C_38  and  C_40
   14  A    between atoms: C_40  and  C_47
                            x       y       z     vdW  Elec       q    Type
                         _______ _______ _______ _____ _____    ______ ____

>  <TORSDO>
F 14

$$$$
=
 OpenBabel10222417473D

 52 57  0  0  1  0  0  0  0  0999 V2000
  185.6590  178.8850  140.6840 O   0  0  0  0  0  0  0  0  0  0  0  0
  184.7560  178.8900  139.7190 C   0  0  0  0  0  0  0  0  0  0  0  0
  185.5450  178.8890  143.1100 C   0  0  0  0  0  3  0  0  0  0  0  0
  185.0080  178.8880  141.8240 C   0  0  0  0  0  0  0  0  0  0  0  0
  183.2480  178.8990  143.9630 C   0  0  0  0  0  3  0  0  0  0  0  0
  184.6470  178.8910  144.1940 C   0  0  0  0  0  0  0  0  0  0  0  0
  183.6520  178.8940  141.6080 C   0  0  0  0  0  0  0  0  0  0  0  0
  183.4710  178.8900  140.2450 C   0  0  0  0  0  0  0  0  0  0  0  0
  182.7350  178.9020  142.6560 C   0  0  0  0  0  3  0  0  0  0  0  0
  185.1870  178.8920  145.5910 C   0  0  1  0  0  3  0  0  0  0  0  0
  184.5530  177.8840  146.3260 O   0  0  0  0  0  1  0  0  0  0  0  0
  187.1490  177.7580  144.5040 C   0  0  0  0  0  2  0  0  0  0  0  0
  188.6140  177.6540  144.4290 N   0  0  0  0  0  0  0  0  0  0  0  0
  189.0440  176.9780  145.6730 C   0  0  2  0  0  3  0  0  0  0  0  0
  187.1910  178.1280  146.9460 C   0  0  1  0  0  3  0  0  0  0  0  0
  186.9540  179.0190  147.9920 O   0  0  0  0  0  1  0  0  0  0  0  0
  186.7160  178.7150  145.6150 C   0  0  2  0  0  3  0  0  0  0  0  0
  188.6820  177.8320  146.8910 C   0  0  0  0  0  2  0  0  0  0  0  0
  189.6950  175.7160  143.5930 O   0  0  0  0  0  1  0  0  0  0  0  0
  188.9250  176.8280  143.2390 C   0  0  2  0  0  3  0  0  0  0  0  0
  189.6960  177.5980  142.2000 C   0  0  0  0  0  0  0  0  0  0  0  0
  189.2150  177.6210  140.7910 C   0  0  0  0  0  1  0  0  0  0  0  0
  190.7040  178.2150  142.5040 O   0  0  0  0  0  0  0  0  0  0  0  0
  190.5550  176.7620  145.7320 C   0  0  0  0  0  2  0  0  0  0  0  0
  191.0400  176.7420  147.1750 C   0  0  0  0  0  2  0  0  0  0  0  0
  192.9170  175.7220  148.6250 C   0  0  0  0  0  1  0  0  0  0  0  0
  192.4230  174.9720  146.4590 O   0  0  0  0  0  0  0  0  0  0  0  0
  192.1440  175.7520  147.3540 C   0  0  0  0  0  0  0  0  0  0  0  0
  185.0580  178.8830  138.3580 O   0  0  0  0  0  0  0  0  0  0  0  0
  186.6300  173.2420  136.1680 C   0  0  0  0  0  1  0  0  0  0  0  0
  186.0890  178.0570  137.8340 C   0  0  2  0  0  3  0  0  0  0  0  0
  184.0460  176.5280  137.2690 C   0  0  0  0  0  2  0  0  0  0  0  0
  183.7860  175.1800  137.9250 C   0  0  0  0  0  2  0  0  0  0  0  0
  184.5610  174.1020  137.2210 C   0  0  0  0  0  0  0  0  0  0  0  0
  185.8890  177.8820  136.4490 O   0  0  0  0  0  0  0  0  0  0  0  0
  186.5340  175.6320  137.1060 C   0  0  0  0  0  2  0  0  0  0  0  0
  185.5510  176.7940  137.2720 C   0  0  1  0  0  0  0  0  0  0  0  0
  183.7400  172.5780  136.8980 Cl  0  0  0  0  0  0  0  0  0  0  0  0
  185.8390  174.3140  136.8430 C   0  0  0  0  0  0  0  0  0  0  0  0
  182.1840  178.9480  139.4980 C   0  0  0  0  0  2  0  0  0  0  0  0
  182.1840  180.1540  138.5760 C   0  0  0  0  0  2  0  0  0  0  0  0
  181.1850  179.9630  137.4340 C   0  0  2  0  0  3  0  0  0  0  0  0
  180.6390  183.3260  136.2430 C   0  0  0  0  0  0  0  0  0  0  0  0
  180.4040  182.2400  138.3370 C   0  0  1  0  0  3  0  0  0  0  0  0
  180.8080  184.2840  135.3370 C   0  0  0  0  0  2  0  0  0  0  0  0
  180.4400  183.6100  137.6820 C   0  0  0  0  0  2  0  0  0  0  0  0
  179.2970  182.1500  139.1790 O   0  0  0  0  0  1  0  0  0  0  0  0
  180.6320  181.8840  135.9050 C   0  0  0  0  0  2  0  0  0  0  0  0
  180.2950  181.1960  137.2170 C   0  0  1  0  0  3  0  0  0  0  0  0
  180.1470  178.0760  136.3860 F   0  0  0  0  0  0  0  0  0  0  0  0
  180.3700  178.6810  137.6090 C   0  0  0  0  0  3  0  0  0  0  0  0
  179.1630  178.9310  138.2390 F   0  0  0  0  0  0  0  0  0  0  0  0
  1  4  1  0  0  0  0
  2  8  2  0  0  0  0
  2  1  1  0  0  0  0
  3  6  1  0  0  0  0
  4  3  2  0  0  0  0
  5  6  2  0  0  0  0
  6 10  1  0  0  0  0
  7  4  1  0  0  0  0
  7  9  2  0  0  0  0
  8  7  1  0  0  0  0
  9  5  1  0  0  0  0
 10 11  1  1  0  0  0
 12 17  1  0  0  0  0
 13 12  1  0  0  0  0
 13 14  1  0  0  0  0
 14 24  1  6  0  0  0
 14 18  1  0  0  0  0
 15 16  1  1  0  0  0
 17 10  1  1  0  0  0
 17 15  1  0  0  0  0
 18 15  1  0  0  0  0
 20 19  1  1  0  0  0
 20 13  1  0  0  0  0
 21 23  2  0  0  0  0
 21 20  1  0  0  0  0
 22 21  1  0  0  0  0
 24 25  1  0  0  0  0
 25 28  1  0  0  0  0
 27 28  2  0  0  0  0
 28 26  1  0  0  0  0
 29  2  1  0  0  0  0
 30 39  1  0  0  0  0
 31 29  1  1  0  0  0
 32 37  1  0  0  0  0
 32 33  1  0  0  0  0
 34 33  1  0  0  0  0
 35 37  1  0  0  0  0
 35 31  1  0  0  0  0
 37 36  1  6  0  0  0
 37 31  1  0  0  0  0
 38 34  1  0  0  0  0
 39 36  1  0  0  0  0
 39 34  2  0  0  0  0
 40  8  1  0  0  0  0
 41 40  1  0  0  0  0
 42 51  1  0  0  0  0
 42 41  1  1  0  0  0
 43 46  1  0  0  0  0
 44 47  1  1  0  0  0
 45 43  2  0  0  0  0
 46 44  1  0  0  0  0
 48 43  1  0  0  0  0
 48 49  1  0  0  0  0
 49 42  1  1  0  0  0
 49 44  1  0  0  0  0
 50 51  1  0  0  0  0
 51 52  1  0  0  0  0
M  END
>  <MODEL>
6

>  <REMARK>
 VINA RESULT:      -8.2      5.800     10.031
  Name = 
  14 active torsions:
  status: ('A' for Active; 'I' for Inactive)
    1  A    between atoms: C_4  and  C_28
    2  A    between atoms: C_4  and  C_45
    3  A    between atoms: O_6  and  C_10
    4  A    between atoms: O_6  and  C_17
    5  A    between atoms: N_9  and  C_50
    6  A    between atoms: C_16  and  C_21
    7  A    between atoms: C_18  and  C_50
    8  A    between atoms: C_21  and  C_42
    9  A    between atoms: C_21  and  C_47
   10  A    between atoms: C_30  and  C_36
   11  A    between atoms: C_36  and  C_44
   12  A    between atoms: C_37  and  C_45
   13  A    between atoms: C_38  and  C_40
   14  A    between atoms: C_40  and  C_47
                            x       y       z     vdW  Elec       q    Type
                         _______ _______ _______ _____ _____    ______ ____

>  <TORSDO>
F 14

$$$$
=
 OpenBabel10222417473D

 52 57  0  0  1  0  0  0  0  0999 V2000
  186.6380  179.0030  140.3090 O   0  0  0  0  0  0  0  0  0  0  0  0
  185.9800  178.8270  141.4430 C   0  0  0  0  0  0  0  0  0  0  0  0
  188.7650  178.2130  139.4470 C   0  0  0  0  0  3  0  0  0  0  0  0
  187.7560  178.3210  140.4010 C   0  0  0  0  0  0  0  0  0  0  0  0
  189.9620  176.7650  141.0190 C   0  0  0  0  0  3  0  0  0  0  0  0
  189.8830  177.4190  139.7630 C   0  0  0  0  0  0  0  0  0  0  0  0
  187.8370  177.6830  141.6140 C   0  0  0  0  0  0  0  0  0  0  0  0
  186.6890  177.9980  142.3010 C   0  0  0  0  0  0  0  0  0  0  0  0
  188.9300  176.8940  141.9630 C   0  0  0  0  0  3  0  0  0  0  0  0
  190.9890  177.2780  138.7640 C   0  0  1  0  0  3  0  0  0  0  0  0
  192.0630  176.6100  139.3610 O   0  0  0  0  0  1  0  0  0  0  0  0
  189.1470  177.0620  137.0680 C   0  0  0  0  0  2  0  0  0  0  0  0
  188.7210  176.4630  135.7940 N   0  0  0  0  0  0  0  0  0  0  0  0
  188.4980  175.0250  136.0670 C   0  0  2  0  0  3  0  0  0  0  0  0
  190.4040  175.0390  137.7240 C   0  0  1  0  0  3  0  0  0  0  0  0
  191.6550  174.4780  137.9770 O   0  0  0  0  0  1  0  0  0  0  0  0
  190.5220  176.5470  137.4920 C   0  0  2  0  0  3  0  0  0  0  0  0
  189.8080  174.3610  136.5000 C   0  0  0  0  0  2  0  0  0  0  0  0
  187.7120  178.2430  134.5960 O   0  0  0  0  0  1  0  0  0  0  0  0
  187.4580  177.1320  135.4050 C   0  0  2  0  0  3  0  0  0  0  0  0
  186.6790  177.6130  136.6010 C   0  0  0  0  0  0  0  0  0  0  0  0
  185.8400  176.6520  137.3710 C   0  0  0  0  0  1  0  0  0  0  0  0
  186.7400  178.7790  136.9540 O   0  0  0  0  0  0  0  0  0  0  0  0
  188.0140  174.2610  134.8360 C   0  0  0  0  0  2  0  0  0  0  0  0
  186.6120  173.7140  135.0600 C   0  0  0  0  0  2  0  0  0  0  0  0
  185.6510  172.6910  137.2270 C   0  0  0  0  0  1  0  0  0  0  0  0
  187.4190  171.7230  136.0310 O   0  0  0  0  0  0  0  0  0  0  0  0
  186.6180  172.6390  136.0980 C   0  0  0  0  0  0  0  0  0  0  0  0
  184.7370  179.3910  141.7270 O   0  0  0  0  0  0  0  0  0  0  0  0
  179.4340  177.9440  138.7490 C   0  0  0  0  0  1  0  0  0  0  0  0
  183.5520  178.6080  141.7250 C   0  0  2  0  0  3  0  0  0  0  0  0
  183.4450  179.4730  139.2620 C   0  0  0  0  0  2  0  0  0  0  0  0
  182.3860  180.4360  138.7440 C   0  0  0  0  0  2  0  0  0  0  0  0
  181.1490  179.6830  138.3460 C   0  0  0  0  0  0  0  0  0  0  0  0
  183.6710  177.5810  140.7670 O   0  0  0  0  0  0  0  0  0  0  0  0
  181.3720  178.2810  140.4020 C   0  0  0  0  0  2  0  0  0  0  0  0
  182.8520  178.6680  140.4180 C   0  0  1  0  0  0  0  0  0  0  0  0
  180.3590  180.1400  136.8390 Cl  0  0  0  0  0  0  0  0  0  0  0  0
  180.6780  178.6820  139.1190 C   0  0  0  0  0  0  0  0  0  0  0  0
  186.3210  177.5990  143.6880 C   0  0  0  0  0  2  0  0  0  0  0  0
  187.5450  177.0610  144.4060 C   0  0  0  0  0  2  0  0  0  0  0  0
  187.9120  177.9510  145.5930 C   0  0  2  0  0  3  0  0  0  0  0  0
  191.2930  177.9570  144.3310 C   0  0  0  0  0  0  0  0  0  0  0  0
  190.1410  176.7380  146.0060 C   0  0  1  0  0  3  0  0  0  0  0  0
  192.1920  178.2780  143.4050 C   0  0  0  0  0  2  0  0  0  0  0  0
  191.4260  176.7640  145.1970 C   0  0  0  0  0  2  0  0  0  0  0  0
  190.4380  176.5740  147.3580 O   0  0  0  0  0  1  0  0  0  0  0  0
  190.0740  178.7570  144.5870 C   0  0  0  0  0  2  0  0  0  0  0  0
  189.4300  178.0810  145.7860 C   0  0  1  0  0  3  0  0  0  0  0  0
  185.8460  177.7810  146.7940 F   0  0  0  0  0  0  0  0  0  0  0  0
  187.1990  177.5060  146.8710 C   0  0  0  0  0  3  0  0  0  0  0  0
  187.7410  178.1150  147.9900 F   0  0  0  0  0  0  0  0  0  0  0  0
  1  4  1  0  0  0  0
  1  2  1  0  0  0  0
  2 29  1  0  0  0  0
  2  8  2  0  0  0  0
  3  6  2  0  0  0  0
  3  4  1  0  0  0  0
  4  7  2  0  0  0  0
  5  9  2  0  0  0  0
  6  5  1  0  0  0  0
  7  9  1  0  0  0  0
  7  8  1  0  0  0  0
  8 40  1  0  0  0  0
 10 11  1  1  0  0  0
 10  6  1  0  0  0  0
 12 17  1  0  0  0  0
 13 14  1  0  0  0  0
 13 12  1  0  0  0  0
 14 24  1  6  0  0  0
 14 18  1  0  0  0  0
 15 16  1  6  0  0  0
 17 15  1  0  0  0  0
 17 10  1  1  0  0  0
 18 15  1  0  0  0  0
 20 19  1  6  0  0  0
 20 13  1  0  0  0  0
 20 21  1  0  0  0  0
 21 23  2  0  0  0  0
 21 22  1  0  0  0  0
 24 25  1  0  0  0  0
 25 28  1  0  0  0  0
 27 28  2  0  0  0  0
 28 26  1  0  0  0  0
 30 39  1  0  0  0  0
 31 29  1  6  0  0  0
 33 32  1  0  0  0  0
 34 33  1  0  0  0  0
 34 39  2  0  0  0  0
 35 31  1  0  0  0  0
 36 37  1  0  0  0  0
 37 32  1  6  0  0  0
 37 35  1  0  0  0  0
 37 31  1  0  0  0  0
 38 34  1  0  0  0  0
 39 36  1  0  0  0  0
 40 41  1  0  0  0  0
 42 41  1  6  0  0  0
 42 51  1  0  0  0  0
 43 48  1  0  0  0  0
 43 46  1  0  0  0  0
 44 47  1  1  0  0  0
 45 43  2  0  0  0  0
 46 44  1  0  0  0  0
 48 49  1  0  0  0  0
 49 42  1  6  0  0  0
 49 44  1  0  0  0  0
 50 51  1  0  0  0  0
 51 52  1  0  0  0  0
M  END
>  <MODEL>
7

>  <REMARK>
 VINA RESULT:      -8.1      3.770      5.591
  Name = 
  14 active torsions:
  status: ('A' for Active; 'I' for Inactive)
    1  A    between atoms: C_4  and  C_28
    2  A    between atoms: C_4  and  C_45
    3  A    between atoms: O_6  and  C_10
    4  A    between atoms: O_6  and  C_17
    5  A    between atoms: N_9  and  C_50
    6  A    between atoms: C_16  and  C_21
    7  A    between atoms: C_18  and  C_50
    8  A    between atoms: C_21  and  C_42
    9  A    between atoms: C_21  and  C_47
   10  A    between atoms: C_30  and  C_36
   11  A    between atoms: C_36  and  C_44
   12  A    between atoms: C_37  and  C_45
   13  A    between atoms: C_38  and  C_40
   14  A    between atoms: C_40  and  C_47
                            x       y       z     vdW  Elec       q    Type
                         _______ _______ _______ _____ _____    ______ ____

>  <TORSDO>
F 14

$$$$
=
 OpenBabel10222417473D

 52 57  0  0  1  0  0  0  0  0999 V2000
  190.1550  176.9060  139.8410 O   0  0  0  0  0  0  0  0  0  0  0  0
  188.9780  177.4990  139.9450 C   0  0  0  0  0  0  0  0  0  0  0  0
  191.5030  176.1340  137.9750 C   0  0  0  0  0  3  0  0  0  0  0  0
  190.3860  176.7250  138.5620 C   0  0  0  0  0  0  0  0  0  0  0  0
  190.4550  176.5450  135.7990 C   0  0  0  0  0  3  0  0  0  0  0  0
  191.5360  176.0480  136.5710 C   0  0  0  0  0  0  0  0  0  0  0  0
  189.3440  177.2080  137.8080 C   0  0  0  0  0  0  0  0  0  0  0  0
  188.4240  177.7180  138.6920 C   0  0  0  0  0  0  0  0  0  0  0  0
  189.3400  177.1340  136.4180 C   0  0  0  0  0  3  0  0  0  0  0  0
  192.7190  175.4190  135.9030 C   0  0  1  0  0  3  0  0  0  0  0  0
  193.7240  176.3810  135.7540 O   0  0  0  0  0  1  0  0  0  0  0  0
  194.6330  174.4830  137.2360 C   0  0  0  0  0  2  0  0  0  0  0  0
  195.1100  173.3780  138.0810 N   0  0  0  0  0  0  0  0  0  0  0  0
  195.3090  172.2220  137.1780 C   0  0  2  0  0  3  0  0  0  0  0  0
  193.3320  172.9590  135.7900 C   0  0  1  0  0  3  0  0  0  0  0  0
  192.0660  172.5570  135.3660 O   0  0  0  0  0  1  0  0  0  0  0  0
  193.2360  174.1980  136.6850 C   0  0  2  0  0  3  0  0  0  0  0  0
  193.9760  171.8080  136.5490 C   0  0  0  0  0  2  0  0  0  0  0  0
  196.1820  174.7760  139.6690 O   0  0  0  0  0  1  0  0  0  0  0  0
  196.3940  173.8150  138.6760 C   0  0  2  0  0  3  0  0  0  0  0  0
  197.3170  174.4220  137.6510 C   0  0  0  0  0  0  0  0  0  0  0  0
  198.6360  173.7870  137.3780 C   0  0  0  0  0  1  0  0  0  0  0  0
  196.9870  175.4210  137.0330 O   0  0  0  0  0  0  0  0  0  0  0  0
  195.8420  170.9910  137.9080 C   0  0  0  0  0  2  0  0  0  0  0  0
  196.1850  169.8850  136.9190 C   0  0  0  0  0  2  0  0  0  0  0  0
  198.6920  170.1110  137.4910 C   0  0  0  0  0  1  0  0  0  0  0  0
  197.8900  169.9770  135.2930 O   0  0  0  0  0  0  0  0  0  0  0  0
  197.6090  169.9860  136.4790 C   0  0  0  0  0  0  0  0  0  0  0  0
  188.3850  177.8640  141.1530 O   0  0  0  0  0  0  0  0  0  0  0  0
  187.9020  177.6170  147.3820 C   0  0  0  0  0  1  0  0  0  0  0  0
  189.0610  177.6920  142.3910 C   0  0  2  0  0  3  0  0  0  0  0  0
  186.6060  177.4720  143.2600 C   0  0  0  0  0  2  0  0  0  0  0  0
  185.9330  178.4860  144.1730 C   0  0  0  0  0  2  0  0  0  0  0  0
  186.2790  178.2030  145.6080 C   0  0  0  0  0  0  0  0  0  0  0  0
  188.7660  176.4160  142.9130 O   0  0  0  0  0  0  0  0  0  0  0  0
  188.6440  177.7730  144.9270 C   0  0  0  0  0  2  0  0  0  0  0  0
  188.1130  177.5050  143.5160 C   0  0  1  0  0  0  0  0  0  0  0  0
  184.9840  178.3000  146.7980 Cl  0  0  0  0  0  0  0  0  0  0  0  0
  187.5400  177.8730  145.9560 C   0  0  0  0  0  0  0  0  0  0  0  0
  187.0920  178.3080  138.3790 C   0  0  0  0  0  2  0  0  0  0  0  0
  186.1520  177.2190  137.8940 C   0  0  0  0  0  2  0  0  0  0  0  0
  184.7020  177.7010  137.9270 C   0  0  2  0  0  3  0  0  0  0  0  0
  181.9040  177.6270  140.2050 C   0  0  0  0  0  0  0  0  0  0  0  0
  183.7480  179.0790  139.8760 C   0  0  1  0  0  3  0  0  0  0  0  0
  180.7030  177.1830  140.5630 C   0  0  0  0  0  2  0  0  0  0  0  0
  182.4080  178.9660  140.5830 C   0  0  0  0  0  2  0  0  0  0  0  0
  184.7210  179.5080  140.7770 O   0  0  0  0  0  1  0  0  0  0  0  0
  182.8530  176.8290  139.3960 C   0  0  0  0  0  2  0  0  0  0  0  0
  184.1070  177.6850  139.3430 C   0  0  1  0  0  3  0  0  0  0  0  0
  184.6200  176.3530  135.9490 F   0  0  0  0  0  0  0  0  0  0  0  0
  183.8340  176.9410  136.9230 C   0  0  0  0  0  3  0  0  0  0  0  0
  182.8970  177.7710  136.3340 F   0  0  0  0  0  0  0  0  0  0  0  0
  1  2  1  0  0  0  0
  2 29  1  0  0  0  0
  3  4  1  0  0  0  0
  4  1  1  0  0  0  0
  5  9  2  0  0  0  0
  5  6  1  0  0  0  0
  6  3  2  0  0  0  0
  7  4  2  0  0  0  0
  7  8  1  0  0  0  0
  8  2  2  0  0  0  0
  9  7  1  0  0  0  0
 10 11  1  1  0  0  0
 10  6  1  0  0  0  0
 12 13  1  0  0  0  0
 13 20  1  0  0  0  0
 14 24  1  1  0  0  0
 14 13  1  0  0  0  0
 15 16  1  1  0  0  0
 15 18  1  0  0  0  0
 15 17  1  0  0  0  0
 17 10  1  6  0  0  0
 17 12  1  0  0  0  0
 18 14  1  0  0  0  0
 20 19  1  1  0  0  0
 21 20  1  0  0  0  0
 22 21  1  0  0  0  0
 23 21  2  0  0  0  0
 25 24  1  0  0  0  0
 27 28  2  0  0  0  0
 28 25  1  0  0  0  0
 28 26  1  0  0  0  0
 31 29  1  6  0  0  0
 31 35  1  0  0  0  0
 31 37  1  0  0  0  0
 32 33  1  0  0  0  0
 33 34  1  0  0  0  0
 34 39  2  0  0  0  0
 34 38  1  0  0  0  0
 35 37  1  0  0  0  0
 36 39  1  0  0  0  0
 37 32  1  6  0  0  0
 37 36  1  0  0  0  0
 39 30  1  0  0  0  0
 40  8  1  0  0  0  0
 41 40  1  0  0  0  0
 42 41  1  1  0  0  0
 43 45  2  0  0  0  0
 43 46  1  0  0  0  0
 44 46  1  0  0  0  0
 44 47  1  1  0  0  0
 48 43  1  0  0  0  0
 49 42  1  6  0  0  0
 49 48  1  0  0  0  0
 49 44  1  0  0  0  0
 50 51  1  0  0  0  0
 51 42  1  0  0  0  0
 52 51  1  0  0  0  0
M  END
>  <MODEL>
8

>  <REMARK>
 VINA RESULT:      -8.1      2.228      5.290
  Name = 
  14 active torsions:
  status: ('A' for Active; 'I' for Inactive)
    1  A    between atoms: C_4  and  C_28
    2  A    between atoms: C_4  and  C_45
    3  A    between atoms: O_6  and  C_10
    4  A    between atoms: O_6  and  C_17
    5  A    between atoms: N_9  and  C_50
    6  A    between atoms: C_16  and  C_21
    7  A    between atoms: C_18  and  C_50
    8  A    between atoms: C_21  and  C_42
    9  A    between atoms: C_21  and  C_47
   10  A    between atoms: C_30  and  C_36
   11  A    between atoms: C_36  and  C_44
   12  A    between atoms: C_37  and  C_45
   13  A    between atoms: C_38  and  C_40
   14  A    between atoms: C_40  and  C_47
                            x       y       z     vdW  Elec       q    Type
                         _______ _______ _______ _____ _____    ______ ____

>  <TORSDO>
F 14

$$$$
=
 OpenBabel10222417473D

 52 57  0  0  1  0  0  0  0  0999 V2000
  187.8910  177.8220  138.2170 O   0  0  0  0  0  0  0  0  0  0  0  0
  189.0150  177.5690  138.8650 C   0  0  0  0  0  0  0  0  0  0  0  0
  185.6850  178.5850  138.8880 C   0  0  0  0  0  3  0  0  0  0  0  0
  187.0110  178.2150  139.1090 C   0  0  0  0  0  0  0  0  0  0  0  0
  185.4970  178.9800  141.2990 C   0  0  0  0  0  3  0  0  0  0  0  0
  184.9210  178.9760  140.0030 C   0  0  0  0  0  0  0  0  0  0  0  0
  187.5630  178.2240  140.3660 C   0  0  0  0  0  0  0  0  0  0  0  0
  188.8670  177.8110  140.2240 C   0  0  0  0  0  0  0  0  0  0  0  0
  186.8360  178.5990  141.4910 C   0  0  0  0  0  3  0  0  0  0  0  0
  183.4930  179.3800  139.8070 C   0  0  1  0  0  3  0  0  0  0  0  0
  183.4240  180.3340  138.7850 O   0  0  0  0  0  1  0  0  0  0  0  0
  182.3540  178.0730  137.9880 C   0  0  0  0  0  2  0  0  0  0  0  0
  181.5890  176.8640  137.6460 N   0  0  0  0  0  0  0  0  0  0  0  0
  180.2350  177.0570  138.2120 C   0  0  2  0  0  3  0  0  0  0  0  0
  181.2280  178.2980  140.1760 C   0  0  1  0  0  3  0  0  0  0  0  0
  181.3610  178.2500  141.5620 O   0  0  0  0  0  1  0  0  0  0  0  0
  182.5930  178.1710  139.4940 C   0  0  2  0  0  3  0  0  0  0  0  0
  180.3120  177.1650  139.7380 C   0  0  0  0  0  2  0  0  0  0  0  0
  182.8290  176.7710  135.6270 O   0  0  0  0  0  1  0  0  0  0  0  0
  181.5400  176.7910  136.1670 C   0  0  2  0  0  3  0  0  0  0  0  0
  180.8160  177.9660  135.5630 C   0  0  0  0  0  0  0  0  0  0  0  0
  179.5090  177.7570  134.8820 C   0  0  0  0  0  1  0  0  0  0  0  0
  181.2850  179.0900  135.6400 O   0  0  0  0  0  0  0  0  0  0  0  0
  179.2990  175.8890  137.9090 C   0  0  0  0  0  2  0  0  0  0  0  0
  179.7280  174.6440  138.6740 C   0  0  0  0  0  2  0  0  0  0  0  0
  181.1150  173.2650  136.9880 C   0  0  0  0  0  1  0  0  0  0  0  0
  178.9330  172.6880  137.6240 O   0  0  0  0  0  0  0  0  0  0  0  0
  179.8570  173.4720  137.7560 C   0  0  0  0  0  0  0  0  0  0  0  0
  190.1920  177.1320  138.2580 O   0  0  0  0  0  0  0  0  0  0  0  0
  193.7270  173.0380  135.1240 C   0  0  0  0  0  1  0  0  0  0  0  0
  190.2260  175.9420  137.4830 C   0  0  2  0  0  3  0  0  0  0  0  0
  192.7870  176.1730  137.9480 C   0  0  0  0  0  2  0  0  0  0  0  0
  193.8220  176.4800  136.8750 C   0  0  0  0  0  2  0  0  0  0  0  0
  194.2420  175.2150  136.1810 C   0  0  0  0  0  0  0  0  0  0  0  0
  190.7490  174.8910  138.2640 O   0  0  0  0  0  0  0  0  0  0  0  0
  191.8550  174.4760  136.1390 C   0  0  0  0  0  2  0  0  0  0  0  0
  191.6110  175.4430  137.3010 C   0  0  1  0  0  0  0  0  0  0  0  0
  195.9580  174.9900  135.8550 Cl  0  0  0  0  0  0  0  0  0  0  0  0
  193.3260  174.2860  135.8390 C   0  0  0  0  0  0  0  0  0  0  0  0
  189.8760  177.6000  141.2990 C   0  0  0  0  0  2  0  0  0  0  0  0
  189.2560  177.9130  142.6490 C   0  0  0  0  0  2  0  0  0  0  0  0
  190.0410  177.2390  143.7750 C   0  0  2  0  0  3  0  0  0  0  0  0
  187.1800  177.7220  145.9210 C   0  0  0  0  0  0  0  0  0  0  0  0
  189.5140  177.5160  146.2760 C   0  0  1  0  0  3  0  0  0  0  0  0
  185.9050  178.0480  146.1080 C   0  0  0  0  0  2  0  0  0  0  0  0
  188.2180  177.9170  146.9580 C   0  0  0  0  0  2  0  0  0  0  0  0
  190.2210  176.6330  147.0900 O   0  0  0  0  0  1  0  0  0  0  0  0
  187.6880  177.1330  144.6600 C   0  0  0  0  0  2  0  0  0  0  0  0
  189.1470  176.8280  144.9540 C   0  0  1  0  0  3  0  0  0  0  0  0
  191.0060  179.4260  143.9320 F   0  0  0  0  0  0  0  0  0  0  0  0
  191.2320  178.0920  144.2180 C   0  0  0  0  0  3  0  0  0  0  0  0
  192.4050  177.6730  143.6150 F   0  0  0  0  0  0  0  0  0  0  0  0
  1  2  1  0  0  0  0
  1  4  1  0  0  0  0
  2  8  2  0  0  0  0
  3  4  2  0  0  0  0
  3  6  1  0  0  0  0
  4  7  1  0  0  0  0
  5  9  1  0  0  0  0
  6  5  2  0  0  0  0
  7  9  2  0  0  0  0
  8  7  1  0  0  0  0
  8 40  1  0  0  0  0
 10 11  1  6  0  0  0
 10  6  1  0  0  0  0
 12 17  1  0  0  0  0
 13 12  1  0  0  0  0
 13 14  1  0  0  0  0
 14 24  1  1  0  0  0
 14 18  1  0  0  0  0
 15 16  1  1  0  0  0
 17 10  1  6  0  0  0
 17 15  1  0  0  0  0
 18 15  1  0  0  0  0
 20 19  1  6  0  0  0
 20 13  1  0  0  0  0
 21 23  2  0  0  0  0
 21 20  1  0  0  0  0
 22 21  1  0  0  0  0
 24 25  1  0  0  0  0
 26 28  1  0  0  0  0
 27 28  2  0  0  0  0
 28 25  1  0  0  0  0
 29  2  1  0  0  0  0
 30 39  1  0  0  0  0
 31 29  1  1  0  0  0
 31 35  1  0  0  0  0
 33 32  1  0  0  0  0
 34 33  1  0  0  0  0
 37 36  1  6  0  0  0
 37 31  1  0  0  0  0
 37 32  1  0  0  0  0
 37 35  1  0  0  0  0
 38 34  1  0  0  0  0
 39 36  1  0  0  0  0
 39 34  2  0  0  0  0
 40 41  1  0  0  0  0
 42 41  1  6  0  0  0
 42 51  1  0  0  0  0
 43 45  2  0  0  0  0
 43 46  1  0  0  0  0
 44 46  1  0  0  0  0
 44 47  1  1  0  0  0
 48 49  1  0  0  0  0
 48 43  1  0  0  0  0
 49 42  1  6  0  0  0
 49 44  1  0  0  0  0
 50 51  1  0  0  0  0
 52 51  1  0  0  0  0
M  END
>  <MODEL>
9

>  <REMARK>
 VINA RESULT:      -7.8      4.194     10.740
  Name = 
  14 active torsions:
  status: ('A' for Active; 'I' for Inactive)
    1  A    between atoms: C_4  and  C_28
    2  A    between atoms: C_4  and  C_45
    3  A    between atoms: O_6  and  C_10
    4  A    between atoms: O_6  and  C_17
    5  A    between atoms: N_9  and  C_50
    6  A    between atoms: C_16  and  C_21
    7  A    between atoms: C_18  and  C_50
    8  A    between atoms: C_21  and  C_42
    9  A    between atoms: C_21  and  C_47
   10  A    between atoms: C_30  and  C_36
   11  A    between atoms: C_36  and  C_44
   12  A    between atoms: C_37  and  C_45
   13  A    between atoms: C_38  and  C_40
   14  A    between atoms: C_40  and  C_47
                            x       y       z     vdW  Elec       q    Type
                         _______ _______ _______ _____ _____    ______ ____

>  <TORSDO>
F 14

$$$$
