=
 OpenBabel10222420253D

 47 51  0  0  1  0  0  0  0  0999 V2000
  192.6900  177.0420  139.1900 C   0  0  0  0  0  2  0  0  0  0  0  0
  192.5900  175.9910  138.0560 C   0  0  0  0  0  2  0  0  0  0  0  0
  190.2600  177.7760  139.8450 C   0  0  1  0  0  3  0  0  0  0  0  0
  190.4290  176.8720  137.6300 C   0  0  0  0  0  0  0  0  0  0  0  0
  191.4230  176.2110  137.1230 C   0  0  0  0  0  0  0  0  0  0  0  0
  191.5220  176.9320  140.1940 C   0  0  0  0  0  2  0  0  0  0  0  0
  189.7060  177.5760  138.4470 C   0  0  0  0  0  0  0  0  0  0  0  0
  189.5980  176.8780  142.1070 N   0  0  0  0  0  2  0  0  0  0  0  0
  188.0060  177.7440  140.6330 O   0  0  0  0  0  0  0  0  0  0  0  0
  189.2210  177.5050  140.8810 C   0  0  0  0  0  0  0  0  0  0  0  0
  188.6040  176.3170  143.0090 C   0  0  0  0  0  2  0  0  0  0  0  0
  188.2310  177.3090  144.1250 C   0  0  2  0  0  3  0  0  0  0  0  0
  187.8880  177.5210  146.4760 C   0  0  0  0  0  2  0  0  0  0  0  0
  189.7520  177.6830  147.9850 O   0  0  0  0  0  0  0  0  0  0  0  0
  190.0950  177.3080  145.6330 C   0  0  0  0  0  2  0  0  0  0  0  0
  188.7070  176.8620  145.4450 N   0  0  0  0  0  0  0  0  0  0  0  0
  190.5490  176.9820  147.0590 C   0  0  0  0  0  2  0  0  0  0  0  0
  188.4400  177.1860  147.8640 C   0  0  0  0  0  2  0  0  0  0  0  0
  186.1760  178.3640  143.3290 N   0  0  0  0  0  0  0  0  0  0  0  0
  186.7440  177.5350  144.1470 C   0  0  0  0  0  3  0  0  0  0  0  0
  184.7650  178.5900  143.3390 C   0  0  0  0  0  0  0  0  0  0  0  0
  184.0340  178.1750  142.3980 O   0  0  0  0  0  0  0  0  0  0  0  0
  184.1450  179.3220  144.4760 C   0  0  0  0  0  1  0  0  0  0  0  0
  188.5580  178.4000  137.9520 C   0  0  0  0  0  2  0  0  0  0  0  0
  186.1840  177.7780  137.1830 C   0  0  1  0  0  3  0  0  0  0  0  0
  186.9080  178.5220  136.0780 C   0  0  1  0  0  3  0  0  0  0  0  0
  187.6900  177.5900  136.9830 C   0  0  1  0  0  3  0  0  0  0  0  0
  186.6600  177.8800  134.8650 O   0  0  0  0  0  1  0  0  0  0  0  0
  184.5520  178.9290  138.8180 C   0  0  0  0  0  0  0  0  0  0  0  0
  185.8580  178.7160  138.2530 N   0  0  0  0  0  2  0  0  0  0  0  0
  184.3960  179.9250  139.5790 O   0  0  0  0  0  0  0  0  0  0  0  0
  182.5640  178.2270  137.5340 C   0  0  0  0  0  2  0  0  0  0  0  0
  183.3880  178.0420  138.5600 C   0  0  0  0  0  0  0  0  0  0  0  0
  183.2060  176.8050  139.3720 C   0  0  0  0  0  2  0  0  0  0  0  0
  182.7060  175.6640  138.5020 C   0  0  0  0  0  1  0  0  0  0  0  0
  191.2030  175.3270  135.9400 C   0  0  0  0  0  2  0  0  0  0  0  0
  188.4730  172.9520  137.0580 C   0  0  0  0  0  3  0  0  0  0  0  0
  188.8630  174.9220  135.1150 C   0  0  0  0  0  3  0  0  0  0  0  0
  187.6450  174.2430  135.1840 C   0  0  0  0  0  3  0  0  0  0  0  0
  189.6920  173.6310  136.9860 C   0  0  0  0  0  3  0  0  0  0  0  0
  187.4350  173.2550  136.1600 C   0  0  0  0  0  0  0  0  0  0  0  0
  189.8900  174.6190  136.0180 C   0  0  0  0  0  0  0  0  0  0  0  0
  185.7750  171.5520  135.2550 C   0  0  0  0  0  2  0  0  0  0  0  0
  184.0010  171.9210  136.8940 C   0  0  0  0  0  2  0  0  0  0  0  0
  185.2050  172.7580  137.2830 C   0  0  0  0  0  2  0  0  0  0  0  0
  184.4620  170.9930  135.7740 C   0  0  0  0  0  2  0  0  0  0  0  0
  186.1830  172.5520  136.2270 N   0  0  0  0  0  0  0  0  0  0  0  0
  1  6  1  0  0  0  0
  2  1  1  0  0  0  0
  3  6  1  0  0  0  0
  3 10  1  1  0  0  0
  4  7  2  0  0  0  0
  5  4  2  0  0  0  0
  5  2  1  0  0  0  0
  7  3  1  0  0  0  0
  8 11  1  0  0  0  0
  9 10  2  0  0  0  0
 10  8  1  0  0  0  0
 12 11  1  6  0  0  0
 12 20  1  0  0  0  0
 12 16  1  0  0  0  0
 13 18  1  0  0  0  0
 15 17  1  0  0  0  0
 16 15  1  0  0  0  0
 16 13  1  0  0  0  0
 17 14  1  0  0  0  0
 18 14  1  0  0  0  0
 19 21  1  0  0  0  0
 19 20  2  0  0  0  0
 21 23  1  0  0  0  0
 22 21  2  0  0  0  0
 24  7  1  0  0  0  0
 25 30  1  1  0  0  0
 26 28  1  6  0  0  0
 26 27  1  0  0  0  0
 26 25  1  0  0  0  0
 27 25  1  0  0  0  0
 27 24  1  1  0  0  0
 29 31  2  0  0  0  0
 30 29  1  0  0  0  0
 32 33  2  0  0  0  0
 33 29  1  0  0  0  0
 33 34  1  0  0  0  0
 35 34  1  0  0  0  0
 36 42  1  0  0  0  0
 36  5  1  0  0  0  0
 38 39  2  0  0  0  0
 38 42  1  0  0  0  0
 39 41  1  0  0  0  0
 40 37  1  0  0  0  0
 41 47  1  0  0  0  0
 41 37  2  0  0  0  0
 42 40  2  0  0  0  0
 43 46  1  0  0  0  0
 43 47  1  0  0  0  0
 44 45  1  0  0  0  0
 46 44  1  0  0  0  0
 47 45  1  0  0  0  0
M  END
>  <MODEL>
1

>  <REMARK>
 VINA RESULT:      -8.1      0.000      0.000
  Name = 
  14 active torsions:
  status: ('A' for Active; 'I' for Inactive)
    1  A    between atoms: C_1  and  N_5
    2  A    between atoms: C_2  and  C_43
    3  A    between atoms: C_3  and  N_12
    4  A    between atoms: C_3  and  C_18
    5  A    between atoms: C_4  and  N_9
    6  A    between atoms: C_7  and  C_31
    7  A    between atoms: C_18  and  N_26
    8  A    between atoms: C_18  and  C_34
    9  A    between atoms: C_19  and  C_20
   10  A    between atoms: C_22  and  C_43
   11  A    between atoms: C_30  and  C_42
   12  A    between atoms: C_31  and  C_46
   13  A    between atoms: N_41  and  C_45
   14  A    between atoms: C_42  and  C_47
                            x       y       z     vdW  Elec       q    Type
                         _______ _______ _______ _____ _____    ______ ____

>  <TORSDO>
F 14

$$$$
=
 OpenBabel10222420253D

 47 51  0  0  1  0  0  0  0  0999 V2000
  188.8730  175.4670  143.2390 C   0  0  0  0  0  2  0  0  0  0  0  0
  188.2450  176.5200  144.1860 C   0  0  0  0  0  2  0  0  0  0  0  0
  189.8520  176.7170  141.1540 C   0  0  1  0  0  3  0  0  0  0  0  0
  188.1280  177.9390  142.2890 C   0  0  0  0  0  0  0  0  0  0  0  0
  187.6380  177.7010  143.4650 C   0  0  0  0  0  0  0  0  0  0  0  0
  190.1250  176.0060  142.5130 C   0  0  0  0  0  2  0  0  0  0  0  0
  188.8100  177.8200  141.1900 C   0  0  0  0  0  0  0  0  0  0  0  0
  191.5390  176.9060  139.2880 N   0  0  0  0  0  2  0  0  0  0  0  0
  191.9460  177.8400  141.3900 O   0  0  0  0  0  0  0  0  0  0  0  0
  191.1530  177.2210  140.6260 C   0  0  0  0  0  0  0  0  0  0  0  0
  192.9040  177.1000  138.8260 C   0  0  0  0  0  2  0  0  0  0  0  0
  193.2320  176.1870  137.6320 C   0  0  2  0  0  3  0  0  0  0  0  0
  192.0300  174.1760  137.1870 C   0  0  0  0  0  2  0  0  0  0  0  0
  190.9840  173.8110  135.0530 O   0  0  0  0  0  0  0  0  0  0  0  0
  192.0590  175.9020  135.5610 C   0  0  0  0  0  2  0  0  0  0  0  0
  192.0180  175.6370  137.0060 N   0  0  0  0  0  0  0  0  0  0  0  0
  190.8790  175.2040  134.8780 C   0  0  0  0  0  2  0  0  0  0  0  0
  190.8530  173.5530  136.4310 C   0  0  0  0  0  2  0  0  0  0  0  0
  195.3890  175.0380  137.6610 N   0  0  0  0  0  0  0  0  0  0  0  0
  194.1560  175.0800  138.0590 C   0  0  0  0  0  3  0  0  0  0  0  0
  196.2770  173.9920  138.0570 C   0  0  0  0  0  0  0  0  0  0  0  0
  195.9040  173.0930  138.8600 O   0  0  0  0  0  0  0  0  0  0  0  0
  197.6630  173.9580  137.5170 C   0  0  0  0  0  1  0  0  0  0  0  0
  188.3830  178.5130  139.9340 C   0  0  0  0  0  2  0  0  0  0  0  0
  186.7040  177.6990  138.1640 C   0  0  1  0  0  3  0  0  0  0  0  0
  187.9710  178.1870  137.4900 C   0  0  1  0  0  3  0  0  0  0  0  0
  188.0650  177.4940  138.8350 C   0  0  1  0  0  3  0  0  0  0  0  0
  188.3240  177.2870  136.4860 O   0  0  0  0  0  1  0  0  0  0  0  0
  184.5400  178.9870  138.7290 C   0  0  0  0  0  0  0  0  0  0  0  0
  185.9710  178.8480  138.6880 N   0  0  0  0  0  2  0  0  0  0  0  0
  184.0680  180.1250  139.0070 O   0  0  0  0  0  0  0  0  0  0  0  0
  183.0930  177.1190  139.4420 C   0  0  0  0  0  2  0  0  0  0  0  0
  183.5960  177.8690  138.4680 C   0  0  0  0  0  0  0  0  0  0  0  0
  183.0590  177.6590  137.0930 C   0  0  0  0  0  2  0  0  0  0  0  0
  181.7930  178.4740  136.8840 C   0  0  0  0  0  1  0  0  0  0  0  0
  186.9400  178.7870  144.2150 C   0  0  0  0  0  2  0  0  0  0  0  0
  183.6580  178.7960  142.3260 C   0  0  0  0  0  3  0  0  0  0  0  0
  184.5440  178.8620  144.9750 C   0  0  0  0  0  3  0  0  0  0  0  0
  183.1760  178.8910  144.6970 C   0  0  0  0  0  3  0  0  0  0  0  0
  185.0260  178.7690  142.6050 C   0  0  0  0  0  3  0  0  0  0  0  0
  182.7190  178.8530  143.3690 C   0  0  0  0  0  0  0  0  0  0  0  0
  185.4730  178.7990  143.9280 C   0  0  0  0  0  0  0  0  0  0  0  0
  180.2840  178.7290  144.1000 C   0  0  0  0  0  2  0  0  0  0  0  0
  179.2670  178.9360  141.8870 C   0  0  0  0  0  2  0  0  0  0  0  0
  180.7690  179.1010  141.7510 C   0  0  0  0  0  2  0  0  0  0  0  0
  178.9640  178.9530  143.3830 C   0  0  0  0  0  2  0  0  0  0  0  0
  181.3100  178.8880  143.0830 N   0  0  0  0  0  0  0  0  0  0  0  0
  1  2  1  0  0  0  0
  3 10  1  1  0  0  0
  3  7  1  0  0  0  0
  3  6  1  0  0  0  0
  4  5  2  0  0  0  0
  5  2  1  0  0  0  0
  5 36  1  0  0  0  0
  6  1  1  0  0  0  0
  7  4  2  0  0  0  0
  8 10  1  0  0  0  0
 10  9  2  0  0  0  0
 11  8  1  0  0  0  0
 12 20  1  1  0  0  0
 12 11  1  0  0  0  0
 14 18  1  0  0  0  0
 15 16  1  0  0  0  0
 16 13  1  0  0  0  0
 16 12  1  0  0  0  0
 17 14  1  0  0  0  0
 17 15  1  0  0  0  0
 18 13  1  0  0  0  0
 19 21  1  0  0  0  0
 19 20  2  0  0  0  0
 21 22  2  0  0  0  0
 23 21  1  0  0  0  0
 24  7  1  0  0  0  0
 25 30  1  1  0  0  0
 25 27  1  0  0  0  0
 26 28  1  6  0  0  0
 26 25  1  0  0  0  0
 26 27  1  0  0  0  0
 27 24  1  1  0  0  0
 29 31  2  0  0  0  0
 30 29  1  0  0  0  0
 33 29  1  0  0  0  0
 33 32  2  0  0  0  0
 34 33  1  0  0  0  0
 35 34  1  0  0  0  0
 37 40  2  0  0  0  0
 37 41  1  0  0  0  0
 39 38  1  0  0  0  0
 40 42  1  0  0  0  0
 41 39  2  0  0  0  0
 42 36  1  0  0  0  0
 42 38  2  0  0  0  0
 44 46  1  0  0  0  0
 45 44  1  0  0  0  0
 45 47  1  0  0  0  0
 46 43  1  0  0  0  0
 47 41  1  0  0  0  0
 47 43  1  0  0  0  0
M  END
>  <MODEL>
2

>  <REMARK>
 VINA RESULT:      -7.7      3.128      8.431
  Name = 
  14 active torsions:
  status: ('A' for Active; 'I' for Inactive)
    1  A    between atoms: C_1  and  N_5
    2  A    between atoms: C_2  and  C_43
    3  A    between atoms: C_3  and  N_12
    4  A    between atoms: C_3  and  C_18
    5  A    between atoms: C_4  and  N_9
    6  A    between atoms: C_7  and  C_31
    7  A    between atoms: C_18  and  N_26
    8  A    between atoms: C_18  and  C_34
    9  A    between atoms: C_19  and  C_20
   10  A    between atoms: C_22  and  C_43
   11  A    between atoms: C_30  and  C_42
   12  A    between atoms: C_31  and  C_46
   13  A    between atoms: N_41  and  C_45
   14  A    between atoms: C_42  and  C_47
                            x       y       z     vdW  Elec       q    Type
                         _______ _______ _______ _____ _____    ______ ____

>  <TORSDO>
F 14

$$$$
=
 OpenBabel10222420253D

 47 51  0  0  1  0  0  0  0  0999 V2000
  192.1970  175.9670  137.1410 C   0  0  0  0  0  2  0  0  0  0  0  0
  191.6090  174.5730  136.8070 C   0  0  0  0  0  2  0  0  0  0  0  0
  190.6110  177.1350  138.8710 C   0  0  1  0  0  3  0  0  0  0  0  0
  189.5340  175.4290  137.5750 C   0  0  0  0  0  0  0  0  0  0  0  0
  190.0990  174.5280  136.8330 C   0  0  0  0  0  0  0  0  0  0  0  0
  191.9450  176.3720  138.6100 C   0  0  0  0  0  2  0  0  0  0  0  0
  189.3580  176.4630  138.3400 C   0  0  0  0  0  0  0  0  0  0  0  0
  189.2440  177.7560  140.8980 N   0  0  0  0  0  2  0  0  0  0  0  0
  191.5440  177.3810  141.0550 O   0  0  0  0  0  0  0  0  0  0  0  0
  190.5050  177.3920  140.3370 C   0  0  0  0  0  0  0  0  0  0  0  0
  189.1420  178.3110  142.2380 C   0  0  0  0  0  2  0  0  0  0  0  0
  188.1430  177.5210  143.1020 C   0  0  2  0  0  3  0  0  0  0  0  0
  186.4750  177.8960  144.7650 C   0  0  0  0  0  2  0  0  0  0  0  0
  184.1750  178.2310  144.1520 O   0  0  0  0  0  0  0  0  0  0  0  0
  185.8830  178.0130  142.4720 C   0  0  0  0  0  2  0  0  0  0  0  0
  186.9490  178.3160  143.4370 N   0  0  0  0  0  0  0  0  0  0  0  0
  184.5910  178.7180  142.8970 C   0  0  0  0  0  2  0  0  0  0  0  0
  185.1570  178.6040  145.0890 C   0  0  0  0  0  2  0  0  0  0  0  0
  189.8750  177.5990  144.8240 N   0  0  0  0  0  0  0  0  0  0  0  0
  188.8140  177.0230  144.3530 C   0  0  0  0  0  3  0  0  0  0  0  0
  190.5230  177.1360  146.0110 C   0  0  0  0  0  0  0  0  0  0  0  0
  191.7800  177.0390  146.0680 O   0  0  0  0  0  0  0  0  0  0  0  0
  189.7080  176.7640  147.1980 C   0  0  0  0  0  1  0  0  0  0  0  0
  188.0260  177.1390  138.4360 C   0  0  0  0  0  2  0  0  0  0  0  0
  186.0020  177.8710  137.0300 C   0  0  1  0  0  3  0  0  0  0  0  0
  187.2880  178.2750  136.3360 C   0  0  1  0  0  3  0  0  0  0  0  0
  187.2450  176.9830  137.1280 C   0  0  1  0  0  3  0  0  0  0  0  0
  187.1790  177.9830  134.9770 O   0  0  0  0  0  1  0  0  0  0  0  0
  184.5610  178.9400  138.8850 C   0  0  0  0  0  0  0  0  0  0  0  0
  185.8070  178.7200  138.2010 N   0  0  0  0  0  2  0  0  0  0  0  0
  184.5150  179.8670  139.7410 O   0  0  0  0  0  0  0  0  0  0  0  0
  182.3840  178.5190  137.8010 C   0  0  0  0  0  2  0  0  0  0  0  0
  183.3360  178.1330  138.6430 C   0  0  0  0  0  0  0  0  0  0  0  0
  183.2190  176.7690  139.2340 C   0  0  0  0  0  2  0  0  0  0  0  0
  181.7630  176.4320  139.5120 C   0  0  0  0  0  1  0  0  0  0  0  0
  189.3590  173.2800  136.4820 C   0  0  0  0  0  2  0  0  0  0  0  0
  185.9620  174.3150  135.1670 C   0  0  0  0  0  3  0  0  0  0  0  0
  187.0550  173.2060  137.4870 C   0  0  0  0  0  3  0  0  0  0  0  0
  185.6820  173.4480  137.4100 C   0  0  0  0  0  3  0  0  0  0  0  0
  187.3360  174.0750  135.2450 C   0  0  0  0  0  3  0  0  0  0  0  0
  185.1200  173.9990  136.2470 C   0  0  0  0  0  0  0  0  0  0  0  0
  187.8860  173.5170  136.4020 C   0  0  0  0  0  0  0  0  0  0  0  0
  183.1440  175.4800  135.6310 C   0  0  0  0  0  2  0  0  0  0  0  0
  181.3700  174.0240  136.4710 C   0  0  0  0  0  2  0  0  0  0  0  0
  182.6990  173.3040  136.6110 C   0  0  0  0  0  2  0  0  0  0  0  0
  181.6400  175.2710  135.6340 C   0  0  0  0  0  2  0  0  0  0  0  0
  183.7070  174.2540  136.1710 N   0  0  0  0  0  0  0  0  0  0  0  0
  1  6  1  0  0  0  0
  2  5  1  0  0  0  0
  2  1  1  0  0  0  0
  3 10  1  1  0  0  0
  4  7  2  0  0  0  0
  5  4  2  0  0  0  0
  6  3  1  0  0  0  0
  7 24  1  0  0  0  0
  7  3  1  0  0  0  0
  8 11  1  0  0  0  0
 10  8  1  0  0  0  0
 10  9  2  0  0  0  0
 12 11  1  1  0  0  0
 12 16  1  0  0  0  0
 12 20  1  0  0  0  0
 13 18  1  0  0  0  0
 14 18  1  0  0  0  0
 15 17  1  0  0  0  0
 15 16  1  0  0  0  0
 16 13  1  0  0  0  0
 17 14  1  0  0  0  0
 19 21  1  0  0  0  0
 20 19  2  0  0  0  0
 21 22  2  0  0  0  0
 21 23  1  0  0  0  0
 25 27  1  0  0  0  0
 25 30  1  1  0  0  0
 26 28  1  6  0  0  0
 26 25  1  0  0  0  0
 26 27  1  0  0  0  0
 27 24  1  1  0  0  0
 29 31  2  0  0  0  0
 30 29  1  0  0  0  0
 32 33  2  0  0  0  0
 33 29  1  0  0  0  0
 33 34  1  0  0  0  0
 34 35  1  0  0  0  0
 36  5  1  0  0  0  0
 37 40  2  0  0  0  0
 37 41  1  0  0  0  0
 39 38  1  0  0  0  0
 40 42  1  0  0  0  0
 41 39  2  0  0  0  0
 42 36  1  0  0  0  0
 42 38  2  0  0  0  0
 43 46  1  0  0  0  0
 43 47  1  0  0  0  0
 44 45  1  0  0  0  0
 46 44  1  0  0  0  0
 47 41  1  0  0  0  0
 47 45  1  0  0  0  0
M  END
>  <MODEL>
3

>  <REMARK>
 VINA RESULT:      -7.6      1.484      3.384
  Name = 
  14 active torsions:
  status: ('A' for Active; 'I' for Inactive)
    1  A    between atoms: C_1  and  N_5
    2  A    between atoms: C_2  and  C_43
    3  A    between atoms: C_3  and  N_12
    4  A    between atoms: C_3  and  C_18
    5  A    between atoms: C_4  and  N_9
    6  A    between atoms: C_7  and  C_31
    7  A    between atoms: C_18  and  N_26
    8  A    between atoms: C_18  and  C_34
    9  A    between atoms: C_19  and  C_20
   10  A    between atoms: C_22  and  C_43
   11  A    between atoms: C_30  and  C_42
   12  A    between atoms: C_31  and  C_46
   13  A    between atoms: N_41  and  C_45
   14  A    between atoms: C_42  and  C_47
                            x       y       z     vdW  Elec       q    Type
                         _______ _______ _______ _____ _____    ______ ____

>  <TORSDO>
F 14

$$$$
=
 OpenBabel10222420253D

 47 51  0  0  1  0  0  0  0  0999 V2000
  188.7990  175.5740  143.1900 C   0  0  0  0  0  2  0  0  0  0  0  0
  188.1700  176.6880  144.0630 C   0  0  0  0  0  2  0  0  0  0  0  0
  189.9020  176.6950  141.0940 C   0  0  1  0  0  3  0  0  0  0  0  0
  188.1780  178.0230  142.1010 C   0  0  0  0  0  0  0  0  0  0  0  0
  187.6330  177.8540  143.2660 C   0  0  0  0  0  0  0  0  0  0  0  0
  190.0970  176.0380  142.4930 C   0  0  0  0  0  2  0  0  0  0  0  0
  188.8980  177.8310  141.0380 C   0  0  0  0  0  0  0  0  0  0  0  0
  191.6490  176.7830  139.2760 N   0  0  0  0  0  2  0  0  0  0  0  0
  192.0390  177.7230  141.3780 O   0  0  0  0  0  0  0  0  0  0  0  0
  191.2400  177.1320  140.5980 C   0  0  0  0  0  0  0  0  0  0  0  0
  193.0350  176.9080  138.8520 C   0  0  0  0  0  2  0  0  0  0  0  0
  193.4830  175.6950  138.0200 C   0  0  2  0  0  3  0  0  0  0  0  0
  194.0200  176.4050  135.8070 C   0  0  0  0  0  2  0  0  0  0  0  0
  195.8610  175.4270  134.6100 O   0  0  0  0  0  0  0  0  0  0  0  0
  195.4170  174.8280  136.8970 C   0  0  0  0  0  2  0  0  0  0  0  0
  194.5930  176.0270  137.1090 N   0  0  0  0  0  0  0  0  0  0  0  0
  196.4820  175.1210  135.8360 C   0  0  0  0  0  2  0  0  0  0  0  0
  195.1460  176.6260  134.7930 C   0  0  0  0  0  2  0  0  0  0  0  0
  191.8980  173.9210  137.4620 N   0  0  0  0  0  0  0  0  0  0  0  0
  192.3200  175.1290  137.2520 C   0  0  0  0  0  3  0  0  0  0  0  0
  190.7940  173.3700  136.7400 C   0  0  0  0  0  0  0  0  0  0  0  0
  189.6280  173.3950  137.2190 O   0  0  0  0  0  0  0  0  0  0  0  0
  191.0220  172.7580  135.4030 C   0  0  0  0  0  1  0  0  0  0  0  0
  188.5460  178.4800  139.7360 C   0  0  0  0  0  2  0  0  0  0  0  0
  186.7090  177.5910  138.1720 C   0  0  1  0  0  3  0  0  0  0  0  0
  187.8880  178.0840  137.3570 C   0  0  1  0  0  3  0  0  0  0  0  0
  188.1360  177.4280  138.7010 C   0  0  1  0  0  3  0  0  0  0  0  0
  188.1530  177.1650  136.3430 O   0  0  0  0  0  1  0  0  0  0  0  0
  184.5890  178.9570  138.7220 C   0  0  0  0  0  0  0  0  0  0  0  0
  186.0110  178.7400  138.7410 N   0  0  0  0  0  2  0  0  0  0  0  0
  184.1640  180.0970  139.0600 O   0  0  0  0  0  0  0  0  0  0  0  0
  183.3690  177.5930  137.0660 C   0  0  0  0  0  2  0  0  0  0  0  0
  183.6020  177.9160  138.3330 C   0  0  0  0  0  0  0  0  0  0  0  0
  182.9520  177.0830  139.3850 C   0  0  0  0  0  2  0  0  0  0  0  0
  182.7410  175.6630  138.8860 C   0  0  0  0  0  1  0  0  0  0  0  0
  186.9430  178.9950  143.9370 C   0  0  0  0  0  2  0  0  0  0  0  0
  183.5610  178.8150  142.2430 C   0  0  0  0  0  3  0  0  0  0  0  0
  184.5940  178.9940  144.8330 C   0  0  0  0  0  3  0  0  0  0  0  0
  183.2120  178.9590  144.6350 C   0  0  0  0  0  3  0  0  0  0  0  0
  184.9430  178.8530  142.4430 C   0  0  0  0  0  3  0  0  0  0  0  0
  182.6810  178.8640  143.3380 C   0  0  0  0  0  0  0  0  0  0  0  0
  185.4640  178.9390  143.7360 C   0  0  0  0  0  0  0  0  0  0  0  0
  180.6390  178.8470  141.8190 C   0  0  0  0  0  2  0  0  0  0  0  0
  178.9310  178.8870  143.5660 C   0  0  0  0  0  2  0  0  0  0  0  0
  180.2960  178.7710  144.2210 C   0  0  0  0  0  2  0  0  0  0  0  0
  179.1510  178.6840  142.0700 C   0  0  0  0  0  2  0  0  0  0  0  0
  181.2580  178.8330  143.1340 N   0  0  0  0  0  0  0  0  0  0  0  0
  1  2  1  0  0  0  0
  3 10  1  1  0  0  0
  3  6  1  0  0  0  0
  4  5  2  0  0  0  0
  5 36  1  0  0  0  0
  5  2  1  0  0  0  0
  6  1  1  0  0  0  0
  7  3  1  0  0  0  0
  7  4  2  0  0  0  0
  8 10  1  0  0  0  0
 10  9  2  0  0  0  0
 11  8  1  0  0  0  0
 12 20  1  6  0  0  0
 12 11  1  0  0  0  0
 13 16  1  0  0  0  0
 14 18  1  0  0  0  0
 14 17  1  0  0  0  0
 15 16  1  0  0  0  0
 16 12  1  0  0  0  0
 17 15  1  0  0  0  0
 18 13  1  0  0  0  0
 20 19  2  0  0  0  0
 21 22  2  0  0  0  0
 21 19  1  0  0  0  0
 23 21  1  0  0  0  0
 24  7  1  0  0  0  0
 25 27  1  0  0  0  0
 25 30  1  1  0  0  0
 26 28  1  6  0  0  0
 26 25  1  0  0  0  0
 26 27  1  0  0  0  0
 27 24  1  1  0  0  0
 29 30  1  0  0  0  0
 29 31  2  0  0  0  0
 32 33  2  0  0  0  0
 33 29  1  0  0  0  0
 33 34  1  0  0  0  0
 35 34  1  0  0  0  0
 37 40  2  0  0  0  0
 37 41  1  0  0  0  0
 39 38  1  0  0  0  0
 40 42  1  0  0  0  0
 41 39  2  0  0  0  0
 42 36  1  0  0  0  0
 42 38  2  0  0  0  0
 43 46  1  0  0  0  0
 43 47  1  0  0  0  0
 44 45  1  0  0  0  0
 46 44  1  0  0  0  0
 47 41  1  0  0  0  0
 47 45  1  0  0  0  0
M  END
>  <MODEL>
4

>  <REMARK>
 VINA RESULT:      -7.6      3.098      8.199
  Name = 
  14 active torsions:
  status: ('A' for Active; 'I' for Inactive)
    1  A    between atoms: C_1  and  N_5
    2  A    between atoms: C_2  and  C_43
    3  A    between atoms: C_3  and  N_12
    4  A    between atoms: C_3  and  C_18
    5  A    between atoms: C_4  and  N_9
    6  A    between atoms: C_7  and  C_31
    7  A    between atoms: C_18  and  N_26
    8  A    between atoms: C_18  and  C_34
    9  A    between atoms: C_19  and  C_20
   10  A    between atoms: C_22  and  C_43
   11  A    between atoms: C_30  and  C_42
   12  A    between atoms: C_31  and  C_46
   13  A    between atoms: N_41  and  C_45
   14  A    between atoms: C_42  and  C_47
                            x       y       z     vdW  Elec       q    Type
                         _______ _______ _______ _____ _____    ______ ____

>  <TORSDO>
F 14

$$$$
=
 OpenBabel10222420253D

 47 51  0  0  1  0  0  0  0  0999 V2000
  184.8370  180.0190  144.9030 C   0  0  0  0  0  2  0  0  0  0  0  0
  185.7750  178.8390  145.2550 C   0  0  0  0  0  2  0  0  0  0  0  0
  183.1610  179.2140  143.0540 C   0  0  1  0  0  3  0  0  0  0  0  0
  185.1880  177.9350  143.1410 C   0  0  0  0  0  0  0  0  0  0  0  0
  186.0780  177.9320  144.0840 C   0  0  0  0  0  0  0  0  0  0  0  0
  183.4070  179.5480  144.5570 C   0  0  0  0  0  2  0  0  0  0  0  0
  184.1470  178.2450  142.4290 C   0  0  0  0  0  0  0  0  0  0  0  0
  181.0760  178.8940  141.6720 N   0  0  0  0  0  2  0  0  0  0  0  0
  181.1540  178.2490  143.9160 O   0  0  0  0  0  0  0  0  0  0  0  0
  181.7590  178.7240  142.9140 C   0  0  0  0  0  0  0  0  0  0  0  0
  179.6350  178.7220  141.5690 C   0  0  0  0  0  2  0  0  0  0  0  0
  179.1820  178.6230  140.1020 C   0  0  2  0  0  3  0  0  0  0  0  0
  178.9840  176.3620  140.8360 C   0  0  0  0  0  2  0  0  0  0  0  0
  180.2300  174.6050  139.7680 O   0  0  0  0  0  0  0  0  0  0  0  0
  180.3050  176.8590  138.9290 C   0  0  0  0  0  2  0  0  0  0  0  0
  179.0760  177.2260  139.6470 N   0  0  0  0  0  0  0  0  0  0  0  0
  180.2690  175.3670  138.5840 C   0  0  0  0  0  2  0  0  0  0  0  0
  179.0090  174.8920  140.4070 C   0  0  0  0  0  2  0  0  0  0  0  0
  179.7330  180.4890  138.6240 N   0  0  0  0  0  0  0  0  0  0  0  0
  180.1150  179.4000  139.2130 C   0  0  0  0  0  3  0  0  0  0  0  0
  180.6080  181.2360  137.7760 C   0  0  0  0  0  0  0  0  0  0  0  0
  181.2250  182.2480  138.2100 O   0  0  0  0  0  0  0  0  0  0  0  0
  180.7970  180.8170  136.3610 C   0  0  0  0  0  1  0  0  0  0  0  0
  184.0820  177.9200  140.9690 C   0  0  0  0  0  2  0  0  0  0  0  0
  184.9550  178.6490  138.6630 C   0  0  1  0  0  3  0  0  0  0  0  0
  183.8250  179.5600  139.1010 C   0  0  1  0  0  3  0  0  0  0  0  0
  184.7780  179.0050  140.1420 C   0  0  1  0  0  3  0  0  0  0  0  0
  184.1750  180.8800  138.8200 O   0  0  0  0  0  1  0  0  0  0  0  0
  184.9340  176.4420  137.3260 C   0  0  0  0  0  0  0  0  0  0  0  0
  184.4050  177.3430  138.3150 N   0  0  0  0  0  2  0  0  0  0  0  0
  184.2220  175.4550  136.9900 O   0  0  0  0  0  0  0  0  0  0  0  0
  186.4210  177.1870  135.5030 C   0  0  0  0  0  2  0  0  0  0  0  0
  186.2660  176.6090  136.6890 C   0  0  0  0  0  0  0  0  0  0  0  0
  187.5000  176.2650  137.4520 C   0  0  0  0  0  2  0  0  0  0  0  0
  188.2340  175.1110  136.7890 C   0  0  0  0  0  1  0  0  0  0  0  0
  187.0090  176.7730  144.2260 C   0  0  0  0  0  2  0  0  0  0  0  0
  190.2760  176.1130  142.4290 C   0  0  0  0  0  3  0  0  0  0  0  0
  187.9120  177.5410  142.0090 C   0  0  0  0  0  3  0  0  0  0  0  0
  188.9240  177.5710  141.0480 C   0  0  0  0  0  3  0  0  0  0  0  0
  189.2640  176.0860  143.3910 C   0  0  0  0  0  3  0  0  0  0  0  0
  190.1150  176.8520  141.2450 C   0  0  0  0  0  0  0  0  0  0  0  0
  188.0790  176.7960  143.1830 C   0  0  0  0  0  0  0  0  0  0  0  0
  192.4950  177.3930  140.5250 C   0  0  0  0  0  2  0  0  0  0  0  0
  192.2820  176.7510  138.1770 C   0  0  0  0  0  2  0  0  0  0  0  0
  190.9900  176.4080  138.8970 C   0  0  0  0  0  2  0  0  0  0  0  0
  193.2890  177.1330  139.2580 C   0  0  0  0  0  2  0  0  0  0  0  0
  191.1590  176.8880  140.2580 N   0  0  0  0  0  0  0  0  0  0  0  0
  1  2  1  0  0  0  0
  3 10  1  1  0  0  0
  3  6  1  0  0  0  0
  4  5  2  0  0  0  0
  5 36  1  0  0  0  0
  5  2  1  0  0  0  0
  6  1  1  0  0  0  0
  7  3  1  0  0  0  0
  7  4  2  0  0  0  0
  8 10  1  0  0  0  0
 10  9  2  0  0  0  0
 11  8  1  0  0  0  0
 12 20  1  6  0  0  0
 12 11  1  0  0  0  0
 14 18  1  0  0  0  0
 15 16  1  0  0  0  0
 16 12  1  0  0  0  0
 16 13  1  0  0  0  0
 17 15  1  0  0  0  0
 17 14  1  0  0  0  0
 18 13  1  0  0  0  0
 19 20  2  0  0  0  0
 21 22  2  0  0  0  0
 21 19  1  0  0  0  0
 23 21  1  0  0  0  0
 24  7  1  0  0  0  0
 25 30  1  1  0  0  0
 25 26  1  0  0  0  0
 25 27  1  0  0  0  0
 26 28  1  6  0  0  0
 26 27  1  0  0  0  0
 27 24  1  1  0  0  0
 29 30  1  0  0  0  0
 31 29  2  0  0  0  0
 32 33  2  0  0  0  0
 33 29  1  0  0  0  0
 33 34  1  0  0  0  0
 35 34  1  0  0  0  0
 37 40  1  0  0  0  0
 38 42  1  0  0  0  0
 39 41  1  0  0  0  0
 39 38  2  0  0  0  0
 41 37  2  0  0  0  0
 42 40  2  0  0  0  0
 42 36  1  0  0  0  0
 44 45  1  0  0  0  0
 44 46  1  0  0  0  0
 45 47  1  0  0  0  0
 46 43  1  0  0  0  0
 47 43  1  0  0  0  0
 47 41  1  0  0  0  0
M  END
>  <MODEL>
5

>  <REMARK>
 VINA RESULT:      -7.4      3.138      8.233
  Name = 
  14 active torsions:
  status: ('A' for Active; 'I' for Inactive)
    1  A    between atoms: C_1  and  N_5
    2  A    between atoms: C_2  and  C_43
    3  A    between atoms: C_3  and  N_12
    4  A    between atoms: C_3  and  C_18
    5  A    between atoms: C_4  and  N_9
    6  A    between atoms: C_7  and  C_31
    7  A    between atoms: C_18  and  N_26
    8  A    between atoms: C_18  and  C_34
    9  A    between atoms: C_19  and  C_20
   10  A    between atoms: C_22  and  C_43
   11  A    between atoms: C_30  and  C_42
   12  A    between atoms: C_31  and  C_46
   13  A    between atoms: N_41  and  C_45
   14  A    between atoms: C_42  and  C_47
                            x       y       z     vdW  Elec       q    Type
                         _______ _______ _______ _____ _____    ______ ____

>  <TORSDO>
F 14

$$$$
=
 OpenBabel10222420253D

 47 51  0  0  1  0  0  0  0  0999 V2000
  181.6490  176.0380  139.7030 C   0  0  0  0  0  2  0  0  0  0  0  0
  181.6950  176.7380  141.0840 C   0  0  0  0  0  2  0  0  0  0  0  0
  182.8610  177.5760  137.9610 C   0  0  1  0  0  3  0  0  0  0  0  0
  182.0460  178.7550  139.8840 C   0  0  0  0  0  0  0  0  0  0  0  0
  181.6350  178.2460  141.0030 C   0  0  0  0  0  0  0  0  0  0  0  0
  182.9180  176.3090  138.8660 C   0  0  0  0  0  2  0  0  0  0  0  0
  182.4670  178.8630  138.6600 C   0  0  0  0  0  0  0  0  0  0  0  0
  184.3830  177.0920  136.0090 N   0  0  0  0  0  2  0  0  0  0  0  0
  185.1340  178.3000  137.8610 O   0  0  0  0  0  0  0  0  0  0  0  0
  184.1800  177.7150  137.2770 C   0  0  0  0  0  0  0  0  0  0  0  0
  185.7150  176.9320  135.4470 C   0  0  0  0  0  2  0  0  0  0  0  0
  186.2490  175.5050  135.6560 C   0  0  2  0  0  3  0  0  0  0  0  0
  185.6860  173.8350  137.2640 C   0  0  0  0  0  2  0  0  0  0  0  0
  184.5140  171.8400  136.6120 O   0  0  0  0  0  0  0  0  0  0  0  0
  184.9410  173.5960  135.0250 C   0  0  0  0  0  2  0  0  0  0  0  0
  185.1920  174.5760  136.0920 N   0  0  0  0  0  0  0  0  0  0  0  0
  183.9540  172.5370  135.5240 C   0  0  0  0  0  2  0  0  0  0  0  0
  184.6680  172.7640  137.6630 C   0  0  0  0  0  2  0  0  0  0  0  0
  187.7990  176.6110  137.1870 N   0  0  0  0  0  0  0  0  0  0  0  0
  187.3870  175.5110  136.6400 C   0  0  0  0  0  3  0  0  0  0  0  0
  188.8790  176.6320  138.1230 C   0  0  0  0  0  0  0  0  0  0  0  0
  188.7290  177.1230  139.2750 O   0  0  0  0  0  0  0  0  0  0  0  0
  190.1990  176.0680  137.7350 C   0  0  0  0  0  1  0  0  0  0  0  0
  182.2780  180.1310  137.8860 C   0  0  0  0  0  2  0  0  0  0  0  0
  180.2990  181.7190  137.4660 C   0  0  1  0  0  3  0  0  0  0  0  0
  180.7430  181.0890  136.1610 C   0  0  1  0  0  3  0  0  0  0  0  0
  180.8200  180.2790  137.4410 C   0  0  1  0  0  3  0  0  0  0  0  0
  179.6150  180.7000  135.4400 O   0  0  0  0  0  1  0  0  0  0  0  0
  181.4750  184.0140  137.3640 C   0  0  0  0  0  0  0  0  0  0  0  0
  181.3050  182.6870  137.8930 N   0  0  0  0  0  2  0  0  0  0  0  0
  182.5230  184.6440  137.6820 O   0  0  0  0  0  0  0  0  0  0  0  0
  180.6300  184.7200  135.1560 C   0  0  0  0  0  2  0  0  0  0  0  0
  180.4870  184.6800  136.4760 C   0  0  0  0  0  0  0  0  0  0  0  0
  179.2070  185.1910  137.0440 C   0  0  0  0  0  2  0  0  0  0  0  0
  179.4680  185.9940  138.3080 C   0  0  0  0  0  1  0  0  0  0  0  0
  181.6130  179.0840  142.2390 C   0  0  0  0  0  2  0  0  0  0  0  0
  183.8190  178.6610  145.2870 C   0  0  0  0  0  3  0  0  0  0  0  0
  184.0670  178.6070  142.5050 C   0  0  0  0  0  3  0  0  0  0  0  0
  185.1900  178.3990  143.3080 C   0  0  0  0  0  3  0  0  0  0  0  0
  182.6970  178.8710  144.4820 C   0  0  0  0  0  3  0  0  0  0  0  0
  185.0760  178.4180  144.7080 C   0  0  0  0  0  0  0  0  0  0  0  0
  182.8160  178.8420  143.0900 C   0  0  0  0  0  0  0  0  0  0  0  0
  187.5090  177.7370  145.0210 C   0  0  0  0  0  2  0  0  0  0  0  0
  187.6100  177.9930  147.4490 C   0  0  0  0  0  2  0  0  0  0  0  0
  186.2510  178.4650  146.9660 C   0  0  0  0  0  2  0  0  0  0  0  0
  188.4630  177.7790  146.2010 C   0  0  0  0  0  2  0  0  0  0  0  0
  186.2340  178.2100  145.5350 N   0  0  0  0  0  0  0  0  0  0  0  0
  1  2  1  0  0  0  0
  3 10  1  1  0  0  0
  3  7  1  0  0  0  0
  3  6  1  0  0  0  0
  4  5  2  0  0  0  0
  5  2  1  0  0  0  0
  5 36  1  0  0  0  0
  6  1  1  0  0  0  0
  7  4  2  0  0  0  0
  8 10  1  0  0  0  0
 10  9  2  0  0  0  0
 11  8  1  0  0  0  0
 12 11  1  1  0  0  0
 12 16  1  0  0  0  0
 12 20  1  0  0  0  0
 13 18  1  0  0  0  0
 14 18  1  0  0  0  0
 15 17  1  0  0  0  0
 15 16  1  0  0  0  0
 16 13  1  0  0  0  0
 17 14  1  0  0  0  0
 19 21  1  0  0  0  0
 20 19  2  0  0  0  0
 21 22  2  0  0  0  0
 23 21  1  0  0  0  0
 24  7  1  0  0  0  0
 25 30  1  1  0  0  0
 26 28  1  6  0  0  0
 26 27  1  0  0  0  0
 26 25  1  0  0  0  0
 27 25  1  0  0  0  0
 27 24  1  1  0  0  0
 29 31  2  0  0  0  0
 29 30  1  0  0  0  0
 32 33  2  0  0  0  0
 33 34  1  0  0  0  0
 33 29  1  0  0  0  0
 34 35  1  0  0  0  0
 36 42  1  0  0  0  0
 38 42  2  0  0  0  0
 38 39  1  0  0  0  0
 39 41  2  0  0  0  0
 40 37  2  0  0  0  0
 41 37  1  0  0  0  0
 41 47  1  0  0  0  0
 42 40  1  0  0  0  0
 43 47  1  0  0  0  0
 43 46  1  0  0  0  0
 45 44  1  0  0  0  0
 46 44  1  0  0  0  0
 47 45  1  0  0  0  0
M  END
>  <MODEL>
6

>  <REMARK>
 VINA RESULT:      -7.3      3.484      9.511
  Name = 
  14 active torsions:
  status: ('A' for Active; 'I' for Inactive)
    1  A    between atoms: C_1  and  N_5
    2  A    between atoms: C_2  and  C_43
    3  A    between atoms: C_3  and  N_12
    4  A    between atoms: C_3  and  C_18
    5  A    between atoms: C_4  and  N_9
    6  A    between atoms: C_7  and  C_31
    7  A    between atoms: C_18  and  N_26
    8  A    between atoms: C_18  and  C_34
    9  A    between atoms: C_19  and  C_20
   10  A    between atoms: C_22  and  C_43
   11  A    between atoms: C_30  and  C_42
   12  A    between atoms: C_31  and  C_46
   13  A    between atoms: N_41  and  C_45
   14  A    between atoms: C_42  and  C_47
                            x       y       z     vdW  Elec       q    Type
                         _______ _______ _______ _____ _____    ______ ____

>  <TORSDO>
F 14

$$$$
=
 OpenBabel10222420253D

 47 51  0  0  1  0  0  0  0  0999 V2000
  189.5200  175.1960  136.7870 C   0  0  0  0  0  2  0  0  0  0  0  0
  190.9630  175.6460  136.4480 C   0  0  0  0  0  2  0  0  0  0  0  0
  188.5360  176.8560  138.5600 C   0  0  1  0  0  3  0  0  0  0  0  0
  190.9330  176.7950  138.5230 C   0  0  0  0  0  0  0  0  0  0  0  0
  191.6940  176.2720  137.6120 C   0  0  0  0  0  0  0  0  0  0  0  0
  188.5850  176.3910  137.0740 C   0  0  0  0  0  2  0  0  0  0  0  0
  189.8810  177.1370  139.2030 C   0  0  0  0  0  0  0  0  0  0  0  0
  186.6820  178.1310  139.6990 N   0  0  0  0  0  2  0  0  0  0  0  0
  187.6650  178.9190  137.7320 O   0  0  0  0  0  0  0  0  0  0  0  0
  187.6390  178.0450  138.6430 C   0  0  0  0  0  0  0  0  0  0  0  0
  185.5910  179.0940  139.6570 C   0  0  0  0  0  2  0  0  0  0  0  0
  184.3690  178.5970  140.4490 C   0  0  2  0  0  3  0  0  0  0  0  0
  182.0070  178.6670  140.7730 C   0  0  0  0  0  2  0  0  0  0  0  0
  180.5000  178.4880  138.9090 O   0  0  0  0  0  0  0  0  0  0  0  0
  182.8800  178.5800  138.5690 C   0  0  0  0  0  2  0  0  0  0  0  0
  183.1060  179.1330  139.9120 N   0  0  0  0  0  0  0  0  0  0  0  0
  181.4990  179.0100  138.0640 C   0  0  0  0  0  2  0  0  0  0  0  0
  180.6650  179.0910  140.1700 C   0  0  0  0  0  2  0  0  0  0  0  0
  184.9130  178.0650  142.7700 N   0  0  0  0  0  0  0  0  0  0  0  0
  184.5140  178.9430  141.9050 C   0  0  0  0  0  3  0  0  0  0  0  0
  185.0550  178.3790  144.1570 C   0  0  0  0  0  0  0  0  0  0  0  0
  186.1310  178.1390  144.7700 O   0  0  0  0  0  0  0  0  0  0  0  0
  183.9190  178.9980  144.8910 C   0  0  0  0  0  1  0  0  0  0  0  0
  189.9790  177.4930  140.6540 C   0  0  0  0  0  2  0  0  0  0  0  0
  190.1520  176.2550  142.9010 C   0  0  1  0  0  3  0  0  0  0  0  0
  188.7790  176.8810  142.7590 C   0  0  1  0  0  3  0  0  0  0  0  0
  189.4790  176.3400  141.5290 C   0  0  1  0  0  3  0  0  0  0  0  0
  187.8180  175.9620  143.1810 O   0  0  0  0  0  1  0  0  0  0  0  0
  191.4180  177.9440  144.3870 C   0  0  0  0  0  0  0  0  0  0  0  0
  191.1350  177.3110  143.1260 N   0  0  0  0  0  2  0  0  0  0  0  0
  192.1330  178.9850  144.3740 O   0  0  0  0  0  0  0  0  0  0  0  0
  191.6770  176.7090  146.5080 C   0  0  0  0  0  2  0  0  0  0  0  0
  190.9220  177.4370  145.6930 C   0  0  0  0  0  0  0  0  0  0  0  0
  189.5890  177.8750  146.1990 C   0  0  0  0  0  2  0  0  0  0  0  0
  189.0480  176.8760  147.2080 C   0  0  0  0  0  1  0  0  0  0  0  0
  193.1140  176.7160  137.4830 C   0  0  0  0  0  2  0  0  0  0  0  0
  195.6740  174.4410  135.8670 C   0  0  0  0  0  3  0  0  0  0  0  0
  194.0910  174.5030  138.1690 C   0  0  0  0  0  3  0  0  0  0  0  0
  194.9390  173.4190  137.9360 C   0  0  0  0  0  3  0  0  0  0  0  0
  194.8230  175.5240  136.1000 C   0  0  0  0  0  3  0  0  0  0  0  0
  195.7440  173.3790  136.7850 C   0  0  0  0  0  0  0  0  0  0  0  0
  194.0320  175.5600  137.2520 C   0  0  0  0  0  0  0  0  0  0  0  0
  197.9010  172.3770  135.8800 C   0  0  0  0  0  2  0  0  0  0  0  0
  197.4140  170.0370  136.3860 C   0  0  0  0  0  2  0  0  0  0  0  0
  196.2990  170.9000  136.9480 C   0  0  0  0  0  2  0  0  0  0  0  0
  198.5190  170.9920  135.9450 C   0  0  0  0  0  2  0  0  0  0  0  0
  196.6130  172.2600  136.5430 N   0  0  0  0  0  0  0  0  0  0  0  0
  1  6  1  0  0  0  0
  2  1  1  0  0  0  0
  2  5  1  0  0  0  0
  3 10  1  6  0  0  0
  3  7  1  0  0  0  0
  4  7  2  0  0  0  0
  5  4  2  0  0  0  0
  6  3  1  0  0  0  0
  7 24  1  0  0  0  0
  9 10  2  0  0  0  0
 10  8  1  0  0  0  0
 11  8  1  0  0  0  0
 12 11  1  6  0  0  0
 12 20  1  0  0  0  0
 14 18  1  0  0  0  0
 15 16  1  0  0  0  0
 16 12  1  0  0  0  0
 16 13  1  0  0  0  0
 17 15  1  0  0  0  0
 17 14  1  0  0  0  0
 18 13  1  0  0  0  0
 19 21  1  0  0  0  0
 20 19  2  0  0  0  0
 21 22  2  0  0  0  0
 21 23  1  0  0  0  0
 25 30  1  6  0  0  0
 26 25  1  0  0  0  0
 26 28  1  1  0  0  0
 27 24  1  6  0  0  0
 27 26  1  0  0  0  0
 27 25  1  0  0  0  0
 29 33  1  0  0  0  0
 30 29  1  0  0  0  0
 31 29  2  0  0  0  0
 33 34  1  0  0  0  0
 33 32  2  0  0  0  0
 34 35  1  0  0  0  0
 36  5  1  0  0  0  0
 37 40  2  0  0  0  0
 37 41  1  0  0  0  0
 39 38  1  0  0  0  0
 40 42  1  0  0  0  0
 41 39  2  0  0  0  0
 42 36  1  0  0  0  0
 42 38  2  0  0  0  0
 43 46  1  0  0  0  0
 43 47  1  0  0  0  0
 44 45  1  0  0  0  0
 46 44  1  0  0  0  0
 47 41  1  0  0  0  0
 47 45  1  0  0  0  0
M  END
>  <MODEL>
7

>  <REMARK>
 VINA RESULT:      -7.0      3.317      7.746
  Name = 
  14 active torsions:
  status: ('A' for Active; 'I' for Inactive)
    1  A    between atoms: C_1  and  N_5
    2  A    between atoms: C_2  and  C_43
    3  A    between atoms: C_3  and  N_12
    4  A    between atoms: C_3  and  C_18
    5  A    between atoms: C_4  and  N_9
    6  A    between atoms: C_7  and  C_31
    7  A    between atoms: C_18  and  N_26
    8  A    between atoms: C_18  and  C_34
    9  A    between atoms: C_19  and  C_20
   10  A    between atoms: C_22  and  C_43
   11  A    between atoms: C_30  and  C_42
   12  A    between atoms: C_31  and  C_46
   13  A    between atoms: N_41  and  C_45
   14  A    between atoms: C_42  and  C_47
                            x       y       z     vdW  Elec       q    Type
                         _______ _______ _______ _____ _____    ______ ____

>  <TORSDO>
F 14

$$$$
=
 OpenBabel10222420253D

 47 51  0  0  1  0  0  0  0  0999 V2000
  193.3510  177.2600  138.8820 C   0  0  0  0  0  2  0  0  0  0  0  0
  192.9940  176.0040  138.0470 C   0  0  0  0  0  2  0  0  0  0  0  0
  191.5670  177.5140  140.7860 C   0  0  1  0  0  3  0  0  0  0  0  0
  190.7950  176.2390  138.9070 C   0  0  0  0  0  0  0  0  0  0  0  0
  191.5090  175.7440  137.9450 C   0  0  0  0  0  0  0  0  0  0  0  0
  193.0090  177.0850  140.3770 C   0  0  0  0  0  2  0  0  0  0  0  0
  190.4460  176.9050  139.9660 C   0  0  0  0  0  0  0  0  0  0  0  0
  191.2770  178.3070  143.1620 N   0  0  0  0  0  2  0  0  0  0  0  0
  191.4450  176.0330  142.6540 O   0  0  0  0  0  0  0  0  0  0  0  0
  191.3930  177.2250  142.2390 C   0  0  0  0  0  0  0  0  0  0  0  0
  191.4140  178.0990  144.5960 C   0  0  0  0  0  2  0  0  0  0  0  0
  190.3390  177.1380  145.1320 C   0  0  2  0  0  3  0  0  0  0  0  0
  188.5870  177.4480  146.7210 C   0  0  0  0  0  2  0  0  0  0  0  0
  186.2850  177.4880  146.0270 O   0  0  0  0  0  0  0  0  0  0  0  0
  188.0610  177.3360  144.4110 C   0  0  0  0  0  2  0  0  0  0  0  0
  189.0570  177.8210  145.3770 N   0  0  0  0  0  0  0  0  0  0  0  0
  186.6890  177.9260  144.7510 C   0  0  0  0  0  2  0  0  0  0  0  0
  187.1910  178.0300  146.9590 C   0  0  0  0  0  2  0  0  0  0  0  0
  191.9620  176.7650  146.9200 N   0  0  0  0  0  0  0  0  0  0  0  0
  190.8230  176.4580  146.3840 C   0  0  0  0  0  3  0  0  0  0  0  0
  192.4360  176.1270  148.1080 C   0  0  0  0  0  0  0  0  0  0  0  0
  192.4510  174.8700  148.2080 O   0  0  0  0  0  0  0  0  0  0  0  0
  192.9200  176.9560  149.2450 C   0  0  0  0  0  1  0  0  0  0  0  0
  189.0230  177.3120  140.1910 C   0  0  0  0  0  2  0  0  0  0  0  0
  186.9640  178.2270  138.9510 C   0  0  1  0  0  3  0  0  0  0  0  0
  188.2170  178.9220  138.4570 C   0  0  1  0  0  3  0  0  0  0  0  0
  188.2860  177.4610  138.8560 C   0  0  1  0  0  3  0  0  0  0  0  0
  188.1640  179.0150  137.0670 O   0  0  0  0  0  1  0  0  0  0  0  0
  185.3560  179.0020  140.8160 C   0  0  0  0  0  0  0  0  0  0  0  0
  186.6640  178.6910  140.3020 N   0  0  0  0  0  2  0  0  0  0  0  0
  185.2870  179.5980  141.9270 O   0  0  0  0  0  0  0  0  0  0  0  0
  183.3610  177.5980  140.4450 C   0  0  0  0  0  2  0  0  0  0  0  0
  184.0920  178.6560  140.1140 C   0  0  0  0  0  0  0  0  0  0  0  0
  183.5250  179.5960  139.1050 C   0  0  0  0  0  2  0  0  0  0  0  0
  182.3480  178.9590  138.3850 C   0  0  0  0  0  1  0  0  0  0  0  0
  190.9790  174.6080  137.1330 C   0  0  0  0  0  2  0  0  0  0  0  0
  188.0490  176.1340  135.2820 C   0  0  0  0  0  3  0  0  0  0  0  0
  188.5100  174.1350  137.1790 C   0  0  0  0  0  3  0  0  0  0  0  0
  187.2090  174.3990  136.7480 C   0  0  0  0  0  3  0  0  0  0  0  0
  189.3510  175.8710  135.7170 C   0  0  0  0  0  3  0  0  0  0  0  0
  186.9660  175.3980  135.7900 C   0  0  0  0  0  0  0  0  0  0  0  0
  189.5860  174.8700  136.6630 C   0  0  0  0  0  0  0  0  0  0  0  0
  184.7350  174.6560  134.8140 C   0  0  0  0  0  2  0  0  0  0  0  0
  183.6670  176.8520  134.7320 C   0  0  0  0  0  2  0  0  0  0  0  0
  185.0190  176.9920  135.4080 C   0  0  0  0  0  2  0  0  0  0  0  0
  183.4060  175.3550  134.5940 C   0  0  0  0  0  2  0  0  0  0  0  0
  185.6250  175.6730  135.3490 N   0  0  0  0  0  0  0  0  0  0  0  0
  1  6  1  0  0  0  0
  2  1  1  0  0  0  0
  3 10  1  1  0  0  0
  4  7  2  0  0  0  0
  5  2  1  0  0  0  0
  5  4  2  0  0  0  0
  6  3  1  0  0  0  0
  7 24  1  0  0  0  0
  7  3  1  0  0  0  0
  8 11  1  0  0  0  0
 10  9  2  0  0  0  0
 10  8  1  0  0  0  0
 12 11  1  1  0  0  0
 12 16  1  0  0  0  0
 12 20  1  0  0  0  0
 13 18  1  0  0  0  0
 14 18  1  0  0  0  0
 15 17  1  0  0  0  0
 15 16  1  0  0  0  0
 16 13  1  0  0  0  0
 17 14  1  0  0  0  0
 19 21  1  0  0  0  0
 20 19  2  0  0  0  0
 21 22  2  0  0  0  0
 21 23  1  0  0  0  0
 25 30  1  1  0  0  0
 26 28  1  6  0  0  0
 26 27  1  0  0  0  0
 26 25  1  0  0  0  0
 27 25  1  0  0  0  0
 27 24  1  1  0  0  0
 29 31  2  0  0  0  0
 30 29  1  0  0  0  0
 33 32  2  0  0  0  0
 33 29  1  0  0  0  0
 34 33  1  0  0  0  0
 35 34  1  0  0  0  0
 36  5  1  0  0  0  0
 37 40  2  0  0  0  0
 37 41  1  0  0  0  0
 39 38  1  0  0  0  0
 40 42  1  0  0  0  0
 41 39  2  0  0  0  0
 42 36  1  0  0  0  0
 42 38  2  0  0  0  0
 43 47  1  0  0  0  0
 44 45  1  0  0  0  0
 46 44  1  0  0  0  0
 46 43  1  0  0  0  0
 47 45  1  0  0  0  0
 47 41  1  0  0  0  0
M  END
>  <MODEL>
8

>  <REMARK>
 VINA RESULT:      -6.9      2.070      3.852
  Name = 
  14 active torsions:
  status: ('A' for Active; 'I' for Inactive)
    1  A    between atoms: C_1  and  N_5
    2  A    between atoms: C_2  and  C_43
    3  A    between atoms: C_3  and  N_12
    4  A    between atoms: C_3  and  C_18
    5  A    between atoms: C_4  and  N_9
    6  A    between atoms: C_7  and  C_31
    7  A    between atoms: C_18  and  N_26
    8  A    between atoms: C_18  and  C_34
    9  A    between atoms: C_19  and  C_20
   10  A    between atoms: C_22  and  C_43
   11  A    between atoms: C_30  and  C_42
   12  A    between atoms: C_31  and  C_46
   13  A    between atoms: N_41  and  C_45
   14  A    between atoms: C_42  and  C_47
                            x       y       z     vdW  Elec       q    Type
                         _______ _______ _______ _____ _____    ______ ____

>  <TORSDO>
F 14

$$$$
=
 OpenBabel10222420253D

 47 51  0  0  1  0  0  0  0  0999 V2000
  188.8050  178.0690  138.5850 C   0  0  0  0  0  2  0  0  0  0  0  0
  189.5130  177.9620  139.9580 C   0  0  0  0  0  2  0  0  0  0  0  0
  189.4550  175.9680  137.1590 C   0  0  1  0  0  3  0  0  0  0  0  0
  191.0290  176.4790  138.8950 C   0  0  0  0  0  0  0  0  0  0  0  0
  190.8630  177.2870  139.8950 C   0  0  0  0  0  0  0  0  0  0  0  0
  188.3850  176.6890  138.0330 C   0  0  0  0  0  2  0  0  0  0  0  0
  190.8300  175.8330  137.7860 C   0  0  0  0  0  0  0  0  0  0  0  0
  188.0120  174.5460  135.6570 N   0  0  0  0  0  2  0  0  0  0  0  0
  189.1630  173.6180  137.4650 O   0  0  0  0  0  0  0  0  0  0  0  0
  188.9080  174.6370  136.7640 C   0  0  0  0  0  0  0  0  0  0  0  0
  187.2180  173.3500  135.4200 C   0  0  0  0  0  2  0  0  0  0  0  0
  185.7180  173.6790  135.3180 C   0  0  2  0  0  3  0  0  0  0  0  0
  184.8580  174.9690  137.1300 C   0  0  0  0  0  2  0  0  0  0  0  0
  183.3900  176.8310  136.7320 O   0  0  0  0  0  0  0  0  0  0  0  0
  184.3860  175.6290  134.9010 C   0  0  0  0  0  2  0  0  0  0  0  0
  185.4190  175.0480  135.7710 N   0  0  0  0  0  0  0  0  0  0  0  0
  183.9590  176.9920  135.4530 C   0  0  0  0  0  2  0  0  0  0  0  0
  184.4080  176.3610  137.5830 C   0  0  0  0  0  2  0  0  0  0  0  0
  183.8980  172.0670  135.5580 N   0  0  0  0  0  0  0  0  0  0  0  0
  184.9090  172.6760  136.0930 C   0  0  0  0  0  3  0  0  0  0  0  0
  183.1190  171.1130  136.2830 C   0  0  0  0  0  0  0  0  0  0  0  0
  182.3470  171.4760  137.2120 O   0  0  0  0  0  0  0  0  0  0  0  0
  183.2170  169.6690  135.9380 C   0  0  0  0  0  1  0  0  0  0  0  0
  191.9710  175.2490  137.0130 C   0  0  0  0  0  2  0  0  0  0  0  0
  194.4380  175.8230  137.4580 C   0  0  1  0  0  3  0  0  0  0  0  0
  194.1910  175.7210  135.9660 C   0  0  1  0  0  3  0  0  0  0  0  0
  193.1010  176.2730  136.8640 C   0  0  1  0  0  3  0  0  0  0  0  0
  194.8380  176.7790  135.3280 O   0  0  0  0  0  1  0  0  0  0  0  0
  195.4710  173.8170  138.7120 C   0  0  0  0  0  0  0  0  0  0  0  0
  194.3880  174.4850  138.0410 N   0  0  0  0  0  2  0  0  0  0  0  0
  195.3370  172.5870  138.9630 O   0  0  0  0  0  0  0  0  0  0  0  0
  196.8140  175.2180  140.2370 C   0  0  0  0  0  2  0  0  0  0  0  0
  196.7270  174.4960  139.1260 C   0  0  0  0  0  0  0  0  0  0  0  0
  197.9870  174.2470  138.3680 C   0  0  0  0  0  2  0  0  0  0  0  0
  197.8620  174.7580  136.9420 C   0  0  0  0  0  1  0  0  0  0  0  0
  191.7130  177.1450  141.1150 C   0  0  0  0  0  2  0  0  0  0  0  0
  189.2510  176.4770  143.9150 C   0  0  0  0  0  3  0  0  0  0  0  0
  191.0420  178.4770  143.1390 C   0  0  0  0  0  3  0  0  0  0  0  0
  190.2780  178.6370  144.2970 C   0  0  0  0  0  3  0  0  0  0  0  0
  190.0150  176.3200  142.7550 C   0  0  0  0  0  3  0  0  0  0  0  0
  189.3790  177.6360  144.7000 C   0  0  0  0  0  0  0  0  0  0  0  0
  190.9130  177.3160  142.3660 C   0  0  0  0  0  0  0  0  0  0  0  0
  189.0790  177.5030  147.2240 C   0  0  0  0  0  2  0  0  0  0  0  0
  186.7370  178.1940  147.3130 C   0  0  0  0  0  2  0  0  0  0  0  0
  187.2240  178.3020  145.8790 C   0  0  0  0  0  2  0  0  0  0  0  0
  187.9730  177.9330  148.1700 C   0  0  0  0  0  2  0  0  0  0  0  0
  188.5880  177.8020  145.8890 N   0  0  0  0  0  0  0  0  0  0  0  0
  1  2  1  0  0  0  0
  3 10  1  1  0  0  0
  3  7  1  0  0  0  0
  3  6  1  0  0  0  0
  4  5  2  0  0  0  0
  5  2  1  0  0  0  0
  5 36  1  0  0  0  0
  6  1  1  0  0  0  0
  7  4  2  0  0  0  0
  8 10  1  0  0  0  0
 10  9  2  0  0  0  0
 11  8  1  0  0  0  0
 12 11  1  1  0  0  0
 12 16  1  0  0  0  0
 12 20  1  0  0  0  0
 13 18  1  0  0  0  0
 14 18  1  0  0  0  0
 15 17  1  0  0  0  0
 15 16  1  0  0  0  0
 16 13  1  0  0  0  0
 17 14  1  0  0  0  0
 19 20  2  0  0  0  0
 19 21  1  0  0  0  0
 21 22  2  0  0  0  0
 23 21  1  0  0  0  0
 24  7  1  0  0  0  0
 25 30  1  1  0  0  0
 26 28  1  6  0  0  0
 26 27  1  0  0  0  0
 26 25  1  0  0  0  0
 27 24  1  1  0  0  0
 27 25  1  0  0  0  0
 29 31  2  0  0  0  0
 29 33  1  0  0  0  0
 30 29  1  0  0  0  0
 33 32  2  0  0  0  0
 34 33  1  0  0  0  0
 35 34  1  0  0  0  0
 36 42  1  0  0  0  0
 37 41  1  0  0  0  0
 38 39  1  0  0  0  0
 39 41  2  0  0  0  0
 40 37  2  0  0  0  0
 41 47  1  0  0  0  0
 42 40  1  0  0  0  0
 42 38  2  0  0  0  0
 43 46  1  0  0  0  0
 44 46  1  0  0  0  0
 45 47  1  0  0  0  0
 45 44  1  0  0  0  0
 47 43  1  0  0  0  0
M  END
>  <MODEL>
9

>  <REMARK>
 VINA RESULT:      -6.9      3.387      9.802
  Name = 
  14 active torsions:
  status: ('A' for Active; 'I' for Inactive)
    1  A    between atoms: C_1  and  N_5
    2  A    between atoms: C_2  and  C_43
    3  A    between atoms: C_3  and  N_12
    4  A    between atoms: C_3  and  C_18
    5  A    between atoms: C_4  and  N_9
    6  A    between atoms: C_7  and  C_31
    7  A    between atoms: C_18  and  N_26
    8  A    between atoms: C_18  and  C_34
    9  A    between atoms: C_19  and  C_20
   10  A    between atoms: C_22  and  C_43
   11  A    between atoms: C_30  and  C_42
   12  A    between atoms: C_31  and  C_46
   13  A    between atoms: N_41  and  C_45
   14  A    between atoms: C_42  and  C_47
                            x       y       z     vdW  Elec       q    Type
                         _______ _______ _______ _____ _____    ______ ____

>  <TORSDO>
F 14

$$$$
