=
 OpenBabel10222417513D

 53 55  0  0  1  0  0  0  0  0999 V2000
  186.4730  178.3190  143.0160 C   0  0  1  0  0  3  0  0  0  0  0  0
  185.0510  177.8730  142.7560 C   0  0  1  0  0  3  0  0  0  0  0  0
  185.3690  178.6160  144.0400 C   0  0  1  0  0  3  0  0  0  0  0  0
  185.3010  177.6490  145.2140 C   0  0  0  0  0  2  0  0  0  0  0  0
  185.3550  178.4300  146.5110 C   0  0  0  0  0  2  0  0  0  0  0  0
  186.7860  178.8320  146.8420 C   0  0  1  0  0  3  0  0  0  0  0  0
  186.7980  179.8400  147.9780 C   0  0  0  0  0  1  0  0  0  0  0  0
  187.7940  177.3590  148.6430 C   0  0  0  0  0  1  0  0  0  0  0  0
  187.7250  177.6490  147.1490 C   0  0  2  0  0  3  0  0  0  0  0  0
  189.3010  178.3690  145.5440 O   0  0  0  0  0  0  0  0  0  0  0  0
  190.2650  176.9250  147.1070 C   0  0  0  0  0  1  0  0  0  0  0  0
  189.1110  177.6860  146.5370 C   0  0  0  0  0  0  0  0  0  0  0  0
  187.3440  177.1000  143.3170 C   0  0  0  0  0  2  0  0  0  0  0  0
  188.4710  177.0060  142.3390 C   0  0  0  0  0  0  0  0  0  0  0  0
  190.6430  177.3360  140.6790 C   0  0  1  0  0  3  0  0  0  0  0  0
  189.3530  177.3720  140.1150 O   0  0  0  0  0  0  0  0  0  0  0  0
  189.5530  176.2770  142.6450 C   0  0  0  0  0  3  0  0  0  0  0  0
  188.4880  177.8830  141.1060 C   0  0  0  0  0  2  0  0  0  0  0  0
  190.7280  176.2050  141.7090 C   0  0  0  0  0  2  0  0  0  0  0  0
  191.3670  175.1720  135.8070 O   0  0  0  0  0  0  0  0  0  0  0  0
  190.3030  175.9580  138.1600 O   0  0  0  0  0  0  0  0  0  0  0  0
  193.6070  175.5940  135.3860 N   0  0  0  0  0  2  0  0  0  0  0  0
  192.5160  176.3260  137.4900 N   0  0  0  0  0  2  0  0  0  0  0  0
  191.4330  176.4590  138.4150 C   0  0  0  0  0  0  0  0  0  0  0  0
  192.4450  175.6780  136.2130 C   0  0  0  0  0  0  0  0  0  0  0  0
  191.6510  177.1660  139.6390 N   0  0  0  0  0  2  0  0  0  0  0  0
  194.9090  176.1090  135.8000 C   0  0  2  0  0  3  0  0  0  0  0  0
  195.2790  177.3320  134.9760 C   0  0  0  0  0  1  0  0  0  0  0  0
  195.9880  175.0330  135.6650 C   0  0  1  0  0  3  0  0  0  0  0  0
  197.3690  175.6590  135.7920 C   0  0  0  0  0  2  0  0  0  0  0  0
  197.7790  175.6410  137.1270 O   0  0  0  0  0  1  0  0  0  0  0  0
  195.8230  174.0350  136.6340 O   0  0  0  0  0  0  0  0  0  0  0  0
  195.8940  172.8300  135.9270 C   0  0  0  0  0  2  0  0  0  0  0  0
  194.6050  172.0480  136.1070 C   0  0  0  0  0  2  0  0  0  0  0  0
  195.3460  171.4660  138.4160 O   0  0  0  0  0  1  0  0  0  0  0  0
  194.7330  171.0790  137.2320 C   0  0  0  0  0  0  0  0  0  0  0  0
  194.3130  169.9000  137.0980 O   0  0  0  0  0  0  0  0  0  0  0  0
  184.3970  178.8230  141.7720 C   0  0  0  0  0  2  0  0  0  0  0  0
  185.2880  178.9910  140.5520 C   0  0  0  0  0  2  0  0  0  0  0  0
  183.0230  179.5430  139.5890 C   0  0  0  0  0  1  0  0  0  0  0  0
  184.4600  179.1350  139.2810 C   0  0  2  0  0  3  0  0  0  0  0  0
  186.1200  176.7500  135.2550 C   0  0  0  0  0  1  0  0  0  0  0  0
  184.0690  175.9510  136.4370 C   0  0  0  0  0  0  0  0  0  0  0  0
  182.7480  176.8650  139.6940 O   0  0  0  0  0  0  0  0  0  0  0  0
  183.4890  176.8670  138.6730 C   0  0  0  0  0  0  0  0  0  0  0  0
  182.3920  174.7560  137.8700 C   0  0  0  0  0  1  0  0  0  0  0  0
  184.4880  177.8910  138.5010 N   0  0  0  0  0  0  0  0  0  0  0  0
  183.3290  175.8560  137.6660 N   0  0  0  0  0  0  0  0  0  0  0  0
  184.9830  177.1300  136.1970 C   0  0  1  0  0  3  0  0  0  0  0  0
  185.5600  177.6490  137.5220 C   0  0  1  0  0  3  0  0  0  0  0  0
  183.8940  175.0870  135.5270 O   0  0  0  0  0  0  0  0  0  0  0  0
  186.3100  178.8130  137.3020 O   0  0  0  0  0  0  0  0  0  0  0  0
  187.6400  178.4220  137.4770 C   0  0  0  0  0  1  0  0  0  0  0  0
  1 13  1  1  0  0  0
  1  3  1  0  0  0  0
  2 38  1  6  0  0  0
  2  1  1  0  0  0  0
  2  3  1  0  0  0  0
  3  4  1  1  0  0  0
  4  5  1  0  0  0  0
  5  6  1  0  0  0  0
  6  9  1  0  0  0  0
  6  7  1  1  0  0  0
  9  8  1  1  0  0  0
 10 12  2  0  0  0  0
 12 11  1  0  0  0  0
 12  9  1  0  0  0  0
 14 17  2  0  0  0  0
 14 13  1  0  0  0  0
 15 26  1  6  0  0  0
 15 19  1  0  0  0  0
 16 15  1  0  0  0  0
 16 18  1  0  0  0  0
 18 14  1  0  0  0  0
 19 17  1  0  0  0  0
 20 25  2  0  0  0  0
 21 24  2  0  0  0  0
 22 27  1  0  0  0  0
 22 25  1  0  0  0  0
 23 24  1  0  0  0  0
 24 26  1  0  0  0  0
 25 23  1  0  0  0  0
 27 28  1  6  0  0  0
 29 30  1  1  0  0  0
 29 27  1  0  0  0  0
 29 32  1  0  0  0  0
 30 31  1  0  0  0  0
 33 34  1  0  0  0  0
 33 32  1  0  0  0  0
 34 36  1  0  0  0  0
 36 35  1  0  0  0  0
 37 36  2  0  0  0  0
 39 38  1  0  0  0  0
 41 40  1  1  0  0  0
 41 39  1  0  0  0  0
 43 48  1  0  0  0  0
 45 44  2  0  0  0  0
 47 45  1  0  0  0  0
 47 41  1  0  0  0  0
 48 46  1  0  0  0  0
 48 45  1  0  0  0  0
 49 42  1  6  0  0  0
 49 43  1  0  0  0  0
 49 50  1  0  0  0  0
 50 52  1  6  0  0  0
 50 47  1  0  0  0  0
 51 43  2  0  0  0  0
 52 53  1  0  0  0  0
M  END
>  <MODEL>
1

>  <REMARK>
 VINA RESULT:      -7.1      0.000      0.000
  Name = 
  20 active torsions:
  status: ('A' for Active; 'I' for Inactive)
    1  A    between atoms: C_1  and  C_30
    2  A    between atoms: C_2  and  N_37
    3  A    between atoms: N_5  and  C_42
    4  A    between atoms: C_6  and  C_14
    5  A    between atoms: C_6  and  C_22
    6  A    between atoms: C_7  and  C_48
    7  A    between atoms: C_7  and  O_53
    8  A    between atoms: C_8  and  C_17
    9  A    between atoms: O_13  and  C_47
   10  A    between atoms: C_14  and  C_52
   11  A    between atoms: C_17  and  C_42
   12  A    between atoms: C_17  and  O_53
   13  A    between atoms: C_21  and  C_30
   14  A    between atoms: C_22  and  C_27
   15  A    between atoms: C_25  and  C_39
   16  A    between atoms: N_35  and  C_50
   17  A    between atoms: C_36  and  C_52
   18  A    between atoms: C_38  and  C_48
   19  A    between atoms: C_39  and  C_40
   20  A    between atoms: C_40  and  C_50
                            x       y       z     vdW  Elec       q    Type
                         _______ _______ _______ _____ _____    ______ ____

>  <TORSDO>
F 20

$$$$
=
 OpenBabel10222417513D

 53 55  0  0  1  0  0  0  0  0999 V2000
  185.8560  178.8970  142.0400 C   0  0  1  0  0  3  0  0  0  0  0  0
  184.5430  178.1510  141.9630 C   0  0  1  0  0  3  0  0  0  0  0  0
  184.7170  179.2330  143.0130 C   0  0  1  0  0  3  0  0  0  0  0  0
  184.8330  178.5900  144.3870 C   0  0  0  0  0  2  0  0  0  0  0  0
  185.4410  179.5830  145.3570 C   0  0  0  0  0  2  0  0  0  0  0  0
  185.9360  178.8800  146.6140 C   0  0  1  0  0  3  0  0  0  0  0  0
  184.8410  177.9990  147.1870 C   0  0  0  0  0  1  0  0  0  0  0  0
  186.9720  176.6980  145.8440 C   0  0  0  0  0  1  0  0  0  0  0  0
  187.2400  178.0820  146.4240 C   0  0  2  0  0  3  0  0  0  0  0  0
  187.8330  178.4720  148.6760 O   0  0  0  0  0  0  0  0  0  0  0  0
  189.5330  177.3610  147.5200 C   0  0  0  0  0  1  0  0  0  0  0  0
  188.1850  178.0030  147.6060 C   0  0  0  0  0  0  0  0  0  0  0  0
  186.9400  177.9690  142.5850 C   0  0  0  0  0  2  0  0  0  0  0  0
  188.0460  177.8140  141.5920 C   0  0  0  0  0  0  0  0  0  0  0  0
  189.9070  177.0280  139.7210 C   0  0  1  0  0  3  0  0  0  0  0  0
  190.3120  177.1470  141.0650 O   0  0  0  0  0  0  0  0  0  0  0  0
  187.9390  178.3900  140.3870 C   0  0  0  0  0  3  0  0  0  0  0  0
  189.1830  176.8520  141.8590 C   0  0  0  0  0  2  0  0  0  0  0  0
  189.0070  178.2090  139.3440 C   0  0  0  0  0  2  0  0  0  0  0  0
  191.3750  175.5610  134.7570 O   0  0  0  0  0  0  0  0  0  0  0  0
  189.9550  176.0500  137.0010 O   0  0  0  0  0  0  0  0  0  0  0  0
  193.6640  175.9250  134.7710 N   0  0  0  0  0  2  0  0  0  0  0  0
  192.2580  176.3990  136.7580 N   0  0  0  0  0  2  0  0  0  0  0  0
  191.0400  176.4510  137.5060 C   0  0  0  0  0  0  0  0  0  0  0  0
  192.3840  175.9480  135.4030 C   0  0  0  0  0  0  0  0  0  0  0  0
  191.0690  176.9610  138.8420 N   0  0  0  0  0  2  0  0  0  0  0  0
  194.8930  176.3070  135.4620 C   0  0  2  0  0  3  0  0  0  0  0  0
  195.4150  177.6280  134.9180 C   0  0  0  0  0  1  0  0  0  0  0  0
  195.9580  175.2190  135.3210 C   0  0  1  0  0  3  0  0  0  0  0  0
  197.3450  175.8180  135.5000 C   0  0  0  0  0  2  0  0  0  0  0  0
  197.7370  175.7200  136.8370 O   0  0  0  0  0  1  0  0  0  0  0  0
  195.7540  174.1960  136.2570 O   0  0  0  0  0  0  0  0  0  0  0  0
  195.7300  173.0180  135.5040 C   0  0  0  0  0  2  0  0  0  0  0  0
  195.1200  171.8930  136.3210 C   0  0  0  0  0  2  0  0  0  0  0  0
  195.2340  171.8610  138.8120 O   0  0  0  0  0  1  0  0  0  0  0  0
  195.8740  171.7000  137.5910 C   0  0  0  0  0  0  0  0  0  0  0  0
  197.1010  171.4190  137.5570 O   0  0  0  0  0  0  0  0  0  0  0  0
  183.7210  178.6950  140.8110 C   0  0  0  0  0  2  0  0  0  0  0  0
  183.4070  177.5740  139.8320 C   0  0  0  0  0  2  0  0  0  0  0  0
  182.4420  178.8270  137.8660 C   0  0  0  0  0  1  0  0  0  0  0  0
  183.6270  178.0230  138.3920 C   0  0  2  0  0  3  0  0  0  0  0  0
  182.4420  173.3720  137.1230 C   0  0  0  0  0  1  0  0  0  0  0  0
  184.7040  174.2870  136.5860 C   0  0  0  0  0  0  0  0  0  0  0  0
  185.9210  177.7070  136.6930 O   0  0  0  0  0  0  0  0  0  0  0  0
  185.1470  176.7200  136.8280 C   0  0  0  0  0  0  0  0  0  0  0  0
  186.7320  175.2920  135.5040 C   0  0  0  0  0  1  0  0  0  0  0  0
  183.8940  176.8680  137.5250 N   0  0  0  0  0  0  0  0  0  0  0  0
  185.5160  175.4380  136.2990 N   0  0  0  0  0  0  0  0  0  0  0  0
  183.4860  174.4260  137.4700 C   0  0  1  0  0  3  0  0  0  0  0  0
  182.8730  175.8270  137.3330 C   0  0  1  0  0  3  0  0  0  0  0  0
  185.0540  173.1460  136.1620 O   0  0  0  0  0  0  0  0  0  0  0  0
  181.8180  175.9860  138.2430 O   0  0  0  0  0  0  0  0  0  0  0  0
  180.6670  176.0360  137.4530 C   0  0  0  0  0  1  0  0  0  0  0  0
  1 13  1  1  0  0  0
  1  3  1  0  0  0  0
  2 38  1  6  0  0  0
  2  1  1  0  0  0  0
  2  3  1  0  0  0  0
  3  4  1  1  0  0  0
  4  5  1  0  0  0  0
  5  6  1  0  0  0  0
  6  7  1  6  0  0  0
  9  8  1  1  0  0  0
  9  6  1  0  0  0  0
  9 12  1  0  0  0  0
 11 12  1  0  0  0  0
 12 10  2  0  0  0  0
 14 18  1  0  0  0  0
 14 13  1  0  0  0  0
 15 26  1  6  0  0  0
 15 16  1  0  0  0  0
 16 18  1  0  0  0  0
 17 14  2  0  0  0  0
 19 15  1  0  0  0  0
 19 17  1  0  0  0  0
 20 25  2  0  0  0  0
 21 24  2  0  0  0  0
 22 25  1  0  0  0  0
 22 27  1  0  0  0  0
 23 24  1  0  0  0  0
 24 26  1  0  0  0  0
 25 23  1  0  0  0  0
 27 28  1  6  0  0  0
 29 27  1  0  0  0  0
 29 30  1  1  0  0  0
 29 32  1  0  0  0  0
 30 31  1  0  0  0  0
 33 32  1  0  0  0  0
 33 34  1  0  0  0  0
 34 36  1  0  0  0  0
 36 35  1  0  0  0  0
 37 36  2  0  0  0  0
 39 38  1  0  0  0  0
 41 40  1  6  0  0  0
 41 39  1  0  0  0  0
 43 49  1  0  0  0  0
 44 45  2  0  0  0  0
 45 47  1  0  0  0  0
 46 48  1  0  0  0  0
 47 41  1  0  0  0  0
 48 43  1  0  0  0  0
 48 45  1  0  0  0  0
 49 42  1  6  0  0  0
 50 49  1  0  0  0  0
 50 47  1  0  0  0  0
 50 52  1  1  0  0  0
 51 43  2  0  0  0  0
 53 52  1  0  0  0  0
M  END
>  <MODEL>
2

>  <REMARK>
 VINA RESULT:      -6.8      1.332      2.427
  Name = 
  20 active torsions:
  status: ('A' for Active; 'I' for Inactive)
    1  A    between atoms: C_1  and  C_30
    2  A    between atoms: C_2  and  N_37
    3  A    between atoms: N_5  and  C_42
    4  A    between atoms: C_6  and  C_14
    5  A    between atoms: C_6  and  C_22
    6  A    between atoms: C_7  and  C_48
    7  A    between atoms: C_7  and  O_53
    8  A    between atoms: C_8  and  C_17
    9  A    between atoms: O_13  and  C_47
   10  A    between atoms: C_14  and  C_52
   11  A    between atoms: C_17  and  C_42
   12  A    between atoms: C_17  and  O_53
   13  A    between atoms: C_21  and  C_30
   14  A    between atoms: C_22  and  C_27
   15  A    between atoms: C_25  and  C_39
   16  A    between atoms: N_35  and  C_50
   17  A    between atoms: C_36  and  C_52
   18  A    between atoms: C_38  and  C_48
   19  A    between atoms: C_39  and  C_40
   20  A    between atoms: C_40  and  C_50
                            x       y       z     vdW  Elec       q    Type
                         _______ _______ _______ _____ _____    ______ ____

>  <TORSDO>
F 20

$$$$
=
 OpenBabel10222417513D

 53 55  0  0  1  0  0  0  0  0999 V2000
  186.2620  178.8700  142.0090 C   0  0  1  0  0  3  0  0  0  0  0  0
  184.9150  178.2540  141.7030 C   0  0  1  0  0  3  0  0  0  0  0  0
  185.0640  179.1270  142.9350 C   0  0  1  0  0  3  0  0  0  0  0  0
  185.0150  178.2550  144.1820 C   0  0  0  0  0  2  0  0  0  0  0  0
  185.7220  178.9640  145.3190 C   0  0  0  0  0  2  0  0  0  0  0  0
  186.4670  177.9680  146.1990 C   0  0  1  0  0  3  0  0  0  0  0  0
  186.4480  176.5910  145.5620 C   0  0  0  0  0  1  0  0  0  0  0  0
  188.9070  177.9080  145.5130 C   0  0  0  0  0  1  0  0  0  0  0  0
  187.9060  178.3880  146.5570 C   0  0  2  0  0  3  0  0  0  0  0  0
  187.5720  177.8040  148.8210 O   0  0  0  0  0  0  0  0  0  0  0  0
  189.8380  178.0880  148.3320 C   0  0  0  0  0  1  0  0  0  0  0  0
  188.3910  178.0800  147.9590 C   0  0  0  0  0  0  0  0  0  0  0  0
  187.2300  177.7800  142.4660 C   0  0  0  0  0  2  0  0  0  0  0  0
  188.3510  177.6300  141.4890 C   0  0  0  0  0  0  0  0  0  0  0  0
  190.2390  176.8550  139.6410 C   0  0  1  0  0  3  0  0  0  0  0  0
  190.6240  176.9680  140.9910 O   0  0  0  0  0  0  0  0  0  0  0  0
  188.2600  178.2120  140.2840 C   0  0  0  0  0  3  0  0  0  0  0  0
  189.4850  176.6690  141.7670 C   0  0  0  0  0  2  0  0  0  0  0  0
  189.3440  178.0370  139.2560 C   0  0  0  0  0  2  0  0  0  0  0  0
  191.8240  175.2190  134.7660 O   0  0  0  0  0  0  0  0  0  0  0  0
  190.3590  175.7550  136.9700 O   0  0  0  0  0  0  0  0  0  0  0  0
  194.0970  175.6730  134.7880 N   0  0  0  0  0  2  0  0  0  0  0  0
  192.6490  176.1820  136.7360 N   0  0  0  0  0  2  0  0  0  0  0  0
  191.4200  176.2210  137.4680 C   0  0  0  0  0  0  0  0  0  0  0  0
  192.8090  175.6740  135.4050 C   0  0  0  0  0  0  0  0  0  0  0  0
  191.4140  176.7920  138.7790 N   0  0  0  0  0  2  0  0  0  0  0  0
  195.3010  176.1340  135.4730 C   0  0  2  0  0  3  0  0  0  0  0  0
  195.7180  177.4980  134.9470 C   0  0  0  0  0  1  0  0  0  0  0  0
  196.4430  175.1300  135.3030 C   0  0  1  0  0  3  0  0  0  0  0  0
  196.9840  174.7190  136.6640 C   0  0  0  0  0  2  0  0  0  0  0  0
  197.9650  175.6230  137.0800 O   0  0  0  0  0  1  0  0  0  0  0  0
  196.0130  173.9980  134.5970 O   0  0  0  0  0  0  0  0  0  0  0  0
  196.4670  172.9100  135.3490 C   0  0  0  0  0  2  0  0  0  0  0  0
  195.4420  171.7900  135.3080 C   0  0  0  0  0  2  0  0  0  0  0  0
  194.0640  172.7930  137.1270 O   0  0  0  0  0  1  0  0  0  0  0  0
  194.1350  172.2560  135.8500 C   0  0  0  0  0  0  0  0  0  0  0  0
  193.0900  172.1370  135.1590 O   0  0  0  0  0  0  0  0  0  0  0  0
  184.2360  179.0470  140.6030 C   0  0  0  0  0  2  0  0  0  0  0  0
  182.7290  178.8600  140.6920 C   0  0  0  0  0  2  0  0  0  0  0  0
  181.0090  179.4490  138.9420 C   0  0  0  0  0  1  0  0  0  0  0  0
  182.1390  178.5020  139.3340 C   0  0  2  0  0  3  0  0  0  0  0  0
  181.8660  174.1900  136.8870 C   0  0  0  0  0  1  0  0  0  0  0  0
  180.2280  174.7170  138.6990 C   0  0  0  0  0  0  0  0  0  0  0  0
  180.2830  177.3490  141.2000 O   0  0  0  0  0  0  0  0  0  0  0  0
  180.6200  176.6580  140.2000 C   0  0  0  0  0  0  0  0  0  0  0  0
  178.9480  174.9010  140.8490 C   0  0  0  0  0  1  0  0  0  0  0  0
  181.6720  177.1090  139.3240 N   0  0  0  0  0  0  0  0  0  0  0  0
  179.9450  175.4220  139.9190 N   0  0  0  0  0  0  0  0  0  0  0  0
  181.2070  175.2960  137.7030 C   0  0  1  0  0  3  0  0  0  0  0  0
  182.2830  176.1240  138.4190 C   0  0  1  0  0  3  0  0  0  0  0  0
  179.5990  173.6520  138.4260 O   0  0  0  0  0  0  0  0  0  0  0  0
  183.1150  176.7530  137.4810 O   0  0  0  0  0  0  0  0  0  0  0  0
  184.3490  176.1110  137.6080 C   0  0  0  0  0  1  0  0  0  0  0  0
  1 13  1  1  0  0  0
  1  3  1  0  0  0  0
  2 38  1  6  0  0  0
  2  1  1  0  0  0  0
  2  3  1  0  0  0  0
  3  4  1  1  0  0  0
  4  5  1  0  0  0  0
  5  6  1  0  0  0  0
  6  7  1  6  0  0  0
  6  9  1  0  0  0  0
  9  8  1  6  0  0  0
  9 12  1  0  0  0  0
 12 11  1  0  0  0  0
 12 10  2  0  0  0  0
 14 18  1  0  0  0  0
 14 13  1  0  0  0  0
 15 26  1  6  0  0  0
 15 16  1  0  0  0  0
 16 18  1  0  0  0  0
 17 14  2  0  0  0  0
 19 15  1  0  0  0  0
 19 17  1  0  0  0  0
 20 25  2  0  0  0  0
 21 24  2  0  0  0  0
 22 25  1  0  0  0  0
 22 27  1  0  0  0  0
 23 24  1  0  0  0  0
 24 26  1  0  0  0  0
 25 23  1  0  0  0  0
 27 28  1  6  0  0  0
 29 27  1  0  0  0  0
 29 30  1  1  0  0  0
 30 31  1  0  0  0  0
 32 29  1  0  0  0  0
 32 33  1  0  0  0  0
 34 33  1  0  0  0  0
 34 36  1  0  0  0  0
 36 35  1  0  0  0  0
 37 36  2  0  0  0  0
 38 39  1  0  0  0  0
 41 40  1  1  0  0  0
 41 39  1  0  0  0  0
 43 48  1  0  0  0  0
 45 44  2  0  0  0  0
 47 41  1  0  0  0  0
 47 45  1  0  0  0  0
 48 45  1  0  0  0  0
 48 46  1  0  0  0  0
 49 42  1  1  0  0  0
 49 50  1  0  0  0  0
 49 43  1  0  0  0  0
 50 52  1  6  0  0  0
 50 47  1  0  0  0  0
 51 43  2  0  0  0  0
 52 53  1  0  0  0  0
M  END
>  <MODEL>
3

>  <REMARK>
 VINA RESULT:      -6.7      1.865      2.569
  Name = 
  20 active torsions:
  status: ('A' for Active; 'I' for Inactive)
    1  A    between atoms: C_1  and  C_30
    2  A    between atoms: C_2  and  N_37
    3  A    between atoms: N_5  and  C_42
    4  A    between atoms: C_6  and  C_14
    5  A    between atoms: C_6  and  C_22
    6  A    between atoms: C_7  and  C_48
    7  A    between atoms: C_7  and  O_53
    8  A    between atoms: C_8  and  C_17
    9  A    between atoms: O_13  and  C_47
   10  A    between atoms: C_14  and  C_52
   11  A    between atoms: C_17  and  C_42
   12  A    between atoms: C_17  and  O_53
   13  A    between atoms: C_21  and  C_30
   14  A    between atoms: C_22  and  C_27
   15  A    between atoms: C_25  and  C_39
   16  A    between atoms: N_35  and  C_50
   17  A    between atoms: C_36  and  C_52
   18  A    between atoms: C_38  and  C_48
   19  A    between atoms: C_39  and  C_40
   20  A    between atoms: C_40  and  C_50
                            x       y       z     vdW  Elec       q    Type
                         _______ _______ _______ _____ _____    ______ ____

>  <TORSDO>
F 20

$$$$
=
 OpenBabel10222417513D

 53 55  0  0  1  0  0  0  0  0999 V2000
  186.2710  178.9720  141.9180 C   0  0  1  0  0  3  0  0  0  0  0  0
  184.9210  178.3270  141.6940 C   0  0  1  0  0  3  0  0  0  0  0  0
  185.1050  179.2660  142.8720 C   0  0  1  0  0  3  0  0  0  0  0  0
  185.1100  178.4600  144.1640 C   0  0  0  0  0  2  0  0  0  0  0  0
  185.6430  179.3220  145.2900 C   0  0  0  0  0  2  0  0  0  0  0  0
  186.2110  178.4600  146.4100 C   0  0  1  0  0  3  0  0  0  0  0  0
  185.4770  177.1320  146.4710 C   0  0  0  0  0  1  0  0  0  0  0  0
  188.1000  177.1680  145.3190 C   0  0  0  0  0  1  0  0  0  0  0  0
  187.7350  178.2420  146.3370 C   0  0  2  0  0  3  0  0  0  0  0  0
  187.9620  178.4230  148.6800 O   0  0  0  0  0  0  0  0  0  0  0  0
  189.7920  177.3320  147.7200 C   0  0  0  0  0  1  0  0  0  0  0  0
  188.4700  178.0250  147.6440 C   0  0  0  0  0  0  0  0  0  0  0  0
  187.2670  177.9170  142.3970 C   0  0  0  0  0  2  0  0  0  0  0  0
  188.3770  177.7560  141.4080 C   0  0  0  0  0  0  0  0  0  0  0  0
  190.2410  176.9620  139.5440 C   0  0  1  0  0  3  0  0  0  0  0  0
  190.6410  177.0790  140.8890 O   0  0  0  0  0  0  0  0  0  0  0  0
  188.2760  178.3320  140.2020 C   0  0  0  0  0  3  0  0  0  0  0  0
  189.5090  176.7900  141.6790 C   0  0  0  0  0  2  0  0  0  0  0  0
  189.3470  178.1460  139.1620 C   0  0  0  0  0  2  0  0  0  0  0  0
  191.7460  175.3660  134.6310 O   0  0  0  0  0  0  0  0  0  0  0  0
  190.3130  175.8990  136.8560 O   0  0  0  0  0  0  0  0  0  0  0  0
  194.0280  175.7740  134.6360 N   0  0  0  0  0  2  0  0  0  0  0  0
  192.6090  176.2830  136.6060 N   0  0  0  0  0  2  0  0  0  0  0  0
  191.3890  176.3360  137.3500 C   0  0  0  0  0  0  0  0  0  0  0  0
  192.7460  175.7920  135.2660 C   0  0  0  0  0  0  0  0  0  0  0  0
  191.4060  176.8880  138.6690 N   0  0  0  0  0  2  0  0  0  0  0  0
  195.2470  176.2010  135.3160 C   0  0  2  0  0  3  0  0  0  0  0  0
  195.5680  177.6460  134.9670 C   0  0  0  0  0  1  0  0  0  0  0  0
  196.4230  175.2950  134.9470 C   0  0  1  0  0  3  0  0  0  0  0  0
  197.6400  175.6470  135.7900 C   0  0  0  0  0  2  0  0  0  0  0  0
  198.8060  175.4590  135.0450 O   0  0  0  0  0  1  0  0  0  0  0  0
  196.0890  173.9460  135.1270 O   0  0  0  0  0  0  0  0  0  0  0  0
  196.1460  173.7420  136.5100 C   0  0  0  0  0  2  0  0  0  0  0  0
  196.3720  172.2700  136.8070 C   0  0  0  0  0  2  0  0  0  0  0  0
  195.0740  170.5510  138.0640 O   0  0  0  0  0  0  0  0  0  0  0  0
  195.5700  171.8450  137.9880 C   0  0  0  0  0  0  0  0  0  0  0  0
  195.3170  172.6690  138.9060 O   0  0  0  0  0  1  0  0  0  0  0  0
  184.1950  179.0540  140.5790 C   0  0  0  0  0  2  0  0  0  0  0  0
  182.9450  178.2790  140.1920 C   0  0  0  0  0  2  0  0  0  0  0  0
  184.3940  178.0680  138.1380 C   0  0  0  0  0  1  0  0  0  0  0  0
  183.0980  177.6400  138.8170 C   0  0  2  0  0  3  0  0  0  0  0  0
  179.7320  176.0120  135.5510 C   0  0  0  0  0  1  0  0  0  0  0  0
  180.2790  178.4460  135.6900 C   0  0  0  0  0  0  0  0  0  0  0  0
  182.1340  180.2790  138.2160 O   0  0  0  0  0  0  0  0  0  0  0  0
  181.6250  179.3090  137.5920 C   0  0  0  0  0  0  0  0  0  0  0  0
  180.3260  180.9100  136.1600 C   0  0  0  0  0  1  0  0  0  0  0  0
  181.9410  177.9540  137.9680 N   0  0  0  0  0  0  0  0  0  0  0  0
  180.7350  179.5490  136.4910 N   0  0  0  0  0  0  0  0  0  0  0  0
  180.7620  177.0460  135.9890 C   0  0  1  0  0  3  0  0  0  0  0  0
  181.0560  176.8820  137.4870 C   0  0  1  0  0  3  0  0  0  0  0  0
  179.5340  178.6600  134.6880 O   0  0  0  0  0  0  0  0  0  0  0  0
  181.6160  175.6200  137.7360 O   0  0  0  0  0  0  0  0  0  0  0  0
  180.8240  175.0690  138.7460 C   0  0  0  0  0  1  0  0  0  0  0  0
  1 13  1  1  0  0  0
  1  3  1  0  0  0  0
  2 38  1  6  0  0  0
  2  1  1  0  0  0  0
  2  3  1  0  0  0  0
  3  4  1  1  0  0  0
  4  5  1  0  0  0  0
  5  6  1  0  0  0  0
  6  7  1  6  0  0  0
  9  8  1  6  0  0  0
  9  6  1  0  0  0  0
  9 12  1  0  0  0  0
 12 11  1  0  0  0  0
 12 10  2  0  0  0  0
 14 18  1  0  0  0  0
 14 13  1  0  0  0  0
 15 26  1  6  0  0  0
 15 16  1  0  0  0  0
 16 18  1  0  0  0  0
 17 14  2  0  0  0  0
 19 15  1  0  0  0  0
 19 17  1  0  0  0  0
 20 25  2  0  0  0  0
 21 24  2  0  0  0  0
 22 25  1  0  0  0  0
 22 27  1  0  0  0  0
 23 24  1  0  0  0  0
 24 26  1  0  0  0  0
 25 23  1  0  0  0  0
 27 28  1  6  0  0  0
 29 32  1  0  0  0  0
 29 27  1  0  0  0  0
 29 30  1  1  0  0  0
 31 30  1  0  0  0  0
 32 33  1  0  0  0  0
 33 34  1  0  0  0  0
 34 36  1  0  0  0  0
 36 35  2  0  0  0  0
 36 37  1  0  0  0  0
 39 38  1  0  0  0  0
 41 40  1  6  0  0  0
 41 39  1  0  0  0  0
 43 49  1  0  0  0  0
 43 48  1  0  0  0  0
 45 47  1  0  0  0  0
 45 44  2  0  0  0  0
 46 48  1  0  0  0  0
 47 41  1  0  0  0  0
 48 45  1  0  0  0  0
 49 42  1  1  0  0  0
 49 50  1  0  0  0  0
 50 52  1  6  0  0  0
 50 47  1  0  0  0  0
 51 43  2  0  0  0  0
 52 53  1  0  0  0  0
M  END
>  <MODEL>
4

>  <REMARK>
 VINA RESULT:      -6.4      2.092      2.946
  Name = 
  20 active torsions:
  status: ('A' for Active; 'I' for Inactive)
    1  A    between atoms: C_1  and  C_30
    2  A    between atoms: C_2  and  N_37
    3  A    between atoms: N_5  and  C_42
    4  A    between atoms: C_6  and  C_14
    5  A    between atoms: C_6  and  C_22
    6  A    between atoms: C_7  and  C_48
    7  A    between atoms: C_7  and  O_53
    8  A    between atoms: C_8  and  C_17
    9  A    between atoms: O_13  and  C_47
   10  A    between atoms: C_14  and  C_52
   11  A    between atoms: C_17  and  C_42
   12  A    between atoms: C_17  and  O_53
   13  A    between atoms: C_21  and  C_30
   14  A    between atoms: C_22  and  C_27
   15  A    between atoms: C_25  and  C_39
   16  A    between atoms: N_35  and  C_50
   17  A    between atoms: C_36  and  C_52
   18  A    between atoms: C_38  and  C_48
   19  A    between atoms: C_39  and  C_40
   20  A    between atoms: C_40  and  C_50
                            x       y       z     vdW  Elec       q    Type
                         _______ _______ _______ _____ _____    ______ ____

>  <TORSDO>
F 20

$$$$
=
 OpenBabel10222417513D

 53 55  0  0  1  0  0  0  0  0999 V2000
  185.6050  178.7130  144.4390 C   0  0  1  0  0  3  0  0  0  0  0  0
  184.2410  178.6940  145.0920 C   0  0  1  0  0  3  0  0  0  0  0  0
  185.3500  179.5140  145.7230 C   0  0  1  0  0  3  0  0  0  0  0  0
  185.8110  178.8360  147.0070 C   0  0  0  0  0  2  0  0  0  0  0  0
  186.9910  179.5950  147.5780 C   0  0  0  0  0  2  0  0  0  0  0  0
  188.0770  178.6340  148.0470 C   0  0  1  0  0  3  0  0  0  0  0  0
  187.6910  178.0190  149.3800 C   0  0  0  0  0  1  0  0  0  0  0  0
  188.4260  176.1540  147.6540 C   0  0  0  0  0  1  0  0  0  0  0  0
  188.4450  177.5420  147.0240 C   0  0  2  0  0  3  0  0  0  0  0  0
  189.7180  178.6270  145.3570 O   0  0  0  0  0  0  0  0  0  0  0  0
  190.9400  176.9350  146.4070 C   0  0  0  0  0  1  0  0  0  0  0  0
  189.7040  177.7520  146.2080 C   0  0  0  0  0  0  0  0  0  0  0  0
  186.2800  177.3550  144.6280 C   0  0  0  0  0  2  0  0  0  0  0  0
  187.1970  177.0620  143.4840 C   0  0  0  0  0  0  0  0  0  0  0  0
  189.1000  176.9920  141.4950 C   0  0  1  0  0  3  0  0  0  0  0  0
  187.7680  177.2860  141.1430 O   0  0  0  0  0  0  0  0  0  0  0  0
  188.1530  176.1320  143.6250 C   0  0  0  0  0  3  0  0  0  0  0  0
  187.1870  177.9380  142.2510 C   0  0  0  0  0  2  0  0  0  0  0  0
  189.1280  175.8500  142.5150 C   0  0  0  0  0  2  0  0  0  0  0  0
  194.0470  177.3960  139.4190 O   0  0  0  0  0  0  0  0  0  0  0  0
  191.8950  177.5750  141.0390 O   0  0  0  0  0  0  0  0  0  0  0  0
  193.7960  176.4620  137.3120 N   0  0  0  0  0  2  0  0  0  0  0  0
  191.8980  176.6190  138.9020 N   0  0  0  0  0  2  0  0  0  0  0  0
  191.2570  176.9760  140.1290 C   0  0  0  0  0  0  0  0  0  0  0  0
  193.2780  176.8480  138.5850 C   0  0  0  0  0  0  0  0  0  0  0  0
  189.8770  176.6480  140.3100 N   0  0  0  0  0  2  0  0  0  0  0  0
  192.9650  175.8670  136.2690 C   0  0  2  0  0  3  0  0  0  0  0  0
  191.6990  176.6870  136.0720 C   0  0  0  0  0  1  0  0  0  0  0  0
  192.6100  174.4200  136.6130 C   0  0  1  0  0  3  0  0  0  0  0  0
  191.1460  174.1510  136.3010 C   0  0  0  0  0  2  0  0  0  0  0  0
  190.4780  173.7460  137.4590 O   0  0  0  0  0  1  0  0  0  0  0  0
  193.4230  173.5240  135.9050 O   0  0  0  0  0  0  0  0  0  0  0  0
  194.2170  172.9100  136.8790 C   0  0  0  0  0  2  0  0  0  0  0  0
  195.3540  172.1520  136.2170 C   0  0  0  0  0  2  0  0  0  0  0  0
  195.3930  170.9600  138.4060 O   0  0  0  0  0  1  0  0  0  0  0  0
  195.8110  171.0310  137.0850 C   0  0  0  0  0  0  0  0  0  0  0  0
  196.5990  170.1630  136.6280 O   0  0  0  0  0  0  0  0  0  0  0  0
  183.3050  179.6140  144.3310 C   0  0  0  0  0  2  0  0  0  0  0  0
  182.7450  178.8860  143.1190 C   0  0  0  0  0  2  0  0  0  0  0  0
  180.4330  177.9220  143.4220 C   0  0  0  0  0  1  0  0  0  0  0  0
  181.2480  179.1310  142.9740 C   0  0  2  0  0  3  0  0  0  0  0  0
  182.5150  178.9720  138.1770 C   0  0  0  0  0  1  0  0  0  0  0  0
  180.9470  180.7310  139.0090 C   0  0  0  0  0  0  0  0  0  0  0  0
  179.2040  180.9890  142.1840 O   0  0  0  0  0  0  0  0  0  0  0  0
  179.9830  180.5540  141.2920 C   0  0  0  0  0  0  0  0  0  0  0  0
  178.9550  182.1260  139.6250 C   0  0  0  0  0  1  0  0  0  0  0  0
  180.9140  179.4960  141.5910 N   0  0  0  0  0  0  0  0  0  0  0  0
  179.9580  181.1240  139.9740 N   0  0  0  0  0  0  0  0  0  0  0  0
  182.0290  179.7490  139.3950 C   0  0  1  0  0  3  0  0  0  0  0  0
  181.5180  178.7710  140.4630 C   0  0  1  0  0  3  0  0  0  0  0  0
  180.9580  181.2680  137.8610 O   0  0  0  0  0  0  0  0  0  0  0  0
  182.5610  177.9420  140.9000 O   0  0  0  0  0  0  0  0  0  0  0  0
  182.3670  176.7340  140.2250 C   0  0  0  0  0  1  0  0  0  0  0  0
  1 13  1  1  0  0  0
  1  2  1  0  0  0  0
  1  3  1  0  0  0  0
  2 38  1  6  0  0  0
  2  3  1  0  0  0  0
  3  4  1  1  0  0  0
  4  5  1  0  0  0  0
  5  6  1  0  0  0  0
  6  7  1  1  0  0  0
  9  8  1  1  0  0  0
  9  6  1  0  0  0  0
 10 12  2  0  0  0  0
 12 11  1  0  0  0  0
 12  9  1  0  0  0  0
 14 17  2  0  0  0  0
 14 13  1  0  0  0  0
 15 26  1  6  0  0  0
 15 19  1  0  0  0  0
 16 15  1  0  0  0  0
 16 18  1  0  0  0  0
 18 14  1  0  0  0  0
 19 17  1  0  0  0  0
 22 25  1  0  0  0  0
 23 24  1  0  0  0  0
 24 26  1  0  0  0  0
 24 21  2  0  0  0  0
 25 23  1  0  0  0  0
 25 20  2  0  0  0  0
 27 28  1  1  0  0  0
 27 29  1  0  0  0  0
 27 22  1  0  0  0  0
 29 30  1  6  0  0  0
 30 31  1  0  0  0  0
 32 29  1  0  0  0  0
 32 33  1  0  0  0  0
 34 33  1  0  0  0  0
 34 36  1  0  0  0  0
 36 35  1  0  0  0  0
 37 36  2  0  0  0  0
 39 38  1  0  0  0  0
 41 39  1  0  0  0  0
 41 40  1  6  0  0  0
 43 49  1  0  0  0  0
 43 48  1  0  0  0  0
 45 47  1  0  0  0  0
 45 44  2  0  0  0  0
 46 48  1  0  0  0  0
 47 41  1  0  0  0  0
 48 45  1  0  0  0  0
 49 42  1  6  0  0  0
 49 50  1  0  0  0  0
 50 52  1  1  0  0  0
 50 47  1  0  0  0  0
 51 43  2  0  0  0  0
 53 52  1  0  0  0  0
M  END
>  <MODEL>
5

>  <REMARK>
 VINA RESULT:      -6.1      2.592      3.836
  Name = 
  20 active torsions:
  status: ('A' for Active; 'I' for Inactive)
    1  A    between atoms: C_1  and  C_30
    2  A    between atoms: C_2  and  N_37
    3  A    between atoms: N_5  and  C_42
    4  A    between atoms: C_6  and  C_14
    5  A    between atoms: C_6  and  C_22
    6  A    between atoms: C_7  and  C_48
    7  A    between atoms: C_7  and  O_53
    8  A    between atoms: C_8  and  C_17
    9  A    between atoms: O_13  and  C_47
   10  A    between atoms: C_14  and  C_52
   11  A    between atoms: C_17  and  C_42
   12  A    between atoms: C_17  and  O_53
   13  A    between atoms: C_21  and  C_30
   14  A    between atoms: C_22  and  C_27
   15  A    between atoms: C_25  and  C_39
   16  A    between atoms: N_35  and  C_50
   17  A    between atoms: C_36  and  C_52
   18  A    between atoms: C_38  and  C_48
   19  A    between atoms: C_39  and  C_40
   20  A    between atoms: C_40  and  C_50
                            x       y       z     vdW  Elec       q    Type
                         _______ _______ _______ _____ _____    ______ ____

>  <TORSDO>
F 20

$$$$
=
 OpenBabel10222417513D

 53 55  0  0  1  0  0  0  0  0999 V2000
  190.4550  177.8410  139.6640 C   0  0  1  0  0  3  0  0  0  0  0  0
  190.4510  176.4040  140.1350 C   0  0  1  0  0  3  0  0  0  0  0  0
  191.7610  177.0350  139.7010 C   0  0  1  0  0  3  0  0  0  0  0  0
  192.1890  176.4420  138.3660 C   0  0  0  0  0  2  0  0  0  0  0  0
  193.6230  175.9630  138.4670 C   0  0  0  0  0  2  0  0  0  0  0  0
  193.7240  174.4790  138.1370 C   0  0  1  0  0  3  0  0  0  0  0  0
  192.9270  174.1660  136.8840 C   0  0  0  0  0  1  0  0  0  0  0  0
  196.0520  174.4770  139.1400 C   0  0  0  0  0  1  0  0  0  0  0  0
  195.1660  173.9500  138.0180 C   0  0  2  0  0  3  0  0  0  0  0  0
  195.6910  173.2180  135.8340 O   0  0  0  0  0  0  0  0  0  0  0  0
  196.7040  175.2660  136.3220 C   0  0  0  0  0  1  0  0  0  0  0  0
  195.8490  174.0920  136.6730 C   0  0  0  0  0  0  0  0  0  0  0  0
  189.7730  177.9340  138.3010 C   0  0  0  0  0  2  0  0  0  0  0  0
  188.3150  178.2220  138.4630 C   0  0  0  0  0  0  0  0  0  0  0  0
  185.5650  178.2480  138.6100 C   0  0  1  0  0  3  0  0  0  0  0  0
  186.1870  178.8670  137.5080 O   0  0  0  0  0  0  0  0  0  0  0  0
  187.7990  178.3530  139.6930 C   0  0  0  0  0  3  0  0  0  0  0  0
  187.3880  178.1660  137.2680 C   0  0  0  0  0  2  0  0  0  0  0  0
  186.3270  178.5880  139.8940 C   0  0  0  0  0  2  0  0  0  0  0  0
  180.6270  176.2990  139.4820 O   0  0  0  0  0  0  0  0  0  0  0  0
  183.2920  176.5370  139.1230 O   0  0  0  0  0  0  0  0  0  0  0  0
  179.2850  178.1720  139.2310 N   0  0  0  0  0  2  0  0  0  0  0  0
  181.7500  178.2930  138.9830 N   0  0  0  0  0  2  0  0  0  0  0  0
  183.0800  177.7680  138.9490 C   0  0  0  0  0  0  0  0  0  0  0  0
  180.5620  177.5330  139.2440 C   0  0  0  0  0  0  0  0  0  0  0  0
  184.1700  178.6620  138.7080 N   0  0  0  0  0  2  0  0  0  0  0  0
  179.1130  179.5880  138.9150 C   0  0  2  0  0  3  0  0  0  0  0  0
  179.4750  179.8520  137.4620 C   0  0  0  0  0  1  0  0  0  0  0  0
  179.9650  180.4600  139.8400 C   0  0  1  0  0  3  0  0  0  0  0  0
  179.3200  181.8270  140.0090 C   0  0  0  0  0  2  0  0  0  0  0  0
  179.5570  182.6090  138.8770 O   0  0  0  0  0  1  0  0  0  0  0  0
  180.1300  179.8490  141.0900 O   0  0  0  0  0  0  0  0  0  0  0  0
  179.3560  180.6130  141.9690 C   0  0  0  0  0  2  0  0  0  0  0  0
  178.9360  179.7660  143.1580 C   0  0  0  0  0  2  0  0  0  0  0  0
  181.2840  179.1910  143.7710 O   0  0  0  0  0  1  0  0  0  0  0  0
  179.9920  178.7690  143.4890 C   0  0  0  0  0  0  0  0  0  0  0  0
  179.7200  177.5400  143.4860 O   0  0  0  0  0  0  0  0  0  0  0  0
  190.3860  176.3700  141.6500 C   0  0  0  0  0  2  0  0  0  0  0  0
  191.2240  177.5010  142.2250 C   0  0  0  0  0  2  0  0  0  0  0  0
  191.1480  179.6650  143.5200 C   0  0  0  0  0  1  0  0  0  0  0  0
  190.3880  178.4030  143.1240 C   0  0  2  0  0  3  0  0  0  0  0  0
  186.7280  177.4870  146.3500 C   0  0  0  0  0  1  0  0  0  0  0  0
  189.1050  177.0490  146.9840 C   0  0  0  0  0  0  0  0  0  0  0  0
  192.0860  176.9310  144.9140 O   0  0  0  0  0  0  0  0  0  0  0  0
  190.8800  177.0950  145.2460 C   0  0  0  0  0  0  0  0  0  0  0  0
  191.3500  176.0440  147.4780 C   0  0  0  0  0  1  0  0  0  0  0  0
  189.9420  177.6730  144.3180 N   0  0  0  0  0  0  0  0  0  0  0  0
  190.4380  176.7210  146.5600 N   0  0  0  0  0  0  0  0  0  0  0  0
  188.1870  177.8150  146.0600 C   0  0  1  0  0  3  0  0  0  0  0  0
  188.5070  177.4980  144.5920 C   0  0  1  0  0  3  0  0  0  0  0  0
  188.7280  176.7640  148.1600 O   0  0  0  0  0  0  0  0  0  0  0  0
  187.7330  178.3010  143.7420 O   0  0  0  0  0  0  0  0  0  0  0  0
  187.0280  177.4000  142.9400 C   0  0  0  0  0  1  0  0  0  0  0  0
  1 13  1  6  0  0  0
  1  3  1  0  0  0  0
  1  2  1  0  0  0  0
  2 38  1  1  0  0  0
  3  4  1  6  0  0  0
  3  2  1  0  0  0  0
  4  5  1  0  0  0  0
  6  7  1  6  0  0  0
  6  5  1  0  0  0  0
  9  6  1  0  0  0  0
  9  8  1  1  0  0  0
 10 12  2  0  0  0  0
 11 12  1  0  0  0  0
 12  9  1  0  0  0  0
 13 14  1  0  0  0  0
 14 17  2  0  0  0  0
 15 26  1  1  0  0  0
 15 19  1  0  0  0  0
 16 15  1  0  0  0  0
 17 19  1  0  0  0  0
 18 16  1  0  0  0  0
 18 14  1  0  0  0  0
 22 25  1  0  0  0  0
 23 25  1  0  0  0  0
 24 23  1  0  0  0  0
 24 21  2  0  0  0  0
 25 20  2  0  0  0  0
 26 24  1  0  0  0  0
 27 28  1  6  0  0  0
 27 22  1  0  0  0  0
 27 29  1  0  0  0  0
 29 30  1  1  0  0  0
 29 32  1  0  0  0  0
 31 30  1  0  0  0  0
 32 33  1  0  0  0  0
 33 34  1  0  0  0  0
 34 36  1  0  0  0  0
 36 35  1  0  0  0  0
 37 36  2  0  0  0  0
 38 39  1  0  0  0  0
 39 41  1  0  0  0  0
 41 40  1  1  0  0  0
 41 47  1  0  0  0  0
 43 51  2  0  0  0  0
 44 45  2  0  0  0  0
 45 48  1  0  0  0  0
 47 50  1  0  0  0  0
 47 45  1  0  0  0  0
 48 43  1  0  0  0  0
 48 46  1  0  0  0  0
 49 42  1  1  0  0  0
 49 43  1  0  0  0  0
 50 52  1  6  0  0  0
 50 49  1  0  0  0  0
 53 52  1  0  0  0  0
M  END
>  <MODEL>
6

>  <REMARK>
 VINA RESULT:      -5.8      3.018     11.890
  Name = 
  20 active torsions:
  status: ('A' for Active; 'I' for Inactive)
    1  A    between atoms: C_1  and  C_30
    2  A    between atoms: C_2  and  N_37
    3  A    between atoms: N_5  and  C_42
    4  A    between atoms: C_6  and  C_14
    5  A    between atoms: C_6  and  C_22
    6  A    between atoms: C_7  and  C_48
    7  A    between atoms: C_7  and  O_53
    8  A    between atoms: C_8  and  C_17
    9  A    between atoms: O_13  and  C_47
   10  A    between atoms: C_14  and  C_52
   11  A    between atoms: C_17  and  C_42
   12  A    between atoms: C_17  and  O_53
   13  A    between atoms: C_21  and  C_30
   14  A    between atoms: C_22  and  C_27
   15  A    between atoms: C_25  and  C_39
   16  A    between atoms: N_35  and  C_50
   17  A    between atoms: C_36  and  C_52
   18  A    between atoms: C_38  and  C_48
   19  A    between atoms: C_39  and  C_40
   20  A    between atoms: C_40  and  C_50
                            x       y       z     vdW  Elec       q    Type
                         _______ _______ _______ _____ _____    ______ ____

>  <TORSDO>
F 20

$$$$
=
 OpenBabel10222417513D

 53 55  0  0  1  0  0  0  0  0999 V2000
  189.1600  176.7240  142.5270 C   0  0  1  0  0  3  0  0  0  0  0  0
  190.2910  177.6250  142.0820 C   0  0  1  0  0  3  0  0  0  0  0  0
  190.5540  176.5860  143.1560 C   0  0  1  0  0  3  0  0  0  0  0  0
  190.7260  177.2800  144.5000 C   0  0  0  0  0  2  0  0  0  0  0  0
  191.5890  176.4210  145.4010 C   0  0  0  0  0  2  0  0  0  0  0  0
  190.9630  176.2900  146.7840 C   0  0  1  0  0  3  0  0  0  0  0  0
  192.0470  176.1410  147.8370 C   0  0  0  0  0  1  0  0  0  0  0  0
  190.5190  178.2620  148.3140 C   0  0  0  0  0  1  0  0  0  0  0  0
  189.9910  177.4270  147.1540 C   0  0  2  0  0  3  0  0  0  0  0  0
  188.2700  176.0790  148.0500 O   0  0  0  0  0  0  0  0  0  0  0  0
  187.4090  177.8430  146.7830 C   0  0  0  0  0  1  0  0  0  0  0  0
  188.5370  177.0550  147.3670 C   0  0  0  0  0  0  0  0  0  0  0  0
  188.1480  177.5360  143.3330 C   0  0  0  0  0  2  0  0  0  0  0  0
  186.9910  177.9340  142.4740 C   0  0  0  0  0  0  0  0  0  0  0  0
  184.8580  179.1080  141.1890 C   0  0  1  0  0  3  0  0  0  0  0  0
  184.6040  178.0660  142.1010 O   0  0  0  0  0  0  0  0  0  0  0  0
  187.2060  178.2990  141.2020 C   0  0  0  0  0  3  0  0  0  0  0  0
  185.6180  178.1230  143.0800 C   0  0  0  0  0  2  0  0  0  0  0  0
  186.0740  178.7580  140.3250 C   0  0  0  0  0  2  0  0  0  0  0  0
  181.4290  176.6240  137.8690 O   0  0  0  0  0  0  0  0  0  0  0  0
  183.4590  177.1690  139.5630 O   0  0  0  0  0  0  0  0  0  0  0  0
  180.0670  178.3560  137.1490 N   0  0  0  0  0  2  0  0  0  0  0  0
  181.9220  178.7370  138.7510 N   0  0  0  0  0  2  0  0  0  0  0  0
  183.0410  178.3590  139.5580 C   0  0  0  0  0  0  0  0  0  0  0  0
  181.1540  177.8510  137.9260 C   0  0  0  0  0  0  0  0  0  0  0  0
  183.6850  179.3550  140.3570 N   0  0  0  0  0  2  0  0  0  0  0  0
  179.7110  179.7720  137.1160 C   0  0  2  0  0  3  0  0  0  0  0  0
  180.4460  180.4740  135.9860 C   0  0  0  0  0  1  0  0  0  0  0  0
  180.0270  180.4450  138.4530 C   0  0  1  0  0  3  0  0  0  0  0  0
  180.3660  181.9110  138.2330 C   0  0  0  0  0  2  0  0  0  0  0  0
  181.7380  182.1130  138.4000 O   0  0  0  0  0  1  0  0  0  0  0  0
  178.9460  180.3310  139.3380 O   0  0  0  0  0  0  0  0  0  0  0  0
  179.4730  180.6480  140.5940 C   0  0  0  0  0  2  0  0  0  0  0  0
  179.7710  179.3760  141.3670 C   0  0  0  0  0  2  0  0  0  0  0  0
  180.2400  178.6550  143.7070 O   0  0  0  0  0  1  0  0  0  0  0  0
  180.0420  179.6850  142.7990 C   0  0  0  0  0  0  0  0  0  0  0  0
  180.0630  180.8810  143.1910 O   0  0  0  0  0  0  0  0  0  0  0  0
  190.8380  177.1300  140.7570 C   0  0  0  0  0  2  0  0  0  0  0  0
  189.7580  177.2220  139.6900 C   0  0  0  0  0  2  0  0  0  0  0  0
  189.5610  178.0930  137.3310 C   0  0  0  0  0  1  0  0  0  0  0  0
  190.3650  177.2240  138.2920 C   0  0  2  0  0  3  0  0  0  0  0  0
  193.1880  173.8250  136.0300 C   0  0  0  0  0  1  0  0  0  0  0  0
  190.6990  173.6090  136.0140 C   0  0  0  0  0  0  0  0  0  0  0  0
  188.1920  175.3740  137.9590 O   0  0  0  0  0  0  0  0  0  0  0  0
  189.3190  175.0510  137.4940 C   0  0  0  0  0  0  0  0  0  0  0  0
  188.3030  173.0070  136.4490 C   0  0  0  0  0  1  0  0  0  0  0  0
  190.4820  175.8540  137.7770 N   0  0  0  0  0  0  0  0  0  0  0  0
  189.4480  173.8860  136.6640 N   0  0  0  0  0  0  0  0  0  0  0  0
  191.8620  174.5600  136.1790 C   0  0  1  0  0  3  0  0  0  0  0  0
  191.8050  175.2540  137.5480 C   0  0  1  0  0  3  0  0  0  0  0  0
  190.8020  172.6090  135.2420 O   0  0  0  0  0  0  0  0  0  0  0  0
  192.8170  176.2200  137.6440 O   0  0  0  0  0  0  0  0  0  0  0  0
  193.8290  175.6070  138.3880 C   0  0  0  0  0  1  0  0  0  0  0  0
  1  3  1  0  0  0  0
  1 13  1  1  0  0  0
  2 38  1  6  0  0  0
  2  1  1  0  0  0  0
  2  3  1  0  0  0  0
  3  4  1  1  0  0  0
  4  5  1  0  0  0  0
  5  6  1  0  0  0  0
  6  9  1  0  0  0  0
  6  7  1  1  0  0  0
  9 12  1  0  0  0  0
  9  8  1  1  0  0  0
 11 12  1  0  0  0  0
 12 10  2  0  0  0  0
 14 18  1  0  0  0  0
 14 13  1  0  0  0  0
 15 26  1  6  0  0  0
 15 16  1  0  0  0  0
 16 18  1  0  0  0  0
 17 14  2  0  0  0  0
 19 15  1  0  0  0  0
 19 17  1  0  0  0  0
 20 25  2  0  0  0  0
 22 25  1  0  0  0  0
 23 24  1  0  0  0  0
 24 21  2  0  0  0  0
 24 26  1  0  0  0  0
 25 23  1  0  0  0  0
 27 28  1  6  0  0  0
 27 22  1  0  0  0  0
 27 29  1  0  0  0  0
 29 30  1  6  0  0  0
 29 32  1  0  0  0  0
 30 31  1  0  0  0  0
 32 33  1  0  0  0  0
 33 34  1  0  0  0  0
 34 36  1  0  0  0  0
 36 37  2  0  0  0  0
 36 35  1  0  0  0  0
 39 38  1  0  0  0  0
 41 40  1  6  0  0  0
 41 39  1  0  0  0  0
 43 49  1  0  0  0  0
 43 48  1  0  0  0  0
 45 47  1  0  0  0  0
 45 44  2  0  0  0  0
 46 48  1  0  0  0  0
 47 41  1  0  0  0  0
 48 45  1  0  0  0  0
 49 42  1  1  0  0  0
 49 50  1  0  0  0  0
 50 52  1  6  0  0  0
 50 47  1  0  0  0  0
 51 43  2  0  0  0  0
 52 53  1  0  0  0  0
M  END
>  <MODEL>
7

>  <REMARK>
 VINA RESULT:      -5.8      2.825      9.912
  Name = 
  20 active torsions:
  status: ('A' for Active; 'I' for Inactive)
    1  A    between atoms: C_1  and  C_30
    2  A    between atoms: C_2  and  N_37
    3  A    between atoms: N_5  and  C_42
    4  A    between atoms: C_6  and  C_14
    5  A    between atoms: C_6  and  C_22
    6  A    between atoms: C_7  and  C_48
    7  A    between atoms: C_7  and  O_53
    8  A    between atoms: C_8  and  C_17
    9  A    between atoms: O_13  and  C_47
   10  A    between atoms: C_14  and  C_52
   11  A    between atoms: C_17  and  C_42
   12  A    between atoms: C_17  and  O_53
   13  A    between atoms: C_21  and  C_30
   14  A    between atoms: C_22  and  C_27
   15  A    between atoms: C_25  and  C_39
   16  A    between atoms: N_35  and  C_50
   17  A    between atoms: C_36  and  C_52
   18  A    between atoms: C_38  and  C_48
   19  A    between atoms: C_39  and  C_40
   20  A    between atoms: C_40  and  C_50
                            x       y       z     vdW  Elec       q    Type
                         _______ _______ _______ _____ _____    ______ ____

>  <TORSDO>
F 20

$$$$
=
 OpenBabel10222417513D

 53 55  0  0  1  0  0  0  0  0999 V2000
  186.2720  178.9330  141.7900 C   0  0  1  0  0  3  0  0  0  0  0  0
  184.9320  178.2810  141.5260 C   0  0  1  0  0  3  0  0  0  0  0  0
  185.0790  179.2120  142.7150 C   0  0  1  0  0  3  0  0  0  0  0  0
  185.0560  178.3980  144.0010 C   0  0  0  0  0  2  0  0  0  0  0  0
  185.1310  179.3340  145.1900 C   0  0  0  0  0  2  0  0  0  0  0  0
  186.2380  178.9080  146.1450 C   0  0  1  0  0  3  0  0  0  0  0  0
  185.6500  178.5400  147.4960 C   0  0  0  0  0  1  0  0  0  0  0  0
  186.6120  176.4040  146.0110 C   0  0  0  0  0  1  0  0  0  0  0  0
  187.1390  177.7770  145.6120 C   0  0  2  0  0  3  0  0  0  0  0  0
  189.3650  178.2470  144.9780 O   0  0  0  0  0  0  0  0  0  0  0  0
  189.2290  177.5870  147.2150 C   0  0  0  0  0  1  0  0  0  0  0  0
  188.6260  177.8890  145.8810 C   0  0  0  0  0  0  0  0  0  0  0  0
  187.2620  177.8810  142.2870 C   0  0  0  0  0  2  0  0  0  0  0  0
  188.3880  177.7210  141.3170 C   0  0  0  0  0  0  0  0  0  0  0  0
  190.2880  176.9270  139.4880 C   0  0  1  0  0  3  0  0  0  0  0  0
  190.6650  177.0540  140.8390 O   0  0  0  0  0  0  0  0  0  0  0  0
  188.3050  178.2900  140.1060 C   0  0  0  0  0  3  0  0  0  0  0  0
  189.5210  176.7620  141.6120 C   0  0  0  0  0  2  0  0  0  0  0  0
  189.3940  178.1040  139.0860 C   0  0  0  0  0  2  0  0  0  0  0  0
  191.8740  175.3490  134.5950 O   0  0  0  0  0  0  0  0  0  0  0  0
  190.4040  175.8740  136.7980 O   0  0  0  0  0  0  0  0  0  0  0  0
  194.1560  175.7540  134.6410 N   0  0  0  0  0  2  0  0  0  0  0  0
  192.7040  176.2570  136.5880 N   0  0  0  0  0  2  0  0  0  0  0  0
  191.4710  176.3080  137.3110 C   0  0  0  0  0  0  0  0  0  0  0  0
  192.8640  175.7710  135.2480 C   0  0  0  0  0  0  0  0  0  0  0  0
  191.4670  176.8560  138.6330 N   0  0  0  0  0  2  0  0  0  0  0  0
  195.3640  176.1770  135.3430 C   0  0  2  0  0  3  0  0  0  0  0  0
  195.7690  177.5750  134.9020 C   0  0  0  0  0  1  0  0  0  0  0  0
  196.5090  175.1920  135.0990 C   0  0  1  0  0  3  0  0  0  0  0  0
  197.7130  175.5680  135.9500 C   0  0  0  0  0  2  0  0  0  0  0  0
  198.8580  174.9360  135.4610 O   0  0  0  0  0  1  0  0  0  0  0  0
  196.1100  173.8800  135.3860 O   0  0  0  0  0  0  0  0  0  0  0  0
  195.8750  173.8690  136.7640 C   0  0  0  0  0  2  0  0  0  0  0  0
  194.8220  172.8270  137.1010 C   0  0  0  0  0  2  0  0  0  0  0  0
  196.4630  170.9660  136.8570 O   0  0  0  0  0  0  0  0  0  0  0  0
  195.4620  171.5780  137.5990 C   0  0  0  0  0  0  0  0  0  0  0  0
  195.0750  171.0600  138.6780 O   0  0  0  0  0  1  0  0  0  0  0  0
  184.2310  179.0120  140.3980 C   0  0  0  0  0  2  0  0  0  0  0  0
  183.8500  178.0230  139.3060 C   0  0  0  0  0  2  0  0  0  0  0  0
  181.7700  179.4450  139.4480 C   0  0  0  0  0  1  0  0  0  0  0  0
  182.5580  178.4400  138.6130 C   0  0  2  0  0  3  0  0  0  0  0  0
  179.7510  174.7240  140.3320 C   0  0  0  0  0  1  0  0  0  0  0  0
  180.8020  174.5680  138.0710 C   0  0  0  0  0  0  0  0  0  0  0  0
  182.4000  177.1340  136.0590 O   0  0  0  0  0  0  0  0  0  0  0  0
  181.8360  176.5790  137.0420 C   0  0  0  0  0  0  0  0  0  0  0  0
  181.3110  174.5810  135.6140 C   0  0  0  0  0  1  0  0  0  0  0  0
  181.7330  177.2650  138.3050 N   0  0  0  0  0  0  0  0  0  0  0  0
  181.3060  175.2510  136.9110 N   0  0  0  0  0  0  0  0  0  0  0  0
  180.8640  175.2340  139.4250 C   0  0  1  0  0  3  0  0  0  0  0  0
  180.7590  176.7600  139.2850 C   0  0  1  0  0  3  0  0  0  0  0  0
  180.3780  173.3780  137.9680 O   0  0  0  0  0  0  0  0  0  0  0  0
  180.9370  177.3760  140.5320 O   0  0  0  0  0  0  0  0  0  0  0  0
  179.6580  177.4320  141.0910 C   0  0  0  0  0  1  0  0  0  0  0  0
  1 13  1  1  0  0  0
  1  3  1  0  0  0  0
  2 38  1  6  0  0  0
  2  1  1  0  0  0  0
  2  3  1  0  0  0  0
  3  4  1  1  0  0  0
  4  5  1  0  0  0  0
  5  6  1  0  0  0  0
  6  7  1  1  0  0  0
  9 12  1  0  0  0  0
  9  8  1  1  0  0  0
  9  6  1  0  0  0  0
 10 12  2  0  0  0  0
 12 11  1  0  0  0  0
 14 18  1  0  0  0  0
 14 13  1  0  0  0  0
 15 26  1  6  0  0  0
 15 16  1  0  0  0  0
 16 18  1  0  0  0  0
 17 14  2  0  0  0  0
 19 15  1  0  0  0  0
 19 17  1  0  0  0  0
 20 25  2  0  0  0  0
 21 24  2  0  0  0  0
 22 25  1  0  0  0  0
 22 27  1  0  0  0  0
 23 24  1  0  0  0  0
 24 26  1  0  0  0  0
 25 23  1  0  0  0  0
 27 28  1  6  0  0  0
 29 27  1  0  0  0  0
 29 32  1  0  0  0  0
 29 30  1  1  0  0  0
 31 30  1  0  0  0  0
 32 33  1  0  0  0  0
 33 34  1  0  0  0  0
 34 36  1  0  0  0  0
 35 36  2  0  0  0  0
 36 37  1  0  0  0  0
 39 38  1  0  0  0  0
 41 39  1  0  0  0  0
 41 40  1  1  0  0  0
 43 49  1  0  0  0  0
 44 45  2  0  0  0  0
 45 47  1  0  0  0  0
 46 48  1  0  0  0  0
 47 41  1  0  0  0  0
 47 50  1  0  0  0  0
 48 45  1  0  0  0  0
 48 43  1  0  0  0  0
 49 42  1  1  0  0  0
 50 49  1  0  0  0  0
 50 52  1  1  0  0  0
 51 43  2  0  0  0  0
 52 53  1  0  0  0  0
M  END
>  <MODEL>
8

>  <REMARK>
 VINA RESULT:      -5.8      1.734      2.839
  Name = 
  20 active torsions:
  status: ('A' for Active; 'I' for Inactive)
    1  A    between atoms: C_1  and  C_30
    2  A    between atoms: C_2  and  N_37
    3  A    between atoms: N_5  and  C_42
    4  A    between atoms: C_6  and  C_14
    5  A    between atoms: C_6  and  C_22
    6  A    between atoms: C_7  and  C_48
    7  A    between atoms: C_7  and  O_53
    8  A    between atoms: C_8  and  C_17
    9  A    between atoms: O_13  and  C_47
   10  A    between atoms: C_14  and  C_52
   11  A    between atoms: C_17  and  C_42
   12  A    between atoms: C_17  and  O_53
   13  A    between atoms: C_21  and  C_30
   14  A    between atoms: C_22  and  C_27
   15  A    between atoms: C_25  and  C_39
   16  A    between atoms: N_35  and  C_50
   17  A    between atoms: C_36  and  C_52
   18  A    between atoms: C_38  and  C_48
   19  A    between atoms: C_39  and  C_40
   20  A    between atoms: C_40  and  C_50
                            x       y       z     vdW  Elec       q    Type
                         _______ _______ _______ _____ _____    ______ ____

>  <TORSDO>
F 20

$$$$
=
 OpenBabel10222417513D

 53 55  0  0  1  0  0  0  0  0999 V2000
  191.6100  176.6510  137.1450 C   0  0  1  0  0  3  0  0  0  0  0  0
  191.5820  176.0030  138.5110 C   0  0  1  0  0  3  0  0  0  0  0  0
  192.9020  176.1040  137.7700 C   0  0  1  0  0  3  0  0  0  0  0  0
  193.3180  174.7220  137.2860 C   0  0  0  0  0  2  0  0  0  0  0  0
  194.3540  174.1500  138.2310 C   0  0  0  0  0  2  0  0  0  0  0  0
  195.4760  173.4690  137.4580 C   0  0  1  0  0  3  0  0  0  0  0  0
  195.0200  172.1090  136.9630 C   0  0  0  0  0  1  0  0  0  0  0  0
  196.0910  173.5200  134.9990 C   0  0  0  0  0  1  0  0  0  0  0  0
  196.0520  174.3100  136.3020 C   0  0  2  0  0  3  0  0  0  0  0  0
  197.5300  176.1400  136.0940 O   0  0  0  0  0  0  0  0  0  0  0  0
  198.4810  174.4040  137.3340 C   0  0  0  0  0  1  0  0  0  0  0  0
  197.3690  175.0190  136.5470 C   0  0  0  0  0  0  0  0  0  0  0  0
  190.9270  175.7350  136.1310 C   0  0  0  0  0  2  0  0  0  0  0  0
  189.4530  175.6870  136.3780 C   0  0  0  0  0  0  0  0  0  0  0  0
  186.7010  175.6820  136.3080 C   0  0  1  0  0  3  0  0  0  0  0  0
  187.3600  176.8250  136.8010 O   0  0  0  0  0  0  0  0  0  0  0  0
  188.8660  174.5130  136.6490 C   0  0  0  0  0  3  0  0  0  0  0  0
  188.5960  176.9070  136.1250 C   0  0  0  0  0  2  0  0  0  0  0  0
  187.3780  174.4190  136.8470 C   0  0  0  0  0  2  0  0  0  0  0  0
  182.0620  178.1140  135.0760 O   0  0  0  0  0  0  0  0  0  0  0  0
  184.6540  177.3640  135.1490 O   0  0  0  0  0  0  0  0  0  0  0  0
  180.5830  177.2030  136.6110 N   0  0  0  0  0  2  0  0  0  0  0  0
  182.9720  176.5390  136.5520 N   0  0  0  0  0  2  0  0  0  0  0  0
  184.3200  176.5770  136.0760 C   0  0  0  0  0  0  0  0  0  0  0  0
  181.8840  177.3170  136.0350 C   0  0  0  0  0  0  0  0  0  0  0  0
  185.2890  175.7100  136.6730 N   0  0  0  0  0  2  0  0  0  0  0  0
  180.2990  176.3430  137.7560 C   0  0  2  0  0  3  0  0  0  0  0  0
  179.2380  175.3150  137.3950 C   0  0  0  0  0  1  0  0  0  0  0  0
  179.8460  177.1710  138.9600 C   0  0  1  0  0  3  0  0  0  0  0  0
  180.7650  176.9160  140.1460 C   0  0  0  0  0  2  0  0  0  0  0  0
  181.6730  175.9020  139.8340 O   0  0  0  0  0  1  0  0  0  0  0  0
  179.8310  178.5370  138.6500 O   0  0  0  0  0  0  0  0  0  0  0  0
  180.5770  179.1450  139.6650 C   0  0  0  0  0  2  0  0  0  0  0  0
  180.4380  180.6550  139.5750 C   0  0  0  0  0  2  0  0  0  0  0  0
  181.1230  182.1920  137.7350 O   0  0  0  0  0  0  0  0  0  0  0  0
  181.4720  181.2220  138.6640 C   0  0  0  0  0  0  0  0  0  0  0  0
  182.6560  180.8000  138.7170 O   0  0  0  0  0  1  0  0  0  0  0  0
  191.5190  177.0780  139.5780 C   0  0  0  0  0  2  0  0  0  0  0  0
  190.4170  176.7500  140.5730 C   0  0  0  0  0  2  0  0  0  0  0  0
  189.3890  178.6840  139.3210 C   0  0  0  0  0  1  0  0  0  0  0  0
  189.1290  177.4880  140.2320 C   0  0  2  0  0  3  0  0  0  0  0  0
  189.0020  177.4770  145.1940 C   0  0  0  0  0  1  0  0  0  0  0  0
  186.9150  177.8820  143.8810 C   0  0  0  0  0  0  0  0  0  0  0  0
  186.4860  178.6090  140.3490 O   0  0  0  0  0  0  0  0  0  0  0  0
  187.0510  178.3140  141.4380 C   0  0  0  0  0  0  0  0  0  0  0  0
  184.9410  178.8650  142.6830 C   0  0  0  0  0  1  0  0  0  0  0  0
  188.4340  177.9110  141.4550 N   0  0  0  0  0  0  0  0  0  0  0  0
  186.3120  178.3630  142.6680 N   0  0  0  0  0  0  0  0  0  0  0  0
  188.3070  177.2960  143.8500 C   0  0  1  0  0  3  0  0  0  0  0  0
  189.1460  177.9480  142.7410 C   0  0  1  0  0  3  0  0  0  0  0  0
  186.2490  177.8790  144.9590 O   0  0  0  0  0  0  0  0  0  0  0  0
  190.3940  177.3160  142.6420 O   0  0  0  0  0  0  0  0  0  0  0  0
  191.3060  178.2380  143.1610 C   0  0  0  0  0  1  0  0  0  0  0  0
  1 13  1  6  0  0  0
  1  3  1  0  0  0  0
  1  2  1  0  0  0  0
  2 38  1  1  0  0  0
  3  4  1  6  0  0  0
  3  2  1  0  0  0  0
  4  5  1  0  0  0  0
  6  7  1  6  0  0  0
  6  5  1  0  0  0  0
  9  8  1  6  0  0  0
  9 12  1  0  0  0  0
  9  6  1  0  0  0  0
 10 12  2  0  0  0  0
 12 11  1  0  0  0  0
 13 14  1  0  0  0  0
 14 17  2  0  0  0  0
 15 26  1  1  0  0  0
 15 16  1  0  0  0  0
 15 19  1  0  0  0  0
 17 19  1  0  0  0  0
 18 14  1  0  0  0  0
 18 16  1  0  0  0  0
 20 25  2  0  0  0  0
 21 24  2  0  0  0  0
 22 27  1  0  0  0  0
 24 23  1  0  0  0  0
 24 26  1  0  0  0  0
 25 23  1  0  0  0  0
 25 22  1  0  0  0  0
 27 28  1  6  0  0  0
 27 29  1  0  0  0  0
 29 30  1  1  0  0  0
 31 30  1  0  0  0  0
 32 29  1  0  0  0  0
 32 33  1  0  0  0  0
 34 33  1  0  0  0  0
 35 36  2  0  0  0  0
 36 37  1  0  0  0  0
 36 34  1  0  0  0  0
 38 39  1  0  0  0  0
 41 40  1  6  0  0  0
 41 39  1  0  0  0  0
 41 47  1  0  0  0  0
 43 51  2  0  0  0  0
 44 45  2  0  0  0  0
 45 47  1  0  0  0  0
 45 48  1  0  0  0  0
 47 50  1  0  0  0  0
 48 46  1  0  0  0  0
 48 43  1  0  0  0  0
 49 43  1  0  0  0  0
 49 42  1  1  0  0  0
 50 52  1  6  0  0  0
 50 49  1  0  0  0  0
 52 53  1  0  0  0  0
M  END
>  <MODEL>
9

>  <REMARK>
 VINA RESULT:      -5.7      2.874     11.208
  Name = 
  20 active torsions:
  status: ('A' for Active; 'I' for Inactive)
    1  A    between atoms: C_1  and  C_30
    2  A    between atoms: C_2  and  N_37
    3  A    between atoms: N_5  and  C_42
    4  A    between atoms: C_6  and  C_14
    5  A    between atoms: C_6  and  C_22
    6  A    between atoms: C_7  and  C_48
    7  A    between atoms: C_7  and  O_53
    8  A    between atoms: C_8  and  C_17
    9  A    between atoms: O_13  and  C_47
   10  A    between atoms: C_14  and  C_52
   11  A    between atoms: C_17  and  C_42
   12  A    between atoms: C_17  and  O_53
   13  A    between atoms: C_21  and  C_30
   14  A    between atoms: C_22  and  C_27
   15  A    between atoms: C_25  and  C_39
   16  A    between atoms: N_35  and  C_50
   17  A    between atoms: C_36  and  C_52
   18  A    between atoms: C_38  and  C_48
   19  A    between atoms: C_39  and  C_40
   20  A    between atoms: C_40  and  C_50
                            x       y       z     vdW  Elec       q    Type
                         _______ _______ _______ _____ _____    ______ ____

>  <TORSDO>
F 20

$$$$
