=
 OpenBabel10222416273D

 38 42  0  0  1  0  0  0  0  0999 V2000
  188.1280  177.0330  146.2250 C   0  0  2  0  0  3  0  0  0  0  0  0
  189.6520  177.8740  142.4120 C   0  0  2  0  0  3  0  0  0  0  0  0
  186.7530  178.9360  141.5510 N   0  0  0  0  0  2  0  0  0  0  0  0
  187.6270  178.4340  146.4960 C   0  0  2  0  0  3  0  0  0  0  0  0
  184.6980  178.7880  142.9560 C   0  0  0  0  0  0  0  0  0  0  0  0
  184.7900  177.9770  140.7270 O   0  0  0  0  0  0  0  0  0  0  0  0
  185.3830  178.5570  141.6780 C   0  0  0  0  0  0  0  0  0  0  0  0
  189.0260  176.6230  142.6760 O   0  0  0  0  0  0  0  0  0  0  0  0
  189.7490  178.8330  143.6090 C   0  0  2  0  0  3  0  0  0  0  0  0
  189.9330  178.3140  140.0520 O   0  0  0  0  0  0  0  0  0  0  0  0
  189.1110  178.5690  141.1570 C   0  0  1  0  0  3  0  0  0  0  0  0
  183.3200  178.5850  143.1000 C   0  0  0  0  0  3  0  0  0  0  0  0
  184.8430  179.2730  145.3140 C   0  0  0  0  0  0  0  0  0  0  0  0
  188.8830  176.7080  147.5020 C   0  0  2  0  0  3  0  0  0  0  0  0
  188.5080  178.9130  147.6440 C   0  0  0  0  0  2  0  0  0  0  0  0
  187.3590  175.4380  143.8910 C   0  0  0  0  0  1  0  0  0  0  0  0
  188.1780  176.7170  143.8010 C   0  0  1  0  0  3  0  0  0  0  0  0
  189.1170  178.5250  138.9230 C   0  0  2  0  0  3  0  0  0  0  0  0
  189.4210  177.9030  148.0020 O   0  0  0  0  0  0  0  0  0  0  0  0
  187.7080  178.1600  140.7860 C   0  0  2  0  0  3  0  0  0  0  0  0
  187.6520  178.4980  139.3300 C   0  0  0  0  0  2  0  0  0  0  0  0
  185.4580  179.1310  144.0730 C   0  0  0  0  0  3  0  0  0  0  0  0
  182.7340  178.7410  144.3600 C   0  0  0  0  0  3  0  0  0  0  0  0
  185.6840  179.5470  146.5110 C   0  0  0  0  0  2  0  0  0  0  0  0
  188.9850  176.9100  145.0220 N   0  0  1  0  0  0  0  0  0  0  0  0
  190.8210  179.7070  143.4340 O   0  0  0  0  0  1  0  0  0  0  0  0
  183.5030  179.0710  145.4350 N   0  0  0  0  0  0  0  0  0  0  0  0
  186.2990  178.3640  146.9390 O   0  0  0  0  0  0  0  0  0  0  0  0
  189.9510  178.0210  144.8870 C   0  0  0  0  0  2  0  0  0  0  0  0
  189.9360  175.7230  147.2840 N   0  0  0  0  0  2  0  0  0  0  0  0
  191.2090  176.3930  147.4860 C   0  0  0  0  0  2  0  0  0  0  0  0
  192.3450  175.4610  147.1080 C   0  0  0  0  0  2  0  0  0  0  0  0
  192.4760  173.8780  145.1890 O   0  0  0  0  0  1  0  0  0  0  0  0
  192.0660  176.1050  144.8330 O   0  0  0  0  0  0  0  0  0  0  0  0
  192.2990  175.1760  145.6500 C   0  0  0  0  0  0  0  0  0  0  0  0
  189.4130  177.4880  137.8440 C   0  0  0  0  0  2  0  0  0  0  0  0
  190.4450  176.1220  138.4700 S   0  0  0  0  0  0  0  0  0  0  0  0
  191.6660  176.3500  137.1500 C   0  0  0  0  0  1  0  0  0  0  0  0
  1  4  1  0  0  0  0
  1 14  1  0  0  0  0
  2  8  1  0  0  0  0
  2  9  1  0  0  0  0
  3  7  1  0  0  0  0
  4 28  1  0  0  0  0
  4 15  1  0  0  0  0
  5 12  2  0  0  0  0
  5 22  1  0  0  0  0
  6  7  2  0  0  0  0
  7  5  1  0  0  0  0
  8 17  1  0  0  0  0
  9 29  1  0  0  0  0
 10 11  1  0  0  0  0
 11  2  1  0  0  0  0
 12 23  1  0  0  0  0
 13 27  1  0  0  0  0
 13 24  1  0  0  0  0
 14 19  1  0  0  0  0
 15 19  1  0  0  0  0
 17 16  1  0  0  0  0
 17 25  1  0  0  0  0
 18 21  1  0  0  0  0
 18 10  1  0  0  0  0
 20 11  1  0  0  0  0
 20  3  1  0  0  0  0
 21 20  1  0  0  0  0
 22 13  2  0  0  0  0
 23 27  2  0  0  0  0
 24 28  1  0  0  0  0
 25  1  1  0  0  0  0
 26  9  1  0  0  0  0
 29 25  1  0  0  0  0
 30 31  1  0  0  0  0
 30 14  1  0  0  0  0
 32 31  1  0  0  0  0
 33 35  1  0  0  0  0
 34 35  2  0  0  0  0
 35 32  1  0  0  0  0
 36 37  1  0  0  0  0
 36 18  1  0  0  0  0
 38 37  1  0  0  0  0
M  END
>  <MODEL>
1

>  <REMARK>
 VINA RESULT:      -5.9      0.000      0.000
  Name = 
  6 active torsions:
  status: ('A' for Active; 'I' for Inactive)
    1  A    between atoms: C_11  and  C_19
    2  A    between atoms: C_11  and  N_25
    3  A    between atoms: S_14  and  C_33
    4  A    between atoms: C_17  and  N_25
    5  A    between atoms: C_19  and  C_27
    6  A    between atoms: C_23  and  C_33
                            x       y       z     vdW  Elec       q    Type
                         _______ _______ _______ _____ _____    ______ ____

>  <TORSDO>
F 6

$$$$
=
 OpenBabel10222416273D

 38 42  0  0  1  0  0  0  0  0999 V2000
  188.2120  177.0750  146.2600 C   0  0  2  0  0  3  0  0  0  0  0  0
  189.7170  177.9150  142.4390 C   0  0  2  0  0  3  0  0  0  0  0  0
  186.8020  178.9350  141.5780 N   0  0  0  0  0  2  0  0  0  0  0  0
  187.6930  178.4710  146.5240 C   0  0  2  0  0  3  0  0  0  0  0  0
  184.7520  178.7670  142.9890 C   0  0  0  0  0  0  0  0  0  0  0  0
  184.8500  177.9450  140.7640 O   0  0  0  0  0  0  0  0  0  0  0  0
  185.4370  178.5380  141.7110 C   0  0  0  0  0  0  0  0  0  0  0  0
  189.1080  176.6580  142.7110 O   0  0  0  0  0  0  0  0  0  0  0  0
  189.8040  178.8820  143.6300 C   0  0  2  0  0  3  0  0  0  0  0  0
  189.9860  178.3460  140.0760 O   0  0  0  0  0  0  0  0  0  0  0  0
  189.1640  178.5960  141.1820 C   0  0  1  0  0  3  0  0  0  0  0  0
  183.3770  178.5470  143.1370 C   0  0  0  0  0  3  0  0  0  0  0  0
  184.8960  179.2670  145.3440 C   0  0  0  0  0  0  0  0  0  0  0  0
  188.9740  176.7680  147.5370 C   0  0  2  0  0  3  0  0  0  0  0  0
  188.5710  178.9680  147.6670 C   0  0  0  0  0  2  0  0  0  0  0  0
  187.4590  175.4570  143.9370 C   0  0  0  0  0  1  0  0  0  0  0  0
  188.2600  176.7460  143.8380 C   0  0  1  0  0  3  0  0  0  0  0  0
  189.1650  178.5390  138.9470 C   0  0  2  0  0  3  0  0  0  0  0  0
  189.4980  177.9730  148.0290 O   0  0  0  0  0  0  0  0  0  0  0  0
  187.7660  178.1660  140.8160 C   0  0  2  0  0  3  0  0  0  0  0  0
  187.7020  178.4950  139.3580 C   0  0  0  0  0  2  0  0  0  0  0  0
  185.5100  179.1260  144.1030 C   0  0  0  0  0  3  0  0  0  0  0  0
  182.7920  178.7020  144.3980 C   0  0  0  0  0  3  0  0  0  0  0  0
  185.7360  179.5590  146.5380 C   0  0  0  0  0  2  0  0  0  0  0  0
  189.0680  176.9570  145.0550 N   0  0  1  0  0  0  0  0  0  0  0  0
  190.8630  179.7690  143.4480 O   0  0  0  0  0  1  0  0  0  0  0  0
  183.5590  179.0480  145.4690 N   0  0  0  0  0  0  0  0  0  0  0  0
  186.3670  178.3860  146.9710 O   0  0  0  0  0  0  0  0  0  0  0  0
  190.0190  178.0800  144.9120 C   0  0  0  0  0  2  0  0  0  0  0  0
  190.0390  175.7950  147.3220 N   0  0  0  0  0  2  0  0  0  0  0  0
  191.3030  176.5060  147.4150 C   0  0  0  0  0  2  0  0  0  0  0  0
  192.4310  175.5170  147.6460 C   0  0  0  0  0  2  0  0  0  0  0  0
  193.5200  177.0440  149.2850 O   0  0  0  0  0  0  0  0  0  0  0  0
  193.1520  174.8440  149.8120 O   0  0  0  0  0  1  0  0  0  0  0  0
  193.0620  175.7720  148.9670 C   0  0  0  0  0  0  0  0  0  0  0  0
  189.4720  177.5000  137.8740 C   0  0  0  0  0  2  0  0  0  0  0  0
  190.4300  176.0960  138.5330 S   0  0  0  0  0  0  0  0  0  0  0  0
  191.8070  176.4150  137.3970 C   0  0  0  0  0  1  0  0  0  0  0  0
  1  4  1  0  0  0  0
  1 14  1  0  0  0  0
  2  8  1  0  0  0  0
  2  9  1  0  0  0  0
  3  7  1  0  0  0  0
  4 28  1  0  0  0  0
  4 15  1  0  0  0  0
  5 12  2  0  0  0  0
  5 22  1  0  0  0  0
  6  7  2  0  0  0  0
  7  5  1  0  0  0  0
  8 17  1  0  0  0  0
  9 29  1  0  0  0  0
 10 11  1  0  0  0  0
 11  2  1  0  0  0  0
 12 23  1  0  0  0  0
 13 27  1  0  0  0  0
 13 24  1  0  0  0  0
 14 19  1  0  0  0  0
 15 19  1  0  0  0  0
 17 16  1  0  0  0  0
 17 25  1  0  0  0  0
 18 21  1  0  0  0  0
 18 10  1  0  0  0  0
 20 11  1  0  0  0  0
 20  3  1  0  0  0  0
 21 20  1  0  0  0  0
 22 13  2  0  0  0  0
 23 27  2  0  0  0  0
 24 28  1  0  0  0  0
 25  1  1  0  0  0  0
 26  9  1  0  0  0  0
 29 25  1  0  0  0  0
 30 31  1  0  0  0  0
 30 14  1  0  0  0  0
 31 32  1  0  0  0  0
 32 35  1  0  0  0  0
 35 33  2  0  0  0  0
 35 34  1  0  0  0  0
 36 37  1  0  0  0  0
 36 18  1  0  0  0  0
 38 37  1  0  0  0  0
M  END
>  <MODEL>
2

>  <REMARK>
 VINA RESULT:      -5.8      1.108      1.338
  Name = 
  6 active torsions:
  status: ('A' for Active; 'I' for Inactive)
    1  A    between atoms: C_11  and  C_19
    2  A    between atoms: C_11  and  N_25
    3  A    between atoms: S_14  and  C_33
    4  A    between atoms: C_17  and  N_25
    5  A    between atoms: C_19  and  C_27
    6  A    between atoms: C_23  and  C_33
                            x       y       z     vdW  Elec       q    Type
                         _______ _______ _______ _____ _____    ______ ____

>  <TORSDO>
F 6

$$$$
=
 OpenBabel10222416273D

 38 42  0  0  1  0  0  0  0  0999 V2000
  180.3490  177.0300  137.7690 C   0  0  2  0  0  3  0  0  0  0  0  0
  184.3950  176.9150  136.6810 C   0  0  2  0  0  3  0  0  0  0  0  0
  184.0710  173.7930  136.0280 N   0  0  0  0  0  2  0  0  0  0  0  0
  179.8270  176.4910  136.4550 C   0  0  2  0  0  3  0  0  0  0  0  0
  182.0250  172.4410  136.4800 C   0  0  0  0  0  0  0  0  0  0  0  0
  184.1800  171.8040  137.2460 O   0  0  0  0  0  0  0  0  0  0  0  0
  183.4770  172.6270  136.5990 C   0  0  0  0  0  0  0  0  0  0  0  0
  183.9990  176.5960  138.0100 O   0  0  0  0  0  0  0  0  0  0  0  0
  183.2590  177.3250  135.7300 C   0  0  2  0  0  3  0  0  0  0  0  0
  186.6620  176.2450  136.1800 O   0  0  0  0  0  0  0  0  0  0  0  0
  185.3200  175.8650  136.0550 C   0  0  1  0  0  3  0  0  0  0  0  0
  181.4010  171.2520  136.8760 C   0  0  0  0  0  3  0  0  0  0  0  0
  179.8580  173.3850  136.0050 C   0  0  0  0  0  0  0  0  0  0  0  0
  179.4580  178.2390  137.9970 C   0  0  2  0  0  3  0  0  0  0  0  0
  179.0530  177.6660  135.8690 C   0  0  0  0  0  2  0  0  0  0  0  0
  182.3340  175.6610  139.4320 C   0  0  0  0  0  1  0  0  0  0  0  0
  182.6380  176.2190  138.0490 C   0  0  1  0  0  3  0  0  0  0  0  0
  187.4010  175.0490  136.0750 C   0  0  2  0  0  3  0  0  0  0  0  0
  179.1160  178.7670  136.7430 O   0  0  0  0  0  0  0  0  0  0  0  0
  185.1790  174.4880  136.6550 C   0  0  2  0  0  3  0  0  0  0  0  0
  186.4900  173.8550  136.3120 C   0  0  0  0  0  2  0  0  0  0  0  0
  181.2430  173.5100  136.0450 C   0  0  0  0  0  3  0  0  0  0  0  0
  180.0070  171.1590  136.8180 C   0  0  0  0  0  3  0  0  0  0  0  0
  179.0350  174.5670  135.6270 C   0  0  0  0  0  2  0  0  0  0  0  0
  181.7870  177.3890  137.7570 N   0  0  1  0  0  0  0  0  0  0  0  0
  183.7590  178.1360  134.7120 O   0  0  0  0  0  1  0  0  0  0  0  0
  179.2680  172.2220  136.3940 N   0  0  0  0  0  0  0  0  0  0  0  0
  178.9350  175.4420  136.7170 O   0  0  0  0  0  0  0  0  0  0  0  0
  182.1960  178.0870  136.5190 C   0  0  0  0  0  2  0  0  0  0  0  0
  180.1050  179.2520  138.8220 N   0  0  0  0  0  2  0  0  0  0  0  0
  179.8930  178.8840  140.2110 C   0  0  0  0  0  2  0  0  0  0  0  0
  181.1420  179.1850  141.0180 C   0  0  0  0  0  2  0  0  0  0  0  0
  180.0530  180.6350  142.7250 O   0  0  0  0  0  0  0  0  0  0  0  0
  181.0810  178.6830  143.3440 O   0  0  0  0  0  1  0  0  0  0  0  0
  180.7720  179.4860  142.4260 C   0  0  0  0  0  0  0  0  0  0  0  0
  188.5750  175.0540  137.0480 C   0  0  0  0  0  2  0  0  0  0  0  0
  188.8060  176.6820  137.8360 S   0  0  0  0  0  0  0  0  0  0  0  0
  190.5490  176.7480  137.3420 C   0  0  0  0  0  1  0  0  0  0  0  0
  1 14  1  0  0  0  0
  2  8  1  0  0  0  0
  3  7  1  0  0  0  0
  3 20  1  0  0  0  0
  4 28  1  0  0  0  0
  4  1  1  0  0  0  0
  5  7  1  0  0  0  0
  5 12  1  0  0  0  0
  7  6  2  0  0  0  0
  8 17  1  0  0  0  0
  9 29  1  0  0  0  0
  9  2  1  0  0  0  0
 11 10  1  0  0  0  0
 11 20  1  0  0  0  0
 11  2  1  0  0  0  0
 13 22  1  0  0  0  0
 13 27  2  0  0  0  0
 14 30  1  0  0  0  0
 15  4  1  0  0  0  0
 15 19  1  0  0  0  0
 17 16  1  0  0  0  0
 18 10  1  0  0  0  0
 18 21  1  0  0  0  0
 18 36  1  0  0  0  0
 19 14  1  0  0  0  0
 21 20  1  0  0  0  0
 22  5  2  0  0  0  0
 23 12  2  0  0  0  0
 24 13  1  0  0  0  0
 24 28  1  0  0  0  0
 25  1  1  0  0  0  0
 25 17  1  0  0  0  0
 26  9  1  0  0  0  0
 27 23  1  0  0  0  0
 29 25  1  0  0  0  0
 30 31  1  0  0  0  0
 31 32  1  0  0  0  0
 32 35  1  0  0  0  0
 35 33  2  0  0  0  0
 35 34  1  0  0  0  0
 36 37  1  0  0  0  0
 38 37  1  0  0  0  0
M  END
>  <MODEL>
3

>  <REMARK>
 VINA RESULT:      -4.6      7.123     10.389
  Name = 
  6 active torsions:
  status: ('A' for Active; 'I' for Inactive)
    1  A    between atoms: C_11  and  C_19
    2  A    between atoms: C_11  and  N_25
    3  A    between atoms: S_14  and  C_33
    4  A    between atoms: C_17  and  N_25
    5  A    between atoms: C_19  and  C_27
    6  A    between atoms: C_23  and  C_33
                            x       y       z     vdW  Elec       q    Type
                         _______ _______ _______ _____ _____    ______ ____

>  <TORSDO>
F 6

$$$$
=
 OpenBabel10222416273D

 38 42  0  0  1  0  0  0  0  0999 V2000
  190.1450  176.5760  141.8270 C   0  0  2  0  0  3  0  0  0  0  0  0
  186.4240  178.4000  142.4570 C   0  0  2  0  0  3  0  0  0  0  0  0
  187.1210  178.6090  145.5790 N   0  0  0  0  0  2  0  0  0  0  0  0
  190.9620  177.6930  142.4370 C   0  0  2  0  0  3  0  0  0  0  0  0
  189.1340  177.6180  146.6660 C   0  0  0  0  0  0  0  0  0  0  0  0
  186.9270  177.2120  147.4390 O   0  0  0  0  0  0  0  0  0  0  0  0
  187.6790  177.8030  146.6170 C   0  0  0  0  0  0  0  0  0  0  0  0
  186.5680  176.9910  142.6020 O   0  0  0  0  0  0  0  0  0  0  0  0
  187.6920  179.1560  142.0300 C   0  0  2  0  0  3  0  0  0  0  0  0
  184.3660  179.2450  143.4000 O   0  0  0  0  0  0  0  0  0  0  0  0
  185.7310  179.0650  143.6520 C   0  0  1  0  0  3  0  0  0  0  0  0
  189.7580  176.9740  147.7410 C   0  0  0  0  0  3  0  0  0  0  0  0
  191.2710  177.7750  145.5590 C   0  0  0  0  0  0  0  0  0  0  0  0
  190.8720  176.3240  140.5180 C   0  0  2  0  0  3  0  0  0  0  0  0
  191.7430  178.2520  141.2530 C   0  0  0  0  0  2  0  0  0  0  0  0
  187.9800  175.1770  143.2180 C   0  0  0  0  0  1  0  0  0  0  0  0
  187.9190  176.6480  142.8330 C   0  0  1  0  0  3  0  0  0  0  0  0
  183.7610  179.3500  144.6680 C   0  0  2  0  0  3  0  0  0  0  0  0
  191.4170  177.5410  140.0830 O   0  0  0  0  0  0  0  0  0  0  0  0
  185.8580  178.2930  144.9410 C   0  0  2  0  0  3  0  0  0  0  0  0
  184.6980  178.8040  145.7350 C   0  0  0  0  0  2  0  0  0  0  0  0
  189.9010  178.0170  145.5720 C   0  0  0  0  0  3  0  0  0  0  0  0
  191.1380  176.7520  147.6980 C   0  0  0  0  0  3  0  0  0  0  0  0
  192.0560  178.1230  144.3430 C   0  0  0  0  0  2  0  0  0  0  0  0
  188.7150  176.9060  141.6180 N   0  0  1  0  0  0  0  0  0  0  0  0
  187.3460  180.3390  141.3780 O   0  0  0  0  0  1  0  0  0  0  0  0
  191.8600  177.1470  146.6120 N   0  0  0  0  0  0  0  0  0  0  0  0
  191.8640  177.1440  143.3600 O   0  0  0  0  0  0  0  0  0  0  0  0
  188.5100  178.2720  141.0900 C   0  0  0  0  0  2  0  0  0  0  0  0
  189.9930  175.7620  139.4980 N   0  0  0  0  0  2  0  0  0  0  0  0
  190.1680  176.5500  138.2900 C   0  0  0  0  0  2  0  0  0  0  0  0
  188.8290  176.7330  137.5990 C   0  0  0  0  0  2  0  0  0  0  0  0
  187.2160  178.6280  137.7130 O   0  0  0  0  0  1  0  0  0  0  0  0
  189.4240  179.0090  137.2320 O   0  0  0  0  0  0  0  0  0  0  0  0
  188.5120  178.1820  137.4910 C   0  0  0  0  0  0  0  0  0  0  0  0
  182.4180  178.6280  144.6860 C   0  0  0  0  0  2  0  0  0  0  0  0
  181.4190  179.0020  143.2080 S   0  0  0  0  0  0  0  0  0  0  0  0
  179.8750  178.5830  144.0630 C   0  0  0  0  0  1  0  0  0  0  0  0
  1  4  1  0  0  0  0
  2  8  1  0  0  0  0
  2 11  1  0  0  0  0
  3  7  1  0  0  0  0
  4 28  1  0  0  0  0
  5 12  1  0  0  0  0
  7  5  1  0  0  0  0
  7  6  2  0  0  0  0
  8 17  1  0  0  0  0
  9  2  1  0  0  0  0
 10 11  1  0  0  0  0
 10 18  1  0  0  0  0
 11 20  1  0  0  0  0
 13 22  1  0  0  0  0
 13 27  2  0  0  0  0
 14  1  1  0  0  0  0
 15  4  1  0  0  0  0
 17 16  1  0  0  0  0
 18 36  1  0  0  0  0
 18 21  1  0  0  0  0
 19 14  1  0  0  0  0
 19 15  1  0  0  0  0
 20  3  1  0  0  0  0
 20 21  1  0  0  0  0
 22  5  2  0  0  0  0
 23 12  2  0  0  0  0
 24 13  1  0  0  0  0
 25  1  1  0  0  0  0
 25 17  1  0  0  0  0
 26  9  1  0  0  0  0
 27 23  1  0  0  0  0
 28 24  1  0  0  0  0
 29 25  1  0  0  0  0
 29  9  1  0  0  0  0
 30 14  1  0  0  0  0
 31 30  1  0  0  0  0
 32 31  1  0  0  0  0
 34 35  2  0  0  0  0
 35 32  1  0  0  0  0
 35 33  1  0  0  0  0
 37 38  1  0  0  0  0
 37 36  1  0  0  0  0
M  END
>  <MODEL>
4

>  <REMARK>
 VINA RESULT:      -4.5      2.646      7.119
  Name = 
  6 active torsions:
  status: ('A' for Active; 'I' for Inactive)
    1  A    between atoms: C_11  and  C_19
    2  A    between atoms: C_11  and  N_25
    3  A    between atoms: S_14  and  C_33
    4  A    between atoms: C_17  and  N_25
    5  A    between atoms: C_19  and  C_27
    6  A    between atoms: C_23  and  C_33
                            x       y       z     vdW  Elec       q    Type
                         _______ _______ _______ _____ _____    ______ ____

>  <TORSDO>
F 6

$$$$
=
 OpenBabel10222416273D

 38 42  0  0  1  0  0  0  0  0999 V2000
  182.7120  176.5280  136.2010 C   0  0  2  0  0  3  0  0  0  0  0  0
  182.9290  178.2550  140.0150 C   0  0  2  0  0  3  0  0  0  0  0  0
  186.1000  178.5460  139.6390 N   0  0  0  0  0  2  0  0  0  0  0  0
  183.3760  177.6800  135.4800 C   0  0  2  0  0  3  0  0  0  0  0  0
  187.4030  177.6350  137.7190 C   0  0  0  0  0  0  0  0  0  0  0  0
  187.9620  177.1800  139.9800 O   0  0  0  0  0  0  0  0  0  0  0  0
  187.2050  177.7770  139.1660 C   0  0  0  0  0  0  0  0  0  0  0  0
  183.1190  176.8550  139.8480 O   0  0  0  0  0  0  0  0  0  0  0  0
  182.6130  179.0400  138.7310 C   0  0  2  0  0  3  0  0  0  0  0  0
  183.6430  179.0580  142.1790 O   0  0  0  0  0  0  0  0  0  0  0  0
  184.0340  178.9230  140.8410 C   0  0  1  0  0  3  0  0  0  0  0  0
  188.5490  177.0300  137.1880 C   0  0  0  0  0  3  0  0  0  0  0  0
  186.5110  177.8320  135.4870 C   0  0  0  0  0  0  0  0  0  0  0  0
  181.4880  176.2720  135.3410 C   0  0  2  0  0  3  0  0  0  0  0  0
  182.2630  178.2390  134.6000 C   0  0  0  0  0  2  0  0  0  0  0  0
  183.9130  175.0950  138.4560 C   0  0  0  0  0  1  0  0  0  0  0  0
  183.4910  176.5560  138.5180 C   0  0  1  0  0  3  0  0  0  0  0  0
  184.8430  179.1710  142.9100 C   0  0  2  0  0  3  0  0  0  0  0  0
  181.0830  177.4960  134.7880 O   0  0  0  0  0  0  0  0  0  0  0  0
  185.3460  178.1800  140.8230 C   0  0  2  0  0  3  0  0  0  0  0  0
  186.0090  178.6730  142.0700 C   0  0  0  0  0  2  0  0  0  0  0  0
  186.3820  178.0340  136.8580 C   0  0  0  0  0  3  0  0  0  0  0  0
  188.6480  176.8470  135.8050 C   0  0  0  0  0  3  0  0  0  0  0  0
  185.3710  178.1790  134.5940 C   0  0  0  0  0  2  0  0  0  0  0  0
  182.3550  176.8120  137.6120 N   0  0  1  0  0  0  0  0  0  0  0  0
  181.9040  180.1990  139.0420 O   0  0  0  0  0  1  0  0  0  0  0  0
  187.6310  177.2420  134.9890 N   0  0  0  0  0  0  0  0  0  0  0  0
  184.3960  177.1760  134.6610 O   0  0  0  0  0  0  0  0  0  0  0  0
  181.7800  178.1610  137.7990 C   0  0  0  0  0  2  0  0  0  0  0  0
  180.3990  175.6650  136.0980 N   0  0  0  0  0  2  0  0  0  0  0  0
  180.5980  174.2260  136.0710 C   0  0  0  0  0  2  0  0  0  0  0  0
  180.3290  173.6460  137.4470 C   0  0  0  0  0  2  0  0  0  0  0  0
  179.1150  171.7080  136.4580 O   0  0  0  0  0  0  0  0  0  0  0  0
  180.7630  171.3750  138.0160 O   0  0  0  0  0  1  0  0  0  0  0  0
  180.0790  172.1850  137.3370 C   0  0  0  0  0  0  0  0  0  0  0  0
  184.7440  178.4100  144.2280 C   0  0  0  0  0  2  0  0  0  0  0  0
  185.3480  179.3980  145.6360 S   0  0  0  0  0  0  0  0  0  0  0  0
  186.3910  178.0390  146.2290 C   0  0  0  0  0  1  0  0  0  0  0  0
  1 25  1  0  0  0  0
  2 11  1  0  0  0  0
  3 20  1  0  0  0  0
  4  1  1  0  0  0  0
  5  7  1  0  0  0  0
  7  3  1  0  0  0  0
  7  6  2  0  0  0  0
  8  2  1  0  0  0  0
  9 26  1  0  0  0  0
  9  2  1  0  0  0  0
 10 18  1  0  0  0  0
 11 10  1  0  0  0  0
 12  5  1  0  0  0  0
 13 22  1  0  0  0  0
 14 30  1  0  0  0  0
 14  1  1  0  0  0  0
 15 19  1  0  0  0  0
 15  4  1  0  0  0  0
 16 17  1  0  0  0  0
 17  8  1  0  0  0  0
 18 36  1  0  0  0  0
 19 14  1  0  0  0  0
 20 11  1  0  0  0  0
 20 21  1  0  0  0  0
 21 18  1  0  0  0  0
 22  5  2  0  0  0  0
 23 12  2  0  0  0  0
 24 28  1  0  0  0  0
 24 13  1  0  0  0  0
 25 29  1  0  0  0  0
 25 17  1  0  0  0  0
 27 13  2  0  0  0  0
 27 23  1  0  0  0  0
 28  4  1  0  0  0  0
 29  9  1  0  0  0  0
 31 30  1  0  0  0  0
 31 32  1  0  0  0  0
 33 35  2  0  0  0  0
 35 32  1  0  0  0  0
 35 34  1  0  0  0  0
 36 37  1  0  0  0  0
 37 38  1  0  0  0  0
M  END
>  <MODEL>
5

>  <REMARK>
 VINA RESULT:      -4.3      5.385     10.386
  Name = 
  6 active torsions:
  status: ('A' for Active; 'I' for Inactive)
    1  A    between atoms: C_11  and  C_19
    2  A    between atoms: C_11  and  N_25
    3  A    between atoms: S_14  and  C_33
    4  A    between atoms: C_17  and  N_25
    5  A    between atoms: C_19  and  C_27
    6  A    between atoms: C_23  and  C_33
                            x       y       z     vdW  Elec       q    Type
                         _______ _______ _______ _____ _____    ______ ____

>  <TORSDO>
F 6

$$$$
=
 OpenBabel10222416273D

 38 42  0  0  1  0  0  0  0  0999 V2000
  190.1750  176.5760  141.8230 C   0  0  2  0  0  3  0  0  0  0  0  0
  186.4470  178.4010  142.4090 C   0  0  2  0  0  3  0  0  0  0  0  0
  187.1060  178.6070  145.5400 N   0  0  0  0  0  2  0  0  0  0  0  0
  190.9850  177.6910  142.4440 C   0  0  2  0  0  3  0  0  0  0  0  0
  189.1050  177.6140  146.6510 C   0  0  0  0  0  0  0  0  0  0  0  0
  186.8890  177.2080  147.3960 O   0  0  0  0  0  0  0  0  0  0  0  0
  187.6510  177.8000  146.5840 C   0  0  0  0  0  0  0  0  0  0  0  0
  186.5890  176.9920  142.5550 O   0  0  0  0  0  0  0  0  0  0  0  0
  187.7210  179.1570  141.9980 C   0  0  2  0  0  3  0  0  0  0  0  0
  184.3780  179.2460  143.3270 O   0  0  0  0  0  0  0  0  0  0  0  0
  185.7400  179.0650  143.5960 C   0  0  1  0  0  3  0  0  0  0  0  0
  189.7160  176.9680  147.7330 C   0  0  0  0  0  3  0  0  0  0  0  0
  191.2560  177.7710  145.5700 C   0  0  0  0  0  0  0  0  0  0  0  0
  190.9180  176.3240  140.5230 C   0  0  2  0  0  3  0  0  0  0  0  0
  191.7810  178.2520  141.2710 C   0  0  0  0  0  2  0  0  0  0  0  0
  187.9920  175.1770  143.1870 C   0  0  0  0  0  1  0  0  0  0  0  0
  187.9370  176.6480  142.8020 C   0  0  1  0  0  3  0  0  0  0  0  0
  183.7580  179.3500  144.5890 C   0  0  2  0  0  3  0  0  0  0  0  0
  191.4690  177.5420  140.0960 O   0  0  0  0  0  0  0  0  0  0  0  0
  185.8510  178.2920  144.8860 C   0  0  2  0  0  3  0  0  0  0  0  0
  184.6810  178.8030  145.6660 C   0  0  0  0  0  2  0  0  0  0  0  0
  189.8850  178.0130  145.5660 C   0  0  0  0  0  3  0  0  0  0  0  0
  191.0960  176.7450  147.7060 C   0  0  0  0  0  3  0  0  0  0  0  0
  192.0560  178.1190  144.3640 C   0  0  0  0  0  2  0  0  0  0  0  0
  188.7480  176.9060  141.5970 N   0  0  1  0  0  0  0  0  0  0  0  0
  187.3840  180.3400  141.3440 O   0  0  0  0  0  1  0  0  0  0  0  0
  191.8320  177.1410  146.6300 N   0  0  0  0  0  0  0  0  0  0  0  0
  191.8750  177.1420  143.3780 O   0  0  0  0  0  0  0  0  0  0  0  0
  188.5500  178.2730  141.0680 C   0  0  0  0  0  2  0  0  0  0  0  0
  190.0510  175.7640  139.4920 N   0  0  0  0  0  2  0  0  0  0  0  0
  190.5430  176.2320  138.2080 C   0  0  0  0  0  2  0  0  0  0  0  0
  191.5740  175.2580  137.6680 C   0  0  0  0  0  2  0  0  0  0  0  0
  193.5650  176.7530  137.7700 O   0  0  0  0  0  1  0  0  0  0  0  0
  192.8240  175.9380  135.7590 O   0  0  0  0  0  0  0  0  0  0  0  0
  192.6760  176.0070  137.0070 C   0  0  0  0  0  0  0  0  0  0  0  0
  182.4140  178.6290  144.5900 C   0  0  0  0  0  2  0  0  0  0  0  0
  181.4360  179.0010  143.0970 S   0  0  0  0  0  0  0  0  0  0  0  0
  179.8720  178.7300  143.9730 C   0  0  0  0  0  1  0  0  0  0  0  0
  1  4  1  0  0  0  0
  2  8  1  0  0  0  0
  2 11  1  0  0  0  0
  3  7  1  0  0  0  0
  4 28  1  0  0  0  0
  5 12  1  0  0  0  0
  7  5  1  0  0  0  0
  7  6  2  0  0  0  0
  8 17  1  0  0  0  0
  9  2  1  0  0  0  0
 10 11  1  0  0  0  0
 10 18  1  0  0  0  0
 11 20  1  0  0  0  0
 13 27  2  0  0  0  0
 14  1  1  0  0  0  0
 15  4  1  0  0  0  0
 17 16  1  0  0  0  0
 18 36  1  0  0  0  0
 18 21  1  0  0  0  0
 19 14  1  0  0  0  0
 19 15  1  0  0  0  0
 20  3  1  0  0  0  0
 20 21  1  0  0  0  0
 22 13  1  0  0  0  0
 22  5  2  0  0  0  0
 23 12  2  0  0  0  0
 24 13  1  0  0  0  0
 25  1  1  0  0  0  0
 25 17  1  0  0  0  0
 26  9  1  0  0  0  0
 27 23  1  0  0  0  0
 28 24  1  0  0  0  0
 29 25  1  0  0  0  0
 29  9  1  0  0  0  0
 30 14  1  0  0  0  0
 31 30  1  0  0  0  0
 32 31  1  0  0  0  0
 34 35  2  0  0  0  0
 35 32  1  0  0  0  0
 35 33  1  0  0  0  0
 37 38  1  0  0  0  0
 37 36  1  0  0  0  0
M  END
>  <MODEL>
6

>  <REMARK>
 VINA RESULT:      -4.2      2.795      6.989
  Name = 
  6 active torsions:
  status: ('A' for Active; 'I' for Inactive)
    1  A    between atoms: C_11  and  C_19
    2  A    between atoms: C_11  and  N_25
    3  A    between atoms: S_14  and  C_33
    4  A    between atoms: C_17  and  N_25
    5  A    between atoms: C_19  and  C_27
    6  A    between atoms: C_23  and  C_33
                            x       y       z     vdW  Elec       q    Type
                         _______ _______ _______ _____ _____    ______ ____

>  <TORSDO>
F 6

$$$$
=
 OpenBabel10222416273D

 38 42  0  0  1  0  0  0  0  0999 V2000
  186.1940  178.9820  139.9270 C   0  0  2  0  0  3  0  0  0  0  0  0
  188.0310  176.5110  137.0820 C   0  0  2  0  0  3  0  0  0  0  0  0
  190.4190  175.9950  139.1580 N   0  0  0  0  0  2  0  0  0  0  0  0
  186.1510  177.9390  141.0220 C   0  0  2  0  0  3  0  0  0  0  0  0
  190.6780  177.1420  141.3570 C   0  0  0  0  0  0  0  0  0  0  0  0
  192.4070  177.0770  139.7320 O   0  0  0  0  0  0  0  0  0  0  0  0
  191.2400  176.7320  140.0640 C   0  0  0  0  0  0  0  0  0  0  0  0
  188.3690  177.8910  137.1610 O   0  0  0  0  0  0  0  0  0  0  0  0
  186.9500  176.0350  138.0660 C   0  0  2  0  0  3  0  0  0  0  0  0
  189.5990  175.2240  135.7690 O   0  0  0  0  0  0  0  0  0  0  0  0
  189.2540  175.5870  137.0770 C   0  0  1  0  0  3  0  0  0  0  0  0
  191.4700  177.7270  142.3520 C   0  0  0  0  0  3  0  0  0  0  0  0
  188.7360  177.4850  142.7450 C   0  0  0  0  0  0  0  0  0  0  0  0
  184.7760  179.5240  139.9430 C   0  0  2  0  0  3  0  0  0  0  0  0
  184.6610  177.6800  141.2100 C   0  0  0  0  0  2  0  0  0  0  0  0
  188.6400  179.8090  138.5440 C   0  0  0  0  0  1  0  0  0  0  0  0
  188.0430  178.4140  138.4320 C   0  0  1  0  0  3  0  0  0  0  0  0
  190.9570  174.8510  135.8310 C   0  0  2  0  0  3  0  0  0  0  0  0
  183.9180  178.4810  140.3240 O   0  0  0  0  0  0  0  0  0  0  0  0
  190.4780  176.1870  137.7220 C   0  0  2  0  0  3  0  0  0  0  0  0
  191.5850  175.3910  137.1060 C   0  0  0  0  0  2  0  0  0  0  0  0
  189.3030  177.0250  141.5600 C   0  0  0  0  0  3  0  0  0  0  0  0
  190.8670  178.1730  143.5320 C   0  0  0  0  0  3  0  0  0  0  0  0
  187.2560  177.4370  142.9040 C   0  0  0  0  0  2  0  0  0  0  0  0
  186.5770  178.4560  138.5950 N   0  0  1  0  0  0  0  0  0  0  0  0
  186.3020  174.9120  137.5560 O   0  0  0  0  0  1  0  0  0  0  0  0
  189.5210  178.0510  143.7000 N   0  0  0  0  0  0  0  0  0  0  0  0
  186.6700  178.4960  142.2000 O   0  0  0  0  0  0  0  0  0  0  0  0
  185.9390  177.1600  138.2820 C   0  0  0  0  0  2  0  0  0  0  0  0
  184.3790  180.0690  138.6500 N   0  0  0  0  0  2  0  0  0  0  0  0
  182.9740  179.7540  138.4570 C   0  0  0  0  0  2  0  0  0  0  0  0
  182.1410  181.0130  138.6110 C   0  0  0  0  0  2  0  0  0  0  0  0
  179.8870  181.6380  139.4670 O   0  0  0  0  0  0  0  0  0  0  0  0
  180.8170  179.6160  140.0120 O   0  0  0  0  0  1  0  0  0  0  0  0
  180.9240  180.7160  139.4110 C   0  0  0  0  0  0  0  0  0  0  0  0
  191.7050  175.3370  134.5940 C   0  0  0  0  0  2  0  0  0  0  0  0
  193.4930  175.5160  134.9010 S   0  0  0  0  0  0  0  0  0  0  0  0
  193.7890  173.7520  134.6060 C   0  0  0  0  0  1  0  0  0  0  0  0
  1 14  1  0  0  0  0
  1  4  1  0  0  0  0
  2  8  1  0  0  0  0
  2  9  1  0  0  0  0
  3  7  1  0  0  0  0
  4 15  1  0  0  0  0
  4 28  1  0  0  0  0
  5 22  2  0  0  0  0
  5 12  1  0  0  0  0
  6  7  2  0  0  0  0
  7  5  1  0  0  0  0
  8 17  1  0  0  0  0
  9 29  1  0  0  0  0
 10 18  1  0  0  0  0
 10 11  1  0  0  0  0
 11  2  1  0  0  0  0
 11 20  1  0  0  0  0
 12 23  2  0  0  0  0
 13 24  1  0  0  0  0
 13 27  2  0  0  0  0
 14 19  1  0  0  0  0
 17 16  1  0  0  0  0
 17 25  1  0  0  0  0
 18 21  1  0  0  0  0
 19 15  1  0  0  0  0
 20  3  1  0  0  0  0
 21 20  1  0  0  0  0
 22 13  1  0  0  0  0
 23 27  1  0  0  0  0
 25  1  1  0  0  0  0
 26  9  1  0  0  0  0
 28 24  1  0  0  0  0
 29 25  1  0  0  0  0
 30 14  1  0  0  0  0
 31 32  1  0  0  0  0
 31 30  1  0  0  0  0
 32 35  1  0  0  0  0
 35 33  2  0  0  0  0
 35 34  1  0  0  0  0
 36 37  1  0  0  0  0
 36 18  1  0  0  0  0
 38 37  1  0  0  0  0
M  END
>  <MODEL>
7

>  <REMARK>
 VINA RESULT:      -3.5      3.567      7.985
  Name = 
  6 active torsions:
  status: ('A' for Active; 'I' for Inactive)
    1  A    between atoms: C_11  and  C_19
    2  A    between atoms: C_11  and  N_25
    3  A    between atoms: S_14  and  C_33
    4  A    between atoms: C_17  and  N_25
    5  A    between atoms: C_19  and  C_27
    6  A    between atoms: C_23  and  C_33
                            x       y       z     vdW  Elec       q    Type
                         _______ _______ _______ _____ _____    ______ ____

>  <TORSDO>
F 6

$$$$
=
 OpenBabel10222416273D

 38 42  0  0  1  0  0  0  0  0999 V2000
  188.1660  176.0690  137.9350 C   0  0  2  0  0  3  0  0  0  0  0  0
  184.9230  177.1250  135.4990 C   0  0  2  0  0  3  0  0  0  0  0  0
  183.4580  178.3430  138.0770 N   0  0  0  0  0  2  0  0  0  0  0  0
  188.4120  177.4630  138.4670 C   0  0  2  0  0  3  0  0  0  0  0  0
  184.2970  178.1650  140.4180 C   0  0  0  0  0  0  0  0  0  0  0  0
  182.1040  177.5110  139.7870 O   0  0  0  0  0  0  0  0  0  0  0  0
  183.2130  178.0020  139.4410 C   0  0  0  0  0  0  0  0  0  0  0  0
  184.9280  175.8810  136.1900 O   0  0  0  0  0  0  0  0  0  0  0  0
  186.1770  177.9940  135.6880 C   0  0  2  0  0  3  0  0  0  0  0  0
  182.7470  177.7220  134.6340 O   0  0  0  0  0  0  0  0  0  0  0  0
  183.6310  177.9260  135.7010 C   0  0  1  0  0  3  0  0  0  0  0  0
  184.0810  177.9990  141.7920 C   0  0  0  0  0  3  0  0  0  0  0  0
  186.6480  178.4770  140.8570 C   0  0  0  0  0  0  0  0  0  0  0  0
  189.5610  175.6300  137.5260 C   0  0  2  0  0  3  0  0  0  0  0  0
  189.7750  177.8300  137.8910 C   0  0  0  0  0  2  0  0  0  0  0  0
  185.6000  174.6690  138.1250 C   0  0  0  0  0  1  0  0  0  0  0  0
  185.8130  175.9230  137.2900 C   0  0  1  0  0  3  0  0  0  0  0  0
  181.4710  178.0390  135.1410 C   0  0  2  0  0  3  0  0  0  0  0  0
  190.2690  176.7680  137.1110 O   0  0  0  0  0  0  0  0  0  0  0  0
  182.8950  177.5910  136.9730 C   0  0  2  0  0  3  0  0  0  0  0  0
  181.5010  178.0330  136.6610 C   0  0  0  0  0  2  0  0  0  0  0  0
  185.5900  178.4030  139.9550 C   0  0  0  0  0  3  0  0  0  0  0  0
  185.1660  178.0850  142.6700 C   0  0  0  0  0  3  0  0  0  0  0  0
  188.0330  178.6370  140.3360 C   0  0  0  0  0  2  0  0  0  0  0  0
  187.2060  176.0030  136.8080 N   0  0  1  0  0  0  0  0  0  0  0  0
  186.3400  178.8420  134.5930 O   0  0  0  0  0  1  0  0  0  0  0  0
  186.4190  178.3120  142.1880 N   0  0  0  0  0  0  0  0  0  0  0  0
  188.5070  177.4070  139.8640 O   0  0  0  0  0  0  0  0  0  0  0  0
  187.3990  177.0880  135.8230 C   0  0  0  0  0  2  0  0  0  0  0  0
  189.5350  174.6280  136.4680 N   0  0  0  0  0  2  0  0  0  0  0  0
  190.6550  174.8990  135.5830 C   0  0  0  0  0  2  0  0  0  0  0  0
  191.7380  173.8550  135.7920 C   0  0  0  0  0  2  0  0  0  0  0  0
  193.0620  174.4840  137.8050 O   0  0  0  0  0  1  0  0  0  0  0  0
  193.8300  174.9870  135.7050 O   0  0  0  0  0  0  0  0  0  0  0  0
  192.9280  174.4840  136.4230 C   0  0  0  0  0  0  0  0  0  0  0  0
  180.4220  177.0720  134.6020 C   0  0  0  0  0  2  0  0  0  0  0  0
  179.3540  176.4120  135.9240 S   0  0  0  0  0  0  0  0  0  0  0  0
  179.0990  174.8530  135.0330 C   0  0  0  0  0  1  0  0  0  0  0  0
  1  4  1  0  0  0  0
  2  9  1  0  0  0  0
  2 11  1  0  0  0  0
  2  8  1  0  0  0  0
  3  7  1  0  0  0  0
  4 28  1  0  0  0  0
  5 12  1  0  0  0  0
  7  6  2  0  0  0  0
  7  5  1  0  0  0  0
  8 17  1  0  0  0  0
  9 29  1  0  0  0  0
 10 18  1  0  0  0  0
 10 11  1  0  0  0  0
 11 20  1  0  0  0  0
 12 23  2  0  0  0  0
 13 27  2  0  0  0  0
 14  1  1  0  0  0  0
 15  4  1  0  0  0  0
 17 16  1  0  0  0  0
 18 21  1  0  0  0  0
 19 14  1  0  0  0  0
 19 15  1  0  0  0  0
 20  3  1  0  0  0  0
 21 20  1  0  0  0  0
 22  5  2  0  0  0  0
 22 13  1  0  0  0  0
 24 13  1  0  0  0  0
 25 17  1  0  0  0  0
 25  1  1  0  0  0  0
 26  9  1  0  0  0  0
 27 23  1  0  0  0  0
 28 24  1  0  0  0  0
 29 25  1  0  0  0  0
 30 14  1  0  0  0  0
 31 32  1  0  0  0  0
 31 30  1  0  0  0  0
 32 35  1  0  0  0  0
 34 35  2  0  0  0  0
 35 33  1  0  0  0  0
 36 18  1  0  0  0  0
 36 37  1  0  0  0  0
 38 37  1  0  0  0  0
M  END
>  <MODEL>
8

>  <REMARK>
 VINA RESULT:      -3.4      4.898      8.167
  Name = 
  6 active torsions:
  status: ('A' for Active; 'I' for Inactive)
    1  A    between atoms: C_11  and  C_19
    2  A    between atoms: C_11  and  N_25
    3  A    between atoms: S_14  and  C_33
    4  A    between atoms: C_17  and  N_25
    5  A    between atoms: C_19  and  C_27
    6  A    between atoms: C_23  and  C_33
                            x       y       z     vdW  Elec       q    Type
                         _______ _______ _______ _____ _____    ______ ____

>  <TORSDO>
F 6

$$$$
=
 OpenBabel10222416273D

 38 42  0  0  1  0  0  0  0  0999 V2000
  187.4740  177.1800  145.3980 C   0  0  2  0  0  3  0  0  0  0  0  0
  190.7030  177.4890  142.7430 C   0  0  2  0  0  3  0  0  0  0  0  0
  188.6520  178.3780  140.4450 N   0  0  0  0  0  2  0  0  0  0  0  0
  186.9860  178.5980  145.2040 C   0  0  2  0  0  3  0  0  0  0  0  0
  186.1690  178.4030  140.6720 C   0  0  0  0  0  0  0  0  0  0  0  0
  187.2850  177.2840  138.9010 O   0  0  0  0  0  0  0  0  0  0  0  0
  187.3730  178.0010  139.9350 C   0  0  0  0  0  0  0  0  0  0  0  0
  189.9560  176.2800  142.8290 O   0  0  0  0  0  0  0  0  0  0  0  0
  190.2620  178.6110  143.6970 C   0  0  2  0  0  3  0  0  0  0  0  0
  192.1180  177.5920  140.7870 O   0  0  0  0  0  0  0  0  0  0  0  0
  190.8800  177.9910  141.3050 C   0  0  1  0  0  3  0  0  0  0  0  0
  184.8850  178.2040  140.1500 C   0  0  0  0  0  3  0  0  0  0  0  0
  185.1800  179.2210  142.7140 C   0  0  0  0  0  0  0  0  0  0  0  0
  187.4940  177.0510  146.9110 C   0  0  2  0  0  3  0  0  0  0  0  0
  187.2260  179.2480  146.5610 C   0  0  0  0  0  2  0  0  0  0  0  0
  187.8430  175.2570  143.2190 C   0  0  0  0  0  1  0  0  0  0  0  0
  188.6750  176.5220  143.3730 C   0  0  1  0  0  3  0  0  0  0  0  0
  191.9660  177.6280  139.3860 C   0  0  2  0  0  3  0  0  0  0  0  0
  187.7900  178.3130  147.4490 O   0  0  0  0  0  0  0  0  0  0  0  0
  189.8120  177.5130  140.3530 C   0  0  2  0  0  3  0  0  0  0  0  0
  190.4890  177.6390  139.0260 C   0  0  0  0  0  2  0  0  0  0  0  0
  186.3100  178.9130  141.9630 C   0  0  0  0  0  3  0  0  0  0  0  0
  183.7720  178.5300  140.9310 C   0  0  0  0  0  3  0  0  0  0  0  0
  185.3480  179.6750  144.1220 C   0  0  0  0  0  2  0  0  0  0  0  0
  188.7980  176.8980  144.7950 N   0  0  1  0  0  0  0  0  0  0  0  0
  191.3320  179.4650  143.9550 O   0  0  0  0  0  1  0  0  0  0  0  0
  183.9400  179.0210  142.1900 N   0  0  0  0  0  0  0  0  0  0  0  0
  185.6090  178.5730  144.9460 O   0  0  0  0  0  0  0  0  0  0  0  0
  189.7710  177.9920  145.0050 C   0  0  0  0  0  2  0  0  0  0  0  0
  188.4610  176.0590  147.3670 N   0  0  0  0  0  2  0  0  0  0  0  0
  189.6890  176.7650  147.6930 C   0  0  0  0  0  2  0  0  0  0  0  0
  190.7900  175.7660  147.9970 C   0  0  0  0  0  2  0  0  0  0  0  0
  193.2630  175.6240  147.7350 O   0  0  0  0  0  1  0  0  0  0  0  0
  192.0400  177.0790  146.4540 O   0  0  0  0  0  0  0  0  0  0  0  0
  192.0590  176.2040  147.3590 C   0  0  0  0  0  0  0  0  0  0  0  0
  192.6880  176.4520  138.7360 C   0  0  0  0  0  2  0  0  0  0  0  0
  191.6420  175.6000  137.5100 S   0  0  0  0  0  0  0  0  0  0  0  0
  192.9670  175.6150  136.2710 C   0  0  0  0  0  1  0  0  0  0  0  0
  1 14  1  0  0  0  0
  2  8  1  0  0  0  0
  2  9  1  0  0  0  0
  4  1  1  0  0  0  0
  4 15  1  0  0  0  0
  5 22  1  0  0  0  0
  6  7  2  0  0  0  0
  7  3  1  0  0  0  0
  7  5  1  0  0  0  0
  8 17  1  0  0  0  0
  9 26  1  0  0  0  0
  9 29  1  0  0  0  0
 10 11  1  0  0  0  0
 11  2  1  0  0  0  0
 12  5  2  0  0  0  0
 12 23  1  0  0  0  0
 13 24  1  0  0  0  0
 14 30  1  0  0  0  0
 14 19  1  0  0  0  0
 15 19  1  0  0  0  0
 16 17  1  0  0  0  0
 17 25  1  0  0  0  0
 18 10  1  0  0  0  0
 20  3  1  0  0  0  0
 20 11  1  0  0  0  0
 21 18  1  0  0  0  0
 21 20  1  0  0  0  0
 22 13  2  0  0  0  0
 23 27  2  0  0  0  0
 24 28  1  0  0  0  0
 25 29  1  0  0  0  0
 25  1  1  0  0  0  0
 27 13  1  0  0  0  0
 28  4  1  0  0  0  0
 30 31  1  0  0  0  0
 31 32  1  0  0  0  0
 34 35  2  0  0  0  0
 35 33  1  0  0  0  0
 35 32  1  0  0  0  0
 36 18  1  0  0  0  0
 37 36  1  0  0  0  0
 38 37  1  0  0  0  0
M  END
>  <MODEL>
9

>  <REMARK>
 VINA RESULT:      -3.2      1.634      2.177
  Name = 
  6 active torsions:
  status: ('A' for Active; 'I' for Inactive)
    1  A    between atoms: C_11  and  C_19
    2  A    between atoms: C_11  and  N_25
    3  A    between atoms: S_14  and  C_33
    4  A    between atoms: C_17  and  N_25
    5  A    between atoms: C_19  and  C_27
    6  A    between atoms: C_23  and  C_33
                            x       y       z     vdW  Elec       q    Type
                         _______ _______ _______ _____ _____    ______ ____

>  <TORSDO>
F 6

$$$$
