=
 OpenBabel10222419323D

 26 29  0  0  1  0  0  0  0  0999 V2000
  188.1570  177.0510  146.4080 C   0  0  1  0  0  3  0  0  0  0  0  0
  186.4460  178.8130  146.5110 C   0  0  0  0  0  3  0  0  0  0  0  0
  186.3800  177.2080  144.5420 C   0  0  1  0  0  3  0  0  0  0  0  0
  187.3190  176.2960  143.8700 N   0  0  0  0  0  0  0  0  0  0  0  0
  189.5860  178.0930  148.5510 N   0  0  0  0  0  2  0  0  0  0  0  0
  189.1590  177.9430  143.5670 C   0  0  2  0  0  3  0  0  0  0  0  0
  189.2580  175.7330  142.6890 O   0  0  0  0  0  0  0  0  0  0  0  0
  184.1690  178.8810  145.4770 C   0  0  0  0  0  2  0  0  0  0  0  0
  186.9560  177.7550  145.8400 C   0  0  0  0  0  0  0  0  0  0  0  0
  189.4200  177.8470  146.2060 C   0  0  0  0  0  0  0  0  0  0  0  0
  190.3590  176.3970  142.0990 C   0  0  0  0  0  2  0  0  0  0  0  0
  189.9620  178.1180  144.8520 C   0  0  0  0  0  0  0  0  0  0  0  0
  188.2660  177.6690  148.7830 N   0  0  0  0  0  2  0  0  0  0  0  0
  188.5120  176.6060  143.4470 C   0  0  0  0  0  0  0  0  0  0  0  0
  190.1140  177.8860  142.3670 C   0  0  0  0  0  2  0  0  0  0  0  0
  190.0660  178.2900  147.2440 N   0  0  0  0  0  0  0  0  0  0  0  0
  187.9790  176.5800  147.8570 C   0  0  0  0  0  2  0  0  0  0  0  0
  191.1190  178.6190  144.7760 O   0  0  0  0  0  0  0  0  0  0  0  0
  185.8230  178.2960  143.5970 C   0  0  2  0  0  3  0  0  0  0  0  0
  185.3040  179.6900  146.0780 C   0  0  0  0  0  2  0  0  0  0  0  0
  184.3840  178.6850  143.9780 C   0  0  0  0  0  2  0  0  0  0  0  0
  185.9030  177.9230  142.1110 C   0  0  1  0  0  3  0  0  0  0  0  0
  184.6250  177.7670  141.5650 O   0  0  0  0  0  1  0  0  0  0  0  0
  186.6950  178.9650  141.3310 C   0  0  0  0  0  2  0  0  0  0  0  0
  186.7270  178.5830  138.9720 O   0  0  0  0  0  1  0  0  0  0  0  0
  187.4190  178.3300  140.1560 C   0  0  0  0  0  2  0  0  0  0  0  0
  1 17  1  1  0  0  0
  3  4  1  6  0  0  0
  3  9  1  0  0  0  0
  5 13  1  0  0  0  0
  6 15  1  6  0  0  0
  6 12  1  0  0  0  0
  7 14  1  0  0  0  0
  8 20  1  0  0  0  0
  9  1  1  0  0  0  0
  9  2  2  0  0  0  0
 10  1  1  0  0  0  0
 10 16  2  0  0  0  0
 11 15  1  0  0  0  0
 11  7  1  0  0  0  0
 12 10  1  0  0  0  0
 14  6  1  0  0  0  0
 14  4  2  0  0  0  0
 16  5  1  0  0  0  0
 17 13  1  0  0  0  0
 18 12  2  0  0  0  0
 19 22  1  6  0  0  0
 19 21  1  0  0  0  0
 19  3  1  0  0  0  0
 20  2  1  0  0  0  0
 21  8  1  0  0  0  0
 22 23  1  6  0  0  0
 24 22  1  0  0  0  0
 25 26  1  0  0  0  0
 26 24  1  0  0  0  0
M  END
>  <MODEL>
1

>  <REMARK>
 VINA RESULT:      -7.6      0.000      0.000
  Name = 
  3 active torsions:
  status: ('A' for Active; 'I' for Inactive)
    1  A    between atoms: C_3  and  C_14
    2  A    between atoms: C_3  and  C_24
    3  A    between atoms: C_14  and  C_23
                            x       y       z     vdW  Elec       q    Type
                         _______ _______ _______ _____ _____    ______ ____

>  <TORSDO>
F 3

$$$$
=
 OpenBabel10222419323D

 26 29  0  0  1  0  0  0  0  0999 V2000
  189.3750  176.7770  145.6980 C   0  0  1  0  0  3  0  0  0  0  0  0
  187.8820  178.3570  146.8440 C   0  0  0  0  0  3  0  0  0  0  0  0
  186.9590  177.0920  144.8440 C   0  0  1  0  0  3  0  0  0  0  0  0
  187.5080  176.3780  143.6800 N   0  0  0  0  0  0  0  0  0  0  0  0
  191.5990  177.5690  147.1630 N   0  0  0  0  0  2  0  0  0  0  0  0
  189.0280  178.1940  142.9150 C   0  0  2  0  0  3  0  0  0  0  0  0
  188.7340  176.1700  141.6980 O   0  0  0  0  0  0  0  0  0  0  0  0
  185.3820  178.4100  146.9250 C   0  0  0  0  0  2  0  0  0  0  0  0
  188.0460  177.4660  145.8410 C   0  0  0  0  0  0  0  0  0  0  0  0
  190.4210  177.6920  145.1180 C   0  0  0  0  0  0  0  0  0  0  0  0
  189.4630  177.0050  140.8210 C   0  0  0  0  0  2  0  0  0  0  0  0
  190.3130  178.2220  143.7360 C   0  0  0  0  0  0  0  0  0  0  0  0
  190.5140  177.0090  147.8610 N   0  0  0  0  0  2  0  0  0  0  0  0
  188.3950  176.8470  142.8480 C   0  0  0  0  0  0  0  0  0  0  0  0
  189.3600  178.4070  141.4330 C   0  0  0  0  0  2  0  0  0  0  0  0
  191.4570  178.0120  145.8370 N   0  0  0  0  0  0  0  0  0  0  0  0
  189.8500  176.0650  146.9710 C   0  0  0  0  0  2  0  0  0  0  0  0
  191.3200  178.8180  143.2600 O   0  0  0  0  0  0  0  0  0  0  0  0
  186.0440  178.2710  144.4450 C   0  0  2  0  0  3  0  0  0  0  0  0
  186.6650  179.1990  147.1130 C   0  0  0  0  0  2  0  0  0  0  0  0
  184.9170  178.4770  145.4720 C   0  0  0  0  0  2  0  0  0  0  0  0
  185.4640  178.1510  143.0300 C   0  0  1  0  0  3  0  0  0  0  0  0
  184.0720  178.0180  143.0680 O   0  0  0  0  0  1  0  0  0  0  0  0
  185.8640  179.3470  142.1750 C   0  0  0  0  0  2  0  0  0  0  0  0
  184.8440  179.7110  140.0440 O   0  0  0  0  0  1  0  0  0  0  0  0
  185.8430  178.9900  140.6980 C   0  0  0  0  0  2  0  0  0  0  0  0
  1  9  1  0  0  0  0
  1 17  1  1  0  0  0
  2 20  1  0  0  0  0
  3  4  1  6  0  0  0
  3  9  1  0  0  0  0
  5 13  1  0  0  0  0
  6 15  1  6  0  0  0
  6 12  1  0  0  0  0
  7 14  1  0  0  0  0
  8 20  1  0  0  0  0
  9  2  2  0  0  0  0
 10  1  1  0  0  0  0
 10 16  2  0  0  0  0
 11 15  1  0  0  0  0
 11  7  1  0  0  0  0
 12 10  1  0  0  0  0
 14  6  1  0  0  0  0
 14  4  2  0  0  0  0
 16  5  1  0  0  0  0
 17 13  1  0  0  0  0
 18 12  2  0  0  0  0
 19 22  1  6  0  0  0
 19  3  1  0  0  0  0
 19 21  1  0  0  0  0
 21  8  1  0  0  0  0
 22 23  1  1  0  0  0
 24 22  1  0  0  0  0
 25 26  1  0  0  0  0
 26 24  1  0  0  0  0
M  END
>  <MODEL>
2

>  <REMARK>
 VINA RESULT:      -7.4      1.368      1.581
  Name = 
  3 active torsions:
  status: ('A' for Active; 'I' for Inactive)
    1  A    between atoms: C_3  and  C_14
    2  A    between atoms: C_3  and  C_24
    3  A    between atoms: C_14  and  C_23
                            x       y       z     vdW  Elec       q    Type
                         _______ _______ _______ _____ _____    ______ ____

>  <TORSDO>
F 3

$$$$
=
 OpenBabel10222419323D

 26 29  0  0  1  0  0  0  0  0999 V2000
  188.8630  176.5600  143.1970 C   0  0  1  0  0  3  0  0  0  0  0  0
  189.5620  177.6050  145.3100 C   0  0  0  0  0  3  0  0  0  0  0  0
  187.1050  177.0230  145.0300 C   0  0  1  0  0  3  0  0  0  0  0  0
  186.1860  176.7580  143.9120 N   0  0  0  0  0  0  0  0  0  0  0  0
  191.3460  176.9320  142.0070 N   0  0  0  0  0  2  0  0  0  0  0  0
  186.7370  178.7940  142.5920 C   0  0  2  0  0  3  0  0  0  0  0  0
  185.0280  177.2690  141.9450 O   0  0  0  0  0  0  0  0  0  0  0  0
  188.4830  177.5090  147.5640 C   0  0  0  0  0  2  0  0  0  0  0  0
  188.5520  177.1010  144.5650 C   0  0  0  0  0  0  0  0  0  0  0  0
  189.1070  177.6640  142.2020 C   0  0  0  0  0  0  0  0  0  0  0  0
  184.8530  178.3800  141.0870 C   0  0  0  0  0  2  0  0  0  0  0  0
  188.0350  178.6120  141.8110 C   0  0  0  0  0  0  0  0  0  0  0  0
  191.2790  176.1230  143.1550 N   0  0  0  0  0  2  0  0  0  0  0  0
  186.0230  177.5150  142.8640 C   0  0  0  0  0  0  0  0  0  0  0  0
  185.6990  179.4970  141.7090 C   0  0  0  0  0  2  0  0  0  0  0  0
  190.2810  177.7790  141.6530 N   0  0  0  0  0  0  0  0  0  0  0  0
  189.9650  175.4940  143.1820 C   0  0  0  0  0  2  0  0  0  0  0  0
  188.2620  179.3780  140.8330 O   0  0  0  0  0  0  0  0  0  0  0  0
  186.6610  178.2230  145.8970 C   0  0  2  0  0  3  0  0  0  0  0  0
  189.4510  178.2530  146.6620 C   0  0  0  0  0  2  0  0  0  0  0  0
  187.0600  178.0280  147.3690 C   0  0  0  0  0  2  0  0  0  0  0  0
  185.1660  178.5470  145.7840 C   0  0  1  0  0  3  0  0  0  0  0  0
  184.5550  178.5370  147.0420 O   0  0  0  0  0  1  0  0  0  0  0  0
  184.9510  179.8880  145.0950 C   0  0  0  0  0  2  0  0  0  0  0  0
  183.0760  178.6280  144.3130 O   0  0  0  0  0  1  0  0  0  0  0  0
  183.6290  179.9080  144.3450 C   0  0  0  0  0  2  0  0  0  0  0  0
  1 17  1  1  0  0  0
  1  9  1  0  0  0  0
  2 20  1  0  0  0  0
  3  4  1  6  0  0  0
  3 19  1  0  0  0  0
  5 13  1  0  0  0  0
  6 15  1  6  0  0  0
  6 14  1  0  0  0  0
  7 14  1  0  0  0  0
  9  3  1  0  0  0  0
  9  2  2  0  0  0  0
 10  1  1  0  0  0  0
 11 15  1  0  0  0  0
 11  7  1  0  0  0  0
 12 10  1  0  0  0  0
 12  6  1  0  0  0  0
 13 17  1  0  0  0  0
 14  4  2  0  0  0  0
 16  5  1  0  0  0  0
 16 10  2  0  0  0  0
 18 12  2  0  0  0  0
 19 22  1  1  0  0  0
 19 21  1  0  0  0  0
 20  8  1  0  0  0  0
 21  8  1  0  0  0  0
 22 23  1  1  0  0  0
 24 22  1  0  0  0  0
 25 26  1  0  0  0  0
 26 24  1  0  0  0  0
M  END
>  <MODEL>
3

>  <REMARK>
 VINA RESULT:      -5.7      2.476      4.538
  Name = 
  3 active torsions:
  status: ('A' for Active; 'I' for Inactive)
    1  A    between atoms: C_3  and  C_14
    2  A    between atoms: C_3  and  C_24
    3  A    between atoms: C_14  and  C_23
                            x       y       z     vdW  Elec       q    Type
                         _______ _______ _______ _____ _____    ______ ____

>  <TORSDO>
F 3

$$$$
=
 OpenBabel10222419323D

 26 29  0  0  1  0  0  0  0  0999 V2000
  184.7420  179.3770  143.1140 C   0  0  1  0  0  3  0  0  0  0  0  0
  186.3540  177.6700  143.8400 C   0  0  0  0  0  3  0  0  0  0  0  0
  186.8750  178.9690  141.7190 C   0  0  1  0  0  3  0  0  0  0  0  0
  186.1220  179.7610  140.7340 N   0  0  0  0  0  0  0  0  0  0  0  0
  182.8640  178.6450  145.0270 N   0  0  0  0  0  2  0  0  0  0  0  0
  184.3570  178.0650  140.2850 C   0  0  2  0  0  3  0  0  0  0  0  0
  184.4930  180.1210  139.0940 O   0  0  0  0  0  0  0  0  0  0  0  0
  188.7980  177.4780  143.3430 C   0  0  0  0  0  2  0  0  0  0  0  0
  186.0220  178.6120  142.9280 C   0  0  0  0  0  0  0  0  0  0  0  0
  183.5360  178.5460  142.7630 C   0  0  0  0  0  0  0  0  0  0  0  0
  183.5330  179.3650  138.3830 C   0  0  0  0  0  2  0  0  0  0  0  0
  183.2930  178.0720  141.3790 C   0  0  0  0  0  0  0  0  0  0  0  0
  184.1120  179.1150  145.4730 N   0  0  0  0  0  2  0  0  0  0  0  0
  185.0420  179.3780  140.1140 C   0  0  0  0  0  0  0  0  0  0  0  0
  183.6840  177.9340  138.9130 C   0  0  0  0  0  2  0  0  0  0  0  0
  182.6730  178.2530  143.6910 N   0  0  0  0  0  0  0  0  0  0  0  0
  184.6140  180.0590  144.4830 C   0  0  0  0  0  2  0  0  0  0  0  0
  182.1690  177.5520  141.1290 O   0  0  0  0  0  0  0  0  0  0  0  0
  187.6000  177.7600  141.0860 C   0  0  2  0  0  3  0  0  0  0  0  0
  187.5450  176.7530  143.7970 C   0  0  0  0  0  2  0  0  0  0  0  0
  188.9150  177.4480  141.8210 C   0  0  0  0  0  2  0  0  0  0  0  0
  187.8490  177.9090  139.5800 C   0  0  1  0  0  3  0  0  0  0  0  0
  188.6810  179.0020  139.3160 O   0  0  0  0  0  1  0  0  0  0  0  0
  188.4420  176.6320  138.9980 C   0  0  0  0  0  2  0  0  0  0  0  0
  190.7470  176.0030  139.0930 O   0  0  0  0  0  1  0  0  0  0  0  0
  189.8490  176.8750  138.4770 C   0  0  0  0  0  2  0  0  0  0  0  0
  1 17  1  1  0  0  0
  3  4  1  6  0  0  0
  3  9  1  0  0  0  0
  5 13  1  0  0  0  0
  6 15  1  6  0  0  0
  6 12  1  0  0  0  0
  7 14  1  0  0  0  0
  8 20  1  0  0  0  0
  9  1  1  0  0  0  0
  9  2  2  0  0  0  0
 10  1  1  0  0  0  0
 10 16  2  0  0  0  0
 11 15  1  0  0  0  0
 11  7  1  0  0  0  0
 12 10  1  0  0  0  0
 14  6  1  0  0  0  0
 14  4  2  0  0  0  0
 16  5  1  0  0  0  0
 17 13  1  0  0  0  0
 18 12  2  0  0  0  0
 19 22  1  6  0  0  0
 19  3  1  0  0  0  0
 19 21  1  0  0  0  0
 20  2  1  0  0  0  0
 21  8  1  0  0  0  0
 22 23  1  1  0  0  0
 24 22  1  0  0  0  0
 26 24  1  0  0  0  0
 26 25  1  0  0  0  0
M  END
>  <MODEL>
4

>  <REMARK>
 VINA RESULT:      -5.5      3.155      5.803
  Name = 
  3 active torsions:
  status: ('A' for Active; 'I' for Inactive)
    1  A    between atoms: C_3  and  C_14
    2  A    between atoms: C_3  and  C_24
    3  A    between atoms: C_14  and  C_23
                            x       y       z     vdW  Elec       q    Type
                         _______ _______ _______ _____ _____    ______ ____

>  <TORSDO>
F 3

$$$$
=
 OpenBabel10222419323D

 26 29  0  0  1  0  0  0  0  0999 V2000
  180.9380  179.1060  141.2460 C   0  0  1  0  0  3  0  0  0  0  0  0
  183.0060  178.5070  142.4310 C   0  0  0  0  0  3  0  0  0  0  0  0
  183.2040  179.2970  140.0240 C   0  0  1  0  0  3  0  0  0  0  0  0
  182.3180  179.4020  138.8540 N   0  0  0  0  0  0  0  0  0  0  0  0
  179.3060  178.1730  143.2930 N   0  0  0  0  0  2  0  0  0  0  0  0
  181.4710  177.0630  138.9190 C   0  0  2  0  0  3  0  0  0  0  0  0
  180.8980  178.5870  137.1830 O   0  0  0  0  0  0  0  0  0  0  0  0
  185.3550  179.2540  142.0070 C   0  0  0  0  0  2  0  0  0  0  0  0
  182.4310  178.9410  141.2870 C   0  0  0  0  0  0  0  0  0  0  0  0
  180.2300  177.7800  141.1530 C   0  0  0  0  0  0  0  0  0  0  0  0
  180.4250  177.3360  136.7240 C   0  0  0  0  0  2  0  0  0  0  0  0
  180.3730  176.9020  139.9660 C   0  0  0  0  0  0  0  0  0  0  0  0
  180.1880  179.2300  143.5810 N   0  0  0  0  0  2  0  0  0  0  0  0
  181.5740  178.4460  138.3740 C   0  0  0  0  0  0  0  0  0  0  0  0
  181.0830  176.3020  137.6450 C   0  0  0  0  0  2  0  0  0  0  0  0
  179.4560  177.4010  142.1280 N   0  0  0  0  0  0  0  0  0  0  0  0
  180.3760  180.0000  142.3590 C   0  0  0  0  0  2  0  0  0  0  0  0
  179.6000  175.9070  139.8790 O   0  0  0  0  0  0  0  0  0  0  0  0
  184.4310  178.3930  139.7670 C   0  0  2  0  0  3  0  0  0  0  0  0
  184.4630  178.2110  142.6540 C   0  0  0  0  0  2  0  0  0  0  0  0
  185.6580  178.8780  140.5580 C   0  0  0  0  0  2  0  0  0  0  0  0
  184.7790  178.2330  138.2820 C   0  0  1  0  0  3  0  0  0  0  0  0
  185.9900  178.8650  137.9800 O   0  0  0  0  0  1  0  0  0  0  0  0
  184.8310  176.7620  137.8910 C   0  0  0  0  0  2  0  0  0  0  0  0
  183.8510  177.3910  135.8040 O   0  0  0  0  0  1  0  0  0  0  0  0
  184.8450  176.6000  136.3800 C   0  0  0  0  0  2  0  0  0  0  0  0
  1  9  1  0  0  0  0
  1 17  1  1  0  0  0
  2 20  1  0  0  0  0
  3  4  1  6  0  0  0
  3  9  1  0  0  0  0
  5 13  1  0  0  0  0
  6 15  1  6  0  0  0
  6 12  1  0  0  0  0
  7 14  1  0  0  0  0
  8 20  1  0  0  0  0
  9  2  2  0  0  0  0
 10  1  1  0  0  0  0
 10 16  2  0  0  0  0
 11  7  1  0  0  0  0
 11 15  1  0  0  0  0
 12 10  1  0  0  0  0
 14  4  2  0  0  0  0
 14  6  1  0  0  0  0
 16  5  1  0  0  0  0
 17 13  1  0  0  0  0
 18 12  2  0  0  0  0
 19 22  1  6  0  0  0
 19  3  1  0  0  0  0
 19 21  1  0  0  0  0
 21  8  1  0  0  0  0
 22 23  1  1  0  0  0
 24 22  1  0  0  0  0
 25 26  1  0  0  0  0
 26 24  1  0  0  0  0
M  END
>  <MODEL>
5

>  <REMARK>
 VINA RESULT:      -5.5      5.625      8.235
  Name = 
  3 active torsions:
  status: ('A' for Active; 'I' for Inactive)
    1  A    between atoms: C_3  and  C_14
    2  A    between atoms: C_3  and  C_24
    3  A    between atoms: C_14  and  C_23
                            x       y       z     vdW  Elec       q    Type
                         _______ _______ _______ _____ _____    ______ ____

>  <TORSDO>
F 3

$$$$
=
 OpenBabel10222419323D

 26 29  0  0  1  0  0  0  0  0999 V2000
  188.7360  177.1750  141.5320 C   0  0  1  0  0  3  0  0  0  0  0  0
  190.5860  178.0410  142.9000 C   0  0  0  0  0  3  0  0  0  0  0  0
  188.6830  176.8550  144.0930 C   0  0  1  0  0  3  0  0  0  0  0  0
  187.2790  176.5180  143.8040 N   0  0  0  0  0  0  0  0  0  0  0  0
  189.6700  178.3910  139.2150 N   0  0  0  0  0  2  0  0  0  0  0  0
  186.5670  178.8020  143.1200 C   0  0  2  0  0  3  0  0  0  0  0  0
  185.0440  176.9820  143.2950 O   0  0  0  0  0  0  0  0  0  0  0  0
  191.3670  177.3140  145.1620 C   0  0  0  0  0  2  0  0  0  0  0  0
  189.3980  177.3960  142.8640 C   0  0  0  0  0  0  0  0  0  0  0  0
  188.1190  178.4400  140.9970 C   0  0  0  0  0  0  0  0  0  0  0  0
  184.2180  178.1180  143.1270 C   0  0  0  0  0  2  0  0  0  0  0  0
  186.9830  179.1040  141.6840 C   0  0  0  0  0  0  0  0  0  0  0  0
  190.4910  177.4310  139.8330 N   0  0  0  0  0  2  0  0  0  0  0  0
  186.3670  177.3500  143.3880 C   0  0  0  0  0  0  0  0  0  0  0  0
  185.1430  179.3180  143.3620 C   0  0  0  0  0  2  0  0  0  0  0  0
  188.5760  178.9550  139.8930 N   0  0  0  0  0  0  0  0  0  0  0  0
  189.6260  176.4680  140.5020 C   0  0  0  0  0  2  0  0  0  0  0  0
  186.3990  180.0420  141.0720 O   0  0  0  0  0  0  0  0  0  0  0  0
  188.8390  177.7420  145.3490 C   0  0  2  0  0  3  0  0  0  0  0  0
  191.3700  178.4220  144.1250 C   0  0  0  0  0  2  0  0  0  0  0  0
  190.1570  177.4440  146.0840 C   0  0  0  0  0  2  0  0  0  0  0  0
  187.6520  177.6540  146.3180 C   0  0  1  0  0  3  0  0  0  0  0  0
  188.0420  177.0930  147.5370 O   0  0  0  0  0  1  0  0  0  0  0  0
  187.0270  179.0260  146.5350 C   0  0  0  0  0  2  0  0  0  0  0  0
  184.6750  178.6250  146.6880 O   0  0  0  0  0  1  0  0  0  0  0  0
  185.8090  178.9310  147.4400 C   0  0  0  0  0  2  0  0  0  0  0  0
  1 17  1  6  0  0  0
  1  9  1  0  0  0  0
  2 20  1  0  0  0  0
  3  9  1  6  0  0  0
  3 19  1  0  0  0  0
  4  3  1  0  0  0  0
  5 13  1  0  0  0  0
  5 16  1  0  0  0  0
  6 15  1  6  0  0  0
  6 14  1  0  0  0  0
  7 14  1  0  0  0  0
  8 21  1  0  0  0  0
  9  2  2  0  0  0  0
 10  1  1  0  0  0  0
 10 12  1  0  0  0  0
 11  7  1  0  0  0  0
 11 15  1  0  0  0  0
 12  6  1  0  0  0  0
 13 17  1  0  0  0  0
 14  4  2  0  0  0  0
 16 10  2  0  0  0  0
 18 12  2  0  0  0  0
 19 21  1  0  0  0  0
 19 22  1  1  0  0  0
 20  8  1  0  0  0  0
 22 24  1  0  0  0  0
 22 23  1  1  0  0  0
 24 26  1  0  0  0  0
 25 26  1  0  0  0  0
M  END
>  <MODEL>
6

>  <REMARK>
 VINA RESULT:      -5.3      2.513      5.930
  Name = 
  3 active torsions:
  status: ('A' for Active; 'I' for Inactive)
    1  A    between atoms: C_3  and  C_14
    2  A    between atoms: C_3  and  C_24
    3  A    between atoms: C_14  and  C_23
                            x       y       z     vdW  Elec       q    Type
                         _______ _______ _______ _____ _____    ______ ____

>  <TORSDO>
F 3

$$$$
=
 OpenBabel10222419323D

 26 29  0  0  1  0  0  0  0  0999 V2000
  185.9900  175.9850  135.8550 C   0  0  1  0  0  3  0  0  0  0  0  0
  184.2010  175.1940  137.3440 C   0  0  0  0  0  3  0  0  0  0  0  0
  184.7800  177.6680  137.3940 C   0  0  1  0  0  3  0  0  0  0  0  0
  185.9260  178.5090  137.0120 N   0  0  0  0  0  0  0  0  0  0  0  0
  186.7090  173.4120  135.0920 N   0  0  0  0  0  2  0  0  0  0  0  0
  187.6640  177.2010  138.2200 C   0  0  2  0  0  3  0  0  0  0  0  0
  188.1460  179.2400  137.0920 O   0  0  0  0  0  0  0  0  0  0  0  0
  182.2920  176.4610  138.3470 C   0  0  0  0  0  2  0  0  0  0  0  0
  184.9440  176.2360  136.9050 C   0  0  0  0  0  0  0  0  0  0  0  0
  187.2030  175.2990  136.4250 C   0  0  0  0  0  0  0  0  0  0  0  0
  189.3190  178.9600  137.8320 C   0  0  0  0  0  2  0  0  0  0  0  0
  188.0730  175.9620  137.4280 C   0  0  0  0  0  0  0  0  0  0  0  0
  185.4080  173.8490  134.7900 N   0  0  0  0  0  2  0  0  0  0  0  0
  187.1650  178.3140  137.3650 C   0  0  0  0  0  0  0  0  0  0  0  0
  188.9100  177.8620  138.8210 C   0  0  0  0  0  2  0  0  0  0  0  0
  187.5120  174.1040  136.0150 N   0  0  0  0  0  0  0  0  0  0  0  0
  185.4560  175.2930  134.5940 C   0  0  0  0  0  2  0  0  0  0  0  0
  189.1710  175.4040  137.7070 O   0  0  0  0  0  0  0  0  0  0  0  0
  184.4300  177.7800  138.8950 C   0  0  2  0  0  3  0  0  0  0  0  0
  183.1630  175.2210  138.4310 C   0  0  0  0  0  2  0  0  0  0  0  0
  182.9180  177.6120  139.1300 C   0  0  0  0  0  2  0  0  0  0  0  0
  184.9350  179.0710  139.5520 C   0  0  1  0  0  3  0  0  0  0  0  0
  184.1490  180.1650  139.1760 O   0  0  0  0  0  1  0  0  0  0  0  0
  184.9690  178.9310  141.0680 C   0  0  0  0  0  2  0  0  0  0  0  0
  186.4250  178.0000  142.7190 O   0  0  0  0  0  1  0  0  0  0  0  0
  186.3960  178.7890  141.5690 C   0  0  0  0  0  2  0  0  0  0  0  0
  1 17  1  6  0  0  0
  1 10  1  0  0  0  0
  1  9  1  0  0  0  0
  2 20  1  0  0  0  0
  3  9  1  1  0  0  0
  3 19  1  0  0  0  0
  4 14  2  0  0  0  0
  4  3  1  0  0  0  0
  5 16  1  0  0  0  0
  6 15  1  6  0  0  0
  7 14  1  0  0  0  0
  7 11  1  0  0  0  0
  8 20  1  0  0  0  0
  8 21  1  0  0  0  0
  9  2  2  0  0  0  0
 10 12  1  0  0  0  0
 11 15  1  0  0  0  0
 12 18  2  0  0  0  0
 12  6  1  0  0  0  0
 13  5  1  0  0  0  0
 14  6  1  0  0  0  0
 16 10  2  0  0  0  0
 17 13  1  0  0  0  0
 19 21  1  0  0  0  0
 19 22  1  6  0  0  0
 22 23  1  1  0  0  0
 22 24  1  0  0  0  0
 24 26  1  0  0  0  0
 26 25  1  0  0  0  0
M  END
>  <MODEL>
7

>  <REMARK>
 VINA RESULT:      -5.3      5.615      8.333
  Name = 
  3 active torsions:
  status: ('A' for Active; 'I' for Inactive)
    1  A    between atoms: C_3  and  C_14
    2  A    between atoms: C_3  and  C_24
    3  A    between atoms: C_14  and  C_23
                            x       y       z     vdW  Elec       q    Type
                         _______ _______ _______ _____ _____    ______ ____

>  <TORSDO>
F 3

$$$$
=
 OpenBabel10222419323D

 26 29  0  0  1  0  0  0  0  0999 V2000
  189.6900  178.3270  142.6930 C   0  0  1  0  0  3  0  0  0  0  0  0
  190.4500  176.7310  140.9850 C   0  0  0  0  0  3  0  0  0  0  0  0
  188.8750  178.5870  140.2570 C   0  0  1  0  0  3  0  0  0  0  0  0
  187.9120  179.4930  140.9050 N   0  0  0  0  0  0  0  0  0  0  0  0
  190.8200  176.8780  144.7770 N   0  0  0  0  0  2  0  0  0  0  0  0
  186.6530  177.7400  142.1440 C   0  0  2  0  0  3  0  0  0  0  0  0
  186.0050  180.0310  142.1480 O   0  0  0  0  0  0  0  0  0  0  0  0
  190.6080  177.0120  138.5040 C   0  0  0  0  0  2  0  0  0  0  0  0
  189.7020  177.8190  141.2780 C   0  0  0  0  0  0  0  0  0  0  0  0
  188.8570  177.4540  143.5940 C   0  0  0  0  0  0  0  0  0  0  0  0
  184.9170  179.3560  142.7480 C   0  0  0  0  0  2  0  0  0  0  0  0
  187.3910  177.3200  143.4110 C   0  0  0  0  0  0  0  0  0  0  0  0
  191.6780  177.3870  143.7860 N   0  0  0  0  0  2  0  0  0  0  0  0
  186.9560  179.1340  141.7140 C   0  0  0  0  0  0  0  0  0  0  0  0
  185.1540  177.8720  142.4420 C   0  0  0  0  0  2  0  0  0  0  0  0
  189.4310  176.8170  144.5720 N   0  0  0  0  0  0  0  0  0  0  0  0
  191.0840  178.6120  143.2670 C   0  0  0  0  0  2  0  0  0  0  0  0
  186.7410  176.7310  144.3200 O   0  0  0  0  0  0  0  0  0  0  0  0
  188.2230  177.6920  139.1800 C   0  0  2  0  0  3  0  0  0  0  0  0
  190.5400  176.0280  139.6580 C   0  0  0  0  0  2  0  0  0  0  0  0
  189.2050  177.3880  138.0350 C   0  0  0  0  0  2  0  0  0  0  0  0
  186.9080  178.2540  138.6240 C   0  0  1  0  0  3  0  0  0  0  0  0
  187.1350  179.0140  137.4720 O   0  0  0  0  0  1  0  0  0  0  0  0
  185.9160  177.1330  138.3390 C   0  0  0  0  0  2  0  0  0  0  0  0
  184.3460  178.7420  139.1520 O   0  0  0  0  0  1  0  0  0  0  0  0
  184.4950  177.6690  138.2740 C   0  0  0  0  0  2  0  0  0  0  0  0
  1 17  1  1  0  0  0
  1 10  1  0  0  0  0
  2  9  2  0  0  0  0
  3  4  1  1  0  0  0
  3  9  1  0  0  0  0
  4 14  2  0  0  0  0
  6 15  1  1  0  0  0
  6 12  1  0  0  0  0
  7 11  1  0  0  0  0
  8 20  1  0  0  0  0
  9  1  1  0  0  0  0
 10 16  2  0  0  0  0
 12 10  1  0  0  0  0
 12 18  2  0  0  0  0
 13  5  1  0  0  0  0
 14  6  1  0  0  0  0
 14  7  1  0  0  0  0
 15 11  1  0  0  0  0
 16  5  1  0  0  0  0
 17 13  1  0  0  0  0
 19 22  1  6  0  0  0
 19  3  1  0  0  0  0
 20  2  1  0  0  0  0
 21  8  1  0  0  0  0
 21 19  1  0  0  0  0
 22 23  1  6  0  0  0
 24 22  1  0  0  0  0
 26 24  1  0  0  0  0
 26 25  1  0  0  0  0
M  END
>  <MODEL>
8

>  <REMARK>
 VINA RESULT:      -5.2      2.654      5.278
  Name = 
  3 active torsions:
  status: ('A' for Active; 'I' for Inactive)
    1  A    between atoms: C_3  and  C_14
    2  A    between atoms: C_3  and  C_24
    3  A    between atoms: C_14  and  C_23
                            x       y       z     vdW  Elec       q    Type
                         _______ _______ _______ _____ _____    ______ ____

>  <TORSDO>
F 3

$$$$
=
 OpenBabel10222419323D

 26 29  0  0  1  0  0  0  0  0999 V2000
  185.3480  177.5030  136.6790 C   0  0  1  0  0  3  0  0  0  0  0  0
  185.4670  175.1080  137.2190 C   0  0  0  0  0  3  0  0  0  0  0  0
  183.1760  176.1100  136.7650 C   0  0  1  0  0  3  0  0  0  0  0  0
  182.5720  177.4520  136.7710 N   0  0  0  0  0  0  0  0  0  0  0  0
  188.0340  177.9280  137.2500 N   0  0  0  0  0  2  0  0  0  0  0  0
  183.3620  178.1160  139.0350 C   0  0  2  0  0  3  0  0  0  0  0  0
  181.9190  179.4840  137.7270 O   0  0  0  0  0  0  0  0  0  0  0  0
  183.8680  173.2690  136.6540 C   0  0  0  0  0  2  0  0  0  0  0  0
  184.6900  176.1710  136.9120 C   0  0  0  0  0  0  0  0  0  0  0  0
  185.7930  178.1410  137.9680 C   0  0  0  0  0  0  0  0  0  0  0  0
  181.9240  180.0950  139.0030 C   0  0  0  0  0  2  0  0  0  0  0  0
  184.8180  178.5710  139.0010 C   0  0  0  0  0  0  0  0  0  0  0  0
  187.7130  177.0370  136.2100 N   0  0  0  0  0  2  0  0  0  0  0  0
  182.6470  178.3160  137.7430 C   0  0  0  0  0  0  0  0  0  0  0  0
  182.5510  179.0550  139.9380 C   0  0  0  0  0  2  0  0  0  0  0  0
  187.0610  178.3420  138.1760 N   0  0  0  0  0  0  0  0  0  0  0  0
  186.4560  177.4760  135.6180 C   0  0  0  0  0  2  0  0  0  0  0  0
  185.2530  179.2700  139.9590 O   0  0  0  0  0  0  0  0  0  0  0  0
  182.4910  175.1410  137.7550 C   0  0  2  0  0  3  0  0  0  0  0  0
  185.0020  173.7180  137.5560 C   0  0  0  0  0  2  0  0  0  0  0  0
  182.5200  173.6940  137.2320 C   0  0  0  0  0  2  0  0  0  0  0  0
  181.0600  175.5480  138.1270 C   0  0  1  0  0  3  0  0  0  0  0  0
  180.1230  174.7910  137.4170 O   0  0  0  0  0  1  0  0  0  0  0  0
  180.8300  175.4150  139.6270 C   0  0  0  0  0  2  0  0  0  0  0  0
  179.3050  176.0820  141.3440 O   0  0  0  0  0  1  0  0  0  0  0  0
  179.8580  176.4720  140.1240 C   0  0  0  0  0  2  0  0  0  0  0  0
  1 17  1  6  0  0  0
  1  9  1  0  0  0  0
  1 10  1  0  0  0  0
  2 20  1  0  0  0  0
  3  4  1  1  0  0  0
  3  9  1  0  0  0  0
  3 19  1  0  0  0  0
  4 14  2  0  0  0  0
  5 16  1  0  0  0  0
  6 15  1  1  0  0  0
  7 14  1  0  0  0  0
  7 11  1  0  0  0  0
  8 21  1  0  0  0  0
  8 20  1  0  0  0  0
  9  2  2  0  0  0  0
 10 16  2  0  0  0  0
 10 12  1  0  0  0  0
 11 15  1  0  0  0  0
 12  6  1  0  0  0  0
 12 18  2  0  0  0  0
 13  5  1  0  0  0  0
 14  6  1  0  0  0  0
 17 13  1  0  0  0  0
 19 22  1  6  0  0  0
 21 19  1  0  0  0  0
 22 23  1  6  0  0  0
 22 24  1  0  0  0  0
 24 26  1  0  0  0  0
 26 25  1  0  0  0  0
M  END
>  <MODEL>
9

>  <REMARK>
 VINA RESULT:      -5.2      6.808      9.118
  Name = 
  3 active torsions:
  status: ('A' for Active; 'I' for Inactive)
    1  A    between atoms: C_3  and  C_14
    2  A    between atoms: C_3  and  C_24
    3  A    between atoms: C_14  and  C_23
                            x       y       z     vdW  Elec       q    Type
                         _______ _______ _______ _____ _____    ______ ____

>  <TORSDO>
F 3

$$$$
