=
 OpenBabel10222421153D

 37 39  0  0  1  0  0  0  0  0999 V2000
  187.3020  178.3220  140.7990 C   0  0  0  0  0  0  0  0  0  0  0  0
  187.0680  178.2660  142.1380 N   0  0  0  0  0  0  0  0  0  0  0  0
  186.2320  178.5950  139.9080 C   0  0  0  0  0  0  0  0  0  0  0  0
  185.8340  178.4550  142.6790 C   0  0  0  0  0  0  0  0  0  0  0  0
  184.7560  178.7310  141.8340 C   0  0  0  0  0  3  0  0  0  0  0  0
  184.9560  178.8100  140.4560 C   0  0  0  0  0  0  0  0  0  0  0  0
  184.3200  178.7950  146.1380 C   0  0  0  0  0  3  0  0  0  0  0  0
  185.6470  178.3700  144.1430 C   0  0  0  0  0  0  0  0  0  0  0  0
  187.4230  177.1160  147.0950 F   0  0  0  0  0  0  0  0  0  0  0  0
  184.4870  178.8790  144.7530 C   0  0  0  0  0  3  0  0  0  0  0  0
  186.6320  177.7760  144.9460 C   0  0  0  0  0  3  0  0  0  0  0  0
  185.3080  178.2000  146.9260 C   0  0  0  0  0  3  0  0  0  0  0  0
  186.4640  177.6910  146.3310 C   0  0  0  0  0  0  0  0  0  0  0  0
  186.5920  177.5720  137.6420 C   0  0  0  0  0  1  0  0  0  0  0  0
  186.3670  178.6730  138.5100 O   0  0  0  0  0  0  0  0  0  0  0  0
  188.7120  178.1590  140.3440 C   0  0  0  0  0  2  0  0  0  0  0  0
  189.4190  177.2670  141.2520 N   0  0  0  0  0  2  0  0  0  0  0  0
  191.9200  177.3200  140.3030 S   0  0  0  0  0  0  0  0  0  0  0  0
  190.8200  177.3670  141.5250 C   0  0  0  0  0  0  0  0  0  0  0  0
  191.2390  177.5510  142.8810 N   0  0  0  0  0  2  0  0  0  0  0  0
  190.8680  178.6970  143.7010 C   0  0  2  0  0  3  0  0  0  0  0  0
  192.0160  179.4050  144.0570 O   0  0  0  0  0  1  0  0  0  0  0  0
  190.1600  178.2270  144.9610 C   0  0  0  0  0  2  0  0  0  0  0  0
  190.7330  176.9380  145.4480 C   0  0  0  0  0  3  0  0  0  0  0  0
  191.5400  176.9170  146.4610 N   0  0  0  0  0  0  0  0  0  0  0  0
  193.0580  176.7820  148.9540 O   0  0  0  0  0  1  0  0  0  0  0  0
  192.8430  175.6730  148.1430 C   0  0  0  0  0  3  0  0  0  0  0  0
  192.1480  175.7330  147.0020 C   0  0  0  0  0  3  0  0  0  0  0  0
  183.7770  179.0830  139.5740 C   0  0  0  0  0  2  0  0  0  0  0  0
  179.0230  177.5240  141.0490 Cl  0  0  0  0  0  0  0  0  0  0  0  0
  183.0840  176.7150  139.1480 C   0  0  0  0  0  3  0  0  0  0  0  0
  179.7350  174.5920  139.8570 Cl  0  0  0  0  0  0  0  0  0  0  0  0
  180.5810  177.1840  140.3150 C   0  0  0  0  0  0  0  0  0  0  0  0
  180.8890  175.9140  139.7970 C   0  0  0  0  0  0  0  0  0  0  0  0
  181.5280  178.2100  140.2450 C   0  0  0  0  0  3  0  0  0  0  0  0
  182.7800  177.9780  139.6670 C   0  0  0  0  0  0  0  0  0  0  0  0
  182.1400  175.6870  139.2150 C   0  0  0  0  0  3  0  0  0  0  0  0
  1  2  1  0  0  0  0
  2  4  2  0  0  0  0
  3  6  1  0  0  0  0
  3  1  2  0  0  0  0
  4  8  1  0  0  0  0
  5  4  1  0  0  0  0
  6  5  2  0  0  0  0
  7 12  1  0  0  0  0
  8 10  1  0  0  0  0
  8 11  2  0  0  0  0
 10  7  2  0  0  0  0
 11 13  1  0  0  0  0
 13 12  2  0  0  0  0
 13  9  1  0  0  0  0
 14 15  1  0  0  0  0
 15  3  1  0  0  0  0
 16  1  1  0  0  0  0
 16 17  1  0  0  0  0
 17 19  1  0  0  0  0
 18 19  2  0  0  0  0
 19 20  1  0  0  0  0
 20 21  1  0  0  0  0
 21 22  1  1  0  0  0
 21 23  1  0  0  0  0
 23 24  1  0  0  0  0
 24 25  2  0  0  0  0
 25 28  1  0  0  0  0
 27 26  1  0  0  0  0
 28 27  2  0  0  0  0
 29 36  1  0  0  0  0
 29  6  1  0  0  0  0
 31 37  2  0  0  0  0
 31 36  1  0  0  0  0
 33 30  1  0  0  0  0
 34 32  1  0  0  0  0
 34 33  2  0  0  0  0
 35 33  1  0  0  0  0
 36 35  2  0  0  0  0
 37 34  1  0  0  0  0
M  END
>  <MODEL>
1

>  <REMARK>
 VINA RESULT:      -8.6      0.000      0.000
  Name = 
  12 active torsions:
  status: ('A' for Active; 'I' for Inactive)
    1  A    between atoms: C_4  and  N_36
    2  A    between atoms: C_8  and  C_12
    3  A    between atoms: C_12  and  N_25
    4  A    between atoms: C_13  and  C_24
    5  A    between atoms: C_16  and  C_33
    6  A    between atoms: C_17  and  N_27
    7  A    between atoms: C_17  and  C_33
    8  A    between atoms: C_18  and  O_31
    9  A    between atoms: C_22  and  C_30
   10  A    between atoms: N_25  and  C_26
   11  A    between atoms: C_26  and  N_27
   12  A    between atoms: C_30  and  C_34
                            x       y       z     vdW  Elec       q    Type
                         _______ _______ _______ _____ _____    ______ ____

>  <TORSDO>
F 12

$$$$
=
 OpenBabel10222421153D

 37 39  0  0  1  0  0  0  0  0999 V2000
  188.2980  178.0870  140.4140 C   0  0  0  0  0  0  0  0  0  0  0  0
  187.0400  178.3690  140.8480 N   0  0  0  0  0  0  0  0  0  0  0  0
  189.1790  177.3440  141.2420 C   0  0  0  0  0  0  0  0  0  0  0  0
  186.5750  177.9740  142.0650 C   0  0  0  0  0  0  0  0  0  0  0  0
  187.4110  177.2360  142.9060 C   0  0  0  0  0  3  0  0  0  0  0  0
  188.7040  176.9150  142.4930 C   0  0  0  0  0  0  0  0  0  0  0  0
  182.8590  178.7180  141.9400 C   0  0  0  0  0  3  0  0  0  0  0  0
  185.2000  178.3230  142.4790 C   0  0  0  0  0  0  0  0  0  0  0  0
  183.3600  179.1880  145.5310 F   0  0  0  0  0  0  0  0  0  0  0  0
  184.1570  178.3870  141.5390 C   0  0  0  0  0  3  0  0  0  0  0  0
  184.9170  178.5960  143.8270 C   0  0  0  0  0  3  0  0  0  0  0  0
  182.5910  178.9870  143.2850 C   0  0  0  0  0  3  0  0  0  0  0  0
  183.6200  178.9260  144.2280 C   0  0  0  0  0  0  0  0  0  0  0  0
  191.6680  177.6810  141.3180 C   0  0  0  0  0  1  0  0  0  0  0  0
  190.4970  177.0020  140.8890 O   0  0  0  0  0  0  0  0  0  0  0  0
  188.6600  178.5250  139.0350 C   0  0  0  0  0  2  0  0  0  0  0  0
  188.4010  177.4430  138.0950 N   0  0  0  0  0  2  0  0  0  0  0  0
  188.7850  176.5650  135.5980 S   0  0  0  0  0  0  0  0  0  0  0  0
  189.3230  177.0480  137.0760 C   0  0  0  0  0  0  0  0  0  0  0  0
  190.7240  177.1200  137.3570 N   0  0  0  0  0  2  0  0  0  0  0  0
  191.6210  175.9720  137.3360 C   0  0  2  0  0  3  0  0  0  0  0  0
  191.1990  175.0340  138.2770 O   0  0  0  0  0  1  0  0  0  0  0  0
  193.0370  176.4130  137.6690 C   0  0  0  0  0  2  0  0  0  0  0  0
  193.9380  175.2360  137.8390 C   0  0  0  0  0  3  0  0  0  0  0  0
  194.9950  175.3170  138.5830 N   0  0  0  0  0  0  0  0  0  0  0  0
  197.8660  175.4310  138.0540 O   0  0  0  0  0  1  0  0  0  0  0  0
  197.2400  174.3000  138.5630 C   0  0  0  0  0  3  0  0  0  0  0  0
  195.9260  174.2460  138.8080 C   0  0  0  0  0  3  0  0  0  0  0  0
  189.5860  176.1450  143.4260 C   0  0  0  0  0  2  0  0  0  0  0  0
  186.6250  178.2730  147.1570 Cl  0  0  0  0  0  0  0  0  0  0  0  0
  190.6190  176.6860  145.6420 C   0  0  0  0  0  3  0  0  0  0  0  0
  189.2400  178.2730  149.0780 Cl  0  0  0  0  0  0  0  0  0  0  0  0
  188.1770  177.6710  146.5980 C   0  0  0  0  0  0  0  0  0  0  0  0
  189.3090  177.6700  147.4310 C   0  0  0  0  0  0  0  0  0  0  0  0
  188.2750  177.1790  145.2930 C   0  0  0  0  0  3  0  0  0  0  0  0
  189.4940  176.6910  144.8110 C   0  0  0  0  0  0  0  0  0  0  0  0
  190.5250  177.1760  146.9470 C   0  0  0  0  0  3  0  0  0  0  0  0
  1  2  2  0  0  0  0
  1  3  1  0  0  0  0
  2  4  1  0  0  0  0
  3  6  2  0  0  0  0
  4  8  1  0  0  0  0
  4  5  2  0  0  0  0
  6  5  1  0  0  0  0
  6 29  1  0  0  0  0
  7 12  1  0  0  0  0
  8 11  2  0  0  0  0
 10  7  2  0  0  0  0
 10  8  1  0  0  0  0
 11 13  1  0  0  0  0
 12 13  2  0  0  0  0
 13  9  1  0  0  0  0
 15  3  1  0  0  0  0
 15 14  1  0  0  0  0
 16  1  1  0  0  0  0
 17 16  1  0  0  0  0
 18 19  2  0  0  0  0
 19 20  1  0  0  0  0
 19 17  1  0  0  0  0
 21 20  1  0  0  0  0
 21 23  1  0  0  0  0
 21 22  1  1  0  0  0
 23 24  1  0  0  0  0
 24 25  2  0  0  0  0
 25 28  1  0  0  0  0
 26 27  1  0  0  0  0
 27 28  2  0  0  0  0
 29 36  1  0  0  0  0
 31 37  1  0  0  0  0
 33 30  1  0  0  0  0
 33 34  1  0  0  0  0
 34 32  1  0  0  0  0
 35 33  2  0  0  0  0
 36 35  1  0  0  0  0
 36 31  2  0  0  0  0
 37 34  2  0  0  0  0
M  END
>  <MODEL>
2

>  <REMARK>
 VINA RESULT:      -8.2      4.529      7.186
  Name = 
  12 active torsions:
  status: ('A' for Active; 'I' for Inactive)
    1  A    between atoms: C_4  and  N_36
    2  A    between atoms: C_8  and  C_12
    3  A    between atoms: C_12  and  N_25
    4  A    between atoms: C_13  and  C_24
    5  A    between atoms: C_16  and  C_33
    6  A    between atoms: C_17  and  N_27
    7  A    between atoms: C_17  and  C_33
    8  A    between atoms: C_18  and  O_31
    9  A    between atoms: C_22  and  C_30
   10  A    between atoms: N_25  and  C_26
   11  A    between atoms: C_26  and  N_27
   12  A    between atoms: C_30  and  C_34
                            x       y       z     vdW  Elec       q    Type
                         _______ _______ _______ _____ _____    ______ ____

>  <TORSDO>
F 12

$$$$
=
 OpenBabel10222421153D

 37 39  0  0  1  0  0  0  0  0999 V2000
  186.9240  178.4200  140.3170 C   0  0  0  0  0  0  0  0  0  0  0  0
  186.7960  178.3460  141.6690 N   0  0  0  0  0  0  0  0  0  0  0  0
  185.7850  178.6940  139.5160 C   0  0  0  0  0  0  0  0  0  0  0  0
  185.6060  178.5170  142.3070 C   0  0  0  0  0  0  0  0  0  0  0  0
  184.4630  178.7930  141.5520 C   0  0  0  0  0  3  0  0  0  0  0  0
  184.5540  178.8900  140.1640 C   0  0  0  0  0  0  0  0  0  0  0  0
  184.3590  178.7920  145.8770 C   0  0  0  0  0  3  0  0  0  0  0  0
  185.5350  178.4130  143.7800 C   0  0  0  0  0  0  0  0  0  0  0  0
  187.5570  177.1630  146.5710 F   0  0  0  0  0  0  0  0  0  0  0  0
  184.4170  178.8940  144.4840 C   0  0  0  0  0  3  0  0  0  0  0  0
  186.5910  177.8300  144.4970 C   0  0  0  0  0  3  0  0  0  0  0  0
  185.4160  178.2080  146.5790 C   0  0  0  0  0  3  0  0  0  0  0  0
  186.5320  177.7280  145.8900 C   0  0  0  0  0  0  0  0  0  0  0  0
  185.9150  177.6940  137.2140 C   0  0  0  0  0  1  0  0  0  0  0  0
  185.8090  178.7890  138.1130 O   0  0  0  0  0  0  0  0  0  0  0  0
  188.2960  178.2750  139.7510 C   0  0  0  0  0  2  0  0  0  0  0  0
  189.0440  177.2970  140.5260 N   0  0  0  0  0  2  0  0  0  0  0  0
  191.1130  176.6080  138.9760 S   0  0  0  0  0  0  0  0  0  0  0  0
  190.4560  177.1030  140.4000 C   0  0  0  0  0  0  0  0  0  0  0  0
  191.2870  177.3900  141.5300 N   0  0  0  0  0  2  0  0  0  0  0  0
  191.1550  176.7380  142.8260 C   0  0  2  0  0  3  0  0  0  0  0  0
  190.5120  175.5100  142.6660 O   0  0  0  0  0  1  0  0  0  0  0  0
  190.3410  177.6110  143.7660 C   0  0  0  0  0  2  0  0  0  0  0  0
  190.3550  177.0610  145.1540 C   0  0  0  0  0  3  0  0  0  0  0  0
  191.3130  177.3610  145.9720 N   0  0  0  0  0  0  0  0  0  0  0  0
  192.8240  175.0080  146.8170 O   0  0  0  0  0  1  0  0  0  0  0  0
  192.1120  175.8040  147.7070 C   0  0  0  0  0  3  0  0  0  0  0  0
  191.4210  176.8820  147.3220 C   0  0  0  0  0  3  0  0  0  0  0  0
  183.3080  179.1620  139.3800 C   0  0  0  0  0  2  0  0  0  0  0  0
  182.1580  174.3940  137.6030 Cl  0  0  0  0  0  0  0  0  0  0  0  0
  181.3010  177.9730  140.2910 C   0  0  0  0  0  3  0  0  0  0  0  0
  179.6180  174.3750  139.6220 Cl  0  0  0  0  0  0  0  0  0  0  0  0
  181.8030  175.7610  138.6470 C   0  0  0  0  0  0  0  0  0  0  0  0
  180.7030  175.7510  139.5230 C   0  0  0  0  0  0  0  0  0  0  0  0
  182.6440  176.8770  138.6000 C   0  0  0  0  0  3  0  0  0  0  0  0
  182.3930  177.9840  139.4170 C   0  0  0  0  0  0  0  0  0  0  0  0
  180.4590  176.8590  140.3410 C   0  0  0  0  0  3  0  0  0  0  0  0
  1  2  1  0  0  0  0
  2  4  2  0  0  0  0
  3  6  1  0  0  0  0
  3  1  2  0  0  0  0
  4  8  1  0  0  0  0
  5  4  1  0  0  0  0
  6  5  2  0  0  0  0
  7 12  1  0  0  0  0
  8 10  1  0  0  0  0
  8 11  2  0  0  0  0
 10  7  2  0  0  0  0
 11 13  1  0  0  0  0
 13  9  1  0  0  0  0
 13 12  2  0  0  0  0
 14 15  1  0  0  0  0
 15  3  1  0  0  0  0
 16  1  1  0  0  0  0
 16 17  1  0  0  0  0
 18 19  2  0  0  0  0
 19 17  1  0  0  0  0
 19 20  1  0  0  0  0
 20 21  1  0  0  0  0
 21 22  1  6  0  0  0
 21 23  1  0  0  0  0
 23 24  1  0  0  0  0
 24 25  2  0  0  0  0
 25 28  1  0  0  0  0
 26 27  1  0  0  0  0
 28 27  2  0  0  0  0
 29 36  1  0  0  0  0
 29  6  1  0  0  0  0
 30 33  1  0  0  0  0
 31 37  1  0  0  0  0
 33 34  1  0  0  0  0
 34 32  1  0  0  0  0
 34 37  2  0  0  0  0
 35 33  2  0  0  0  0
 35 36  1  0  0  0  0
 36 31  2  0  0  0  0
M  END
>  <MODEL>
3

>  <REMARK>
 VINA RESULT:      -8.0      1.255      1.679
  Name = 
  12 active torsions:
  status: ('A' for Active; 'I' for Inactive)
    1  A    between atoms: C_4  and  N_36
    2  A    between atoms: C_8  and  C_12
    3  A    between atoms: C_12  and  N_25
    4  A    between atoms: C_13  and  C_24
    5  A    between atoms: C_16  and  C_33
    6  A    between atoms: C_17  and  N_27
    7  A    between atoms: C_17  and  C_33
    8  A    between atoms: C_18  and  O_31
    9  A    between atoms: C_22  and  C_30
   10  A    between atoms: N_25  and  C_26
   11  A    between atoms: C_26  and  N_27
   12  A    between atoms: C_30  and  C_34
                            x       y       z     vdW  Elec       q    Type
                         _______ _______ _______ _____ _____    ______ ____

>  <TORSDO>
F 12

$$$$
=
 OpenBabel10222421153D

 37 39  0  0  1  0  0  0  0  0999 V2000
  187.3180  178.3330  140.3940 C   0  0  0  0  0  0  0  0  0  0  0  0
  187.2250  178.2350  141.7470 N   0  0  0  0  0  0  0  0  0  0  0  0
  186.1640  178.6440  139.6290 C   0  0  0  0  0  0  0  0  0  0  0  0
  186.0560  178.4150  142.4200 C   0  0  0  0  0  0  0  0  0  0  0  0
  184.8990  178.7280  141.7020 C   0  0  0  0  0  3  0  0  0  0  0  0
  184.9540  178.8500  140.3140 C   0  0  0  0  0  0  0  0  0  0  0  0
  184.8890  178.5960  146.0230 C   0  0  0  0  0  3  0  0  0  0  0  0
  186.0220  178.2830  143.8920 C   0  0  0  0  0  0  0  0  0  0  0  0
  188.1390  177.0290  146.6110 F   0  0  0  0  0  0  0  0  0  0  0  0
  184.9110  178.7240  144.6310 C   0  0  0  0  0  3  0  0  0  0  0  0
  187.1080  177.7110  144.5740 C   0  0  0  0  0  3  0  0  0  0  0  0
  185.9750  178.0240  146.6890 C   0  0  0  0  0  3  0  0  0  0  0  0
  187.0850  177.5830  145.9650 C   0  0  0  0  0  0  0  0  0  0  0  0
  186.0960  177.6880  137.3070 C   0  0  0  0  0  1  0  0  0  0  0  0
  186.1530  178.7680  138.2280 O   0  0  0  0  0  0  0  0  0  0  0  0
  188.6710  178.1740  139.7880 C   0  0  0  0  0  2  0  0  0  0  0  0
  189.3840  177.0960  140.4580 N   0  0  0  0  0  2  0  0  0  0  0  0
  191.2650  177.2170  142.3560 S   0  0  0  0  0  0  0  0  0  0  0  0
  190.7740  177.1540  140.7870 C   0  0  0  0  0  0  0  0  0  0  0  0
  191.7290  177.1160  139.7210 N   0  0  0  0  0  2  0  0  0  0  0  0
  191.4920  176.4740  138.4350 C   0  0  2  0  0  3  0  0  0  0  0  0
  191.0850  175.1550  138.6410 O   0  0  0  0  0  1  0  0  0  0  0  0
  192.7670  176.4810  137.6080 C   0  0  0  0  0  2  0  0  0  0  0  0
  193.6140  175.2920  137.9200 C   0  0  0  0  0  3  0  0  0  0  0  0
  194.7640  175.4360  138.4980 N   0  0  0  0  0  0  0  0  0  0  0  0
  197.6380  175.3880  137.9730 O   0  0  0  0  0  1  0  0  0  0  0  0
  196.9690  174.3390  138.5930 C   0  0  0  0  0  3  0  0  0  0  0  0
  195.6540  174.3600  138.8350 C   0  0  0  0  0  3  0  0  0  0  0  0
  183.6930  179.1620  139.5700 C   0  0  0  0  0  2  0  0  0  0  0  0
  178.9640  177.6450  141.1640 Cl  0  0  0  0  0  0  0  0  0  0  0  0
  183.0090  176.7740  139.2550 C   0  0  0  0  0  3  0  0  0  0  0  0
  179.6790  174.6670  140.0910 Cl  0  0  0  0  0  0  0  0  0  0  0  0
  180.5160  177.2810  140.4280 C   0  0  0  0  0  0  0  0  0  0  0  0
  180.8250  175.9910  139.9620 C   0  0  0  0  0  0  0  0  0  0  0  0
  181.4560  178.3080  140.3030 C   0  0  0  0  0  3  0  0  0  0  0  0
  182.7030  178.0570  139.7220 C   0  0  0  0  0  0  0  0  0  0  0  0
  182.0720  175.7450  139.3770 C   0  0  0  0  0  3  0  0  0  0  0  0
  1  2  1  0  0  0  0
  2  4  2  0  0  0  0
  3  6  1  0  0  0  0
  3  1  2  0  0  0  0
  4  8  1  0  0  0  0
  5  4  1  0  0  0  0
  6  5  2  0  0  0  0
  7 12  1  0  0  0  0
  8 11  2  0  0  0  0
  8 10  1  0  0  0  0
 10  7  2  0  0  0  0
 11 13  1  0  0  0  0
 13  9  1  0  0  0  0
 13 12  2  0  0  0  0
 14 15  1  0  0  0  0
 15  3  1  0  0  0  0
 16  1  1  0  0  0  0
 16 17  1  0  0  0  0
 17 19  1  0  0  0  0
 19 18  2  0  0  0  0
 20 19  1  0  0  0  0
 21 22  1  1  0  0  0
 21 20  1  0  0  0  0
 23 24  1  0  0  0  0
 23 21  1  0  0  0  0
 24 25  2  0  0  0  0
 25 28  1  0  0  0  0
 26 27  1  0  0  0  0
 27 28  2  0  0  0  0
 29 36  1  0  0  0  0
 29  6  1  0  0  0  0
 31 37  2  0  0  0  0
 31 36  1  0  0  0  0
 33 30  1  0  0  0  0
 34 32  1  0  0  0  0
 34 33  2  0  0  0  0
 35 33  1  0  0  0  0
 36 35  2  0  0  0  0
 37 34  1  0  0  0  0
M  END
>  <MODEL>
4

>  <REMARK>
 VINA RESULT:      -7.9      2.978      4.173
  Name = 
  12 active torsions:
  status: ('A' for Active; 'I' for Inactive)
    1  A    between atoms: C_4  and  N_36
    2  A    between atoms: C_8  and  C_12
    3  A    between atoms: C_12  and  N_25
    4  A    between atoms: C_13  and  C_24
    5  A    between atoms: C_16  and  C_33
    6  A    between atoms: C_17  and  N_27
    7  A    between atoms: C_17  and  C_33
    8  A    between atoms: C_18  and  O_31
    9  A    between atoms: C_22  and  C_30
   10  A    between atoms: N_25  and  C_26
   11  A    between atoms: C_26  and  N_27
   12  A    between atoms: C_30  and  C_34
                            x       y       z     vdW  Elec       q    Type
                         _______ _______ _______ _____ _____    ______ ____

>  <TORSDO>
F 12

$$$$
=
 OpenBabel10222421153D

 37 39  0  0  1  0  0  0  0  0999 V2000
  185.5790  178.7580  140.3230 C   0  0  0  0  0  0  0  0  0  0  0  0
  186.9170  178.5230  140.3890 N   0  0  0  0  0  0  0  0  0  0  0  0
  184.7910  178.6790  141.5000 C   0  0  0  0  0  0  0  0  0  0  0  0
  187.5520  178.2020  141.5490 C   0  0  0  0  0  0  0  0  0  0  0  0
  186.8110  178.1200  142.7300 C   0  0  0  0  0  3  0  0  0  0  0  0
  185.4380  178.3660  142.7080 C   0  0  0  0  0  0  0  0  0  0  0  0
  191.0420  177.2730  140.3950 C   0  0  0  0  0  3  0  0  0  0  0  0
  189.0080  177.9480  141.5490 C   0  0  0  0  0  0  0  0  0  0  0  0
  191.8480  178.1020  143.8630 F   0  0  0  0  0  0  0  0  0  0  0  0
  189.6650  177.5100  140.3850 C   0  0  0  0  0  3  0  0  0  0  0  0
  189.7580  178.1450  142.7190 C   0  0  0  0  0  3  0  0  0  0  0  0
  191.7770  177.4740  141.5660 C   0  0  0  0  0  3  0  0  0  0  0  0
  191.1360  177.9090  142.7270 C   0  0  0  0  0  0  0  0  0  0  0  0
  182.4170  178.0600  140.9600 C   0  0  0  0  0  1  0  0  0  0  0  0
  183.4030  178.9020  141.5400 O   0  0  0  0  0  0  0  0  0  0  0  0
  185.0200  179.1620  139.0010 C   0  0  0  0  0  2  0  0  0  0  0  0
  184.8180  177.9810  138.1740 N   0  0  0  0  0  2  0  0  0  0  0  0
  185.7820  175.8900  136.8120 S   0  0  0  0  0  0  0  0  0  0  0  0
  185.8070  177.4670  137.2770 C   0  0  0  0  0  0  0  0  0  0  0  0
  186.7940  178.3670  136.7630 N   0  0  0  0  0  2  0  0  0  0  0  0
  188.2310  178.1590  136.8860 C   0  0  2  0  0  3  0  0  0  0  0  0
  188.8340  179.3310  137.3430 O   0  0  0  0  0  1  0  0  0  0  0  0
  188.8200  177.7880  135.5350 C   0  0  0  0  0  2  0  0  0  0  0  0
  189.9260  176.7970  135.6880 C   0  0  0  0  0  3  0  0  0  0  0  0
  190.5640  176.6890  136.8100 N   0  0  0  0  0  0  0  0  0  0  0  0
  190.2620  173.8950  137.6120 O   0  0  0  0  0  1  0  0  0  0  0  0
  191.5030  174.4950  137.4250 C   0  0  0  0  0  3  0  0  0  0  0  0
  191.6430  175.7730  137.0560 C   0  0  0  0  0  3  0  0  0  0  0  0
  184.6660  178.2470  143.9850 C   0  0  0  0  0  2  0  0  0  0  0  0
  189.2610  176.7980  145.9840 Cl  0  0  0  0  0  0  0  0  0  0  0  0
  185.2180  178.8670  146.3470 C   0  0  0  0  0  3  0  0  0  0  0  0
  188.4000  178.2690  148.7440 Cl  0  0  0  0  0  0  0  0  0  0  0  0
  187.7090  177.5990  146.1520 C   0  0  0  0  0  0  0  0  0  0  0  0
  187.3360  178.2380  147.3480 C   0  0  0  0  0  0  0  0  0  0  0  0
  186.8320  177.6000  145.0630 C   0  0  0  0  0  3  0  0  0  0  0  0
  185.5860  178.2280  145.1580 C   0  0  0  0  0  0  0  0  0  0  0  0
  186.0910  178.8700  147.4380 C   0  0  0  0  0  3  0  0  0  0  0  0
  1  2  2  0  0  0  0
  1  3  1  0  0  0  0
  2  4  1  0  0  0  0
  3 15  1  0  0  0  0
  3  6  2  0  0  0  0
  4  8  1  0  0  0  0
  4  5  2  0  0  0  0
  6  5  1  0  0  0  0
  6 29  1  0  0  0  0
  7 12  1  0  0  0  0
  8 11  2  0  0  0  0
 10  7  2  0  0  0  0
 10  8  1  0  0  0  0
 11 13  1  0  0  0  0
 12 13  2  0  0  0  0
 13  9  1  0  0  0  0
 14 15  1  0  0  0  0
 16  1  1  0  0  0  0
 17 16  1  0  0  0  0
 18 19  2  0  0  0  0
 19 17  1  0  0  0  0
 20 21  1  0  0  0  0
 20 19  1  0  0  0  0
 21 22  1  6  0  0  0
 23 24  1  0  0  0  0
 23 21  1  0  0  0  0
 24 25  2  0  0  0  0
 25 28  1  0  0  0  0
 27 26  1  0  0  0  0
 28 27  2  0  0  0  0
 29 36  1  0  0  0  0
 30 33  1  0  0  0  0
 31 37  1  0  0  0  0
 33 34  1  0  0  0  0
 34 37  2  0  0  0  0
 34 32  1  0  0  0  0
 35 36  1  0  0  0  0
 35 33  2  0  0  0  0
 36 31  2  0  0  0  0
M  END
>  <MODEL>
5

>  <REMARK>
 VINA RESULT:      -7.8      4.555      7.489
  Name = 
  12 active torsions:
  status: ('A' for Active; 'I' for Inactive)
    1  A    between atoms: C_4  and  N_36
    2  A    between atoms: C_8  and  C_12
    3  A    between atoms: C_12  and  N_25
    4  A    between atoms: C_13  and  C_24
    5  A    between atoms: C_16  and  C_33
    6  A    between atoms: C_17  and  N_27
    7  A    between atoms: C_17  and  C_33
    8  A    between atoms: C_18  and  O_31
    9  A    between atoms: C_22  and  C_30
   10  A    between atoms: N_25  and  C_26
   11  A    between atoms: C_26  and  N_27
   12  A    between atoms: C_30  and  C_34
                            x       y       z     vdW  Elec       q    Type
                         _______ _______ _______ _____ _____    ______ ____

>  <TORSDO>
F 12

$$$$
=
 OpenBabel10222421153D

 37 39  0  0  1  0  0  0  0  0999 V2000
  188.3060  178.0700  140.6930 C   0  0  0  0  0  0  0  0  0  0  0  0
  187.2030  178.3780  141.4270 N   0  0  0  0  0  0  0  0  0  0  0  0
  189.2860  177.1940  141.2270 C   0  0  0  0  0  0  0  0  0  0  0  0
  186.9900  177.8850  142.6780 C   0  0  0  0  0  0  0  0  0  0  0  0
  187.9300  177.0150  143.2350 C   0  0  0  0  0  3  0  0  0  0  0  0
  189.0680  176.6640  142.5100 C   0  0  0  0  0  0  0  0  0  0  0  0
  183.4540  179.0010  143.4670 C   0  0  0  0  0  3  0  0  0  0  0  0
  185.7750  178.2690  143.4260 C   0  0  0  0  0  0  0  0  0  0  0  0
  184.6540  178.6220  146.8990 F   0  0  0  0  0  0  0  0  0  0  0  0
  184.5980  178.6400  142.7510 C   0  0  0  0  0  3  0  0  0  0  0  0
  185.7810  178.2670  144.8300 C   0  0  0  0  0  3  0  0  0  0  0  0
  183.4730  178.9940  144.8640 C   0  0  0  0  0  3  0  0  0  0  0  0
  184.6360  178.6280  145.5450 C   0  0  0  0  0  0  0  0  0  0  0  0
  191.7000  177.5030  140.6030 C   0  0  0  0  0  1  0  0  0  0  0  0
  190.4600  176.8130  140.5510 O   0  0  0  0  0  0  0  0  0  0  0  0
  188.3860  178.6280  139.3120 C   0  0  0  0  0  2  0  0  0  0  0  0
  188.0360  177.5970  138.3460 N   0  0  0  0  0  2  0  0  0  0  0  0
  186.5570  176.4840  136.4150 S   0  0  0  0  0  0  0  0  0  0  0  0
  186.8200  177.6000  137.5940 C   0  0  0  0  0  0  0  0  0  0  0  0
  185.8200  178.5720  137.9190 N   0  0  0  0  0  2  0  0  0  0  0  0
  184.5760  178.2620  138.6110 C   0  0  2  0  0  3  0  0  0  0  0  0
  183.6100  177.8760  137.6810 O   0  0  0  0  0  1  0  0  0  0  0  0
  184.0830  179.4860  139.3650 C   0  0  0  0  0  2  0  0  0  0  0  0
  182.6590  179.7820  139.0320 C   0  0  0  0  0  3  0  0  0  0  0  0
  182.3230  180.9300  138.5350 N   0  0  0  0  0  0  0  0  0  0  0  0
  181.5100  183.5740  137.5930 O   0  0  0  0  0  1  0  0  0  0  0  0
  180.6130  182.5250  137.7570 C   0  0  0  0  0  3  0  0  0  0  0  0
  180.9830  181.3140  138.1860 C   0  0  0  0  0  3  0  0  0  0  0  0
  190.0700  175.7490  143.1430 C   0  0  0  0  0  2  0  0  0  0  0  0
  188.4720  178.0150  147.5610 Cl  0  0  0  0  0  0  0  0  0  0  0  0
  191.6800  175.9810  145.0460 C   0  0  0  0  0  3  0  0  0  0  0  0
  191.4410  177.5070  148.7660 Cl  0  0  0  0  0  0  0  0  0  0  0  0
  189.7280  177.2380  146.6130 C   0  0  0  0  0  0  0  0  0  0  0  0
  191.0140  177.0160  147.1360 C   0  0  0  0  0  0  0  0  0  0  0  0
  189.4280  176.8280  145.3100 C   0  0  0  0  0  3  0  0  0  0  0  0
  190.4030  176.2050  144.5240 C   0  0  0  0  0  0  0  0  0  0  0  0
  191.9840  176.3870  146.3480 C   0  0  0  0  0  3  0  0  0  0  0  0
  1  3  2  0  0  0  0
  1  2  1  0  0  0  0
  2  4  2  0  0  0  0
  3  6  1  0  0  0  0
  4  5  1  0  0  0  0
  4  8  1  0  0  0  0
  6 29  1  0  0  0  0
  6  5  2  0  0  0  0
  7 12  1  0  0  0  0
  8 11  2  0  0  0  0
 10  8  1  0  0  0  0
 10  7  2  0  0  0  0
 11 13  1  0  0  0  0
 12 13  2  0  0  0  0
 13  9  1  0  0  0  0
 15 14  1  0  0  0  0
 15  3  1  0  0  0  0
 16  1  1  0  0  0  0
 17 16  1  0  0  0  0
 18 19  2  0  0  0  0
 19 20  1  0  0  0  0
 19 17  1  0  0  0  0
 20 21  1  0  0  0  0
 21 22  1  6  0  0  0
 21 23  1  0  0  0  0
 24 23  1  0  0  0  0
 25 24  2  0  0  0  0
 26 27  1  0  0  0  0
 27 28  2  0  0  0  0
 28 25  1  0  0  0  0
 29 36  1  0  0  0  0
 31 37  1  0  0  0  0
 33 34  1  0  0  0  0
 33 30  1  0  0  0  0
 34 32  1  0  0  0  0
 35 33  2  0  0  0  0
 36 31  2  0  0  0  0
 36 35  1  0  0  0  0
 37 34  2  0  0  0  0
M  END
>  <MODEL>
6

>  <REMARK>
 VINA RESULT:      -7.7      4.147      8.704
  Name = 
  12 active torsions:
  status: ('A' for Active; 'I' for Inactive)
    1  A    between atoms: C_4  and  N_36
    2  A    between atoms: C_8  and  C_12
    3  A    between atoms: C_12  and  N_25
    4  A    between atoms: C_13  and  C_24
    5  A    between atoms: C_16  and  C_33
    6  A    between atoms: C_17  and  N_27
    7  A    between atoms: C_17  and  C_33
    8  A    between atoms: C_18  and  O_31
    9  A    between atoms: C_22  and  C_30
   10  A    between atoms: N_25  and  C_26
   11  A    between atoms: C_26  and  N_27
   12  A    between atoms: C_30  and  C_34
                            x       y       z     vdW  Elec       q    Type
                         _______ _______ _______ _____ _____    ______ ____

>  <TORSDO>
F 12

$$$$
=
 OpenBabel10222421153D

 37 39  0  0  1  0  0  0  0  0999 V2000
  186.2460  178.6180  141.0270 C   0  0  0  0  0  0  0  0  0  0  0  0
  187.2870  178.2900  141.8400 N   0  0  0  0  0  0  0  0  0  0  0  0
  186.4250  178.6190  139.6200 C   0  0  0  0  0  0  0  0  0  0  0  0
  188.5190  177.9630  141.3630 C   0  0  0  0  0  0  0  0  0  0  0  0
  188.7320  177.9470  139.9820 C   0  0  0  0  0  3  0  0  0  0  0  0
  187.6870  178.2650  139.1140 C   0  0  0  0  0  0  0  0  0  0  0  0
  190.9380  175.9780  143.5040 C   0  0  0  0  0  3  0  0  0  0  0  0
  189.6090  177.6260  142.3020 C   0  0  0  0  0  0  0  0  0  0  0  0
  192.1270  179.3300  144.3520 F   0  0  0  0  0  0  0  0  0  0  0  0
  189.9050  176.2870  142.6140 C   0  0  0  0  0  3  0  0  0  0  0  0
  190.3690  178.6460  142.8960 C   0  0  0  0  0  3  0  0  0  0  0  0
  191.6870  177.0030  144.0880 C   0  0  0  0  0  3  0  0  0  0  0  0
  191.4020  178.3360  143.7850 C   0  0  0  0  0  0  0  0  0  0  0  0
  184.4080  178.0570  138.2310 C   0  0  0  0  0  1  0  0  0  0  0  0
  185.4160  178.9430  138.6940 O   0  0  0  0  0  0  0  0  0  0  0  0
  184.9330  178.8960  141.6760 C   0  0  0  0  0  2  0  0  0  0  0  0
  184.8290  178.1350  142.9140 N   0  0  0  0  0  2  0  0  0  0  0  0
  182.7690  179.0100  144.3790 S   0  0  0  0  0  0  0  0  0  0  0  0
  184.3670  178.6950  144.1460 C   0  0  0  0  0  0  0  0  0  0  0  0
  185.3200  178.9360  145.1860 N   0  0  0  0  0  2  0  0  0  0  0  0
  185.9370  177.8860  145.9860 C   0  0  2  0  0  3  0  0  0  0  0  0
  186.1370  178.3480  147.2870 O   0  0  0  0  0  1  0  0  0  0  0  0
  187.2760  177.4930  145.3830 C   0  0  0  0  0  2  0  0  0  0  0  0
  188.4050  177.9350  146.2530 C   0  0  0  0  0  3  0  0  0  0  0  0
  189.3150  177.0940  146.6310 N   0  0  0  0  0  0  0  0  0  0  0  0
  191.5790  175.3330  147.1830 O   0  0  0  0  0  1  0  0  0  0  0  0
  191.4710  176.6090  147.7220 C   0  0  0  0  0  3  0  0  0  0  0  0
  190.4360  177.4180  147.4690 C   0  0  0  0  0  3  0  0  0  0  0  0
  187.9520  178.2640  137.6410 C   0  0  0  0  0  2  0  0  0  0  0  0
  187.2570  173.1530  136.8630 Cl  0  0  0  0  0  0  0  0  0  0  0  0
  189.8510  176.8970  136.7480 C   0  0  0  0  0  3  0  0  0  0  0  0
  190.3210  173.0090  135.8040 Cl  0  0  0  0  0  0  0  0  0  0  0  0
  188.2790  174.5790  136.8110 C   0  0  0  0  0  0  0  0  0  0  0  0
  189.6070  174.5170  136.3510 C   0  0  0  0  0  0  0  0  0  0  0  0
  187.7480  175.8000  137.2360 C   0  0  0  0  0  3  0  0  0  0  0  0
  188.5320  176.9590  137.2090 C   0  0  0  0  0  0  0  0  0  0  0  0
  190.3850  175.6790  136.3220 C   0  0  0  0  0  3  0  0  0  0  0  0
  1 16  1  0  0  0  0
  1  2  1  0  0  0  0
  3  1  2  0  0  0  0
  4  2  2  0  0  0  0
  4  8  1  0  0  0  0
  5  4  1  0  0  0  0
  6  3  1  0  0  0  0
  6  5  2  0  0  0  0
  7 12  1  0  0  0  0
  8 10  1  0  0  0  0
  8 11  2  0  0  0  0
 10  7  2  0  0  0  0
 11 13  1  0  0  0  0
 13 12  2  0  0  0  0
 13  9  1  0  0  0  0
 14 15  1  0  0  0  0
 15  3  1  0  0  0  0
 16 17  1  0  0  0  0
 17 19  1  0  0  0  0
 19 18  2  0  0  0  0
 19 20  1  0  0  0  0
 20 21  1  0  0  0  0
 21 22  1  1  0  0  0
 23 21  1  0  0  0  0
 23 24  1  0  0  0  0
 24 25  2  0  0  0  0
 25 28  1  0  0  0  0
 26 27  1  0  0  0  0
 28 27  2  0  0  0  0
 29  6  1  0  0  0  0
 31 36  1  0  0  0  0
 32 34  1  0  0  0  0
 33 30  1  0  0  0  0
 33 35  1  0  0  0  0
 34 33  2  0  0  0  0
 36 35  2  0  0  0  0
 36 29  1  0  0  0  0
 37 34  1  0  0  0  0
 37 31  2  0  0  0  0
M  END
>  <MODEL>
7

>  <REMARK>
 VINA RESULT:      -7.7      3.764      5.923
  Name = 
  12 active torsions:
  status: ('A' for Active; 'I' for Inactive)
    1  A    between atoms: C_4  and  N_36
    2  A    between atoms: C_8  and  C_12
    3  A    between atoms: C_12  and  N_25
    4  A    between atoms: C_13  and  C_24
    5  A    between atoms: C_16  and  C_33
    6  A    between atoms: C_17  and  N_27
    7  A    between atoms: C_17  and  C_33
    8  A    between atoms: C_18  and  O_31
    9  A    between atoms: C_22  and  C_30
   10  A    between atoms: N_25  and  C_26
   11  A    between atoms: C_26  and  N_27
   12  A    between atoms: C_30  and  C_34
                            x       y       z     vdW  Elec       q    Type
                         _______ _______ _______ _____ _____    ______ ____

>  <TORSDO>
F 12

$$$$
=
 OpenBabel10222421153D

 37 39  0  0  1  0  0  0  0  0999 V2000
  187.2140  178.2800  140.1750 C   0  0  0  0  0  0  0  0  0  0  0  0
  188.0100  178.0150  141.2460 N   0  0  0  0  0  0  0  0  0  0  0  0
  187.7630  178.2570  138.8670 C   0  0  0  0  0  0  0  0  0  0  0  0
  189.3350  177.7300  141.1260 C   0  0  0  0  0  0  0  0  0  0  0  0
  189.9110  177.6930  139.8530 C   0  0  0  0  0  3  0  0  0  0  0  0
  189.1260  177.9460  138.7290 C   0  0  0  0  0  0  0  0  0  0  0  0
  191.2260  178.2280  144.3740 C   0  0  0  0  0  3  0  0  0  0  0  0
  190.1460  177.4620  142.3330 C   0  0  0  0  0  0  0  0  0  0  0  0
  191.8300  174.6460  143.9690 F   0  0  0  0  0  0  0  0  0  0  0  0
  190.4590  178.4920  143.2360 C   0  0  0  0  0  3  0  0  0  0  0  0
  190.6160  176.1650  142.5920 C   0  0  0  0  0  3  0  0  0  0  0  0
  191.6870  176.9330  144.6220 C   0  0  0  0  0  3  0  0  0  0  0  0
  191.3830  175.9020  143.7300 C   0  0  0  0  0  0  0  0  0  0  0  0
  186.2330  177.5710  136.9950 C   0  0  0  0  0  1  0  0  0  0  0  0
  187.0280  178.5170  137.6960 O   0  0  0  0  0  0  0  0  0  0  0  0
  185.7660  178.5150  140.4410 C   0  0  0  0  0  2  0  0  0  0  0  0
  185.6160  179.3920  141.5930 N   0  0  0  0  0  2  0  0  0  0  0  0
  183.1550  178.5640  142.2350 S   0  0  0  0  0  0  0  0  0  0  0  0
  184.6250  179.2010  142.6070 C   0  0  0  0  0  0  0  0  0  0  0  0
  184.9570  179.5390  143.9580 N   0  0  0  0  0  2  0  0  0  0  0  0
  185.1220  178.5620  145.0260 C   0  0  2  0  0  3  0  0  0  0  0  0
  185.2550  179.2240  146.2460 O   0  0  0  0  0  1  0  0  0  0  0  0
  186.3640  177.7230  144.7740 C   0  0  0  0  0  2  0  0  0  0  0  0
  187.4680  178.1080  145.7010 C   0  0  0  0  0  3  0  0  0  0  0  0
  188.1920  177.2020  146.2780 N   0  0  0  0  0  0  0  0  0  0  0  0
  187.8920  178.0990  149.0420 O   0  0  0  0  0  1  0  0  0  0  0  0
  189.1310  177.8800  148.4520 C   0  0  0  0  0  3  0  0  0  0  0  0
  189.2710  177.4680  147.1880 C   0  0  0  0  0  3  0  0  0  0  0  0
  189.7760  177.9230  137.3800 C   0  0  0  0  0  2  0  0  0  0  0  0
  194.1540  175.0930  137.5630 Cl  0  0  0  0  0  0  0  0  0  0  0  0
  189.7060  175.5230  136.6720 C   0  0  0  0  0  3  0  0  0  0  0  0
  192.4370  172.5680  136.4670 Cl  0  0  0  0  0  0  0  0  0  0  0  0
  192.4400  175.2320  137.2080 C   0  0  0  0  0  0  0  0  0  0  0  0
  191.6960  174.1370  136.7350 C   0  0  0  0  0  0  0  0  0  0  0  0
  191.8110  176.4640  137.4100 C   0  0  0  0  0  3  0  0  0  0  0  0
  190.4470  176.6130  137.1390 C   0  0  0  0  0  0  0  0  0  0  0  0
  190.3310  174.2890  136.4700 C   0  0  0  0  0  3  0  0  0  0  0  0
  1 16  1  0  0  0  0
  1  2  1  0  0  0  0
  3  1  2  0  0  0  0
  4  2  2  0  0  0  0
  4  8  1  0  0  0  0
  5  4  1  0  0  0  0
  6  3  1  0  0  0  0
  6  5  2  0  0  0  0
  7 12  1  0  0  0  0
  8 11  2  0  0  0  0
  8 10  1  0  0  0  0
 10  7  2  0  0  0  0
 11 13  1  0  0  0  0
 13  9  1  0  0  0  0
 13 12  2  0  0  0  0
 14 15  1  0  0  0  0
 15  3  1  0  0  0  0
 16 17  1  0  0  0  0
 17 19  1  0  0  0  0
 18 19  2  0  0  0  0
 19 20  1  0  0  0  0
 20 21  1  0  0  0  0
 21 22  1  1  0  0  0
 23 21  1  0  0  0  0
 23 24  1  0  0  0  0
 24 25  2  0  0  0  0
 25 28  1  0  0  0  0
 27 26  1  0  0  0  0
 28 27  2  0  0  0  0
 29  6  1  0  0  0  0
 31 36  1  0  0  0  0
 32 34  1  0  0  0  0
 33 35  1  0  0  0  0
 33 30  1  0  0  0  0
 34 33  2  0  0  0  0
 36 29  1  0  0  0  0
 36 35  2  0  0  0  0
 37 31  2  0  0  0  0
 37 34  1  0  0  0  0
M  END
>  <MODEL>
8

>  <REMARK>
 VINA RESULT:      -7.6      4.652      6.918
  Name = 
  12 active torsions:
  status: ('A' for Active; 'I' for Inactive)
    1  A    between atoms: C_4  and  N_36
    2  A    between atoms: C_8  and  C_12
    3  A    between atoms: C_12  and  N_25
    4  A    between atoms: C_13  and  C_24
    5  A    between atoms: C_16  and  C_33
    6  A    between atoms: C_17  and  N_27
    7  A    between atoms: C_17  and  C_33
    8  A    between atoms: C_18  and  O_31
    9  A    between atoms: C_22  and  C_30
   10  A    between atoms: N_25  and  C_26
   11  A    between atoms: C_26  and  N_27
   12  A    between atoms: C_30  and  C_34
                            x       y       z     vdW  Elec       q    Type
                         _______ _______ _______ _____ _____    ______ ____

>  <TORSDO>
F 12

$$$$
=
 OpenBabel10222421153D

 37 39  0  0  1  0  0  0  0  0999 V2000
  188.3670  178.1390  140.4620 C   0  0  0  0  0  0  0  0  0  0  0  0
  187.0810  178.4050  140.8160 N   0  0  0  0  0  0  0  0  0  0  0  0
  189.2180  177.4510  141.3640 C   0  0  0  0  0  0  0  0  0  0  0  0
  186.5590  178.0460  142.0200 C   0  0  0  0  0  0  0  0  0  0  0  0
  187.3650  177.3620  142.9340 C   0  0  0  0  0  3  0  0  0  0  0  0
  188.6860  177.0580  142.6040 C   0  0  0  0  0  0  0  0  0  0  0  0
  182.8370  178.6760  141.6690 C   0  0  0  0  0  3  0  0  0  0  0  0
  185.1550  178.3750  142.3460 C   0  0  0  0  0  0  0  0  0  0  0  0
  183.1370  179.3360  145.2520 F   0  0  0  0  0  0  0  0  0  0  0  0
  184.1620  178.3630  141.3520 C   0  0  0  0  0  3  0  0  0  0  0  0
  184.7960  178.7060  143.6620 C   0  0  0  0  0  3  0  0  0  0  0  0
  182.4920  179.0030  142.9830 C   0  0  0  0  0  3  0  0  0  0  0  0
  183.4710  179.0190  143.9790 C   0  0  0  0  0  0  0  0  0  0  0  0
  191.6890  177.8770  141.5260 C   0  0  0  0  0  1  0  0  0  0  0  0
  190.5610  177.1280  141.0960 O   0  0  0  0  0  0  0  0  0  0  0  0
  188.7930  178.5330  139.0880 C   0  0  0  0  0  2  0  0  0  0  0  0
  187.6370  178.5510  138.2030 N   0  0  0  0  0  2  0  0  0  0  0  0
  185.8860  177.5050  136.4730 S   0  0  0  0  0  0  0  0  0  0  0  0
  187.1430  177.3910  137.5270 C   0  0  0  0  0  0  0  0  0  0  0  0
  187.7940  176.1380  137.7590 N   0  0  0  0  0  2  0  0  0  0  0  0
  187.8070  175.0370  136.8040 C   0  0  2  0  0  3  0  0  0  0  0  0
  186.9120  174.0510  137.2170 O   0  0  0  0  0  1  0  0  0  0  0  0
  189.2030  174.4420  136.7180 C   0  0  0  0  0  2  0  0  0  0  0  0
  190.2420  175.4640  137.0390 C   0  0  0  0  0  3  0  0  0  0  0  0
  191.1700  175.2120  137.9070 N   0  0  0  0  0  0  0  0  0  0  0  0
  193.6210  175.7130  136.3980 O   0  0  0  0  0  1  0  0  0  0  0  0
  193.3310  176.3550  137.5970 C   0  0  0  0  0  3  0  0  0  0  0  0
  192.2090  176.1280  138.2880 C   0  0  0  0  0  3  0  0  0  0  0  0
  189.5320  176.3460  143.6130 C   0  0  0  0  0  2  0  0  0  0  0  0
  186.0540  178.3330  146.9540 Cl  0  0  0  0  0  0  0  0  0  0  0  0
  190.2310  176.7990  145.9740 C   0  0  0  0  0  3  0  0  0  0  0  0
  188.3630  178.2530  149.2330 Cl  0  0  0  0  0  0  0  0  0  0  0  0
  187.6730  177.7500  146.6030 C   0  0  0  0  0  0  0  0  0  0  0  0
  188.6720  177.7140  147.5910 C   0  0  0  0  0  0  0  0  0  0  0  0
  187.9610  177.3100  145.3080 C   0  0  0  0  0  3  0  0  0  0  0  0
  189.2380  176.8380  144.9900 C   0  0  0  0  0  0  0  0  0  0  0  0
  189.9480  177.2370  147.2700 C   0  0  0  0  0  3  0  0  0  0  0  0
  1  2  2  0  0  0  0
  1  3  1  0  0  0  0
  2  4  1  0  0  0  0
  3  6  2  0  0  0  0
  4  8  1  0  0  0  0
  4  5  2  0  0  0  0
  6  5  1  0  0  0  0
  6 29  1  0  0  0  0
  7 12  1  0  0  0  0
  8 11  2  0  0  0  0
 10  7  2  0  0  0  0
 10  8  1  0  0  0  0
 11 13  1  0  0  0  0
 12 13  2  0  0  0  0
 13  9  1  0  0  0  0
 15  3  1  0  0  0  0
 15 14  1  0  0  0  0
 16  1  1  0  0  0  0
 17 16  1  0  0  0  0
 18 19  2  0  0  0  0
 19 20  1  0  0  0  0
 19 17  1  0  0  0  0
 21 22  1  1  0  0  0
 21 20  1  0  0  0  0
 23 21  1  0  0  0  0
 23 24  1  0  0  0  0
 24 25  2  0  0  0  0
 25 28  1  0  0  0  0
 26 27  1  0  0  0  0
 27 28  2  0  0  0  0
 29 36  1  0  0  0  0
 31 37  1  0  0  0  0
 33 30  1  0  0  0  0
 33 34  1  0  0  0  0
 34 32  1  0  0  0  0
 35 33  2  0  0  0  0
 36 35  1  0  0  0  0
 36 31  2  0  0  0  0
 37 34  2  0  0  0  0
M  END
>  <MODEL>
9

>  <REMARK>
 VINA RESULT:      -7.6      4.048      7.374
  Name = 
  12 active torsions:
  status: ('A' for Active; 'I' for Inactive)
    1  A    between atoms: C_4  and  N_36
    2  A    between atoms: C_8  and  C_12
    3  A    between atoms: C_12  and  N_25
    4  A    between atoms: C_13  and  C_24
    5  A    between atoms: C_16  and  C_33
    6  A    between atoms: C_17  and  N_27
    7  A    between atoms: C_17  and  C_33
    8  A    between atoms: C_18  and  O_31
    9  A    between atoms: C_22  and  C_30
   10  A    between atoms: N_25  and  C_26
   11  A    between atoms: C_26  and  N_27
   12  A    between atoms: C_30  and  C_34
                            x       y       z     vdW  Elec       q    Type
                         _______ _______ _______ _____ _____    ______ ____

>  <TORSDO>
F 12

$$$$
