=
 OpenBabel10222420033D

 54 61  0  0  1  0  0  0  0  0999 V2000
  188.8280  178.5120  138.8850 C   0  0  0  0  0  2  0  0  0  0  0  0
  188.7460  177.2700  141.6540 C   0  0  0  0  0  0  0  0  0  0  0  0
  189.7650  177.4660  139.3840 C   0  0  0  0  0  0  0  0  0  0  0  0
  187.4310  177.9710  139.0000 C   0  0  1  0  0  3  0  0  0  0  0  0
  188.3530  177.0540  144.0300 N   0  0  0  0  0  0  0  0  0  0  0  0
  189.1400  176.8490  142.9390 C   0  0  0  0  0  3  0  0  0  0  0  0
  184.9360  178.7040  144.2900 S   0  0  0  0  0  0  0  0  0  0  0  0
  186.2860  177.9330  144.9340 C   0  0  0  0  0  0  0  0  0  0  0  0
  189.6760  176.9840  140.5910 N   0  0  0  0  0  0  0  0  0  0  0  0
  186.7010  178.1140  142.6510 C   0  0  0  0  0  0  0  0  0  0  0  0
  187.1600  177.6780  143.8990 C   0  0  0  0  0  0  0  0  0  0  0  0
  185.4450  178.7260  142.6750 C   0  0  0  0  0  3  0  0  0  0  0  0
  187.4690  177.8980  141.4990 C   0  0  0  0  0  0  0  0  0  0  0  0
  186.9150  178.3010  140.2750 O   0  0  0  0  0  0  0  0  0  0  0  0
  190.8210  176.9550  138.4830 C   0  0  0  0  0  0  0  0  0  0  0  0
  192.1450  176.8240  138.9290 C   0  0  0  0  0  3  0  0  0  0  0  0
  190.5160  176.6090  137.1560 C   0  0  0  0  0  3  0  0  0  0  0  0
  193.1440  176.3640  138.0680 C   0  0  0  0  0  3  0  0  0  0  0  0
  191.5120  176.1430  136.2950 C   0  0  0  0  0  3  0  0  0  0  0  0
  192.8290  176.0130  136.7470 C   0  0  0  0  0  0  0  0  0  0  0  0
  194.8270  176.7050  135.4500 C   0  0  0  0  0  2  0  0  0  0  0  0
  196.1510  176.0530  135.1250 C   0  0  0  0  0  2  0  0  0  0  0  0
  195.2660  173.5650  135.2060 C   0  0  0  0  0  2  0  0  0  0  0  0
  194.7410  174.4380  136.3330 C   0  0  1  0  0  3  0  0  0  0  0  0
  196.1300  174.6770  135.7710 C   0  0  2  0  0  0  0  0  0  0  0  0
  193.8850  175.5670  135.7820 C   0  0  1  0  0  3  0  0  0  0  0  0
  197.1090  174.3580  136.7300 O   0  0  0  0  0  0  0  0  0  0  0  0
  199.1670  173.4910  136.1480 O   0  0  0  0  0  0  0  0  0  0  0  0
  198.4500  173.2770  134.9530 C   0  0  0  0  0  2  0  0  0  0  0  0
  197.7930  173.2130  136.2830 C   0  0  2  0  0  0  0  0  0  0  0  0
  196.6550  172.0370  138.0690 O   0  0  0  0  0  1  0  0  0  0  0  0
  197.5590  171.8850  137.0130 C   0  0  1  0  0  3  0  0  0  0  0  0
  197.0620  170.8810  136.0880 N   0  0  0  0  0  2  0  0  0  0  0  0
  198.0910  169.8630  135.9670 C   0  0  0  0  0  1  0  0  0  0  0  0
  186.4720  177.5460  146.2950 N   0  0  0  0  0  2  0  0  0  0  0  0
  186.6020  178.5260  147.3590 C   0  0  0  0  0  2  0  0  0  0  0  0
  187.9200  178.3200  148.0760 C   0  0  0  0  0  2  0  0  0  0  0  0
  188.4530  176.9370  147.7620 C   0  0  0  0  0  1  0  0  0  0  0  0
  186.5550  178.5800  137.9170 C   0  0  0  0  0  2  0  0  0  0  0  0
  182.9560  177.2840  138.1280 N   0  0  0  0  0  2  0  0  0  0  0  0
  185.1470  178.4370  138.2620 N   0  0  0  0  0  2  0  0  0  0  0  0
  184.7370  176.6900  136.7640 O   0  0  0  0  0  0  0  0  0  0  0  0
  184.2990  177.4420  137.6760 C   0  0  0  0  0  0  0  0  0  0  0  0
  182.3450  178.1750  139.1050 C   0  0  0  0  0  2  0  0  0  0  0  0
  183.0400  180.9370  138.9380 O   0  0  0  0  0  0  0  0  0  0  0  0
  181.5640  179.2000  138.4260 N   0  0  0  0  0  2  0  0  0  0  0  0
  181.9670  180.5690  138.3810 C   0  0  0  0  0  0  0  0  0  0  0  0
  179.8800  182.1660  135.5780 C   0  0  0  0  0  2  0  0  0  0  0  0
  181.7290  182.8870  137.7400 N   0  0  0  0  0  2  0  0  0  0  0  0
  180.3490  183.5570  135.8630 C   0  0  0  0  0  0  0  0  0  0  0  0
  180.7850  183.8950  137.2580 C   0  0  0  0  0  2  0  0  0  0  0  0
  181.0850  181.5710  137.7120 C   0  0  1  0  0  3  0  0  0  0  0  0
  180.7980  181.1530  136.2630 C   0  0  0  0  0  2  0  0  0  0  0  0
  180.3250  184.4140  134.9950 O   0  0  0  0  0  0  0  0  0  0  0  0
  1  4  1  0  0  0  0
  1  3  1  0  0  0  0
  2  6  1  0  0  0  0
  3  9  2  0  0  0  0
  4 39  1  6  0  0  0
  4 14  1  0  0  0  0
  6  5  2  0  0  0  0
  7  8  1  0  0  0  0
  8 35  1  0  0  0  0
  9  2  1  0  0  0  0
 10 12  2  0  0  0  0
 10 11  1  0  0  0  0
 11  5  1  0  0  0  0
 11  8  2  0  0  0  0
 12  7  1  0  0  0  0
 13  2  2  0  0  0  0
 13 10  1  0  0  0  0
 14 13  1  0  0  0  0
 15 16  1  0  0  0  0
 15  3  1  0  0  0  0
 17 15  2  0  0  0  0
 18 16  2  0  0  0  0
 19 20  2  0  0  0  0
 19 17  1  0  0  0  0
 20 18  1  0  0  0  0
 21 26  1  0  0  0  0
 22 21  1  0  0  0  0
 22 25  1  0  0  0  0
 23 25  1  0  0  0  0
 24 23  1  6  0  0  0
 25 24  1  0  0  0  0
 25 27  1  1  0  0  0
 26 24  1  0  0  0  0
 26 20  1  1  0  0  0
 28 30  1  0  0  0  0
 29 28  1  0  0  0  0
 29 30  1  0  0  0  0
 30 27  1  1  0  0  0
 30 32  1  0  0  0  0
 32 31  1  1  0  0  0
 33 32  1  0  0  0  0
 34 33  1  0  0  0  0
 35 36  1  0  0  0  0
 36 37  1  0  0  0  0
 38 37  1  0  0  0  0
 39 41  1  0  0  0  0
 40 44  1  0  0  0  0
 42 43  2  0  0  0  0
 43 40  1  0  0  0  0
 43 41  1  0  0  0  0
 46 44  1  0  0  0  0
 47 46  1  0  0  0  0
 47 45  2  0  0  0  0
 48 50  1  0  0  0  0
 48 53  1  0  0  0  0
 50 51  1  0  0  0  0
 51 49  1  0  0  0  0
 52 49  1  0  0  0  0
 52 47  1  6  0  0  0
 53 52  1  0  0  0  0
 54 50  2  0  0  0  0
M  END
>  <MODEL>
1

>  <REMARK>
 VINA RESULT:      -7.8      0.000      0.000
  Name = 
  14 active torsions:
  status: ('A' for Active; 'I' for Inactive)
    1  A    between atoms: N_5  and  C_6
    2  A    between atoms: C_6  and  N_25
    3  A    between atoms: O_7  and  C_43
    4  A    between atoms: O_7  and  C_48
    5  A    between atoms: N_10  and  C_23
    6  A    between atoms: C_12  and  C_13
    7  A    between atoms: C_15  and  N_20
    8  A    between atoms: C_15  and  C_31
    9  A    between atoms: C_16  and  C_50
   10  A    between atoms: N_20  and  C_30
   11  A    between atoms: C_23  and  C_43
   12  A    between atoms: N_24  and  C_50
   13  A    between atoms: C_28  and  C_39
   14  A    between atoms: C_52  and  C_54
                            x       y       z     vdW  Elec       q    Type
                         _______ _______ _______ _____ _____    ______ ____

>  <TORSDO>
F 14

$$$$
=
 OpenBabel10222420033D

 54 61  0  0  1  0  0  0  0  0999 V2000
  188.6580  176.5230  138.8510 C   0  0  0  0  0  2  0  0  0  0  0  0
  186.3310  176.8280  136.9260 C   0  0  0  0  0  0  0  0  0  0  0  0
  188.6630  176.0910  137.4250 C   0  0  0  0  0  0  0  0  0  0  0  0
  188.3470  177.9920  138.8870 C   0  0  1  0  0  3  0  0  0  0  0  0
  184.0530  177.0030  136.1340 N   0  0  0  0  0  0  0  0  0  0  0  0
  185.3160  176.5170  136.0000 C   0  0  0  0  0  3  0  0  0  0  0  0
  182.5980  179.2920  138.8020 S   0  0  0  0  0  0  0  0  0  0  0  0
  182.4980  178.3560  137.4060 C   0  0  0  0  0  0  0  0  0  0  0  0
  187.6210  176.2460  136.6570 N   0  0  0  0  0  0  0  0  0  0  0  0
  184.7030  178.1650  138.1300 C   0  0  0  0  0  0  0  0  0  0  0  0
  183.7420  177.8060  137.1770 C   0  0  0  0  0  0  0  0  0  0  0  0
  184.2340  179.0110  139.1380 C   0  0  0  0  0  3  0  0  0  0  0  0
  186.0210  177.7060  138.0120 C   0  0  0  0  0  0  0  0  0  0  0  0
  186.9450  178.1610  138.9660 O   0  0  0  0  0  0  0  0  0  0  0  0
  189.8860  175.4780  136.8610 C   0  0  0  0  0  0  0  0  0  0  0  0
  190.0580  174.0850  136.8660 C   0  0  0  0  0  3  0  0  0  0  0  0
  190.9030  176.2860  136.3260 C   0  0  0  0  0  3  0  0  0  0  0  0
  191.2250  173.5110  136.3540 C   0  0  0  0  0  3  0  0  0  0  0  0
  192.0670  175.7130  135.8090 C   0  0  0  0  0  3  0  0  0  0  0  0
  192.2330  174.3240  135.8150 C   0  0  0  0  0  0  0  0  0  0  0  0
  194.4750  174.8430  134.8900 C   0  0  0  0  0  2  0  0  0  0  0  0
  195.8600  174.2750  135.0990 C   0  0  0  0  0  2  0  0  0  0  0  0
  195.0690  171.8260  135.6970 C   0  0  0  0  0  2  0  0  0  0  0  0
  194.2390  172.9140  136.3560 C   0  0  1  0  0  3  0  0  0  0  0  0
  195.7180  173.1380  136.0980 C   0  0  2  0  0  0  0  0  0  0  0  0
  193.5180  173.7460  135.3070 C   0  0  1  0  0  3  0  0  0  0  0  0
  196.4230  173.2040  137.3130 O   0  0  0  0  0  0  0  0  0  0  0  0
  198.0020  172.5670  135.7560 O   0  0  0  0  0  0  0  0  0  0  0  0
  198.4270  171.8220  136.8740 C   0  0  0  0  0  2  0  0  0  0  0  0
  197.7960  173.1580  137.0180 C   0  0  2  0  0  0  0  0  0  0  0  0
  198.8070  175.0850  135.9520 O   0  0  0  0  0  1  0  0  0  0  0  0
  198.6260  174.4380  137.1780 C   0  0  1  0  0  3  0  0  0  0  0  0
  197.9840  175.3430  138.1160 N   0  0  0  0  0  2  0  0  0  0  0  0
  198.5900  175.1140  139.4160 C   0  0  0  0  0  1  0  0  0  0  0  0
  181.3550  178.2050  136.5660 N   0  0  0  0  0  2  0  0  0  0  0  0
  181.1500  179.0370  135.3950 C   0  0  0  0  0  2  0  0  0  0  0  0
  180.7270  180.4250  135.8300 C   0  0  0  0  0  2  0  0  0  0  0  0
  179.9950  181.1080  134.6940 C   0  0  0  0  0  1  0  0  0  0  0  0
  189.0110  178.6270  140.0980 C   0  0  0  0  0  2  0  0  0  0  0  0
  190.8170  176.3720  142.6140 N   0  0  0  0  0  2  0  0  0  0  0  0
  189.2880  177.6190  141.1120 N   0  0  0  0  0  2  0  0  0  0  0  0
  191.6130  177.8300  140.9930 O   0  0  0  0  0  0  0  0  0  0  0  0
  190.6150  177.2950  141.5450 C   0  0  0  0  0  0  0  0  0  0  0  0
  189.7250  175.6370  143.2370 C   0  0  0  0  0  2  0  0  0  0  0  0
  189.5480  176.9600  145.7590 O   0  0  0  0  0  0  0  0  0  0  0  0
  188.6670  176.5570  143.6320 N   0  0  0  0  0  2  0  0  0  0  0  0
  188.6360  177.1850  144.9150 C   0  0  0  0  0  0  0  0  0  0  0  0
  185.7810  178.6430  147.0350 C   0  0  0  0  0  2  0  0  0  0  0  0
  186.4330  177.9350  144.2620 N   0  0  0  0  0  2  0  0  0  0  0  0
  184.8350  178.7660  145.8830 C   0  0  0  0  0  0  0  0  0  0  0  0
  185.4000  178.9420  144.5060 C   0  0  0  0  0  2  0  0  0  0  0  0
  187.4880  178.0740  145.2670 C   0  0  1  0  0  3  0  0  0  0  0  0
  186.9440  177.7230  146.6590 C   0  0  0  0  0  2  0  0  0  0  0  0
  183.6280  178.7810  146.0660 O   0  0  0  0  0  0  0  0  0  0  0  0
  1  4  1  0  0  0  0
  2 13  2  0  0  0  0
  3  1  1  0  0  0  0
  4 14  1  0  0  0  0
  4 39  1  1  0  0  0
  5 11  1  0  0  0  0
  6  5  2  0  0  0  0
  6  2  1  0  0  0  0
  7 12  1  0  0  0  0
  8  7  1  0  0  0  0
  9  2  1  0  0  0  0
  9  3  2  0  0  0  0
 10 12  2  0  0  0  0
 11  8  2  0  0  0  0
 11 10  1  0  0  0  0
 13 10  1  0  0  0  0
 13 14  1  0  0  0  0
 15 16  1  0  0  0  0
 15  3  1  0  0  0  0
 17 15  2  0  0  0  0
 18 16  2  0  0  0  0
 19 20  2  0  0  0  0
 19 17  1  0  0  0  0
 20 18  1  0  0  0  0
 21 22  1  0  0  0  0
 21 26  1  0  0  0  0
 22 25  1  0  0  0  0
 23 25  1  0  0  0  0
 24 23  1  6  0  0  0
 25 24  1  0  0  0  0
 25 27  1  1  0  0  0
 26 20  1  1  0  0  0
 26 24  1  0  0  0  0
 28 29  1  0  0  0  0
 28 30  1  0  0  0  0
 29 30  1  0  0  0  0
 30 32  1  0  0  0  0
 30 27  1  1  0  0  0
 32 31  1  6  0  0  0
 32 33  1  0  0  0  0
 33 34  1  0  0  0  0
 35  8  1  0  0  0  0
 36 37  1  0  0  0  0
 36 35  1  0  0  0  0
 38 37  1  0  0  0  0
 39 41  1  0  0  0  0
 40 44  1  0  0  0  0
 41 43  1  0  0  0  0
 42 43  2  0  0  0  0
 43 40  1  0  0  0  0
 44 46  1  0  0  0  0
 46 47  1  0  0  0  0
 47 45  2  0  0  0  0
 49 51  1  0  0  0  0
 49 52  1  0  0  0  0
 50 54  2  0  0  0  0
 50 48  1  0  0  0  0
 51 50  1  0  0  0  0
 52 47  1  6  0  0  0
 52 53  1  0  0  0  0
 53 48  1  0  0  0  0
M  END
>  <MODEL>
2

>  <REMARK>
 VINA RESULT:      -7.7      2.621      7.323
  Name = 
  14 active torsions:
  status: ('A' for Active; 'I' for Inactive)
    1  A    between atoms: N_5  and  C_6
    2  A    between atoms: C_6  and  N_25
    3  A    between atoms: O_7  and  C_43
    4  A    between atoms: O_7  and  C_48
    5  A    between atoms: N_10  and  C_23
    6  A    between atoms: C_12  and  C_13
    7  A    between atoms: C_15  and  N_20
    8  A    between atoms: C_15  and  C_31
    9  A    between atoms: C_16  and  C_50
   10  A    between atoms: N_20  and  C_30
   11  A    between atoms: C_23  and  C_43
   12  A    between atoms: N_24  and  C_50
   13  A    between atoms: C_28  and  C_39
   14  A    between atoms: C_52  and  C_54
                            x       y       z     vdW  Elec       q    Type
                         _______ _______ _______ _____ _____    ______ ____

>  <TORSDO>
F 14

$$$$
=
 OpenBabel10222420033D

 54 61  0  0  1  0  0  0  0  0999 V2000
  188.9660  178.5520  138.6820 C   0  0  0  0  0  2  0  0  0  0  0  0
  188.7540  177.2910  141.4360 C   0  0  0  0  0  0  0  0  0  0  0  0
  189.8350  177.4540  139.1920 C   0  0  0  0  0  0  0  0  0  0  0  0
  187.5400  178.0850  138.7600 C   0  0  1  0  0  3  0  0  0  0  0  0
  188.2970  177.0750  143.8000 N   0  0  0  0  0  0  0  0  0  0  0  0
  189.0960  176.8380  142.7250 C   0  0  0  0  0  3  0  0  0  0  0  0
  184.9660  178.9020  143.9990 S   0  0  0  0  0  0  0  0  0  0  0  0
  186.2580  178.0540  144.6670 C   0  0  0  0  0  0  0  0  0  0  0  0
  189.6920  176.9660  140.3920 N   0  0  0  0  0  0  0  0  0  0  0  0
  186.7350  178.2330  142.3950 C   0  0  0  0  0  0  0  0  0  0  0  0
  187.1410  177.7620  143.6480 C   0  0  0  0  0  0  0  0  0  0  0  0
  185.5130  178.9110  142.3970 C   0  0  0  0  0  3  0  0  0  0  0  0
  187.5170  177.9870  141.2590 C   0  0  0  0  0  0  0  0  0  0  0  0
  187.0130  178.4310  140.0260 O   0  0  0  0  0  0  0  0  0  0  0  0
  190.8830  176.8960  138.3090 C   0  0  0  0  0  0  0  0  0  0  0  0
  192.2030  176.7530  138.7630 C   0  0  0  0  0  3  0  0  0  0  0  0
  190.5730  176.5150  136.9930 C   0  0  0  0  0  3  0  0  0  0  0  0
  193.1950  176.2480  137.9190 C   0  0  0  0  0  3  0  0  0  0  0  0
  191.5620  176.0040  136.1490 C   0  0  0  0  0  3  0  0  0  0  0  0
  192.8760  175.8630  136.6080 C   0  0  0  0  0  0  0  0  0  0  0  0
  194.9640  176.4390  135.3980 C   0  0  0  0  0  2  0  0  0  0  0  0
  196.2430  175.6950  135.0900 C   0  0  0  0  0  2  0  0  0  0  0  0
  195.1640  173.2840  135.0540 C   0  0  0  0  0  2  0  0  0  0  0  0
  194.6720  174.1560  136.1960 C   0  0  1  0  0  3  0  0  0  0  0  0
  196.0930  174.3040  135.6850 C   0  0  2  0  0  0  0  0  0  0  0  0
  193.9250  175.3670  135.6600 C   0  0  1  0  0  3  0  0  0  0  0  0
  197.0120  173.8760  136.6600 O   0  0  0  0  0  0  0  0  0  0  0  0
  199.1790  173.1790  136.2810 O   0  0  0  0  0  0  0  0  0  0  0  0
  198.7010  173.2670  134.9580 C   0  0  0  0  0  2  0  0  0  0  0  0
  197.8170  172.8780  136.0850 C   0  0  2  0  0  0  0  0  0  0  0  0
  198.6920  170.6770  136.5980 O   0  0  0  0  0  1  0  0  0  0  0  0
  197.5160  171.4100  136.4150 C   0  0  1  0  0  3  0  0  0  0  0  0
  196.6940  171.3190  137.6090 N   0  0  0  0  0  2  0  0  0  0  0  0
  195.6010  170.4110  137.3090 C   0  0  0  0  0  1  0  0  0  0  0  0
  186.3930  177.6460  146.0270 N   0  0  0  0  0  2  0  0  0  0  0  0
  186.4360  178.6070  147.1140 C   0  0  0  0  0  2  0  0  0  0  0  0
  187.5680  178.2530  148.0550 C   0  0  0  0  0  2  0  0  0  0  0  0
  188.4200  177.1660  147.4320 C   0  0  0  0  0  1  0  0  0  0  0  0
  186.7220  178.7500  137.6640 C   0  0  0  0  0  2  0  0  0  0  0  0
  184.3360  175.8120  137.0710 N   0  0  0  0  0  2  0  0  0  0  0  0
  185.5320  177.9630  137.3700 N   0  0  0  0  0  2  0  0  0  0  0  0
  186.6390  175.9050  137.3370 O   0  0  0  0  0  0  0  0  0  0  0  0
  185.5510  176.5350  137.2590 C   0  0  0  0  0  0  0  0  0  0  0  0
  183.0520  176.4690  136.8720 C   0  0  0  0  0  2  0  0  0  0  0  0
  181.1840  175.3190  138.6980 O   0  0  0  0  0  0  0  0  0  0  0  0
  182.6060  177.0800  138.1170 N   0  0  0  0  0  2  0  0  0  0  0  0
  181.6640  176.4520  138.9870 C   0  0  0  0  0  0  0  0  0  0  0  0
  179.3250  178.4430  141.2950 C   0  0  0  0  0  2  0  0  0  0  0  0
  182.1500  178.2490  140.5270 N   0  0  0  0  0  2  0  0  0  0  0  0
  180.4070  179.3360  141.8130 C   0  0  0  0  0  0  0  0  0  0  0  0
  181.8150  178.8200  141.8320 C   0  0  0  0  0  2  0  0  0  0  0  0
  181.2150  177.1660  140.2190 C   0  0  1  0  0  3  0  0  0  0  0  0
  179.7990  177.7270  140.0300 C   0  0  0  0  0  2  0  0  0  0  0  0
  180.1430  180.4390  142.2640 O   0  0  0  0  0  0  0  0  0  0  0  0
  1  4  1  0  0  0  0
  1  3  1  0  0  0  0
  2  6  1  0  0  0  0
  3  9  2  0  0  0  0
  4 39  1  6  0  0  0
  4 14  1  0  0  0  0
  6  5  2  0  0  0  0
  7  8  1  0  0  0  0
  8 35  1  0  0  0  0
  9  2  1  0  0  0  0
 10 12  2  0  0  0  0
 10 11  1  0  0  0  0
 11  5  1  0  0  0  0
 11  8  2  0  0  0  0
 12  7  1  0  0  0  0
 13  2  2  0  0  0  0
 13 10  1  0  0  0  0
 14 13  1  0  0  0  0
 15 16  1  0  0  0  0
 15  3  1  0  0  0  0
 17 15  2  0  0  0  0
 18 16  2  0  0  0  0
 19 20  2  0  0  0  0
 19 17  1  0  0  0  0
 20 18  1  0  0  0  0
 21 26  1  0  0  0  0
 22 21  1  0  0  0  0
 22 25  1  0  0  0  0
 23 25  1  0  0  0  0
 24 23  1  6  0  0  0
 25 24  1  0  0  0  0
 25 27  1  1  0  0  0
 26 24  1  0  0  0  0
 26 20  1  1  0  0  0
 29 30  1  0  0  0  0
 29 28  1  0  0  0  0
 30 28  1  0  0  0  0
 30 32  1  0  0  0  0
 30 27  1  1  0  0  0
 32 31  1  1  0  0  0
 32 33  1  0  0  0  0
 34 33  1  0  0  0  0
 35 36  1  0  0  0  0
 36 37  1  0  0  0  0
 38 37  1  0  0  0  0
 40 43  1  0  0  0  0
 41 39  1  0  0  0  0
 43 42  2  0  0  0  0
 43 41  1  0  0  0  0
 44 40  1  0  0  0  0
 44 46  1  0  0  0  0
 45 47  2  0  0  0  0
 46 47  1  0  0  0  0
 48 50  1  0  0  0  0
 49 51  1  0  0  0  0
 50 51  1  0  0  0  0
 50 54  2  0  0  0  0
 52 47  1  6  0  0  0
 52 49  1  0  0  0  0
 53 52  1  0  0  0  0
 53 48  1  0  0  0  0
M  END
>  <MODEL>
3

>  <REMARK>
 VINA RESULT:      -7.7      2.534      2.726
  Name = 
  14 active torsions:
  status: ('A' for Active; 'I' for Inactive)
    1  A    between atoms: N_5  and  C_6
    2  A    between atoms: C_6  and  N_25
    3  A    between atoms: O_7  and  C_43
    4  A    between atoms: O_7  and  C_48
    5  A    between atoms: N_10  and  C_23
    6  A    between atoms: C_12  and  C_13
    7  A    between atoms: C_15  and  N_20
    8  A    between atoms: C_15  and  C_31
    9  A    between atoms: C_16  and  C_50
   10  A    between atoms: N_20  and  C_30
   11  A    between atoms: C_23  and  C_43
   12  A    between atoms: N_24  and  C_50
   13  A    between atoms: C_28  and  C_39
   14  A    between atoms: C_52  and  C_54
                            x       y       z     vdW  Elec       q    Type
                         _______ _______ _______ _____ _____    ______ ____

>  <TORSDO>
F 14

$$$$
=
 OpenBabel10222420033D

 54 61  0  0  1  0  0  0  0  0999 V2000
  188.5210  176.7380  139.2060 C   0  0  0  0  0  2  0  0  0  0  0  0
  186.2960  177.0530  137.1640 C   0  0  0  0  0  0  0  0  0  0  0  0
  188.6130  176.3500  137.7700 C   0  0  0  0  0  0  0  0  0  0  0  0
  188.1750  178.2000  139.2660 C   0  0  1  0  0  3  0  0  0  0  0  0
  184.0620  177.2040  136.2520 N   0  0  0  0  0  0  0  0  0  0  0  0
  185.3410  176.7480  136.1740 C   0  0  0  0  0  3  0  0  0  0  0  0
  182.4120  179.3820  138.8990 S   0  0  0  0  0  0  0  0  0  0  0  0
  182.4100  178.4860  137.4740 C   0  0  0  0  0  0  0  0  0  0  0  0
  187.6120  176.5060  136.9510 N   0  0  0  0  0  0  0  0  0  0  0  0
  184.5760  178.3200  138.3130 C   0  0  0  0  0  0  0  0  0  0  0  0
  183.6770  177.9700  137.2990 C   0  0  0  0  0  0  0  0  0  0  0  0
  184.0330  179.1260  139.3170 C   0  0  0  0  0  3  0  0  0  0  0  0
  185.9080  177.8920  138.2560 C   0  0  0  0  0  0  0  0  0  0  0  0
  186.7680  178.3370  139.2720 O   0  0  0  0  0  0  0  0  0  0  0  0
  189.8780  175.7790  137.2580 C   0  0  0  0  0  0  0  0  0  0  0  0
  189.8760  174.8800  136.1800 C   0  0  0  0  0  3  0  0  0  0  0  0
  191.1030  176.1170  137.8570 C   0  0  0  0  0  3  0  0  0  0  0  0
  191.0700  174.3240  135.7150 C   0  0  0  0  0  3  0  0  0  0  0  0
  192.2990  175.5670  137.3890 C   0  0  0  0  0  3  0  0  0  0  0  0
  192.2900  174.6720  136.3140 C   0  0  0  0  0  0  0  0  0  0  0  0
  194.0770  174.6950  134.5940 C   0  0  0  0  0  2  0  0  0  0  0  0
  195.5830  174.5740  134.6360 C   0  0  0  0  0  2  0  0  0  0  0  0
  195.6840  173.0790  136.8120 C   0  0  0  0  0  2  0  0  0  0  0  0
  194.6900  174.2250  136.9030 C   0  0  1  0  0  3  0  0  0  0  0  0
  195.9650  174.3870  136.0960 C   0  0  2  0  0  0  0  0  0  0  0  0
  193.5830  174.0550  135.8750 C   0  0  1  0  0  3  0  0  0  0  0  0
  196.8150  175.3280  136.7050 O   0  0  0  0  0  0  0  0  0  0  0  0
  199.1100  175.0850  136.7100 O   0  0  0  0  0  0  0  0  0  0  0  0
  198.7130  173.7780  136.3630 C   0  0  0  0  0  2  0  0  0  0  0  0
  197.8990  174.6300  137.2660 C   0  0  2  0  0  0  0  0  0  0  0  0
  199.1800  175.0750  139.2730 O   0  0  0  0  0  1  0  0  0  0  0  0
  197.9910  174.5190  138.7930 C   0  0  1  0  0  3  0  0  0  0  0  0
  196.8580  175.1800  139.4170 N   0  0  0  0  0  2  0  0  0  0  0  0
  197.2590  175.5350  140.7670 C   0  0  0  0  0  1  0  0  0  0  0  0
  181.3180  178.3360  136.5680 N   0  0  0  0  0  2  0  0  0  0  0  0
  180.1050  177.6310  136.9400 C   0  0  0  0  0  2  0  0  0  0  0  0
  180.3990  176.1490  137.0510 C   0  0  0  0  0  2  0  0  0  0  0  0
  180.0300  175.6650  138.4380 C   0  0  0  0  0  1  0  0  0  0  0  0
  188.7580  178.8120  140.5300 C   0  0  0  0  0  2  0  0  0  0  0  0
  190.8610  176.4280  142.6680 N   0  0  0  0  0  2  0  0  0  0  0  0
  189.1570  177.7670  141.4630 N   0  0  0  0  0  2  0  0  0  0  0  0
  191.4380  177.9030  140.9720 O   0  0  0  0  0  0  0  0  0  0  0  0
  190.5230  177.3870  141.6670 C   0  0  0  0  0  0  0  0  0  0  0  0
  189.8570  175.7130  143.4440 C   0  0  0  0  0  2  0  0  0  0  0  0
  189.5770  177.1570  145.8900 O   0  0  0  0  0  0  0  0  0  0  0  0
  188.7530  176.6050  143.7740 N   0  0  0  0  0  2  0  0  0  0  0  0
  188.6710  177.2970  145.0200 C   0  0  0  0  0  0  0  0  0  0  0  0
  185.6710  178.6810  146.9820 C   0  0  0  0  0  2  0  0  0  0  0  0
  186.4810  177.9710  144.2520 N   0  0  0  0  0  2  0  0  0  0  0  0
  184.7790  178.7650  145.7850 C   0  0  0  0  0  0  0  0  0  0  0  0
  185.4070  178.9470  144.4350 C   0  0  0  0  0  2  0  0  0  0  0  0
  187.4810  178.1520  145.3070 C   0  0  1  0  0  3  0  0  0  0  0  0
  186.8790  177.7960  146.6740 C   0  0  0  0  0  2  0  0  0  0  0  0
  183.5650  178.7430  145.9080 O   0  0  0  0  0  0  0  0  0  0  0  0
  1  4  1  0  0  0  0
  2 13  2  0  0  0  0
  3  1  1  0  0  0  0
  4 14  1  0  0  0  0
  4 39  1  1  0  0  0
  5 11  1  0  0  0  0
  6  5  2  0  0  0  0
  6  2  1  0  0  0  0
  7 12  1  0  0  0  0
  8  7  1  0  0  0  0
  9  2  1  0  0  0  0
  9  3  2  0  0  0  0
 10 12  2  0  0  0  0
 11  8  2  0  0  0  0
 11 10  1  0  0  0  0
 13 10  1  0  0  0  0
 13 14  1  0  0  0  0
 15  3  1  0  0  0  0
 15 17  1  0  0  0  0
 16 15  2  0  0  0  0
 18 16  1  0  0  0  0
 18 20  2  0  0  0  0
 19 17  2  0  0  0  0
 20 19  1  0  0  0  0
 21 22  1  0  0  0  0
 21 26  1  0  0  0  0
 22 25  1  0  0  0  0
 24 23  1  1  0  0  0
 25 27  1  1  0  0  0
 25 23  1  0  0  0  0
 25 24  1  0  0  0  0
 26 20  1  1  0  0  0
 26 24  1  0  0  0  0
 28 30  1  0  0  0  0
 29 28  1  0  0  0  0
 29 30  1  0  0  0  0
 30 27  1  6  0  0  0
 30 32  1  0  0  0  0
 32 31  1  1  0  0  0
 32 33  1  0  0  0  0
 33 34  1  0  0  0  0
 35 36  1  0  0  0  0
 35  8  1  0  0  0  0
 36 37  1  0  0  0  0
 37 38  1  0  0  0  0
 39 41  1  0  0  0  0
 40 44  1  0  0  0  0
 41 43  1  0  0  0  0
 42 43  2  0  0  0  0
 43 40  1  0  0  0  0
 44 46  1  0  0  0  0
 46 47  1  0  0  0  0
 47 45  2  0  0  0  0
 49 51  1  0  0  0  0
 49 52  1  0  0  0  0
 50 54  2  0  0  0  0
 50 48  1  0  0  0  0
 51 50  1  0  0  0  0
 52 47  1  6  0  0  0
 52 53  1  0  0  0  0
 53 48  1  0  0  0  0
M  END
>  <MODEL>
4

>  <REMARK>
 VINA RESULT:      -7.6      2.911      7.128
  Name = 
  14 active torsions:
  status: ('A' for Active; 'I' for Inactive)
    1  A    between atoms: N_5  and  C_6
    2  A    between atoms: C_6  and  N_25
    3  A    between atoms: O_7  and  C_43
    4  A    between atoms: O_7  and  C_48
    5  A    between atoms: N_10  and  C_23
    6  A    between atoms: C_12  and  C_13
    7  A    between atoms: C_15  and  N_20
    8  A    between atoms: C_15  and  C_31
    9  A    between atoms: C_16  and  C_50
   10  A    between atoms: N_20  and  C_30
   11  A    between atoms: C_23  and  C_43
   12  A    between atoms: N_24  and  C_50
   13  A    between atoms: C_28  and  C_39
   14  A    between atoms: C_52  and  C_54
                            x       y       z     vdW  Elec       q    Type
                         _______ _______ _______ _____ _____    ______ ____

>  <TORSDO>
F 14

$$$$
=
 OpenBabel10222420033D

 54 61  0  0  1  0  0  0  0  0999 V2000
  188.7630  176.9070  137.6670 C   0  0  0  0  0  2  0  0  0  0  0  0
  190.0260  174.3190  136.7080 C   0  0  0  0  0  0  0  0  0  0  0  0
  188.0130  175.7220  137.1630 C   0  0  0  0  0  0  0  0  0  0  0  0
  189.6030  176.4590  138.8300 C   0  0  1  0  0  3  0  0  0  0  0  0
  191.6580  172.8100  135.7540 N   0  0  0  0  0  0  0  0  0  0  0  0
  190.3690  173.2260  135.8880 C   0  0  0  0  0  3  0  0  0  0  0  0
  194.8310  174.1730  137.3510 S   0  0  0  0  0  0  0  0  0  0  0  0
  193.9850  173.1120  136.3540 C   0  0  0  0  0  0  0  0  0  0  0  0
  188.6240  174.6450  136.7570 N   0  0  0  0  0  0  0  0  0  0  0  0
  192.3790  174.5380  137.2550 C   0  0  0  0  0  0  0  0  0  0  0  0
  192.6500  173.4510  136.4150 C   0  0  0  0  0  0  0  0  0  0  0  0
  193.5040  175.0840  137.8780 C   0  0  0  0  0  3  0  0  0  0  0  0
  191.0630  174.9790  137.4400 C   0  0  0  0  0  0  0  0  0  0  0  0
  190.8610  176.0300  138.3470 O   0  0  0  0  0  0  0  0  0  0  0  0
  186.5340  175.7660  137.1280 C   0  0  0  0  0  0  0  0  0  0  0  0
  185.7790  174.5890  137.2340 C   0  0  0  0  0  3  0  0  0  0  0  0
  185.8640  176.9910  136.9700 C   0  0  0  0  0  3  0  0  0  0  0  0
  184.3830  174.6320  137.1760 C   0  0  0  0  0  3  0  0  0  0  0  0
  184.4690  177.0370  136.9180 C   0  0  0  0  0  3  0  0  0  0  0  0
  183.7210  175.8590  137.0260 C   0  0  0  0  0  0  0  0  0  0  0  0
  181.5610  175.3130  138.1150 C   0  0  0  0  0  2  0  0  0  0  0  0
  180.2430  176.0370  138.2670 C   0  0  0  0  0  2  0  0  0  0  0  0
  180.4280  177.4270  136.0270 C   0  0  0  0  0  2  0  0  0  0  0  0
  181.7230  177.3670  136.8180 C   0  0  1  0  0  3  0  0  0  0  0  0
  180.3910  177.3670  137.5430 C   0  0  2  0  0  0  0  0  0  0  0  0
  182.2290  175.9360  136.9070 C   0  0  1  0  0  3  0  0  0  0  0  0
  180.2270  178.5610  138.2680 O   0  0  0  0  0  0  0  0  0  0  0  0
  181.5690  180.1350  139.2900 O   0  0  0  0  0  0  0  0  0  0  0  0
  182.4980  179.5310  138.4190 C   0  0  0  0  0  2  0  0  0  0  0  0
  181.3870  178.7620  139.0350 C   0  0  2  0  0  0  0  0  0  0  0  0
  182.9380  177.7570  140.6020 O   0  0  0  0  0  1  0  0  0  0  0  0
  181.5820  177.9260  140.3070 C   0  0  1  0  0  3  0  0  0  0  0  0
  180.9140  178.5560  141.4320 N   0  0  0  0  0  2  0  0  0  0  0  0
  181.9240  178.8040  142.4460 C   0  0  0  0  0  1  0  0  0  0  0  0
  194.5320  172.0140  135.6250 N   0  0  0  0  0  2  0  0  0  0  0  0
  194.5000  170.6590  136.1440 C   0  0  0  0  0  2  0  0  0  0  0  0
  195.1630  170.6250  137.5060 C   0  0  0  0  0  2  0  0  0  0  0  0
  196.5940  170.1480  137.3570 C   0  0  0  0  0  1  0  0  0  0  0  0
  189.7900  177.6130  139.8020 C   0  0  0  0  0  2  0  0  0  0  0  0
  191.7410  176.9050  143.0220 N   0  0  0  0  0  2  0  0  0  0  0  0
  190.1680  177.1140  141.1170 N   0  0  0  0  0  2  0  0  0  0  0  0
  192.3640  177.9070  141.0240 O   0  0  0  0  0  0  0  0  0  0  0  0
  191.4630  177.3300  141.6890 C   0  0  0  0  0  0  0  0  0  0  0  0
  190.7890  176.1450  143.8200 C   0  0  0  0  0  2  0  0  0  0  0  0
  188.0020  175.9330  143.2460 O   0  0  0  0  0  0  0  0  0  0  0  0
  189.7530  177.0300  144.3370 N   0  0  0  0  0  2  0  0  0  0  0  0
  188.3730  176.8710  144.0080 C   0  0  0  0  0  0  0  0  0  0  0  0
  186.1290  178.6350  146.5800 C   0  0  0  0  0  2  0  0  0  0  0  0
  186.1200  177.7180  143.7920 N   0  0  0  0  0  2  0  0  0  0  0  0
  184.9600  178.7480  145.6540 C   0  0  0  0  0  0  0  0  0  0  0  0
  185.2170  178.8020  144.1780 C   0  0  0  0  0  2  0  0  0  0  0  0
  187.3760  177.8510  144.5330 C   0  0  1  0  0  3  0  0  0  0  0  0
  187.1340  177.6220  146.0320 C   0  0  0  0  0  2  0  0  0  0  0  0
  183.8250  178.8520  146.0920 O   0  0  0  0  0  0  0  0  0  0  0  0
  1  4  1  0  0  0  0
  2  9  1  0  0  0  0
  2 13  2  0  0  0  0
  3  1  1  0  0  0  0
  4 39  1  1  0  0  0
  5  6  2  0  0  0  0
  5 11  1  0  0  0  0
  6  2  1  0  0  0  0
  7 12  1  0  0  0  0
  8 11  2  0  0  0  0
  8  7  1  0  0  0  0
  9  3  2  0  0  0  0
 10 13  1  0  0  0  0
 10 12  2  0  0  0  0
 11 10  1  0  0  0  0
 13 14  1  0  0  0  0
 14  4  1  0  0  0  0
 15  3  1  0  0  0  0
 15 16  1  0  0  0  0
 17 15  2  0  0  0  0
 18 16  2  0  0  0  0
 19 17  1  0  0  0  0
 19 20  2  0  0  0  0
 20 18  1  0  0  0  0
 21 22  1  0  0  0  0
 23 25  1  0  0  0  0
 24 23  1  6  0  0  0
 24 26  1  0  0  0  0
 24 25  1  0  0  0  0
 25 22  1  0  0  0  0
 25 27  1  1  0  0  0
 26 20  1  1  0  0  0
 26 21  1  0  0  0  0
 29 30  1  0  0  0  0
 29 28  1  0  0  0  0
 30 27  1  6  0  0  0
 30 28  1  0  0  0  0
 30 32  1  0  0  0  0
 32 31  1  1  0  0  0
 32 33  1  0  0  0  0
 33 34  1  0  0  0  0
 35 36  1  0  0  0  0
 35  8  1  0  0  0  0
 36 37  1  0  0  0  0
 38 37  1  0  0  0  0
 39 41  1  0  0  0  0
 40 44  1  0  0  0  0
 41 43  1  0  0  0  0
 42 43  2  0  0  0  0
 43 40  1  0  0  0  0
 44 46  1  0  0  0  0
 45 47  2  0  0  0  0
 47 46  1  0  0  0  0
 49 51  1  0  0  0  0
 49 52  1  0  0  0  0
 50 54  2  0  0  0  0
 50 48  1  0  0  0  0
 51 50  1  0  0  0  0
 52 47  1  6  0  0  0
 52 53  1  0  0  0  0
 53 48  1  0  0  0  0
M  END
>  <MODEL>
5

>  <REMARK>
 VINA RESULT:      -7.5      3.751     11.764
  Name = 
  14 active torsions:
  status: ('A' for Active; 'I' for Inactive)
    1  A    between atoms: N_5  and  C_6
    2  A    between atoms: C_6  and  N_25
    3  A    between atoms: O_7  and  C_43
    4  A    between atoms: O_7  and  C_48
    5  A    between atoms: N_10  and  C_23
    6  A    between atoms: C_12  and  C_13
    7  A    between atoms: C_15  and  N_20
    8  A    between atoms: C_15  and  C_31
    9  A    between atoms: C_16  and  C_50
   10  A    between atoms: N_20  and  C_30
   11  A    between atoms: C_23  and  C_43
   12  A    between atoms: N_24  and  C_50
   13  A    between atoms: C_28  and  C_39
   14  A    between atoms: C_52  and  C_54
                            x       y       z     vdW  Elec       q    Type
                         _______ _______ _______ _____ _____    ______ ____

>  <TORSDO>
F 14

$$$$
=
 OpenBabel10222420033D

 54 61  0  0  1  0  0  0  0  0999 V2000
  185.0550  177.4720  137.9350 C   0  0  0  0  0  2  0  0  0  0  0  0
  183.1750  179.7490  138.6420 C   0  0  0  0  0  0  0  0  0  0  0  0
  185.2640  178.4430  139.0460 C   0  0  0  0  0  0  0  0  0  0  0  0
  183.7310  176.7950  138.1580 C   0  0  1  0  0  3  0  0  0  0  0  0
  181.5280  181.4960  138.3650 N   0  0  0  0  0  0  0  0  0  0  0  0
  182.6910  181.0440  138.9070 C   0  0  0  0  0  3  0  0  0  0  0  0
  179.0800  179.7360  136.0440 S   0  0  0  0  0  0  0  0  0  0  0  0
  179.6140  181.0520  136.9480 C   0  0  0  0  0  0  0  0  0  0  0  0
  184.4170  179.4040  139.2860 N   0  0  0  0  0  0  0  0  0  0  0  0
  181.2220  179.3950  137.2490 C   0  0  0  0  0  0  0  0  0  0  0  0
  180.8050  180.6970  137.5470 C   0  0  0  0  0  0  0  0  0  0  0  0
  180.3620  178.6890  136.4030 C   0  0  0  0  0  3  0  0  0  0  0  0
  182.4000  178.8830  137.8080 C   0  0  0  0  0  0  0  0  0  0  0  0
  182.7190  177.5480  137.5180 O   0  0  0  0  0  0  0  0  0  0  0  0
  186.4610  178.3090  139.9050 C   0  0  0  0  0  0  0  0  0  0  0  0
  186.3510  178.3560  141.3030 C   0  0  0  0  0  3  0  0  0  0  0  0
  187.7330  178.1480  139.3300 C   0  0  0  0  0  3  0  0  0  0  0  0
  187.4860  178.2530  142.1100 C   0  0  0  0  0  3  0  0  0  0  0  0
  188.8690  178.0390  140.1350 C   0  0  0  0  0  3  0  0  0  0  0  0
  188.7520  178.0860  141.5290 C   0  0  0  0  0  0  0  0  0  0  0  0
  189.9210  179.0080  143.5120 C   0  0  0  0  0  2  0  0  0  0  0  0
  190.7650  178.4080  144.6130 C   0  0  0  0  0  2  0  0  0  0  0  0
  191.7050  176.3970  143.1800 C   0  0  0  0  0  2  0  0  0  0  0  0
  190.2220  176.6520  142.9750 C   0  0  1  0  0  3  0  0  0  0  0  0
  190.8580  176.9170  144.3270 C   0  0  2  0  0  0  0  0  0  0  0  0
  189.9960  178.0250  142.3620 C   0  0  1  0  0  3  0  0  0  0  0  0
  190.3740  176.0070  145.2840 O   0  0  0  0  0  0  0  0  0  0  0  0
  191.7450  177.1280  146.7640 O   0  0  0  0  0  0  0  0  0  0  0  0
  191.3550  176.0290  147.5560 C   0  0  0  0  0  2  0  0  0  0  0  0
  190.4470  176.6260  146.5440 C   0  0  2  0  0  0  0  0  0  0  0  0
  188.0960  177.2120  146.5790 O   0  0  0  0  0  1  0  0  0  0  0  0
  189.3770  177.6590  146.9180 C   0  0  1  0  0  3  0  0  0  0  0  0
  189.4290  177.9490  148.3410 N   0  0  0  0  0  2  0  0  0  0  0  0
  188.0660  177.8950  148.8400 C   0  0  0  0  0  1  0  0  0  0  0  0
  178.9310  182.2930  137.1250 N   0  0  0  0  0  2  0  0  0  0  0  0
  179.2510  183.4630  136.3290 C   0  0  0  0  0  2  0  0  0  0  0  0
  179.9590  184.4840  137.1940 C   0  0  0  0  0  2  0  0  0  0  0  0
  181.1780  185.0070  136.4610 C   0  0  0  0  0  1  0  0  0  0  0  0
  183.7710  175.3900  137.5810 C   0  0  0  0  0  2  0  0  0  0  0  0
  186.5220  173.8230  135.4240 N   0  0  0  0  0  2  0  0  0  0  0  0
  184.9630  175.2090  136.7630 N   0  0  0  0  0  2  0  0  0  0  0  0
  184.8060  172.8790  136.6690 O   0  0  0  0  0  0  0  0  0  0  0  0
  185.4060  173.9260  136.3060 C   0  0  0  0  0  0  0  0  0  0  0  0
  187.3290  174.9720  135.0370 C   0  0  0  0  0  2  0  0  0  0  0  0
  188.0990  175.6590  137.6970 O   0  0  0  0  0  0  0  0  0  0  0  0
  188.6730  174.8450  135.5830 N   0  0  0  0  0  2  0  0  0  0  0  0
  188.9940  175.2100  136.9260 C   0  0  0  0  0  0  0  0  0  0  0  0
  192.3880  176.3770  138.2990 C   0  0  0  0  0  2  0  0  0  0  0  0
  191.2340  174.5230  136.3370 N   0  0  0  0  0  2  0  0  0  0  0  0
  193.1880  175.5110  137.3780 C   0  0  0  0  0  0  0  0  0  0  0  0
  192.5690  174.2440  136.8670 C   0  0  0  0  0  2  0  0  0  0  0  0
  190.4070  175.1030  137.3970 C   0  0  1  0  0  3  0  0  0  0  0  0
  190.9480  176.4830  137.7970 C   0  0  0  0  0  2  0  0  0  0  0  0
  194.3400  175.7990  137.0940 O   0  0  0  0  0  0  0  0  0  0  0  0
  1  4  1  0  0  0  0
  1  3  1  0  0  0  0
  2  6  1  0  0  0  0
  2  9  1  0  0  0  0
  3  9  2  0  0  0  0
  3 15  1  0  0  0  0
  4 39  1  6  0  0  0
  5  6  2  0  0  0  0
  7 12  1  0  0  0  0
  7  8  1  0  0  0  0
  8 35  1  0  0  0  0
  8 11  2  0  0  0  0
 10 11  1  0  0  0  0
 10 13  1  0  0  0  0
 11  5  1  0  0  0  0
 12 10  2  0  0  0  0
 13  2  2  0  0  0  0
 14 13  1  0  0  0  0
 14  4  1  0  0  0  0
 15 16  1  0  0  0  0
 16 18  2  0  0  0  0
 17 15  2  0  0  0  0
 17 19  1  0  0  0  0
 19 20  2  0  0  0  0
 20 18  1  0  0  0  0
 21 22  1  0  0  0  0
 23 25  1  0  0  0  0
 24 23  1  6  0  0  0
 24 25  1  0  0  0  0
 25 22  1  0  0  0  0
 25 27  1  1  0  0  0
 26 20  1  1  0  0  0
 26 24  1  0  0  0  0
 26 21  1  0  0  0  0
 28 29  1  0  0  0  0
 30 27  1  6  0  0  0
 30 28  1  0  0  0  0
 30 32  1  0  0  0  0
 30 29  1  0  0  0  0
 32 31  1  1  0  0  0
 32 33  1  0  0  0  0
 33 34  1  0  0  0  0
 36 35  1  0  0  0  0
 36 37  1  0  0  0  0
 38 37  1  0  0  0  0
 40 43  1  0  0  0  0
 41 39  1  0  0  0  0
 43 42  2  0  0  0  0
 43 41  1  0  0  0  0
 44 40  1  0  0  0  0
 44 46  1  0  0  0  0
 46 47  1  0  0  0  0
 47 45  2  0  0  0  0
 49 51  1  0  0  0  0
 49 52  1  0  0  0  0
 50 48  1  0  0  0  0
 51 50  1  0  0  0  0
 52 47  1  6  0  0  0
 52 53  1  0  0  0  0
 53 48  1  0  0  0  0
 54 50  2  0  0  0  0
M  END
>  <MODEL>
6

>  <REMARK>
 VINA RESULT:      -7.4      3.422     10.316
  Name = 
  14 active torsions:
  status: ('A' for Active; 'I' for Inactive)
    1  A    between atoms: N_5  and  C_6
    2  A    between atoms: C_6  and  N_25
    3  A    between atoms: O_7  and  C_43
    4  A    between atoms: O_7  and  C_48
    5  A    between atoms: N_10  and  C_23
    6  A    between atoms: C_12  and  C_13
    7  A    between atoms: C_15  and  N_20
    8  A    between atoms: C_15  and  C_31
    9  A    between atoms: C_16  and  C_50
   10  A    between atoms: N_20  and  C_30
   11  A    between atoms: C_23  and  C_43
   12  A    between atoms: N_24  and  C_50
   13  A    between atoms: C_28  and  C_39
   14  A    between atoms: C_52  and  C_54
                            x       y       z     vdW  Elec       q    Type
                         _______ _______ _______ _____ _____    ______ ____

>  <TORSDO>
F 14

$$$$
=
 OpenBabel10222420033D

 54 61  0  0  1  0  0  0  0  0999 V2000
  187.0380  177.8280  140.1350 C   0  0  0  0  0  2  0  0  0  0  0  0
  187.2440  177.8770  143.1630 C   0  0  0  0  0  0  0  0  0  0  0  0
  185.9520  178.2530  141.0610 C   0  0  0  0  0  0  0  0  0  0  0  0
  188.2380  178.6920  140.4040 C   0  0  1  0  0  3  0  0  0  0  0  0
  187.9540  177.2810  145.3960 N   0  0  0  0  0  0  0  0  0  0  0  0
  186.9710  177.6290  144.5230 C   0  0  0  0  0  3  0  0  0  0  0  0
  191.6830  176.8150  144.8030 S   0  0  0  0  0  0  0  0  0  0  0  0
  190.3030  176.8180  145.7660 C   0  0  0  0  0  0  0  0  0  0  0  0
  186.1080  178.2400  142.3550 N   0  0  0  0  0  0  0  0  0  0  0  0
  189.5770  177.4020  143.6330 C   0  0  0  0  0  0  0  0  0  0  0  0
  189.2320  177.1610  144.9680 C   0  0  0  0  0  0  0  0  0  0  0  0
  190.9360  177.2540  143.3480 C   0  0  0  0  0  3  0  0  0  0  0  0
  188.5980  177.7890  142.7080 C   0  0  0  0  0  0  0  0  0  0  0  0
  189.0280  178.0800  141.4040 O   0  0  0  0  0  0  0  0  0  0  0  0
  184.6620  178.7120  140.4990 C   0  0  0  0  0  0  0  0  0  0  0  0
  183.4610  178.5000  141.1910 C   0  0  0  0  0  3  0  0  0  0  0  0
  184.6210  179.3530  139.2490 C   0  0  0  0  0  3  0  0  0  0  0  0
  182.2430  178.9130  140.6460 C   0  0  0  0  0  3  0  0  0  0  0  0
  183.4050  179.7710  138.7040 C   0  0  0  0  0  3  0  0  0  0  0  0
  182.2110  179.5590  139.4010 C   0  0  0  0  0  0  0  0  0  0  0  0
  180.2950  181.1310  139.5040 C   0  0  0  0  0  2  0  0  0  0  0  0
  179.4960  181.8890  138.4700 C   0  0  0  0  0  2  0  0  0  0  0  0
  179.8330  180.1400  136.5180 C   0  0  0  0  0  2  0  0  0  0  0  0
  181.0940  180.4120  137.3190 C   0  0  1  0  0  3  0  0  0  0  0  0
  180.0730  181.5150  137.1130 C   0  0  2  0  0  0  0  0  0  0  0  0
  180.9180  179.9670  138.7620 C   0  0  1  0  0  3  0  0  0  0  0  0
  180.6030  182.5280  136.2940 O   0  0  0  0  0  0  0  0  0  0  0  0
  181.4630  184.6630  136.4580 O   0  0  0  0  0  0  0  0  0  0  0  0
  181.8070  184.1490  137.7240 C   0  0  0  0  0  2  0  0  0  0  0  0
  180.5690  183.7320  137.0200 C   0  0  2  0  0  0  0  0  0  0  0  0
  178.9320  184.3700  138.6890 O   0  0  0  0  0  1  0  0  0  0  0  0
  179.2070  184.3720  137.3180 C   0  0  1  0  0  3  0  0  0  0  0  0
  179.1690  185.7350  136.8160 N   0  0  0  0  0  2  0  0  0  0  0  0
  178.9310  186.6040  137.9550 C   0  0  0  0  0  1  0  0  0  0  0  0
  190.2480  176.5760  147.1720 N   0  0  0  0  0  2  0  0  0  0  0  0
  189.0230  176.7470  147.9310 C   0  0  0  0  0  2  0  0  0  0  0  0
  188.9580  178.1610  148.4700 C   0  0  0  0  0  2  0  0  0  0  0  0
  187.5190  178.6340  148.4690 C   0  0  0  0  0  1  0  0  0  0  0  0
  189.0520  178.8500  139.1300 C   0  0  0  0  0  2  0  0  0  0  0  0
  187.6250  176.8690  136.1780 N   0  0  0  0  0  2  0  0  0  0  0  0
  188.2610  178.4590  137.9700 N   0  0  0  0  0  2  0  0  0  0  0  0
  189.4660  176.5030  137.5410 O   0  0  0  0  0  0  0  0  0  0  0  0
  188.4960  177.2480  137.2410 C   0  0  0  0  0  0  0  0  0  0  0  0
  186.5410  177.7210  135.7050 C   0  0  0  0  0  2  0  0  0  0  0  0
  184.4220  175.9520  134.9850 O   0  0  0  0  0  0  0  0  0  0  0  0
  185.3400  177.4820  136.4930 N   0  0  0  0  0  2  0  0  0  0  0  0
  184.3120  176.5830  136.0730 C   0  0  0  0  0  0  0  0  0  0  0  0
  182.1790  175.6680  139.1360 C   0  0  0  0  0  2  0  0  0  0  0  0
  182.1090  175.5980  136.2030 N   0  0  0  0  0  2  0  0  0  0  0  0
  181.0570  175.0980  138.3280 C   0  0  0  0  0  0  0  0  0  0  0  0
  180.8430  175.6110  136.9350 C   0  0  0  0  0  2  0  0  0  0  0  0
  183.0840  176.4320  136.9090 C   0  0  1  0  0  3  0  0  0  0  0  0
  183.4300  175.8080  138.2670 C   0  0  0  0  0  2  0  0  0  0  0  0
  180.2960  174.2740  138.8110 O   0  0  0  0  0  0  0  0  0  0  0  0
  1  4  1  0  0  0  0
  1  3  1  0  0  0  0
  2  6  1  0  0  0  0
  3  9  2  0  0  0  0
  4 39  1  6  0  0  0
  4 14  1  0  0  0  0
  6  5  2  0  0  0  0
  7  8  1  0  0  0  0
  8 35  1  0  0  0  0
  9  2  1  0  0  0  0
 10 11  1  0  0  0  0
 11  5  1  0  0  0  0
 11  8  2  0  0  0  0
 12 10  2  0  0  0  0
 12  7  1  0  0  0  0
 13  2  2  0  0  0  0
 13 10  1  0  0  0  0
 14 13  1  0  0  0  0
 15  3  1  0  0  0  0
 15 16  1  0  0  0  0
 17 15  2  0  0  0  0
 18 16  2  0  0  0  0
 19 17  1  0  0  0  0
 19 20  2  0  0  0  0
 20 18  1  0  0  0  0
 22 21  1  0  0  0  0
 23 25  1  0  0  0  0
 24 23  1  6  0  0  0
 24 26  1  0  0  0  0
 25 27  1  6  0  0  0
 25 24  1  0  0  0  0
 25 22  1  0  0  0  0
 26 20  1  1  0  0  0
 26 21  1  0  0  0  0
 28 30  1  0  0  0  0
 28 29  1  0  0  0  0
 30 27  1  6  0  0  0
 30 32  1  0  0  0  0
 30 29  1  0  0  0  0
 32 31  1  1  0  0  0
 33 32  1  0  0  0  0
 33 34  1  0  0  0  0
 35 36  1  0  0  0  0
 36 37  1  0  0  0  0
 38 37  1  0  0  0  0
 40 43  1  0  0  0  0
 41 39  1  0  0  0  0
 43 42  2  0  0  0  0
 43 41  1  0  0  0  0
 44 40  1  0  0  0  0
 44 46  1  0  0  0  0
 45 47  2  0  0  0  0
 47 46  1  0  0  0  0
 49 52  1  0  0  0  0
 49 51  1  0  0  0  0
 50 54  2  0  0  0  0
 50 48  1  0  0  0  0
 51 50  1  0  0  0  0
 52 47  1  6  0  0  0
 52 53  1  0  0  0  0
 53 48  1  0  0  0  0
M  END
>  <MODEL>
7

>  <REMARK>
 VINA RESULT:      -7.4      5.135     11.148
  Name = 
  14 active torsions:
  status: ('A' for Active; 'I' for Inactive)
    1  A    between atoms: N_5  and  C_6
    2  A    between atoms: C_6  and  N_25
    3  A    between atoms: O_7  and  C_43
    4  A    between atoms: O_7  and  C_48
    5  A    between atoms: N_10  and  C_23
    6  A    between atoms: C_12  and  C_13
    7  A    between atoms: C_15  and  N_20
    8  A    between atoms: C_15  and  C_31
    9  A    between atoms: C_16  and  C_50
   10  A    between atoms: N_20  and  C_30
   11  A    between atoms: C_23  and  C_43
   12  A    between atoms: N_24  and  C_50
   13  A    between atoms: C_28  and  C_39
   14  A    between atoms: C_52  and  C_54
                            x       y       z     vdW  Elec       q    Type
                         _______ _______ _______ _____ _____    ______ ____

>  <TORSDO>
F 14

$$$$
=
 OpenBabel10222420033D

 54 61  0  0  1  0  0  0  0  0999 V2000
  189.2580  178.2940  138.7040 C   0  0  0  0  0  2  0  0  0  0  0  0
  189.1910  177.0820  141.4870 C   0  0  0  0  0  0  0  0  0  0  0  0
  190.1970  177.2530  139.2090 C   0  0  0  0  0  0  0  0  0  0  0  0
  187.8610  177.7560  138.8330 C   0  0  1  0  0  3  0  0  0  0  0  0
  188.8130  176.8910  143.8670 N   0  0  0  0  0  0  0  0  0  0  0  0
  189.5930  176.6740  142.7740 C   0  0  0  0  0  3  0  0  0  0  0  0
  185.3990  178.5470  144.1300 S   0  0  0  0  0  0  0  0  0  0  0  0
  186.7520  177.7810  144.7750 C   0  0  0  0  0  0  0  0  0  0  0  0
  190.1150  176.7840  140.4220 N   0  0  0  0  0  0  0  0  0  0  0  0
  187.1530  177.9380  142.4860 C   0  0  0  0  0  0  0  0  0  0  0  0
  187.6200  177.5150  143.7370 C   0  0  0  0  0  0  0  0  0  0  0  0
  185.8980  178.5510  142.5120 C   0  0  0  0  0  3  0  0  0  0  0  0
  187.9150  177.7090  141.3330 C   0  0  0  0  0  0  0  0  0  0  0  0
  187.3540  178.0990  140.1080 O   0  0  0  0  0  0  0  0  0  0  0  0
  191.2480  176.7310  138.3060 C   0  0  0  0  0  0  0  0  0  0  0  0
  192.5690  176.5820  138.7540 C   0  0  0  0  0  3  0  0  0  0  0  0
  190.9380  176.3930  136.9790 C   0  0  0  0  0  3  0  0  0  0  0  0
  193.5630  176.1120  137.8920 C   0  0  0  0  0  3  0  0  0  0  0  0
  191.9290  175.9170  136.1170 C   0  0  0  0  0  3  0  0  0  0  0  0
  193.2450  175.7690  136.5690 C   0  0  0  0  0  0  0  0  0  0  0  0
  195.5210  176.1990  135.6830 C   0  0  0  0  0  2  0  0  0  0  0  0
  196.6850  175.3170  135.2910 C   0  0  0  0  0  2  0  0  0  0  0  0
  195.2280  173.2250  134.5960 C   0  0  0  0  0  2  0  0  0  0  0  0
  194.7640  173.8930  135.8790 C   0  0  1  0  0  3  0  0  0  0  0  0
  196.2390  173.8810  135.5190 C   0  0  2  0  0  0  0  0  0  0  0  0
  194.2950  175.3130  135.6030 C   0  0  1  0  0  3  0  0  0  0  0  0
  196.9570  173.0770  136.4210 O   0  0  0  0  0  0  0  0  0  0  0  0
  196.5080  172.0360  138.4320 O   0  0  0  0  0  0  0  0  0  0  0  0
  195.2030  172.3730  138.0180 C   0  0  0  0  0  2  0  0  0  0  0  0
  196.3730  173.2270  137.6910 C   0  0  2  0  0  0  0  0  0  0  0  0
  196.1660  174.3960  139.8030 O   0  0  0  0  0  1  0  0  0  0  0  0
  196.7460  174.4540  138.5320 C   0  0  1  0  0  3  0  0  0  0  0  0
  198.1890  174.5590  138.6600 N   0  0  0  0  0  2  0  0  0  0  0  0
  198.4570  175.4940  139.7390 C   0  0  0  0  0  1  0  0  0  0  0  0
  186.9460  177.4090  146.1380 N   0  0  0  0  0  2  0  0  0  0  0  0
  187.1650  178.3980  147.1780 C   0  0  0  0  0  2  0  0  0  0  0  0
  187.9250  177.7640  148.3250 C   0  0  0  0  0  2  0  0  0  0  0  0
  189.4130  177.9450  148.1030 C   0  0  0  0  0  1  0  0  0  0  0  0
  186.9790  178.3540  137.7490 C   0  0  0  0  0  2  0  0  0  0  0  0
  184.1360  175.8850  137.0410 N   0  0  0  0  0  2  0  0  0  0  0  0
  185.6780  177.6990  137.7340 N   0  0  0  0  0  2  0  0  0  0  0  0
  186.2660  176.0900  136.1440 O   0  0  0  0  0  0  0  0  0  0  0  0
  185.3970  176.5430  136.9360 C   0  0  0  0  0  0  0  0  0  0  0  0
  183.0450  176.4000  137.8570 C   0  0  0  0  0  2  0  0  0  0  0  0
  180.5600  177.7360  138.2870 O   0  0  0  0  0  0  0  0  0  0  0  0
  182.7560  177.7800  137.4900 N   0  0  0  0  0  2  0  0  0  0  0  0
  181.4870  178.3900  137.7310 C   0  0  0  0  0  0  0  0  0  0  0  0
  181.3220  182.2230  137.9470 C   0  0  0  0  0  2  0  0  0  0  0  0
  179.8620  179.9350  136.8300 N   0  0  0  0  0  2  0  0  0  0  0  0
  180.0310  182.3250  137.1980 C   0  0  0  0  0  0  0  0  0  0  0  0
  179.6880  181.2490  136.2110 C   0  0  0  0  0  2  0  0  0  0  0  0
  181.2500  179.7920  137.2770 C   0  0  1  0  0  3  0  0  0  0  0  0
  181.5450  180.7830  138.4120 C   0  0  0  0  0  2  0  0  0  0  0  0
  179.2990  183.2900  137.3440 O   0  0  0  0  0  0  0  0  0  0  0  0
  1  4  1  0  0  0  0
  1  3  1  0  0  0  0
  2  6  1  0  0  0  0
  3  9  2  0  0  0  0
  4 39  1  6  0  0  0
  4 14  1  0  0  0  0
  6  5  2  0  0  0  0
  7  8  1  0  0  0  0
  8 35  1  0  0  0  0
  9  2  1  0  0  0  0
 10 12  2  0  0  0  0
 10 11  1  0  0  0  0
 11  5  1  0  0  0  0
 11  8  2  0  0  0  0
 12  7  1  0  0  0  0
 13  2  2  0  0  0  0
 13 10  1  0  0  0  0
 14 13  1  0  0  0  0
 15 16  1  0  0  0  0
 15  3  1  0  0  0  0
 17 15  2  0  0  0  0
 18 16  2  0  0  0  0
 19 20  2  0  0  0  0
 19 17  1  0  0  0  0
 20 18  1  0  0  0  0
 22 25  1  0  0  0  0
 22 21  1  0  0  0  0
 23 25  1  0  0  0  0
 24 23  1  6  0  0  0
 25 24  1  0  0  0  0
 25 27  1  1  0  0  0
 26 21  1  0  0  0  0
 26 24  1  0  0  0  0
 26 20  1  1  0  0  0
 29 28  1  0  0  0  0
 30 27  1  6  0  0  0
 30 29  1  0  0  0  0
 30 28  1  0  0  0  0
 30 32  1  0  0  0  0
 32 33  1  0  0  0  0
 32 31  1  1  0  0  0
 33 34  1  0  0  0  0
 35 36  1  0  0  0  0
 36 37  1  0  0  0  0
 38 37  1  0  0  0  0
 40 44  1  0  0  0  0
 41 39  1  0  0  0  0
 42 43  2  0  0  0  0
 43 40  1  0  0  0  0
 43 41  1  0  0  0  0
 46 47  1  0  0  0  0
 46 44  1  0  0  0  0
 47 45  2  0  0  0  0
 48 53  1  0  0  0  0
 49 52  1  0  0  0  0
 50 54  2  0  0  0  0
 50 48  1  0  0  0  0
 51 49  1  0  0  0  0
 51 50  1  0  0  0  0
 52 47  1  1  0  0  0
 52 53  1  0  0  0  0
M  END
>  <MODEL>
8

>  <REMARK>
 VINA RESULT:      -7.2      1.577      2.072
  Name = 
  14 active torsions:
  status: ('A' for Active; 'I' for Inactive)
    1  A    between atoms: N_5  and  C_6
    2  A    between atoms: C_6  and  N_25
    3  A    between atoms: O_7  and  C_43
    4  A    between atoms: O_7  and  C_48
    5  A    between atoms: N_10  and  C_23
    6  A    between atoms: C_12  and  C_13
    7  A    between atoms: C_15  and  N_20
    8  A    between atoms: C_15  and  C_31
    9  A    between atoms: C_16  and  C_50
   10  A    between atoms: N_20  and  C_30
   11  A    between atoms: C_23  and  C_43
   12  A    between atoms: N_24  and  C_50
   13  A    between atoms: C_28  and  C_39
   14  A    between atoms: C_52  and  C_54
                            x       y       z     vdW  Elec       q    Type
                         _______ _______ _______ _____ _____    ______ ____

>  <TORSDO>
F 14

$$$$
=
 OpenBabel10222420033D

 54 61  0  0  1  0  0  0  0  0999 V2000
  187.0050  176.2650  137.5600 C   0  0  0  0  0  2  0  0  0  0  0  0
  185.1510  174.7310  135.7090 C   0  0  0  0  0  0  0  0  0  0  0  0
  187.4460  175.3780  136.4470 C   0  0  0  0  0  0  0  0  0  0  0  0
  186.1120  177.3260  136.9780 C   0  0  1  0  0  3  0  0  0  0  0  0
  183.1900  173.5430  134.9400 N   0  0  0  0  0  0  0  0  0  0  0  0
  184.5430  173.6700  135.0100 C   0  0  0  0  0  3  0  0  0  0  0  0
  180.4620  175.7460  136.4140 S   0  0  0  0  0  0  0  0  0  0  0  0
  181.0130  174.4160  135.5430 C   0  0  0  0  0  0  0  0  0  0  0  0
  186.5910  174.7420  135.6960 N   0  0  0  0  0  0  0  0  0  0  0  0
  182.9270  175.5320  136.2560 C   0  0  0  0  0  0  0  0  0  0  0  0
  182.3910  174.4480  135.5530 C   0  0  0  0  0  0  0  0  0  0  0  0
  181.9760  176.3860  136.8200 C   0  0  0  0  0  3  0  0  0  0  0  0
  184.3150  175.7130  136.3290 C   0  0  0  0  0  0  0  0  0  0  0  0
  184.7770  176.8590  136.9930 O   0  0  0  0  0  0  0  0  0  0  0  0
  188.8930  175.2210  136.1800 C   0  0  0  0  0  0  0  0  0  0  0  0
  189.6790  174.3660  136.9680 C   0  0  0  0  0  3  0  0  0  0  0  0
  189.5050  175.9420  135.1420 C   0  0  0  0  0  3  0  0  0  0  0  0
  191.0500  174.2390  136.7280 C   0  0  0  0  0  3  0  0  0  0  0  0
  190.8740  175.8120  134.8970 C   0  0  0  0  0  3  0  0  0  0  0  0
  191.6530  174.9570  135.6850 C   0  0  0  0  0  0  0  0  0  0  0  0
  193.8360  176.0790  136.0390 C   0  0  0  0  0  2  0  0  0  0  0  0
  195.2280  175.5960  136.3780 C   0  0  0  0  0  2  0  0  0  0  0  0
  194.9840  173.2230  135.2440 C   0  0  0  0  0  2  0  0  0  0  0  0
  193.7640  173.6450  136.0440 C   0  0  1  0  0  3  0  0  0  0  0  0
  195.1490  174.0810  136.4840 C   0  0  2  0  0  0  0  0  0  0  0  0
  193.1280  174.8840  135.4340 C   0  0  1  0  0  3  0  0  0  0  0  0
  195.4950  173.4630  137.6990 O   0  0  0  0  0  0  0  0  0  0  0  0
  197.4890  173.5910  136.5430 O   0  0  0  0  0  0  0  0  0  0  0  0
  197.6670  172.3740  137.2310 C   0  0  0  0  0  2  0  0  0  0  0  0
  196.8960  173.4990  137.8170 C   0  0  2  0  0  0  0  0  0  0  0  0
  198.0590  175.6010  138.1340 O   0  0  0  0  0  1  0  0  0  0  0  0
  197.5250  174.4930  138.8010 C   0  0  1  0  0  3  0  0  0  0  0  0
  196.5390  174.9370  139.7710 N   0  0  0  0  0  2  0  0  0  0  0  0
  197.2660  175.5420  140.8740 C   0  0  0  0  0  1  0  0  0  0  0  0
  180.2070  173.4590  134.8550 N   0  0  0  0  0  2  0  0  0  0  0  0
  179.5240  172.3880  135.5580 C   0  0  0  0  0  2  0  0  0  0  0  0
  180.5230  171.3140  135.9330 C   0  0  0  0  0  2  0  0  0  0  0  0
  179.9800  169.9580  135.5310 C   0  0  0  0  0  1  0  0  0  0  0  0
  186.2230  178.5980  137.8030 C   0  0  0  0  0  2  0  0  0  0  0  0
  184.0470  179.0830  140.9190 N   0  0  0  0  0  2  0  0  0  0  0  0
  185.6020  178.4120  139.1080 N   0  0  0  0  0  2  0  0  0  0  0  0
  184.4740  180.4590  139.1000 O   0  0  0  0  0  0  0  0  0  0  0  0
  184.7030  179.3660  139.6840 C   0  0  0  0  0  0  0  0  0  0  0  0
  184.3310  177.8890  141.7050 C   0  0  0  0  0  2  0  0  0  0  0  0
  186.9830  177.1820  142.4860 O   0  0  0  0  0  0  0  0  0  0  0  0
  184.9650  178.2600  142.9630 N   0  0  0  0  0  2  0  0  0  0  0  0
  186.2980  177.8700  143.2950 C   0  0  0  0  0  0  0  0  0  0  0  0
  188.7870  177.9180  146.2220 C   0  0  0  0  0  2  0  0  0  0  0  0
  185.9030  177.8930  145.6790 N   0  0  0  0  0  2  0  0  0  0  0  0
  187.7270  177.8700  147.2760 C   0  0  0  0  0  0  0  0  0  0  0  0
  186.3730  178.4300  146.9560 C   0  0  0  0  0  2  0  0  0  0  0  0
  186.8610  178.2430  144.6270 C   0  0  1  0  0  3  0  0  0  0  0  0
  188.1960  177.5260  144.8670 C   0  0  0  0  0  2  0  0  0  0  0  0
  187.9720  177.4370  148.3900 O   0  0  0  0  0  0  0  0  0  0  0  0
  2 13  2  0  0  0  0
  3  1  1  0  0  0  0
  4 14  1  0  0  0  0
  4  1  1  0  0  0  0
  4 39  1  1  0  0  0
  5  6  2  0  0  0  0
  5 11  1  0  0  0  0
  6  2  1  0  0  0  0
  7 12  1  0  0  0  0
  8 11  2  0  0  0  0
  8  7  1  0  0  0  0
  9  2  1  0  0  0  0
  9  3  2  0  0  0  0
 10 13  1  0  0  0  0
 10 12  2  0  0  0  0
 11 10  1  0  0  0  0
 13 14  1  0  0  0  0
 15  3  1  0  0  0  0
 15 16  1  0  0  0  0
 17 15  2  0  0  0  0
 18 16  2  0  0  0  0
 19 17  1  0  0  0  0
 19 20  2  0  0  0  0
 20 18  1  0  0  0  0
 21 22  1  0  0  0  0
 22 25  1  0  0  0  0
 23 25  1  0  0  0  0
 24 23  1  6  0  0  0
 24 25  1  0  0  0  0
 25 27  1  1  0  0  0
 26 20  1  1  0  0  0
 26 21  1  0  0  0  0
 26 24  1  0  0  0  0
 28 29  1  0  0  0  0
 28 30  1  0  0  0  0
 29 30  1  0  0  0  0
 30 27  1  1  0  0  0
 30 32  1  0  0  0  0
 32 31  1  6  0  0  0
 32 33  1  0  0  0  0
 33 34  1  0  0  0  0
 35  8  1  0  0  0  0
 35 36  1  0  0  0  0
 36 37  1  0  0  0  0
 38 37  1  0  0  0  0
 39 41  1  0  0  0  0
 40 44  1  0  0  0  0
 41 43  1  0  0  0  0
 42 43  2  0  0  0  0
 43 40  1  0  0  0  0
 44 46  1  0  0  0  0
 45 47  2  0  0  0  0
 46 47  1  0  0  0  0
 48 50  1  0  0  0  0
 49 51  1  0  0  0  0
 50 54  2  0  0  0  0
 51 50  1  0  0  0  0
 52 47  1  6  0  0  0
 52 53  1  0  0  0  0
 52 49  1  0  0  0  0
 53 48  1  0  0  0  0
M  END
>  <MODEL>
9

>  <REMARK>
 VINA RESULT:      -7.0      3.590      7.874
  Name = 
  14 active torsions:
  status: ('A' for Active; 'I' for Inactive)
    1  A    between atoms: N_5  and  C_6
    2  A    between atoms: C_6  and  N_25
    3  A    between atoms: O_7  and  C_43
    4  A    between atoms: O_7  and  C_48
    5  A    between atoms: N_10  and  C_23
    6  A    between atoms: C_12  and  C_13
    7  A    between atoms: C_15  and  N_20
    8  A    between atoms: C_15  and  C_31
    9  A    between atoms: C_16  and  C_50
   10  A    between atoms: N_20  and  C_30
   11  A    between atoms: C_23  and  C_43
   12  A    between atoms: N_24  and  C_50
   13  A    between atoms: C_28  and  C_39
   14  A    between atoms: C_52  and  C_54
                            x       y       z     vdW  Elec       q    Type
                         _______ _______ _______ _____ _____    ______ ____

>  <TORSDO>
F 14

$$$$
