=
 OpenBabel10222420393D

 42 45  0  0  1  0  0  0  0  0999 V2000
  187.4570  177.5000  144.2110 C   0  0  0  0  0  0  0  0  0  0  0  0
  189.6630  177.3930  147.3620 N   0  0  0  0  0  0  0  0  0  0  0  0
  190.8520  177.0650  146.9420 C   0  0  0  0  0  0  0  0  0  0  0  0
  188.7940  177.1670  143.9020 C   0  0  0  0  0  0  0  0  0  0  0  0
  190.9700  176.8690  145.4340 C   0  0  0  0  0  2  0  0  0  0  0  0
  188.8880  177.4490  146.1840 C   0  0  0  0  0  0  0  0  0  0  0  0
  187.2670  177.7420  145.8920 S   0  0  0  0  0  0  0  0  0  0  0  0
  189.5640  177.1600  145.0670 C   0  0  0  0  0  0  0  0  0  0  0  0
  189.9560  175.7870  142.3510 O   0  0  0  0  0  0  0  0  0  0  0  0
  189.3200  176.8570  142.5550 C   0  0  0  0  0  0  0  0  0  0  0  0
  189.1090  177.7760  141.4770 N   0  0  0  0  0  2  0  0  0  0  0  0
  189.5840  177.5200  140.1250 C   0  0  0  0  0  2  0  0  0  0  0  0
  188.4270  177.6060  139.1460 C   0  0  0  0  0  2  0  0  0  0  0  0
  189.0610  179.3190  137.8240 O   0  0  0  0  0  1  0  0  0  0  0  0
  188.9230  177.9710  137.8310 N   0  0  0  0  0  0  0  0  0  0  0  0
  190.2640  177.4190  137.7200 C   0  0  0  0  0  2  0  0  0  0  0  0
  190.3430  176.4780  136.5290 C   0  0  0  0  0  2  0  0  0  0  0  0
  191.7150  176.0520  136.3210 N   0  0  0  0  0  2  0  0  0  0  0  0
  192.3660  176.0780  137.6190 C   0  0  0  0  0  2  0  0  0  0  0  0
  193.4340  175.0000  137.6850 C   0  0  0  0  0  2  0  0  0  0  0  0
  194.5670  175.4870  138.3380 O   0  0  0  0  0  0  0  0  0  0  0  0
  195.3440  174.3540  138.5870 C   0  0  0  0  0  2  0  0  0  0  0  0
  195.9360  173.8300  137.2920 C   0  0  0  0  0  2  0  0  0  0  0  0
  197.1310  174.6660  136.8830 C   0  0  0  0  0  1  0  0  0  0  0  0
  191.9150  176.9150  147.8320 O   0  0  0  0  0  0  0  0  0  0  0  0
  192.6250  175.6910  147.9480 C   0  0  0  0  0  1  0  0  0  0  0  0
  186.3230  177.5690  143.2440 C   0  0  0  0  0  2  0  0  0  0  0  0
  185.2110  178.4270  143.8130 C   0  0  0  0  0  2  0  0  0  0  0  0
  184.8390  179.4400  142.8420 N   0  0  0  0  0  2  0  0  0  0  0  0
  185.3350  179.6010  140.5740 O   0  0  0  0  0  1  0  0  0  0  0  0
  184.7570  178.7860  141.5480 C   0  0  2  0  0  3  0  0  0  0  0  0
  183.0160  178.4890  141.1330 S   0  0  0  0  0  0  0  0  0  0  0  0
  183.2500  179.2380  139.1550 S   0  0  0  0  0  0  0  0  0  0  0  0
  182.4260  177.7920  138.4310 C   0  0  0  0  0  2  0  0  0  0  0  0
  183.2780  175.5650  138.6390 O   0  0  0  0  0  0  0  0  0  0  0  0
  184.1420  175.3980  136.3570 O   0  0  0  0  0  0  0  0  0  0  0  0
  183.6210  174.2090  136.8050 C   0  0  2  0  0  3  0  0  0  0  0  0
  183.4610  176.7690  138.0090 C   0  0  2  0  0  0  0  0  0  0  0  0
  184.8110  177.1460  138.0420 O   0  0  0  0  0  1  0  0  0  0  0  0
  183.0200  175.5500  137.2270 C   0  0  1  0  0  0  0  0  0  0  0  0
  186.0280  173.6630  137.1120 C   0  0  0  0  0  1  0  0  0  0  0  0
  184.6490  173.5500  137.7270 C   0  0  0  0  0  2  0  0  0  0  0  0
  1  7  1  0  0  0  0
  3  2  2  0  0  0  0
  3 25  1  0  0  0  0
  4  1  2  0  0  0  0
  4  8  1  0  0  0  0
  5  3  1  0  0  0  0
  6  2  1  0  0  0  0
  7  6  1  0  0  0  0
  8  5  1  0  0  0  0
  8  6  2  0  0  0  0
  9 10  2  0  0  0  0
 10  4  1  0  0  0  0
 11 10  1  0  0  0  0
 12 11  1  0  0  0  0
 13 12  1  0  0  0  0
 14 15  1  0  0  0  0
 15 13  1  0  0  0  0
 16 15  1  0  0  0  0
 17 16  1  0  0  0  0
 18 17  1  0  0  0  0
 18 19  1  0  0  0  0
 19 20  1  0  0  0  0
 20 21  1  0  0  0  0
 21 22  1  0  0  0  0
 23 22  1  0  0  0  0
 24 23  1  0  0  0  0
 25 26  1  0  0  0  0
 27 28  1  0  0  0  0
 27  1  1  0  0  0  0
 29 28  1  0  0  0  0
 31 30  1  6  0  0  0
 31 29  1  0  0  0  0
 32 31  1  0  0  0  0
 33 32  1  0  0  0  0
 34 33  1  0  0  0  0
 36 37  1  0  0  0  0
 37 40  1  0  0  0  0
 37 42  1  1  0  0  0
 38 39  1  6  0  0  0
 38 34  1  0  0  0  0
 38 35  1  0  0  0  0
 40 36  1  1  0  0  0
 40 38  1  0  0  0  0
 40 35  1  0  0  0  0
 41 42  1  0  0  0  0
M  END
>  <MODEL>
1

>  <REMARK>
 VINA RESULT:      -6.5      0.000      0.000
  Name = 
  22 active torsions:
  status: ('A' for Active; 'I' for Inactive)
    1  A    between atoms: C_1  and  C_19
    2  A    between atoms: C_2  and  C_22
    3  A    between atoms: C_3  and  N_27
    4  A    between atoms: C_3  and  C_28
    5  A    between atoms: S_7  and  S_12
    6  A    between atoms: S_7  and  C_20
    7  A    between atoms: O_8  and  C_11
    8  A    between atoms: C_10  and  C_22
    9  A    between atoms: C_10  and  N_38
   10  A    between atoms: S_12  and  C_32
   11  A    between atoms: C_16  and  C_24
   12  A    between atoms: C_19  and  O_39
   13  A    between atoms: C_20  and  C_29
   14  A    between atoms: C_21  and  C_23
   15  A    between atoms: C_25  and  N_33
   16  A    between atoms: C_25  and  C_41
   17  A    between atoms: N_27  and  C_34
   18  A    between atoms: C_28  and  N_35
   19  A    between atoms: C_30  and  N_33
   20  A    between atoms: C_30  and  C_34
   21  A    between atoms: C_32  and  N_38
   22  A    between atoms: O_39  and  C_41
                            x       y       z     vdW  Elec       q    Type
                         _______ _______ _______ _____ _____    ______ ____

>  <TORSDO>
F 22

$$$$
=
 OpenBabel10222420393D

 42 45  0  0  1  0  0  0  0  0999 V2000
  187.6740  177.5220  144.4280 C   0  0  0  0  0  0  0  0  0  0  0  0
  189.9020  177.3470  147.5620 N   0  0  0  0  0  0  0  0  0  0  0  0
  191.0700  176.9590  147.1370 C   0  0  0  0  0  0  0  0  0  0  0  0
  188.9920  177.1210  144.1130 C   0  0  0  0  0  0  0  0  0  0  0  0
  191.1640  176.7390  145.6300 C   0  0  0  0  0  2  0  0  0  0  0  0
  189.1190  177.4260  146.3900 C   0  0  0  0  0  0  0  0  0  0  0  0
  187.5120  177.7930  146.1080 S   0  0  0  0  0  0  0  0  0  0  0  0
  189.7710  177.0920  145.2710 C   0  0  0  0  0  0  0  0  0  0  0  0
  189.9440  175.6170  142.5360 O   0  0  0  0  0  0  0  0  0  0  0  0
  189.4900  176.7710  142.7660 C   0  0  0  0  0  0  0  0  0  0  0  0
  189.4610  177.7460  141.7170 N   0  0  0  0  0  2  0  0  0  0  0  0
  189.9180  177.4570  140.3660 C   0  0  0  0  0  2  0  0  0  0  0  0
  189.1760  178.3310  139.3710 C   0  0  0  0  0  2  0  0  0  0  0  0
  186.9680  178.6660  139.0630 O   0  0  0  0  0  1  0  0  0  0  0  0
  187.9180  177.7030  139.0070 N   0  0  0  0  0  0  0  0  0  0  0  0
  188.0310  177.3170  137.6090 C   0  0  0  0  0  2  0  0  0  0  0  0
  187.8890  175.8100  137.4720 C   0  0  0  0  0  2  0  0  0  0  0  0
  187.9940  175.4240  136.0770 N   0  0  0  0  0  2  0  0  0  0  0  0
  189.3180  174.8560  135.8950 C   0  0  0  0  0  2  0  0  0  0  0  0
  189.5590  173.7650  136.9230 C   0  0  0  0  0  2  0  0  0  0  0  0
  190.8200  173.9200  137.5000 O   0  0  0  0  0  0  0  0  0  0  0  0
  191.5430  174.6700  136.5710 C   0  0  0  0  0  2  0  0  0  0  0  0
  192.9350  174.0890  136.3990 C   0  0  0  0  0  2  0  0  0  0  0  0
  193.7260  174.2290  137.6840 C   0  0  0  0  0  1  0  0  0  0  0  0
  192.1320  176.7680  148.0190 O   0  0  0  0  0  0  0  0  0  0  0  0
  192.8320  175.5350  148.0920 C   0  0  0  0  0  1  0  0  0  0  0  0
  186.5370  177.6330  143.4710 C   0  0  0  0  0  2  0  0  0  0  0  0
  185.3230  178.2050  144.1750 C   0  0  0  0  0  2  0  0  0  0  0  0
  184.2840  178.4790  143.1980 N   0  0  0  0  0  2  0  0  0  0  0  0
  183.3370  179.1720  145.2080 O   0  0  0  0  0  1  0  0  0  0  0  0
  183.3280  179.3730  143.8270 C   0  0  2  0  0  3  0  0  0  0  0  0
  181.6690  179.0330  143.1760 S   0  0  0  0  0  0  0  0  0  0  0  0
  182.4060  178.6180  141.2230 S   0  0  0  0  0  0  0  0  0  0  0  0
  180.9230  179.3100  140.4370 C   0  0  0  0  0  2  0  0  0  0  0  0
  180.2330  180.3030  138.3710 O   0  0  0  0  0  0  0  0  0  0  0  0
  181.9320  182.0630  138.3440 O   0  0  0  0  0  0  0  0  0  0  0  0
  180.7290  182.4920  137.8400 C   0  0  2  0  0  3  0  0  0  0  0  0
  181.3130  180.0660  139.1830 C   0  0  2  0  0  0  0  0  0  0  0  0
  182.3990  179.5900  138.4370 O   0  0  0  0  0  1  0  0  0  0  0  0
  180.7970  181.4750  138.9790 C   0  0  1  0  0  0  0  0  0  0  0  0
  180.6650  183.1330  135.4380 C   0  0  0  0  0  1  0  0  0  0  0  0
  180.5930  181.9720  136.4080 C   0  0  0  0  0  2  0  0  0  0  0  0
  1  7  1  0  0  0  0
  3  2  2  0  0  0  0
  3 25  1  0  0  0  0
  4  1  2  0  0  0  0
  4  8  1  0  0  0  0
  5  3  1  0  0  0  0
  6  2  1  0  0  0  0
  7  6  1  0  0  0  0
  8  5  1  0  0  0  0
  8  6  2  0  0  0  0
  9 10  2  0  0  0  0
 10  4  1  0  0  0  0
 11 10  1  0  0  0  0
 12 11  1  0  0  0  0
 13 12  1  0  0  0  0
 15 14  1  0  0  0  0
 15 13  1  0  0  0  0
 16 15  1  0  0  0  0
 17 16  1  0  0  0  0
 18 17  1  0  0  0  0
 19 18  1  0  0  0  0
 19 20  1  0  0  0  0
 20 21  1  0  0  0  0
 22 21  1  0  0  0  0
 23 22  1  0  0  0  0
 23 24  1  0  0  0  0
 25 26  1  0  0  0  0
 27 28  1  0  0  0  0
 27  1  1  0  0  0  0
 29 31  1  0  0  0  0
 29 28  1  0  0  0  0
 31 30  1  1  0  0  0
 32 31  1  0  0  0  0
 33 32  1  0  0  0  0
 34 33  1  0  0  0  0
 35 40  1  0  0  0  0
 35 38  1  0  0  0  0
 37 42  1  6  0  0  0
 37 36  1  0  0  0  0
 37 40  1  0  0  0  0
 38 39  1  6  0  0  0
 38 34  1  0  0  0  0
 40 36  1  6  0  0  0
 40 38  1  0  0  0  0
 41 42  1  0  0  0  0
M  END
>  <MODEL>
2

>  <REMARK>
 VINA RESULT:      -6.5      2.645      3.866
  Name = 
  22 active torsions:
  status: ('A' for Active; 'I' for Inactive)
    1  A    between atoms: C_1  and  C_19
    2  A    between atoms: C_2  and  C_22
    3  A    between atoms: C_3  and  N_27
    4  A    between atoms: C_3  and  C_28
    5  A    between atoms: S_7  and  S_12
    6  A    between atoms: S_7  and  C_20
    7  A    between atoms: O_8  and  C_11
    8  A    between atoms: C_10  and  C_22
    9  A    between atoms: C_10  and  N_38
   10  A    between atoms: S_12  and  C_32
   11  A    between atoms: C_16  and  C_24
   12  A    between atoms: C_19  and  O_39
   13  A    between atoms: C_20  and  C_29
   14  A    between atoms: C_21  and  C_23
   15  A    between atoms: C_25  and  N_33
   16  A    between atoms: C_25  and  C_41
   17  A    between atoms: N_27  and  C_34
   18  A    between atoms: C_28  and  N_35
   19  A    between atoms: C_30  and  N_33
   20  A    between atoms: C_30  and  C_34
   21  A    between atoms: C_32  and  N_38
   22  A    between atoms: O_39  and  C_41
                            x       y       z     vdW  Elec       q    Type
                         _______ _______ _______ _____ _____    ______ ____

>  <TORSDO>
F 22

$$$$
=
 OpenBabel10222420393D

 42 45  0  0  1  0  0  0  0  0999 V2000
  187.0650  177.6130  143.8570 C   0  0  0  0  0  0  0  0  0  0  0  0
  189.5300  177.2530  146.7900 N   0  0  0  0  0  0  0  0  0  0  0  0
  190.7070  177.1400  146.2430 C   0  0  0  0  0  0  0  0  0  0  0  0
  188.3990  177.4930  143.4080 C   0  0  0  0  0  0  0  0  0  0  0  0
  190.7160  177.2070  144.7190 C   0  0  0  0  0  2  0  0  0  0  0  0
  188.6560  177.4090  145.6930 C   0  0  0  0  0  0  0  0  0  0  0  0
  186.9940  177.5540  145.5640 S   0  0  0  0  0  0  0  0  0  0  0  0
  189.2610  177.3880  144.5010 C   0  0  0  0  0  0  0  0  0  0  0  0
  189.5460  176.5210  141.5650 O   0  0  0  0  0  0  0  0  0  0  0  0
  188.8380  177.4710  141.9960 C   0  0  0  0  0  0  0  0  0  0  0  0
  188.4610  178.5340  141.1140 N   0  0  0  0  0  2  0  0  0  0  0  0
  188.8440  178.5600  139.7100 C   0  0  0  0  0  2  0  0  0  0  0  0
  187.7280  177.9820  138.8580 C   0  0  0  0  0  2  0  0  0  0  0  0
  188.6880  179.4740  137.4660 O   0  0  0  0  0  1  0  0  0  0  0  0
  187.5260  178.8120  137.6830 N   0  0  0  0  0  0  0  0  0  0  0  0
  187.3490  177.9090  136.5570 C   0  0  0  0  0  2  0  0  0  0  0  0
  188.1210  176.6230  136.7930 C   0  0  0  0  0  2  0  0  0  0  0  0
  189.0240  176.3720  135.6840 N   0  0  0  0  0  2  0  0  0  0  0  0
  190.0550  175.4750  136.1750 C   0  0  0  0  0  2  0  0  0  0  0  0
  189.8730  175.2420  137.6640 C   0  0  0  0  0  2  0  0  0  0  0  0
  191.1160  175.1510  138.2910 O   0  0  0  0  0  0  0  0  0  0  0  0
  191.6230  176.4510  138.2610 C   0  0  0  0  0  2  0  0  0  0  0  0
  193.1400  176.4230  138.2970 C   0  0  0  0  0  2  0  0  0  0  0  0
  193.6950  176.1460  136.9150 C   0  0  0  0  0  1  0  0  0  0  0  0
  191.8510  176.9730  147.0210 O   0  0  0  0  0  0  0  0  0  0  0  0
  192.3560  175.6850  147.3400 C   0  0  0  0  0  1  0  0  0  0  0  0
  185.8530  177.7040  142.9930 C   0  0  0  0  0  2  0  0  0  0  0  0
  185.3790  179.1420  142.9200 C   0  0  0  0  0  2  0  0  0  0  0  0
  184.1130  179.1970  142.2110 N   0  0  0  0  0  2  0  0  0  0  0  0
  184.8140  179.7660  140.0660 O   0  0  0  0  0  1  0  0  0  0  0  0
  184.3540  178.7160  140.8620 C   0  0  2  0  0  3  0  0  0  0  0  0
  182.8090  178.0630  140.1710 S   0  0  0  0  0  0  0  0  0  0  0  0
  183.7470  177.4780  138.3520 S   0  0  0  0  0  0  0  0  0  0  0  0
  183.1110  175.7830  138.4840 C   0  0  0  0  0  2  0  0  0  0  0  0
  183.8080  173.6220  137.7260 O   0  0  0  0  0  0  0  0  0  0  0  0
  183.2220  173.9650  135.3760 O   0  0  0  0  0  0  0  0  0  0  0  0
  182.9810  172.6780  135.7910 C   0  0  2  0  0  3  0  0  0  0  0  0
  183.6700  174.9360  137.3580 C   0  0  2  0  0  0  0  0  0  0  0  0
  184.8210  175.3910  136.7010 O   0  0  0  0  0  1  0  0  0  0  0  0
  182.7980  173.8660  136.7360 C   0  0  1  0  0  0  0  0  0  0  0  0
  184.0490  170.4320  135.8230 C   0  0  0  0  0  1  0  0  0  0  0  0
  184.3120  171.9240  135.8200 C   0  0  0  0  0  2  0  0  0  0  0  0
  1  7  1  0  0  0  0
  3  2  2  0  0  0  0
  3 25  1  0  0  0  0
  4  1  2  0  0  0  0
  4  8  1  0  0  0  0
  5  3  1  0  0  0  0
  6  2  1  0  0  0  0
  7  6  1  0  0  0  0
  8  5  1  0  0  0  0
  8  6  2  0  0  0  0
  9 10  2  0  0  0  0
 10  4  1  0  0  0  0
 11 10  1  0  0  0  0
 12 11  1  0  0  0  0
 13 12  1  0  0  0  0
 14 15  1  0  0  0  0
 15 13  1  0  0  0  0
 16 17  1  0  0  0  0
 16 15  1  0  0  0  0
 18 19  1  0  0  0  0
 18 17  1  0  0  0  0
 19 20  1  0  0  0  0
 20 21  1  0  0  0  0
 22 21  1  0  0  0  0
 22 23  1  0  0  0  0
 24 23  1  0  0  0  0
 25 26  1  0  0  0  0
 27  1  1  0  0  0  0
 28 27  1  0  0  0  0
 29 28  1  0  0  0  0
 31 30  1  6  0  0  0
 31 29  1  0  0  0  0
 32 31  1  0  0  0  0
 33 34  1  0  0  0  0
 33 32  1  0  0  0  0
 36 37  1  0  0  0  0
 37 42  1  1  0  0  0
 37 40  1  0  0  0  0
 38 39  1  6  0  0  0
 38 35  1  0  0  0  0
 38 34  1  0  0  0  0
 40 36  1  6  0  0  0
 40 38  1  0  0  0  0
 40 35  1  0  0  0  0
 42 41  1  0  0  0  0
M  END
>  <MODEL>
3

>  <REMARK>
 VINA RESULT:      -6.5      1.614      2.052
  Name = 
  22 active torsions:
  status: ('A' for Active; 'I' for Inactive)
    1  A    between atoms: C_1  and  C_19
    2  A    between atoms: C_2  and  C_22
    3  A    between atoms: C_3  and  N_27
    4  A    between atoms: C_3  and  C_28
    5  A    between atoms: S_7  and  S_12
    6  A    between atoms: S_7  and  C_20
    7  A    between atoms: O_8  and  C_11
    8  A    between atoms: C_10  and  C_22
    9  A    between atoms: C_10  and  N_38
   10  A    between atoms: S_12  and  C_32
   11  A    between atoms: C_16  and  C_24
   12  A    between atoms: C_19  and  O_39
   13  A    between atoms: C_20  and  C_29
   14  A    between atoms: C_21  and  C_23
   15  A    between atoms: C_25  and  N_33
   16  A    between atoms: C_25  and  C_41
   17  A    between atoms: N_27  and  C_34
   18  A    between atoms: C_28  and  N_35
   19  A    between atoms: C_30  and  N_33
   20  A    between atoms: C_30  and  C_34
   21  A    between atoms: C_32  and  N_38
   22  A    between atoms: O_39  and  C_41
                            x       y       z     vdW  Elec       q    Type
                         _______ _______ _______ _____ _____    ______ ____

>  <TORSDO>
F 22

$$$$
=
 OpenBabel10222420393D

 42 45  0  0  1  0  0  0  0  0999 V2000
  187.7190  177.5300  144.4660 C   0  0  0  0  0  0  0  0  0  0  0  0
  189.9370  177.3720  147.6080 N   0  0  0  0  0  0  0  0  0  0  0  0
  191.1090  176.9910  147.1870 C   0  0  0  0  0  0  0  0  0  0  0  0
  189.0410  177.1390  144.1560 C   0  0  0  0  0  0  0  0  0  0  0  0
  191.2110  176.7720  145.6810 C   0  0  0  0  0  2  0  0  0  0  0  0
  189.1580  177.4450  146.4330 C   0  0  0  0  0  0  0  0  0  0  0  0
  187.5490  177.8000  146.1450 S   0  0  0  0  0  0  0  0  0  0  0  0
  189.8160  177.1160  145.3170 C   0  0  0  0  0  0  0  0  0  0  0  0
  189.9840  175.6330  142.5750 O   0  0  0  0  0  0  0  0  0  0  0  0
  189.5460  176.7920  142.8100 C   0  0  0  0  0  0  0  0  0  0  0  0
  189.5430  177.7760  141.7700 N   0  0  0  0  0  2  0  0  0  0  0  0
  190.0090  177.4910  140.4200 C   0  0  0  0  0  2  0  0  0  0  0  0
  189.2350  178.3290  139.4190 C   0  0  0  0  0  2  0  0  0  0  0  0
  187.0670  178.6340  139.9560 O   0  0  0  0  0  1  0  0  0  0  0  0
  187.8890  177.8030  139.2730 N   0  0  0  0  0  0  0  0  0  0  0  0
  187.5360  177.9360  137.8680 C   0  0  0  0  0  2  0  0  0  0  0  0
  188.0670  176.7500  137.0820 C   0  0  0  0  0  2  0  0  0  0  0  0
  187.1350  176.3910  136.0290 N   0  0  0  0  0  2  0  0  0  0  0  0
  185.8230  176.8440  136.4570 C   0  0  0  0  0  2  0  0  0  0  0  0
  184.8330  175.6940  136.3980 C   0  0  0  0  0  2  0  0  0  0  0  0
  185.2420  174.6660  137.2480 O   0  0  0  0  0  0  0  0  0  0  0  0
  184.0870  173.9170  137.4760 C   0  0  0  0  0  2  0  0  0  0  0  0
  184.3700  172.4410  137.2640 C   0  0  0  0  0  2  0  0  0  0  0  0
  185.5980  172.2590  136.3970 C   0  0  0  0  0  1  0  0  0  0  0  0
  192.1690  176.8090  148.0730 O   0  0  0  0  0  0  0  0  0  0  0  0
  192.8670  175.5760  148.1610 C   0  0  0  0  0  1  0  0  0  0  0  0
  186.5850  177.6330  143.5040 C   0  0  0  0  0  2  0  0  0  0  0  0
  185.3430  178.1240  144.2210 C   0  0  0  0  0  2  0  0  0  0  0  0
  184.5510  178.9340  143.3130 N   0  0  0  0  0  2  0  0  0  0  0  0
  183.5760  179.1090  145.4180 O   0  0  0  0  0  1  0  0  0  0  0  0
  183.4830  179.5330  144.0920 C   0  0  2  0  0  3  0  0  0  0  0  0
  181.8810  179.0280  143.4060 S   0  0  0  0  0  0  0  0  0  0  0  0
  182.7070  178.6470  141.4820 S   0  0  0  0  0  0  0  0  0  0  0  0
  181.0660  178.4130  140.7420 C   0  0  0  0  0  2  0  0  0  0  0  0
  181.6620  180.2450  139.3210 O   0  0  0  0  0  0  0  0  0  0  0  0
  179.4470  180.5370  138.3240 O   0  0  0  0  0  0  0  0  0  0  0  0
  180.4580  180.7630  137.4230 C   0  0  2  0  0  3  0  0  0  0  0  0
  180.6350  179.6830  140.0370 C   0  0  2  0  0  0  0  0  0  0  0  0
  179.9630  180.6580  140.7860 O   0  0  0  0  0  1  0  0  0  0  0  0
  180.5940  179.7110  138.5230 C   0  0  1  0  0  0  0  0  0  0  0  0
  180.7070  183.0600  136.5030 C   0  0  0  0  0  1  0  0  0  0  0  0
  181.0280  182.1590  137.6780 C   0  0  0  0  0  2  0  0  0  0  0  0
  1  7  1  0  0  0  0
  3  2  2  0  0  0  0
  3 25  1  0  0  0  0
  4  1  2  0  0  0  0
  4  8  1  0  0  0  0
  5  3  1  0  0  0  0
  6  2  1  0  0  0  0
  7  6  1  0  0  0  0
  8  5  1  0  0  0  0
  8  6  2  0  0  0  0
  9 10  2  0  0  0  0
 10  4  1  0  0  0  0
 11 10  1  0  0  0  0
 12 11  1  0  0  0  0
 13 12  1  0  0  0  0
 15 13  1  0  0  0  0
 15 14  1  0  0  0  0
 16 15  1  0  0  0  0
 17 16  1  0  0  0  0
 18 19  1  0  0  0  0
 18 17  1  0  0  0  0
 20 19  1  0  0  0  0
 20 21  1  0  0  0  0
 21 22  1  0  0  0  0
 23 22  1  0  0  0  0
 24 23  1  0  0  0  0
 25 26  1  0  0  0  0
 27 28  1  0  0  0  0
 27  1  1  0  0  0  0
 29 31  1  0  0  0  0
 29 28  1  0  0  0  0
 31 30  1  1  0  0  0
 32 31  1  0  0  0  0
 33 32  1  0  0  0  0
 34 33  1  0  0  0  0
 35 38  1  0  0  0  0
 37 42  1  1  0  0  0
 37 36  1  0  0  0  0
 37 40  1  0  0  0  0
 38 34  1  0  0  0  0
 38 39  1  1  0  0  0
 40 36  1  1  0  0  0
 40 35  1  0  0  0  0
 40 38  1  0  0  0  0
 41 42  1  0  0  0  0
M  END
>  <MODEL>
4

>  <REMARK>
 VINA RESULT:      -6.4      2.904      5.217
  Name = 
  22 active torsions:
  status: ('A' for Active; 'I' for Inactive)
    1  A    between atoms: C_1  and  C_19
    2  A    between atoms: C_2  and  C_22
    3  A    between atoms: C_3  and  N_27
    4  A    between atoms: C_3  and  C_28
    5  A    between atoms: S_7  and  S_12
    6  A    between atoms: S_7  and  C_20
    7  A    between atoms: O_8  and  C_11
    8  A    between atoms: C_10  and  C_22
    9  A    between atoms: C_10  and  N_38
   10  A    between atoms: S_12  and  C_32
   11  A    between atoms: C_16  and  C_24
   12  A    between atoms: C_19  and  O_39
   13  A    between atoms: C_20  and  C_29
   14  A    between atoms: C_21  and  C_23
   15  A    between atoms: C_25  and  N_33
   16  A    between atoms: C_25  and  C_41
   17  A    between atoms: N_27  and  C_34
   18  A    between atoms: C_28  and  N_35
   19  A    between atoms: C_30  and  N_33
   20  A    between atoms: C_30  and  C_34
   21  A    between atoms: C_32  and  N_38
   22  A    between atoms: O_39  and  C_41
                            x       y       z     vdW  Elec       q    Type
                         _______ _______ _______ _____ _____    ______ ____

>  <TORSDO>
F 22

$$$$
=
 OpenBabel10222420393D

 42 45  0  0  1  0  0  0  0  0999 V2000
  187.0750  177.6920  145.6780 C   0  0  0  0  0  0  0  0  0  0  0  0
  190.1770  177.4600  147.9430 N   0  0  0  0  0  0  0  0  0  0  0  0
  191.1370  177.0300  147.1750 C   0  0  0  0  0  0  0  0  0  0  0  0
  188.2110  177.2450  144.9670 C   0  0  0  0  0  0  0  0  0  0  0  0
  190.7400  176.7980  145.7200 C   0  0  0  0  0  2  0  0  0  0  0  0
  189.0650  177.5590  147.0800 C   0  0  0  0  0  0  0  0  0  0  0  0
  187.4640  177.9790  147.3180 S   0  0  0  0  0  0  0  0  0  0  0  0
  189.3170  177.1970  145.8170 C   0  0  0  0  0  0  0  0  0  0  0  0
  187.7480  175.7750  143.1550 O   0  0  0  0  0  0  0  0  0  0  0  0
  188.2430  176.8710  143.5370 C   0  0  0  0  0  0  0  0  0  0  0  0
  188.8410  177.7520  142.5800 N   0  0  0  0  0  2  0  0  0  0  0  0
  188.8870  177.4490  141.1570 C   0  0  0  0  0  2  0  0  0  0  0  0
  190.1950  176.7580  140.8170 C   0  0  0  0  0  2  0  0  0  0  0  0
  192.3110  177.4830  140.5310 O   0  0  0  0  0  1  0  0  0  0  0  0
  191.0500  177.6640  140.0700 N   0  0  0  0  0  0  0  0  0  0  0  0
  191.0440  177.2050  138.6900 C   0  0  0  0  0  2  0  0  0  0  0  0
  190.8560  175.6990  138.6420 C   0  0  0  0  0  2  0  0  0  0  0  0
  191.5900  175.1400  137.5210 N   0  0  0  0  0  2  0  0  0  0  0  0
  192.7990  175.9310  137.3730 C   0  0  0  0  0  2  0  0  0  0  0  0
  193.8930  175.0900  136.7400 C   0  0  0  0  0  2  0  0  0  0  0  0
  194.9200  175.9120  136.2720 O   0  0  0  0  0  0  0  0  0  0  0  0
  196.0580  175.1050  136.3000 C   0  0  0  0  0  2  0  0  0  0  0  0
  197.2080  175.7980  135.5910 C   0  0  0  0  0  2  0  0  0  0  0  0
  198.1620  174.7750  135.0120 C   0  0  0  0  0  1  0  0  0  0  0  0
  192.4180  176.8090  147.6770 O   0  0  0  0  0  0  0  0  0  0  0  0
  192.7580  175.6100  148.3570 C   0  0  0  0  0  1  0  0  0  0  0  0
  185.6960  177.8370  145.1300 C   0  0  0  0  0  2  0  0  0  0  0  0
  185.7480  178.5060  143.7710 C   0  0  0  0  0  2  0  0  0  0  0  0
  184.9220  177.7630  142.8360 N   0  0  0  0  0  2  0  0  0  0  0  0
  185.5590  179.7130  141.7370 O   0  0  0  0  0  1  0  0  0  0  0  0
  184.9970  178.4480  141.5580 C   0  0  2  0  0  3  0  0  0  0  0  0
  183.3280  178.6180  140.8680 S   0  0  0  0  0  0  0  0  0  0  0  0
  184.0520  179.4500  139.0470 S   0  0  0  0  0  0  0  0  0  0  0  0
  184.5450  177.8210  138.4140 C   0  0  0  0  0  2  0  0  0  0  0  0
  186.3770  176.6820  137.3770 O   0  0  0  0  0  0  0  0  0  0  0  0
  187.1140  178.5660  136.0020 O   0  0  0  0  0  0  0  0  0  0  0  0
  187.2540  177.3620  135.3550 C   0  0  2  0  0  3  0  0  0  0  0  0
  185.9270  177.9080  137.7980 C   0  0  2  0  0  0  0  0  0  0  0  0
  186.9250  178.5830  138.5130 O   0  0  0  0  0  1  0  0  0  0  0  0
  186.0980  177.6160  136.3230 C   0  0  1  0  0  0  0  0  0  0  0  0
  189.7060  177.0780  135.0510 C   0  0  0  0  0  1  0  0  0  0  0  0
  188.5110  176.6720  135.8880 C   0  0  0  0  0  2  0  0  0  0  0  0
  1  7  1  0  0  0  0
  3 25  1  0  0  0  0
  3  2  2  0  0  0  0
  4  1  2  0  0  0  0
  4  8  1  0  0  0  0
  5  8  1  0  0  0  0
  5  3  1  0  0  0  0
  6  7  1  0  0  0  0
  6  2  1  0  0  0  0
  8  6  2  0  0  0  0
  9 10  2  0  0  0  0
 10  4  1  0  0  0  0
 11 10  1  0  0  0  0
 12 11  1  0  0  0  0
 13 12  1  0  0  0  0
 15 14  1  0  0  0  0
 15 13  1  0  0  0  0
 16 15  1  0  0  0  0
 17 16  1  0  0  0  0
 18 17  1  0  0  0  0
 19 18  1  0  0  0  0
 20 19  1  0  0  0  0
 21 22  1  0  0  0  0
 21 20  1  0  0  0  0
 23 22  1  0  0  0  0
 24 23  1  0  0  0  0
 25 26  1  0  0  0  0
 27  1  1  0  0  0  0
 28 27  1  0  0  0  0
 29 28  1  0  0  0  0
 31 30  1  1  0  0  0
 31 29  1  0  0  0  0
 32 31  1  0  0  0  0
 33 32  1  0  0  0  0
 34 33  1  0  0  0  0
 35 38  1  0  0  0  0
 37 42  1  1  0  0  0
 37 36  1  0  0  0  0
 37 40  1  0  0  0  0
 38 34  1  0  0  0  0
 38 39  1  1  0  0  0
 40 36  1  1  0  0  0
 40 35  1  0  0  0  0
 40 38  1  0  0  0  0
 41 42  1  0  0  0  0
M  END
>  <MODEL>
5

>  <REMARK>
 VINA RESULT:      -6.2      1.933      2.431
  Name = 
  22 active torsions:
  status: ('A' for Active; 'I' for Inactive)
    1  A    between atoms: C_1  and  C_19
    2  A    between atoms: C_2  and  C_22
    3  A    between atoms: C_3  and  N_27
    4  A    between atoms: C_3  and  C_28
    5  A    between atoms: S_7  and  S_12
    6  A    between atoms: S_7  and  C_20
    7  A    between atoms: O_8  and  C_11
    8  A    between atoms: C_10  and  C_22
    9  A    between atoms: C_10  and  N_38
   10  A    between atoms: S_12  and  C_32
   11  A    between atoms: C_16  and  C_24
   12  A    between atoms: C_19  and  O_39
   13  A    between atoms: C_20  and  C_29
   14  A    between atoms: C_21  and  C_23
   15  A    between atoms: C_25  and  N_33
   16  A    between atoms: C_25  and  C_41
   17  A    between atoms: N_27  and  C_34
   18  A    between atoms: C_28  and  N_35
   19  A    between atoms: C_30  and  N_33
   20  A    between atoms: C_30  and  C_34
   21  A    between atoms: C_32  and  N_38
   22  A    between atoms: O_39  and  C_41
                            x       y       z     vdW  Elec       q    Type
                         _______ _______ _______ _____ _____    ______ ____

>  <TORSDO>
F 22

$$$$
=
 OpenBabel10222420393D

 42 45  0  0  1  0  0  0  0  0999 V2000
  189.0760  175.9760  137.2000 C   0  0  0  0  0  0  0  0  0  0  0  0
  192.6340  175.6270  135.7750 N   0  0  0  0  0  0  0  0  0  0  0  0
  193.4230  176.1110  136.6900 C   0  0  0  0  0  0  0  0  0  0  0  0
  190.0510  176.4550  138.1030 C   0  0  0  0  0  0  0  0  0  0  0  0
  192.7200  176.6030  137.9510 C   0  0  0  0  0  2  0  0  0  0  0  0
  191.3440  175.7450  136.3370 C   0  0  0  0  0  0  0  0  0  0  0  0
  189.8100  175.4010  135.7680 S   0  0  0  0  0  0  0  0  0  0  0  0
  191.3260  176.2900  137.5580 C   0  0  0  0  0  0  0  0  0  0  0  0
  189.1910  178.1650  139.5150 O   0  0  0  0  0  0  0  0  0  0  0  0
  189.7830  177.0550  139.4280 C   0  0  0  0  0  0  0  0  0  0  0  0
  190.1980  176.3750  140.6180 N   0  0  0  0  0  2  0  0  0  0  0  0
  189.9460  176.9040  141.9500 C   0  0  0  0  0  2  0  0  0  0  0  0
  190.6370  176.0390  142.9890 C   0  0  0  0  0  2  0  0  0  0  0  0
  191.2600  178.1160  143.6060 O   0  0  0  0  0  1  0  0  0  0  0  0
  191.6440  176.8200  143.6860 N   0  0  0  0  0  0  0  0  0  0  0  0
  191.5620  176.4520  145.0910 C   0  0  0  0  0  2  0  0  0  0  0  0
  190.6430  177.4110  145.8290 C   0  0  0  0  0  2  0  0  0  0  0  0
  190.4160  176.9420  147.1830 N   0  0  0  0  0  2  0  0  0  0  0  0
  188.9810  176.7700  147.3340 C   0  0  0  0  0  2  0  0  0  0  0  0
  188.4710  177.6520  148.4600 C   0  0  0  0  0  2  0  0  0  0  0  0
  187.7000  178.6940  147.9420 O   0  0  0  0  0  0  0  0  0  0  0  0
  186.8900  178.0880  146.9790 C   0  0  0  0  0  2  0  0  0  0  0  0
  185.8570  179.0760  146.4680 C   0  0  0  0  0  2  0  0  0  0  0  0
  184.5210  178.3880  146.2790 C   0  0  0  0  0  1  0  0  0  0  0  0
  194.8030  176.1610  136.4990 O   0  0  0  0  0  0  0  0  0  0  0  0
  195.5660  174.9900  136.2480 C   0  0  0  0  0  1  0  0  0  0  0  0
  187.5990  176.0160  137.4000 C   0  0  0  0  0  2  0  0  0  0  0  0
  186.9810  174.7060  136.9540 C   0  0  0  0  0  2  0  0  0  0  0  0
  185.8010  174.9770  136.1540 N   0  0  0  0  0  2  0  0  0  0  0  0
  184.5460  173.9130  137.7990 O   0  0  0  0  0  1  0  0  0  0  0  0
  184.6790  175.0940  137.0680 C   0  0  2  0  0  3  0  0  0  0  0  0
  183.1600  175.3950  136.1220 S   0  0  0  0  0  0  0  0  0  0  0  0
  182.1590  176.2430  137.7970 S   0  0  0  0  0  0  0  0  0  0  0  0
  182.8130  177.8990  137.4440 C   0  0  0  0  0  2  0  0  0  0  0  0
  183.6090  177.6900  139.6920 O   0  0  0  0  0  0  0  0  0  0  0  0
  184.7430  179.8550  139.7720 O   0  0  0  0  0  0  0  0  0  0  0  0
  185.4250  178.8830  140.4630 C   0  0  2  0  0  3  0  0  0  0  0  0
  183.1960  178.5860  138.7390 C   0  0  2  0  0  0  0  0  0  0  0  0
  182.2970  179.5110  139.2850 O   0  0  0  0  0  1  0  0  0  0  0  0
  184.6400  178.5550  139.1930 C   0  0  1  0  0  0  0  0  0  0  0  0
  185.7240  178.0860  142.8000 C   0  0  0  0  0  1  0  0  0  0  0  0
  184.7390  178.6820  141.8150 C   0  0  0  0  0  2  0  0  0  0  0  0
  1 27  1  0  0  0  0
  1  4  2  0  0  0  0
  2  6  1  0  0  0  0
  2  3  2  0  0  0  0
  3  5  1  0  0  0  0
  4 10  1  0  0  0  0
  6  8  2  0  0  0  0
  7  6  1  0  0  0  0
  7  1  1  0  0  0  0
  8  5  1  0  0  0  0
  8  4  1  0  0  0  0
 10  9  2  0  0  0  0
 10 11  1  0  0  0  0
 11 12  1  0  0  0  0
 12 13  1  0  0  0  0
 13 15  1  0  0  0  0
 14 15  1  0  0  0  0
 15 16  1  0  0  0  0
 16 17  1  0  0  0  0
 17 18  1  0  0  0  0
 18 19  1  0  0  0  0
 19 20  1  0  0  0  0
 21 20  1  0  0  0  0
 22 21  1  0  0  0  0
 23 22  1  0  0  0  0
 24 23  1  0  0  0  0
 25  3  1  0  0  0  0
 26 25  1  0  0  0  0
 28 27  1  0  0  0  0
 29 28  1  0  0  0  0
 29 31  1  0  0  0  0
 31 30  1  6  0  0  0
 32 31  1  0  0  0  0
 32 33  1  0  0  0  0
 34 33  1  0  0  0  0
 34 38  1  0  0  0  0
 36 37  1  0  0  0  0
 37 42  1  1  0  0  0
 38 40  1  0  0  0  0
 38 39  1  1  0  0  0
 38 35  1  0  0  0  0
 40 35  1  1  0  0  0
 40 36  1  0  0  0  0
 40 37  1  0  0  0  0
 42 41  1  0  0  0  0
M  END
>  <MODEL>
6

>  <REMARK>
 VINA RESULT:      -6.2      2.660      8.312
  Name = 
  22 active torsions:
  status: ('A' for Active; 'I' for Inactive)
    1  A    between atoms: C_1  and  C_19
    2  A    between atoms: C_2  and  C_22
    3  A    between atoms: C_3  and  N_27
    4  A    between atoms: C_3  and  C_28
    5  A    between atoms: S_7  and  S_12
    6  A    between atoms: S_7  and  C_20
    7  A    between atoms: O_8  and  C_11
    8  A    between atoms: C_10  and  C_22
    9  A    between atoms: C_10  and  N_38
   10  A    between atoms: S_12  and  C_32
   11  A    between atoms: C_16  and  C_24
   12  A    between atoms: C_19  and  O_39
   13  A    between atoms: C_20  and  C_29
   14  A    between atoms: C_21  and  C_23
   15  A    between atoms: C_25  and  N_33
   16  A    between atoms: C_25  and  C_41
   17  A    between atoms: N_27  and  C_34
   18  A    between atoms: C_28  and  N_35
   19  A    between atoms: C_30  and  N_33
   20  A    between atoms: C_30  and  C_34
   21  A    between atoms: C_32  and  N_38
   22  A    between atoms: O_39  and  C_41
                            x       y       z     vdW  Elec       q    Type
                         _______ _______ _______ _____ _____    ______ ____

>  <TORSDO>
F 22

$$$$
=
 OpenBabel10222420393D

 42 45  0  0  1  0  0  0  0  0999 V2000
  187.8540  177.4370  144.2710 C   0  0  0  0  0  0  0  0  0  0  0  0
  190.3000  177.1270  147.2270 N   0  0  0  0  0  0  0  0  0  0  0  0
  191.4490  176.8200  146.6960 C   0  0  0  0  0  0  0  0  0  0  0  0
  189.1610  177.1160  143.8390 C   0  0  0  0  0  0  0  0  0  0  0  0
  191.4460  176.7150  145.1740 C   0  0  0  0  0  2  0  0  0  0  0  0
  189.4350  177.2590  146.1190 C   0  0  0  0  0  0  0  0  0  0  0  0
  187.7990  177.5770  145.9740 S   0  0  0  0  0  0  0  0  0  0  0  0
  190.0190  177.0350  144.9370 C   0  0  0  0  0  0  0  0  0  0  0  0
  190.0900  175.7860  142.1000 O   0  0  0  0  0  0  0  0  0  0  0  0
  189.5760  176.8870  142.4380 C   0  0  0  0  0  0  0  0  0  0  0  0
  189.3970  177.9180  141.4610 N   0  0  0  0  0  2  0  0  0  0  0  0
  189.7670  177.7460  140.0640 C   0  0  0  0  0  2  0  0  0  0  0  0
  188.5420  177.3780  139.2460 C   0  0  0  0  0  2  0  0  0  0  0  0
  188.9130  179.2330  138.0190 O   0  0  0  0  0  1  0  0  0  0  0  0
  187.9390  178.5810  138.6970 N   0  0  0  0  0  0  0  0  0  0  0  0
  186.9660  178.1480  137.7070 C   0  0  0  0  0  2  0  0  0  0  0  0
  187.6760  177.5540  136.5030 C   0  0  0  0  0  2  0  0  0  0  0  0
  186.8560  176.5170  135.9010 N   0  0  0  0  0  2  0  0  0  0  0  0
  187.1880  175.2740  136.5750 C   0  0  0  0  0  2  0  0  0  0  0  0
  186.1710  174.2040  136.2170 C   0  0  0  0  0  2  0  0  0  0  0  0
  184.9110  174.5590  136.7000 O   0  0  0  0  0  0  0  0  0  0  0  0
  184.6390  173.6220  137.6980 C   0  0  0  0  0  2  0  0  0  0  0  0
  184.5730  172.2280  137.1020 C   0  0  0  0  0  2  0  0  0  0  0  0
  183.1320  171.7980  136.9230 C   0  0  0  0  0  1  0  0  0  0  0  0
  192.5760  176.6110  147.4880 O   0  0  0  0  0  0  0  0  0  0  0  0
  192.6580  175.5250  148.3990 C   0  0  0  0  0  1  0  0  0  0  0  0
  186.6500  177.5700  143.4020 C   0  0  0  0  0  2  0  0  0  0  0  0
  185.5400  178.2680  144.1620 C   0  0  0  0  0  2  0  0  0  0  0  0
  184.4380  178.5450  143.2590 N   0  0  0  0  0  2  0  0  0  0  0  0
  183.5290  179.0440  145.3420 O   0  0  0  0  0  1  0  0  0  0  0  0
  183.4830  179.3640  143.9840 C   0  0  2  0  0  3  0  0  0  0  0  0
  181.8140  179.0500  143.3450 S   0  0  0  0  0  0  0  0  0  0  0  0
  182.5310  178.6190  141.3880 S   0  0  0  0  0  0  0  0  0  0  0  0
  180.9480  177.8840  140.8890 C   0  0  0  0  0  2  0  0  0  0  0  0
  179.9340  176.6570  139.1010 O   0  0  0  0  0  0  0  0  0  0  0  0
  181.6360  177.1820  137.4240 O   0  0  0  0  0  0  0  0  0  0  0  0
  180.3720  177.1340  136.8880 C   0  0  2  0  0  3  0  0  0  0  0  0
  181.1320  177.0820  139.6170 C   0  0  2  0  0  0  0  0  0  0  0  0
  182.0660  176.0380  139.6260 O   0  0  0  0  0  1  0  0  0  0  0  0
  180.6140  177.6420  138.3090 C   0  0  1  0  0  0  0  0  0  0  0  0
  181.1890  174.8830  136.2160 C   0  0  0  0  0  1  0  0  0  0  0  0
  179.9850  175.6660  136.6960 C   0  0  0  0  0  2  0  0  0  0  0  0
  1  7  1  0  0  0  0
  3  2  2  0  0  0  0
  3 25  1  0  0  0  0
  4  1  2  0  0  0  0
  4  8  1  0  0  0  0
  5  3  1  0  0  0  0
  6  2  1  0  0  0  0
  7  6  1  0  0  0  0
  8  5  1  0  0  0  0
  8  6  2  0  0  0  0
  9 10  2  0  0  0  0
 10  4  1  0  0  0  0
 11 10  1  0  0  0  0
 12 11  1  0  0  0  0
 13 12  1  0  0  0  0
 14 15  1  0  0  0  0
 15 13  1  0  0  0  0
 16 15  1  0  0  0  0
 17 16  1  0  0  0  0
 18 17  1  0  0  0  0
 18 19  1  0  0  0  0
 20 19  1  0  0  0  0
 20 21  1  0  0  0  0
 21 22  1  0  0  0  0
 23 22  1  0  0  0  0
 24 23  1  0  0  0  0
 25 26  1  0  0  0  0
 27 28  1  0  0  0  0
 27  1  1  0  0  0  0
 29 31  1  0  0  0  0
 29 28  1  0  0  0  0
 31 30  1  1  0  0  0
 32 31  1  0  0  0  0
 33 32  1  0  0  0  0
 34 33  1  0  0  0  0
 35 38  1  0  0  0  0
 37 42  1  1  0  0  0
 37 36  1  0  0  0  0
 37 40  1  0  0  0  0
 38 39  1  6  0  0  0
 38 34  1  0  0  0  0
 40 36  1  6  0  0  0
 40 35  1  0  0  0  0
 40 38  1  0  0  0  0
 41 42  1  0  0  0  0
M  END
>  <MODEL>
7

>  <REMARK>
 VINA RESULT:      -6.2      2.955      4.538
  Name = 
  22 active torsions:
  status: ('A' for Active; 'I' for Inactive)
    1  A    between atoms: C_1  and  C_19
    2  A    between atoms: C_2  and  C_22
    3  A    between atoms: C_3  and  N_27
    4  A    between atoms: C_3  and  C_28
    5  A    between atoms: S_7  and  S_12
    6  A    between atoms: S_7  and  C_20
    7  A    between atoms: O_8  and  C_11
    8  A    between atoms: C_10  and  C_22
    9  A    between atoms: C_10  and  N_38
   10  A    between atoms: S_12  and  C_32
   11  A    between atoms: C_16  and  C_24
   12  A    between atoms: C_19  and  O_39
   13  A    between atoms: C_20  and  C_29
   14  A    between atoms: C_21  and  C_23
   15  A    between atoms: C_25  and  N_33
   16  A    between atoms: C_25  and  C_41
   17  A    between atoms: N_27  and  C_34
   18  A    between atoms: C_28  and  N_35
   19  A    between atoms: C_30  and  N_33
   20  A    between atoms: C_30  and  C_34
   21  A    between atoms: C_32  and  N_38
   22  A    between atoms: O_39  and  C_41
                            x       y       z     vdW  Elec       q    Type
                         _______ _______ _______ _____ _____    ______ ____

>  <TORSDO>
F 22

$$$$
=
 OpenBabel10222420393D

 42 45  0  0  1  0  0  0  0  0999 V2000
  187.6280  177.5340  144.5920 C   0  0  0  0  0  0  0  0  0  0  0  0
  189.9040  177.4360  147.6950 N   0  0  0  0  0  0  0  0  0  0  0  0
  191.0670  177.0420  147.2600 C   0  0  0  0  0  0  0  0  0  0  0  0
  188.9430  177.1310  144.2660 C   0  0  0  0  0  0  0  0  0  0  0  0
  191.1390  176.7890  145.7580 C   0  0  0  0  0  2  0  0  0  0  0  0
  189.1030  177.4870  146.5330 C   0  0  0  0  0  0  0  0  0  0  0  0
  187.4900  177.8410  146.2680 S   0  0  0  0  0  0  0  0  0  0  0  0
  189.7390  177.1300  145.4120 C   0  0  0  0  0  0  0  0  0  0  0  0
  189.8400  175.5840  142.6980 O   0  0  0  0  0  0  0  0  0  0  0  0
  189.4220  176.7530  142.9190 C   0  0  0  0  0  0  0  0  0  0  0  0
  189.4140  177.7170  141.8600 N   0  0  0  0  0  2  0  0  0  0  0  0
  189.8540  177.4010  140.5090 C   0  0  0  0  0  2  0  0  0  0  0  0
  188.7870  177.8100  139.5090 C   0  0  0  0  0  2  0  0  0  0  0  0
  188.1340  177.3260  137.4060 O   0  0  0  0  0  1  0  0  0  0  0  0
  188.5870  176.7450  138.5420 N   0  0  0  0  0  0  0  0  0  0  0  0
  189.9020  176.2060  138.2340 C   0  0  0  0  0  2  0  0  0  0  0  0
  190.5440  177.0060  137.1130 C   0  0  0  0  0  2  0  0  0  0  0  0
  191.7670  176.3590  136.6750 N   0  0  0  0  0  2  0  0  0  0  0  0
  192.6080  176.2070  137.8490 C   0  0  0  0  0  2  0  0  0  0  0  0
  193.5960  175.0740  137.6360 C   0  0  0  0  0  2  0  0  0  0  0  0
  194.7200  175.2600  138.4420 O   0  0  0  0  0  0  0  0  0  0  0  0
  195.1930  173.9700  138.6890 C   0  0  0  0  0  2  0  0  0  0  0  0
  196.3110  173.6290  137.7210 C   0  0  0  0  0  2  0  0  0  0  0  0
  197.5370  174.4680  138.0150 C   0  0  0  0  0  1  0  0  0  0  0  0
  192.1420  176.8750  148.1300 O   0  0  0  0  0  0  0  0  0  0  0  0
  192.8210  175.6340  148.2510 C   0  0  0  0  0  1  0  0  0  0  0  0
  186.4770  177.6200  143.6490 C   0  0  0  0  0  2  0  0  0  0  0  0
  185.3000  178.2890  144.3310 C   0  0  0  0  0  2  0  0  0  0  0  0
  184.1710  178.3260  143.4190 N   0  0  0  0  0  2  0  0  0  0  0  0
  183.4690  179.3600  145.3820 O   0  0  0  0  0  1  0  0  0  0  0  0
  183.1380  179.1310  144.0460 C   0  0  2  0  0  3  0  0  0  0  0  0
  181.5530  178.2520  143.9560 S   0  0  0  0  0  0  0  0  0  0  0  0
  180.8670  179.4400  142.3290 S   0  0  0  0  0  0  0  0  0  0  0  0
  180.4410  177.9760  141.3440 C   0  0  0  0  0  2  0  0  0  0  0  0
  182.5880  177.9360  140.2870 O   0  0  0  0  0  0  0  0  0  0  0  0
  181.8660  176.7580  138.2690 O   0  0  0  0  0  0  0  0  0  0  0  0
  183.1260  176.3840  138.6680 C   0  0  2  0  0  3  0  0  0  0  0  0
  181.2370  177.9770  140.0540 C   0  0  2  0  0  0  0  0  0  0  0  0
  180.9280  178.9450  139.0900 O   0  0  0  0  0  1  0  0  0  0  0  0
  182.0460  176.7510  139.6850 C   0  0  1  0  0  0  0  0  0  0  0  0
  184.6460  177.1430  136.8510 C   0  0  0  0  0  1  0  0  0  0  0  0
  184.1120  177.4690  138.2300 C   0  0  0  0  0  2  0  0  0  0  0  0
  1  7  1  0  0  0  0
  3  2  2  0  0  0  0
  3 25  1  0  0  0  0
  4  1  2  0  0  0  0
  4  8  1  0  0  0  0
  5  3  1  0  0  0  0
  6  2  1  0  0  0  0
  7  6  1  0  0  0  0
  8  5  1  0  0  0  0
  8  6  2  0  0  0  0
  9 10  2  0  0  0  0
 10  4  1  0  0  0  0
 11 10  1  0  0  0  0
 12 11  1  0  0  0  0
 13 12  1  0  0  0  0
 14 15  1  0  0  0  0
 15 13  1  0  0  0  0
 16 15  1  0  0  0  0
 17 16  1  0  0  0  0
 18 17  1  0  0  0  0
 18 19  1  0  0  0  0
 20 19  1  0  0  0  0
 20 21  1  0  0  0  0
 21 22  1  0  0  0  0
 23 24  1  0  0  0  0
 23 22  1  0  0  0  0
 25 26  1  0  0  0  0
 27 28  1  0  0  0  0
 27  1  1  0  0  0  0
 29 31  1  0  0  0  0
 29 28  1  0  0  0  0
 31 30  1  1  0  0  0
 32 31  1  0  0  0  0
 33 32  1  0  0  0  0
 34 33  1  0  0  0  0
 36 37  1  0  0  0  0
 37 42  1  6  0  0  0
 37 40  1  0  0  0  0
 38 39  1  6  0  0  0
 38 35  1  0  0  0  0
 38 34  1  0  0  0  0
 40 36  1  6  0  0  0
 40 38  1  0  0  0  0
 40 35  1  0  0  0  0
 41 42  1  0  0  0  0
M  END
>  <MODEL>
8

>  <REMARK>
 VINA RESULT:      -6.0      1.693      2.114
  Name = 
  22 active torsions:
  status: ('A' for Active; 'I' for Inactive)
    1  A    between atoms: C_1  and  C_19
    2  A    between atoms: C_2  and  C_22
    3  A    between atoms: C_3  and  N_27
    4  A    between atoms: C_3  and  C_28
    5  A    between atoms: S_7  and  S_12
    6  A    between atoms: S_7  and  C_20
    7  A    between atoms: O_8  and  C_11
    8  A    between atoms: C_10  and  C_22
    9  A    between atoms: C_10  and  N_38
   10  A    between atoms: S_12  and  C_32
   11  A    between atoms: C_16  and  C_24
   12  A    between atoms: C_19  and  O_39
   13  A    between atoms: C_20  and  C_29
   14  A    between atoms: C_21  and  C_23
   15  A    between atoms: C_25  and  N_33
   16  A    between atoms: C_25  and  C_41
   17  A    between atoms: N_27  and  C_34
   18  A    between atoms: C_28  and  N_35
   19  A    between atoms: C_30  and  N_33
   20  A    between atoms: C_30  and  C_34
   21  A    between atoms: C_32  and  N_38
   22  A    between atoms: O_39  and  C_41
                            x       y       z     vdW  Elec       q    Type
                         _______ _______ _______ _____ _____    ______ ____

>  <TORSDO>
F 22

$$$$
=
 OpenBabel10222420393D

 42 45  0  0  1  0  0  0  0  0999 V2000
  185.5530  178.7870  142.0790 C   0  0  0  0  0  0  0  0  0  0  0  0
  182.1690  178.9900  143.9020 N   0  0  0  0  0  0  0  0  0  0  0  0
  181.2760  179.1180  142.9620 C   0  0  0  0  0  0  0  0  0  0  0  0
  184.4760  178.9160  141.1730 C   0  0  0  0  0  0  0  0  0  0  0  0
  181.8330  179.1210  141.5420 C   0  0  0  0  0  2  0  0  0  0  0  0
  183.3910  178.8920  143.2010 C   0  0  0  0  0  0  0  0  0  0  0  0
  184.9850  178.7680  143.6910 S   0  0  0  0  0  0  0  0  0  0  0  0
  183.2690  178.9640  141.8720 C   0  0  0  0  0  0  0  0  0  0  0  0
  184.4850  180.1120  139.1170 O   0  0  0  0  0  0  0  0  0  0  0  0
  184.5900  178.9990  139.7010 C   0  0  0  0  0  0  0  0  0  0  0  0
  184.8180  177.8120  138.9330 N   0  0  0  0  0  2  0  0  0  0  0  0
  184.9590  177.8310  137.4850 C   0  0  0  0  0  2  0  0  0  0  0  0
  184.1840  176.6770  136.8740 C   0  0  0  0  0  2  0  0  0  0  0  0
  183.6920  174.6510  137.7330 O   0  0  0  0  0  1  0  0  0  0  0  0
  184.7370  175.4160  137.3350 N   0  0  0  0  0  0  0  0  0  0  0  0
  185.3090  174.7580  136.1710 C   0  0  0  0  0  2  0  0  0  0  0  0
  186.8090  174.5940  136.3500 C   0  0  0  0  0  2  0  0  0  0  0  0
  187.4910  175.8260  135.9960 N   0  0  0  0  0  2  0  0  0  0  0  0
  188.2980  176.2050  137.1420 C   0  0  0  0  0  2  0  0  0  0  0  0
  189.5320  176.9590  136.6800 C   0  0  0  0  0  2  0  0  0  0  0  0
  190.3550  177.2470  137.7700 O   0  0  0  0  0  0  0  0  0  0  0  0
  190.9170  176.0190  138.1210 C   0  0  0  0  0  2  0  0  0  0  0  0
  192.4290  176.1380  138.1960 C   0  0  0  0  0  2  0  0  0  0  0  0
  193.0840  174.9320  137.5550 C   0  0  0  0  0  1  0  0  0  0  0  0
  179.9210  179.2400  143.2680 O   0  0  0  0  0  0  0  0  0  0  0  0
  179.3260  178.5100  144.3300 C   0  0  0  0  0  1  0  0  0  0  0  0
  187.0000  178.7460  141.7230 C   0  0  0  0  0  2  0  0  0  0  0  0
  187.7410  177.8360  142.6820 C   0  0  0  0  0  2  0  0  0  0  0  0
  189.1590  178.1480  142.6430 N   0  0  0  0  0  2  0  0  0  0  0  0
  189.3530  175.8330  142.7750 O   0  0  0  0  0  1  0  0  0  0  0  0
  189.8440  176.9720  142.1370 C   0  0  2  0  0  3  0  0  0  0  0  0
  191.6230  177.1270  142.4600 S   0  0  0  0  0  0  0  0  0  0  0  0
  191.3150  178.4150  144.1260 S   0  0  0  0  0  0  0  0  0  0  0  0
  191.4030  177.0340  145.3020 C   0  0  0  0  0  2  0  0  0  0  0  0
  189.4810  178.2220  146.0940 O   0  0  0  0  0  0  0  0  0  0  0  0
  188.5480  176.3750  147.3970 O   0  0  0  0  0  0  0  0  0  0  0  0
  187.5730  177.1340  146.7960 C   0  0  2  0  0  3  0  0  0  0  0  0
  190.3770  177.2300  146.4010 C   0  0  2  0  0  0  0  0  0  0  0  0
  190.8390  177.3690  147.7160 O   0  0  0  0  0  1  0  0  0  0  0  0
  188.9260  176.8990  146.1240 C   0  0  1  0  0  0  0  0  0  0  0  0
  186.0590  179.0530  147.2520 C   0  0  0  0  0  1  0  0  0  0  0  0
  187.3810  178.4100  147.6170 C   0  0  0  0  0  2  0  0  0  0  0  0
  1  7  1  0  0  0  0
  3 25  1  0  0  0  0
  3  2  2  0  0  0  0
  4  8  1  0  0  0  0
  4  1  2  0  0  0  0
  5  8  1  0  0  0  0
  5  3  1  0  0  0  0
  6  7  1  0  0  0  0
  6  2  1  0  0  0  0
  8  6  2  0  0  0  0
  9 10  2  0  0  0  0
 10  4  1  0  0  0  0
 11 10  1  0  0  0  0
 12 11  1  0  0  0  0
 13 15  1  0  0  0  0
 13 12  1  0  0  0  0
 15 14  1  0  0  0  0
 16 17  1  0  0  0  0
 16 15  1  0  0  0  0
 18 17  1  0  0  0  0
 18 19  1  0  0  0  0
 20 19  1  0  0  0  0
 20 21  1  0  0  0  0
 21 22  1  0  0  0  0
 22 23  1  0  0  0  0
 24 23  1  0  0  0  0
 25 26  1  0  0  0  0
 27  1  1  0  0  0  0
 27 28  1  0  0  0  0
 29 28  1  0  0  0  0
 31 32  1  0  0  0  0
 31 29  1  0  0  0  0
 31 30  1  1  0  0  0
 32 33  1  0  0  0  0
 33 34  1  0  0  0  0
 34 38  1  0  0  0  0
 35 38  1  0  0  0  0
 37 36  1  0  0  0  0
 37 42  1  1  0  0  0
 38 39  1  1  0  0  0
 40 35  1  1  0  0  0
 40 38  1  0  0  0  0
 40 37  1  0  0  0  0
 40 36  1  0  0  0  0
 41 42  1  0  0  0  0
M  END
>  <MODEL>
9

>  <REMARK>
 VINA RESULT:      -6.0      2.718      7.891
  Name = 
  22 active torsions:
  status: ('A' for Active; 'I' for Inactive)
    1  A    between atoms: C_1  and  C_19
    2  A    between atoms: C_2  and  C_22
    3  A    between atoms: C_3  and  N_27
    4  A    between atoms: C_3  and  C_28
    5  A    between atoms: S_7  and  S_12
    6  A    between atoms: S_7  and  C_20
    7  A    between atoms: O_8  and  C_11
    8  A    between atoms: C_10  and  C_22
    9  A    between atoms: C_10  and  N_38
   10  A    between atoms: S_12  and  C_32
   11  A    between atoms: C_16  and  C_24
   12  A    between atoms: C_19  and  O_39
   13  A    between atoms: C_20  and  C_29
   14  A    between atoms: C_21  and  C_23
   15  A    between atoms: C_25  and  N_33
   16  A    between atoms: C_25  and  C_41
   17  A    between atoms: N_27  and  C_34
   18  A    between atoms: C_28  and  N_35
   19  A    between atoms: C_30  and  N_33
   20  A    between atoms: C_30  and  C_34
   21  A    between atoms: C_32  and  N_38
   22  A    between atoms: O_39  and  C_41
                            x       y       z     vdW  Elec       q    Type
                         _______ _______ _______ _____ _____    ______ ____

>  <TORSDO>
F 22

$$$$
