=
 OpenBabel10222417003D

 40 45  0  0  1  0  0  0  0  0999 V2000
  191.1150  178.5920  144.0940 C   0  0  0  0  0  2  0  0  0  0  0  0
  191.6430  176.5800  147.5970 O   0  0  0  0  0  1  0  0  0  0  0  0
  188.9300  177.5710  146.9640 N   0  0  0  0  0  2  0  0  0  0  0  0
  191.2850  176.0070  143.9090 C   0  0  0  0  0  2  0  0  0  0  0  0
  189.9860  178.3790  145.0010 N   0  0  0  0  0  0  0  0  0  0  0  0
  191.7830  176.0090  145.3230 C   0  0  0  0  0  3  0  0  0  0  0  0
  190.0080  177.5630  146.0190 C   0  0  0  0  0  0  0  0  0  0  0  0
  191.4230  177.3720  143.2160 C   0  0  1  0  0  3  0  0  0  0  0  0
  191.1780  176.7000  146.2930 C   0  0  0  0  0  0  0  0  0  0  0  0
  189.7690  178.6740  141.8640 C   0  0  0  0  0  2  0  0  0  0  0  0
  188.4510  178.4240  141.1260 C   0  0  0  0  0  2  0  0  0  0  0  0
  189.8100  177.9980  139.0020 C   0  0  0  0  0  2  0  0  0  0  0  0
  190.9550  177.0690  139.3870 C   0  0  0  0  0  2  0  0  0  0  0  0
  190.6760  177.4500  141.8830 C   0  0  1  0  0  3  0  0  0  0  0  0
  188.5730  177.6380  139.8150 C   0  0  2  0  0  3  0  0  0  0  0  0
  191.6310  177.4940  140.6890 C   0  0  0  0  0  2  0  0  0  0  0  0
  186.4400  178.6150  139.3580 O   0  0  0  0  0  0  0  0  0  0  0  0
  187.1840  177.0320  137.8010 N   0  0  0  0  0  2  0  0  0  0  0  0
  187.3350  177.8030  138.9980 C   0  0  0  0  0  0  0  0  0  0  0  0
  186.2450  176.2680  135.6410 C   0  0  0  0  0  2  0  0  0  0  0  0
  183.9830  175.1350  135.8370 C   0  0  2  0  0  3  0  0  0  0  0  0
  183.6200  176.3350  136.7240 C   0  0  0  0  0  2  0  0  0  0  0  0
  186.0110  177.0710  136.9310 C   0  0  1  0  0  3  0  0  0  0  0  0
  185.4950  174.9360  135.6490 C   0  0  0  0  0  2  0  0  0  0  0  0
  184.7430  176.6750  137.6980 C   0  0  0  0  0  2  0  0  0  0  0  0
  183.3670  175.2760  134.5940 O   0  0  0  0  0  1  0  0  0  0  0  0
  185.7150  178.6400  145.3280 N   0  0  0  0  0  2  0  0  0  0  0  0
  187.6910  178.1950  146.7330 N   0  0  0  0  0  2  0  0  0  0  0  0
  186.7570  177.7560  145.7430 C   0  0  0  0  0  0  0  0  0  0  0  0
  186.8350  176.5940  145.2630 O   0  0  0  0  0  0  0  0  0  0  0  0
  181.1250  178.4300  141.7340 N   0  0  0  0  0  0  0  0  0  0  0  0
  184.6630  178.2290  144.4100 C   0  0  1  0  0  3  0  0  0  0  0  0
  182.3220  179.0720  143.9150 C   0  0  0  0  0  2  0  0  0  0  0  0
  183.8330  179.4410  144.0080 C   0  0  2  0  0  3  0  0  0  0  0  0
  181.6590  178.3440  140.4830 C   0  0  0  0  0  3  0  0  0  0  0  0
  183.0190  178.6670  140.5070 C   0  0  0  0  0  3  0  0  0  0  0  0
  182.1810  178.8030  142.4740 C   0  0  0  0  0  0  0  0  0  0  0  0
  185.2320  178.1400  143.0020 C   0  0  0  0  0  2  0  0  0  0  0  0
  184.4190  179.3520  142.5780 C   0  0  1  0  0  3  0  0  0  0  0  0
  183.2830  178.9450  141.7880 N   0  0  0  0  0  0  0  0  0  0  0  0
  1  5  1  0  0  0  0
  4  6  1  0  0  0  0
  5  7  2  0  0  0  0
  6  9  2  0  0  0  0
  7  9  1  0  0  0  0
  7  3  1  0  0  0  0
  8  4  1  1  0  0  0
  8  1  1  0  0  0  0
  9  2  1  0  0  0  0
 10 14  1  0  0  0  0
 11 10  1  0  0  0  0
 12 13  1  0  0  0  0
 12 15  1  0  0  0  0
 13 16  1  0  0  0  0
 14 16  1  6  0  0  0
 14  8  1  0  0  0  0
 15 19  1  6  0  0  0
 15 11  1  0  0  0  0
 18 19  1  0  0  0  0
 19 17  2  0  0  0  0
 20 24  1  0  0  0  0
 20 23  1  0  0  0  0
 21 26  1  6  0  0  0
 21 22  1  0  0  0  0
 22 25  1  0  0  0  0
 23 25  1  0  0  0  0
 23 18  1  1  0  0  0
 24 21  1  0  0  0  0
 27 29  1  0  0  0  0
 28  3  1  0  0  0  0
 29 28  1  0  0  0  0
 30 29  2  0  0  0  0
 31 37  2  0  0  0  0
 32 27  1  1  0  0  0
 34 33  1  6  0  0  0
 34 32  1  0  0  0  0
 35 36  2  0  0  0  0
 35 31  1  0  0  0  0
 36 40  1  0  0  0  0
 37 33  1  0  0  0  0
 38 32  1  0  0  0  0
 39 38  1  1  0  0  0
 39 34  1  0  0  0  0
 40 37  1  0  0  0  0
 40 39  1  0  0  0  0
M  END
>  <MODEL>
1

>  <REMARK>
 VINA RESULT:      -9.6      0.000      0.000
  Name = 
  5 active torsions:
  status: ('A' for Active; 'I' for Inactive)
    1  A    between atoms: N_3  and  C_8
    2  A    between atoms: N_7  and  N_10
    3  A    between atoms: C_24  and  N_31
    4  A    between atoms: C_27  and  C_34
    5  A    between atoms: C_28  and  C_33
                            x       y       z     vdW  Elec       q    Type
                         _______ _______ _______ _____ _____    ______ ____

>  <TORSDO>
F 5

$$$$
=
 OpenBabel10222417003D

 40 45  0  0  1  0  0  0  0  0999 V2000
  188.2600  176.4870  147.0900 C   0  0  0  0  0  2  0  0  0  0  0  0
  191.7940  177.5010  148.8440 O   0  0  0  0  0  1  0  0  0  0  0  0
  191.7910  176.9830  145.9330 N   0  0  0  0  0  2  0  0  0  0  0  0
  188.5780  179.0060  147.6390 C   0  0  0  0  0  2  0  0  0  0  0  0
  189.4810  176.5830  146.2890 N   0  0  0  0  0  0  0  0  0  0  0  0
  189.7510  178.6010  148.4810 C   0  0  0  0  0  3  0  0  0  0  0  0
  190.5950  177.1140  146.7120 C   0  0  0  0  0  0  0  0  0  0  0  0
  187.6050  177.8490  147.3590 C   0  0  1  0  0  3  0  0  0  0  0  0
  190.6880  177.7570  148.0410 C   0  0  0  0  0  0  0  0  0  0  0  0
  186.6480  177.1740  145.1480 C   0  0  0  0  0  2  0  0  0  0  0  0
  186.3870  177.8070  143.7790 C   0  0  0  0  0  2  0  0  0  0  0  0
  184.0330  178.3980  144.5850 C   0  0  0  0  0  2  0  0  0  0  0  0
  184.1800  179.0030  145.9760 C   0  0  0  0  0  2  0  0  0  0  0  0
  186.5650  178.1810  146.2880 C   0  0  1  0  0  3  0  0  0  0  0  0
  185.2250  178.8070  143.7290 C   0  0  2  0  0  3  0  0  0  0  0  0
  185.1430  178.2060  146.8540 C   0  0  0  0  0  2  0  0  0  0  0  0
  185.5200  179.7440  141.5500 O   0  0  0  0  0  0  0  0  0  0  0  0
  183.5900  178.4510  141.8440 N   0  0  0  0  0  2  0  0  0  0  0  0
  184.8070  179.0410  142.3160 C   0  0  0  0  0  0  0  0  0  0  0  0
  183.4290  177.4510  139.5850 C   0  0  0  0  0  2  0  0  0  0  0  0
  181.0580  177.2650  138.7010 C   0  0  2  0  0  3  0  0  0  0  0  0
  180.9220  178.7210  139.1690 C   0  0  0  0  0  2  0  0  0  0  0  0
  183.0490  178.6280  140.4990 C   0  0  1  0  0  3  0  0  0  0  0  0
  182.2460  176.5190  139.3270 C   0  0  0  0  0  2  0  0  0  0  0  0
  181.5460  178.9300  140.5450 C   0  0  0  0  0  2  0  0  0  0  0  0
  181.1600  177.2340  137.3110 O   0  0  0  0  0  1  0  0  0  0  0  0
  191.0380  176.7430  142.2540 N   0  0  0  0  0  2  0  0  0  0  0  0
  191.8080  176.5670  144.5890 N   0  0  0  0  0  2  0  0  0  0  0  0
  191.3210  177.3650  143.5070 C   0  0  0  0  0  0  0  0  0  0  0  0
  191.1690  178.6080  143.6500 O   0  0  0  0  0  0  0  0  0  0  0  0
  189.4310  178.4410  136.9100 N   0  0  0  0  0  0  0  0  0  0  0  0
  190.6470  177.5030  141.0760 C   0  0  1  0  0  3  0  0  0  0  0  0
  190.8880  177.1390  138.5770 C   0  0  0  0  0  2  0  0  0  0  0  0
  190.3650  176.5500  139.9230 C   0  0  2  0  0  3  0  0  0  0  0  0
  188.1060  178.7470  137.0190 C   0  0  0  0  0  3  0  0  0  0  0  0
  187.5830  178.2400  138.2120 C   0  0  0  0  0  3  0  0  0  0  0  0
  189.6640  177.7590  138.0420 C   0  0  0  0  0  0  0  0  0  0  0  0
  189.1660  177.8440  141.1680 C   0  0  0  0  0  2  0  0  0  0  0  0
  188.8590  176.8930  140.0230 C   0  0  1  0  0  3  0  0  0  0  0  0
  188.6150  177.6310  138.8080 N   0  0  0  0  0  0  0  0  0  0  0  0
  3  7  1  0  0  0  0
  4  6  1  0  0  0  0
  5  7  2  0  0  0  0
  5  1  1  0  0  0  0
  7  9  1  0  0  0  0
  8  1  1  6  0  0  0
  8  4  1  0  0  0  0
  9  6  2  0  0  0  0
  9  2  1  0  0  0  0
 11 10  1  0  0  0  0
 12 13  1  0  0  0  0
 13 16  1  0  0  0  0
 14 10  1  6  0  0  0
 14 16  1  0  0  0  0
 14  8  1  0  0  0  0
 15 19  1  6  0  0  0
 15 11  1  0  0  0  0
 15 12  1  0  0  0  0
 17 19  2  0  0  0  0
 18 19  1  0  0  0  0
 20 23  1  0  0  0  0
 21 26  1  6  0  0  0
 21 22  1  0  0  0  0
 21 24  1  0  0  0  0
 22 25  1  0  0  0  0
 23 25  1  0  0  0  0
 23 18  1  1  0  0  0
 24 20  1  0  0  0  0
 27 29  1  0  0  0  0
 28  3  1  0  0  0  0
 29 30  2  0  0  0  0
 29 28  1  0  0  0  0
 31 35  1  0  0  0  0
 31 37  2  0  0  0  0
 32 38  1  0  0  0  0
 32 27  1  1  0  0  0
 34 33  1  6  0  0  0
 34 39  1  0  0  0  0
 34 32  1  0  0  0  0
 35 36  2  0  0  0  0
 36 40  1  0  0  0  0
 37 33  1  0  0  0  0
 37 40  1  0  0  0  0
 39 38  1  1  0  0  0
 40 39  1  0  0  0  0
M  END
>  <MODEL>
2

>  <REMARK>
 VINA RESULT:      -9.6      2.182      5.818
  Name = 
  5 active torsions:
  status: ('A' for Active; 'I' for Inactive)
    1  A    between atoms: N_3  and  C_8
    2  A    between atoms: N_7  and  N_10
    3  A    between atoms: C_24  and  N_31
    4  A    between atoms: C_27  and  C_34
    5  A    between atoms: C_28  and  C_33
                            x       y       z     vdW  Elec       q    Type
                         _______ _______ _______ _____ _____    ______ ____

>  <TORSDO>
F 5

$$$$
=
 OpenBabel10222417003D

 40 45  0  0  1  0  0  0  0  0999 V2000
  190.1070  176.0350  142.8950 C   0  0  0  0  0  2  0  0  0  0  0  0
  192.9040  177.3020  140.2190 O   0  0  0  0  0  1  0  0  0  0  0  0
  190.1530  176.8480  139.2360 N   0  0  0  0  0  2  0  0  0  0  0  0
  190.7140  178.5590  142.9890 C   0  0  0  0  0  2  0  0  0  0  0  0
  189.7440  176.2500  141.4940 N   0  0  0  0  0  0  0  0  0  0  0  0
  191.8930  178.2350  142.1210 C   0  0  0  0  0  3  0  0  0  0  0  0
  190.5020  176.8620  140.6260 C   0  0  0  0  0  0  0  0  0  0  0  0
  190.1420  177.3310  143.7160 C   0  0  1  0  0  3  0  0  0  0  0  0
  191.7860  177.4820  141.0230 C   0  0  0  0  0  0  0  0  0  0  0  0
  187.6800  176.8970  143.6070 C   0  0  0  0  0  2  0  0  0  0  0  0
  186.3810  177.7050  143.5690 C   0  0  0  0  0  2  0  0  0  0  0  0
  186.2730  177.5090  146.1160 C   0  0  0  0  0  2  0  0  0  0  0  0
  187.6640  177.8390  146.6450 C   0  0  0  0  0  2  0  0  0  0  0  0
  188.7890  177.5990  144.3790 C   0  0  1  0  0  3  0  0  0  0  0  0
  185.9820  178.3690  144.8930 C   0  0  2  0  0  3  0  0  0  0  0  0
  188.7660  177.1510  145.8430 C   0  0  0  0  0  2  0  0  0  0  0  0
  183.9330  179.0400  145.9250 O   0  0  0  0  0  0  0  0  0  0  0  0
  183.8780  178.8480  143.5920 N   0  0  0  0  0  2  0  0  0  0  0  0
  184.5460  178.7700  144.8560 C   0  0  0  0  0  0  0  0  0  0  0  0
  182.0810  179.2170  141.9290 C   0  0  0  0  0  2  0  0  0  0  0  0
  179.9680  177.8830  142.3730 C   0  0  2  0  0  3  0  0  0  0  0  0
  180.1240  178.3880  143.8150 C   0  0  0  0  0  2  0  0  0  0  0  0
  182.4690  179.1920  143.4170 C   0  0  1  0  0  3  0  0  0  0  0  0
  181.2480  177.9980  141.5320 C   0  0  0  0  0  2  0  0  0  0  0  0
  181.5720  178.3030  144.2870 C   0  0  0  0  0  2  0  0  0  0  0  0
  178.9310  178.5760  141.7510 O   0  0  0  0  0  1  0  0  0  0  0  0
  186.5410  176.9560  138.1880 N   0  0  0  0  0  2  0  0  0  0  0  0
  188.8890  176.4640  138.7510 N   0  0  0  0  0  2  0  0  0  0  0  0
  187.8940  177.3930  138.3140 C   0  0  0  0  0  0  0  0  0  0  0  0
  188.2110  178.5760  138.0180 O   0  0  0  0  0  0  0  0  0  0  0  0
  181.5310  179.1320  136.1400 N   0  0  0  0  0  0  0  0  0  0  0  0
  185.4930  177.8080  137.6460 C   0  0  1  0  0  3  0  0  0  0  0  0
  183.4090  177.3840  136.2620 C   0  0  0  0  0  2  0  0  0  0  0  0
  184.1890  177.0270  137.5640 C   0  0  2  0  0  3  0  0  0  0  0  0
  181.0400  179.9030  137.1520 C   0  0  0  0  0  3  0  0  0  0  0  0
  181.7060  179.6220  138.3490 C   0  0  0  0  0  3  0  0  0  0  0  0
  182.4780  178.4100  136.7600 C   0  0  0  0  0  0  0  0  0  0  0  0
  184.9180  178.6690  138.7610 C   0  0  0  0  0  2  0  0  0  0  0  0
  183.6090  177.8990  138.7040 C   0  0  1  0  0  3  0  0  0  0  0  0
  182.5970  178.6760  138.0320 N   0  0  0  0  0  0  0  0  0  0  0  0
  2  9  1  0  0  0  0
  3  7  1  0  0  0  0
  4  8  1  0  0  0  0
  5  1  1  0  0  0  0
  6  4  1  0  0  0  0
  7  9  1  0  0  0  0
  7  5  2  0  0  0  0
  8  1  1  6  0  0  0
  8 14  1  0  0  0  0
  9  6  2  0  0  0  0
 11 10  1  0  0  0  0
 11 15  1  0  0  0  0
 12 13  1  0  0  0  0
 14 10  1  6  0  0  0
 14 16  1  0  0  0  0
 15 19  1  6  0  0  0
 15 12  1  0  0  0  0
 16 13  1  0  0  0  0
 18 19  1  0  0  0  0
 19 17  2  0  0  0  0
 20 23  1  0  0  0  0
 21 26  1  6  0  0  0
 21 22  1  0  0  0  0
 22 25  1  0  0  0  0
 23 18  1  6  0  0  0
 23 25  1  0  0  0  0
 24 20  1  0  0  0  0
 24 21  1  0  0  0  0
 27 29  1  0  0  0  0
 28  3  1  0  0  0  0
 29 28  1  0  0  0  0
 30 29  2  0  0  0  0
 31 37  2  0  0  0  0
 31 35  1  0  0  0  0
 32 27  1  1  0  0  0
 32 38  1  0  0  0  0
 33 37  1  0  0  0  0
 34 33  1  6  0  0  0
 34 32  1  0  0  0  0
 34 39  1  0  0  0  0
 35 36  2  0  0  0  0
 37 40  1  0  0  0  0
 39 38  1  6  0  0  0
 40 36  1  0  0  0  0
 40 39  1  0  0  0  0
M  END
>  <MODEL>
3

>  <REMARK>
 VINA RESULT:      -9.6      2.738      6.292
  Name = 
  5 active torsions:
  status: ('A' for Active; 'I' for Inactive)
    1  A    between atoms: N_3  and  C_8
    2  A    between atoms: N_7  and  N_10
    3  A    between atoms: C_24  and  N_31
    4  A    between atoms: C_27  and  C_34
    5  A    between atoms: C_28  and  C_33
                            x       y       z     vdW  Elec       q    Type
                         _______ _______ _______ _____ _____    ______ ____

>  <TORSDO>
F 5

$$$$
=
 OpenBabel10222417003D

 40 45  0  0  1  0  0  0  0  0999 V2000
  180.8400  177.7150  140.0300 C   0  0  0  0  0  2  0  0  0  0  0  0
  179.0160  180.6970  142.1220 O   0  0  0  0  0  1  0  0  0  0  0  0
  181.3600  179.3760  143.3500 N   0  0  0  0  0  2  0  0  0  0  0  0
  181.3700  180.1380  139.2580 C   0  0  0  0  0  2  0  0  0  0  0  0
  181.3410  178.1050  141.3490 N   0  0  0  0  0  0  0  0  0  0  0  0
  180.2180  180.5850  140.1080 C   0  0  0  0  0  3  0  0  0  0  0  0
  180.9700  179.1820  141.9840 C   0  0  0  0  0  0  0  0  0  0  0  0
  181.3170  178.6430  138.9040 C   0  0  1  0  0  3  0  0  0  0  0  0
  180.0550  180.1670  141.3660 C   0  0  0  0  0  0  0  0  0  0  0  0
  183.7610  178.2520  139.2690 C   0  0  0  0  0  2  0  0  0  0  0  0
  185.0870  178.6200  138.5990 C   0  0  0  0  0  2  0  0  0  0  0  0
  184.9570  176.4190  137.3040 C   0  0  0  0  0  2  0  0  0  0  0  0
  183.5370  176.3070  136.7630 C   0  0  0  0  0  2  0  0  0  0  0  0
  182.6130  178.1260  138.2760 C   0  0  1  0  0  3  0  0  0  0  0  0
  185.3880  177.8790  137.2900 C   0  0  2  0  0  3  0  0  0  0  0  0
  182.4880  176.6740  137.8090 C   0  0  0  0  0  2  0  0  0  0  0  0
  187.1900  178.3610  135.7950 O   0  0  0  0  0  0  0  0  0  0  0  0
  187.8130  177.7110  137.9570 N   0  0  0  0  0  2  0  0  0  0  0  0
  186.8360  178.0010  136.9500 C   0  0  0  0  0  0  0  0  0  0  0  0
  190.0050  178.0100  139.0680 C   0  0  0  0  0  2  0  0  0  0  0  0
  191.6790  176.1700  138.5710 C   0  0  2  0  0  3  0  0  0  0  0  0
  191.2550  176.3760  137.1100 C   0  0  0  0  0  2  0  0  0  0  0  0
  189.2580  177.7560  137.7480 C   0  0  1  0  0  3  0  0  0  0  0  0
  190.6890  176.7480  139.5930 C   0  0  0  0  0  2  0  0  0  0  0  0
  189.7430  176.5220  136.9780 C   0  0  0  0  0  2  0  0  0  0  0  0
  192.9420  176.7260  138.7690 O   0  0  0  0  0  1  0  0  0  0  0  0
  184.7190  177.9750  144.3040 N   0  0  0  0  0  2  0  0  0  0  0  0
  182.3620  178.6260  143.9920 N   0  0  0  0  0  2  0  0  0  0  0  0
  183.7510  178.9630  143.9490 C   0  0  0  0  0  0  0  0  0  0  0  0
  184.1170  180.1250  143.6280 O   0  0  0  0  0  0  0  0  0  0  0  0
  190.4470  177.8770  145.4010 N   0  0  0  0  0  0  0  0  0  0  0  0
  186.1410  178.2710  144.3920 C   0  0  1  0  0  3  0  0  0  0  0  0
  187.9690  177.6840  146.0500 C   0  0  0  0  0  2  0  0  0  0  0  0
  186.8570  177.1330  145.1060 C   0  0  2  0  0  3  0  0  0  0  0  0
  191.0290  177.5380  144.2150 C   0  0  0  0  0  3  0  0  0  0  0  0
  190.0730  177.0350  143.3270 C   0  0  0  0  0  3  0  0  0  0  0  0
  189.1590  177.5660  145.1900 C   0  0  0  0  0  0  0  0  0  0  0  0
  186.8150  177.8870  143.0830 C   0  0  0  0  0  2  0  0  0  0  0  0
  187.5370  176.7400  143.7720 C   0  0  1  0  0  3  0  0  0  0  0  0
  188.9200  177.0810  144.0020 N   0  0  0  0  0  0  0  0  0  0  0  0
  1  5  1  0  0  0  0
  3 28  1  0  0  0  0
  4  6  1  0  0  0  0
  5  7  2  0  0  0  0
  6  9  2  0  0  0  0
  7  3  1  0  0  0  0
  8  4  1  1  0  0  0
  8  1  1  0  0  0  0
  9  7  1  0  0  0  0
  9  2  1  0  0  0  0
 11 10  1  0  0  0  0
 13 12  1  0  0  0  0
 13 16  1  0  0  0  0
 14 16  1  1  0  0  0
 14  8  1  0  0  0  0
 14 10  1  0  0  0  0
 15 19  1  1  0  0  0
 15 12  1  0  0  0  0
 15 11  1  0  0  0  0
 17 19  2  0  0  0  0
 19 18  1  0  0  0  0
 20 24  1  0  0  0  0
 21 26  1  6  0  0  0
 21 24  1  0  0  0  0
 22 21  1  0  0  0  0
 23 18  1  1  0  0  0
 23 20  1  0  0  0  0
 25 22  1  0  0  0  0
 25 23  1  0  0  0  0
 29 28  1  0  0  0  0
 29 27  1  0  0  0  0
 30 29  2  0  0  0  0
 32 27  1  6  0  0  0
 32 34  1  0  0  0  0
 34 33  1  1  0  0  0
 35 31  1  0  0  0  0
 36 40  1  0  0  0  0
 36 35  2  0  0  0  0
 37 31  2  0  0  0  0
 37 33  1  0  0  0  0
 38 32  1  0  0  0  0
 39 38  1  6  0  0  0
 39 40  1  0  0  0  0
 39 34  1  0  0  0  0
 40 37  1  0  0  0  0
M  END
>  <MODEL>
4

>  <REMARK>
 VINA RESULT:      -9.4      2.463      7.768
  Name = 
  5 active torsions:
  status: ('A' for Active; 'I' for Inactive)
    1  A    between atoms: N_3  and  C_8
    2  A    between atoms: N_7  and  N_10
    3  A    between atoms: C_24  and  N_31
    4  A    between atoms: C_27  and  C_34
    5  A    between atoms: C_28  and  C_33
                            x       y       z     vdW  Elec       q    Type
                         _______ _______ _______ _____ _____    ______ ____

>  <TORSDO>
F 5

$$$$
=
 OpenBabel10222417003D

 40 45  0  0  1  0  0  0  0  0999 V2000
  183.8490  179.3740  139.7760 C   0  0  0  0  0  2  0  0  0  0  0  0
  182.5380  177.2800  136.5370 O   0  0  0  0  0  1  0  0  0  0  0  0
  185.4510  177.3780  137.0370 N   0  0  0  0  0  2  0  0  0  0  0  0
  182.8460  177.0280  140.2640 C   0  0  0  0  0  2  0  0  0  0  0  0
  184.8050  178.7010  138.8950 N   0  0  0  0  0  0  0  0  0  0  0  0
  182.3160  177.0410  138.8620 C   0  0  0  0  0  3  0  0  0  0  0  0
  184.4720  177.8320  137.9800 C   0  0  0  0  0  0  0  0  0  0  0  0
  183.1950  178.4290  140.7930 C   0  0  1  0  0  3  0  0  0  0  0  0
  183.0730  177.3810  137.8150 C   0  0  0  0  0  0  0  0  0  0  0  0
  185.3340  179.0770  141.9160 C   0  0  0  0  0  2  0  0  0  0  0  0
  186.4510  178.4030  142.7160 C   0  0  0  0  0  2  0  0  0  0  0  0
  185.1810  179.0040  144.8520 C   0  0  0  0  0  2  0  0  0  0  0  0
  183.7220  178.6280  144.6210 C   0  0  0  0  0  2  0  0  0  0  0  0
  183.9830  178.4000  142.1040 C   0  0  1  0  0  3  0  0  0  0  0  0
  186.0790  177.9960  144.1470 C   0  0  2  0  0  3  0  0  0  0  0  0
  183.2210  179.0720  143.2490 C   0  0  0  0  0  2  0  0  0  0  0  0
  187.2400  177.1260  146.0470 O   0  0  0  0  0  0  0  0  0  0  0  0
  188.5760  178.1820  144.4390 N   0  0  0  0  0  2  0  0  0  0  0  0
  187.3120  177.7350  144.9460 C   0  0  0  0  0  0  0  0  0  0  0  0
  189.6740  178.1290  146.6570 C   0  0  0  0  0  2  0  0  0  0  0  0
  191.1180  176.0800  147.0500 C   0  0  2  0  0  3  0  0  0  0  0  0
  191.6820  176.3870  145.6550 C   0  0  0  0  0  2  0  0  0  0  0  0
  189.8510  178.0230  145.1330 C   0  0  1  0  0  3  0  0  0  0  0  0
  189.7760  176.7670  147.3430 C   0  0  0  0  0  2  0  0  0  0  0  0
  190.5770  176.7540  144.6700 C   0  0  0  0  0  2  0  0  0  0  0  0
  192.0560  176.4420  148.0160 O   0  0  0  0  0  1  0  0  0  0  0  0
  189.0760  176.8060  137.8670 N   0  0  0  0  0  2  0  0  0  0  0  0
  186.8350  177.5770  137.1880 N   0  0  0  0  0  2  0  0  0  0  0  0
  187.7730  176.5120  137.3640 C   0  0  0  0  0  0  0  0  0  0  0  0
  187.4630  175.3310  137.0520 O   0  0  0  0  0  0  0  0  0  0  0  0
  193.5560  173.2010  136.8880 N   0  0  0  0  0  0  0  0  0  0  0  0
  190.1200  175.7980  137.9690 C   0  0  1  0  0  3  0  0  0  0  0  0
  191.3250  174.3260  136.2910 C   0  0  0  0  0  2  0  0  0  0  0  0
  190.9450  175.7840  136.6900 C   0  0  2  0  0  3  0  0  0  0  0  0
  194.5980  173.7330  137.5890 C   0  0  0  0  0  3  0  0  0  0  0  0
  194.3110  175.0460  137.9730 C   0  0  0  0  0  3  0  0  0  0  0  0
  192.6730  174.2120  136.8710 C   0  0  0  0  0  0  0  0  0  0  0  0
  191.3010  176.3730  138.7360 C   0  0  0  0  0  2  0  0  0  0  0  0
  192.1430  176.3760  137.4700 C   0  0  1  0  0  3  0  0  0  0  0  0
  193.0860  175.2850  137.4910 N   0  0  0  0  0  0  0  0  0  0  0  0
  2  9  1  0  0  0  0
  3 28  1  0  0  0  0
  3  7  1  0  0  0  0
  4  8  1  0  0  0  0
  5  1  1  0  0  0  0
  6  4  1  0  0  0  0
  7  5  2  0  0  0  0
  8  1  1  6  0  0  0
  8 14  1  0  0  0  0
  9  7  1  0  0  0  0
  9  6  2  0  0  0  0
 10 11  1  0  0  0  0
 11 15  1  0  0  0  0
 13 12  1  0  0  0  0
 14 10  1  6  0  0  0
 14 16  1  0  0  0  0
 15 12  1  0  0  0  0
 15 19  1  1  0  0  0
 16 13  1  0  0  0  0
 18 19  1  0  0  0  0
 19 17  2  0  0  0  0
 20 24  1  0  0  0  0
 21 24  1  0  0  0  0
 21 26  1  1  0  0  0
 22 21  1  0  0  0  0
 23 18  1  6  0  0  0
 23 20  1  0  0  0  0
 25 23  1  0  0  0  0
 25 22  1  0  0  0  0
 28 29  1  0  0  0  0
 29 27  1  0  0  0  0
 30 29  2  0  0  0  0
 31 35  1  0  0  0  0
 32 27  1  6  0  0  0
 32 38  1  0  0  0  0
 33 37  1  0  0  0  0
 34 33  1  1  0  0  0
 34 39  1  0  0  0  0
 34 32  1  0  0  0  0
 35 36  2  0  0  0  0
 37 31  2  0  0  0  0
 37 40  1  0  0  0  0
 39 40  1  0  0  0  0
 39 38  1  1  0  0  0
 40 36  1  0  0  0  0
M  END
>  <MODEL>
5

>  <REMARK>
 VINA RESULT:      -9.3      2.625     10.147
  Name = 
  5 active torsions:
  status: ('A' for Active; 'I' for Inactive)
    1  A    between atoms: N_3  and  C_8
    2  A    between atoms: N_7  and  N_10
    3  A    between atoms: C_24  and  N_31
    4  A    between atoms: C_27  and  C_34
    5  A    between atoms: C_28  and  C_33
                            x       y       z     vdW  Elec       q    Type
                         _______ _______ _______ _____ _____    ______ ____

>  <TORSDO>
F 5

$$$$
=
 OpenBabel10222417003D

 40 45  0  0  1  0  0  0  0  0999 V2000
  189.7430  176.0350  142.3660 C   0  0  0  0  0  2  0  0  0  0  0  0
  193.0610  177.1310  140.2730 O   0  0  0  0  0  1  0  0  0  0  0  0
  190.4190  177.8430  139.1530 N   0  0  0  0  0  2  0  0  0  0  0  0
  191.0220  178.1100  143.2620 C   0  0  0  0  0  2  0  0  0  0  0  0
  189.6120  176.7550  141.0980 N   0  0  0  0  0  0  0  0  0  0  0  0
  192.1500  177.7180  142.3560 C   0  0  0  0  0  3  0  0  0  0  0  0
  190.6030  177.3380  140.4810 C   0  0  0  0  0  0  0  0  0  0  0  0
  190.0500  176.9550  143.5540 C   0  0  1  0  0  3  0  0  0  0  0  0
  191.9570  177.3930  141.0750 C   0  0  0  0  0  0  0  0  0  0  0  0
  187.5700  176.6520  143.6800 C   0  0  0  0  0  2  0  0  0  0  0  0
  186.3100  177.5150  143.5850 C   0  0  0  0  0  2  0  0  0  0  0  0
  186.3800  177.7630  146.1290 C   0  0  0  0  0  2  0  0  0  0  0  0
  187.8190  178.0970  146.5030 C   0  0  0  0  0  2  0  0  0  0  0  0
  188.7630  177.4100  144.2460 C   0  0  1  0  0  3  0  0  0  0  0  0
  186.0400  178.4170  144.7960 C   0  0  2  0  0  3  0  0  0  0  0  0
  188.8270  177.2200  145.7630 C   0  0  0  0  0  2  0  0  0  0  0  0
  184.0960  179.3470  145.8310 O   0  0  0  0  0  0  0  0  0  0  0  0
  183.8790  178.8160  143.5610 N   0  0  0  0  0  2  0  0  0  0  0  0
  184.6240  178.8880  144.7820 C   0  0  0  0  0  0  0  0  0  0  0  0
  182.0970  179.3810  141.9380 C   0  0  0  0  0  2  0  0  0  0  0  0
  179.9520  178.0630  142.2540 C   0  0  2  0  0  3  0  0  0  0  0  0
  180.1150  178.4280  143.7370 C   0  0  0  0  0  2  0  0  0  0  0  0
  182.4800  179.2090  143.4170 C   0  0  1  0  0  3  0  0  0  0  0  0
  181.2370  178.2240  141.4280 C   0  0  0  0  0  2  0  0  0  0  0  0
  181.5590  178.2640  144.2000 C   0  0  0  0  0  2  0  0  0  0  0  0
  178.9330  178.8360  141.6990 O   0  0  0  0  0  1  0  0  0  0  0  0
  187.4330  177.3870  136.9100 N   0  0  0  0  0  2  0  0  0  0  0  0
  189.1610  178.0210  138.5490 N   0  0  0  0  0  2  0  0  0  0  0  0
  188.5070  177.0130  137.7730 C   0  0  0  0  0  0  0  0  0  0  0  0
  188.8560  175.8060  137.8690 O   0  0  0  0  0  0  0  0  0  0  0  0
  183.6490  173.2550  135.2850 N   0  0  0  0  0  0  0  0  0  0  0  0
  186.6480  176.4080  136.1730 C   0  0  1  0  0  3  0  0  0  0  0  0
  185.4610  174.2570  136.8070 C   0  0  0  0  0  2  0  0  0  0  0  0
  185.6140  175.7810  137.0990 C   0  0  2  0  0  3  0  0  0  0  0  0
  182.6750  173.9170  134.5980 C   0  0  0  0  0  3  0  0  0  0  0  0
  182.7650  175.2940  134.8260 C   0  0  0  0  0  3  0  0  0  0  0  0
  184.2960  174.2540  135.9060 C   0  0  0  0  0  0  0  0  0  0  0  0
  185.5430  177.1230  135.4090 C   0  0  0  0  0  2  0  0  0  0  0  0
  184.4930  176.5140  136.3240 C   0  0  1  0  0  3  0  0  0  0  0  0
  183.8050  175.4380  135.6550 N   0  0  0  0  0  0  0  0  0  0  0  0
  2  9  1  0  0  0  0
  3  7  1  0  0  0  0
  4  8  1  0  0  0  0
  5  1  1  0  0  0  0
  6  4  1  0  0  0  0
  7  9  1  0  0  0  0
  7  5  2  0  0  0  0
  8  1  1  6  0  0  0
  8 14  1  0  0  0  0
  9  6  2  0  0  0  0
 11 10  1  0  0  0  0
 11 15  1  0  0  0  0
 12 13  1  0  0  0  0
 14 10  1  6  0  0  0
 14 16  1  0  0  0  0
 15 19  1  1  0  0  0
 15 12  1  0  0  0  0
 16 13  1  0  0  0  0
 18 19  1  0  0  0  0
 19 17  2  0  0  0  0
 20 23  1  0  0  0  0
 21 26  1  6  0  0  0
 21 22  1  0  0  0  0
 22 25  1  0  0  0  0
 23 18  1  6  0  0  0
 23 25  1  0  0  0  0
 24 20  1  0  0  0  0
 24 21  1  0  0  0  0
 27 29  1  0  0  0  0
 28  3  1  0  0  0  0
 29 30  2  0  0  0  0
 29 28  1  0  0  0  0
 31 37  2  0  0  0  0
 32 27  1  1  0  0  0
 32 34  1  0  0  0  0
 34 33  1  6  0  0  0
 35 36  2  0  0  0  0
 35 31  1  0  0  0  0
 36 40  1  0  0  0  0
 37 33  1  0  0  0  0
 38 32  1  0  0  0  0
 39 38  1  6  0  0  0
 39 34  1  0  0  0  0
 40 37  1  0  0  0  0
 40 39  1  0  0  0  0
M  END
>  <MODEL>
6

>  <REMARK>
 VINA RESULT:      -9.2      2.714      6.958
  Name = 
  5 active torsions:
  status: ('A' for Active; 'I' for Inactive)
    1  A    between atoms: N_3  and  C_8
    2  A    between atoms: N_7  and  N_10
    3  A    between atoms: C_24  and  N_31
    4  A    between atoms: C_27  and  C_34
    5  A    between atoms: C_28  and  C_33
                            x       y       z     vdW  Elec       q    Type
                         _______ _______ _______ _____ _____    ______ ____

>  <TORSDO>
F 5

$$$$
=
 OpenBabel10222417003D

 40 45  0  0  1  0  0  0  0  0999 V2000
  181.0020  179.0130  139.3930 C   0  0  0  0  0  2  0  0  0  0  0  0
  179.4060  176.4770  136.6340 O   0  0  0  0  0  1  0  0  0  0  0  0
  182.3080  177.0230  136.4970 N   0  0  0  0  0  2  0  0  0  0  0  0
  180.4950  176.6040  140.2190 C   0  0  0  0  0  2  0  0  0  0  0  0
  181.8540  178.4040  138.3700 N   0  0  0  0  0  0  0  0  0  0  0  0
  179.6970  176.4170  138.9630 C   0  0  0  0  0  3  0  0  0  0  0  0
  181.4820  177.4190  137.5990 C   0  0  0  0  0  0  0  0  0  0  0  0
  180.7210  178.0810  140.5790 C   0  0  1  0  0  3  0  0  0  0  0  0
  180.1650  176.7650  137.7610 C   0  0  0  0  0  0  0  0  0  0  0  0
  182.9530  179.0510  141.1600 C   0  0  0  0  0  2  0  0  0  0  0  0
  184.2770  178.5810  141.7680 C   0  0  0  0  0  2  0  0  0  0  0  0
  183.3960  179.3100  144.0560 C   0  0  0  0  0  2  0  0  0  0  0  0
  181.9740  178.7770  144.1730 C   0  0  0  0  0  2  0  0  0  0  0  0
  181.7520  178.2790  141.6910 C   0  0  1  0  0  3  0  0  0  0  0  0
  184.2460  178.3130  143.2780 C   0  0  2  0  0  3  0  0  0  0  0  0
  181.1620  179.0080  142.9010 C   0  0  0  0  0  2  0  0  0  0  0  0
  185.8490  178.4910  145.0420 O   0  0  0  0  0  0  0  0  0  0  0  0
  186.7160  177.9460  142.9360 N   0  0  0  0  0  2  0  0  0  0  0  0
  185.6340  178.2630  143.8210 C   0  0  0  0  0  0  0  0  0  0  0  0
  188.4570  176.5800  144.0440 C   0  0  0  0  0  2  0  0  0  0  0  0
  190.5650  176.2700  142.6660 C   0  0  2  0  0  3  0  0  0  0  0  0
  190.4680  177.7860  142.4400 C   0  0  0  0  0  2  0  0  0  0  0  0
  188.1220  177.8980  143.3280 C   0  0  1  0  0  3  0  0  0  0  0  0
  189.2580  175.6290  143.1540 C   0  0  0  0  0  2  0  0  0  0  0  0
  189.0370  178.2190  142.1390 C   0  0  0  0  0  2  0  0  0  0  0  0
  191.5900  176.0040  143.5730 O   0  0  0  0  0  1  0  0  0  0  0  0
  186.0040  177.4530  137.0580 N   0  0  0  0  0  2  0  0  0  0  0  0
  183.6470  177.4260  136.3370 N   0  0  0  0  0  2  0  0  0  0  0  0
  184.7490  176.7770  136.9760 C   0  0  0  0  0  0  0  0  0  0  0  0
  184.6230  175.6110  137.4370 O   0  0  0  0  0  0  0  0  0  0  0  0
  191.0000  174.5290  137.7770 N   0  0  0  0  0  0  0  0  0  0  0  0
  187.1990  176.8180  137.5930 C   0  0  1  0  0  3  0  0  0  0  0  0
  188.6080  174.8290  136.8890 C   0  0  0  0  0  2  0  0  0  0  0  0
  188.0000  176.1970  136.4560 C   0  0  2  0  0  3  0  0  0  0  0  0
  191.9490  175.4900  137.9600 C   0  0  0  0  0  3  0  0  0  0  0  0
  191.4560  176.7440  137.5850 C   0  0  0  0  0  3  0  0  0  0  0  0
  189.9640  175.2340  137.2960 C   0  0  0  0  0  0  0  0  0  0  0  0
  188.2800  177.8700  137.7920 C   0  0  0  0  0  2  0  0  0  0  0  0
  189.0950  177.2730  136.6560 C   0  0  1  0  0  3  0  0  0  0  0  0
  190.2040  176.5120  137.1780 N   0  0  0  0  0  0  0  0  0  0  0  0
  2  9  1  0  0  0  0
  3  7  1  0  0  0  0
  4  8  1  0  0  0  0
  5  1  1  0  0  0  0
  6  4  1  0  0  0  0
  7  9  1  0  0  0  0
  7  5  2  0  0  0  0
  8  1  1  6  0  0  0
  8 14  1  0  0  0  0
  9  6  2  0  0  0  0
 10 11  1  0  0  0  0
 11 15  1  0  0  0  0
 12 13  1  0  0  0  0
 14 10  1  6  0  0  0
 14 16  1  0  0  0  0
 15 19  1  1  0  0  0
 15 12  1  0  0  0  0
 16 13  1  0  0  0  0
 18 19  1  0  0  0  0
 19 17  2  0  0  0  0
 21 24  1  0  0  0  0
 21 26  1  1  0  0  0
 22 21  1  0  0  0  0
 23 18  1  6  0  0  0
 23 20  1  0  0  0  0
 24 20  1  0  0  0  0
 25 22  1  0  0  0  0
 25 23  1  0  0  0  0
 28  3  1  0  0  0  0
 28 29  1  0  0  0  0
 29 27  1  0  0  0  0
 29 30  2  0  0  0  0
 31 35  1  0  0  0  0
 32 27  1  6  0  0  0
 32 38  1  0  0  0  0
 33 37  1  0  0  0  0
 34 39  1  0  0  0  0
 34 33  1  1  0  0  0
 34 32  1  0  0  0  0
 36 35  2  0  0  0  0
 37 31  2  0  0  0  0
 39 40  1  0  0  0  0
 39 38  1  1  0  0  0
 40 37  1  0  0  0  0
 40 36  1  0  0  0  0
M  END
>  <MODEL>
7

>  <REMARK>
 VINA RESULT:      -8.8      2.497      9.670
  Name = 
  5 active torsions:
  status: ('A' for Active; 'I' for Inactive)
    1  A    between atoms: N_3  and  C_8
    2  A    between atoms: N_7  and  N_10
    3  A    between atoms: C_24  and  N_31
    4  A    between atoms: C_27  and  C_34
    5  A    between atoms: C_28  and  C_33
                            x       y       z     vdW  Elec       q    Type
                         _______ _______ _______ _____ _____    ______ ____

>  <TORSDO>
F 5

$$$$
=
 OpenBabel10222417003D

 40 45  0  0  1  0  0  0  0  0999 V2000
  186.4040  176.7380  146.0140 C   0  0  0  0  0  2  0  0  0  0  0  0
  188.9600  178.1230  148.8680 O   0  0  0  0  0  1  0  0  0  0  0  0
  190.0640  177.5290  146.1890 N   0  0  0  0  0  2  0  0  0  0  0  0
  186.3040  179.2890  146.4930 C   0  0  0  0  0  2  0  0  0  0  0  0
  187.8220  176.9250  145.7070 N   0  0  0  0  0  0  0  0  0  0  0  0
  187.1140  179.0170  147.7250 C   0  0  0  0  0  3  0  0  0  0  0  0
  188.6590  177.5690  146.4730 C   0  0  0  0  0  0  0  0  0  0  0  0
  185.5930  178.0390  145.9480 C   0  0  1  0  0  3  0  0  0  0  0  0
  188.2090  178.2530  147.7060 C   0  0  0  0  0  0  0  0  0  0  0  0
  183.9770  179.3780  144.5850 C   0  0  0  0  0  2  0  0  0  0  0  0
  182.7820  179.1260  143.6620 C   0  0  0  0  0  2  0  0  0  0  0  0
  184.4050  179.1270  141.6860 C   0  0  0  0  0  2  0  0  0  0  0  0
  185.5880  178.2520  142.0840 C   0  0  0  0  0  2  0  0  0  0  0  0
  184.9950  178.2450  144.5550 C   0  0  1  0  0  3  0  0  0  0  0  0
  183.1280  178.5500  142.2840 C   0  0  2  0  0  3  0  0  0  0  0  0
  186.0680  178.5400  143.5050 C   0  0  0  0  0  2  0  0  0  0  0  0
  180.8220  178.3560  141.6870 O   0  0  0  0  0  0  0  0  0  0  0  0
  182.2090  179.3250  140.0690 N   0  0  0  0  0  2  0  0  0  0  0  0
  181.9790  178.7260  141.3490 C   0  0  0  0  0  0  0  0  0  0  0  0
  180.5770  180.9340  139.1330 C   0  0  0  0  0  2  0  0  0  0  0  0
  180.7580  181.2530  136.6220 C   0  0  2  0  0  3  0  0  0  0  0  0
  180.7990  179.7180  136.5750 C   0  0  0  0  0  2  0  0  0  0  0  0
  181.1830  179.5240  139.0480 C   0  0  1  0  0  3  0  0  0  0  0  0
  181.0710  181.8410  138.0060 C   0  0  0  0  0  2  0  0  0  0  0  0
  181.7080  179.1460  137.6570 C   0  0  0  0  0  2  0  0  0  0  0  0
  179.5070  181.6950  136.1930 O   0  0  0  0  0  1  0  0  0  0  0  0
  190.6080  176.9770  142.5070 N   0  0  0  0  0  2  0  0  0  0  0  0
  190.6040  177.0810  144.9700 N   0  0  0  0  0  2  0  0  0  0  0  0
  190.3270  177.6950  143.7090 C   0  0  0  0  0  0  0  0  0  0  0  0
  189.8660  178.8670  143.6580 O   0  0  0  0  0  0  0  0  0  0  0  0
  189.8050  177.9550  136.8130 N   0  0  0  0  0  0  0  0  0  0  0  0
  190.4580  177.5740  141.1890 C   0  0  1  0  0  3  0  0  0  0  0  0
  190.8670  176.7560  138.8230 C   0  0  0  0  0  2  0  0  0  0  0  0
  190.1320  176.4900  140.1710 C   0  0  2  0  0  3  0  0  0  0  0  0
  188.5450  178.4670  136.7160 C   0  0  0  0  0  3  0  0  0  0  0  0
  187.8370  178.2540  137.9030 C   0  0  0  0  0  3  0  0  0  0  0  0
  189.8170  177.4490  138.0560 C   0  0  0  0  0  0  0  0  0  0  0  0
  189.0520  178.1410  141.0510 C   0  0  0  0  0  2  0  0  0  0  0  0
  188.7000  177.0630  140.0370 C   0  0  1  0  0  3  0  0  0  0  0  0
  188.6940  177.6110  138.7030 N   0  0  0  0  0  0  0  0  0  0  0  0
  3  7  1  0  0  0  0
  4  6  1  0  0  0  0
  5  1  1  0  0  0  0
  5  7  2  0  0  0  0
  7  9  1  0  0  0  0
  8  1  1  6  0  0  0
  8  4  1  0  0  0  0
  9  6  2  0  0  0  0
  9  2  1  0  0  0  0
 11 10  1  0  0  0  0
 12 13  1  0  0  0  0
 12 15  1  0  0  0  0
 13 16  1  0  0  0  0
 14 16  1  6  0  0  0
 14 10  1  0  0  0  0
 14  8  1  0  0  0  0
 15 19  1  6  0  0  0
 15 11  1  0  0  0  0
 18 19  1  0  0  0  0
 19 17  2  0  0  0  0
 21 26  1  1  0  0  0
 21 24  1  0  0  0  0
 22 21  1  0  0  0  0
 22 25  1  0  0  0  0
 23 20  1  0  0  0  0
 23 18  1  1  0  0  0
 24 20  1  0  0  0  0
 25 23  1  0  0  0  0
 27 29  1  0  0  0  0
 28  3  1  0  0  0  0
 29 28  1  0  0  0  0
 30 29  2  0  0  0  0
 31 37  2  0  0  0  0
 32 27  1  1  0  0  0
 34 33  1  6  0  0  0
 34 32  1  0  0  0  0
 35 31  1  0  0  0  0
 35 36  2  0  0  0  0
 36 40  1  0  0  0  0
 37 40  1  0  0  0  0
 37 33  1  0  0  0  0
 38 32  1  0  0  0  0
 39 34  1  0  0  0  0
 39 38  1  1  0  0  0
 40 39  1  0  0  0  0
M  END
>  <MODEL>
8

>  <REMARK>
 VINA RESULT:      -8.8      2.639      6.191
  Name = 
  5 active torsions:
  status: ('A' for Active; 'I' for Inactive)
    1  A    between atoms: N_3  and  C_8
    2  A    between atoms: N_7  and  N_10
    3  A    between atoms: C_24  and  N_31
    4  A    between atoms: C_27  and  C_34
    5  A    between atoms: C_28  and  C_33
                            x       y       z     vdW  Elec       q    Type
                         _______ _______ _______ _____ _____    ______ ____

>  <TORSDO>
F 5

$$$$
=
 OpenBabel10222417003D

 40 45  0  0  1  0  0  0  0  0999 V2000
  188.4910  175.9240  136.4310 C   0  0  0  0  0  2  0  0  0  0  0  0
  192.3750  174.9430  137.1670 O   0  0  0  0  0  1  0  0  0  0  0  0
  190.8110  176.1500  139.3670 N   0  0  0  0  0  2  0  0  0  0  0  0
  188.9730  173.4040  136.8360 C   0  0  0  0  0  2  0  0  0  0  0  0
  189.0780  176.1730  137.7480 N   0  0  0  0  0  0  0  0  0  0  0  0
  190.4270  173.7290  136.6720 C   0  0  0  0  0  3  0  0  0  0  0  0
  190.2260  175.6920  138.1410 C   0  0  0  0  0  0  0  0  0  0  0  0
  188.0430  174.4700  136.2340 C   0  0  1  0  0  3  0  0  0  0  0  0
  191.0040  174.7610  137.2950 C   0  0  0  0  0  0  0  0  0  0  0  0
  185.7060  175.3010  135.9030 C   0  0  0  0  0  2  0  0  0  0  0  0
  184.5460  175.8120  136.7620 C   0  0  0  0  0  2  0  0  0  0  0  0
  183.6530  173.4170  136.8430 C   0  0  0  0  0  2  0  0  0  0  0  0
  184.8360  172.5130  137.1630 C   0  0  0  0  0  2  0  0  0  0  0  0
  186.5770  174.2860  136.6320 C   0  0  1  0  0  3  0  0  0  0  0  0
  183.8150  174.7400  137.5800 C   0  0  2  0  0  3  0  0  0  0  0  0
  186.0750  172.8700  136.3430 C   0  0  0  0  0  2  0  0  0  0  0  0
  181.4720  174.5190  137.9950 O   0  0  0  0  0  0  0  0  0  0  0  0
  182.4050  176.5970  138.5380 N   0  0  0  0  0  2  0  0  0  0  0  0
  182.4930  175.2560  138.0400 C   0  0  0  0  0  0  0  0  0  0  0  0
  181.1460  177.3940  140.5150 C   0  0  0  0  0  2  0  0  0  0  0  0
  180.3530  179.7970  140.3390 C   0  0  2  0  0  3  0  0  0  0  0  0
  179.8730  179.3850  138.9390 C   0  0  0  0  0  2  0  0  0  0  0  0
  181.1710  177.2370  138.9860 C   0  0  1  0  0  3  0  0  0  0  0  0
  181.3870  178.8400  140.9490 C   0  0  0  0  0  2  0  0  0  0  0  0
  180.9130  178.5380  138.2150 C   0  0  0  0  0  2  0  0  0  0  0  0
  179.2530  179.9090  141.1890 O   0  0  0  0  0  1  0  0  0  0  0  0
  188.9920  177.0550  142.5340 N   0  0  0  0  0  2  0  0  0  0  0  0
  190.1100  176.8810  140.3440 N   0  0  0  0  0  2  0  0  0  0  0  0
  190.0010  176.4720  141.7100 C   0  0  0  0  0  0  0  0  0  0  0  0
  190.8040  175.6270  142.1890 O   0  0  0  0  0  0  0  0  0  0  0  0
  189.2030  177.2730  148.3590 N   0  0  0  0  0  0  0  0  0  0  0  0
  188.8880  176.7740  143.9580 C   0  0  1  0  0  3  0  0  0  0  0  0
  190.2000  177.5050  146.0030 C   0  0  0  0  0  2  0  0  0  0  0  0
  189.3930  177.9700  144.7530 C   0  0  2  0  0  3  0  0  0  0  0  0
  187.9200  177.5160  148.7510 C   0  0  0  0  0  3  0  0  0  0  0  0
  187.1480  177.9400  147.6650 C   0  0  0  0  0  3  0  0  0  0  0  0
  189.1640  177.5580  147.0480 C   0  0  0  0  0  0  0  0  0  0  0  0
  187.4660  177.0540  144.4230 C   0  0  0  0  0  2  0  0  0  0  0  0
  187.9450  178.2570  145.2190 C   0  0  1  0  0  3  0  0  0  0  0  0
  187.9910  177.9440  146.6260 N   0  0  0  0  0  0  0  0  0  0  0  0
  1  5  1  0  0  0  0
  2  9  1  0  0  0  0
  3 28  1  0  0  0  0
  5  7  2  0  0  0  0
  6  4  1  0  0  0  0
  6  9  2  0  0  0  0
  7  3  1  0  0  0  0
  8  1  1  1  0  0  0
  8 14  1  0  0  0  0
  8  4  1  0  0  0  0
  9  7  1  0  0  0  0
 10 11  1  0  0  0  0
 11 15  1  0  0  0  0
 12 13  1  0  0  0  0
 12 15  1  0  0  0  0
 14 10  1  6  0  0  0
 15 19  1  6  0  0  0
 16 14  1  0  0  0  0
 16 13  1  0  0  0  0
 17 19  2  0  0  0  0
 19 18  1  0  0  0  0
 20 24  1  0  0  0  0
 21 24  1  0  0  0  0
 21 26  1  1  0  0  0
 22 21  1  0  0  0  0
 23 18  1  6  0  0  0
 23 20  1  0  0  0  0
 25 22  1  0  0  0  0
 25 23  1  0  0  0  0
 28 29  1  0  0  0  0
 29 30  2  0  0  0  0
 29 27  1  0  0  0  0
 31 35  1  0  0  0  0
 32 27  1  6  0  0  0
 32 38  1  0  0  0  0
 32 34  1  0  0  0  0
 33 37  1  0  0  0  0
 34 39  1  0  0  0  0
 34 33  1  1  0  0  0
 36 35  2  0  0  0  0
 37 31  2  0  0  0  0
 39 38  1  6  0  0  0
 39 40  1  0  0  0  0
 40 37  1  0  0  0  0
 40 36  1  0  0  0  0
M  END
>  <MODEL>
9

>  <REMARK>
 VINA RESULT:      -8.3      2.985      7.354
  Name = 
  5 active torsions:
  status: ('A' for Active; 'I' for Inactive)
    1  A    between atoms: N_3  and  C_8
    2  A    between atoms: N_7  and  N_10
    3  A    between atoms: C_24  and  N_31
    4  A    between atoms: C_27  and  C_34
    5  A    between atoms: C_28  and  C_33
                            x       y       z     vdW  Elec       q    Type
                         _______ _______ _______ _____ _____    ______ ____

>  <TORSDO>
F 5

$$$$
