=
 OpenBabel10222415393D

 40 45  0  0  1  0  0  0  0  0999 V2000
  183.0100  177.6700  139.1780 C   0  0  2  0  0  0  0  0  0  0  0  0
  183.9990  176.8790  136.9480 O   0  0  0  0  0  0  0  0  0  0  0  0
  184.3710  178.2240  139.6970 C   0  0  1  0  0  3  0  0  0  0  0  0
  181.8210  177.5320  137.0620 O   0  0  0  0  0  0  0  0  0  0  0  0
  182.9050  177.3650  137.6780 C   0  0  0  0  0  0  0  0  0  0  0  0
  180.6880  178.2460  139.3910 C   0  0  1  0  0  3  0  0  0  0  0  0
  185.2890  176.6750  137.5140 C   0  0  2  0  0  3  0  0  0  0  0  0
  185.9730  178.0240  137.7690 C   0  0  0  0  0  2  0  0  0  0  0  0
  181.8240  177.5910  140.2030 C   0  0  1  0  0  0  0  0  0  0  0  0
  185.1320  178.9770  138.6160 C   0  0  0  0  0  2  0  0  0  0  0  0
  180.4850  176.8880  139.9340 C   0  0  0  0  0  2  0  0  0  0  0  0
  182.7090  176.3970  139.8650 C   0  0  0  0  0  2  0  0  0  0  0  0
  185.9000  177.9390  144.1190 N   0  0  0  0  0  0  0  0  0  0  0  0
  184.9900  178.3060  143.1840 C   0  0  0  0  0  0  0  0  0  0  0  0
  184.4190  179.0140  141.0170 C   0  0  2  0  0  3  0  0  0  0  0  0
  183.5470  178.5740  143.3180 C   0  0  0  0  0  3  0  0  0  0  0  0
  185.4540  178.5250  141.9470 C   0  0  0  0  0  0  0  0  0  0  0  0
  187.1200  178.3000  141.8870 S   0  0  0  0  0  0  0  0  0  0  0  0
  188.2970  177.4950  144.2500 N   0  0  0  0  0  1  0  0  0  0  0  0
  183.1290  178.9340  141.8690 C   0  0  0  0  0  3  0  0  0  0  0  0
  187.1260  177.8810  143.5380 C   0  0  0  0  0  0  0  0  0  0  0  0
  178.9380  180.3090  141.7940 N   0  0  0  0  0  0  0  0  0  0  0  0
  180.0400  179.3130  140.2170 C   0  0  0  0  0  0  0  0  0  0  0  0
  179.3170  181.2670  140.9220 C   0  0  0  0  0  3  0  0  0  0  0  0
  179.3710  179.1250  141.3700 N   0  0  0  0  0  2  0  0  0  0  0  0
  180.0220  180.6550  139.9080 C   0  0  0  0  0  0  0  0  0  0  0  0
  180.5580  181.3120  138.6810 C   0  0  0  0  0  2  0  0  0  0  0  0
  182.0690  181.2100  138.6400 C   0  0  0  0  0  1  0  0  0  0  0  0
  186.1140  175.8400  136.6260 N   0  0  0  0  0  0  0  0  0  0  0  0
  187.4310  175.5180  137.1990 C   0  0  0  0  0  2  0  0  0  0  0  0
  188.5690  175.6280  136.1980 C   0  0  0  0  0  2  0  0  0  0  0  0
  189.6720  177.0000  136.6680 S   0  0  0  0  0  0  0  0  0  0  0  0
  192.1560  176.3940  137.7260 C   0  0  0  0  0  1  0  0  0  0  0  0
  190.6930  175.9800  137.7940 C   0  0  1  0  0  3  0  0  0  0  0  0
  190.2020  176.0610  139.1580 N   0  0  0  0  0  2  0  0  0  0  0  0
  190.3380  177.4470  139.5640 C   0  0  0  0  0  1  0  0  0  0  0  0
  185.4250  174.6170  136.1830 C   0  0  0  0  0  2  0  0  0  0  0  0
  185.8030  173.3870  137.0140 C   0  0  0  0  0  2  0  0  0  0  0  0
  183.8870  171.7810  136.9030 C   0  0  0  0  0  1  0  0  0  0  0  0
  184.5960  172.8250  137.7500 C   0  0  0  0  0  2  0  0  0  0  0  0
  1  3  1  0  0  0  0
  1 12  1  1  0  0  0
  1  9  1  0  0  0  0
  2  7  1  0  0  0  0
  2  5  1  0  0  0  0
  3 10  1  6  0  0  0
  3 15  1  0  0  0  0
  4  5  2  0  0  0  0
  5  1  1  0  0  0  0
  6 11  1  0  0  0  0
  6  9  1  0  0  0  0
  6 23  1  1  0  0  0
  7 29  1  6  0  0  0
  7  8  1  0  0  0  0
  8 10  1  0  0  0  0
  9 12  1  1  0  0  0
 11  9  1  0  0  0  0
 14 16  1  0  0  0  0
 14 13  1  0  0  0  0
 15 20  1  1  0  0  0
 15 17  1  0  0  0  0
 17 14  2  0  0  0  0
 18 17  1  0  0  0  0
 18 21  1  0  0  0  0
 20 16  2  0  0  0  0
 21 13  2  0  0  0  0
 21 19  1  0  0  0  0
 23 25  1  0  0  0  0
 24 22  2  0  0  0  0
 25 22  1  0  0  0  0
 26 23  2  0  0  0  0
 26 24  1  0  0  0  0
 27 26  1  0  0  0  0
 28 27  1  0  0  0  0
 29 30  1  0  0  0  0
 31 32  1  0  0  0  0
 31 30  1  0  0  0  0
 32 34  1  0  0  0  0
 34 33  1  1  0  0  0
 34 35  1  0  0  0  0
 35 36  1  0  0  0  0
 37 29  1  0  0  0  0
 37 38  1  0  0  0  0
 38 40  1  0  0  0  0
 39 40  1  0  0  0  0
M  END
>  <MODEL>
1

>  <REMARK>
 VINA RESULT:      -6.2      0.000      0.000
  Name = 
  12 active torsions:
  status: ('A' for Active; 'I' for Inactive)
    1  A    between atoms: C_5  and  C_15
    2  A    between atoms: C_7  and  C_10
    3  A    between atoms: C_7  and  S_36
    4  A    between atoms: C_10  and  N_28
    5  A    between atoms: C_11  and  C_16
    6  A    between atoms: C_12  and  N_28
    7  A    between atoms: C_12  and  C_30
    8  A    between atoms: N_13  and  C_35
    9  A    between atoms: C_19  and  C_37
   10  A    between atoms: C_24  and  N_28
   11  A    between atoms: C_29  and  C_30
   12  A    between atoms: C_35  and  S_36
                            x       y       z     vdW  Elec       q    Type
                         _______ _______ _______ _____ _____    ______ ____

>  <TORSDO>
F 12

$$$$
=
 OpenBabel10222415393D

 40 45  0  0  1  0  0  0  0  0999 V2000
  183.0240  178.4290  139.8150 C   0  0  2  0  0  0  0  0  0  0  0  0
  185.1960  179.0210  141.0430 O   0  0  0  0  0  0  0  0  0  0  0  0
  182.2570  178.0950  141.1300 C   0  0  1  0  0  3  0  0  0  0  0  0
  184.6880  180.0380  139.0700 O   0  0  0  0  0  0  0  0  0  0  0  0
  184.3380  179.2100  139.9500 C   0  0  0  0  0  0  0  0  0  0  0  0
  182.4960  179.3680  137.6690 C   0  0  1  0  0  3  0  0  0  0  0  0
  184.9070  178.1400  142.1220 C   0  0  2  0  0  3  0  0  0  0  0  0
  183.8040  178.7340  143.0070 C   0  0  0  0  0  2  0  0  0  0  0  0
  182.3300  178.0540  138.4580 C   0  0  1  0  0  0  0  0  0  0  0  0
  182.5410  179.1060  142.2310 C   0  0  0  0  0  2  0  0  0  0  0  0
  183.0130  178.1160  137.0830 C   0  0  0  0  0  2  0  0  0  0  0  0
  183.3790  177.1710  139.1250 C   0  0  0  0  0  2  0  0  0  0  0  0
  179.0020  176.0050  138.4830 N   0  0  0  0  0  0  0  0  0  0  0  0
  179.4280  176.9960  139.3040 C   0  0  0  0  0  0  0  0  0  0  0  0
  180.7500  177.7890  141.0770 C   0  0  2  0  0  3  0  0  0  0  0  0
  178.9310  178.3750  139.4640 C   0  0  0  0  0  3  0  0  0  0  0  0
  180.4150  176.6880  140.1560 C   0  0  0  0  0  0  0  0  0  0  0  0
  180.8630  175.0760  139.9890 S   0  0  0  0  0  0  0  0  0  0  0  0
  179.5330  173.6670  138.0240 N   0  0  0  0  0  1  0  0  0  0  0  0
  179.8700  178.9520  140.5550 C   0  0  0  0  0  3  0  0  0  0  0  0
  179.7210  174.8820  138.7410 C   0  0  0  0  0  0  0  0  0  0  0  0
  179.3400  179.7800  135.9470 N   0  0  0  0  0  0  0  0  0  0  0  0
  181.1710  179.7780  137.1060 C   0  0  0  0  0  0  0  0  0  0  0  0
  179.3400  180.9180  136.6730 C   0  0  0  0  0  2  0  0  0  0  0  0
  180.4470  179.0890  136.2030 N   0  0  0  0  0  0  0  0  0  0  0  0
  180.4980  180.9370  137.4200 C   0  0  0  0  0  0  0  0  0  0  0  0
  180.9620  182.0460  138.3040 C   0  0  0  0  0  2  0  0  0  0  0  0
  181.2500  183.2910  137.4890 C   0  0  0  0  0  1  0  0  0  0  0  0
  186.1200  177.8840  142.9160 N   0  0  0  0  0  0  0  0  0  0  0  0
  187.3620  178.1370  142.1690 C   0  0  0  0  0  2  0  0  0  0  0  0
  188.4020  177.0430  142.3360 C   0  0  0  0  0  2  0  0  0  0  0  0
  189.9280  177.5030  141.4550 S   0  0  0  0  0  0  0  0  0  0  0  0
  189.3240  178.4760  138.9360 C   0  0  0  0  0  1  0  0  0  0  0  0
  189.2210  177.2210  139.7900 C   0  0  1  0  0  3  0  0  0  0  0  0
  189.8700  176.1010  139.1330 N   0  0  0  0  0  2  0  0  0  0  0  0
  190.4390  176.6170  137.9020 C   0  0  0  0  0  1  0  0  0  0  0  0
  186.1280  178.6030  144.2010 C   0  0  0  0  0  2  0  0  0  0  0  0
  185.8270  177.6920  145.3950 C   0  0  0  0  0  2  0  0  0  0  0  0
  188.2510  177.5730  146.0020 C   0  0  0  0  0  1  0  0  0  0  0  0
  186.8500  177.8780  146.5050 C   0  0  0  0  0  2  0  0  0  0  0  0
  1 12  1  1  0  0  0
  1  5  1  0  0  0  0
  1  3  1  0  0  0  0
  2  7  1  0  0  0  0
  3 10  1  1  0  0  0
  4  5  2  0  0  0  0
  5  2  1  0  0  0  0
  6 23  1  6  0  0  0
  6  9  1  0  0  0  0
  7 29  1  1  0  0  0
  7  8  1  0  0  0  0
  9 11  1  6  0  0  0
  9 12  1  0  0  0  0
  9  1  1  0  0  0  0
 10  8  1  0  0  0  0
 11  6  1  0  0  0  0
 13 21  2  0  0  0  0
 13 14  1  0  0  0  0
 14 16  1  0  0  0  0
 14 17  2  0  0  0  0
 15 20  1  6  0  0  0
 15  3  1  0  0  0  0
 16 20  2  0  0  0  0
 17 15  1  0  0  0  0
 18 17  1  0  0  0  0
 19 21  1  0  0  0  0
 21 18  1  0  0  0  0
 22 25  2  0  0  0  0
 22 24  1  0  0  0  0
 23 26  2  0  0  0  0
 24 26  1  0  0  0  0
 25 23  1  0  0  0  0
 26 27  1  0  0  0  0
 28 27  1  0  0  0  0
 29 37  1  0  0  0  0
 30 31  1  0  0  0  0
 30 29  1  0  0  0  0
 32 31  1  0  0  0  0
 34 33  1  6  0  0  0
 34 32  1  0  0  0  0
 35 34  1  0  0  0  0
 36 35  1  0  0  0  0
 37 38  1  0  0  0  0
 38 40  1  0  0  0  0
 39 40  1  0  0  0  0
M  END
>  <MODEL>
2

>  <REMARK>
 VINA RESULT:      -6.2      2.759      5.791
  Name = 
  12 active torsions:
  status: ('A' for Active; 'I' for Inactive)
    1  A    between atoms: C_5  and  C_15
    2  A    between atoms: C_7  and  C_10
    3  A    between atoms: C_7  and  S_36
    4  A    between atoms: C_10  and  N_28
    5  A    between atoms: C_11  and  C_16
    6  A    between atoms: C_12  and  N_28
    7  A    between atoms: C_12  and  C_30
    8  A    between atoms: N_13  and  C_35
    9  A    between atoms: C_19  and  C_37
   10  A    between atoms: C_24  and  N_28
   11  A    between atoms: C_29  and  C_30
   12  A    between atoms: C_35  and  S_36
                            x       y       z     vdW  Elec       q    Type
                         _______ _______ _______ _____ _____    ______ ____

>  <TORSDO>
F 12

$$$$
=
 OpenBabel10222415393D

 40 45  0  0  1  0  0  0  0  0999 V2000
  188.9540  176.2870  137.3630 C   0  0  2  0  0  0  0  0  0  0  0  0
  190.9480  174.7040  137.0570 O   0  0  0  0  0  0  0  0  0  0  0  0
  187.9810  175.3750  136.5560 C   0  0  1  0  0  3  0  0  0  0  0  0
  190.7990  176.0050  138.9200 O   0  0  0  0  0  0  0  0  0  0  0  0
  190.2750  175.6610  137.8300 C   0  0  0  0  0  0  0  0  0  0  0  0
  188.8070  177.7780  139.2400 C   0  0  1  0  0  3  0  0  0  0  0  0
  190.4510  174.2060  135.8210 C   0  0  2  0  0  3  0  0  0  0  0  0
  189.2630  173.2670  136.0690 C   0  0  0  0  0  2  0  0  0  0  0  0
  188.4500  177.7250  137.7410 C   0  0  1  0  0  0  0  0  0  0  0  0
  188.1540  173.9040  136.9050 C   0  0  0  0  0  2  0  0  0  0  0  0
  189.3340  178.8270  138.3450 C   0  0  0  0  0  2  0  0  0  0  0  0
  189.3360  177.4470  136.5310 C   0  0  0  0  0  2  0  0  0  0  0  0
  183.7860  173.4990  135.6370 N   0  0  0  0  0  0  0  0  0  0  0  0
  184.6840  174.5130  135.5920 C   0  0  0  0  0  0  0  0  0  0  0  0
  186.4840  175.7250  136.4930 C   0  0  2  0  0  3  0  0  0  0  0  0
  184.7770  175.6580  134.6680 C   0  0  0  0  0  3  0  0  0  0  0  0
  185.6100  174.5390  136.5590 C   0  0  0  0  0  0  0  0  0  0  0  0
  185.3840  173.2650  137.6340 S   0  0  0  0  0  0  0  0  0  0  0  0
  183.3130  171.5470  137.0240 N   0  0  0  0  0  1  0  0  0  0  0  0
  186.0330  176.4100  135.1800 C   0  0  0  0  0  3  0  0  0  0  0  0
  184.0610  172.7170  136.7120 C   0  0  0  0  0  0  0  0  0  0  0  0
  185.6270  178.9480  140.5090 N   0  0  0  0  0  0  0  0  0  0  0  0
  187.6070  178.2170  140.0190 C   0  0  0  0  0  0  0  0  0  0  0  0
  186.2620  178.7350  141.6810 C   0  0  0  0  0  2  0  0  0  0  0  0
  186.4380  178.6400  139.5020 N   0  0  0  0  0  0  0  0  0  0  0  0
  187.5260  178.2670  141.3920 C   0  0  0  0  0  0  0  0  0  0  0  0
  188.6090  177.9790  142.3770 C   0  0  0  0  0  2  0  0  0  0  0  0
  188.4460  176.5880  142.9560 C   0  0  0  0  0  1  0  0  0  0  0  0
  191.5150  173.5040  135.0840 N   0  0  0  0  0  0  0  0  0  0  0  0
  192.6140  174.3920  134.6740 C   0  0  0  0  0  2  0  0  0  0  0  0
  193.9480  174.0350  135.3080 C   0  0  0  0  0  2  0  0  0  0  0  0
  194.4740  175.3720  136.4280 S   0  0  0  0  0  0  0  0  0  0  0  0
  197.1650  175.5010  135.7970 C   0  0  0  0  0  1  0  0  0  0  0  0
  196.1710  174.7180  136.6410 C   0  0  1  0  0  3  0  0  0  0  0  0
  196.5630  174.7350  138.0390 N   0  0  0  0  0  2  0  0  0  0  0  0
  195.5560  173.9770  138.7590 C   0  0  0  0  0  1  0  0  0  0  0  0
  192.0340  172.3290  135.8030 C   0  0  0  0  0  2  0  0  0  0  0  0
  192.0220  171.0560  134.9510 C   0  0  0  0  0  2  0  0  0  0  0  0
  193.7240  169.8960  136.3710 C   0  0  0  0  0  1  0  0  0  0  0  0
  193.3770  170.3660  134.9680 C   0  0  0  0  0  2  0  0  0  0  0  0
  1 12  1  6  0  0  0
  1  9  1  0  0  0  0
  1  5  1  0  0  0  0
  2  5  1  0  0  0  0
  3 10  1  1  0  0  0
  3  1  1  0  0  0  0
  5  4  2  0  0  0  0
  6 23  1  1  0  0  0
  7 29  1  1  0  0  0
  7  8  1  0  0  0  0
  7  2  1  0  0  0  0
  8 10  1  0  0  0  0
  9 12  1  6  0  0  0
  9 11  1  0  0  0  0
  9  6  1  0  0  0  0
 11  6  1  0  0  0  0
 13 21  2  0  0  0  0
 14 13  1  0  0  0  0
 14 17  2  0  0  0  0
 15 20  1  6  0  0  0
 15  3  1  0  0  0  0
 15 17  1  0  0  0  0
 16 20  2  0  0  0  0
 16 14  1  0  0  0  0
 17 18  1  0  0  0  0
 21 19  1  0  0  0  0
 21 18  1  0  0  0  0
 22 24  1  0  0  0  0
 23 26  2  0  0  0  0
 25 23  1  0  0  0  0
 25 22  2  0  0  0  0
 26 24  1  0  0  0  0
 26 27  1  0  0  0  0
 27 28  1  0  0  0  0
 29 37  1  0  0  0  0
 30 29  1  0  0  0  0
 30 31  1  0  0  0  0
 31 32  1  0  0  0  0
 32 34  1  0  0  0  0
 34 33  1  6  0  0  0
 34 35  1  0  0  0  0
 35 36  1  0  0  0  0
 38 40  1  0  0  0  0
 38 37  1  0  0  0  0
 40 39  1  0  0  0  0
M  END
>  <MODEL>
3

>  <REMARK>
 VINA RESULT:      -5.9      4.517      7.556
  Name = 
  12 active torsions:
  status: ('A' for Active; 'I' for Inactive)
    1  A    between atoms: C_5  and  C_15
    2  A    between atoms: C_7  and  C_10
    3  A    between atoms: C_7  and  S_36
    4  A    between atoms: C_10  and  N_28
    5  A    between atoms: C_11  and  C_16
    6  A    between atoms: C_12  and  N_28
    7  A    between atoms: C_12  and  C_30
    8  A    between atoms: N_13  and  C_35
    9  A    between atoms: C_19  and  C_37
   10  A    between atoms: C_24  and  N_28
   11  A    between atoms: C_29  and  C_30
   12  A    between atoms: C_35  and  S_36
                            x       y       z     vdW  Elec       q    Type
                         _______ _______ _______ _____ _____    ______ ____

>  <TORSDO>
F 12

$$$$
=
 OpenBabel10222415393D

 40 45  0  0  1  0  0  0  0  0999 V2000
  188.0240  178.0120  141.0280 C   0  0  2  0  0  0  0  0  0  0  0  0
  185.6090  178.5950  141.6660 O   0  0  0  0  0  0  0  0  0  0  0  0
  188.3680  177.4600  142.4440 C   0  0  1  0  0  3  0  0  0  0  0  0
  186.1150  178.0190  139.5220 O   0  0  0  0  0  0  0  0  0  0  0  0
  186.5380  178.2010  140.6920 C   0  0  0  0  0  0  0  0  0  0  0  0
  188.6420  177.5250  138.7590 C   0  0  1  0  0  3  0  0  0  0  0  0
  185.9480  178.8040  143.0320 C   0  0  2  0  0  3  0  0  0  0  0  0
  186.2040  177.4590  143.7250 C   0  0  0  0  0  2  0  0  0  0  0  0
  189.2110  178.2070  140.0200 C   0  0  1  0  0  0  0  0  0  0  0  0
  187.2470  176.6010  143.0120 C   0  0  0  0  0  2  0  0  0  0  0  0
  189.0960  178.9270  138.6670 C   0  0  0  0  0  2  0  0  0  0  0  0
  188.6410  179.3440  140.8610 C   0  0  0  0  0  2  0  0  0  0  0  0
  192.0400  177.4660  145.3560 N   0  0  0  0  0  0  0  0  0  0  0  0
  191.4850  177.3730  144.1230 C   0  0  0  0  0  0  0  0  0  0  0  0
  189.7250  176.7760  142.6860 C   0  0  2  0  0  3  0  0  0  0  0  0
  192.0790  177.6120  142.7950 C   0  0  0  0  0  3  0  0  0  0  0  0
  190.2190  176.9410  144.0660 C   0  0  0  0  0  0  0  0  0  0  0  0
  189.6380  176.5910  145.6040 S   0  0  0  0  0  0  0  0  0  0  0  0
  191.3890  177.0880  147.6790 N   0  0  0  0  0  1  0  0  0  0  0  0
  190.8930  177.3320  141.8350 C   0  0  0  0  0  3  0  0  0  0  0  0
  191.1240  177.0770  146.2800 C   0  0  0  0  0  0  0  0  0  0  0  0
  191.1800  175.0210  138.1430 N   0  0  0  0  0  0  0  0  0  0  0  0
  189.6450  176.5460  138.2310 C   0  0  0  0  0  0  0  0  0  0  0  0
  190.9130  175.3760  136.8680 C   0  0  0  0  0  3  0  0  0  0  0  0
  190.4180  175.7280  138.9700 N   0  0  0  0  0  2  0  0  0  0  0  0
  189.9360  176.3470  136.9010 C   0  0  0  0  0  0  0  0  0  0  0  0
  189.3920  177.0940  135.7300 C   0  0  0  0  0  2  0  0  0  0  0  0
  188.2090  176.3600  135.1330 C   0  0  0  0  0  1  0  0  0  0  0  0
  184.8760  179.5410  143.7220 N   0  0  0  0  0  0  0  0  0  0  0  0
  183.6690  179.7070  142.8960 C   0  0  0  0  0  2  0  0  0  0  0  0
  182.5190  178.8090  143.3190 C   0  0  0  0  0  2  0  0  0  0  0  0
  181.3870  178.5560  141.9160 S   0  0  0  0  0  0  0  0  0  0  0  0
  179.8680  178.7040  144.2230 C   0  0  0  0  0  1  0  0  0  0  0  0
  179.9230  179.2190  142.7930 C   0  0  1  0  0  3  0  0  0  0  0  0
  179.9190  180.6710  142.7720 N   0  0  0  0  0  2  0  0  0  0  0  0
  179.2040  181.0650  141.5730 C   0  0  0  0  0  1  0  0  0  0  0  0
  184.5360  178.9660  145.0340 C   0  0  0  0  0  2  0  0  0  0  0  0
  185.4530  179.4620  146.1560 C   0  0  0  0  0  2  0  0  0  0  0  0
  187.0800  178.1900  147.5680 C   0  0  0  0  0  1  0  0  0  0  0  0
  185.6120  178.4130  147.2450 C   0  0  0  0  0  2  0  0  0  0  0  0
  1 12  1  1  0  0  0
  1  3  1  0  0  0  0
  2  7  1  0  0  0  0
  3 15  1  0  0  0  0
  3 10  1  6  0  0  0
  4  5  2  0  0  0  0
  5  1  1  0  0  0  0
  5  2  1  0  0  0  0
  6 23  1  6  0  0  0
  6  9  1  0  0  0  0
  7 29  1  1  0  0  0
  7  8  1  0  0  0  0
  9 11  1  6  0  0  0
  9 12  1  0  0  0  0
  9  1  1  0  0  0  0
 10  8  1  0  0  0  0
 11  6  1  0  0  0  0
 13 21  2  0  0  0  0
 14 13  1  0  0  0  0
 15 20  1  6  0  0  0
 15 17  1  0  0  0  0
 16 14  1  0  0  0  0
 17 14  2  0  0  0  0
 17 18  1  0  0  0  0
 18 21  1  0  0  0  0
 20 16  2  0  0  0  0
 21 19  1  0  0  0  0
 22 25  1  0  0  0  0
 23 25  1  0  0  0  0
 24 26  1  0  0  0  0
 24 22  2  0  0  0  0
 26 23  2  0  0  0  0
 27 26  1  0  0  0  0
 28 27  1  0  0  0  0
 29 37  1  0  0  0  0
 30 31  1  0  0  0  0
 30 29  1  0  0  0  0
 32 34  1  0  0  0  0
 32 31  1  0  0  0  0
 34 33  1  1  0  0  0
 35 34  1  0  0  0  0
 36 35  1  0  0  0  0
 37 38  1  0  0  0  0
 38 40  1  0  0  0  0
 40 39  1  0  0  0  0
M  END
>  <MODEL>
4

>  <REMARK>
 VINA RESULT:      -5.8      3.488      8.965
  Name = 
  12 active torsions:
  status: ('A' for Active; 'I' for Inactive)
    1  A    between atoms: C_5  and  C_15
    2  A    between atoms: C_7  and  C_10
    3  A    between atoms: C_7  and  S_36
    4  A    between atoms: C_10  and  N_28
    5  A    between atoms: C_11  and  C_16
    6  A    between atoms: C_12  and  N_28
    7  A    between atoms: C_12  and  C_30
    8  A    between atoms: N_13  and  C_35
    9  A    between atoms: C_19  and  C_37
   10  A    between atoms: C_24  and  N_28
   11  A    between atoms: C_29  and  C_30
   12  A    between atoms: C_35  and  S_36
                            x       y       z     vdW  Elec       q    Type
                         _______ _______ _______ _____ _____    ______ ____

>  <TORSDO>
F 12

$$$$
=
 OpenBabel10222415393D

 40 45  0  0  1  0  0  0  0  0999 V2000
  182.9000  177.6550  139.2070 C   0  0  2  0  0  0  0  0  0  0  0  0
  183.8180  176.8610  136.9480 O   0  0  0  0  0  0  0  0  0  0  0  0
  184.2790  178.1970  139.6880 C   0  0  1  0  0  3  0  0  0  0  0  0
  181.6500  177.5310  137.1250 O   0  0  0  0  0  0  0  0  0  0  0  0
  182.7490  177.3540  137.7090 C   0  0  0  0  0  0  0  0  0  0  0  0
  180.5900  178.2490  139.4860 C   0  0  1  0  0  3  0  0  0  0  0  0
  185.1220  176.6450  137.4760 C   0  0  2  0  0  3  0  0  0  0  0  0
  185.8240  177.9880  137.7140 C   0  0  0  0  0  2  0  0  0  0  0  0
  181.7430  177.5830  140.2650 C   0  0  1  0  0  0  0  0  0  0  0  0
  185.0160  178.9460  138.5870 C   0  0  0  0  0  2  0  0  0  0  0  0
  180.3910  176.8910  140.0320 C   0  0  0  0  0  2  0  0  0  0  0  0
  182.6080  176.3820  139.8990 C   0  0  0  0  0  2  0  0  0  0  0  0
  186.1240  177.9860  143.9920 N   0  0  0  0  0  0  0  0  0  0  0  0
  185.1320  178.3020  143.1240 C   0  0  0  0  0  0  0  0  0  0  0  0
  184.3720  178.9820  141.0080 C   0  0  2  0  0  3  0  0  0  0  0  0
  183.6870  178.4820  143.3600 C   0  0  0  0  0  3  0  0  0  0  0  0
  185.4960  178.5530  141.8600 C   0  0  0  0  0  0  0  0  0  0  0  0
  187.1630  178.4290  141.6840 S   0  0  0  0  0  0  0  0  0  0  0  0
  188.5470  177.6860  143.9540 N   0  0  0  0  0  1  0  0  0  0  0  0
  183.1500  178.8210  141.9450 C   0  0  0  0  0  3  0  0  0  0  0  0
  187.3080  178.0030  143.3270 C   0  0  0  0  0  0  0  0  0  0  0  0
  178.9310  180.3200  141.9470 N   0  0  0  0  0  0  0  0  0  0  0  0
  179.9740  179.3190  140.3330 C   0  0  0  0  0  0  0  0  0  0  0  0
  179.2810  181.2760  141.0600 C   0  0  0  0  0  3  0  0  0  0  0  0
  179.3450  179.1350  141.5090 N   0  0  0  0  0  2  0  0  0  0  0  0
  179.9490  180.6600  140.0240 C   0  0  0  0  0  0  0  0  0  0  0  0
  180.4430  181.3140  138.7770 C   0  0  0  0  0  2  0  0  0  0  0  0
  181.9500  181.1880  138.6720 C   0  0  0  0  0  1  0  0  0  0  0  0
  185.9150  175.8060  136.5630 N   0  0  0  0  0  0  0  0  0  0  0  0
  185.1250  175.2640  135.4460 C   0  0  0  0  0  2  0  0  0  0  0  0
  185.1580  173.7480  135.3610 C   0  0  0  0  0  2  0  0  0  0  0  0
  185.0000  173.0340  137.0290 S   0  0  0  0  0  0  0  0  0  0  0  0
  182.3170  173.6750  137.2380 C   0  0  0  0  0  1  0  0  0  0  0  0
  183.2480  172.5510  136.8110 C   0  0  1  0  0  3  0  0  0  0  0  0
  182.9840  172.1620  135.4360 N   0  0  0  0  0  2  0  0  0  0  0  0
  181.5970  172.4960  135.1720 C   0  0  0  0  0  1  0  0  0  0  0  0
  187.1250  176.4820  136.0660 C   0  0  0  0  0  2  0  0  0  0  0  0
  188.4140  175.7440  136.4390 C   0  0  0  0  0  2  0  0  0  0  0  0
  189.3250  178.0190  136.9410 C   0  0  0  0  0  1  0  0  0  0  0  0
  189.2690  176.5680  137.3900 C   0  0  0  0  0  2  0  0  0  0  0  0
  1  3  1  0  0  0  0
  1 12  1  1  0  0  0
  1  9  1  0  0  0  0
  2  7  1  0  0  0  0
  2  5  1  0  0  0  0
  3 10  1  6  0  0  0
  3 15  1  0  0  0  0
  4  5  2  0  0  0  0
  5  1  1  0  0  0  0
  6 11  1  0  0  0  0
  6  9  1  0  0  0  0
  6 23  1  1  0  0  0
  7 29  1  6  0  0  0
  7  8  1  0  0  0  0
  8 10  1  0  0  0  0
  9 12  1  1  0  0  0
 11  9  1  0  0  0  0
 14 16  1  0  0  0  0
 14 13  1  0  0  0  0
 15 17  1  0  0  0  0
 15 20  1  1  0  0  0
 17 14  2  0  0  0  0
 18 17  1  0  0  0  0
 18 21  1  0  0  0  0
 20 16  2  0  0  0  0
 21 19  1  0  0  0  0
 21 13  2  0  0  0  0
 23 25  1  0  0  0  0
 24 22  2  0  0  0  0
 25 22  1  0  0  0  0
 26 23  2  0  0  0  0
 26 24  1  0  0  0  0
 27 26  1  0  0  0  0
 28 27  1  0  0  0  0
 30 29  1  0  0  0  0
 31 30  1  0  0  0  0
 31 32  1  0  0  0  0
 34 32  1  0  0  0  0
 34 33  1  6  0  0  0
 35 34  1  0  0  0  0
 36 35  1  0  0  0  0
 37 38  1  0  0  0  0
 37 29  1  0  0  0  0
 38 40  1  0  0  0  0
 39 40  1  0  0  0  0
M  END
>  <MODEL>
5

>  <REMARK>
 VINA RESULT:      -5.8      1.529      3.743
  Name = 
  12 active torsions:
  status: ('A' for Active; 'I' for Inactive)
    1  A    between atoms: C_5  and  C_15
    2  A    between atoms: C_7  and  C_10
    3  A    between atoms: C_7  and  S_36
    4  A    between atoms: C_10  and  N_28
    5  A    between atoms: C_11  and  C_16
    6  A    between atoms: C_12  and  N_28
    7  A    between atoms: C_12  and  C_30
    8  A    between atoms: N_13  and  C_35
    9  A    between atoms: C_19  and  C_37
   10  A    between atoms: C_24  and  N_28
   11  A    between atoms: C_29  and  C_30
   12  A    between atoms: C_35  and  S_36
                            x       y       z     vdW  Elec       q    Type
                         _______ _______ _______ _____ _____    ______ ____

>  <TORSDO>
F 12

$$$$
=
 OpenBabel10222415393D

 40 45  0  0  1  0  0  0  0  0999 V2000
  190.2800  177.8040  142.7220 C   0  0  2  0  0  0  0  0  0  0  0  0
  191.1040  177.7520  140.2940 O   0  0  0  0  0  0  0  0  0  0  0  0
  188.9080  177.1520  142.3730 C   0  0  1  0  0  3  0  0  0  0  0  0
  192.5950  177.6000  142.0090 O   0  0  0  0  0  0  0  0  0  0  0  0
  191.3900  177.7080  141.6660 C   0  0  0  0  0  0  0  0  0  0  0  0
  191.8110  177.7800  144.5710 C   0  0  1  0  0  3  0  0  0  0  0  0
  189.7840  177.8410  139.7720 C   0  0  2  0  0  3  0  0  0  0  0  0
  189.0550  176.5030  139.9470 C   0  0  0  0  0  2  0  0  0  0  0  0
  190.4540  178.3910  144.1680 C   0  0  1  0  0  0  0  0  0  0  0  0
  189.0550  176.0000  141.3900 C   0  0  0  0  0  2  0  0  0  0  0  0
  191.6460  179.2460  144.6230 C   0  0  0  0  0  2  0  0  0  0  0  0
  190.0850  179.2490  142.9630 C   0  0  0  0  0  2  0  0  0  0  0  0
  185.5440  178.8860  145.1390 N   0  0  0  0  0  0  0  0  0  0  0  0
  186.6230  178.0980  144.9090 C   0  0  0  0  0  0  0  0  0  0  0  0
  187.9430  176.7550  143.5040 C   0  0  2  0  0  3  0  0  0  0  0  0
  187.6190  177.5550  145.8500 C   0  0  0  0  0  3  0  0  0  0  0  0
  186.8070  177.6840  143.6490 C   0  0  0  0  0  0  0  0  0  0  0  0
  185.5820  178.2560  142.6490 S   0  0  0  0  0  0  0  0  0  0  0  0
  183.7110  179.8780  143.8680 N   0  0  0  0  0  1  0  0  0  0  0  0
  188.5680  176.7550  144.9200 C   0  0  0  0  0  3  0  0  0  0  0  0
  184.8790  179.0700  143.9700 C   0  0  0  0  0  0  0  0  0  0  0  0
  191.3290  176.8250  148.0280 N   0  0  0  0  0  0  0  0  0  0  0  0
  191.6800  177.1260  145.9120 C   0  0  0  0  0  0  0  0  0  0  0  0
  191.6950  175.6280  147.5220 C   0  0  0  0  0  2  0  0  0  0  0  0
  191.3230  177.7340  147.0580 N   0  0  0  0  0  0  0  0  0  0  0  0
  191.9230  175.7960  146.1740 C   0  0  0  0  0  0  0  0  0  0  0  0
  192.4300  174.7610  145.2260 C   0  0  0  0  0  2  0  0  0  0  0  0
  191.5860  174.7320  143.9680 C   0  0  0  0  0  1  0  0  0  0  0  0
  189.8170  178.2250  138.3510 N   0  0  0  0  0  0  0  0  0  0  0  0
  190.0010  177.0760  137.4490 C   0  0  0  0  0  2  0  0  0  0  0  0
  191.4580  176.7520  137.1710 C   0  0  0  0  0  2  0  0  0  0  0  0
  191.7570  174.9760  137.4400 S   0  0  0  0  0  0  0  0  0  0  0  0
  194.2950  173.8860  137.5960 C   0  0  0  0  0  1  0  0  0  0  0  0
  193.5370  175.1870  137.8130 C   0  0  1  0  0  3  0  0  0  0  0  0
  194.1120  176.2540  137.0140 N   0  0  0  0  0  2  0  0  0  0  0  0
  194.8240  175.6150  135.9230 C   0  0  0  0  0  1  0  0  0  0  0  0
  188.6510  179.0260  137.9440 C   0  0  0  0  0  2  0  0  0  0  0  0
  187.9890  178.5060  136.6640 C   0  0  0  0  0  2  0  0  0  0  0  0
  186.1920  178.2510  138.3860 C   0  0  0  0  0  1  0  0  0  0  0  0
  186.5610  178.0530  136.9250 C   0  0  0  0  0  2  0  0  0  0  0  0
  1 12  1  6  0  0  0
  1  9  1  0  0  0  0
  2  5  1  0  0  0  0
  3 10  1  1  0  0  0
  3  1  1  0  0  0  0
  3 15  1  0  0  0  0
  5  4  2  0  0  0  0
  5  1  1  0  0  0  0
  6 11  1  0  0  0  0
  6 23  1  1  0  0  0
  7 29  1  6  0  0  0
  7  8  1  0  0  0  0
  7  2  1  0  0  0  0
  8 10  1  0  0  0  0
  9 12  1  1  0  0  0
  9  6  1  0  0  0  0
  9 11  1  0  0  0  0
 14 13  1  0  0  0  0
 14 16  1  0  0  0  0
 15 17  1  0  0  0  0
 15 20  1  1  0  0  0
 17 14  2  0  0  0  0
 18 17  1  0  0  0  0
 18 21  1  0  0  0  0
 19 21  1  0  0  0  0
 20 16  2  0  0  0  0
 21 13  2  0  0  0  0
 23 26  2  0  0  0  0
 23 25  1  0  0  0  0
 24 22  1  0  0  0  0
 25 22  2  0  0  0  0
 26 24  1  0  0  0  0
 27 26  1  0  0  0  0
 28 27  1  0  0  0  0
 30 29  1  0  0  0  0
 31 32  1  0  0  0  0
 31 30  1  0  0  0  0
 32 34  1  0  0  0  0
 34 33  1  6  0  0  0
 35 34  1  0  0  0  0
 36 35  1  0  0  0  0
 37 29  1  0  0  0  0
 38 40  1  0  0  0  0
 38 37  1  0  0  0  0
 40 39  1  0  0  0  0
M  END
>  <MODEL>
6

>  <REMARK>
 VINA RESULT:      -5.4      4.344      8.239
  Name = 
  12 active torsions:
  status: ('A' for Active; 'I' for Inactive)
    1  A    between atoms: C_5  and  C_15
    2  A    between atoms: C_7  and  C_10
    3  A    between atoms: C_7  and  S_36
    4  A    between atoms: C_10  and  N_28
    5  A    between atoms: C_11  and  C_16
    6  A    between atoms: C_12  and  N_28
    7  A    between atoms: C_12  and  C_30
    8  A    between atoms: N_13  and  C_35
    9  A    between atoms: C_19  and  C_37
   10  A    between atoms: C_24  and  N_28
   11  A    between atoms: C_29  and  C_30
   12  A    between atoms: C_35  and  S_36
                            x       y       z     vdW  Elec       q    Type
                         _______ _______ _______ _____ _____    ______ ____

>  <TORSDO>
F 12

$$$$
=
 OpenBabel10222415393D

 40 45  0  0  1  0  0  0  0  0999 V2000
  189.0150  177.1350  138.8860 C   0  0  2  0  0  0  0  0  0  0  0  0
  191.0790  175.6230  138.7150 O   0  0  0  0  0  0  0  0  0  0  0  0
  188.3380  176.5180  137.6250 C   0  0  1  0  0  3  0  0  0  0  0  0
  190.3750  176.3650  140.7480 O   0  0  0  0  0  0  0  0  0  0  0  0
  190.1830  176.3560  139.5060 C   0  0  0  0  0  0  0  0  0  0  0  0
  188.3020  178.0570  140.9850 C   0  0  1  0  0  3  0  0  0  0  0  0
  190.9600  175.5030  137.3020 C   0  0  2  0  0  3  0  0  0  0  0  0
  189.7880  174.5770  136.9480 C   0  0  0  0  0  2  0  0  0  0  0  0
  188.3700  178.4320  139.4910 C   0  0  1  0  0  0  0  0  0  0  0  0
  188.4680  175.0020  137.5900 C   0  0  0  0  0  2  0  0  0  0  0  0
  189.0100  179.2910  140.5920 C   0  0  0  0  0  2  0  0  0  0  0  0
  189.5630  178.4640  138.5420 C   0  0  0  0  0  2  0  0  0  0  0  0
  184.6720  175.1870  135.0260 N   0  0  0  0  0  0  0  0  0  0  0  0
  185.4930  176.1280  135.5520 C   0  0  0  0  0  0  0  0  0  0  0  0
  186.9020  176.9280  137.2540 C   0  0  2  0  0  3  0  0  0  0  0  0
  185.7810  177.5000  135.0930 C   0  0  0  0  0  3  0  0  0  0  0  0
  186.1070  175.8160  136.7000 C   0  0  0  0  0  0  0  0  0  0  0  0
  185.6570  174.2810  137.2180 S   0  0  0  0  0  0  0  0  0  0  0  0
  183.9320  172.9200  135.5480 N   0  0  0  0  0  1  0  0  0  0  0  0
  186.8010  178.0050  136.1460 C   0  0  0  0  0  3  0  0  0  0  0  0
  184.6760  174.0990  135.8380 C   0  0  0  0  0  0  0  0  0  0  0  0
  184.8740  179.0160  141.6360 N   0  0  0  0  0  0  0  0  0  0  0  0
  186.9170  178.3100  141.4960 C   0  0  0  0  0  0  0  0  0  0  0  0
  185.1290  178.3390  142.7760 C   0  0  0  0  0  2  0  0  0  0  0  0
  185.9540  179.0030  140.8610 N   0  0  0  0  0  0  0  0  0  0  0  0
  186.4270  177.8800  142.7070 C   0  0  0  0  0  0  0  0  0  0  0  0
  187.1660  177.1550  143.7820 C   0  0  0  0  0  2  0  0  0  0  0  0
  186.9070  177.7950  145.1310 C   0  0  0  0  0  1  0  0  0  0  0  0
  192.2110  174.9900  136.7210 N   0  0  0  0  0  0  0  0  0  0  0  0
  193.4100  175.4460  137.4430 C   0  0  0  0  0  2  0  0  0  0  0  0
  194.4400  174.3500  137.6560 C   0  0  0  0  0  2  0  0  0  0  0  0
  195.8200  174.5660  136.4870 S   0  0  0  0  0  0  0  0  0  0  0  0
  196.4920  174.4870  139.1690 C   0  0  0  0  0  1  0  0  0  0  0  0
  197.1130  174.5040  137.7810 C   0  0  1  0  0  3  0  0  0  0  0  0
  197.9800  173.3540  137.5940 N   0  0  0  0  0  2  0  0  0  0  0  0
  198.2100  173.2370  136.1670 C   0  0  0  0  0  1  0  0  0  0  0  0
  192.2180  173.5260  136.5710 C   0  0  0  0  0  2  0  0  0  0  0  0
  192.4180  173.0780  135.1190 C   0  0  0  0  0  2  0  0  0  0  0  0
  193.4180  170.8350  135.6010 C   0  0  0  0  0  1  0  0  0  0  0  0
  192.2450  171.5730  134.9760 C   0  0  0  0  0  2  0  0  0  0  0  0
  1 12  1  6  0  0  0
  1  9  1  0  0  0  0
  1  5  1  0  0  0  0
  2  5  1  0  0  0  0
  3 10  1  1  0  0  0
  3  1  1  0  0  0  0
  5  4  2  0  0  0  0
  6 23  1  1  0  0  0
  7 29  1  1  0  0  0
  7  2  1  0  0  0  0
  8  7  1  0  0  0  0
  8 10  1  0  0  0  0
  9 12  1  6  0  0  0
  9 11  1  0  0  0  0
  9  6  1  0  0  0  0
 11  6  1  0  0  0  0
 13 14  1  0  0  0  0
 13 21  2  0  0  0  0
 14 17  2  0  0  0  0
 15 20  1  6  0  0  0
 15  3  1  0  0  0  0
 16 14  1  0  0  0  0
 16 20  2  0  0  0  0
 17 18  1  0  0  0  0
 17 15  1  0  0  0  0
 19 21  1  0  0  0  0
 21 18  1  0  0  0  0
 22 24  1  0  0  0  0
 23 26  2  0  0  0  0
 25 23  1  0  0  0  0
 25 22  2  0  0  0  0
 26 24  1  0  0  0  0
 26 27  1  0  0  0  0
 27 28  1  0  0  0  0
 29 30  1  0  0  0  0
 30 31  1  0  0  0  0
 32 31  1  0  0  0  0
 32 34  1  0  0  0  0
 34 33  1  1  0  0  0
 35 34  1  0  0  0  0
 36 35  1  0  0  0  0
 37 29  1  0  0  0  0
 38 37  1  0  0  0  0
 40 38  1  0  0  0  0
 40 39  1  0  0  0  0
M  END
>  <MODEL>
7

>  <REMARK>
 VINA RESULT:      -5.4      4.211      7.407
  Name = 
  12 active torsions:
  status: ('A' for Active; 'I' for Inactive)
    1  A    between atoms: C_5  and  C_15
    2  A    between atoms: C_7  and  C_10
    3  A    between atoms: C_7  and  S_36
    4  A    between atoms: C_10  and  N_28
    5  A    between atoms: C_11  and  C_16
    6  A    between atoms: C_12  and  N_28
    7  A    between atoms: C_12  and  C_30
    8  A    between atoms: N_13  and  C_35
    9  A    between atoms: C_19  and  C_37
   10  A    between atoms: C_24  and  N_28
   11  A    between atoms: C_29  and  C_30
   12  A    between atoms: C_35  and  S_36
                            x       y       z     vdW  Elec       q    Type
                         _______ _______ _______ _____ _____    ______ ____

>  <TORSDO>
F 12

$$$$
=
 OpenBabel10222415393D

 40 45  0  0  1  0  0  0  0  0999 V2000
  182.6540  177.8350  138.0680 C   0  0  2  0  0  0  0  0  0  0  0  0
  185.0750  177.0750  137.7010 O   0  0  0  0  0  0  0  0  0  0  0  0
  182.0520  176.4820  137.5830 C   0  0  1  0  0  3  0  0  0  0  0  0
  184.5890  178.5850  139.3340 O   0  0  0  0  0  0  0  0  0  0  0  0
  184.1500  177.8540  138.4100 C   0  0  0  0  0  0  0  0  0  0  0  0
  182.0960  179.5210  139.6840 C   0  0  1  0  0  3  0  0  0  0  0  0
  184.7090  176.1820  136.6550 C   0  0  2  0  0  3  0  0  0  0  0  0
  184.0130  174.9450  137.2360 C   0  0  0  0  0  2  0  0  0  0  0  0
  181.6600  179.0300  138.2890 C   0  0  1  0  0  0  0  0  0  0  0  0
  182.8200  175.2860  138.1280 C   0  0  0  0  0  2  0  0  0  0  0  0
  182.0880  180.4800  138.5610 C   0  0  0  0  0  2  0  0  0  0  0  0
  182.4750  178.8540  137.0130 C   0  0  0  0  0  2  0  0  0  0  0  0
  178.9310  173.6420  139.6230 N   0  0  0  0  0  0  0  0  0  0  0  0
  179.3760  174.3880  138.5830 C   0  0  0  0  0  0  0  0  0  0  0  0
  180.5390  176.2320  137.7060 C   0  0  2  0  0  3  0  0  0  0  0  0
  179.0640  174.2930  137.1450 C   0  0  0  0  0  3  0  0  0  0  0  0
  180.1810  175.4160  138.8810 C   0  0  0  0  0  0  0  0  0  0  0  0
  180.4140  175.5270  140.5430 S   0  0  0  0  0  0  0  0  0  0  0  0
  179.1820  173.5710  142.0500 N   0  0  0  0  0  1  0  0  0  0  0  0
  179.9150  175.4360  136.5330 C   0  0  0  0  0  3  0  0  0  0  0  0
  179.4400  174.1500  140.7750 C   0  0  0  0  0  0  0  0  0  0  0  0
  178.9310  180.1830  141.3090 N   0  0  0  0  0  0  0  0  0  0  0  0
  180.8920  179.6380  140.5660 C   0  0  0  0  0  0  0  0  0  0  0  0
  179.5210  179.4480  142.2760 C   0  0  0  0  0  2  0  0  0  0  0  0
  179.7590  180.3030  140.2750 N   0  0  0  0  0  0  0  0  0  0  0  0
  180.7720  179.0890  141.8230 C   0  0  0  0  0  0  0  0  0  0  0  0
  181.8120  178.3460  142.5930 C   0  0  0  0  0  2  0  0  0  0  0  0
  182.5580  179.2830  143.5210 C   0  0  0  0  0  1  0  0  0  0  0  0
  185.8950  175.7860  135.8780 N   0  0  0  0  0  0  0  0  0  0  0  0
  187.0760  175.5310  136.7180 C   0  0  0  0  0  2  0  0  0  0  0  0
  188.1930  176.5390  136.5120 C   0  0  0  0  0  2  0  0  0  0  0  0
  189.2300  176.6240  138.0070 S   0  0  0  0  0  0  0  0  0  0  0  0
  188.4640  179.0420  136.9020 C   0  0  0  0  0  1  0  0  0  0  0  0
  189.2210  178.4530  138.0830 C   0  0  1  0  0  3  0  0  0  0  0  0
  188.6550  178.9180  139.3360 N   0  0  0  0  0  2  0  0  0  0  0  0
  188.5560  177.7580  140.2010 C   0  0  0  0  0  1  0  0  0  0  0  0
  185.6390  174.6480  134.9790 C   0  0  0  0  0  2  0  0  0  0  0  0
  186.8010  173.6510  134.9360 C   0  0  0  0  0  2  0  0  0  0  0  0
  185.3750  171.9470  136.0860 C   0  0  0  0  0  1  0  0  0  0  0  0
  186.2980  172.2160  134.9090 C   0  0  0  0  0  2  0  0  0  0  0  0
  1 12  1  6  0  0  0
  1  9  1  0  0  0  0
  1  5  1  0  0  0  0
  2  5  1  0  0  0  0
  3 15  1  0  0  0  0
  3  1  1  0  0  0  0
  3 10  1  1  0  0  0
  5  4  2  0  0  0  0
  6 23  1  1  0  0  0
  7 29  1  1  0  0  0
  7  8  1  0  0  0  0
  7  2  1  0  0  0  0
  8 10  1  0  0  0  0
  9 12  1  6  0  0  0
  9 11  1  0  0  0  0
  9  6  1  0  0  0  0
 11  6  1  0  0  0  0
 13 21  2  0  0  0  0
 14 17  2  0  0  0  0
 14 13  1  0  0  0  0
 15 20  1  6  0  0  0
 15 17  1  0  0  0  0
 16 14  1  0  0  0  0
 17 18  1  0  0  0  0
 18 21  1  0  0  0  0
 20 16  2  0  0  0  0
 21 19  1  0  0  0  0
 22 24  1  0  0  0  0
 23 26  2  0  0  0  0
 25 23  1  0  0  0  0
 25 22  2  0  0  0  0
 26 24  1  0  0  0  0
 26 27  1  0  0  0  0
 27 28  1  0  0  0  0
 29 30  1  0  0  0  0
 31 30  1  0  0  0  0
 31 32  1  0  0  0  0
 32 34  1  0  0  0  0
 34 33  1  6  0  0  0
 34 35  1  0  0  0  0
 35 36  1  0  0  0  0
 37 29  1  0  0  0  0
 38 37  1  0  0  0  0
 40 38  1  0  0  0  0
 40 39  1  0  0  0  0
M  END
>  <MODEL>
8

>  <REMARK>
 VINA RESULT:      -5.3      2.606      4.604
  Name = 
  12 active torsions:
  status: ('A' for Active; 'I' for Inactive)
    1  A    between atoms: C_5  and  C_15
    2  A    between atoms: C_7  and  C_10
    3  A    between atoms: C_7  and  S_36
    4  A    between atoms: C_10  and  N_28
    5  A    between atoms: C_11  and  C_16
    6  A    between atoms: C_12  and  N_28
    7  A    between atoms: C_12  and  C_30
    8  A    between atoms: N_13  and  C_35
    9  A    between atoms: C_19  and  C_37
   10  A    between atoms: C_24  and  N_28
   11  A    between atoms: C_29  and  C_30
   12  A    between atoms: C_35  and  S_36
                            x       y       z     vdW  Elec       q    Type
                         _______ _______ _______ _____ _____    ______ ____

>  <TORSDO>
F 12

$$$$
=
 OpenBabel10222415393D

 40 45  0  0  1  0  0  0  0  0999 V2000
  189.1370  177.0110  138.4840 C   0  0  2  0  0  0  0  0  0  0  0  0
  191.1890  175.4870  138.2680 O   0  0  0  0  0  0  0  0  0  0  0  0
  188.4160  176.3770  137.2570 C   0  0  1  0  0  3  0  0  0  0  0  0
  190.5560  176.2640  140.3120 O   0  0  0  0  0  0  0  0  0  0  0  0
  190.3230  176.2360  139.0770 C   0  0  0  0  0  0  0  0  0  0  0  0
  188.4980  177.9670  140.5920 C   0  0  1  0  0  3  0  0  0  0  0  0
  191.0220  175.3460  136.8620 C   0  0  2  0  0  3  0  0  0  0  0  0
  189.8360  174.4200  136.5620 C   0  0  0  0  0  2  0  0  0  0  0  0
  188.5180  178.3190  139.0900 C   0  0  1  0  0  0  0  0  0  0  0  0
  188.5400  174.8600  137.2410 C   0  0  0  0  0  2  0  0  0  0  0  0
  189.1970  179.1920  140.1570 C   0  0  0  0  0  2  0  0  0  0  0  0
  189.6780  178.3320  138.1020 C   0  0  0  0  0  2  0  0  0  0  0  0
  184.6080  174.9400  134.9330 N   0  0  0  0  0  0  0  0  0  0  0  0
  185.4670  175.9000  135.3530 C   0  0  0  0  0  0  0  0  0  0  0  0
  186.9700  176.7870  136.9270 C   0  0  2  0  0  3  0  0  0  0  0  0
  185.7530  177.2310  134.7890 C   0  0  0  0  0  3  0  0  0  0  0  0
  186.1330  175.6550  136.4900 C   0  0  0  0  0  0  0  0  0  0  0  0
  185.6850  174.1670  137.1330 S   0  0  0  0  0  0  0  0  0  0  0  0
  183.8610  172.7270  135.6440 N   0  0  0  0  0  1  0  0  0  0  0  0
  186.8310  177.7880  135.7540 C   0  0  0  0  0  3  0  0  0  0  0  0
  184.6350  173.9100  135.8170 C   0  0  0  0  0  0  0  0  0  0  0  0
  185.0390  178.7760  141.2830 N   0  0  0  0  0  0  0  0  0  0  0  0
  187.1320  178.2340  141.1440 C   0  0  0  0  0  0  0  0  0  0  0  0
  185.4420  178.4640  142.5330 C   0  0  0  0  0  2  0  0  0  0  0  0
  186.0590  178.6420  140.4410 N   0  0  0  0  0  0  0  0  0  0  0  0
  186.7730  178.1140  142.4680 C   0  0  0  0  0  0  0  0  0  0  0  0
  187.6570  177.7780  143.6220 C   0  0  0  0  0  2  0  0  0  0  0  0
  186.8570  177.1310  144.7340 C   0  0  0  0  0  1  0  0  0  0  0  0
  192.2520  174.8200  136.2470 N   0  0  0  0  0  0  0  0  0  0  0  0
  192.0300  174.2580  134.9050 C   0  0  0  0  0  2  0  0  0  0  0  0
  192.8990  173.0490  134.6040 C   0  0  0  0  0  2  0  0  0  0  0  0
  192.9500  171.9510  136.0570 S   0  0  0  0  0  0  0  0  0  0  0  0
  194.4480  170.0600  134.7030 C   0  0  0  0  0  1  0  0  0  0  0  0
  194.5890  171.2470  135.6440 C   0  0  1  0  0  3  0  0  0  0  0  0
  195.4580  172.2570  135.0660 N   0  0  0  0  0  2  0  0  0  0  0  0
  196.8140  171.8920  135.4290 C   0  0  0  0  0  1  0  0  0  0  0  0
  193.3490  175.8010  136.2270 C   0  0  0  0  0  2  0  0  0  0  0  0
  194.6620  175.2360  136.7780 C   0  0  0  0  0  2  0  0  0  0  0  0
  195.6510  173.7690  138.5470 C   0  0  0  0  0  1  0  0  0  0  0  0
  194.4720  174.6510  138.1690 C   0  0  0  0  0  2  0  0  0  0  0  0
  1 12  1  6  0  0  0
  1  5  1  0  0  0  0
  1  9  1  0  0  0  0
  2  5  1  0  0  0  0
  3 10  1  1  0  0  0
  3  1  1  0  0  0  0
  5  4  2  0  0  0  0
  6 23  1  1  0  0  0
  7 29  1  1  0  0  0
  7  2  1  0  0  0  0
  8  7  1  0  0  0  0
  8 10  1  0  0  0  0
  9 12  1  6  0  0  0
  9 11  1  0  0  0  0
  9  6  1  0  0  0  0
 11  6  1  0  0  0  0
 13 14  1  0  0  0  0
 13 21  2  0  0  0  0
 14 17  2  0  0  0  0
 15 20  1  6  0  0  0
 15  3  1  0  0  0  0
 16 14  1  0  0  0  0
 16 20  2  0  0  0  0
 17 15  1  0  0  0  0
 17 18  1  0  0  0  0
 19 21  1  0  0  0  0
 21 18  1  0  0  0  0
 22 24  1  0  0  0  0
 23 26  2  0  0  0  0
 25 23  1  0  0  0  0
 25 22  2  0  0  0  0
 26 24  1  0  0  0  0
 26 27  1  0  0  0  0
 27 28  1  0  0  0  0
 30 29  1  0  0  0  0
 31 30  1  0  0  0  0
 31 32  1  0  0  0  0
 34 33  1  6  0  0  0
 34 32  1  0  0  0  0
 35 36  1  0  0  0  0
 35 34  1  0  0  0  0
 37 29  1  0  0  0  0
 37 38  1  0  0  0  0
 38 40  1  0  0  0  0
 40 39  1  0  0  0  0
M  END
>  <MODEL>
9

>  <REMARK>
 VINA RESULT:      -5.0      4.300      7.722
  Name = 
  12 active torsions:
  status: ('A' for Active; 'I' for Inactive)
    1  A    between atoms: C_5  and  C_15
    2  A    between atoms: C_7  and  C_10
    3  A    between atoms: C_7  and  S_36
    4  A    between atoms: C_10  and  N_28
    5  A    between atoms: C_11  and  C_16
    6  A    between atoms: C_12  and  N_28
    7  A    between atoms: C_12  and  C_30
    8  A    between atoms: N_13  and  C_35
    9  A    between atoms: C_19  and  C_37
   10  A    between atoms: C_24  and  N_28
   11  A    between atoms: C_29  and  C_30
   12  A    between atoms: C_35  and  S_36
                            x       y       z     vdW  Elec       q    Type
                         _______ _______ _______ _____ _____    ______ ____

>  <TORSDO>
F 12

$$$$
