=
 OpenBabel10222417323D

 57 62  0  0  1  0  0  0  0  0999 V2000
  190.6190  175.9640  137.9440 N   0  0  0  0  0  0  0  0  0  0  0  0
  191.9200  173.8420  136.3190 C   0  0  0  0  0  0  0  0  0  0  0  0
  190.7180  173.3320  136.6210 C   0  0  0  0  0  3  0  0  0  0  0  0
  191.6270  176.2300  136.9720 C   0  0  0  0  0  3  0  0  0  0  0  0
  187.9910  173.1780  136.6160 Cl  0  0  0  0  0  0  0  0  0  0  0  0
  189.4770  174.0490  136.9650 C   0  0  0  0  0  0  0  0  0  0  0  0
  192.2040  175.2860  136.2430 C   0  0  0  0  0  3  0  0  0  0  0  0
  189.4180  175.2490  137.5600 C   0  0  0  0  0  0  0  0  0  0  0  0
  191.7950  177.7660  141.1030 C   0  0  0  0  0  2  0  0  0  0  0  0
  191.8240  177.0430  139.7810 C   0  0  0  0  0  0  0  0  0  0  0  0
  190.6240  177.2780  143.3000 N   0  0  0  0  0  2  0  0  0  0  0  0
  189.4620  177.1110  141.2500 N   0  0  0  0  0  0  0  0  0  0  0  0
  189.3730  177.2010  139.7930 C   0  0  0  0  0  2  0  0  0  0  0  0
  190.6640  176.7370  139.1610 C   0  0  0  0  0  0  0  0  0  0  0  0
  193.1520  176.7360  139.1730 C   0  0  0  0  0  1  0  0  0  0  0  0
  190.5660  177.3860  141.8810 C   0  0  0  0  0  0  0  0  0  0  0  0
  189.5680  176.6980  144.0100 N   0  0  0  0  0  2  0  0  0  0  0  0
  187.5480  177.7940  146.9490 C   0  0  0  0  0  3  0  0  0  0  0  0
  186.7120  177.5770  144.3750 Cl  0  0  0  0  0  0  0  0  0  0  0  0
  189.2340  177.0290  145.3660 C   0  0  0  0  0  0  0  0  0  0  0  0
  189.7880  177.3110  147.7190 C   0  0  0  0  0  3  0  0  0  0  0  0
  190.1770  176.9570  146.4210 C   0  0  0  0  0  0  0  0  0  0  0  0
  187.9220  177.4620  145.6450 C   0  0  0  0  0  0  0  0  0  0  0  0
  188.4770  177.7200  147.9840 C   0  0  0  0  0  3  0  0  0  0  0  0
  191.6070  176.6170  146.1980 C   0  0  0  0  0  2  0  0  0  0  0  0
  192.1190  175.7570  147.3330 C   0  0  0  0  0  1  0  0  0  0  0  0
  194.3650  173.2710  136.1640 N   0  0  0  0  0  2  0  0  0  0  0  0
  193.0030  172.9120  135.9370 C   0  0  0  0  0  0  0  0  0  0  0  0
  192.7340  171.7970  135.4120 O   0  0  0  0  0  0  0  0  0  0  0  0
  195.4160  172.4120  135.8090 N   0  0  0  0  0  2  0  0  0  0  0  0
  195.7350  170.9010  137.7680 C   0  0  0  0  0  1  0  0  0  0  0  0
  197.6030  172.0950  136.7150 C   0  0  0  0  0  2  0  0  0  0  0  0
  197.8770  173.2590  137.5340 N   0  0  0  0  0  0  0  0  0  0  0  0
  199.0600  174.0240  137.8830 C   0  0  0  0  0  1  0  0  0  0  0  0
  196.4410  173.3290  137.8620 C   0  0  0  0  0  0  0  0  0  0  0  0
  196.2040  172.1280  137.0020 C   0  0  1  0  0  0  0  0  0  0  0  0
  195.7250  174.0790  138.5760 O   0  0  0  0  0  0  0  0  0  0  0  0
  188.1430  175.7820  137.8030 O   0  0  0  0  0  0  0  0  0  0  0  0
  185.5130  176.7610  135.5220 N   0  0  0  0  0  2  0  0  0  0  0  0
  185.3810  176.9610  136.9200 C   0  0  2  0  0  0  0  0  0  0  0  0
  187.4190  176.5920  136.8880 C   0  0  2  0  0  3  0  0  0  0  0  0
  186.6280  177.9550  137.7770 S   0  0  0  0  0  0  0  0  0  0  0  0
  186.2150  175.9080  136.4430 N   0  0  2  0  0  0  0  0  0  0  0  0
  184.2130  176.3970  137.5820 N   0  0  0  0  0  2  0  0  0  0  0  0
  183.0720  177.2570  137.2970 C   0  0  2  0  0  3  0  0  0  0  0  0
  182.2810  177.5030  138.5740 C   0  0  0  0  0  2  0  0  0  0  0  0
  183.0030  178.4620  139.4670 C   0  0  0  0  0  0  0  0  0  0  0  0
  183.6270  177.9770  140.5040 N   0  0  0  0  0  0  0  0  0  0  0  0
  185.6130  178.8350  141.4660 C   0  0  0  0  0  2  0  0  0  0  0  0
  184.3010  178.6980  141.5430 C   0  0  0  0  0  0  0  0  0  0  0  0
  183.6580  178.8990  142.8750 C   0  0  0  0  0  1  0  0  0  0  0  0
  181.9000  180.6390  138.9130 O   0  0  0  0  0  0  0  0  0  0  0  0
  183.0610  179.8880  139.0610 C   0  0  0  0  0  0  0  0  0  0  0  0
  184.1780  180.4520  138.9160 O   0  0  0  0  0  1  0  0  0  0  0  0
  182.2520  176.6550  136.3400 O   0  0  0  0  0  0  0  0  0  0  0  0
  180.6410  177.1920  134.6730 C   0  0  0  0  0  1  0  0  0  0  0  0
  181.6450  177.7240  135.6720 C   0  0  0  0  0  2  0  0  0  0  0  0
  1 14  1  0  0  0  0
  2  3  2  0  0  0  0
  3  6  1  0  0  0  0
  4  1  1  0  0  0  0
  5  6  1  0  0  0  0
  6  8  2  0  0  0  0
  7  2  1  0  0  0  0
  7  4  2  0  0  0  0
  8 38  1  0  0  0  0
  8  1  1  0  0  0  0
  9 16  1  0  0  0  0
 10  9  1  0  0  0  0
 11 17  1  0  0  0  0
 12 16  2  0  0  0  0
 13 12  1  0  0  0  0
 14 10  2  0  0  0  0
 14 13  1  0  0  0  0
 15 10  1  0  0  0  0
 16 11  1  0  0  0  0
 17 20  1  0  0  0  0
 18 24  1  0  0  0  0
 19 23  1  0  0  0  0
 20 23  1  0  0  0  0
 20 22  2  0  0  0  0
 21 24  2  0  0  0  0
 22 21  1  0  0  0  0
 23 18  2  0  0  0  0
 25 22  1  0  0  0  0
 25 26  1  0  0  0  0
 28 27  1  0  0  0  0
 28  2  1  0  0  0  0
 29 28  2  0  0  0  0
 30 27  1  0  0  0  0
 30 36  1  0  0  0  0
 32 36  1  0  0  0  0
 32 33  1  0  0  0  0
 33 35  1  0  0  0  0
 33 34  1  0  0  0  0
 35 37  2  0  0  0  0
 36 31  1  1  0  0  0
 36 35  1  0  0  0  0
 39 40  1  0  0  0  0
 40 44  1  1  0  0  0
 40 42  1  0  0  0  0
 41 42  1  0  0  0  0
 41 38  1  1  0  0  0
 43 39  1  6  0  0  0
 43 41  1  0  0  0  0
 43 40  1  0  0  0  0
 45 44  1  0  0  0  0
 45 46  1  1  0  0  0
 46 47  1  0  0  0  0
 47 48  2  0  0  0  0
 48 50  1  0  0  0  0
 49 50  2  0  0  0  0
 50 51  1  0  0  0  0
 52 53  2  0  0  0  0
 53 47  1  0  0  0  0
 54 53  1  0  0  0  0
 55 45  1  0  0  0  0
 56 57  1  0  0  0  0
 57 55  1  0  0  0  0
M  END
>  <MODEL>
1

>  <REMARK>
 VINA RESULT:      -8.4      0.000      0.000
  Name = 
  17 active torsions:
  status: ('A' for Active; 'I' for Inactive)
    1  A    between atoms: N_2  and  N_30
    2  A    between atoms: C_7  and  N_32
    3  A    between atoms: CA_8  and  C_27
    4  A    between atoms: CA_8  and  C_29
    5  A    between atoms: C_9  and  C_45
    6  A    between atoms: N_10  and  C_40
    7  A    between atoms: C_11  and  C_23
    8  A    between atoms: C_12  and  O_14
    9  A    between atoms: C_12  and  N_19
   10  A    between atoms: C_12  and  C_27
   11  A    between atoms: N_13  and  C_26
   12  A    between atoms: N_13  and  N_28
   13  A    between atoms: O_14  and  C_53
   14  A    between atoms: N_19  and  C_24
   15  A    between atoms: C_25  and  O_50
   16  A    between atoms: N_30  and  C_46
   17  A    between atoms: O_50  and  C_56
                            x       y       z     vdW  Elec       q    Type
                         _______ _______ _______ _____ _____    ______ ____

>  <TORSDO>
F 17

$$$$
=
 OpenBabel10222417323D

 57 62  0  0  1  0  0  0  0  0999 V2000
  189.7250  176.0800  137.9290 N   0  0  0  0  0  0  0  0  0  0  0  0
  192.6570  175.7550  137.5650 C   0  0  0  0  0  0  0  0  0  0  0  0
  192.5470  176.6890  138.5200 C   0  0  0  0  0  3  0  0  0  0  0  0
  190.3260  174.8770  137.4560 C   0  0  0  0  0  3  0  0  0  0  0  0
  191.8670  177.7050  140.9620 Cl  0  0  0  0  0  0  0  0  0  0  0  0
  191.4290  176.9240  139.4500 C   0  0  0  0  0  0  0  0  0  0  0  0
  191.6330  174.7290  137.2990 C   0  0  0  0  0  3  0  0  0  0  0  0
  190.1420  176.6450  139.1970 C   0  0  0  0  0  0  0  0  0  0  0  0
  186.8960  178.0950  136.3330 C   0  0  0  0  0  2  0  0  0  0  0  0
  188.2560  177.7250  136.8670 C   0  0  0  0  0  0  0  0  0  0  0  0
  184.5610  177.9160  137.3090 N   0  0  0  0  0  2  0  0  0  0  0  0
  186.0700  176.1040  137.4490 N   0  0  0  0  0  0  0  0  0  0  0  0
  187.3610  175.4620  137.1990 C   0  0  0  0  0  2  0  0  0  0  0  0
  188.4780  176.4720  137.3180 C   0  0  0  0  0  0  0  0  0  0  0  0
  189.3350  178.7560  136.8300 C   0  0  0  0  0  1  0  0  0  0  0  0
  185.8250  177.3140  137.0410 C   0  0  0  0  0  0  0  0  0  0  0  0
  183.6490  177.2960  138.1690 N   0  0  0  0  0  2  0  0  0  0  0  0
  180.3470  176.1210  136.8930 C   0  0  0  0  0  3  0  0  0  0  0  0
  182.7710  174.9800  136.4580 Cl  0  0  0  0  0  0  0  0  0  0  0  0
  182.2340  177.2510  137.9400 C   0  0  0  0  0  0  0  0  0  0  0  0
  179.9770  178.1270  138.1900 C   0  0  0  0  0  3  0  0  0  0  0  0
  181.3470  178.2230  138.4660 C   0  0  0  0  0  0  0  0  0  0  0  0
  181.7170  176.2090  137.1420 C   0  0  0  0  0  0  0  0  0  0  0  0
  179.4770  177.0770  137.4140 C   0  0  0  0  0  3  0  0  0  0  0  0
  181.8160  179.4130  139.2230 C   0  0  0  0  0  2  0  0  0  0  0  0
  181.7970  180.6360  138.3330 C   0  0  0  0  0  1  0  0  0  0  0  0
  194.6340  174.4440  136.7280 N   0  0  0  0  0  2  0  0  0  0  0  0
  193.9180  175.6760  136.7990 C   0  0  0  0  0  0  0  0  0  0  0  0
  194.3690  176.6920  136.2030 O   0  0  0  0  0  0  0  0  0  0  0  0
  195.8360  174.3390  136.0110 N   0  0  0  0  0  2  0  0  0  0  0  0
  197.1210  172.2330  136.3800 C   0  0  0  0  0  1  0  0  0  0  0  0
  197.9890  174.4310  137.0400 C   0  0  0  0  0  2  0  0  0  0  0  0
  197.7560  174.5690  138.4640 N   0  0  0  0  0  0  0  0  0  0  0  0
  198.4370  175.2230  139.5660 C   0  0  0  0  0  1  0  0  0  0  0  0
  196.5330  173.7590  138.3100 C   0  0  0  0  0  0  0  0  0  0  0  0
  196.8110  173.6470  136.8450 C   0  0  1  0  0  0  0  0  0  0  0  0
  195.6420  173.3340  139.0910 O   0  0  0  0  0  0  0  0  0  0  0  0
  189.2130  176.9290  140.2100 O   0  0  0  0  0  0  0  0  0  0  0  0
  186.2640  178.9980  140.5230 N   0  0  0  0  0  2  0  0  0  0  0  0
  186.9520  178.5270  141.6700 C   0  0  2  0  0  0  0  0  0  0  0  0
  188.4270  178.1100  140.2770 C   0  0  2  0  0  3  0  0  0  0  0  0
  188.7050  178.9380  141.8610 S   0  0  0  0  0  0  0  0  0  0  0  0
  187.0230  177.7780  140.4600 N   0  0  2  0  0  0  0  0  0  0  0  0
  186.1930  177.7800  142.6630 N   0  0  0  0  0  2  0  0  0  0  0  0
  186.6670  178.1730  143.9840 C   0  0  2  0  0  3  0  0  0  0  0  0
  187.0930  176.9390  144.7650 C   0  0  0  0  0  2  0  0  0  0  0  0
  188.5150  177.0620  145.2140 C   0  0  0  0  0  0  0  0  0  0  0  0
  189.4450  177.0550  144.3000 N   0  0  0  0  0  0  0  0  0  0  0  0
  191.4930  178.2290  144.4860 C   0  0  0  0  0  2  0  0  0  0  0  0
  190.8660  177.0660  144.4890 C   0  0  0  0  0  0  0  0  0  0  0  0
  191.6780  175.8360  144.2480 C   0  0  0  0  0  1  0  0  0  0  0  0
  189.4190  176.3370  147.4330 O   0  0  0  0  0  1  0  0  0  0  0  0
  188.7770  177.2960  146.6550 C   0  0  0  0  0  0  0  0  0  0  0  0
  188.4790  178.4050  147.1730 O   0  0  0  0  0  0  0  0  0  0  0  0
  185.6520  178.8420  144.6720 O   0  0  0  0  0  0  0  0  0  0  0  0
  183.2800  179.0050  144.7860 C   0  0  0  0  0  1  0  0  0  0  0  0
  184.4690  178.4240  144.0520 C   0  0  0  0  0  2  0  0  0  0  0  0
  1  8  1  0  0  0  0
  2  3  2  0  0  0  0
  3  6  1  0  0  0  0
  4  1  1  0  0  0  0
  6  5  1  0  0  0  0
  7  4  2  0  0  0  0
  7  2  1  0  0  0  0
  8  6  2  0  0  0  0
  8 38  1  0  0  0  0
  9 10  1  0  0  0  0
  9 16  1  0  0  0  0
 10 14  2  0  0  0  0
 11 17  1  0  0  0  0
 13 14  1  0  0  0  0
 13 12  1  0  0  0  0
 14  1  1  0  0  0  0
 15 10  1  0  0  0  0
 16 11  1  0  0  0  0
 16 12  2  0  0  0  0
 18 23  2  0  0  0  0
 18 24  1  0  0  0  0
 19 23  1  0  0  0  0
 20 17  1  0  0  0  0
 20 22  2  0  0  0  0
 21 22  1  0  0  0  0
 22 25  1  0  0  0  0
 23 20  1  0  0  0  0
 24 21  2  0  0  0  0
 26 25  1  0  0  0  0
 27 28  1  0  0  0  0
 28  2  1  0  0  0  0
 29 28  2  0  0  0  0
 30 27  1  0  0  0  0
 30 36  1  0  0  0  0
 32 33  1  0  0  0  0
 33 34  1  0  0  0  0
 35 33  1  0  0  0  0
 35 37  2  0  0  0  0
 36 31  1  6  0  0  0
 36 32  1  0  0  0  0
 36 35  1  0  0  0  0
 39 40  1  0  0  0  0
 40 42  1  0  0  0  0
 40 44  1  1  0  0  0
 41 38  1  1  0  0  0
 41 43  1  0  0  0  0
 41 42  1  0  0  0  0
 43 39  1  6  0  0  0
 43 40  1  0  0  0  0
 44 45  1  0  0  0  0
 45 55  1  0  0  0  0
 45 46  1  1  0  0  0
 46 47  1  0  0  0  0
 47 53  1  0  0  0  0
 48 50  1  0  0  0  0
 48 47  2  0  0  0  0
 49 50  2  0  0  0  0
 51 50  1  0  0  0  0
 53 54  2  0  0  0  0
 53 52  1  0  0  0  0
 57 55  1  0  0  0  0
 57 56  1  0  0  0  0
M  END
>  <MODEL>
2

>  <REMARK>
 VINA RESULT:      -8.4      2.881      7.284
  Name = 
  17 active torsions:
  status: ('A' for Active; 'I' for Inactive)
    1  A    between atoms: N_2  and  N_30
    2  A    between atoms: C_7  and  N_32
    3  A    between atoms: CA_8  and  C_27
    4  A    between atoms: CA_8  and  C_29
    5  A    between atoms: C_9  and  C_45
    6  A    between atoms: N_10  and  C_40
    7  A    between atoms: C_11  and  C_23
    8  A    between atoms: C_12  and  O_14
    9  A    between atoms: C_12  and  N_19
   10  A    between atoms: C_12  and  C_27
   11  A    between atoms: N_13  and  C_26
   12  A    between atoms: N_13  and  N_28
   13  A    between atoms: O_14  and  C_53
   14  A    between atoms: N_19  and  C_24
   15  A    between atoms: C_25  and  O_50
   16  A    between atoms: N_30  and  C_46
   17  A    between atoms: O_50  and  C_56
                            x       y       z     vdW  Elec       q    Type
                         _______ _______ _______ _____ _____    ______ ____

>  <TORSDO>
F 17

$$$$
=
 OpenBabel10222417323D

 57 62  0  0  1  0  0  0  0  0999 V2000
  189.7020  176.1910  137.4500 N   0  0  0  0  0  0  0  0  0  0  0  0
  191.6440  174.4910  135.9750 C   0  0  0  0  0  0  0  0  0  0  0  0
  190.7250  173.6240  136.4240 C   0  0  0  0  0  3  0  0  0  0  0  0
  190.5100  176.6740  136.3790 C   0  0  0  0  0  3  0  0  0  0  0  0
  188.2490  172.4930  136.6480 Cl  0  0  0  0  0  0  0  0  0  0  0  0
  189.3190  173.8810  136.7810 C   0  0  0  0  0  0  0  0  0  0  0  0
  191.3710  175.9160  135.7170 C   0  0  0  0  0  3  0  0  0  0  0  0
  188.8390  175.0450  137.2420 C   0  0  0  0  0  0  0  0  0  0  0  0
  190.0770  178.0830  140.7500 C   0  0  0  0  0  2  0  0  0  0  0  0
  190.3990  177.2140  139.5620 C   0  0  0  0  0  0  0  0  0  0  0  0
  188.1240  178.1210  142.3690 N   0  0  0  0  0  0  0  0  0  0  0  0
  187.7580  177.9490  140.0420 N   0  0  0  0  0  0  0  0  0  0  0  0
  188.2150  177.8770  138.6540 C   0  0  0  0  0  2  0  0  0  0  0  0
  189.4960  177.0810  138.5660 C   0  0  0  0  0  0  0  0  0  0  0  0
  191.7430  176.5650  139.5040 C   0  0  0  0  0  1  0  0  0  0  0  0
  188.6000  178.0640  141.0270 C   0  0  0  0  0  0  0  0  0  0  0  0
  186.7800  177.8640  142.6560 N   0  0  0  0  0  0  0  0  0  0  0  0
  186.3360  177.8410  146.3600 C   0  0  0  0  0  3  0  0  0  0  0  0
  188.4600  176.8950  144.9580 Cl  0  0  0  0  0  0  0  0  0  0  0  0
  186.1780  178.0790  143.9410 C   0  0  0  0  0  0  0  0  0  0  0  0
  184.3680  178.8440  145.3770 C   0  0  0  0  0  3  0  0  0  0  0  0
  184.9040  178.6790  144.0930 C   0  0  0  0  0  0  0  0  0  0  0  0
  186.8780  177.6530  145.0880 C   0  0  0  0  0  0  0  0  0  0  0  0
  185.0840  178.4350  146.5070 C   0  0  0  0  0  3  0  0  0  0  0  0
  184.0500  179.0580  142.9360 C   0  0  0  0  0  2  0  0  0  0  0  0
  182.5900  178.8690  143.2850 C   0  0  0  0  0  1  0  0  0  0  0  0
  194.1330  174.4190  136.3320 N   0  0  0  0  0  2  0  0  0  0  0  0
  192.9810  173.9750  135.6160 C   0  0  0  0  0  0  0  0  0  0  0  0
  193.1160  173.1410  134.6790 O   0  0  0  0  0  0  0  0  0  0  0  0
  195.4160  173.9510  136.0130 N   0  0  0  0  0  2  0  0  0  0  0  0
  195.3380  172.0490  137.6250 C   0  0  0  0  0  1  0  0  0  0  0  0
  197.4200  173.2380  137.1000 C   0  0  0  0  0  2  0  0  0  0  0  0
  197.6550  174.1770  138.1790 N   0  0  0  0  0  0  0  0  0  0  0  0
  198.8270  174.7320  138.8310 C   0  0  0  0  0  1  0  0  0  0  0  0
  196.1950  174.3230  138.3290 C   0  0  0  0  0  0  0  0  0  0  0  0
  196.0000  173.3530  137.2070 C   0  0  1  0  0  0  0  0  0  0  0  0
  195.4390  174.9790  139.0910 O   0  0  0  0  0  0  0  0  0  0  0  0
  187.4650  175.1070  137.5220 O   0  0  0  0  0  0  0  0  0  0  0  0
  184.4760  174.5970  135.5510 N   0  0  0  0  0  2  0  0  0  0  0  0
  184.4120  175.1870  136.8390 C   0  0  2  0  0  0  0  0  0  0  0  0
  186.4550  175.3690  136.5570 C   0  0  2  0  0  3  0  0  0  0  0  0
  185.3720  176.6890  137.1540 S   0  0  0  0  0  0  0  0  0  0  0  0
  185.4790  174.2920  136.5370 N   0  0  2  0  0  0  0  0  0  0  0  0
  183.5280  174.5810  137.8250 N   0  0  0  0  0  2  0  0  0  0  0  0
  182.1620  174.6750  137.3260 C   0  0  2  0  0  3  0  0  0  0  0  0
  181.2880  175.3820  138.3520 C   0  0  0  0  0  2  0  0  0  0  0  0
  181.4120  176.8670  138.2190 C   0  0  0  0  0  0  0  0  0  0  0  0
  181.8720  177.5340  139.2400 N   0  0  0  0  0  0  0  0  0  0  0  0
  183.1950  179.4970  139.3060 C   0  0  0  0  0  2  0  0  0  0  0  0
  181.9920  178.9550  139.3820 C   0  0  0  0  0  0  0  0  0  0  0  0
  180.9100  179.7520  140.0340 C   0  0  0  0  0  1  0  0  0  0  0  0
  179.7990  177.7180  136.5040 O   0  0  0  0  0  1  0  0  0  0  0  0
  181.1110  177.4790  136.9010 C   0  0  0  0  0  0  0  0  0  0  0  0
  182.0540  177.8550  136.1560 O   0  0  0  0  0  0  0  0  0  0  0  0
  181.6590  173.3960  137.0770 O   0  0  0  0  0  0  0  0  0  0  0  0
  179.7200  172.0610  137.4280 C   0  0  0  0  0  1  0  0  0  0  0  0
  180.3450  173.4340  137.5570 C   0  0  0  0  0  2  0  0  0  0  0  0
  1 14  1  0  0  0  0
  2  3  2  0  0  0  0
  3  6  1  0  0  0  0
  4  1  1  0  0  0  0
  5  6  1  0  0  0  0
  6  8  2  0  0  0  0
  7  2  1  0  0  0  0
  7  4  2  0  0  0  0
  8  1  1  0  0  0  0
  8 38  1  0  0  0  0
  9 16  1  0  0  0  0
 10  9  1  0  0  0  0
 11 17  2  0  0  0  0
 12 16  2  0  0  0  0
 13 12  1  0  0  0  0
 14 13  1  0  0  0  0
 14 10  2  0  0  0  0
 15 10  1  0  0  0  0
 16 11  1  0  0  0  0
 17 20  1  0  0  0  0
 18 24  1  0  0  0  0
 19 23  1  0  0  0  0
 20 22  2  0  0  0  0
 20 23  1  0  0  0  0
 21 24  2  0  0  0  0
 22 21  1  0  0  0  0
 23 18  2  0  0  0  0
 25 26  1  0  0  0  0
 25 22  1  0  0  0  0
 28  2  1  0  0  0  0
 28 27  1  0  0  0  0
 29 28  2  0  0  0  0
 30 27  1  0  0  0  0
 30 36  1  0  0  0  0
 32 36  1  0  0  0  0
 32 33  1  0  0  0  0
 33 35  1  0  0  0  0
 33 34  1  0  0  0  0
 35 37  2  0  0  0  0
 36 31  1  1  0  0  0
 36 35  1  0  0  0  0
 39 40  1  0  0  0  0
 40 42  1  0  0  0  0
 40 44  1  1  0  0  0
 41 42  1  0  0  0  0
 41 38  1  1  0  0  0
 43 39  1  6  0  0  0
 43 41  1  0  0  0  0
 43 40  1  0  0  0  0
 45 44  1  0  0  0  0
 45 46  1  1  0  0  0
 47 46  1  0  0  0  0
 47 48  2  0  0  0  0
 48 50  1  0  0  0  0
 49 50  2  0  0  0  0
 50 51  1  0  0  0  0
 52 53  1  0  0  0  0
 53 47  1  0  0  0  0
 54 53  2  0  0  0  0
 55 45  1  0  0  0  0
 55 57  1  0  0  0  0
 56 57  1  0  0  0  0
M  END
>  <MODEL>
3

>  <REMARK>
 VINA RESULT:      -8.3      2.065      3.163
  Name = 
  17 active torsions:
  status: ('A' for Active; 'I' for Inactive)
    1  A    between atoms: N_2  and  N_30
    2  A    between atoms: C_7  and  N_32
    3  A    between atoms: CA_8  and  C_27
    4  A    between atoms: CA_8  and  C_29
    5  A    between atoms: C_9  and  C_45
    6  A    between atoms: N_10  and  C_40
    7  A    between atoms: C_11  and  C_23
    8  A    between atoms: C_12  and  O_14
    9  A    between atoms: C_12  and  N_19
   10  A    between atoms: C_12  and  C_27
   11  A    between atoms: N_13  and  C_26
   12  A    between atoms: N_13  and  N_28
   13  A    between atoms: O_14  and  C_53
   14  A    between atoms: N_19  and  C_24
   15  A    between atoms: C_25  and  O_50
   16  A    between atoms: N_30  and  C_46
   17  A    between atoms: O_50  and  C_56
                            x       y       z     vdW  Elec       q    Type
                         _______ _______ _______ _____ _____    ______ ____

>  <TORSDO>
F 17

$$$$
=
 OpenBabel10222417323D

 57 62  0  0  1  0  0  0  0  0999 V2000
  189.9110  176.1550  137.8860 N   0  0  0  0  0  0  0  0  0  0  0  0
  192.7280  175.4810  137.2180 C   0  0  0  0  0  0  0  0  0  0  0  0
  192.8310  176.5030  138.0790 C   0  0  0  0  0  3  0  0  0  0  0  0
  190.3280  174.8560  137.4720 C   0  0  0  0  0  3  0  0  0  0  0  0
  192.5670  177.8020  140.4660 Cl  0  0  0  0  0  0  0  0  0  0  0  0
  191.8680  176.9410  139.1040 C   0  0  0  0  0  0  0  0  0  0  0  0
  191.5840  174.5530  137.1800 C   0  0  0  0  0  3  0  0  0  0  0  0
  190.5380  176.7830  139.0320 C   0  0  0  0  0  0  0  0  0  0  0  0
  187.0560  178.3570  136.6150 C   0  0  0  0  0  2  0  0  0  0  0  0
  188.4340  177.9100  137.0310 C   0  0  0  0  0  0  0  0  0  0  0  0
  184.7860  178.1880  137.7360 N   0  0  0  0  0  0  0  0  0  0  0  0
  186.2360  176.3240  137.6590 N   0  0  0  0  0  0  0  0  0  0  0  0
  187.4830  175.6600  137.2820 C   0  0  0  0  0  2  0  0  0  0  0  0
  188.6420  176.6240  137.3870 C   0  0  0  0  0  0  0  0  0  0  0  0
  189.5450  178.9080  136.9840 C   0  0  0  0  0  1  0  0  0  0  0  0
  186.0070  177.5660  137.3450 C   0  0  0  0  0  0  0  0  0  0  0  0
  183.9120  177.5420  138.6160 N   0  0  0  0  0  0  0  0  0  0  0  0
  181.4540  178.9670  141.0340 C   0  0  0  0  0  3  0  0  0  0  0  0
  183.9500  178.0490  141.5830 Cl  0  0  0  0  0  0  0  0  0  0  0  0
  182.7010  178.1270  139.1170 C   0  0  0  0  0  0  0  0  0  0  0  0
  180.4370  178.9740  138.8410 C   0  0  0  0  0  3  0  0  0  0  0  0
  181.5940  178.4180  138.2820 C   0  0  0  0  0  0  0  0  0  0  0  0
  182.6110  178.3970  140.4980 C   0  0  0  0  0  0  0  0  0  0  0  0
  180.3690  179.2550  140.2090 C   0  0  0  0  0  3  0  0  0  0  0  0
  181.5620  178.0660  136.8380 C   0  0  0  0  0  2  0  0  0  0  0  0
  180.3410  177.2250  136.5360 C   0  0  0  0  0  1  0  0  0  0  0  0
  194.5140  173.9260  136.3700 N   0  0  0  0  0  2  0  0  0  0  0  0
  193.8690  175.1970  136.3220 C   0  0  0  0  0  0  0  0  0  0  0  0
  194.2780  176.0710  135.5110 O   0  0  0  0  0  0  0  0  0  0  0  0
  195.6020  173.6270  135.5360 N   0  0  0  0  0  2  0  0  0  0  0  0
  197.2630  171.7950  135.8630 C   0  0  0  0  0  1  0  0  0  0  0  0
  197.6960  174.1010  136.5820 C   0  0  0  0  0  2  0  0  0  0  0  0
  197.4370  174.1570  138.0070 N   0  0  0  0  0  0  0  0  0  0  0  0
  197.9780  174.9010  139.1290 C   0  0  0  0  0  1  0  0  0  0  0  0
  196.3910  173.1340  137.8250 C   0  0  0  0  0  0  0  0  0  0  0  0
  196.6890  173.1130  136.3600 C   0  0  1  0  0  0  0  0  0  0  0  0
  195.5950  172.5270  138.5890 O   0  0  0  0  0  0  0  0  0  0  0  0
  189.7770  177.2560  140.1120 O   0  0  0  0  0  0  0  0  0  0  0  0
  189.7840  175.1930  143.0810 N   0  0  0  0  0  2  0  0  0  0  0  0
  189.7200  176.6070  143.1730 C   0  0  2  0  0  0  0  0  0  0  0  0
  189.2670  176.4430  141.1590 C   0  0  2  0  0  3  0  0  0  0  0  0
  188.3630  177.4710  142.3420 S   0  0  0  0  0  0  0  0  0  0  0  0
  190.3420  176.0100  142.0370 N   0  0  2  0  0  0  0  0  0  0  0  0
  190.7250  177.2840  143.9810 N   0  0  0  0  0  2  0  0  0  0  0  0
  190.5700  176.8400  145.3600 C   0  0  2  0  0  3  0  0  0  0  0  0
  190.1150  178.0050  146.2270 C   0  0  0  0  0  2  0  0  0  0  0  0
  188.6730  177.8550  146.5990 C   0  0  0  0  0  0  0  0  0  0  0  0
  187.7770  178.1630  145.7040 N   0  0  0  0  0  0  0  0  0  0  0  0
  185.6060  177.6530  144.9070 C   0  0  0  0  0  2  0  0  0  0  0  0
  186.3520  178.1900  145.8560 C   0  0  0  0  0  0  0  0  0  0  0  0
  185.7020  179.1590  146.7880 C   0  0  0  0  0  1  0  0  0  0  0  0
  188.0420  178.0650  149.0120 O   0  0  0  0  0  1  0  0  0  0  0  0
  188.3500  177.2600  147.9200 C   0  0  0  0  0  0  0  0  0  0  0  0
  188.2810  176.0090  148.0420 O   0  0  0  0  0  0  0  0  0  0  0  0
  191.7850  176.3420  145.8360 O   0  0  0  0  0  0  0  0  0  0  0  0
  192.6690  175.6240  147.9270 C   0  0  0  0  0  1  0  0  0  0  0  0
  191.7550  176.5960  147.2130 C   0  0  0  0  0  2  0  0  0  0  0  0
  1  8  1  0  0  0  0
  2  3  2  0  0  0  0
  3  6  1  0  0  0  0
  4  1  1  0  0  0  0
  6  5  1  0  0  0  0
  7  2  1  0  0  0  0
  7  4  2  0  0  0  0
  8  6  2  0  0  0  0
  8 38  1  0  0  0  0
  9 10  1  0  0  0  0
  9 16  1  0  0  0  0
 10 14  2  0  0  0  0
 11 17  2  0  0  0  0
 13 14  1  0  0  0  0
 13 12  1  0  0  0  0
 14  1  1  0  0  0  0
 15 10  1  0  0  0  0
 16 12  2  0  0  0  0
 16 11  1  0  0  0  0
 17 20  1  0  0  0  0
 20 23  2  0  0  0  0
 21 24  1  0  0  0  0
 22 21  2  0  0  0  0
 22 20  1  0  0  0  0
 23 18  1  0  0  0  0
 23 19  1  0  0  0  0
 24 18  2  0  0  0  0
 25 22  1  0  0  0  0
 26 25  1  0  0  0  0
 28 27  1  0  0  0  0
 28  2  1  0  0  0  0
 29 28  2  0  0  0  0
 30 36  1  0  0  0  0
 30 27  1  0  0  0  0
 32 33  1  0  0  0  0
 33 34  1  0  0  0  0
 35 33  1  0  0  0  0
 35 37  2  0  0  0  0
 36 31  1  6  0  0  0
 36 32  1  0  0  0  0
 36 35  1  0  0  0  0
 39 40  1  0  0  0  0
 40 44  1  1  0  0  0
 41 38  1  6  0  0  0
 41 43  1  0  0  0  0
 41 42  1  0  0  0  0
 42 40  1  0  0  0  0
 43 39  1  1  0  0  0
 43 40  1  0  0  0  0
 44 45  1  0  0  0  0
 45 55  1  0  0  0  0
 45 46  1  1  0  0  0
 46 47  1  0  0  0  0
 47 53  1  0  0  0  0
 48 50  1  0  0  0  0
 48 47  2  0  0  0  0
 49 50  2  0  0  0  0
 50 51  1  0  0  0  0
 53 54  2  0  0  0  0
 53 52  1  0  0  0  0
 55 57  1  0  0  0  0
 57 56  1  0  0  0  0
M  END
>  <MODEL>
4

>  <REMARK>
 VINA RESULT:      -8.2      3.058      7.768
  Name = 
  17 active torsions:
  status: ('A' for Active; 'I' for Inactive)
    1  A    between atoms: N_2  and  N_30
    2  A    between atoms: C_7  and  N_32
    3  A    between atoms: CA_8  and  C_27
    4  A    between atoms: CA_8  and  C_29
    5  A    between atoms: C_9  and  C_45
    6  A    between atoms: N_10  and  C_40
    7  A    between atoms: C_11  and  C_23
    8  A    between atoms: C_12  and  O_14
    9  A    between atoms: C_12  and  N_19
   10  A    between atoms: C_12  and  C_27
   11  A    between atoms: N_13  and  C_26
   12  A    between atoms: N_13  and  N_28
   13  A    between atoms: O_14  and  C_53
   14  A    between atoms: N_19  and  C_24
   15  A    between atoms: C_25  and  O_50
   16  A    between atoms: N_30  and  C_46
   17  A    between atoms: O_50  and  C_56
                            x       y       z     vdW  Elec       q    Type
                         _______ _______ _______ _____ _____    ______ ____

>  <TORSDO>
F 17

$$$$
=
 OpenBabel10222417323D

 57 62  0  0  1  0  0  0  0  0999 V2000
  190.0160  176.1250  137.6120 N   0  0  0  0  0  0  0  0  0  0  0  0
  191.9060  174.5080  135.9830 C   0  0  0  0  0  0  0  0  0  0  0  0
  190.9550  173.6350  136.3460 C   0  0  0  0  0  3  0  0  0  0  0  0
  190.8450  176.6800  136.5930 C   0  0  0  0  0  3  0  0  0  0  0  0
  188.4420  172.5730  136.4580 Cl  0  0  0  0  0  0  0  0  0  0  0  0
  189.5570  173.9040  136.7250 C   0  0  0  0  0  0  0  0  0  0  0  0
  191.6830  175.9600  135.8620 C   0  0  0  0  0  3  0  0  0  0  0  0
  189.1150  175.0350  137.2950 C   0  0  0  0  0  0  0  0  0  0  0  0
  190.5300  177.8220  140.9980 C   0  0  0  0  0  2  0  0  0  0  0  0
  190.8170  177.0740  139.7210 C   0  0  0  0  0  0  0  0  0  0  0  0
  188.7580  177.5400  142.7920 N   0  0  0  0  0  2  0  0  0  0  0  0
  188.1780  177.4850  140.5020 N   0  0  0  0  0  0  0  0  0  0  0  0
  188.4960  177.5560  139.0770 C   0  0  0  0  0  2  0  0  0  0  0  0
  189.8360  176.9110  138.8070 C   0  0  0  0  0  0  0  0  0  0  0  0
  192.2060  176.5790  139.4880 C   0  0  0  0  0  1  0  0  0  0  0  0
  189.0990  177.6240  141.4110 C   0  0  0  0  0  0  0  0  0  0  0  0
  187.4830  177.1210  143.1830 N   0  0  0  0  0  2  0  0  0  0  0  0
  184.6980  178.7810  145.0270 C   0  0  0  0  0  3  0  0  0  0  0  0
  184.7550  178.1200  142.3940 Cl  0  0  0  0  0  0  0  0  0  0  0  0
  186.7450  177.7000  144.2680 C   0  0  0  0  0  0  0  0  0  0  0  0
  186.5020  178.3920  146.5880 C   0  0  0  0  0  3  0  0  0  0  0  0
  187.2710  177.7990  145.5790 C   0  0  0  0  0  0  0  0  0  0  0  0
  185.4560  178.2090  144.0040 C   0  0  0  0  0  0  0  0  0  0  0  0
  185.2170  178.8730  146.3170 C   0  0  0  0  0  3  0  0  0  0  0  0
  188.6590  177.3900  145.9210 C   0  0  0  0  0  2  0  0  0  0  0  0
  188.7390  176.9880  147.3780 C   0  0  0  0  0  1  0  0  0  0  0  0
  194.3970  174.3640  136.2990 N   0  0  0  0  0  2  0  0  0  0  0  0
  193.2260  173.9840  135.5780 C   0  0  0  0  0  0  0  0  0  0  0  0
  193.3290  173.1970  134.5970 O   0  0  0  0  0  0  0  0  0  0  0  0
  195.6650  173.8870  135.9370 N   0  0  0  0  0  2  0  0  0  0  0  0
  195.6050  171.9720  137.5340 C   0  0  0  0  0  1  0  0  0  0  0  0
  197.6900  173.1270  136.9520 C   0  0  0  0  0  2  0  0  0  0  0  0
  197.9770  174.0520  138.0310 N   0  0  0  0  0  0  0  0  0  0  0  0
  199.1790  174.5800  138.6490 C   0  0  0  0  0  1  0  0  0  0  0  0
  196.5260  174.2230  138.2290 C   0  0  0  0  0  0  0  0  0  0  0  0
  196.2770  173.2670  137.1070 C   0  0  1  0  0  0  0  0  0  0  0  0
  195.8070  174.8860  139.0220 O   0  0  0  0  0  0  0  0  0  0  0  0
  187.7430  175.1160  137.5770 O   0  0  0  0  0  0  0  0  0  0  0  0
  184.7310  174.6180  135.6390 N   0  0  0  0  0  2  0  0  0  0  0  0
  184.6880  175.2470  136.9100 C   0  0  2  0  0  0  0  0  0  0  0  0
  186.7340  175.3740  136.6120 C   0  0  2  0  0  3  0  0  0  0  0  0
  185.6840  176.7340  137.1770 S   0  0  0  0  0  0  0  0  0  0  0  0
  185.7330  174.3190  136.6270 N   0  0  2  0  0  0  0  0  0  0  0  0
  183.7980  174.6880  137.9180 N   0  0  0  0  0  2  0  0  0  0  0  0
  182.4760  175.2700  137.7260 C   0  0  2  0  0  3  0  0  0  0  0  0
  181.8790  175.6470  139.0740 C   0  0  0  0  0  2  0  0  0  0  0  0
  181.7710  177.1330  139.2090 C   0  0  0  0  0  0  0  0  0  0  0  0
  182.4420  177.8710  138.3690 N   0  0  0  0  0  0  0  0  0  0  0  0
  183.5570  179.8490  139.0420 C   0  0  0  0  0  2  0  0  0  0  0  0
  182.5690  179.2990  138.3580 C   0  0  0  0  0  0  0  0  0  0  0  0
  181.4110  180.1660  137.9890 C   0  0  0  0  0  1  0  0  0  0  0  0
  179.4490  177.6020  140.0170 O   0  0  0  0  0  0  0  0  0  0  0  0
  180.8250  177.6780  140.2130 C   0  0  0  0  0  0  0  0  0  0  0  0
  181.2640  178.1550  141.2920 O   0  0  0  0  0  1  0  0  0  0  0  0
  181.6440  174.3540  137.0790 O   0  0  0  0  0  0  0  0  0  0  0  0
  179.7370  175.5850  136.3600 C   0  0  0  0  0  1  0  0  0  0  0  0
  181.1110  175.0640  135.9970 C   0  0  0  0  0  2  0  0  0  0  0  0
  1 14  1  0  0  0  0
  2  3  2  0  0  0  0
  3  6  1  0  0  0  0
  4  1  1  0  0  0  0
  5  6  1  0  0  0  0
  6  8  2  0  0  0  0
  7  2  1  0  0  0  0
  7  4  2  0  0  0  0
  8 38  1  0  0  0  0
  8  1  1  0  0  0  0
  9 16  1  0  0  0  0
 10  9  1  0  0  0  0
 11 17  1  0  0  0  0
 12 16  2  0  0  0  0
 13 12  1  0  0  0  0
 14 13  1  0  0  0  0
 14 10  2  0  0  0  0
 15 10  1  0  0  0  0
 16 11  1  0  0  0  0
 17 20  1  0  0  0  0
 18 24  1  0  0  0  0
 19 23  1  0  0  0  0
 20 22  2  0  0  0  0
 22 25  1  0  0  0  0
 22 21  1  0  0  0  0
 23 20  1  0  0  0  0
 23 18  2  0  0  0  0
 24 21  2  0  0  0  0
 25 26  1  0  0  0  0
 28  2  1  0  0  0  0
 28 27  1  0  0  0  0
 29 28  2  0  0  0  0
 30 27  1  0  0  0  0
 30 36  1  0  0  0  0
 32 36  1  0  0  0  0
 32 33  1  0  0  0  0
 33 35  1  0  0  0  0
 33 34  1  0  0  0  0
 35 37  2  0  0  0  0
 36 31  1  1  0  0  0
 36 35  1  0  0  0  0
 39 40  1  0  0  0  0
 40 42  1  0  0  0  0
 40 44  1  1  0  0  0
 41 43  1  0  0  0  0
 41 42  1  0  0  0  0
 41 38  1  1  0  0  0
 43 39  1  6  0  0  0
 43 40  1  0  0  0  0
 45 44  1  0  0  0  0
 45 46  1  1  0  0  0
 46 47  1  0  0  0  0
 47 53  1  0  0  0  0
 48 47  2  0  0  0  0
 50 48  1  0  0  0  0
 50 49  2  0  0  0  0
 51 50  1  0  0  0  0
 52 53  2  0  0  0  0
 53 54  1  0  0  0  0
 55 45  1  0  0  0  0
 57 56  1  0  0  0  0
 57 55  1  0  0  0  0
M  END
>  <MODEL>
5

>  <REMARK>
 VINA RESULT:      -8.2      1.756      2.282
  Name = 
  17 active torsions:
  status: ('A' for Active; 'I' for Inactive)
    1  A    between atoms: N_2  and  N_30
    2  A    between atoms: C_7  and  N_32
    3  A    between atoms: CA_8  and  C_27
    4  A    between atoms: CA_8  and  C_29
    5  A    between atoms: C_9  and  C_45
    6  A    between atoms: N_10  and  C_40
    7  A    between atoms: C_11  and  C_23
    8  A    between atoms: C_12  and  O_14
    9  A    between atoms: C_12  and  N_19
   10  A    between atoms: C_12  and  C_27
   11  A    between atoms: N_13  and  C_26
   12  A    between atoms: N_13  and  N_28
   13  A    between atoms: O_14  and  C_53
   14  A    between atoms: N_19  and  C_24
   15  A    between atoms: C_25  and  O_50
   16  A    between atoms: N_30  and  C_46
   17  A    between atoms: O_50  and  C_56
                            x       y       z     vdW  Elec       q    Type
                         _______ _______ _______ _____ _____    ______ ____

>  <TORSDO>
F 17

$$$$
=
 OpenBabel10222417323D

 57 62  0  0  1  0  0  0  0  0999 V2000
  190.6950  175.7220  137.2250 N   0  0  0  0  0  0  0  0  0  0  0  0
  192.3030  173.7330  135.7090 C   0  0  0  0  0  0  0  0  0  0  0  0
  191.2130  173.0520  136.0910 C   0  0  0  0  0  3  0  0  0  0  0  0
  191.6180  176.0800  136.2000 C   0  0  0  0  0  3  0  0  0  0  0  0
  188.5550  172.4360  136.1980 Cl  0  0  0  0  0  0  0  0  0  0  0  0
  189.8770  173.5710  136.4280 C   0  0  0  0  0  0  0  0  0  0  0  0
  192.3310  175.1940  135.5200 C   0  0  0  0  0  3  0  0  0  0  0  0
  189.6260  174.7860  136.9380 C   0  0  0  0  0  0  0  0  0  0  0  0
  191.5620  177.6620  140.4020 C   0  0  0  0  0  2  0  0  0  0  0  0
  191.7150  176.8370  139.1500 C   0  0  0  0  0  0  0  0  0  0  0  0
  190.0390  177.4520  142.4200 N   0  0  0  0  0  0  0  0  0  0  0  0
  189.1810  177.2230  140.2320 N   0  0  0  0  0  0  0  0  0  0  0  0
  189.3160  177.2050  138.7750 C   0  0  0  0  0  2  0  0  0  0  0  0
  190.6350  176.5820  138.3810 C   0  0  0  0  0  0  0  0  0  0  0  0
  193.0830  176.3690  138.7750 C   0  0  0  0  0  1  0  0  0  0  0  0
  190.2020  177.4520  141.0050 C   0  0  0  0  0  0  0  0  0  0  0  0
  188.8400  177.0230  142.9960 N   0  0  0  0  0  0  0  0  0  0  0  0
  189.0450  177.4190  146.7000 C   0  0  0  0  0  3  0  0  0  0  0  0
  191.0110  176.5690  145.0320 Cl  0  0  0  0  0  0  0  0  0  0  0  0
  188.4420  177.3250  144.3420 C   0  0  0  0  0  0  0  0  0  0  0  0
  186.8150  178.0390  146.0030 C   0  0  0  0  0  3  0  0  0  0  0  0
  187.1400  177.7790  144.6670 C   0  0  0  0  0  0  0  0  0  0  0  0
  189.3830  177.1380  145.3750 C   0  0  0  0  0  0  0  0  0  0  0  0
  187.7640  177.8680  147.0160 C   0  0  0  0  0  3  0  0  0  0  0  0
  186.0560  177.8990  143.6570 C   0  0  0  0  0  2  0  0  0  0  0  0
  184.8340  178.5400  144.2800 C   0  0  0  0  0  1  0  0  0  0  0  0
  194.8010  173.4520  135.7620 N   0  0  0  0  0  2  0  0  0  0  0  0
  193.5200  172.9740  135.3560 C   0  0  0  0  0  0  0  0  0  0  0  0
  193.4370  171.9020  134.6960 O   0  0  0  0  0  0  0  0  0  0  0  0
  195.9760  172.7560  135.4390 N   0  0  0  0  0  2  0  0  0  0  0  0
  197.9810  171.7110  136.4920 C   0  0  0  0  0  1  0  0  0  0  0  0
  197.1840  173.9450  137.1210 C   0  0  0  0  0  2  0  0  0  0  0  0
  196.4280  173.7950  138.3490 N   0  0  0  0  0  0  0  0  0  0  0  0
  196.1890  174.6130  139.5240 C   0  0  0  0  0  1  0  0  0  0  0  0
  196.0090  172.4570  137.8910 C   0  0  0  0  0  0  0  0  0  0  0  0
  196.8000  172.6570  136.6370 C   0  0  1  0  0  0  0  0  0  0  0  0
  195.2980  171.5340  138.3680 O   0  0  0  0  0  0  0  0  0  0  0  0
  188.2840  175.1110  137.1880 O   0  0  0  0  0  0  0  0  0  0  0  0
  185.0960  175.0840  135.4820 N   0  0  0  0  0  2  0  0  0  0  0  0
  185.3770  176.0390  136.4910 C   0  0  2  0  0  0  0  0  0  0  0  0
  187.3190  175.3880  136.1830 C   0  0  2  0  0  3  0  0  0  0  0  0
  186.8140  177.1220  136.2860 S   0  0  0  0  0  0  0  0  0  0  0  0
  186.0420  174.7790  136.5210 N   0  0  2  0  0  0  0  0  0  0  0  0
  184.4580  176.1340  137.6160 N   0  0  0  0  0  2  0  0  0  0  0  0
  183.4640  177.1520  137.3040 C   0  0  2  0  0  3  0  0  0  0  0  0
  182.3950  177.1770  138.3870 C   0  0  0  0  0  2  0  0  0  0  0  0
  182.2380  178.5570  138.9440 C   0  0  0  0  0  0  0  0  0  0  0  0
  181.1620  179.2220  138.6310 N   0  0  0  0  0  0  0  0  0  0  0  0
  181.5180  181.5500  138.3850 C   0  0  0  0  0  2  0  0  0  0  0  0
  180.8360  180.5770  138.9640 C   0  0  0  0  0  0  0  0  0  0  0  0
  180.0960  180.8990  140.2200 C   0  0  0  0  0  1  0  0  0  0  0  0
  184.3280  179.8250  139.4820 O   0  0  0  0  0  0  0  0  0  0  0  0
  183.2580  179.0430  139.9060 C   0  0  0  0  0  0  0  0  0  0  0  0
  183.1210  178.8080  141.1360 O   0  0  0  0  0  1  0  0  0  0  0  0
  182.8770  176.8780  136.0670 O   0  0  0  0  0  0  0  0  0  0  0  0
  181.4380  175.0520  135.5560 C   0  0  0  0  0  1  0  0  0  0  0  0
  181.6400  176.3040  136.3820 C   0  0  0  0  0  2  0  0  0  0  0  0
  1 14  1  0  0  0  0
  2  3  2  0  0  0  0
  3  6  1  0  0  0  0
  4  1  1  0  0  0  0
  5  6  1  0  0  0  0
  6  8  2  0  0  0  0
  7  2  1  0  0  0  0
  7  4  2  0  0  0  0
  8 38  1  0  0  0  0
  8  1  1  0  0  0  0
  9 16  1  0  0  0  0
 10  9  1  0  0  0  0
 11 17  2  0  0  0  0
 12 16  2  0  0  0  0
 13 12  1  0  0  0  0
 14 13  1  0  0  0  0
 14 10  2  0  0  0  0
 15 10  1  0  0  0  0
 16 11  1  0  0  0  0
 17 20  1  0  0  0  0
 18 24  1  0  0  0  0
 19 23  1  0  0  0  0
 20 22  2  0  0  0  0
 20 23  1  0  0  0  0
 21 24  2  0  0  0  0
 22 21  1  0  0  0  0
 23 18  2  0  0  0  0
 25 26  1  0  0  0  0
 25 22  1  0  0  0  0
 28  2  1  0  0  0  0
 28 27  1  0  0  0  0
 29 28  2  0  0  0  0
 30 27  1  0  0  0  0
 30 36  1  0  0  0  0
 32 33  1  0  0  0  0
 33 34  1  0  0  0  0
 35 33  1  0  0  0  0
 35 37  2  0  0  0  0
 36 31  1  6  0  0  0
 36 32  1  0  0  0  0
 36 35  1  0  0  0  0
 39 40  1  0  0  0  0
 40 43  1  0  0  0  0
 40 44  1  1  0  0  0
 41 42  1  0  0  0  0
 41 43  1  0  0  0  0
 41 38  1  1  0  0  0
 42 40  1  0  0  0  0
 43 39  1  6  0  0  0
 45 44  1  0  0  0  0
 45 46  1  1  0  0  0
 46 47  1  0  0  0  0
 47 53  1  0  0  0  0
 48 47  2  0  0  0  0
 48 50  1  0  0  0  0
 49 50  2  0  0  0  0
 50 51  1  0  0  0  0
 52 53  2  0  0  0  0
 53 54  1  0  0  0  0
 55 57  1  0  0  0  0
 55 45  1  0  0  0  0
 56 57  1  0  0  0  0
M  END
>  <MODEL>
6

>  <REMARK>
 VINA RESULT:      -7.7      1.533      2.446
  Name = 
  17 active torsions:
  status: ('A' for Active; 'I' for Inactive)
    1  A    between atoms: N_2  and  N_30
    2  A    between atoms: C_7  and  N_32
    3  A    between atoms: CA_8  and  C_27
    4  A    between atoms: CA_8  and  C_29
    5  A    between atoms: C_9  and  C_45
    6  A    between atoms: N_10  and  C_40
    7  A    between atoms: C_11  and  C_23
    8  A    between atoms: C_12  and  O_14
    9  A    between atoms: C_12  and  N_19
   10  A    between atoms: C_12  and  C_27
   11  A    between atoms: N_13  and  C_26
   12  A    between atoms: N_13  and  N_28
   13  A    between atoms: O_14  and  C_53
   14  A    between atoms: N_19  and  C_24
   15  A    between atoms: C_25  and  O_50
   16  A    between atoms: N_30  and  C_46
   17  A    between atoms: O_50  and  C_56
                            x       y       z     vdW  Elec       q    Type
                         _______ _______ _______ _____ _____    ______ ____

>  <TORSDO>
F 17

$$$$
=
 OpenBabel10222417323D

 57 62  0  0  1  0  0  0  0  0999 V2000
  188.4380  177.0980  136.7630 N   0  0  0  0  0  0  0  0  0  0  0  0
  185.5070  177.5970  136.7940 C   0  0  0  0  0  0  0  0  0  0  0  0
  185.8580  177.6210  138.0880 C   0  0  0  0  0  3  0  0  0  0  0  0
  187.7330  177.6890  135.6740 C   0  0  0  0  0  3  0  0  0  0  0  0
  187.1350  178.5430  140.3190 Cl  0  0  0  0  0  0  0  0  0  0  0  0
  187.1750  177.9180  138.6770 C   0  0  0  0  0  0  0  0  0  0  0  0
  186.4280  177.9170  135.6890 C   0  0  0  0  0  3  0  0  0  0  0  0
  188.3560  177.6920  138.0830 C   0  0  0  0  0  0  0  0  0  0  0  0
  190.5800  173.9500  136.4240 C   0  0  0  0  0  2  0  0  0  0  0  0
  189.4020  174.8490  136.7010 C   0  0  0  0  0  0  0  0  0  0  0  0
  193.0130  174.0410  137.1370 N   0  0  0  0  0  2  0  0  0  0  0  0
  191.9200  175.9720  136.3260 N   0  0  0  0  0  0  0  0  0  0  0  0
  190.7590  176.6830  135.7920 C   0  0  0  0  0  2  0  0  0  0  0  0
  189.4910  176.1700  136.4330 C   0  0  0  0  0  0  0  0  0  0  0  0
  188.1460  174.2290  137.2200 C   0  0  0  0  0  1  0  0  0  0  0  0
  191.8680  174.7030  136.6080 C   0  0  0  0  0  0  0  0  0  0  0  0
  194.1340  174.7750  137.5360 N   0  0  0  0  0  2  0  0  0  0  0  0
  197.2090  175.3450  135.5020 C   0  0  0  0  0  3  0  0  0  0  0  0
  194.9530  176.8560  135.5220 Cl  0  0  0  0  0  0  0  0  0  0  0  0
  195.4530  174.5770  137.0060 C   0  0  0  0  0  0  0  0  0  0  0  0
  197.5460  173.3500  136.8240 C   0  0  0  0  0  3  0  0  0  0  0  0
  196.2750  173.4900  137.3940 C   0  0  0  0  0  0  0  0  0  0  0  0
  195.9320  175.4930  136.0460 C   0  0  0  0  0  0  0  0  0  0  0  0
  198.0160  174.2770  135.8880 C   0  0  0  0  0  3  0  0  0  0  0  0
  195.8090  172.4200  138.3150 C   0  0  0  0  0  2  0  0  0  0  0  0
  195.4710  171.1710  137.5300 C   0  0  0  0  0  1  0  0  0  0  0  0
  183.0910  177.4030  137.4640 N   0  0  0  0  0  2  0  0  0  0  0  0
  184.0940  177.3360  136.4520 C   0  0  0  0  0  0  0  0  0  0  0  0
  183.7640  177.0550  135.2670 O   0  0  0  0  0  0  0  0  0  0  0  0
  181.7410  177.1570  137.1710 N   0  0  0  0  0  2  0  0  0  0  0  0
  181.6270  176.3410  139.5250 C   0  0  0  0  0  1  0  0  0  0  0  0
  179.8600  175.8710  137.8880 C   0  0  0  0  0  2  0  0  0  0  0  0
  180.0790  174.5230  137.4020 N   0  0  0  0  0  0  0  0  0  0  0  0
  179.2320  173.4380  136.9440 C   0  0  0  0  0  1  0  0  0  0  0  0
  181.5290  174.7290  137.5770 C   0  0  0  0  0  0  0  0  0  0  0  0
  181.2560  176.1150  138.0680 C   0  0  1  0  0  0  0  0  0  0  0  0
  182.5570  174.0250  137.3990 O   0  0  0  0  0  0  0  0  0  0  0  0
  189.5110  178.0490  138.7950 O   0  0  0  0  0  0  0  0  0  0  0  0
  192.5230  176.8610  140.4050 N   0  0  0  0  0  2  0  0  0  0  0  0
  191.3850  177.2310  141.1650 C   0  0  2  0  0  0  0  0  0  0  0  0
  190.4560  177.1260  139.3170 C   0  0  2  0  0  3  0  0  0  0  0  0
  189.8130  176.3920  140.8400 S   0  0  0  0  0  0  0  0  0  0  0  0
  191.5930  177.8290  139.8880 N   0  0  2  0  0  0  0  0  0  0  0  0
  191.5570  178.2320  142.2080 N   0  0  0  0  0  2  0  0  0  0  0  0
  190.8920  177.7500  143.4120 C   0  0  2  0  0  3  0  0  0  0  0  0
  189.7700  178.7030  143.7970 C   0  0  0  0  0  2  0  0  0  0  0  0
  188.7100  177.9870  144.5730 C   0  0  0  0  0  0  0  0  0  0  0  0
  188.6050  178.2480  145.8460 N   0  0  0  0  0  0  0  0  0  0  0  0
  186.5010  178.0780  146.9200 C   0  0  0  0  0  2  0  0  0  0  0  0
  187.7380  177.6280  146.8040 C   0  0  0  0  0  0  0  0  0  0  0  0
  188.2980  176.8300  147.9360 C   0  0  0  0  0  1  0  0  0  0  0  0
  188.0870  175.7790  143.5710 O   0  0  0  0  0  1  0  0  0  0  0  0
  187.7710  177.1100  143.8300 C   0  0  0  0  0  0  0  0  0  0  0  0
  186.6420  177.5490  143.4890 O   0  0  0  0  0  0  0  0  0  0  0  0
  191.8130  177.6560  144.4570 O   0  0  0  0  0  0  0  0  0  0  0  0
  191.6770  176.3320  146.4310 C   0  0  0  0  0  1  0  0  0  0  0  0
  191.6920  176.3400  144.9180 C   0  0  0  0  0  2  0  0  0  0  0  0
  1  8  1  0  0  0  0
  2  3  2  0  0  0  0
  3  6  1  0  0  0  0
  4  7  2  0  0  0  0
  4  1  1  0  0  0  0
  6  5  1  0  0  0  0
  7  2  1  0  0  0  0
  8  6  2  0  0  0  0
  8 38  1  0  0  0  0
  9 16  1  0  0  0  0
  9 10  1  0  0  0  0
 10 15  1  0  0  0  0
 11 17  1  0  0  0  0
 12 16  2  0  0  0  0
 13 12  1  0  0  0  0
 13 14  1  0  0  0  0
 14 10  2  0  0  0  0
 14  1  1  0  0  0  0
 16 11  1  0  0  0  0
 18 24  2  0  0  0  0
 18 23  1  0  0  0  0
 19 23  1  0  0  0  0
 20 22  1  0  0  0  0
 20 17  1  0  0  0  0
 21 22  2  0  0  0  0
 22 25  1  0  0  0  0
 23 20  2  0  0  0  0
 24 21  1  0  0  0  0
 26 25  1  0  0  0  0
 28  2  1  0  0  0  0
 28 27  1  0  0  0  0
 29 28  2  0  0  0  0
 30 27  1  0  0  0  0
 30 36  1  0  0  0  0
 32 36  1  0  0  0  0
 33 35  1  0  0  0  0
 33 32  1  0  0  0  0
 34 33  1  0  0  0  0
 35 36  1  0  0  0  0
 36 31  1  1  0  0  0
 37 35  2  0  0  0  0
 39 40  1  0  0  0  0
 40 44  1  1  0  0  0
 41 38  1  1  0  0  0
 41 43  1  0  0  0  0
 41 42  1  0  0  0  0
 42 40  1  0  0  0  0
 43 39  1  6  0  0  0
 43 40  1  0  0  0  0
 44 45  1  0  0  0  0
 45 46  1  1  0  0  0
 45 55  1  0  0  0  0
 46 47  1  0  0  0  0
 47 48  2  0  0  0  0
 48 50  1  0  0  0  0
 50 49  2  0  0  0  0
 50 51  1  0  0  0  0
 52 53  1  0  0  0  0
 53 47  1  0  0  0  0
 54 53  2  0  0  0  0
 55 57  1  0  0  0  0
 57 56  1  0  0  0  0
M  END
>  <MODEL>
7

>  <REMARK>
 VINA RESULT:      -7.2      2.903     10.238
  Name = 
  17 active torsions:
  status: ('A' for Active; 'I' for Inactive)
    1  A    between atoms: N_2  and  N_30
    2  A    between atoms: C_7  and  N_32
    3  A    between atoms: CA_8  and  C_27
    4  A    between atoms: CA_8  and  C_29
    5  A    between atoms: C_9  and  C_45
    6  A    between atoms: N_10  and  C_40
    7  A    between atoms: C_11  and  C_23
    8  A    between atoms: C_12  and  O_14
    9  A    between atoms: C_12  and  N_19
   10  A    between atoms: C_12  and  C_27
   11  A    between atoms: N_13  and  C_26
   12  A    between atoms: N_13  and  N_28
   13  A    between atoms: O_14  and  C_53
   14  A    between atoms: N_19  and  C_24
   15  A    between atoms: C_25  and  O_50
   16  A    between atoms: N_30  and  C_46
   17  A    between atoms: O_50  and  C_56
                            x       y       z     vdW  Elec       q    Type
                         _______ _______ _______ _____ _____    ______ ____

>  <TORSDO>
F 17

$$$$
=
 OpenBabel10222417323D

 57 62  0  0  1  0  0  0  0  0999 V2000
  189.9800  175.7090  137.6660 N   0  0  0  0  0  0  0  0  0  0  0  0
  192.9310  175.4440  137.4190 C   0  0  0  0  0  0  0  0  0  0  0  0
  192.7630  176.4900  138.2400 C   0  0  0  0  0  3  0  0  0  0  0  0
  190.6330  174.4770  137.3690 C   0  0  0  0  0  3  0  0  0  0  0  0
  191.9810  177.7900  140.5110 Cl  0  0  0  0  0  0  0  0  0  0  0  0
  191.6120  176.8040  139.1050 C   0  0  0  0  0  0  0  0  0  0  0  0
  191.9480  174.3570  137.2650 C   0  0  0  0  0  3  0  0  0  0  0  0
  190.3420  176.4490  138.8590 C   0  0  0  0  0  0  0  0  0  0  0  0
  187.1990  177.3440  135.6160 C   0  0  0  0  0  2  0  0  0  0  0  0
  188.5520  177.0770  136.2240 C   0  0  0  0  0  0  0  0  0  0  0  0
  184.8700  177.4990  136.6130 N   0  0  0  0  0  2  0  0  0  0  0  0
  186.3230  175.7330  137.2070 N   0  0  0  0  0  0  0  0  0  0  0  0
  187.5890  175.0050  137.1260 C   0  0  0  0  0  2  0  0  0  0  0  0
  188.7400  175.9740  136.9790 C   0  0  0  0  0  0  0  0  0  0  0  0
  189.6630  178.0280  135.9200 C   0  0  0  0  0  1  0  0  0  0  0  0
  186.1110  176.8070  136.5040 C   0  0  0  0  0  0  0  0  0  0  0  0
  183.9490  177.1500  137.6050 N   0  0  0  0  0  2  0  0  0  0  0  0
  180.7630  179.0160  138.1340 C   0  0  0  0  0  3  0  0  0  0  0  0
  183.2460  179.7470  138.9550 Cl  0  0  0  0  0  0  0  0  0  0  0  0
  182.5520  177.4680  137.5510 C   0  0  0  0  0  0  0  0  0  0  0  0
  180.2500  176.9860  136.9260 C   0  0  0  0  0  3  0  0  0  0  0  0
  181.6020  176.6210  136.9290 C   0  0  0  0  0  0  0  0  0  0  0  0
  182.1130  178.6610  138.1620 C   0  0  0  0  0  0  0  0  0  0  0  0
  179.8320  178.1820  137.5190 C   0  0  0  0  0  3  0  0  0  0  0  0
  181.9590  175.2960  136.3580 C   0  0  0  0  0  2  0  0  0  0  0  0
  182.2830  175.4350  134.8860 C   0  0  0  0  0  1  0  0  0  0  0  0
  194.8220  174.0290  136.5540 N   0  0  0  0  0  2  0  0  0  0  0  0
  194.2150  175.3120  136.7000 C   0  0  0  0  0  0  0  0  0  0  0  0
  194.7820  176.3270  136.2110 O   0  0  0  0  0  0  0  0  0  0  0  0
  196.0430  173.8710  135.8810 N   0  0  0  0  0  2  0  0  0  0  0  0
  197.8570  174.3510  137.5240 C   0  0  0  0  0  1  0  0  0  0  0  0
  196.4040  172.3830  137.7130 C   0  0  0  0  0  2  0  0  0  0  0  0
  197.1460  171.2560  137.1820 N   0  0  0  0  0  0  0  0  0  0  0  0
  197.2120  169.8340  137.4660 C   0  0  0  0  0  1  0  0  0  0  0  0
  197.8040  172.1750  136.2350 C   0  0  0  0  0  0  0  0  0  0  0  0
  197.0130  173.3070  136.8100 C   0  0  1  0  0  0  0  0  0  0  0  0
  198.6750  172.0530  135.3340 O   0  0  0  0  0  0  0  0  0  0  0  0
  189.3760  176.8290  139.8030 O   0  0  0  0  0  0  0  0  0  0  0  0
  186.3700  178.8380  139.7610 N   0  0  0  0  0  2  0  0  0  0  0  0
  187.0190  178.5180  140.9800 C   0  0  2  0  0  0  0  0  0  0  0  0
  188.5610  177.9880  139.7030 C   0  0  2  0  0  3  0  0  0  0  0  0
  188.7520  178.9970  141.1920 S   0  0  0  0  0  0  0  0  0  0  0  0
  187.1580  177.6400  139.8670 N   0  0  2  0  0  0  0  0  0  0  0  0
  186.2350  177.8690  142.0210 N   0  0  0  0  0  2  0  0  0  0  0  0
  186.3860  178.6390  143.2480 C   0  0  2  0  0  3  0  0  0  0  0  0
  186.6130  177.6970  144.4220 C   0  0  0  0  0  2  0  0  0  0  0  0
  188.0640  177.3600  144.5570 C   0  0  0  0  0  0  0  0  0  0  0  0
  188.7180  177.8740  145.5610 N   0  0  0  0  0  0  0  0  0  0  0  0
  190.9710  178.3910  145.0440 C   0  0  0  0  0  2  0  0  0  0  0  0
  190.1200  177.7730  145.8440 C   0  0  0  0  0  0  0  0  0  0  0  0
  190.6470  176.6720  146.7040 C   0  0  0  0  0  1  0  0  0  0  0  0
  187.9290  175.2500  143.2180 O   0  0  0  0  0  1  0  0  0  0  0  0
  188.6450  176.3760  143.6110 C   0  0  0  0  0  0  0  0  0  0  0  0
  189.7740  176.5930  143.0980 O   0  0  0  0  0  0  0  0  0  0  0  0
  185.2400  179.4050  143.4710 O   0  0  0  0  0  0  0  0  0  0  0  0
  183.0730  178.9910  144.3660 C   0  0  0  0  0  1  0  0  0  0  0  0
  184.1920  178.4770  143.4850 C   0  0  0  0  0  2  0  0  0  0  0  0
  1  8  1  0  0  0  0
  2  3  2  0  0  0  0
  3  6  1  0  0  0  0
  4  1  1  0  0  0  0
  6  5  1  0  0  0  0
  7  4  2  0  0  0  0
  7  2  1  0  0  0  0
  8  6  2  0  0  0  0
  8 38  1  0  0  0  0
  9 10  1  0  0  0  0
  9 16  1  0  0  0  0
 10 14  2  0  0  0  0
 11 17  1  0  0  0  0
 13 12  1  0  0  0  0
 14 13  1  0  0  0  0
 14  1  1  0  0  0  0
 15 10  1  0  0  0  0
 16 11  1  0  0  0  0
 16 12  2  0  0  0  0
 18 23  1  0  0  0  0
 20 17  1  0  0  0  0
 20 23  2  0  0  0  0
 21 22  2  0  0  0  0
 21 24  1  0  0  0  0
 22 20  1  0  0  0  0
 23 19  1  0  0  0  0
 24 18  2  0  0  0  0
 25 22  1  0  0  0  0
 26 25  1  0  0  0  0
 27 28  1  0  0  0  0
 28  2  1  0  0  0  0
 29 28  2  0  0  0  0
 30 27  1  0  0  0  0
 30 36  1  0  0  0  0
 33 34  1  0  0  0  0
 33 32  1  0  0  0  0
 35 36  1  0  0  0  0
 35 33  1  0  0  0  0
 36 31  1  1  0  0  0
 36 32  1  0  0  0  0
 37 35  2  0  0  0  0
 39 40  1  0  0  0  0
 40 42  1  0  0  0  0
 40 44  1  1  0  0  0
 41 38  1  1  0  0  0
 41 43  1  0  0  0  0
 41 42  1  0  0  0  0
 43 39  1  6  0  0  0
 43 40  1  0  0  0  0
 44 45  1  0  0  0  0
 45 55  1  0  0  0  0
 45 46  1  1  0  0  0
 46 47  1  0  0  0  0
 47 48  2  0  0  0  0
 48 50  1  0  0  0  0
 49 50  2  0  0  0  0
 50 51  1  0  0  0  0
 52 53  1  0  0  0  0
 53 47  1  0  0  0  0
 54 53  2  0  0  0  0
 55 57  1  0  0  0  0
 57 56  1  0  0  0  0
M  END
>  <MODEL>
8

>  <REMARK>
 VINA RESULT:      -7.0      2.659      7.100
  Name = 
  17 active torsions:
  status: ('A' for Active; 'I' for Inactive)
    1  A    between atoms: N_2  and  N_30
    2  A    between atoms: C_7  and  N_32
    3  A    between atoms: CA_8  and  C_27
    4  A    between atoms: CA_8  and  C_29
    5  A    between atoms: C_9  and  C_45
    6  A    between atoms: N_10  and  C_40
    7  A    between atoms: C_11  and  C_23
    8  A    between atoms: C_12  and  O_14
    9  A    between atoms: C_12  and  N_19
   10  A    between atoms: C_12  and  C_27
   11  A    between atoms: N_13  and  C_26
   12  A    between atoms: N_13  and  N_28
   13  A    between atoms: O_14  and  C_53
   14  A    between atoms: N_19  and  C_24
   15  A    between atoms: C_25  and  O_50
   16  A    between atoms: N_30  and  C_46
   17  A    between atoms: O_50  and  C_56
                            x       y       z     vdW  Elec       q    Type
                         _______ _______ _______ _____ _____    ______ ____

>  <TORSDO>
F 17

$$$$
=
 OpenBabel10222417323D

 57 62  0  0  1  0  0  0  0  0999 V2000
  189.8620  175.6760  137.7290 N   0  0  0  0  0  0  0  0  0  0  0  0
  192.8210  175.5970  137.4530 C   0  0  0  0  0  0  0  0  0  0  0  0
  192.6040  176.5310  138.3900 C   0  0  0  0  0  3  0  0  0  0  0  0
  190.5770  174.5220  137.2920 C   0  0  0  0  0  3  0  0  0  0  0  0
  191.7690  177.5170  140.7960 Cl  0  0  0  0  0  0  0  0  0  0  0  0
  191.4430  176.6820  139.2840 C   0  0  0  0  0  0  0  0  0  0  0  0
  191.8960  174.4840  137.1740 C   0  0  0  0  0  3  0  0  0  0  0  0
  190.1920  176.2910  138.9990 C   0  0  0  0  0  0  0  0  0  0  0  0
  186.8190  177.4330  136.2230 C   0  0  0  0  0  2  0  0  0  0  0  0
  188.1880  177.2100  136.8150 C   0  0  0  0  0  0  0  0  0  0  0  0
  184.5000  176.6940  136.9390 N   0  0  0  0  0  2  0  0  0  0  0  0
  186.3020  175.1670  136.9240 N   0  0  0  0  0  0  0  0  0  0  0  0
  187.7000  174.8050  136.6940 C   0  0  0  0  0  2  0  0  0  0  0  0
  188.6060  175.9520  137.0770 C   0  0  0  0  0  0  0  0  0  0  0  0
  189.0620  178.3990  137.0430 C   0  0  0  0  0  1  0  0  0  0  0  0
  185.8660  176.3710  136.6950 C   0  0  0  0  0  0  0  0  0  0  0  0
  183.6640  175.7890  137.6000 N   0  0  0  0  0  2  0  0  0  0  0  0
  180.2640  175.0330  136.2640 C   0  0  0  0  0  3  0  0  0  0  0  0
  182.6420  174.1840  135.2660 Cl  0  0  0  0  0  0  0  0  0  0  0  0
  182.2340  175.7850  137.4840 C   0  0  0  0  0  0  0  0  0  0  0  0
  180.0080  176.4530  138.2030 C   0  0  0  0  0  3  0  0  0  0  0  0
  181.3960  176.4880  138.3840 C   0  0  0  0  0  0  0  0  0  0  0  0
  181.6510  175.0690  136.4180 C   0  0  0  0  0  0  0  0  0  0  0  0
  179.4420  175.7230  137.1530 C   0  0  0  0  0  3  0  0  0  0  0  0
  181.9280  177.3550  139.4680 C   0  0  0  0  0  2  0  0  0  0  0  0
  180.8420  177.6480  140.4800 C   0  0  0  0  0  1  0  0  0  0  0  0
  194.7570  174.3900  136.3930 N   0  0  0  0  0  2  0  0  0  0  0  0
  194.1070  175.6160  136.7250 C   0  0  0  0  0  0  0  0  0  0  0  0
  194.6360  176.7110  136.3900 O   0  0  0  0  0  0  0  0  0  0  0  0
  195.9800  174.3750  135.7060 N   0  0  0  0  0  2  0  0  0  0  0  0
  197.7870  172.6690  135.9220 C   0  0  0  0  0  1  0  0  0  0  0  0
  197.8290  174.7880  137.1590 C   0  0  0  0  0  2  0  0  0  0  0  0
  197.3640  174.5050  138.5020 N   0  0  0  0  0  0  0  0  0  0  0  0
  197.6450  175.0270  139.8270 C   0  0  0  0  0  1  0  0  0  0  0  0
  196.4870  173.4590  137.9440 C   0  0  0  0  0  0  0  0  0  0  0  0
  196.9920  173.7890  136.5760 C   0  0  1  0  0  0  0  0  0  0  0  0
  195.6690  172.6310  138.4250 O   0  0  0  0  0  0  0  0  0  0  0  0
  189.2130  176.5090  139.9810 O   0  0  0  0  0  0  0  0  0  0  0  0
  188.6160  179.1230  142.4060 N   0  0  0  0  0  2  0  0  0  0  0  0
  187.9280  177.8860  142.4800 C   0  0  2  0  0  0  0  0  0  0  0  0
  189.3990  177.3000  141.1460 C   0  0  2  0  0  3  0  0  0  0  0  0
  188.8950  176.3600  142.6060 S   0  0  0  0  0  0  0  0  0  0  0  0
  188.3940  178.3480  141.2150 N   0  0  2  0  0  0  0  0  0  0  0  0
  186.4720  177.9150  142.5060 N   0  0  0  0  0  2  0  0  0  0  0  0
  186.0480  178.1020  143.8870 C   0  0  2  0  0  3  0  0  0  0  0  0
  186.7650  177.1050  144.7850 C   0  0  0  0  0  2  0  0  0  0  0  0
  186.9530  177.6690  146.1580 C   0  0  0  0  0  0  0  0  0  0  0  0
  188.0610  177.3900  146.7850 N   0  0  0  0  0  0  0  0  0  0  0  0
  187.5290  177.5650  149.0860 C   0  0  0  0  0  2  0  0  0  0  0  0
  188.4240  177.7350  148.1280 C   0  0  0  0  0  0  0  0  0  0  0  0
  189.5660  178.6590  148.3990 C   0  0  0  0  0  1  0  0  0  0  0  0
  184.7000  178.1260  147.1490 O   0  0  0  0  0  1  0  0  0  0  0  0
  185.9210  178.5990  146.6790 C   0  0  0  0  0  0  0  0  0  0  0  0
  186.1760  179.8300  146.7660 O   0  0  0  0  0  0  0  0  0  0  0  0
  184.6670  177.9210  143.9870 O   0  0  0  0  0  0  0  0  0  0  0  0
  182.7620  179.2140  143.3810 C   0  0  0  0  0  1  0  0  0  0  0  0
  184.1310  178.7170  142.9680 C   0  0  0  0  0  2  0  0  0  0  0  0
  1  8  1  0  0  0  0
  2  3  2  0  0  0  0
  3  6  1  0  0  0  0
  4  1  1  0  0  0  0
  6  5  1  0  0  0  0
  7  4  2  0  0  0  0
  7  2  1  0  0  0  0
  8  6  2  0  0  0  0
  8 38  1  0  0  0  0
  9 16  1  0  0  0  0
  9 10  1  0  0  0  0
 10 15  1  0  0  0  0
 10 14  2  0  0  0  0
 11 17  1  0  0  0  0
 13 12  1  0  0  0  0
 13 14  1  0  0  0  0
 14  1  1  0  0  0  0
 16 12  2  0  0  0  0
 16 11  1  0  0  0  0
 18 23  2  0  0  0  0
 18 24  1  0  0  0  0
 19 23  1  0  0  0  0
 20 17  1  0  0  0  0
 20 22  2  0  0  0  0
 21 22  1  0  0  0  0
 22 25  1  0  0  0  0
 23 20  1  0  0  0  0
 24 21  2  0  0  0  0
 25 26  1  0  0  0  0
 27 28  1  0  0  0  0
 28  2  1  0  0  0  0
 29 28  2  0  0  0  0
 30 27  1  0  0  0  0
 30 36  1  0  0  0  0
 32 33  1  0  0  0  0
 33 34  1  0  0  0  0
 35 37  2  0  0  0  0
 35 33  1  0  0  0  0
 36 31  1  6  0  0  0
 36 32  1  0  0  0  0
 36 35  1  0  0  0  0
 39 40  1  0  0  0  0
 40 44  1  1  0  0  0
 40 42  1  0  0  0  0
 41 38  1  6  0  0  0
 41 43  1  0  0  0  0
 41 42  1  0  0  0  0
 43 39  1  1  0  0  0
 43 40  1  0  0  0  0
 44 45  1  0  0  0  0
 45 55  1  0  0  0  0
 45 46  1  1  0  0  0
 46 47  1  0  0  0  0
 47 53  1  0  0  0  0
 47 48  2  0  0  0  0
 48 50  1  0  0  0  0
 50 51  1  0  0  0  0
 50 49  2  0  0  0  0
 53 54  2  0  0  0  0
 53 52  1  0  0  0  0
 57 56  1  0  0  0  0
 57 55  1  0  0  0  0
M  END
>  <MODEL>
9

>  <REMARK>
 VINA RESULT:      -6.8      2.788      7.241
  Name = 
  17 active torsions:
  status: ('A' for Active; 'I' for Inactive)
    1  A    between atoms: N_2  and  N_30
    2  A    between atoms: C_7  and  N_32
    3  A    between atoms: CA_8  and  C_27
    4  A    between atoms: CA_8  and  C_29
    5  A    between atoms: C_9  and  C_45
    6  A    between atoms: N_10  and  C_40
    7  A    between atoms: C_11  and  C_23
    8  A    between atoms: C_12  and  O_14
    9  A    between atoms: C_12  and  N_19
   10  A    between atoms: C_12  and  C_27
   11  A    between atoms: N_13  and  C_26
   12  A    between atoms: N_13  and  N_28
   13  A    between atoms: O_14  and  C_53
   14  A    between atoms: N_19  and  C_24
   15  A    between atoms: C_25  and  O_50
   16  A    between atoms: N_30  and  C_46
   17  A    between atoms: O_50  and  C_56
                            x       y       z     vdW  Elec       q    Type
                         _______ _______ _______ _____ _____    ______ ____

>  <TORSDO>
F 17

$$$$
