=
 OpenBabel10222417513D

 53 60  0  0  1  0  0  0  0  0999 V2000
  189.4150  177.7700  141.0330 C   0  0  1  0  0  3  0  0  0  0  0  0
  190.1930  176.5700  141.3390 N   0  0  0  0  0  2  0  0  0  0  0  0
  189.2040  177.8930  139.5110 C   0  0  1  0  0  3  0  0  0  0  0  0
  191.5860  176.8090  140.9410 C   0  0  0  0  0  2  0  0  0  0  0  0
  190.4150  177.3400  138.7340 C   0  0  0  0  0  2  0  0  0  0  0  0
  191.7100  177.4480  139.5340 C   0  0  2  0  0  3  0  0  0  0  0  0
  188.1090  177.4200  143.1070 C   0  0  2  0  0  3  0  0  0  0  0  0
  188.7570  177.5950  145.3110 C   0  0  1  0  0  3  0  0  0  0  0  0
  185.9070  178.5650  143.4520 C   0  0  2  0  0  3  0  0  0  0  0  0
  186.9840  178.4690  141.2950 N   0  0  0  0  0  0  0  0  0  0  0  0
  187.4600  177.7560  145.2890 C   0  0  1  0  0  3  0  0  0  0  0  0
  185.9240  178.9120  142.1590 C   0  0  0  0  0  3  0  0  0  0  0  0
  186.8640  177.5010  143.9450 C   0  0  2  0  0  3  0  0  0  0  0  0
  186.8560  177.4750  146.5410 N   0  0  0  0  0  2  0  0  0  0  0  0
  187.9930  178.3400  148.7850 Cl  0  0  0  0  0  0  0  0  0  0  0  0
  189.2410  177.1830  146.6690 C   0  0  0  0  0  2  0  0  0  0  0  0
  189.3240  177.2280  143.9760 C   0  0  0  0  0  2  0  0  0  0  0  0
  187.9280  177.1330  147.4760 C   0  0  2  0  0  3  0  0  0  0  0  0
  188.1390  177.8040  141.8280 C   0  0  1  0  0  3  0  0  0  0  0  0
  183.5090  178.7490  143.6490 N   0  0  0  0  0  1  0  0  0  0  0  0
  184.7720  179.0210  144.3110 C   0  0  0  0  0  2  0  0  0  0  0  0
  192.8410  176.7880  138.7720 C   0  0  0  0  0  2  0  0  0  0  0  0
  194.3960  176.6880  136.3900 O   0  0  0  0  0  0  0  0  0  0  0  0
  193.2190  176.2520  136.3360 C   0  0  0  0  0  0  0  0  0  0  0  0
  192.3600  176.3390  137.4750 N   0  0  0  0  0  2  0  0  0  0  0  0
  192.7040  175.6490  135.0650 C   0  0  0  0  0  2  0  0  0  0  0  0
  192.7240  174.2440  135.1520 O   0  0  0  0  0  0  0  0  0  0  0  0
  191.5590  173.8540  134.6650 O   0  0  0  0  0  0  0  0  0  0  0  0
  190.8370  173.3970  135.7670 C   0  0  0  0  0  2  0  0  0  0  0  0
  188.9600  174.3780  136.9890 C   0  0  0  0  0  2  0  0  0  0  0  0
  189.3590  175.2550  135.9660 O   0  0  0  0  0  0  0  0  0  0  0  0
  189.4010  173.8780  135.6700 C   0  0  1  0  0  3  0  0  0  0  0  0
  188.0640  177.1870  139.1080 O   0  0  0  0  0  0  0  0  0  0  0  0
  188.2080  178.3930  137.0430 C   0  0  0  0  0  1  0  0  0  0  0  0
  187.3590  178.0570  138.2610 C   0  0  1  0  0  3  0  0  0  0  0  0
  186.0850  176.3940  137.1370 O   0  0  0  0  0  0  0  0  0  0  0  0
  186.0570  177.4440  137.8270 C   0  0  0  0  0  0  0  0  0  0  0  0
  184.7890  177.9740  138.2190 N   0  0  0  0  0  2  0  0  0  0  0  0
  184.6290  179.2710  138.8490 C   0  0  0  0  0  2  0  0  0  0  0  0
  183.2250  179.3870  139.4010 C   0  0  2  0  0  3  0  0  0  0  0  0
  181.4180  177.9530  140.6080 C   0  0  2  0  0  3  0  0  0  0  0  0
  182.6860  177.9660  139.7130 C   0  0  1  0  0  3  0  0  0  0  0  0
  179.2190  178.2250  137.8570 C   0  0  0  0  0  1  0  0  0  0  0  0
  182.6020  181.6200  138.7700 O   0  0  0  0  0  1  0  0  0  0  0  0
  182.3780  180.2780  138.4780 C   0  0  2  0  0  3  0  0  0  0  0  0
  180.2600  180.1880  139.9180 C   0  0  0  0  0  2  0  0  0  0  0  0
  181.3330  177.5560  139.1200 C   0  0  2  0  0  0  0  0  0  0  0  0
  180.6940  178.5260  138.1030 C   0  0  2  0  0  3  0  0  0  0  0  0
  180.9460  179.3650  141.0150 C   0  0  0  0  0  2  0  0  0  0  0  0
  180.8820  179.9670  138.5310 C   0  0  2  0  0  3  0  0  0  0  0  0
  180.4930  175.3000  139.9050 C   0  0  0  0  0  1  0  0  0  0  0  0
  181.3050  176.0440  138.8570 C   0  0  0  0  0  3  0  0  0  0  0  0
  182.7050  175.4500  138.7390 C   0  0  0  0  0  1  0  0  0  0  0  0
  1  2  1  6  0  0  0
  1 19  1  0  0  0  0
  3 33  1  6  0  0  0
  3  1  1  0  0  0  0
  4  2  1  0  0  0  0
  5  3  1  0  0  0  0
  5  6  1  0  0  0  0
  6 22  1  6  0  0  0
  6  4  1  0  0  0  0
  7 13  1  0  0  0  0
  7 17  1  1  0  0  0
  8 17  1  6  0  0  0
  8 16  1  0  0  0  0
  9 13  1  0  0  0  0
  9 21  1  6  0  0  0
 10 19  1  0  0  0  0
 10 12  2  0  0  0  0
 11  8  1  0  0  0  0
 11 14  1  1  0  0  0
 12  9  1  0  0  0  0
 13 11  1  0  0  0  0
 14 18  1  0  0  0  0
 16 18  1  0  0  0  0
 18 15  1  0  0  0  0
 19  7  1  0  0  0  0
 20 21  1  0  0  0  0
 24 23  2  0  0  0  0
 24 25  1  0  0  0  0
 25 22  1  0  0  0  0
 26 27  1  0  0  0  0
 26 24  1  0  0  0  0
 28 27  1  0  0  0  0
 28 29  1  0  0  0  0
 31 30  1  0  0  0  0
 32 29  1  0  0  0  0
 32 31  1  0  0  0  0
 32 30  1  0  0  0  0
 34 35  1  0  0  0  0
 35 33  1  0  0  0  0
 36 37  2  0  0  0  0
 37 38  1  0  0  0  0
 37 35  1  0  0  0  0
 38 39  1  0  0  0  0
 39 40  1  0  0  0  0
 40 42  1  0  0  0  0
 41 49  1  0  0  0  0
 42 41  1  0  0  0  0
 43 48  1  0  0  0  0
 45 50  1  0  0  0  0
 45 44  1  0  0  0  0
 45 40  1  0  0  0  0
 46 49  1  0  0  0  0
 47 42  1  0  0  0  0
 47 41  1  0  0  0  0
 48 50  1  0  0  0  0
 48 47  1  0  0  0  0
 50 46  1  0  0  0  0
 52 47  1  0  0  0  0
 52 51  1  0  0  0  0
 53 52  1  0  0  0  0
M  END
>  <MODEL>
1

>  <REMARK>
 VINA RESULT:      -8.2      0.000      0.000
  Name = 
  15 active torsions:
  status: ('A' for Active; 'I' for Inactive)
    1  A    between atoms: C_2  and  C_32
    2  A    between atoms: C_3  and  C_53
    3  A    between atoms: C_7  and  C_13
    4  A    between atoms: C_7  and  O_40
    5  A    between atoms: C_12  and  C_23
    6  A    between atoms: C_18  and  O_35
    7  A    between atoms: C_21  and  C_38
    8  A    between atoms: C_32  and  N_44
    9  A    between atoms: C_34  and  N_47
   10  A    between atoms: C_34  and  C_51
   11  A    between atoms: O_35  and  C_37
   12  A    between atoms: C_36  and  C_37
   13  A    between atoms: O_39  and  O_40
   14  A    between atoms: O_39  and  C_41
   15  A    between atoms: C_41  and  C_43
                            x       y       z     vdW  Elec       q    Type
                         _______ _______ _______ _____ _____    ______ ____

>  <TORSDO>
F 15

$$$$
=
 OpenBabel10222417513D

 53 60  0  0  1  0  0  0  0  0999 V2000
  185.4300  174.8400  136.2840 C   0  0  1  0  0  3  0  0  0  0  0  0
  186.2070  174.3940  135.1280 N   0  0  0  0  0  2  0  0  0  0  0  0
  186.3040  175.7090  137.2080 C   0  0  1  0  0  3  0  0  0  0  0  0
  187.1500  173.3610  135.5760 C   0  0  0  0  0  2  0  0  0  0  0  0
  187.7710  175.2370  137.1930 C   0  0  0  0  0  2  0  0  0  0  0  0
  187.8940  173.7480  136.8790 C   0  0  2  0  0  3  0  0  0  0  0  0
  183.0450  175.4290  136.5920 C   0  0  2  0  0  3  0  0  0  0  0  0
  181.8480  175.7910  138.5280 C   0  0  1  0  0  3  0  0  0  0  0  0
  182.0240  177.3570  135.3590 C   0  0  2  0  0  3  0  0  0  0  0  0
  184.1690  176.4320  134.7540 N   0  0  0  0  0  0  0  0  0  0  0  0
  181.2120  176.4160  137.5720 C   0  0  1  0  0  3  0  0  0  0  0  0
  183.1210  177.4040  134.5940 C   0  0  0  0  0  3  0  0  0  0  0  0
  181.7720  176.1360  136.2180 C   0  0  2  0  0  3  0  0  0  0  0  0
  179.8460  176.6400  137.8850 N   0  0  0  0  0  2  0  0  0  0  0  0
  179.1610  177.4520  140.3230 Cl  0  0  0  0  0  0  0  0  0  0  0  0
  180.9540  175.5110  139.6980 C   0  0  0  0  0  2  0  0  0  0  0  0
  183.0010  174.9770  138.0280 C   0  0  0  0  0  2  0  0  0  0  0  0
  179.6160  176.1190  139.2320 C   0  0  2  0  0  3  0  0  0  0  0  0
  184.1540  175.5070  135.8510 C   0  0  1  0  0  3  0  0  0  0  0  0
  181.1050  179.4720  136.0700 N   0  0  0  0  0  1  0  0  0  0  0  0
  180.9430  178.3660  135.1430 C   0  0  0  0  0  2  0  0  0  0  0  0
  189.3560  173.3660  136.7640 C   0  0  0  0  0  2  0  0  0  0  0  0
  191.7920  174.4280  135.7440 O   0  0  0  0  0  0  0  0  0  0  0  0
  191.3550  174.9040  136.8220 C   0  0  0  0  0  0  0  0  0  0  0  0
  190.1760  174.3670  137.4270 N   0  0  0  0  0  2  0  0  0  0  0  0
  192.0800  176.0330  137.4870 C   0  0  0  0  0  2  0  0  0  0  0  0
  193.4140  176.0830  137.0390 O   0  0  0  0  0  0  0  0  0  0  0  0
  194.1460  175.8350  138.1110 O   0  0  0  0  0  0  0  0  0  0  0  0
  195.1190  174.9310  137.6890 C   0  0  0  0  0  2  0  0  0  0  0  0
  197.0430  174.4170  139.1080 C   0  0  0  0  0  2  0  0  0  0  0  0
  196.0350  175.0100  139.8870 O   0  0  0  0  0  0  0  0  0  0  0  0
  195.6140  174.1240  138.8760 C   0  0  1  0  0  3  0  0  0  0  0  0
  186.2710  177.0510  136.8100 O   0  0  0  0  0  0  0  0  0  0  0  0
  187.9650  178.7140  136.4910 C   0  0  0  0  0  1  0  0  0  0  0  0
  187.3830  177.6550  137.4160 C   0  0  1  0  0  3  0  0  0  0  0  0
  185.8390  178.7170  138.8780 O   0  0  0  0  0  0  0  0  0  0  0  0
  187.0050  178.2740  138.7330 C   0  0  0  0  0  0  0  0  0  0  0  0
  187.9020  178.3220  139.8450 N   0  0  0  0  0  2  0  0  0  0  0  0
  189.3160  178.0160  139.7420 C   0  0  0  0  0  2  0  0  0  0  0  0
  189.7550  177.2620  140.9790 C   0  0  2  0  0  3  0  0  0  0  0  0
  188.7490  176.0400  143.0450 C   0  0  2  0  0  3  0  0  0  0  0  0
  188.5360  177.0910  141.9240 C   0  0  1  0  0  3  0  0  0  0  0  0
  190.1840  178.3870  145.2610 C   0  0  0  0  0  1  0  0  0  0  0  0
  192.1470  177.4660  140.8890 O   0  0  0  0  0  1  0  0  0  0  0  0
  191.0160  177.9170  141.5640 C   0  0  2  0  0  3  0  0  0  0  0  0
  191.3180  176.2250  143.4650 C   0  0  0  0  0  2  0  0  0  0  0  0
  188.6780  177.5430  143.3820 C   0  0  2  0  0  0  0  0  0  0  0  0
  189.9680  178.3080  143.7530 C   0  0  2  0  0  3  0  0  0  0  0  0
  190.1380  175.3670  142.9950 C   0  0  0  0  0  2  0  0  0  0  0  0
  191.1760  177.7020  143.0680 C   0  0  2  0  0  3  0  0  0  0  0  0
  186.9010  177.2390  145.1590 C   0  0  0  0  0  1  0  0  0  0  0  0
  187.3240  178.0190  143.9240 C   0  0  0  0  0  3  0  0  0  0  0  0
  186.2280  177.9820  142.8640 C   0  0  0  0  0  1  0  0  0  0  0  0
  1  2  1  6  0  0  0
  1  3  1  0  0  0  0
  2  4  1  0  0  0  0
  3 33  1  6  0  0  0
  4  6  1  0  0  0  0
  5  3  1  0  0  0  0
  6 22  1  6  0  0  0
  6  5  1  0  0  0  0
  7 17  1  1  0  0  0
  8 17  1  6  0  0  0
  8 16  1  0  0  0  0
  9 21  1  6  0  0  0
  9 13  1  0  0  0  0
 10 19  1  0  0  0  0
 11 14  1  6  0  0  0
 11  8  1  0  0  0  0
 12 10  2  0  0  0  0
 12  9  1  0  0  0  0
 13  7  1  0  0  0  0
 13 11  1  0  0  0  0
 14 18  1  0  0  0  0
 18 16  1  0  0  0  0
 18 15  1  0  0  0  0
 19  1  1  0  0  0  0
 19  7  1  0  0  0  0
 21 20  1  0  0  0  0
 22 25  1  0  0  0  0
 23 24  2  0  0  0  0
 24 25  1  0  0  0  0
 24 26  1  0  0  0  0
 27 26  1  0  0  0  0
 27 28  1  0  0  0  0
 29 28  1  0  0  0  0
 29 32  1  0  0  0  0
 30 31  1  0  0  0  0
 32 30  1  0  0  0  0
 32 31  1  0  0  0  0
 33 35  1  0  0  0  0
 34 35  1  0  0  0  0
 35 37  1  0  0  0  0
 37 36  2  0  0  0  0
 37 38  1  0  0  0  0
 39 38  1  0  0  0  0
 39 40  1  0  0  0  0
 40 45  1  0  0  0  0
 40 42  1  0  0  0  0
 41 47  1  0  0  0  0
 42 41  1  0  0  0  0
 42 47  1  0  0  0  0
 44 45  1  0  0  0  0
 45 50  1  0  0  0  0
 47 48  1  0  0  0  0
 47 52  1  0  0  0  0
 48 43  1  0  0  0  0
 49 41  1  0  0  0  0
 49 46  1  0  0  0  0
 50 46  1  0  0  0  0
 50 48  1  0  0  0  0
 52 51  1  0  0  0  0
 53 52  1  0  0  0  0
M  END
>  <MODEL>
2

>  <REMARK>
 VINA RESULT:      -8.2      2.989      7.845
  Name = 
  15 active torsions:
  status: ('A' for Active; 'I' for Inactive)
    1  A    between atoms: C_2  and  C_32
    2  A    between atoms: C_3  and  C_53
    3  A    between atoms: C_7  and  C_13
    4  A    between atoms: C_7  and  O_40
    5  A    between atoms: C_12  and  C_23
    6  A    between atoms: C_18  and  O_35
    7  A    between atoms: C_21  and  C_38
    8  A    between atoms: C_32  and  N_44
    9  A    between atoms: C_34  and  N_47
   10  A    between atoms: C_34  and  C_51
   11  A    between atoms: O_35  and  C_37
   12  A    between atoms: C_36  and  C_37
   13  A    between atoms: O_39  and  O_40
   14  A    between atoms: O_39  and  C_41
   15  A    between atoms: C_41  and  C_43
                            x       y       z     vdW  Elec       q    Type
                         _______ _______ _______ _____ _____    ______ ____

>  <TORSDO>
F 15

$$$$
=
 OpenBabel10222417513D

 53 60  0  0  1  0  0  0  0  0999 V2000
  189.5970  177.6960  141.3450 C   0  0  1  0  0  3  0  0  0  0  0  0
  190.4890  176.5850  141.6750 N   0  0  0  0  0  2  0  0  0  0  0  0
  189.3580  177.7510  139.8240 C   0  0  1  0  0  3  0  0  0  0  0  0
  191.8480  176.9420  141.2500 C   0  0  0  0  0  2  0  0  0  0  0  0
  190.6070  177.2920  139.0460 C   0  0  0  0  0  2  0  0  0  0  0  0
  191.8950  177.5470  139.8240 C   0  0  2  0  0  3  0  0  0  0  0  0
  188.3500  177.2560  143.4390 C   0  0  2  0  0  3  0  0  0  0  0  0
  189.0110  177.4950  145.6330 C   0  0  1  0  0  3  0  0  0  0  0  0
  186.0680  178.2230  143.8070 C   0  0  2  0  0  3  0  0  0  0  0  0
  187.1220  178.1990  141.6370 N   0  0  0  0  0  0  0  0  0  0  0  0
  187.7050  177.5520  145.6270 C   0  0  1  0  0  3  0  0  0  0  0  0
  186.0410  178.5630  142.5130 C   0  0  0  0  0  3  0  0  0  0  0  0
  187.1130  177.2420  144.2930 C   0  0  2  0  0  3  0  0  0  0  0  0
  187.1420  177.2310  146.8890 N   0  0  0  0  0  2  0  0  0  0  0  0
  188.2350  178.1980  149.1130 Cl  0  0  0  0  0  0  0  0  0  0  0  0
  189.5440  177.1310  146.9870 C   0  0  0  0  0  2  0  0  0  0  0  0
  189.5880  177.1660  144.2920 C   0  0  0  0  0  2  0  0  0  0  0  0
  188.2500  176.9820  147.8110 C   0  0  2  0  0  3  0  0  0  0  0  0
  188.3330  177.6320  142.1570 C   0  0  1  0  0  3  0  0  0  0  0  0
  185.2520  179.7490  145.4890 N   0  0  0  0  0  1  0  0  0  0  0  0
  184.9120  178.5920  144.6800 C   0  0  0  0  0  2  0  0  0  0  0  0
  193.0750  176.9740  139.0650 C   0  0  0  0  0  2  0  0  0  0  0  0
  194.4920  176.8560  136.6000 O   0  0  0  0  0  0  0  0  0  0  0  0
  193.4020  176.2350  136.6750 C   0  0  0  0  0  0  0  0  0  0  0  0
  192.6050  176.3110  137.8590 N   0  0  0  0  0  2  0  0  0  0  0  0
  192.9260  175.4190  135.5130 C   0  0  0  0  0  2  0  0  0  0  0  0
  193.0710  174.0470  135.7920 O   0  0  0  0  0  0  0  0  0  0  0  0
  194.3460  173.7840  135.5650 O   0  0  0  0  0  0  0  0  0  0  0  0
  194.6930  172.8180  136.5090 C   0  0  0  0  0  2  0  0  0  0  0  0
  195.2840  173.7470  138.6930 C   0  0  0  0  0  2  0  0  0  0  0  0
  195.9410  172.5170  138.5170 O   0  0  0  0  0  0  0  0  0  0  0  0
  195.8230  173.3390  137.3790 C   0  0  1  0  0  3  0  0  0  0  0  0
  188.2850  176.9290  139.4580 O   0  0  0  0  0  0  0  0  0  0  0  0
  188.6270  178.5040  137.6860 C   0  0  0  0  0  1  0  0  0  0  0  0
  187.6400  177.5930  138.4030 C   0  0  1  0  0  3  0  0  0  0  0  0
  187.7170  175.5920  137.1220 O   0  0  0  0  0  0  0  0  0  0  0  0
  187.0490  176.6090  137.4320 C   0  0  0  0  0  0  0  0  0  0  0  0
  185.7320  176.7560  136.8960 N   0  0  0  0  0  2  0  0  0  0  0  0
  184.9470  177.9680  137.0310 C   0  0  0  0  0  2  0  0  0  0  0  0
  184.1670  177.9150  138.3270 C   0  0  2  0  0  3  0  0  0  0  0  0
  182.5770  176.3330  139.6480 C   0  0  2  0  0  3  0  0  0  0  0  0
  183.1760  176.7220  138.2700 C   0  0  1  0  0  3  0  0  0  0  0  0
  179.8990  178.6180  139.3640 C   0  0  0  0  0  1  0  0  0  0  0  0
  184.5470  180.1000  139.2510 O   0  0  0  0  0  1  0  0  0  0  0  0
  183.5840  179.3030  138.6380 C   0  0  2  0  0  3  0  0  0  0  0  0
  182.5260  178.6360  140.8740 C   0  0  0  0  0  2  0  0  0  0  0  0
  181.6970  176.9920  138.5670 C   0  0  2  0  0  0  0  0  0  0  0  0
  181.2730  178.4690  138.7190 C   0  0  2  0  0  3  0  0  0  0  0  0
  183.0920  177.2130  140.8070 C   0  0  0  0  0  2  0  0  0  0  0  0
  182.3140  179.2590  139.4860 C   0  0  2  0  0  3  0  0  0  0  0  0
  180.4150  174.8090  138.6060 C   0  0  0  0  0  1  0  0  0  0  0  0
  180.8110  176.0200  137.7760 C   0  0  0  0  0  3  0  0  0  0  0  0
  181.4550  175.5850  136.4630 C   0  0  0  0  0  1  0  0  0  0  0  0
  1  2  1  6  0  0  0
  1 19  1  0  0  0  0
  3 33  1  1  0  0  0
  3  1  1  0  0  0  0
  4  2  1  0  0  0  0
  5  6  1  0  0  0  0
  5  3  1  0  0  0  0
  6 22  1  6  0  0  0
  6  4  1  0  0  0  0
  7 17  1  1  0  0  0
  7 13  1  0  0  0  0
  8 17  1  6  0  0  0
  8 16  1  0  0  0  0
  9 13  1  0  0  0  0
  9 21  1  6  0  0  0
 10 19  1  0  0  0  0
 10 12  2  0  0  0  0
 11  8  1  0  0  0  0
 11 14  1  1  0  0  0
 12  9  1  0  0  0  0
 13 11  1  0  0  0  0
 14 18  1  0  0  0  0
 16 18  1  0  0  0  0
 18 15  1  0  0  0  0
 19  7  1  0  0  0  0
 21 20  1  0  0  0  0
 23 24  2  0  0  0  0
 24 25  1  0  0  0  0
 25 22  1  0  0  0  0
 26 27  1  0  0  0  0
 26 24  1  0  0  0  0
 28 27  1  0  0  0  0
 28 29  1  0  0  0  0
 29 32  1  0  0  0  0
 31 30  1  0  0  0  0
 32 31  1  0  0  0  0
 32 30  1  0  0  0  0
 34 35  1  0  0  0  0
 35 33  1  0  0  0  0
 36 37  2  0  0  0  0
 37 35  1  0  0  0  0
 38 39  1  0  0  0  0
 38 37  1  0  0  0  0
 39 40  1  0  0  0  0
 40 45  1  0  0  0  0
 41 49  1  0  0  0  0
 42 40  1  0  0  0  0
 42 47  1  0  0  0  0
 42 41  1  0  0  0  0
 45 44  1  0  0  0  0
 45 50  1  0  0  0  0
 47 48  1  0  0  0  0
 47 41  1  0  0  0  0
 48 43  1  0  0  0  0
 48 50  1  0  0  0  0
 49 46  1  0  0  0  0
 50 46  1  0  0  0  0
 52 47  1  0  0  0  0
 52 51  1  0  0  0  0
 53 52  1  0  0  0  0
M  END
>  <MODEL>
3

>  <REMARK>
 VINA RESULT:      -8.0      1.560      2.195
  Name = 
  15 active torsions:
  status: ('A' for Active; 'I' for Inactive)
    1  A    between atoms: C_2  and  C_32
    2  A    between atoms: C_3  and  C_53
    3  A    between atoms: C_7  and  C_13
    4  A    between atoms: C_7  and  O_40
    5  A    between atoms: C_12  and  C_23
    6  A    between atoms: C_18  and  O_35
    7  A    between atoms: C_21  and  C_38
    8  A    between atoms: C_32  and  N_44
    9  A    between atoms: C_34  and  N_47
   10  A    between atoms: C_34  and  C_51
   11  A    between atoms: O_35  and  C_37
   12  A    between atoms: C_36  and  C_37
   13  A    between atoms: O_39  and  O_40
   14  A    between atoms: O_39  and  C_41
   15  A    between atoms: C_41  and  C_43
                            x       y       z     vdW  Elec       q    Type
                         _______ _______ _______ _____ _____    ______ ____

>  <TORSDO>
F 15

$$$$
=
 OpenBabel10222417513D

 53 60  0  0  1  0  0  0  0  0999 V2000
  189.5770  177.6850  141.3000 C   0  0  1  0  0  3  0  0  0  0  0  0
  190.3790  176.4810  141.5090 N   0  0  0  0  0  2  0  0  0  0  0  0
  189.3280  177.9040  139.7950 C   0  0  1  0  0  3  0  0  0  0  0  0
  191.7590  176.7680  141.0960 C   0  0  0  0  0  2  0  0  0  0  0  0
  190.5290  177.4230  138.9560 C   0  0  0  0  0  2  0  0  0  0  0  0
  191.8400  177.5000  139.7320 C   0  0  2  0  0  3  0  0  0  0  0  0
  188.3430  177.2750  143.4070 C   0  0  2  0  0  3  0  0  0  0  0  0
  189.0280  177.5180  145.5940 C   0  0  1  0  0  3  0  0  0  0  0  0
  186.0790  178.2790  143.7910 C   0  0  2  0  0  3  0  0  0  0  0  0
  187.1120  178.2280  141.6110 N   0  0  0  0  0  0  0  0  0  0  0  0
  187.7230  177.5940  145.6000 C   0  0  1  0  0  3  0  0  0  0  0  0
  186.0450  178.6120  142.4950 C   0  0  0  0  0  3  0  0  0  0  0  0
  187.1140  177.2850  144.2730 C   0  0  2  0  0  3  0  0  0  0  0  0
  187.1660  177.2890  146.8690 N   0  0  0  0  0  2  0  0  0  0  0  0
  188.2950  178.2520  149.0770 Cl  0  0  0  0  0  0  0  0  0  0  0  0
  189.5680  177.1530  146.9440 C   0  0  0  0  0  2  0  0  0  0  0  0
  189.5870  177.1720  144.2490 C   0  0  0  0  0  2  0  0  0  0  0  0
  188.2790  177.0280  147.7820 C   0  0  2  0  0  3  0  0  0  0  0  0
  188.3200  177.6450  142.1240 C   0  0  1  0  0  3  0  0  0  0  0  0
  184.4310  179.9730  144.2780 N   0  0  0  0  0  1  0  0  0  0  0  0
  184.9370  178.6710  144.6730 C   0  0  0  0  0  2  0  0  0  0  0  0
  192.9630  176.9100  138.9030 C   0  0  0  0  0  2  0  0  0  0  0  0
  193.7920  176.3980  136.2280 O   0  0  0  0  0  0  0  0  0  0  0  0
  192.9510  175.6150  136.7370 C   0  0  0  0  0  0  0  0  0  0  0  0
  192.4380  175.8560  138.0500 N   0  0  0  0  0  2  0  0  0  0  0  0
  192.4700  174.4280  135.9600 C   0  0  0  0  0  2  0  0  0  0  0  0
  193.2160  173.2860  136.3100 O   0  0  0  0  0  0  0  0  0  0  0  0
  194.2230  173.2590  135.4550 O   0  0  0  0  0  0  0  0  0  0  0  0
  195.3030  172.7550  136.1780 C   0  0  0  0  0  2  0  0  0  0  0  0
  195.9640  170.8680  137.5860 C   0  0  0  0  0  2  0  0  0  0  0  0
  195.4290  171.8860  138.3930 O   0  0  0  0  0  0  0  0  0  0  0  0
  194.8170  171.6860  137.1400 C   0  0  1  0  0  3  0  0  0  0  0  0
  188.1890  177.2070  139.3710 O   0  0  0  0  0  0  0  0  0  0  0  0
  187.6690  175.7380  137.5530 C   0  0  0  0  0  1  0  0  0  0  0  0
  188.3460  177.0300  137.9880 C   0  0  1  0  0  3  0  0  0  0  0  0
  188.4790  178.7590  136.3620 O   0  0  0  0  0  0  0  0  0  0  0  0
  187.7690  178.1930  137.2300 C   0  0  0  0  0  0  0  0  0  0  0  0
  186.4240  178.6420  137.4170 N   0  0  0  0  0  2  0  0  0  0  0  0
  185.5800  178.1950  138.5080 C   0  0  0  0  0  2  0  0  0  0  0  0
  184.1770  177.9620  137.9910 C   0  0  2  0  0  3  0  0  0  0  0  0
  181.8170  179.0600  138.0300 C   0  0  2  0  0  3  0  0  0  0  0  0
  183.2070  178.9370  138.7100 C   0  0  1  0  0  3  0  0  0  0  0  0
  180.4660  176.3330  139.8240 C   0  0  0  0  0  1  0  0  0  0  0  0
  184.3630  175.8130  136.9330 O   0  0  0  0  0  1  0  0  0  0  0  0
  183.8450  176.4630  138.0500 C   0  0  2  0  0  3  0  0  0  0  0  0
  181.5160  176.6800  137.0020 C   0  0  0  0  0  2  0  0  0  0  0  0
  181.9650  178.3530  139.3930 C   0  0  2  0  0  0  0  0  0  0  0  0
  181.8710  176.8140  139.4720 C   0  0  2  0  0  3  0  0  0  0  0  0
  181.6770  178.1860  136.7650 C   0  0  0  0  0  2  0  0  0  0  0  0
  182.3510  176.1710  138.1870 C   0  0  2  0  0  3  0  0  0  0  0  0
  182.1110  178.6210  141.9060 C   0  0  0  0  0  1  0  0  0  0  0  0
  181.5770  179.2070  140.6080 C   0  0  0  0  0  3  0  0  0  0  0  0
  180.0720  179.4360  140.7000 C   0  0  0  0  0  1  0  0  0  0  0  0
  1  2  1  6  0  0  0
  1 19  1  0  0  0  0
  3 33  1  6  0  0  0
  3  1  1  0  0  0  0
  4  2  1  0  0  0  0
  5  6  1  0  0  0  0
  5  3  1  0  0  0  0
  6 22  1  6  0  0  0
  6  4  1  0  0  0  0
  7 17  1  1  0  0  0
  7 13  1  0  0  0  0
  8 17  1  6  0  0  0
  8 11  1  0  0  0  0
  8 16  1  0  0  0  0
  9 13  1  0  0  0  0
  9 21  1  6  0  0  0
 10 19  1  0  0  0  0
 10 12  2  0  0  0  0
 11 14  1  1  0  0  0
 12  9  1  0  0  0  0
 13 11  1  0  0  0  0
 14 18  1  0  0  0  0
 16 18  1  0  0  0  0
 18 15  1  0  0  0  0
 19  7  1  0  0  0  0
 20 21  1  0  0  0  0
 23 24  2  0  0  0  0
 24 25  1  0  0  0  0
 25 22  1  0  0  0  0
 26 27  1  0  0  0  0
 26 24  1  0  0  0  0
 28 29  1  0  0  0  0
 28 27  1  0  0  0  0
 29 32  1  0  0  0  0
 30 31  1  0  0  0  0
 32 30  1  0  0  0  0
 32 31  1  0  0  0  0
 34 35  1  0  0  0  0
 35 33  1  0  0  0  0
 36 37  2  0  0  0  0
 37 38  1  0  0  0  0
 37 35  1  0  0  0  0
 38 39  1  0  0  0  0
 40 45  1  0  0  0  0
 40 39  1  0  0  0  0
 40 42  1  0  0  0  0
 41 42  1  0  0  0  0
 41 47  1  0  0  0  0
 42 47  1  0  0  0  0
 44 45  1  0  0  0  0
 45 50  1  0  0  0  0
 46 50  1  0  0  0  0
 47 48  1  0  0  0  0
 47 52  1  0  0  0  0
 48 43  1  0  0  0  0
 49 46  1  0  0  0  0
 49 41  1  0  0  0  0
 50 48  1  0  0  0  0
 52 53  1  0  0  0  0
 52 51  1  0  0  0  0
M  END
>  <MODEL>
4

>  <REMARK>
 VINA RESULT:      -7.8      1.734      2.848
  Name = 
  15 active torsions:
  status: ('A' for Active; 'I' for Inactive)
    1  A    between atoms: C_2  and  C_32
    2  A    between atoms: C_3  and  C_53
    3  A    between atoms: C_7  and  C_13
    4  A    between atoms: C_7  and  O_40
    5  A    between atoms: C_12  and  C_23
    6  A    between atoms: C_18  and  O_35
    7  A    between atoms: C_21  and  C_38
    8  A    between atoms: C_32  and  N_44
    9  A    between atoms: C_34  and  N_47
   10  A    between atoms: C_34  and  C_51
   11  A    between atoms: O_35  and  C_37
   12  A    between atoms: C_36  and  C_37
   13  A    between atoms: O_39  and  O_40
   14  A    between atoms: O_39  and  C_41
   15  A    between atoms: C_41  and  C_43
                            x       y       z     vdW  Elec       q    Type
                         _______ _______ _______ _____ _____    ______ ____

>  <TORSDO>
F 15

$$$$
=
 OpenBabel10222417513D

 53 60  0  0  1  0  0  0  0  0999 V2000
  189.5220  177.7560  140.6750 C   0  0  1  0  0  3  0  0  0  0  0  0
  190.3590  176.6810  141.2070 N   0  0  0  0  0  2  0  0  0  0  0  0
  189.3730  177.6080  139.1480 C   0  0  1  0  0  3  0  0  0  0  0  0
  191.7510  176.9470  140.8220 C   0  0  0  0  0  2  0  0  0  0  0  0
  190.6510  177.0190  138.5180 C   0  0  0  0  0  2  0  0  0  0  0  0
  191.8980  177.3500  139.3320 C   0  0  2  0  0  3  0  0  0  0  0  0
  188.1120  177.4700  142.6900 C   0  0  2  0  0  3  0  0  0  0  0  0
  188.6600  177.6660  144.9200 C   0  0  1  0  0  3  0  0  0  0  0  0
  185.9240  178.6720  142.9140 C   0  0  2  0  0  3  0  0  0  0  0  0
  187.0980  178.5150  140.8120 N   0  0  0  0  0  0  0  0  0  0  0  0
  187.3710  177.8570  144.8340 C   0  0  1  0  0  3  0  0  0  0  0  0
  186.0110  178.9970  141.6180 C   0  0  0  0  0  3  0  0  0  0  0  0
  186.8310  177.5930  143.4680 C   0  0  2  0  0  3  0  0  0  0  0  0
  186.7020  177.6100  146.0610 N   0  0  0  0  0  2  0  0  0  0  0  0
  187.7530  178.4850  148.3420 Cl  0  0  0  0  0  0  0  0  0  0  0  0
  189.0700  177.2640  146.3050 C   0  0  0  0  0  2  0  0  0  0  0  0
  189.2800  177.2630  143.6180 C   0  0  0  0  0  2  0  0  0  0  0  0
  187.7210  177.2580  147.0500 C   0  0  2  0  0  3  0  0  0  0  0  0
  188.2110  177.8320  141.4080 C   0  0  1  0  0  3  0  0  0  0  0  0
  183.5230  178.6580  143.1520 N   0  0  0  0  0  1  0  0  0  0  0  0
  184.7620  179.1670  143.7120 C   0  0  0  0  0  2  0  0  0  0  0  0
  193.1020  176.6520  138.7320 C   0  0  0  0  0  2  0  0  0  0  0  0
  195.0390  175.6610  136.8970 O   0  0  0  0  0  0  0  0  0  0  0  0
  193.8680  175.8310  136.4730 C   0  0  0  0  0  0  0  0  0  0  0  0
  192.8650  176.3930  137.3210 N   0  0  0  0  0  2  0  0  0  0  0  0
  193.5230  175.4560  135.0650 C   0  0  0  0  0  2  0  0  0  0  0  0
  192.2310  174.8980  135.0150 O   0  0  0  0  0  0  0  0  0  0  0  0
  192.4230  173.6120  134.7740 O   0  0  0  0  0  0  0  0  0  0  0  0
  191.6070  172.9440  135.6870 C   0  0  0  0  0  2  0  0  0  0  0  0
  189.4000  173.0490  136.7340 C   0  0  0  0  0  2  0  0  0  0  0  0
  190.3210  173.7630  137.5180 O   0  0  0  0  0  0  0  0  0  0  0  0
  190.4750  173.8570  136.1210 C   0  0  1  0  0  3  0  0  0  0  0  0
  188.2990  176.7670  138.8310 O   0  0  0  0  0  0  0  0  0  0  0  0
  188.2150  178.7710  137.5230 C   0  0  0  0  0  1  0  0  0  0  0  0
  187.6420  177.3800  137.7530 C   0  0  1  0  0  3  0  0  0  0  0  0
  188.6320  176.8920  135.6480 O   0  0  0  0  0  0  0  0  0  0  0  0
  187.7770  176.5550  136.5040 C   0  0  0  0  0  0  0  0  0  0  0  0
  187.0130  175.3670  136.2810 N   0  0  0  0  0  2  0  0  0  0  0  0
  185.8770  174.9860  137.0990 C   0  0  0  0  0  2  0  0  0  0  0  0
  184.5990  175.4070  136.4060 C   0  0  2  0  0  3  0  0  0  0  0  0
  183.0080  177.4570  136.2050 C   0  0  2  0  0  3  0  0  0  0  0  0
  184.0930  176.7280  137.0420 C   0  0  1  0  0  3  0  0  0  0  0  0
  180.3540  175.6740  137.7050 C   0  0  0  0  0  1  0  0  0  0  0  0
  183.9250  173.3890  135.2900 O   0  0  0  0  0  1  0  0  0  0  0  0
  183.6200  174.2230  136.3620 C   0  0  2  0  0  3  0  0  0  0  0  0
  181.7970  175.4550  135.0490 C   0  0  0  0  0  2  0  0  0  0  0  0
  182.6460  176.7850  137.5440 C   0  0  2  0  0  0  0  0  0  0  0  0
  181.8560  175.4580  137.5470 C   0  0  2  0  0  3  0  0  0  0  0  0
  182.6500  176.7190  134.8960 C   0  0  0  0  0  2  0  0  0  0  0  0
  182.1520  174.6440  136.3040 C   0  0  2  0  0  3  0  0  0  0  0  0
  183.5840  178.8430  138.6810 C   0  0  0  0  0  1  0  0  0  0  0  0
  182.5360  177.7430  138.7380 C   0  0  0  0  0  3  0  0  0  0  0  0
  182.5940  177.0140  140.0760 C   0  0  0  0  0  1  0  0  0  0  0  0
  1  2  1  1  0  0  0
  1 19  1  0  0  0  0
  3 33  1  1  0  0  0
  3  1  1  0  0  0  0
  4  2  1  0  0  0  0
  5  3  1  0  0  0  0
  5  6  1  0  0  0  0
  6 22  1  6  0  0  0
  6  4  1  0  0  0  0
  7 13  1  0  0  0  0
  7 17  1  1  0  0  0
  8 17  1  6  0  0  0
  8 16  1  0  0  0  0
  9 13  1  0  0  0  0
  9 21  1  6  0  0  0
 10 19  1  0  0  0  0
 10 12  2  0  0  0  0
 11  8  1  0  0  0  0
 11 14  1  1  0  0  0
 12  9  1  0  0  0  0
 13 11  1  0  0  0  0
 14 18  1  0  0  0  0
 16 18  1  0  0  0  0
 18 15  1  0  0  0  0
 19  7  1  0  0  0  0
 20 21  1  0  0  0  0
 24 23  2  0  0  0  0
 24 25  1  0  0  0  0
 25 22  1  0  0  0  0
 26 24  1  0  0  0  0
 27 26  1  0  0  0  0
 28 27  1  0  0  0  0
 28 29  1  0  0  0  0
 29 32  1  0  0  0  0
 30 31  1  0  0  0  0
 32 30  1  0  0  0  0
 32 31  1  0  0  0  0
 34 35  1  0  0  0  0
 35 33  1  0  0  0  0
 36 37  2  0  0  0  0
 37 35  1  0  0  0  0
 38 37  1  0  0  0  0
 38 39  1  0  0  0  0
 40 42  1  0  0  0  0
 40 39  1  0  0  0  0
 41 42  1  0  0  0  0
 41 47  1  0  0  0  0
 42 47  1  0  0  0  0
 44 45  1  0  0  0  0
 45 40  1  0  0  0  0
 46 50  1  0  0  0  0
 47 48  1  0  0  0  0
 47 52  1  0  0  0  0
 48 43  1  0  0  0  0
 49 46  1  0  0  0  0
 49 41  1  0  0  0  0
 50 45  1  0  0  0  0
 50 48  1  0  0  0  0
 51 52  1  0  0  0  0
 52 53  1  0  0  0  0
M  END
>  <MODEL>
5

>  <REMARK>
 VINA RESULT:      -7.8      1.731      2.894
  Name = 
  15 active torsions:
  status: ('A' for Active; 'I' for Inactive)
    1  A    between atoms: C_2  and  C_32
    2  A    between atoms: C_3  and  C_53
    3  A    between atoms: C_7  and  C_13
    4  A    between atoms: C_7  and  O_40
    5  A    between atoms: C_12  and  C_23
    6  A    between atoms: C_18  and  O_35
    7  A    between atoms: C_21  and  C_38
    8  A    between atoms: C_32  and  N_44
    9  A    between atoms: C_34  and  N_47
   10  A    between atoms: C_34  and  C_51
   11  A    between atoms: O_35  and  C_37
   12  A    between atoms: C_36  and  C_37
   13  A    between atoms: O_39  and  O_40
   14  A    between atoms: O_39  and  C_41
   15  A    between atoms: C_41  and  C_43
                            x       y       z     vdW  Elec       q    Type
                         _______ _______ _______ _____ _____    ______ ____

>  <TORSDO>
F 15

$$$$
=
 OpenBabel10222417513D

 53 60  0  0  1  0  0  0  0  0999 V2000
  189.3720  177.7190  141.1660 C   0  0  1  0  0  3  0  0  0  0  0  0
  190.1690  176.5210  141.4250 N   0  0  0  0  0  2  0  0  0  0  0  0
  189.0780  177.8470  139.6590 C   0  0  1  0  0  3  0  0  0  0  0  0
  191.5380  176.7670  140.9530 C   0  0  0  0  0  2  0  0  0  0  0  0
  190.2470  177.3020  138.8160 C   0  0  0  0  0  2  0  0  0  0  0  0
  191.5830  177.4120  139.5440 C   0  0  2  0  0  3  0  0  0  0  0  0
  188.1810  177.3560  143.3070 C   0  0  2  0  0  3  0  0  0  0  0  0
  188.9470  177.5260  145.4730 C   0  0  1  0  0  3  0  0  0  0  0  0
  185.9960  178.4910  143.7750 C   0  0  2  0  0  3  0  0  0  0  0  0
  186.9560  178.4060  141.5630 N   0  0  0  0  0  0  0  0  0  0  0  0
  187.6500  177.6820  145.5220 C   0  0  1  0  0  3  0  0  0  0  0  0
  185.9420  178.8430  142.4840 C   0  0  0  0  0  3  0  0  0  0  0  0
  186.9820  177.4290  144.2120 C   0  0  2  0  0  3  0  0  0  0  0  0
  187.1160  177.3930  146.8040 N   0  0  0  0  0  2  0  0  0  0  0  0
  188.3690  178.2550  148.9860 Cl  0  0  0  0  0  0  0  0  0  0  0  0
  189.5050  177.1100  146.8020 C   0  0  0  0  0  2  0  0  0  0  0  0
  189.4420  177.1660  144.1080 C   0  0  0  0  0  2  0  0  0  0  0  0
  188.2380  177.0520  147.6780 C   0  0  2  0  0  3  0  0  0  0  0  0
  188.1410  177.7450  142.0300 C   0  0  1  0  0  3  0  0  0  0  0  0
  183.9520  179.7570  143.9730 N   0  0  0  0  0  1  0  0  0  0  0  0
  184.9080  178.9390  144.6970 C   0  0  0  0  0  2  0  0  0  0  0  0
  192.6730  176.7590  138.7190 C   0  0  0  0  0  2  0  0  0  0  0  0
  193.1010  174.1970  137.5540 O   0  0  0  0  0  0  0  0  0  0  0  0
  192.3270  174.9870  136.9570 C   0  0  0  0  0  0  0  0  0  0  0  0
  192.1250  176.3140  137.4490 N   0  0  0  0  0  2  0  0  0  0  0  0
  191.6220  174.5420  135.7130 C   0  0  0  0  0  2  0  0  0  0  0  0
  190.4900  173.7730  136.0460 O   0  0  0  0  0  0  0  0  0  0  0  0
  189.9240  173.4770  134.8900 O   0  0  0  0  0  0  0  0  0  0  0  0
  188.5580  173.4040  135.1590 C   0  0  0  0  0  2  0  0  0  0  0  0
  186.9120  172.4050  136.6670 C   0  0  0  0  0  2  0  0  0  0  0  0
  187.2600  171.4730  135.6740 O   0  0  0  0  0  0  0  0  0  0  0  0
  188.2960  172.2940  136.1610 C   0  0  1  0  0  3  0  0  0  0  0  0
  187.9200  177.1390  139.3150 O   0  0  0  0  0  0  0  0  0  0  0  0
  187.0950  176.0310  137.3580 C   0  0  0  0  0  1  0  0  0  0  0  0
  187.8050  177.2540  137.9210 C   0  0  1  0  0  3  0  0  0  0  0  0
  187.6420  179.3730  136.8570 O   0  0  0  0  0  0  0  0  0  0  0  0
  187.0550  178.5020  137.5460 C   0  0  0  0  0  0  0  0  0  0  0  0
  185.6840  178.7080  137.8920 N   0  0  0  0  0  2  0  0  0  0  0  0
  184.9650  177.8700  138.8330 C   0  0  0  0  0  2  0  0  0  0  0  0
  183.5650  177.6250  138.3150 C   0  0  2  0  0  3  0  0  0  0  0  0
  181.2780  178.8420  138.0610 C   0  0  2  0  0  3  0  0  0  0  0  0
  182.6390  178.7700  138.8040 C   0  0  1  0  0  3  0  0  0  0  0  0
  179.7110  176.5790  140.2750 C   0  0  0  0  0  1  0  0  0  0  0  0
  183.6440  175.3090  137.6800 O   0  0  0  0  0  1  0  0  0  0  0  0
  183.1380  176.1840  138.6370 C   0  0  2  0  0  3  0  0  0  0  0  0
  180.8570  176.3330  137.4790 C   0  0  0  0  0  2  0  0  0  0  0  0
  181.3450  178.3950  139.5350 C   0  0  2  0  0  0  0  0  0  0  0  0
  181.1520  176.9060  139.8940 C   0  0  2  0  0  3  0  0  0  0  0  0
  181.1180  177.7570  136.9750 C   0  0  0  0  0  2  0  0  0  0  0  0
  181.6260  176.0080  138.7690 C   0  0  2  0  0  3  0  0  0  0  0  0
  181.1320  178.9900  141.9860 C   0  0  0  0  0  1  0  0  0  0  0  0
  180.9790  179.4810  140.5560 C   0  0  0  0  0  3  0  0  0  0  0  0
  179.5800  180.0450  140.3280 C   0  0  0  0  0  1  0  0  0  0  0  0
  1  2  1  6  0  0  0
  1 19  1  0  0  0  0
  3 33  1  1  0  0  0
  3  1  1  0  0  0  0
  4  2  1  0  0  0  0
  5  6  1  0  0  0  0
  5  3  1  0  0  0  0
  6 22  1  6  0  0  0
  6  4  1  0  0  0  0
  7 17  1  1  0  0  0
  7 13  1  0  0  0  0
  8 17  1  6  0  0  0
  8 11  1  0  0  0  0
  8 16  1  0  0  0  0
  9 13  1  0  0  0  0
  9 21  1  6  0  0  0
 10 19  1  0  0  0  0
 10 12  2  0  0  0  0
 11 14  1  1  0  0  0
 12  9  1  0  0  0  0
 13 11  1  0  0  0  0
 14 18  1  0  0  0  0
 16 18  1  0  0  0  0
 18 15  1  0  0  0  0
 19  7  1  0  0  0  0
 20 21  1  0  0  0  0
 24 25  1  0  0  0  0
 24 23  2  0  0  0  0
 25 22  1  0  0  0  0
 26 27  1  0  0  0  0
 26 24  1  0  0  0  0
 28 29  1  0  0  0  0
 28 27  1  0  0  0  0
 29 32  1  0  0  0  0
 31 32  1  0  0  0  0
 31 30  1  0  0  0  0
 32 30  1  0  0  0  0
 34 35  1  0  0  0  0
 35 33  1  0  0  0  0
 36 37  2  0  0  0  0
 37 38  1  0  0  0  0
 37 35  1  0  0  0  0
 38 39  1  0  0  0  0
 40 45  1  0  0  0  0
 40 42  1  0  0  0  0
 40 39  1  0  0  0  0
 41 42  1  0  0  0  0
 41 47  1  0  0  0  0
 42 47  1  0  0  0  0
 44 45  1  0  0  0  0
 45 50  1  0  0  0  0
 46 50  1  0  0  0  0
 47 48  1  0  0  0  0
 47 52  1  0  0  0  0
 48 43  1  0  0  0  0
 49 46  1  0  0  0  0
 49 41  1  0  0  0  0
 50 48  1  0  0  0  0
 52 51  1  0  0  0  0
 53 52  1  0  0  0  0
M  END
>  <MODEL>
6

>  <REMARK>
 VINA RESULT:      -7.8      1.410      2.377
  Name = 
  15 active torsions:
  status: ('A' for Active; 'I' for Inactive)
    1  A    between atoms: C_2  and  C_32
    2  A    between atoms: C_3  and  C_53
    3  A    between atoms: C_7  and  C_13
    4  A    between atoms: C_7  and  O_40
    5  A    between atoms: C_12  and  C_23
    6  A    between atoms: C_18  and  O_35
    7  A    between atoms: C_21  and  C_38
    8  A    between atoms: C_32  and  N_44
    9  A    between atoms: C_34  and  N_47
   10  A    between atoms: C_34  and  C_51
   11  A    between atoms: O_35  and  C_37
   12  A    between atoms: C_36  and  C_37
   13  A    between atoms: O_39  and  O_40
   14  A    between atoms: O_39  and  C_41
   15  A    between atoms: C_41  and  C_43
                            x       y       z     vdW  Elec       q    Type
                         _______ _______ _______ _____ _____    ______ ____

>  <TORSDO>
F 15

$$$$
=
 OpenBabel10222417513D

 53 60  0  0  1  0  0  0  0  0999 V2000
  188.1950  178.0300  141.1640 C   0  0  1  0  0  3  0  0  0  0  0  0
  188.9240  176.7810  140.9520 N   0  0  0  0  0  2  0  0  0  0  0  0
  187.4980  178.4660  139.8610 C   0  0  1  0  0  3  0  0  0  0  0  0
  190.1190  177.0740  140.1500 C   0  0  0  0  0  2  0  0  0  0  0  0
  188.3270  178.0660  138.6250 C   0  0  0  0  0  2  0  0  0  0  0  0
  189.8190  177.9870  138.9340 C   0  0  2  0  0  3  0  0  0  0  0  0
  187.7040  177.5030  143.5330 C   0  0  2  0  0  3  0  0  0  0  0  0
  189.0450  177.6850  145.3980 C   0  0  1  0  0  3  0  0  0  0  0  0
  185.6630  178.4200  144.6610 C   0  0  2  0  0  3  0  0  0  0  0  0
  185.9480  178.4820  142.2660 N   0  0  0  0  0  0  0  0  0  0  0  0
  187.8090  177.7200  145.8210 C   0  0  1  0  0  3  0  0  0  0  0  0
  185.2110  178.7990  143.4590 C   0  0  0  0  0  3  0  0  0  0  0  0
  186.8150  177.4420  144.7440 C   0  0  2  0  0  3  0  0  0  0  0  0
  187.6910  177.3500  147.1860 N   0  0  0  0  0  2  0  0  0  0  0  0
  189.4460  178.2650  148.9630 Cl  0  0  0  0  0  0  0  0  0  0  0  0
  189.9940  177.2880  146.4890 C   0  0  0  0  0  2  0  0  0  0  0  0
  189.1530  177.4080  143.9310 C   0  0  0  0  0  2  0  0  0  0  0  0
  189.0410  177.0910  147.6860 C   0  0  2  0  0  3  0  0  0  0  0  0
  187.2660  177.9200  142.3420 C   0  0  1  0  0  3  0  0  0  0  0  0
  183.4910  179.0640  145.4930 N   0  0  0  0  0  1  0  0  0  0  0  0
  184.8540  178.7410  145.8760 C   0  0  0  0  0  2  0  0  0  0  0  0
  190.5690  177.4790  137.7190 C   0  0  0  0  0  2  0  0  0  0  0  0
  191.0080  175.6990  135.5420 O   0  0  0  0  0  0  0  0  0  0  0  0
  191.0610  175.2230  136.7040 C   0  0  0  0  0  0  0  0  0  0  0  0
  190.7790  176.0460  137.8380 N   0  0  0  0  0  2  0  0  0  0  0  0
  191.4090  173.7800  136.9040 C   0  0  0  0  0  2  0  0  0  0  0  0
  192.2800  173.3450  135.8860 O   0  0  0  0  0  0  0  0  0  0  0  0
  193.3220  172.8390  136.5210 O   0  0  0  0  0  0  0  0  0  0  0  0
  194.3120  173.8180  136.4380 C   0  0  0  0  0  2  0  0  0  0  0  0
  196.4560  174.2470  137.5330 C   0  0  0  0  0  2  0  0  0  0  0  0
  195.5320  175.2350  137.9150 O   0  0  0  0  0  0  0  0  0  0  0  0
  195.0330  173.9260  137.7700 C   0  0  1  0  0  3  0  0  0  0  0  0
  186.2320  177.8770  139.7510 O   0  0  0  0  0  0  0  0  0  0  0  0
  185.1750  177.5960  137.6200 C   0  0  0  0  0  1  0  0  0  0  0  0
  185.5800  178.5690  138.7180 C   0  0  1  0  0  3  0  0  0  0  0  0
  184.2980  180.5350  139.0940 O   0  0  0  0  0  0  0  0  0  0  0  0
  184.3680  179.2900  139.2390 C   0  0  0  0  0  0  0  0  0  0  0  0
  183.2650  178.6060  139.8390 N   0  0  0  0  0  2  0  0  0  0  0  0
  183.3100  177.2090  140.2260 C   0  0  0  0  0  2  0  0  0  0  0  0
  181.9930  176.5510  139.8750 C   0  0  2  0  0  3  0  0  0  0  0  0
  180.9990  174.8180  138.2060 C   0  0  2  0  0  3  0  0  0  0  0  0
  182.1410  175.8230  138.5130 C   0  0  1  0  0  3  0  0  0  0  0  0
  178.9530  177.2780  136.7100 C   0  0  0  0  0  1  0  0  0  0  0  0
  180.4490  177.6660  141.3390 O   0  0  0  0  0  1  0  0  0  0  0  0
  180.8520  177.5720  140.0100 C   0  0  2  0  0  3  0  0  0  0  0  0
  178.9750  175.9280  139.4240 C   0  0  0  0  0  2  0  0  0  0  0  0
  181.1230  176.1320  137.4090 C   0  0  2  0  0  0  0  0  0  0  0  0
  180.1340  177.2870  137.6760 C   0  0  2  0  0  3  0  0  0  0  0  0
  179.9390  174.7400  139.3260 C   0  0  0  0  0  2  0  0  0  0  0  0
  179.6520  177.2710  139.1120 C   0  0  2  0  0  3  0  0  0  0  0  0
  182.7110  174.7900  135.9640 C   0  0  0  0  0  1  0  0  0  0  0  0
  181.7780  175.9890  136.0280 C   0  0  0  0  0  3  0  0  0  0  0  0
  182.5030  177.2590  135.5960 C   0  0  0  0  0  1  0  0  0  0  0  0
  1  2  1  6  0  0  0
  1 19  1  0  0  0  0
  3 33  1  6  0  0  0
  3  1  1  0  0  0  0
  4  2  1  0  0  0  0
  5  6  1  0  0  0  0
  5  3  1  0  0  0  0
  6 22  1  6  0  0  0
  6  4  1  0  0  0  0
  7 17  1  1  0  0  0
  7 13  1  0  0  0  0
  8 17  1  6  0  0  0
  8 11  1  0  0  0  0
  8 16  1  0  0  0  0
  9 13  1  0  0  0  0
  9 21  1  1  0  0  0
 10 19  1  0  0  0  0
 10 12  2  0  0  0  0
 11 14  1  1  0  0  0
 12  9  1  0  0  0  0
 13 11  1  0  0  0  0
 14 18  1  0  0  0  0
 16 18  1  0  0  0  0
 18 15  1  0  0  0  0
 19  7  1  0  0  0  0
 20 21  1  0  0  0  0
 22 25  1  0  0  0  0
 23 24  2  0  0  0  0
 24 26  1  0  0  0  0
 24 25  1  0  0  0  0
 27 28  1  0  0  0  0
 27 26  1  0  0  0  0
 29 28  1  0  0  0  0
 29 32  1  0  0  0  0
 30 32  1  0  0  0  0
 30 31  1  0  0  0  0
 32 31  1  0  0  0  0
 34 35  1  0  0  0  0
 35 37  1  0  0  0  0
 35 33  1  0  0  0  0
 36 37  2  0  0  0  0
 37 38  1  0  0  0  0
 38 39  1  0  0  0  0
 40 45  1  0  0  0  0
 40 39  1  0  0  0  0
 41 42  1  0  0  0  0
 41 49  1  0  0  0  0
 42 40  1  0  0  0  0
 43 48  1  0  0  0  0
 45 44  1  0  0  0  0
 47 48  1  0  0  0  0
 47 41  1  0  0  0  0
 47 42  1  0  0  0  0
 48 50  1  0  0  0  0
 49 46  1  0  0  0  0
 50 46  1  0  0  0  0
 50 45  1  0  0  0  0
 51 52  1  0  0  0  0
 52 47  1  0  0  0  0
 53 52  1  0  0  0  0
M  END
>  <MODEL>
7

>  <REMARK>
 VINA RESULT:      -7.8      1.812      2.984
  Name = 
  15 active torsions:
  status: ('A' for Active; 'I' for Inactive)
    1  A    between atoms: C_2  and  C_32
    2  A    between atoms: C_3  and  C_53
    3  A    between atoms: C_7  and  C_13
    4  A    between atoms: C_7  and  O_40
    5  A    between atoms: C_12  and  C_23
    6  A    between atoms: C_18  and  O_35
    7  A    between atoms: C_21  and  C_38
    8  A    between atoms: C_32  and  N_44
    9  A    between atoms: C_34  and  N_47
   10  A    between atoms: C_34  and  C_51
   11  A    between atoms: O_35  and  C_37
   12  A    between atoms: C_36  and  C_37
   13  A    between atoms: O_39  and  O_40
   14  A    between atoms: O_39  and  C_41
   15  A    between atoms: C_41  and  C_43
                            x       y       z     vdW  Elec       q    Type
                         _______ _______ _______ _____ _____    ______ ____

>  <TORSDO>
F 15

$$$$
=
 OpenBabel10222417513D

 53 60  0  0  1  0  0  0  0  0999 V2000
  185.4770  178.2460  143.6350 C   0  0  1  0  0  3  0  0  0  0  0  0
  185.0750  179.3610  144.4920 N   0  0  0  0  0  2  0  0  0  0  0  0
  184.5770  178.1850  142.3850 C   0  0  1  0  0  3  0  0  0  0  0  0
  183.8090  179.0060  145.1470 C   0  0  0  0  0  2  0  0  0  0  0  0
  183.1420  178.6450  142.7090 C   0  0  0  0  0  2  0  0  0  0  0  0
  182.7730  178.3960  144.1690 C   0  0  2  0  0  3  0  0  0  0  0  0
  187.8650  178.2010  144.2870 C   0  0  2  0  0  3  0  0  0  0  0  0
  188.9100  177.0680  146.0000 C   0  0  1  0  0  3  0  0  0  0  0  0
  189.6520  177.7110  142.6010 C   0  0  2  0  0  3  0  0  0  0  0  0
  187.3890  178.2500  141.9590 N   0  0  0  0  0  0  0  0  0  0  0  0
  189.8260  177.3150  145.1010 C   0  0  1  0  0  3  0  0  0  0  0  0
  188.7350  177.8600  141.6370 C   0  0  0  0  0  3  0  0  0  0  0  0
  189.3410  178.1970  144.0000 C   0  0  2  0  0  3  0  0  0  0  0  0
  191.1380  177.2950  145.6430 N   0  0  0  0  0  2  0  0  0  0  0  0
  191.8310  175.3920  147.3670 Cl  0  0  0  0  0  0  0  0  0  0  0  0
  189.5120  176.8060  147.3480 C   0  0  0  0  0  2  0  0  0  0  0  0
  187.5930  177.7030  145.6820 C   0  0  0  0  0  2  0  0  0  0  0  0
  191.0200  176.9490  147.0590 C   0  0  2  0  0  3  0  0  0  0  0  0
  186.9460  178.3080  143.3240 C   0  0  1  0  0  3  0  0  0  0  0  0
  191.1370  177.1340  140.7870 N   0  0  0  0  0  1  0  0  0  0  0  0
  191.0490  177.3350  142.2230 C   0  0  0  0  0  2  0  0  0  0  0  0
  181.4010  178.9710  144.4560 C   0  0  0  0  0  2  0  0  0  0  0  0
  179.3090  177.8860  142.8590 O   0  0  0  0  0  0  0  0  0  0  0  0
  179.7660  179.0120  142.5360 C   0  0  0  0  0  0  0  0  0  0  0  0
  180.8640  179.5820  143.2510 N   0  0  0  0  0  2  0  0  0  0  0  0
  179.1640  179.7590  141.3850 C   0  0  0  0  0  2  0  0  0  0  0  0
  179.2250  181.1450  141.6210 O   0  0  0  0  0  0  0  0  0  0  0  0
  179.3320  181.6930  140.4230 O   0  0  0  0  0  0  0  0  0  0  0  0
  180.2530  180.8990  139.7400 C   0  0  0  0  0  2  0  0  0  0  0  0
  180.7500  180.9980  137.3480 C   0  0  0  0  0  2  0  0  0  0  0  0
  179.9170  182.0750  137.6950 O   0  0  0  0  0  0  0  0  0  0  0  0
  180.9020  181.7100  138.6330 C   0  0  1  0  0  3  0  0  0  0  0  0
  185.0820  179.0030  141.3670 O   0  0  0  0  0  0  0  0  0  0  0  0
  183.0100  178.5280  140.2650 C   0  0  0  0  0  1  0  0  0  0  0  0
  184.5280  178.5110  140.1750 C   0  0  1  0  0  3  0  0  0  0  0  0
  184.3390  180.3600  138.6930 O   0  0  0  0  0  0  0  0  0  0  0  0
  184.9840  179.3260  138.9970 C   0  0  0  0  0  0  0  0  0  0  0  0
  186.1580  179.0030  138.2470 N   0  0  0  0  0  2  0  0  0  0  0  0
  186.8700  177.7470  138.3830 C   0  0  0  0  0  2  0  0  0  0  0  0
  186.7140  176.9440  137.1100 C   0  0  2  0  0  3  0  0  0  0  0  0
  184.8670  175.8220  135.6590 C   0  0  2  0  0  3  0  0  0  0  0  0
  185.2790  176.3570  137.0560 C   0  0  1  0  0  3  0  0  0  0  0  0
  186.2000  172.6080  136.2640 C   0  0  0  0  0  1  0  0  0  0  0  0
  188.9930  176.6060  136.4280 O   0  0  0  0  0  1  0  0  0  0  0  0
  187.8860  175.9600  136.9710 C   0  0  2  0  0  3  0  0  0  0  0  0
  187.1580  175.0210  134.7010 C   0  0  0  0  0  2  0  0  0  0  0  0
  185.1190  174.8490  136.8280 C   0  0  2  0  0  0  0  0  0  0  0  0
  186.4080  173.9990  136.8540 C   0  0  2  0  0  3  0  0  0  0  0  0
  185.9720  175.9860  134.5940 C   0  0  0  0  0  2  0  0  0  0  0  0
  187.5460  174.7140  136.1550 C   0  0  2  0  0  3  0  0  0  0  0  0
  182.8340  173.8000  136.5340 C   0  0  0  0  0  1  0  0  0  0  0  0
  183.8520  174.3390  137.5270 C   0  0  0  0  0  3  0  0  0  0  0  0
  183.2180  175.3950  138.4260 C   0  0  0  0  0  1  0  0  0  0  0  0
  1  2  1  6  0  0  0
  2  4  1  0  0  0  0
  3 33  1  6  0  0  0
  3  5  1  0  0  0  0
  3  1  1  0  0  0  0
  5  6  1  0  0  0  0
  6 22  1  1  0  0  0
  6  4  1  0  0  0  0
  7 17  1  6  0  0  0
  8 17  1  1  0  0  0
  8 16  1  0  0  0  0
  9 21  1  6  0  0  0
  9 13  1  0  0  0  0
 10 19  1  0  0  0  0
 11 14  1  1  0  0  0
 11  8  1  0  0  0  0
 12 10  2  0  0  0  0
 12  9  1  0  0  0  0
 13  7  1  0  0  0  0
 13 11  1  0  0  0  0
 14 18  1  0  0  0  0
 18 16  1  0  0  0  0
 18 15  1  0  0  0  0
 19  1  1  0  0  0  0
 19  7  1  0  0  0  0
 20 21  1  0  0  0  0
 24 23  2  0  0  0  0
 24 25  1  0  0  0  0
 25 22  1  0  0  0  0
 26 27  1  0  0  0  0
 26 24  1  0  0  0  0
 28 27  1  0  0  0  0
 29 28  1  0  0  0  0
 30 31  1  0  0  0  0
 30 32  1  0  0  0  0
 31 32  1  0  0  0  0
 32 29  1  0  0  0  0
 35 34  1  0  0  0  0
 35 33  1  0  0  0  0
 36 37  2  0  0  0  0
 37 35  1  0  0  0  0
 38 39  1  0  0  0  0
 38 37  1  0  0  0  0
 40 39  1  0  0  0  0
 41 47  1  0  0  0  0
 41 42  1  0  0  0  0
 42 40  1  0  0  0  0
 43 48  1  0  0  0  0
 44 45  1  0  0  0  0
 45 40  1  0  0  0  0
 46 50  1  0  0  0  0
 47 48  1  0  0  0  0
 47 42  1  0  0  0  0
 47 52  1  0  0  0  0
 49 46  1  0  0  0  0
 49 41  1  0  0  0  0
 50 48  1  0  0  0  0
 50 45  1  0  0  0  0
 51 52  1  0  0  0  0
 52 53  1  0  0  0  0
M  END
>  <MODEL>
8

>  <REMARK>
 VINA RESULT:      -7.7      2.528      8.135
  Name = 
  15 active torsions:
  status: ('A' for Active; 'I' for Inactive)
    1  A    between atoms: C_2  and  C_32
    2  A    between atoms: C_3  and  C_53
    3  A    between atoms: C_7  and  C_13
    4  A    between atoms: C_7  and  O_40
    5  A    between atoms: C_12  and  C_23
    6  A    between atoms: C_18  and  O_35
    7  A    between atoms: C_21  and  C_38
    8  A    between atoms: C_32  and  N_44
    9  A    between atoms: C_34  and  N_47
   10  A    between atoms: C_34  and  C_51
   11  A    between atoms: O_35  and  C_37
   12  A    between atoms: C_36  and  C_37
   13  A    between atoms: O_39  and  O_40
   14  A    between atoms: O_39  and  C_41
   15  A    between atoms: C_41  and  C_43
                            x       y       z     vdW  Elec       q    Type
                         _______ _______ _______ _____ _____    ______ ____

>  <TORSDO>
F 15

$$$$
=
 OpenBabel10222417513D

 53 60  0  0  1  0  0  0  0  0999 V2000
  182.8030  176.2630  137.0870 C   0  0  1  0  0  3  0  0  0  0  0  0
  183.0900  175.8920  135.7020 N   0  0  0  0  0  2  0  0  0  0  0  0
  184.1150  176.5300  137.8490 C   0  0  1  0  0  3  0  0  0  0  0  0
  183.6330  174.5270  135.6940 C   0  0  0  0  0  2  0  0  0  0  0  0
  185.2490  175.6180  137.3420 C   0  0  0  0  0  2  0  0  0  0  0  0
  184.7210  174.3040  136.7750 C   0  0  2  0  0  3  0  0  0  0  0  0
  181.0720  177.6130  138.2320 C   0  0  2  0  0  3  0  0  0  0  0  0
  180.7990  178.0770  140.4730 C   0  0  1  0  0  3  0  0  0  0  0  0
  180.5470  179.9440  137.4770 C   0  0  2  0  0  3  0  0  0  0  0  0
  181.8440  178.4170  136.1340 N   0  0  0  0  0  0  0  0  0  0  0  0
  180.1880  179.0280  139.8170 C   0  0  1  0  0  3  0  0  0  0  0  0
  181.2680  179.7120  136.3730 C   0  0  0  0  0  3  0  0  0  0  0  0
  180.1280  178.7780  138.3470 C   0  0  2  0  0  3  0  0  0  0  0  0
  179.1950  179.6760  140.5970 N   0  0  0  0  0  2  0  0  0  0  0  0
  179.7010  180.2940  143.1340 Cl  0  0  0  0  0  0  0  0  0  0  0  0
  180.2920  177.9600  141.8790 C   0  0  0  0  0  2  0  0  0  0  0  0
  181.3170  176.9920  139.5820 C   0  0  0  0  0  2  0  0  0  0  0  0
  179.2250  179.0710  141.9290 C   0  0  2  0  0  3  0  0  0  0  0  0
  181.8220  177.4010  137.1480 C   0  0  1  0  0  3  0  0  0  0  0  0
  180.9520  182.2340  138.1230 N   0  0  0  0  0  1  0  0  0  0  0  0
  179.9380  181.2950  137.6770 C   0  0  0  0  0  2  0  0  0  0  0  0
  185.8650  173.5010  136.1890 C   0  0  0  0  0  2  0  0  0  0  0  0
  188.3270  172.4620  137.1680 O   0  0  0  0  0  0  0  0  0  0  0  0
  188.3200  173.6470  136.7480 C   0  0  0  0  0  0  0  0  0  0  0  0
  187.1030  174.2540  136.3100 N   0  0  0  0  0  2  0  0  0  0  0  0
  189.5940  174.4350  136.7180 C   0  0  0  0  0  2  0  0  0  0  0  0
  190.5370  173.8650  137.5940 O   0  0  0  0  0  0  0  0  0  0  0  0
  191.2350  174.8870  138.0580 O   0  0  0  0  0  0  0  0  0  0  0  0
  192.2970  175.0390  137.1660 C   0  0  0  0  0  2  0  0  0  0  0  0
  193.5680  173.3480  135.9400 C   0  0  0  0  0  2  0  0  0  0  0  0
  194.4560  174.1700  136.6550 O   0  0  0  0  0  0  0  0  0  0  0  0
  193.2380  173.8540  137.2880 C   0  0  1  0  0  3  0  0  0  0  0  0
  184.5190  177.8620  137.6940 O   0  0  0  0  0  0  0  0  0  0  0  0
  186.7190  178.5790  137.0750 C   0  0  0  0  0  1  0  0  0  0  0  0
  185.8530  177.9070  138.1300 C   0  0  1  0  0  3  0  0  0  0  0  0
  184.9790  179.3110  139.8380 O   0  0  0  0  0  0  0  0  0  0  0  0
  185.9650  178.6450  139.4350 C   0  0  0  0  0  0  0  0  0  0  0  0
  187.1280  178.5690  140.2630 N   0  0  0  0  0  2  0  0  0  0  0  0
  188.3830  177.9920  139.8230 C   0  0  0  0  0  2  0  0  0  0  0  0
  189.0230  177.2500  140.9760 C   0  0  2  0  0  3  0  0  0  0  0  0
  188.3840  176.0950  143.2190 C   0  0  2  0  0  3  0  0  0  0  0  0
  187.9940  177.1300  142.1310 C   0  0  1  0  0  3  0  0  0  0  0  0
  190.2550  178.4420  145.0800 C   0  0  0  0  0  1  0  0  0  0  0  0
  191.3630  177.3860  140.4470 O   0  0  0  0  0  1  0  0  0  0  0  0
  190.3850  177.8810  141.3060 C   0  0  2  0  0  3  0  0  0  0  0  0
  190.9900  176.2170  143.1590 C   0  0  0  0  0  2  0  0  0  0  0  0
  188.4110  177.6050  143.5280 C   0  0  2  0  0  0  0  0  0  0  0  0
  189.7640  178.3410  143.6400 C   0  0  2  0  0  3  0  0  0  0  0  0
  189.7240  175.3830  142.9320 C   0  0  0  0  0  2  0  0  0  0  0  0
  190.8120  177.6900  142.7610 C   0  0  2  0  0  3  0  0  0  0  0  0
  186.8900  177.2860  145.5260 C   0  0  0  0  0  1  0  0  0  0  0  0
  187.1900  178.1280  144.2960 C   0  0  0  0  0  3  0  0  0  0  0  0
  185.9540  178.2470  143.4120 C   0  0  0  0  0  1  0  0  0  0  0  0
  1  2  1  6  0  0  0
  1 19  1  0  0  0  0
  1  3  1  0  0  0  0
  3 33  1  6  0  0  0
  4  2  1  0  0  0  0
  4  6  1  0  0  0  0
  5  3  1  0  0  0  0
  6 22  1  6  0  0  0
  6  5  1  0  0  0  0
  7 13  1  0  0  0  0
  7 17  1  1  0  0  0
  8 17  1  6  0  0  0
  8 16  1  0  0  0  0
  9 21  1  6  0  0  0
  9 13  1  0  0  0  0
 10 12  2  0  0  0  0
 10 19  1  0  0  0  0
 11  8  1  0  0  0  0
 11 14  1  1  0  0  0
 12  9  1  0  0  0  0
 13 11  1  0  0  0  0
 14 18  1  0  0  0  0
 16 18  1  0  0  0  0
 18 15  1  0  0  0  0
 19  7  1  0  0  0  0
 21 20  1  0  0  0  0
 22 25  1  0  0  0  0
 24 23  2  0  0  0  0
 25 24  1  0  0  0  0
 26 24  1  0  0  0  0
 26 27  1  0  0  0  0
 27 28  1  0  0  0  0
 29 32  1  0  0  0  0
 29 28  1  0  0  0  0
 30 31  1  0  0  0  0
 30 32  1  0  0  0  0
 31 32  1  0  0  0  0
 33 35  1  0  0  0  0
 34 35  1  0  0  0  0
 35 37  1  0  0  0  0
 37 36  2  0  0  0  0
 37 38  1  0  0  0  0
 39 38  1  0  0  0  0
 39 40  1  0  0  0  0
 40 45  1  0  0  0  0
 40 42  1  0  0  0  0
 41 47  1  0  0  0  0
 42 41  1  0  0  0  0
 42 47  1  0  0  0  0
 44 45  1  0  0  0  0
 45 50  1  0  0  0  0
 47 48  1  0  0  0  0
 47 52  1  0  0  0  0
 48 43  1  0  0  0  0
 49 46  1  0  0  0  0
 49 41  1  0  0  0  0
 50 46  1  0  0  0  0
 50 48  1  0  0  0  0
 52 51  1  0  0  0  0
 53 52  1  0  0  0  0
M  END
>  <MODEL>
9

>  <REMARK>
 VINA RESULT:      -7.6      2.709      7.682
  Name = 
  15 active torsions:
  status: ('A' for Active; 'I' for Inactive)
    1  A    between atoms: C_2  and  C_32
    2  A    between atoms: C_3  and  C_53
    3  A    between atoms: C_7  and  C_13
    4  A    between atoms: C_7  and  O_40
    5  A    between atoms: C_12  and  C_23
    6  A    between atoms: C_18  and  O_35
    7  A    between atoms: C_21  and  C_38
    8  A    between atoms: C_32  and  N_44
    9  A    between atoms: C_34  and  N_47
   10  A    between atoms: C_34  and  C_51
   11  A    between atoms: O_35  and  C_37
   12  A    between atoms: C_36  and  C_37
   13  A    between atoms: O_39  and  O_40
   14  A    between atoms: O_39  and  C_41
   15  A    between atoms: C_41  and  C_43
                            x       y       z     vdW  Elec       q    Type
                         _______ _______ _______ _____ _____    ______ ____

>  <TORSDO>
F 15

$$$$
