=
 OpenBabel10222416183D

 46 50  0  0  1  0  0  0  0  0999 V2000
  185.6930  178.2670  146.7060 C   0  0  0  0  0  1  0  0  0  0  0  0
  185.9420  178.0000  145.2340 C   0  0  1  0  0  3  0  0  0  0  0  0
  185.4690  179.1310  144.4550 N   0  0  0  0  0  2  0  0  0  0  0  0
  184.2200  178.7380  143.8190 C   0  0  0  0  0  2  0  0  0  0  0  0
  185.5770  179.0920  141.6800 C   0  0  0  0  0  2  0  0  0  0  0  0
  179.8970  178.1600  142.9320 C   0  0  2  0  0  3  0  0  0  0  0  0
  181.9140  178.4330  141.6980 N   0  0  0  0  0  0  0  0  0  0  0  0
  183.7530  178.6060  140.1810 N   0  0  0  0  0  0  0  0  0  0  0  0
  181.3390  178.6360  143.0120 C   0  0  0  0  0  2  0  0  0  0  0  0
  185.9060  178.9270  139.2780 O   0  0  0  0  0  0  0  0  0  0  0  0
  180.9610  177.8990  140.7390 C   0  0  1  0  0  3  0  0  0  0  0  0
  179.6830  177.6230  141.5240 C   0  0  0  0  0  2  0  0  0  0  0  0
  184.3140  178.9160  142.3760 N   0  0  0  0  0  0  0  0  0  0  0  0
  185.1440  178.8770  140.2770 C   0  0  0  0  0  0  0  0  0  0  0  0
  183.3050  178.6380  141.3940 C   0  0  0  0  0  0  0  0  0  0  0  0
  181.4080  178.6120  135.8070 C   0  0  0  0  0  1  0  0  0  0  0  0
  181.0010  179.2570  137.1140 C   0  0  1  0  0  3  0  0  0  0  0  0
  179.5490  179.7160  137.0290 C   0  0  0  0  0  2  0  0  0  0  0  0
  180.7320  178.8760  139.5780 C   0  0  1  0  0  3  0  0  0  0  0  0
  181.1740  178.2560  138.2520 C   0  0  0  0  0  2  0  0  0  0  0  0
  179.2800  179.3660  139.4920 C   0  0  0  0  0  2  0  0  0  0  0  0
  179.1230  180.3600  138.3450 C   0  0  0  0  0  2  0  0  0  0  0  0
  179.6130  180.6380  142.8410 C   0  0  0  0  0  1  0  0  0  0  0  0
  178.9450  179.3190  143.1820 C   0  0  0  0  0  2  0  0  0  0  0  0
  187.4290  177.7980  144.9820 C   0  0  0  0  0  2  0  0  0  0  0  0
  188.1520  177.3940  146.2590 C   0  0  0  0  0  2  0  0  0  0  0  0
  189.5100  177.9210  146.2600 N   0  0  0  0  0  0  0  0  0  0  0  0
  191.2640  177.1260  147.6780 N   0  0  0  0  0  1  0  0  0  0  0  0
  190.8500  177.4300  144.4750 C   0  0  0  0  0  0  0  0  0  0  0  0
  191.2460  176.5930  145.3590 N   0  0  0  0  0  0  0  0  0  0  0  0
  189.8170  178.2640  144.9360 N   0  0  0  0  0  2  0  0  0  0  0  0
  190.4180  176.7940  146.5440 C   0  0  2  0  0  3  0  0  0  0  0  0
  191.4910  177.5720  143.1410 C   0  0  0  0  0  2  0  0  0  0  0  0
  190.6070  178.2020  142.2630 O   0  0  0  0  0  0  0  0  0  0  0  0
  188.6490  177.2020  141.6730 O   0  0  0  0  0  1  0  0  0  0  0  0
  190.0370  177.1650  141.5220 C   0  0  1  0  0  3  0  0  0  0  0  0
  190.0060  176.6920  137.3490 O   0  0  0  0  0  0  0  0  0  0  0  0
  190.8040  174.1170  136.3080 C   0  0  0  0  0  1  0  0  0  0  0  0
  189.6670  178.0050  137.7980 C   0  0  2  0  0  3  0  0  0  0  0  0
  189.2720  177.9830  139.2710 C   0  0  0  0  0  2  0  0  0  0  0  0
  190.4040  177.3150  140.0490 C   0  0  2  0  0  3  0  0  0  0  0  0
  190.9590  174.4620  137.7110 N   0  0  0  0  0  2  0  0  0  0  0  0
  190.5800  175.7440  138.2080 C   0  0  0  0  0  0  0  0  0  0  0  0
  190.7310  176.0070  139.4710 N   0  0  0  0  0  0  0  0  0  0  0  0
  188.5710  178.6110  136.9270 C   0  0  0  0  0  2  0  0  0  0  0  0
  188.2570  177.7370  135.7210 C   0  0  0  0  0  1  0  0  0  0  0  0
  2  1  1  1  0  0  0
  3  2  1  0  0  0  0
  4  3  1  0  0  0  0
  5 13  1  0  0  0  0
  6  9  1  0  0  0  0
  6 24  1  6  0  0  0
  7  9  1  0  0  0  0
  8 14  1  0  0  0  0
  8 15  2  0  0  0  0
 10 14  2  0  0  0  0
 11 12  1  1  0  0  0
 11  7  1  0  0  0  0
 12  6  1  0  0  0  0
 13  4  1  0  0  0  0
 14  5  1  0  0  0  0
 15  7  1  0  0  0  0
 15 13  1  0  0  0  0
 17 16  1  6  0  0  0
 17 20  1  0  0  0  0
 18 17  1  0  0  0  0
 18 22  1  0  0  0  0
 19 20  1  6  0  0  0
 19 11  1  0  0  0  0
 21 19  1  0  0  0  0
 22 21  1  0  0  0  0
 23 24  1  0  0  0  0
 25  2  1  0  0  0  0
 25 26  1  0  0  0  0
 26 27  1  0  0  0  0
 27 32  1  0  0  0  0
 29 31  1  0  0  0  0
 29 30  2  0  0  0  0
 30 32  1  0  0  0  0
 31 27  1  0  0  0  0
 32 28  1  1  0  0  0
 33 29  1  0  0  0  0
 34 33  1  0  0  0  0
 36 35  1  6  0  0  0
 36 34  1  0  0  0  0
 37 39  1  0  0  0  0
 37 43  1  0  0  0  0
 38 42  1  0  0  0  0
 39 45  1  6  0  0  0
 39 40  1  0  0  0  0
 40 41  1  0  0  0  0
 41 36  1  1  0  0  0
 42 43  1  0  0  0  0
 43 44  2  0  0  0  0
 44 41  1  0  0  0  0
 46 45  1  0  0  0  0
M  END
>  <MODEL>
1

>  <REMARK>
 VINA RESULT:      -8.5      0.000      0.000
  Name = 
  13 active torsions:
  status: ('A' for Active; 'I' for Inactive)
    1  A    between atoms: N_4  and  C_6
    2  A    between atoms: C_6  and  C_34
    3  A    between atoms: C_7  and  O_28
    4  A    between atoms: C_7  and  C_36
    5  A    between atoms: C_11  and  C_16
    6  A    between atoms: C_13  and  C_18
    7  A    between atoms: C_14  and  C_32
    8  A    between atoms: C_26  and  C_27
    9  A    between atoms: C_26  and  O_28
   10  A    between atoms: N_29  and  C_35
   11  A    between atoms: N_29  and  C_39
   12  A    between atoms: C_34  and  C_35
   13  A    between atoms: N_37  and  C_39
                            x       y       z     vdW  Elec       q    Type
                         _______ _______ _______ _____ _____    ______ ____

>  <TORSDO>
F 13

$$$$
=
 OpenBabel10222416183D

 46 50  0  0  1  0  0  0  0  0999 V2000
  185.8050  178.5600  147.2070 C   0  0  0  0  0  1  0  0  0  0  0  0
  185.8310  178.2690  145.7180 C   0  0  1  0  0  3  0  0  0  0  0  0
  185.2430  179.3870  145.0010 N   0  0  0  0  0  2  0  0  0  0  0  0
  184.9830  178.9480  143.6370 C   0  0  0  0  0  2  0  0  0  0  0  0
  182.6080  178.6860  144.5490 C   0  0  0  0  0  2  0  0  0  0  0  0
  185.0460  178.8450  139.1880 C   0  0  2  0  0  3  0  0  0  0  0  0
  183.4080  178.8060  140.9160 N   0  0  0  0  0  0  0  0  0  0  0  0
  181.5320  178.8250  142.3960 N   0  0  0  0  0  0  0  0  0  0  0  0
  184.8200  178.5890  140.6700 C   0  0  0  0  0  2  0  0  0  0  0  0
  180.1890  178.7750  144.3320 O   0  0  0  0  0  0  0  0  0  0  0  0
  182.6700  179.1460  139.7110 C   0  0  1  0  0  3  0  0  0  0  0  0
  183.7080  179.2730  138.6010 C   0  0  0  0  0  2  0  0  0  0  0  0
  183.5570  178.7130  143.4500 N   0  0  0  0  0  0  0  0  0  0  0  0
  181.3290  178.7650  143.8000 C   0  0  0  0  0  0  0  0  0  0  0  0
  182.8140  178.7910  142.2260 C   0  0  0  0  0  0  0  0  0  0  0  0
  179.4320  177.4600  136.2890 C   0  0  0  0  0  1  0  0  0  0  0  0
  179.9430  177.2710  137.7010 C   0  0  1  0  0  3  0  0  0  0  0  0
  180.4780  175.8520  137.8660 C   0  0  0  0  0  2  0  0  0  0  0  0
  181.6040  178.0880  139.3930 C   0  0  1  0  0  3  0  0  0  0  0  0
  181.0460  178.2870  137.9840 C   0  0  0  0  0  2  0  0  0  0  0  0
  182.1180  176.6540  139.5770 C   0  0  0  0  0  2  0  0  0  0  0  0
  181.0070  175.6510  139.2830 C   0  0  0  0  0  2  0  0  0  0  0  0
  184.9450  177.4860  137.0980 C   0  0  0  0  0  1  0  0  0  0  0  0
  185.5170  177.5750  138.5000 C   0  0  0  0  0  2  0  0  0  0  0  0
  187.2630  178.0620  145.2490 C   0  0  0  0  0  2  0  0  0  0  0  0
  188.1170  177.4420  146.3470 C   0  0  0  0  0  2  0  0  0  0  0  0
  189.4840  177.9360  146.2650 N   0  0  0  0  0  0  0  0  0  0  0  0
  191.2780  177.1760  147.6510 N   0  0  0  0  0  1  0  0  0  0  0  0
  190.7380  177.3200  144.4560 C   0  0  0  0  0  0  0  0  0  0  0  0
  191.1530  176.5220  145.3670 N   0  0  0  0  0  0  0  0  0  0  0  0
  189.7430  178.2010  144.9130 N   0  0  0  0  0  2  0  0  0  0  0  0
  190.3790  176.8050  146.5720 C   0  0  2  0  0  3  0  0  0  0  0  0
  191.3260  177.3760  143.0920 C   0  0  0  0  0  2  0  0  0  0  0  0
  190.4960  178.1270  142.2560 O   0  0  0  0  0  0  0  0  0  0  0  0
  188.4570  177.3820  141.5710 O   0  0  0  0  0  1  0  0  0  0  0  0
  189.8360  177.1830  141.4660 C   0  0  1  0  0  3  0  0  0  0  0  0
  190.0240  176.6630  137.3030 O   0  0  0  0  0  0  0  0  0  0  0  0
  190.9340  174.0970  136.3350 C   0  0  0  0  0  1  0  0  0  0  0  0
  189.6320  177.9730  137.7180 C   0  0  2  0  0  3  0  0  0  0  0  0
  189.1650  177.9580  139.1700 C   0  0  0  0  0  2  0  0  0  0  0  0
  190.2720  177.3260  140.0120 C   0  0  2  0  0  3  0  0  0  0  0  0
  191.0110  174.4620  137.7390 N   0  0  0  0  0  2  0  0  0  0  0  0
  190.5770  175.7390  138.2010 C   0  0  0  0  0  0  0  0  0  0  0  0
  190.6580  176.0200  139.4670 N   0  0  0  0  0  0  0  0  0  0  0  0
  188.5670  178.5420  136.7870 C   0  0  0  0  0  2  0  0  0  0  0  0
  188.4150  177.7090  135.5230 C   0  0  0  0  0  1  0  0  0  0  0  0
  2  1  1  1  0  0  0
  3  2  1  0  0  0  0
  4  3  1  0  0  0  0
  6 24  1  6  0  0  0
  6  9  1  0  0  0  0
  7 15  1  0  0  0  0
  8 14  1  0  0  0  0
  9  7  1  0  0  0  0
 11 12  1  6  0  0  0
 11  7  1  0  0  0  0
 12  6  1  0  0  0  0
 13  4  1  0  0  0  0
 13  5  1  0  0  0  0
 14 10  2  0  0  0  0
 14  5  1  0  0  0  0
 15  8  2  0  0  0  0
 15 13  1  0  0  0  0
 17 16  1  6  0  0  0
 17 18  1  0  0  0  0
 17 20  1  0  0  0  0
 18 22  1  0  0  0  0
 19 20  1  6  0  0  0
 19 21  1  0  0  0  0
 19 11  1  0  0  0  0
 22 21  1  0  0  0  0
 23 24  1  0  0  0  0
 25  2  1  0  0  0  0
 25 26  1  0  0  0  0
 27 26  1  0  0  0  0
 27 32  1  0  0  0  0
 29 31  1  0  0  0  0
 29 30  2  0  0  0  0
 30 32  1  0  0  0  0
 31 27  1  0  0  0  0
 32 28  1  1  0  0  0
 33 29  1  0  0  0  0
 34 33  1  0  0  0  0
 36 35  1  6  0  0  0
 36 34  1  0  0  0  0
 37 39  1  0  0  0  0
 37 43  1  0  0  0  0
 38 42  1  0  0  0  0
 39 45  1  6  0  0  0
 39 40  1  0  0  0  0
 40 41  1  0  0  0  0
 41 36  1  1  0  0  0
 42 43  1  0  0  0  0
 43 44  2  0  0  0  0
 44 41  1  0  0  0  0
 46 45  1  0  0  0  0
M  END
>  <MODEL>
2

>  <REMARK>
 VINA RESULT:      -8.5      1.637      3.030
  Name = 
  13 active torsions:
  status: ('A' for Active; 'I' for Inactive)
    1  A    between atoms: N_4  and  C_6
    2  A    between atoms: C_6  and  C_34
    3  A    between atoms: C_7  and  O_28
    4  A    between atoms: C_7  and  C_36
    5  A    between atoms: C_11  and  C_16
    6  A    between atoms: C_13  and  C_18
    7  A    between atoms: C_14  and  C_32
    8  A    between atoms: C_26  and  C_27
    9  A    between atoms: C_26  and  O_28
   10  A    between atoms: N_29  and  C_35
   11  A    between atoms: N_29  and  C_39
   12  A    between atoms: C_34  and  C_35
   13  A    between atoms: N_37  and  C_39
                            x       y       z     vdW  Elec       q    Type
                         _______ _______ _______ _____ _____    ______ ____

>  <TORSDO>
F 13

$$$$
=
 OpenBabel10222416183D

 46 50  0  0  1  0  0  0  0  0999 V2000
  188.6060  178.6840  136.8550 C   0  0  0  0  0  1  0  0  0  0  0  0
  187.6980  177.6780  137.5370 C   0  0  1  0  0  3  0  0  0  0  0  0
  186.9240  178.3520  138.5660 N   0  0  0  0  0  2  0  0  0  0  0  0
  187.7470  178.4130  139.7670 C   0  0  0  0  0  2  0  0  0  0  0  0
  185.5150  178.9760  140.8830 C   0  0  0  0  0  2  0  0  0  0  0  0
  190.6910  176.8360  142.7080 C   0  0  2  0  0  3  0  0  0  0  0  0
  188.4070  177.5070  142.7080 N   0  0  0  0  0  0  0  0  0  0  0  0
  186.0960  178.0280  143.0220 N   0  0  0  0  0  0  0  0  0  0  0  0
  189.6370  177.6280  141.9510 C   0  0  0  0  0  2  0  0  0  0  0  0
  183.8920  178.7910  142.6820 O   0  0  0  0  0  0  0  0  0  0  0  0
  188.5670  176.7310  143.9270 C   0  0  1  0  0  3  0  0  0  0  0  0
  189.9980  176.2070  143.9080 C   0  0  0  0  0  2  0  0  0  0  0  0
  186.9010  178.5480  140.9460 N   0  0  0  0  0  0  0  0  0  0  0  0
  185.0580  178.6110  142.2460 C   0  0  0  0  0  0  0  0  0  0  0  0
  187.1370  178.0080  142.2550 C   0  0  0  0  0  0  0  0  0  0  0  0
  185.0490  178.2560  147.1420 C   0  0  0  0  0  1  0  0  0  0  0  0
  186.5060  178.3900  146.7540 C   0  0  1  0  0  3  0  0  0  0  0  0
  187.3890  178.0000  147.9350 C   0  0  0  0  0  2  0  0  0  0  0  0
  188.2750  177.5830  145.1710 C   0  0  1  0  0  3  0  0  0  0  0  0
  186.7980  177.4910  145.5560 C   0  0  0  0  0  2  0  0  0  0  0  0
  189.1710  177.2200  146.3620 C   0  0  0  0  0  2  0  0  0  0  0  0
  188.8610  178.1220  147.5530 C   0  0  0  0  0  2  0  0  0  0  0  0
  191.2140  179.0170  143.8020 C   0  0  0  0  0  1  0  0  0  0  0  0
  191.7990  177.7580  143.1890 C   0  0  0  0  0  2  0  0  0  0  0  0
  186.7520  177.0530  136.5220 C   0  0  0  0  0  2  0  0  0  0  0  0
  185.4050  176.7310  137.1530 C   0  0  0  0  0  2  0  0  0  0  0  0
  184.7070  175.7220  136.3690 N   0  0  0  0  0  0  0  0  0  0  0  0
  185.5750  173.5450  135.8910 N   0  0  0  0  0  1  0  0  0  0  0  0
  182.8960  174.6960  137.3130 C   0  0  0  0  0  0  0  0  0  0  0  0
  183.8230  173.8290  137.4770 N   0  0  0  0  0  0  0  0  0  0  0  0
  183.3400  175.8550  136.6540 N   0  0  0  0  0  2  0  0  0  0  0  0
  185.0520  174.4060  136.9380 C   0  0  2  0  0  3  0  0  0  0  0  0
  181.4770  174.4520  137.6860 C   0  0  0  0  0  2  0  0  0  0  0  0
  180.7350  175.6170  137.4820 O   0  0  0  0  0  0  0  0  0  0  0  0
  180.1450  174.6930  139.4770 O   0  0  0  0  0  1  0  0  0  0  0  0
  179.7670  175.6050  138.4900 C   0  0  1  0  0  3  0  0  0  0  0  0
  180.4860  178.9990  140.8580 O   0  0  0  0  0  0  0  0  0  0  0  0
  180.0080  178.7500  143.6970 C   0  0  0  0  0  1  0  0  0  0  0  0
  180.6760  179.2050  139.4570 C   0  0  2  0  0  3  0  0  0  0  0  0
  180.8330  177.8700  138.7350 C   0  0  0  0  0  2  0  0  0  0  0  0
  179.6310  176.9990  139.0960 C   0  0  2  0  0  3  0  0  0  0  0  0
  179.6130  177.7160  142.7560 N   0  0  0  0  0  2  0  0  0  0  0  0
  179.8370  177.8600  141.3550 C   0  0  0  0  0  0  0  0  0  0  0  0
  179.4730  176.9070  140.5510 N   0  0  0  0  0  0  0  0  0  0  0  0
  181.8600  180.1300  139.2000 C   0  0  0  0  0  2  0  0  0  0  0  0
  181.4910  181.2810  138.2760 C   0  0  0  0  0  1  0  0  0  0  0  0
  2  1  1  6  0  0  0
  2  3  1  0  0  0  0
  3  4  1  0  0  0  0
  4 13  1  0  0  0  0
  5 13  1  0  0  0  0
  5 14  1  0  0  0  0
  6 24  1  1  0  0  0
  6 12  1  0  0  0  0
  7 11  1  0  0  0  0
  9  7  1  0  0  0  0
  9  6  1  0  0  0  0
 11 12  1  1  0  0  0
 11 19  1  0  0  0  0
 13 15  1  0  0  0  0
 14 10  2  0  0  0  0
 14  8  1  0  0  0  0
 15  7  1  0  0  0  0
 15  8  2  0  0  0  0
 17 16  1  1  0  0  0
 17 18  1  0  0  0  0
 19 20  1  1  0  0  0
 19 21  1  0  0  0  0
 20 17  1  0  0  0  0
 21 22  1  0  0  0  0
 22 18  1  0  0  0  0
 24 23  1  0  0  0  0
 25 26  1  0  0  0  0
 25  2  1  0  0  0  0
 27 31  1  0  0  0  0
 27 32  1  0  0  0  0
 27 26  1  0  0  0  0
 29 30  2  0  0  0  0
 29 33  1  0  0  0  0
 31 29  1  0  0  0  0
 32 28  1  6  0  0  0
 32 30  1  0  0  0  0
 34 33  1  0  0  0  0
 34 36  1  0  0  0  0
 36 35  1  1  0  0  0
 37 43  1  0  0  0  0
 39 45  1  1  0  0  0
 39 37  1  0  0  0  0
 40 41  1  0  0  0  0
 40 39  1  0  0  0  0
 41 36  1  1  0  0  0
 41 44  1  0  0  0  0
 42 38  1  0  0  0  0
 43 42  1  0  0  0  0
 44 43  2  0  0  0  0
 46 45  1  0  0  0  0
M  END
>  <MODEL>
3

>  <REMARK>
 VINA RESULT:      -8.2      3.023      9.913
  Name = 
  13 active torsions:
  status: ('A' for Active; 'I' for Inactive)
    1  A    between atoms: N_4  and  C_6
    2  A    between atoms: C_6  and  C_34
    3  A    between atoms: C_7  and  O_28
    4  A    between atoms: C_7  and  C_36
    5  A    between atoms: C_11  and  C_16
    6  A    between atoms: C_13  and  C_18
    7  A    between atoms: C_14  and  C_32
    8  A    between atoms: C_26  and  C_27
    9  A    between atoms: C_26  and  O_28
   10  A    between atoms: N_29  and  C_35
   11  A    between atoms: N_29  and  C_39
   12  A    between atoms: C_34  and  C_35
   13  A    between atoms: N_37  and  C_39
                            x       y       z     vdW  Elec       q    Type
                         _______ _______ _______ _____ _____    ______ ____

>  <TORSDO>
F 13

$$$$
=
 OpenBabel10222416183D

 46 50  0  0  1  0  0  0  0  0999 V2000
  182.8410  179.8580  138.7390 C   0  0  0  0  0  1  0  0  0  0  0  0
  184.1960  179.3660  139.2100 C   0  0  1  0  0  3  0  0  0  0  0  0
  184.2290  179.3710  140.6620 N   0  0  0  0  0  2  0  0  0  0  0  0
  185.5690  178.9770  141.0740 C   0  0  0  0  0  2  0  0  0  0  0  0
  184.5980  179.4250  143.3970 C   0  0  0  0  0  2  0  0  0  0  0  0
  189.4450  176.8030  141.3140 C   0  0  2  0  0  3  0  0  0  0  0  0
  187.7630  177.5510  142.8230 N   0  0  0  0  0  0  0  0  0  0  0  0
  186.2320  178.0990  144.5740 N   0  0  0  0  0  0  0  0  0  0  0  0
  188.2710  177.7540  141.4810 C   0  0  0  0  0  2  0  0  0  0  0  0
  184.4160  178.9930  145.7820 O   0  0  0  0  0  0  0  0  0  0  0  0
  188.5280  176.5710  143.5760 C   0  0  1  0  0  3  0  0  0  0  0  0
  189.5560  176.0020  142.6040 C   0  0  0  0  0  2  0  0  0  0  0  0
  185.6550  178.9380  142.5280 N   0  0  0  0  0  0  0  0  0  0  0  0
  185.0300  178.8460  144.6940 C   0  0  0  0  0  0  0  0  0  0  0  0
  186.5670  178.1720  143.3280 C   0  0  0  0  0  0  0  0  0  0  0  0
  188.0030  177.6010  148.4440 C   0  0  0  0  0  1  0  0  0  0  0  0
  188.9020  177.7680  147.2380 C   0  0  1  0  0  3  0  0  0  0  0  0
  190.2720  177.1650  147.5340 C   0  0  0  0  0  2  0  0  0  0  0  0
  189.1830  177.2050  144.8110 C   0  0  1  0  0  3  0  0  0  0  0  0
  188.2710  177.0800  146.0320 C   0  0  0  0  0  2  0  0  0  0  0  0
  190.5730  176.6260  145.1100 C   0  0  0  0  0  2  0  0  0  0  0  0
  191.1860  177.3190  146.3220 C   0  0  0  0  0  2  0  0  0  0  0  0
  191.8100  177.1150  142.0460 C   0  0  0  0  0  1  0  0  0  0  0  0
  190.7290  177.5840  141.0910 C   0  0  0  0  0  2  0  0  0  0  0  0
  184.4460  177.9530  138.7030 C   0  0  0  0  0  2  0  0  0  0  0  0
  183.2560  177.0490  138.9890 C   0  0  0  0  0  2  0  0  0  0  0  0
  182.9460  176.2350  137.8220 N   0  0  0  0  0  0  0  0  0  0  0  0
  182.8100  177.0760  135.5870 N   0  0  0  0  0  1  0  0  0  0  0  0
  184.5420  174.7760  137.0810 C   0  0  0  0  0  0  0  0  0  0  0  0
  184.6700  175.7610  136.2750 N   0  0  0  0  0  0  0  0  0  0  0  0
  183.5290  174.9770  138.0340 N   0  0  0  0  0  2  0  0  0  0  0  0
  183.7130  176.7830  136.6870 C   0  0  2  0  0  3  0  0  0  0  0  0
  185.3120  173.5100  136.9510 C   0  0  0  0  0  2  0  0  0  0  0  0
  186.5760  173.6730  137.5230 O   0  0  0  0  0  0  0  0  0  0  0  0
  186.7770  173.1240  135.3230 O   0  0  0  0  0  1  0  0  0  0  0  0
  187.4730  173.2940  136.5220 C   0  0  1  0  0  3  0  0  0  0  0  0
  190.1810  176.3820  137.3990 O   0  0  0  0  0  0  0  0  0  0  0  0
  189.0650  178.9540  138.0970 C   0  0  0  0  0  1  0  0  0  0  0  0
  190.7930  175.1550  136.9970 C   0  0  2  0  0  3  0  0  0  0  0  0
  189.8100  173.9960  137.1280 C   0  0  0  0  0  2  0  0  0  0  0  0
  188.5460  174.3640  136.3530 C   0  0  2  0  0  3  0  0  0  0  0  0
  188.2420  177.8710  137.5880 N   0  0  0  0  0  2  0  0  0  0  0  0
  188.8080  176.6120  137.2280 C   0  0  0  0  0  0  0  0  0  0  0  0
  188.0340  175.6700  136.7830 N   0  0  0  0  0  0  0  0  0  0  0  0
  192.0740  174.9030  137.7850 C   0  0  0  0  0  2  0  0  0  0  0  0
  192.9200  176.1620  137.9100 C   0  0  0  0  0  1  0  0  0  0  0  0
  2  1  1  1  0  0  0
  2  3  1  0  0  0  0
  3  4  1  0  0  0  0
  4 13  1  0  0  0  0
  5 14  1  0  0  0  0
  6 24  1  1  0  0  0
  6  9  1  0  0  0  0
  6 12  1  0  0  0  0
  7 15  1  0  0  0  0
  7 11  1  0  0  0  0
  8 14  1  0  0  0  0
  9  7  1  0  0  0  0
 11 12  1  6  0  0  0
 11 19  1  0  0  0  0
 13 15  1  0  0  0  0
 13  5  1  0  0  0  0
 14 10  2  0  0  0  0
 15  8  2  0  0  0  0
 17 18  1  0  0  0  0
 17 16  1  1  0  0  0
 19 21  1  1  0  0  0
 19 20  1  0  0  0  0
 20 17  1  0  0  0  0
 21 22  1  0  0  0  0
 22 18  1  0  0  0  0
 24 23  1  0  0  0  0
 25 26  1  0  0  0  0
 25  2  1  0  0  0  0
 27 31  1  0  0  0  0
 27 26  1  0  0  0  0
 29 31  1  0  0  0  0
 30 32  1  0  0  0  0
 30 29  2  0  0  0  0
 32 28  1  6  0  0  0
 32 27  1  0  0  0  0
 33 29  1  0  0  0  0
 33 34  1  0  0  0  0
 36 35  1  6  0  0  0
 36 34  1  0  0  0  0
 39 40  1  0  0  0  0
 39 37  1  0  0  0  0
 39 45  1  1  0  0  0
 41 36  1  1  0  0  0
 41 44  1  0  0  0  0
 41 40  1  0  0  0  0
 42 38  1  0  0  0  0
 43 37  1  0  0  0  0
 43 42  1  0  0  0  0
 44 43  2  0  0  0  0
 45 46  1  0  0  0  0
M  END
>  <MODEL>
4

>  <REMARK>
 VINA RESULT:      -8.1      3.011      8.698
  Name = 
  13 active torsions:
  status: ('A' for Active; 'I' for Inactive)
    1  A    between atoms: N_4  and  C_6
    2  A    between atoms: C_6  and  C_34
    3  A    between atoms: C_7  and  O_28
    4  A    between atoms: C_7  and  C_36
    5  A    between atoms: C_11  and  C_16
    6  A    between atoms: C_13  and  C_18
    7  A    between atoms: C_14  and  C_32
    8  A    between atoms: C_26  and  C_27
    9  A    between atoms: C_26  and  O_28
   10  A    between atoms: N_29  and  C_35
   11  A    between atoms: N_29  and  C_39
   12  A    between atoms: C_34  and  C_35
   13  A    between atoms: N_37  and  C_39
                            x       y       z     vdW  Elec       q    Type
                         _______ _______ _______ _____ _____    ______ ____

>  <TORSDO>
F 13

$$$$
=
 OpenBabel10222416183D

 46 50  0  0  1  0  0  0  0  0999 V2000
  188.5390  172.1210  135.0820 C   0  0  0  0  0  1  0  0  0  0  0  0
  189.0760  173.4460  135.5870 C   0  0  1  0  0  3  0  0  0  0  0  0
  188.1130  174.0370  136.5000 N   0  0  0  0  0  2  0  0  0  0  0  0
  187.3510  175.0300  135.7540 C   0  0  0  0  0  2  0  0  0  0  0  0
  188.4810  177.0750  136.7930 C   0  0  0  0  0  2  0  0  0  0  0  0
  182.9200  175.2620  136.0970 C   0  0  2  0  0  3  0  0  0  0  0  0
  184.7890  176.6430  136.6150 N   0  0  0  0  0  0  0  0  0  0  0  0
  186.4310  178.2840  137.1790 N   0  0  0  0  0  0  0  0  0  0  0  0
  184.4220  175.2700  136.3270 C   0  0  0  0  0  2  0  0  0  0  0  0
  188.4820  179.3710  137.5900 O   0  0  0  0  0  0  0  0  0  0  0  0
  183.6460  177.5410  136.6350 C   0  0  1  0  0  3  0  0  0  0  0  0
  182.4440  176.7040  136.2120 C   0  0  0  0  0  2  0  0  0  0  0  0
  187.3010  176.2830  136.4960 N   0  0  0  0  0  0  0  0  0  0  0  0
  187.8500  178.3470  137.2240 C   0  0  0  0  0  0  0  0  0  0  0  0
  186.1470  177.0930  136.7630 C   0  0  0  0  0  0  0  0  0  0  0  0
  180.6290  180.2810  139.5380 C   0  0  0  0  0  1  0  0  0  0  0  0
  181.9720  179.5880  139.4630 C   0  0  1  0  0  3  0  0  0  0  0  0
  182.0790  178.5560  140.5820 C   0  0  0  0  0  2  0  0  0  0  0  0
  183.4580  178.1720  138.0220 C   0  0  1  0  0  3  0  0  0  0  0  0
  182.1220  178.9110  138.1040 C   0  0  0  0  0  2  0  0  0  0  0  0
  183.5860  177.1520  139.1610 C   0  0  0  0  0  2  0  0  0  0  0  0
  183.4260  177.8420  140.5120 C   0  0  0  0  0  2  0  0  0  0  0  0
  180.9570  175.0920  137.6290 C   0  0  0  0  0  1  0  0  0  0  0  0
  182.2300  174.4150  137.1530 C   0  0  0  0  0  2  0  0  0  0  0  0
  190.3970  173.2350  136.3130 C   0  0  0  0  0  2  0  0  0  0  0  0
  191.2000  174.5270  136.3780 C   0  0  0  0  0  2  0  0  0  0  0  0
  191.8580  174.6500  137.6710 N   0  0  0  0  0  0  0  0  0  0  0  0
  194.2020  175.0220  137.9630 N   0  0  0  0  0  1  0  0  0  0  0  0
  191.4950  176.5550  138.8800 C   0  0  0  0  0  0  0  0  0  0  0  0
  192.6400  176.7740  138.3530 N   0  0  0  0  0  0  0  0  0  0  0  0
  190.9600  175.3040  138.5260 N   0  0  0  0  0  2  0  0  0  0  0  0
  192.9570  175.6210  137.5150 C   0  0  2  0  0  3  0  0  0  0  0  0
  190.8520  177.4820  139.8480 C   0  0  0  0  0  2  0  0  0  0  0  0
  189.5810  177.0060  140.1770 O   0  0  0  0  0  0  0  0  0  0  0  0
  187.9410  178.4820  140.7380 O   0  0  0  0  0  1  0  0  0  0  0  0
  189.1210  177.8720  141.1720 C   0  0  1  0  0  3  0  0  0  0  0  0
  188.8230  176.9280  145.2530 O   0  0  0  0  0  0  0  0  0  0  0  0
  191.2910  176.7190  146.7410 C   0  0  0  0  0  1  0  0  0  0  0  0
  187.5740  176.9510  144.5590 C   0  0  2  0  0  3  0  0  0  0  0  0
  187.7060  177.7130  143.2440 C   0  0  0  0  0  2  0  0  0  0  0  0
  188.8620  177.0960  142.4590 C   0  0  2  0  0  3  0  0  0  0  0  0
  191.2730  176.8470  145.2940 N   0  0  0  0  0  2  0  0  0  0  0  0
  190.0480  176.9290  144.5700 C   0  0  0  0  0  0  0  0  0  0  0  0
  190.0790  177.0480  143.2770 N   0  0  0  0  0  0  0  0  0  0  0  0
  186.4730  177.5290  145.4400 C   0  0  0  0  0  2  0  0  0  0  0  0
  187.0360  178.2010  146.6840 C   0  0  0  0  0  1  0  0  0  0  0  0
  2  1  1  1  0  0  0
  2 25  1  0  0  0  0
  2  3  1  0  0  0  0
  4 13  1  0  0  0  0
  4  3  1  0  0  0  0
  5 14  1  0  0  0  0
  6 12  1  0  0  0  0
  6  9  1  0  0  0  0
  6 24  1  1  0  0  0
  7 11  1  0  0  0  0
  7 15  1  0  0  0  0
  8 14  1  0  0  0  0
  9  7  1  0  0  0  0
 11 12  1  1  0  0  0
 11 19  1  0  0  0  0
 13 15  1  0  0  0  0
 13  5  1  0  0  0  0
 14 10  2  0  0  0  0
 15  8  2  0  0  0  0
 17 16  1  6  0  0  0
 17 18  1  0  0  0  0
 19 20  1  6  0  0  0
 19 21  1  0  0  0  0
 20 17  1  0  0  0  0
 21 22  1  0  0  0  0
 22 18  1  0  0  0  0
 24 23  1  0  0  0  0
 25 26  1  0  0  0  0
 26 27  1  0  0  0  0
 27 31  1  0  0  0  0
 29 33  1  0  0  0  0
 30 29  2  0  0  0  0
 31 29  1  0  0  0  0
 32 27  1  0  0  0  0
 32 28  1  1  0  0  0
 32 30  1  0  0  0  0
 33 34  1  0  0  0  0
 34 36  1  0  0  0  0
 36 35  1  6  0  0  0
 39 37  1  0  0  0  0
 39 45  1  1  0  0  0
 40 39  1  0  0  0  0
 41 36  1  6  0  0  0
 41 40  1  0  0  0  0
 41 44  1  0  0  0  0
 42 38  1  0  0  0  0
 43 37  1  0  0  0  0
 43 42  1  0  0  0  0
 44 43  2  0  0  0  0
 45 46  1  0  0  0  0
M  END
>  <MODEL>
5

>  <REMARK>
 VINA RESULT:      -7.9      2.472      7.165
  Name = 
  13 active torsions:
  status: ('A' for Active; 'I' for Inactive)
    1  A    between atoms: N_4  and  C_6
    2  A    between atoms: C_6  and  C_34
    3  A    between atoms: C_7  and  O_28
    4  A    between atoms: C_7  and  C_36
    5  A    between atoms: C_11  and  C_16
    6  A    between atoms: C_13  and  C_18
    7  A    between atoms: C_14  and  C_32
    8  A    between atoms: C_26  and  C_27
    9  A    between atoms: C_26  and  O_28
   10  A    between atoms: N_29  and  C_35
   11  A    between atoms: N_29  and  C_39
   12  A    between atoms: C_34  and  C_35
   13  A    between atoms: N_37  and  C_39
                            x       y       z     vdW  Elec       q    Type
                         _______ _______ _______ _____ _____    ______ ____

>  <TORSDO>
F 13

$$$$
=
 OpenBabel10222416183D

 46 50  0  0  1  0  0  0  0  0999 V2000
  182.8710  177.7900  140.5510 C   0  0  0  0  0  1  0  0  0  0  0  0
  183.6600  178.7220  139.6520 C   0  0  1  0  0  3  0  0  0  0  0  0
  184.4130  179.6550  140.4720 N   0  0  0  0  0  2  0  0  0  0  0  0
  185.5880  178.9540  140.9710 C   0  0  0  0  0  2  0  0  0  0  0  0
  184.5080  179.5040  143.2230 C   0  0  0  0  0  2  0  0  0  0  0  0
  189.4210  176.7530  141.4930 C   0  0  2  0  0  3  0  0  0  0  0  0
  187.6740  177.5770  142.8840 N   0  0  0  0  0  0  0  0  0  0  0  0
  186.0650  178.2110  144.5330 N   0  0  0  0  0  0  0  0  0  0  0  0
  188.2520  177.7220  141.5630 C   0  0  0  0  0  2  0  0  0  0  0  0
  184.2010  179.1700  145.6110 O   0  0  0  0  0  0  0  0  0  0  0  0
  188.3890  176.6210  143.7120 C   0  0  1  0  0  3  0  0  0  0  0  0
  189.4580  176.0040  142.8170 C   0  0  0  0  0  2  0  0  0  0  0  0
  185.6010  178.9730  142.4280 N   0  0  0  0  0  0  0  0  0  0  0  0
  184.8670  178.9740  144.5620 C   0  0  0  0  0  0  0  0  0  0  0  0
  186.4620  178.2300  143.3020 C   0  0  0  0  0  0  0  0  0  0  0  0
  187.7280  177.6570  148.5630 C   0  0  0  0  0  1  0  0  0  0  0  0
  188.6380  177.8630  147.3710 C   0  0  1  0  0  3  0  0  0  0  0  0
  190.0320  177.3340  147.6940 C   0  0  0  0  0  2  0  0  0  0  0  0
  188.9890  177.2970  144.9540 C   0  0  1  0  0  3  0  0  0  0  0  0
  188.0640  177.1340  146.1600 C   0  0  0  0  0  2  0  0  0  0  0  0
  190.4020  176.7940  145.2800 C   0  0  0  0  0  2  0  0  0  0  0  0
  190.9570  177.5270  146.4970 C   0  0  0  0  0  2  0  0  0  0  0  0
  191.7800  177.0030  142.2670 C   0  0  0  0  0  1  0  0  0  0  0  0
  190.7240  177.5120  141.3040 C   0  0  0  0  0  2  0  0  0  0  0  0
  184.6200  177.9230  138.7820 C   0  0  0  0  0  2  0  0  0  0  0  0
  183.8960  177.2940  137.6000 C   0  0  0  0  0  2  0  0  0  0  0  0
  183.8430  175.8470  137.7510 N   0  0  0  0  0  0  0  0  0  0  0  0
  181.8460  174.5430  137.5670 N   0  0  0  0  0  1  0  0  0  0  0  0
  184.7300  174.5640  136.0800 C   0  0  0  0  0  0  0  0  0  0  0  0
  183.4750  174.5150  135.8320 N   0  0  0  0  0  0  0  0  0  0  0  0
  185.0330  175.3360  137.2140 N   0  0  0  0  0  2  0  0  0  0  0  0
  182.8060  175.3460  136.8290 C   0  0  2  0  0  3  0  0  0  0  0  0
  185.7430  173.7950  135.3110 C   0  0  0  0  0  2  0  0  0  0  0  0
  186.9980  174.3850  135.4730 O   0  0  0  0  0  0  0  0  0  0  0  0
  188.4290  172.6140  135.4770 O   0  0  0  0  0  1  0  0  0  0  0  0
  187.7080  173.4970  136.2850 C   0  0  1  0  0  3  0  0  0  0  0  0
  190.9710  175.8080  137.5720 O   0  0  0  0  0  0  0  0  0  0  0  0
  193.5830  174.5780  137.4550 C   0  0  0  0  0  1  0  0  0  0  0  0
  189.7010  176.4460  137.7170 C   0  0  2  0  0  3  0  0  0  0  0  0
  188.6530  175.7590  136.8460 C   0  0  0  0  0  2  0  0  0  0  0  0
  188.6630  174.2700  137.1890 C   0  0  2  0  0  3  0  0  0  0  0  0
  192.3660  173.8210  137.2240 N   0  0  0  0  0  2  0  0  0  0  0  0
  191.0810  174.4350  137.3040 C   0  0  0  0  0  0  0  0  0  0  0  0
  190.0190  173.7210  137.0840 N   0  0  0  0  0  0  0  0  0  0  0  0
  189.8030  177.9350  137.4100 C   0  0  0  0  0  2  0  0  0  0  0  0
  188.8080  178.7520  138.2210 C   0  0  0  0  0  1  0  0  0  0  0  0
  2  3  1  0  0  0  0
  2  1  1  1  0  0  0
  3  4  1  0  0  0  0
  4 13  1  0  0  0  0
  5 14  1  0  0  0  0
  6 24  1  1  0  0  0
  6  9  1  0  0  0  0
  6 12  1  0  0  0  0
  7 15  1  0  0  0  0
  7 11  1  0  0  0  0
  8 14  1  0  0  0  0
  9  7  1  0  0  0  0
 11 12  1  6  0  0  0
 11 19  1  0  0  0  0
 13  5  1  0  0  0  0
 13 15  1  0  0  0  0
 14 10  2  0  0  0  0
 15  8  2  0  0  0  0
 17 18  1  0  0  0  0
 17 16  1  1  0  0  0
 19 21  1  1  0  0  0
 19 20  1  0  0  0  0
 20 17  1  0  0  0  0
 21 22  1  0  0  0  0
 22 18  1  0  0  0  0
 24 23  1  0  0  0  0
 25  2  1  0  0  0  0
 26 27  1  0  0  0  0
 26 25  1  0  0  0  0
 29 31  1  0  0  0  0
 30 29  2  0  0  0  0
 30 32  1  0  0  0  0
 31 27  1  0  0  0  0
 32 28  1  1  0  0  0
 32 27  1  0  0  0  0
 33 34  1  0  0  0  0
 33 29  1  0  0  0  0
 34 36  1  0  0  0  0
 36 35  1  6  0  0  0
 37 39  1  0  0  0  0
 39 45  1  6  0  0  0
 40 41  1  0  0  0  0
 40 39  1  0  0  0  0
 41 36  1  6  0  0  0
 42 43  1  0  0  0  0
 42 38  1  0  0  0  0
 43 37  1  0  0  0  0
 44 41  1  0  0  0  0
 44 43  2  0  0  0  0
 45 46  1  0  0  0  0
M  END
>  <MODEL>
6

>  <REMARK>
 VINA RESULT:      -7.7      3.026      8.571
  Name = 
  13 active torsions:
  status: ('A' for Active; 'I' for Inactive)
    1  A    between atoms: N_4  and  C_6
    2  A    between atoms: C_6  and  C_34
    3  A    between atoms: C_7  and  O_28
    4  A    between atoms: C_7  and  C_36
    5  A    between atoms: C_11  and  C_16
    6  A    between atoms: C_13  and  C_18
    7  A    between atoms: C_14  and  C_32
    8  A    between atoms: C_26  and  C_27
    9  A    between atoms: C_26  and  O_28
   10  A    between atoms: N_29  and  C_35
   11  A    between atoms: N_29  and  C_39
   12  A    between atoms: C_34  and  C_35
   13  A    between atoms: N_37  and  C_39
                            x       y       z     vdW  Elec       q    Type
                         _______ _______ _______ _____ _____    ______ ____

>  <TORSDO>
F 13

$$$$
=
 OpenBabel10222416183D

 46 50  0  0  1  0  0  0  0  0999 V2000
  191.5360  176.3000  143.8330 C   0  0  0  0  0  1  0  0  0  0  0  0
  191.2990  177.7910  143.6840 C   0  0  1  0  0  3  0  0  0  0  0  0
  190.9550  178.0860  142.3040 N   0  0  0  0  0  2  0  0  0  0  0  0
  190.2080  176.9490  141.7830 C   0  0  0  0  0  2  0  0  0  0  0  0
  187.9270  178.1060  141.7720 C   0  0  0  0  0  2  0  0  0  0  0  0
  191.4830  175.8160  137.6720 C   0  0  2  0  0  3  0  0  0  0  0  0
  189.6710  176.9840  138.6820 N   0  0  0  0  0  0  0  0  0  0  0  0
  187.7730  178.2600  139.3720 N   0  0  0  0  0  0  0  0  0  0  0  0
  190.7400  176.0500  138.9770 C   0  0  0  0  0  2  0  0  0  0  0  0
  186.1260  179.3210  140.6830 O   0  0  0  0  0  0  0  0  0  0  0  0
  189.6190  177.3580  137.2780 C   0  0  1  0  0  3  0  0  0  0  0  0
  190.8270  176.7000  136.6210 C   0  0  0  0  0  2  0  0  0  0  0  0
  189.0080  177.4100  141.0970 N   0  0  0  0  0  0  0  0  0  0  0  0
  187.1740  178.6300  140.6060 C   0  0  0  0  0  0  0  0  0  0  0  0
  188.8150  177.5620  139.6830 C   0  0  0  0  0  0  0  0  0  0  0  0
  186.0160  173.8860  137.2170 C   0  0  0  0  0  1  0  0  0  0  0  0
  186.5150  175.1570  136.5640 C   0  0  1  0  0  3  0  0  0  0  0  0
  185.4440  176.2380  136.6640 C   0  0  0  0  0  2  0  0  0  0  0  0
  188.2960  176.9210  136.6340 C   0  0  1  0  0  3  0  0  0  0  0  0
  187.7960  175.6160  137.2540 C   0  0  0  0  0  2  0  0  0  0  0  0
  187.2140  178.0070  136.7040 C   0  0  0  0  0  2  0  0  0  0  0  0
  185.9380  177.5290  136.0170 C   0  0  0  0  0  2  0  0  0  0  0  0
  192.7250  173.8130  136.8520 C   0  0  0  0  0  1  0  0  0  0  0  0
  191.3670  174.3600  137.2530 C   0  0  0  0  0  2  0  0  0  0  0  0
  190.1630  178.2350  144.5940 C   0  0  0  0  0  2  0  0  0  0  0  0
  190.2190  177.5130  145.9330 C   0  0  0  0  0  2  0  0  0  0  0  0
  188.9080  176.9800  146.2760 N   0  0  0  0  0  0  0  0  0  0  0  0
  188.3150  176.1380  148.4350 N   0  0  0  0  0  1  0  0  0  0  0  0
  187.1720  178.4540  146.4720 C   0  0  0  0  0  0  0  0  0  0  0  0
  187.5000  178.2460  147.6920 N   0  0  0  0  0  0  0  0  0  0  0  0
  187.9620  177.7310  145.5630 N   0  0  0  0  0  2  0  0  0  0  0  0
  188.6420  177.3370  147.6820 C   0  0  2  0  0  3  0  0  0  0  0  0
  186.0090  179.2890  146.0720 C   0  0  0  0  0  2  0  0  0  0  0  0
  185.6620  179.0020  144.7500 O   0  0  0  0  0  0  0  0  0  0  0  0
  183.7980  178.8510  146.0490 O   0  0  0  0  0  1  0  0  0  0  0  0
  184.3640  178.4900  144.8240 C   0  0  1  0  0  3  0  0  0  0  0  0
  181.6180  178.7040  141.6530 O   0  0  0  0  0  0  0  0  0  0  0  0
  182.3060  177.3070  139.2180 C   0  0  0  0  0  1  0  0  0  0  0  0
  181.2540  179.4680  142.8030 C   0  0  2  0  0  3  0  0  0  0  0  0
  182.0340  179.0010  144.0280 C   0  0  0  0  0  2  0  0  0  0  0  0
  183.5210  179.0420  143.6790 C   0  0  2  0  0  3  0  0  0  0  0  0
  183.2540  177.4690  140.3070 N   0  0  0  0  0  2  0  0  0  0  0  0
  182.9090  178.1780  141.4950 C   0  0  0  0  0  0  0  0  0  0  0  0
  183.7860  178.2930  142.4460 N   0  0  0  0  0  0  0  0  0  0  0  0
  179.7480  179.4130  143.0370 C   0  0  0  0  0  2  0  0  0  0  0  0
  179.3970  178.6190  144.2870 C   0  0  0  0  0  1  0  0  0  0  0  0
  2  1  1  6  0  0  0
  2 25  1  0  0  0  0
  3  2  1  0  0  0  0
  4  3  1  0  0  0  0
  6 24  1  6  0  0  0
  6  9  1  0  0  0  0
  7  9  1  0  0  0  0
  7 15  1  0  0  0  0
  8 15  2  0  0  0  0
  8 14  1  0  0  0  0
 11 12  1  6  0  0  0
 11  7  1  0  0  0  0
 12  6  1  0  0  0  0
 13  5  1  0  0  0  0
 13  4  1  0  0  0  0
 14 10  2  0  0  0  0
 14  5  1  0  0  0  0
 15 13  1  0  0  0  0
 17 18  1  0  0  0  0
 17 16  1  1  0  0  0
 17 20  1  0  0  0  0
 19 21  1  1  0  0  0
 19 20  1  0  0  0  0
 19 11  1  0  0  0  0
 22 18  1  0  0  0  0
 22 21  1  0  0  0  0
 23 24  1  0  0  0  0
 25 26  1  0  0  0  0
 26 27  1  0  0  0  0
 27 32  1  0  0  0  0
 29 30  2  0  0  0  0
 31 27  1  0  0  0  0
 31 29  1  0  0  0  0
 32 30  1  0  0  0  0
 32 28  1  1  0  0  0
 33 29  1  0  0  0  0
 34 36  1  0  0  0  0
 34 33  1  0  0  0  0
 36 35  1  1  0  0  0
 37 39  1  0  0  0  0
 38 42  1  0  0  0  0
 39 45  1  1  0  0  0
 39 40  1  0  0  0  0
 41 40  1  0  0  0  0
 41 36  1  1  0  0  0
 42 43  1  0  0  0  0
 43 37  1  0  0  0  0
 43 44  2  0  0  0  0
 44 41  1  0  0  0  0
 45 46  1  0  0  0  0
M  END
>  <MODEL>
7

>  <REMARK>
 VINA RESULT:      -7.6      2.328      7.850
  Name = 
  13 active torsions:
  status: ('A' for Active; 'I' for Inactive)
    1  A    between atoms: N_4  and  C_6
    2  A    between atoms: C_6  and  C_34
    3  A    between atoms: C_7  and  O_28
    4  A    between atoms: C_7  and  C_36
    5  A    between atoms: C_11  and  C_16
    6  A    between atoms: C_13  and  C_18
    7  A    between atoms: C_14  and  C_32
    8  A    between atoms: C_26  and  C_27
    9  A    between atoms: C_26  and  O_28
   10  A    between atoms: N_29  and  C_35
   11  A    between atoms: N_29  and  C_39
   12  A    between atoms: C_34  and  C_35
   13  A    between atoms: N_37  and  C_39
                            x       y       z     vdW  Elec       q    Type
                         _______ _______ _______ _____ _____    ______ ____

>  <TORSDO>
F 13

$$$$
=
 OpenBabel10222416183D

 46 50  0  0  1  0  0  0  0  0999 V2000
  187.2240  177.9870  145.8660 C   0  0  0  0  0  1  0  0  0  0  0  0
  186.1830  177.8560  144.7700 C   0  0  1  0  0  3  0  0  0  0  0  0
  185.3760  179.0630  144.7290 N   0  0  0  0  0  2  0  0  0  0  0  0
  184.8910  179.2220  143.3640 C   0  0  0  0  0  2  0  0  0  0  0  0
  182.6130  178.8140  144.4520 C   0  0  0  0  0  2  0  0  0  0  0  0
  184.6630  178.9140  138.9310 C   0  0  2  0  0  3  0  0  0  0  0  0
  183.1540  178.8250  140.7700 N   0  0  0  0  0  0  0  0  0  0  0  0
  181.3870  178.7640  142.3770 N   0  0  0  0  0  0  0  0  0  0  0  0
  184.5590  178.7110  140.4340 C   0  0  0  0  0  2  0  0  0  0  0  0
  180.1860  178.6980  144.4040 O   0  0  0  0  0  0  0  0  0  0  0  0
  182.3110  179.0480  139.6080 C   0  0  1  0  0  3  0  0  0  0  0  0
  183.2580  179.2040  138.4230 C   0  0  0  0  0  2  0  0  0  0  0  0
  183.4810  178.8640  143.2890 N   0  0  0  0  0  0  0  0  0  0  0  0
  181.2840  178.7540  143.7940 C   0  0  0  0  0  0  0  0  0  0  0  0
  182.6520  178.8240  142.1180 C   0  0  0  0  0  0  0  0  0  0  0  0
  179.0950  176.8750  136.4490 C   0  0  0  0  0  1  0  0  0  0  0  0
  179.6670  176.8320  137.8490 C   0  0  1  0  0  3  0  0  0  0  0  0
  180.3130  175.4720  138.0970 C   0  0  0  0  0  2  0  0  0  0  0  0
  181.3180  177.8930  139.4100 C   0  0  1  0  0  3  0  0  0  0  0  0
  180.6990  177.9440  138.0130 C   0  0  0  0  0  2  0  0  0  0  0  0
  181.9440  176.5190  139.6780 C   0  0  0  0  0  2  0  0  0  0  0  0
  180.9030  175.4180  139.5030 C   0  0  0  0  0  2  0  0  0  0  0  0
  184.3540  177.3060  137.0470 C   0  0  0  0  0  1  0  0  0  0  0  0
  185.1910  177.6540  138.2640 C   0  0  0  0  0  2  0  0  0  0  0  0
  186.8620  177.6540  143.4240 C   0  0  0  0  0  2  0  0  0  0  0  0
  188.0240  176.6770  143.5360 C   0  0  0  0  0  2  0  0  0  0  0  0
  189.2470  177.2850  143.0290 N   0  0  0  0  0  0  0  0  0  0  0  0
  191.3900  176.2240  143.0490 N   0  0  0  0  0  1  0  0  0  0  0  0
  189.4740  177.5040  140.7660 C   0  0  0  0  0  0  0  0  0  0  0  0
  190.1760  176.4640  141.0160 N   0  0  0  0  0  0  0  0  0  0  0  0
  188.8880  178.0580  141.9160 N   0  0  0  0  0  2  0  0  0  0  0  0
  190.0670  176.2050  142.4490 C   0  0  2  0  0  3  0  0  0  0  0  0
  189.3800  178.1180  139.4150 C   0  0  0  0  0  2  0  0  0  0  0  0
  189.6170  177.1440  138.4420 O   0  0  0  0  0  0  0  0  0  0  0  0
  189.1690  178.5950  136.7470 O   0  0  0  0  0  1  0  0  0  0  0  0
  188.7280  177.4470  137.4090 C   0  0  1  0  0  3  0  0  0  0  0  0
  189.0450  173.5800  135.8000 O   0  0  0  0  0  0  0  0  0  0  0  0
  191.7080  172.5580  135.3430 C   0  0  0  0  0  1  0  0  0  0  0  0
  187.7040  174.0540  135.9410 C   0  0  2  0  0  3  0  0  0  0  0  0
  187.6500  175.2310  136.9110 C   0  0  0  0  0  2  0  0  0  0  0  0
  188.6510  176.2800  136.4300 C   0  0  2  0  0  3  0  0  0  0  0  0
  191.4680  173.9430  135.7090 N   0  0  0  0  0  2  0  0  0  0  0  0
  190.1470  174.4410  135.9120 C   0  0  0  0  0  0  0  0  0  0  0  0
  189.9790  175.6850  136.2450 N   0  0  0  0  0  0  0  0  0  0  0  0
  186.7710  172.9260  136.3670 C   0  0  0  0  0  2  0  0  0  0  0  0
  185.8950  173.3290  137.5440 C   0  0  0  0  0  1  0  0  0  0  0  0
  2  1  1  1  0  0  0
  3  2  1  0  0  0  0
  4  3  1  0  0  0  0
  6 24  1  6  0  0  0
  6  9  1  0  0  0  0
  7 15  1  0  0  0  0
  8 14  1  0  0  0  0
  9  7  1  0  0  0  0
 11 12  1  6  0  0  0
 11  7  1  0  0  0  0
 12  6  1  0  0  0  0
 13  4  1  0  0  0  0
 13  5  1  0  0  0  0
 14 10  2  0  0  0  0
 14  5  1  0  0  0  0
 15  8  2  0  0  0  0
 15 13  1  0  0  0  0
 17 16  1  6  0  0  0
 17 20  1  0  0  0  0
 17 18  1  0  0  0  0
 18 22  1  0  0  0  0
 19 20  1  6  0  0  0
 19 11  1  0  0  0  0
 19 21  1  0  0  0  0
 22 21  1  0  0  0  0
 23 24  1  0  0  0  0
 25 26  1  0  0  0  0
 25  2  1  0  0  0  0
 27 26  1  0  0  0  0
 29 30  2  0  0  0  0
 29 31  1  0  0  0  0
 30 32  1  0  0  0  0
 31 27  1  0  0  0  0
 32 27  1  0  0  0  0
 32 28  1  1  0  0  0
 33 29  1  0  0  0  0
 34 33  1  0  0  0  0
 36 35  1  6  0  0  0
 36 34  1  0  0  0  0
 37 43  1  0  0  0  0
 37 39  1  0  0  0  0
 38 42  1  0  0  0  0
 39 45  1  1  0  0  0
 39 40  1  0  0  0  0
 41 40  1  0  0  0  0
 41 36  1  1  0  0  0
 42 43  1  0  0  0  0
 43 44  2  0  0  0  0
 44 41  1  0  0  0  0
 45 46  1  0  0  0  0
M  END
>  <MODEL>
8

>  <REMARK>
 VINA RESULT:      -7.6      2.393      4.096
  Name = 
  13 active torsions:
  status: ('A' for Active; 'I' for Inactive)
    1  A    between atoms: N_4  and  C_6
    2  A    between atoms: C_6  and  C_34
    3  A    between atoms: C_7  and  O_28
    4  A    between atoms: C_7  and  C_36
    5  A    between atoms: C_11  and  C_16
    6  A    between atoms: C_13  and  C_18
    7  A    between atoms: C_14  and  C_32
    8  A    between atoms: C_26  and  C_27
    9  A    between atoms: C_26  and  O_28
   10  A    between atoms: N_29  and  C_35
   11  A    between atoms: N_29  and  C_39
   12  A    between atoms: C_34  and  C_35
   13  A    between atoms: N_37  and  C_39
                            x       y       z     vdW  Elec       q    Type
                         _______ _______ _______ _____ _____    ______ ____

>  <TORSDO>
F 13

$$$$
=
 OpenBabel10222416183D

 46 50  0  0  1  0  0  0  0  0999 V2000
  186.9480  177.8650  145.4980 C   0  0  0  0  0  1  0  0  0  0  0  0
  185.9460  177.8680  144.3590 C   0  0  1  0  0  3  0  0  0  0  0  0
  184.9780  178.9290  144.5750 N   0  0  0  0  0  2  0  0  0  0  0  0
  184.4090  179.2780  143.2810 C   0  0  0  0  0  2  0  0  0  0  0  0
  182.1530  178.7900  144.3810 C   0  0  0  0  0  2  0  0  0  0  0  0
  184.1920  178.8650  138.8550 C   0  0  2  0  0  3  0  0  0  0  0  0
  182.6910  178.7470  140.6980 N   0  0  0  0  0  0  0  0  0  0  0  0
  180.9290  178.6400  142.3090 N   0  0  0  0  0  0  0  0  0  0  0  0
  184.0990  178.6900  140.3620 C   0  0  0  0  0  2  0  0  0  0  0  0
  179.7330  178.5620  144.3390 O   0  0  0  0  0  0  0  0  0  0  0  0
  181.8370  178.9070  139.5330 C   0  0  1  0  0  3  0  0  0  0  0  0
  182.7750  179.0810  138.3430 C   0  0  0  0  0  2  0  0  0  0  0  0
  183.0170  178.8540  143.2150 N   0  0  0  0  0  0  0  0  0  0  0  0
  180.8280  178.6550  143.7260 C   0  0  0  0  0  0  0  0  0  0  0  0
  182.1900  178.7520  142.0470 C   0  0  0  0  0  0  0  0  0  0  0  0
  178.9310  176.3720  136.3450 C   0  0  0  0  0  1  0  0  0  0  0  0
  179.4000  176.4620  137.7810 C   0  0  1  0  0  3  0  0  0  0  0  0
  180.0670  175.1500  138.1840 C   0  0  0  0  0  2  0  0  0  0  0  0
  180.8970  177.7050  139.3610 C   0  0  1  0  0  3  0  0  0  0  0  0
  180.3810  177.6210  137.9250 C   0  0  0  0  0  2  0  0  0  0  0  0
  181.5450  176.3800  139.7850 C   0  0  0  0  0  2  0  0  0  0  0  0
  180.5540  175.2310  139.6270 C   0  0  0  0  0  2  0  0  0  0  0  0
  184.3130  177.4910  136.7750 C   0  0  0  0  0  1  0  0  0  0  0  0
  184.7770  177.6170  138.2140 C   0  0  0  0  0  2  0  0  0  0  0  0
  186.6590  178.0950  143.0340 C   0  0  0  0  0  2  0  0  0  0  0  0
  187.9590  177.3060  142.9680 C   0  0  0  0  0  2  0  0  0  0  0  0
  189.0500  178.1650  142.5300 N   0  0  0  0  0  0  0  0  0  0  0  0
  190.8990  178.8060  143.9050 N   0  0  0  0  0  1  0  0  0  0  0  0
  190.5640  177.3020  141.0500 C   0  0  0  0  0  0  0  0  0  0  0  0
  191.1800  177.2040  142.1680 N   0  0  0  0  0  0  0  0  0  0  0  0
  189.2850  177.8710  141.1790 N   0  0  0  0  0  2  0  0  0  0  0  0
  190.2760  177.6970  143.2030 C   0  0  2  0  0  3  0  0  0  0  0  0
  191.1820  176.9490  139.7450 C   0  0  0  0  0  2  0  0  0  0  0  0
  190.4900  175.8780  139.1760 O   0  0  0  0  0  0  0  0  0  0  0  0
  191.8610  174.5190  137.9700 O   0  0  0  0  0  1  0  0  0  0  0  0
  191.0920  175.6840  137.9300 C   0  0  1  0  0  3  0  0  0  0  0  0
  187.3530  175.6970  136.0170 O   0  0  0  0  0  0  0  0  0  0  0  0
  185.4830  173.6250  136.7670 C   0  0  0  0  0  1  0  0  0  0  0  0
  188.2560  176.7030  135.5570 C   0  0  2  0  0  3  0  0  0  0  0  0
  189.3790  176.9200  136.5670 C   0  0  0  0  0  2  0  0  0  0  0  0
  190.0230  175.5640  136.8490 C   0  0  2  0  0  3  0  0  0  0  0  0
  186.8660  173.6110  137.2100 N   0  0  0  0  0  2  0  0  0  0  0  0
  187.7840  174.6280  136.8170 C   0  0  0  0  0  0  0  0  0  0  0  0
  189.0100  174.5790  137.2430 N   0  0  0  0  0  0  0  0  0  0  0  0
  187.5140  177.9990  135.2480 C   0  0  0  0  0  2  0  0  0  0  0  0
  187.5270  178.9560  136.4310 C   0  0  0  0  0  1  0  0  0  0  0  0
  2  3  1  0  0  0  0
  2  1  1  1  0  0  0
  4  3  1  0  0  0  0
  6 24  1  6  0  0  0
  6  9  1  0  0  0  0
  7 15  1  0  0  0  0
  8 14  1  0  0  0  0
  9  7  1  0  0  0  0
 11 12  1  6  0  0  0
 11  7  1  0  0  0  0
 12  6  1  0  0  0  0
 13  4  1  0  0  0  0
 13  5  1  0  0  0  0
 14 10  2  0  0  0  0
 14  5  1  0  0  0  0
 15  8  2  0  0  0  0
 15 13  1  0  0  0  0
 17 16  1  6  0  0  0
 17 20  1  0  0  0  0
 17 18  1  0  0  0  0
 18 22  1  0  0  0  0
 19 20  1  6  0  0  0
 19 11  1  0  0  0  0
 19 21  1  0  0  0  0
 22 21  1  0  0  0  0
 23 24  1  0  0  0  0
 25  2  1  0  0  0  0
 26 25  1  0  0  0  0
 27 26  1  0  0  0  0
 27 32  1  0  0  0  0
 29 31  1  0  0  0  0
 29 30  2  0  0  0  0
 30 32  1  0  0  0  0
 31 27  1  0  0  0  0
 32 28  1  6  0  0  0
 33 29  1  0  0  0  0
 34 33  1  0  0  0  0
 36 35  1  1  0  0  0
 36 34  1  0  0  0  0
 37 43  1  0  0  0  0
 38 42  1  0  0  0  0
 39 45  1  1  0  0  0
 39 37  1  0  0  0  0
 39 40  1  0  0  0  0
 40 41  1  0  0  0  0
 41 44  1  0  0  0  0
 41 36  1  1  0  0  0
 43 42  1  0  0  0  0
 43 44  2  0  0  0  0
 45 46  1  0  0  0  0
M  END
>  <MODEL>
9

>  <REMARK>
 VINA RESULT:      -7.6      2.427      3.952
  Name = 
  13 active torsions:
  status: ('A' for Active; 'I' for Inactive)
    1  A    between atoms: N_4  and  C_6
    2  A    between atoms: C_6  and  C_34
    3  A    between atoms: C_7  and  O_28
    4  A    between atoms: C_7  and  C_36
    5  A    between atoms: C_11  and  C_16
    6  A    between atoms: C_13  and  C_18
    7  A    between atoms: C_14  and  C_32
    8  A    between atoms: C_26  and  C_27
    9  A    between atoms: C_26  and  O_28
   10  A    between atoms: N_29  and  C_35
   11  A    between atoms: N_29  and  C_39
   12  A    between atoms: C_34  and  C_35
   13  A    between atoms: N_37  and  C_39
                            x       y       z     vdW  Elec       q    Type
                         _______ _______ _______ _____ _____    ______ ____

>  <TORSDO>
F 13

$$$$
