=
 OpenBabel10222418453D

 41 44  0  0  1  0  0  0  0  0999 V2000
  188.1840  177.0570  143.0930 C   0  0  0  0  0  3  0  0  0  0  0  0
  186.3520  177.9700  145.0490 C   0  0  0  0  0  0  0  0  0  0  0  0
  186.8570  177.3730  142.7470 C   0  0  0  0  0  3  0  0  0  0  0  0
  189.9770  176.8960  144.8590 C   0  0  0  0  0  0  0  0  0  0  0  0
  185.9280  177.8060  143.7120 C   0  0  0  0  0  0  0  0  0  0  0  0
  185.5300  178.5080  146.0890 C   0  0  0  0  0  3  0  0  0  0  0  0
  186.0350  178.6790  147.4120 C   0  0  0  0  0  3  0  0  0  0  0  0
  187.6840  177.6270  145.3590 C   0  0  0  0  0  0  0  0  0  0  0  0
  187.3600  178.2930  147.6400 C   0  0  0  0  0  0  0  0  0  0  0  0
  189.3630  177.9450  148.4080 N   0  0  0  0  0  0  0  0  0  0  0  0
  188.6260  177.1700  144.4180 C   0  0  0  0  0  0  0  0  0  0  0  0
  190.3370  177.1200  146.2280 C   0  0  2  0  0  3  0  0  0  0  0  0
  188.1380  178.3860  148.7420 N   0  0  0  0  0  0  0  0  0  0  0  0
  189.3320  177.5830  147.1000 C   0  0  0  0  0  0  0  0  0  0  0  0
  188.0980  177.7940  146.6420 C   0  0  0  0  0  0  0  0  0  0  0  0
  184.2690  178.8610  142.1020 C   0  0  0  0  0  0  0  0  0  0  0  0
  185.1580  179.5350  141.5130 O   0  0  0  0  0  0  0  0  0  0  0  0
  184.5970  178.1230  143.2830 N   0  0  0  0  0  2  0  0  0  0  0  0
  180.9520  178.3560  140.3600 C   0  0  0  0  0  1  0  0  0  0  0  0
  182.9100  178.8550  141.6390 N   0  0  0  0  0  0  0  0  0  0  0  0
  182.4090  178.1860  140.6390 C   0  0  0  0  0  0  0  0  0  0  0  0
  183.2520  177.2630  139.7990 C   0  0  0  0  0  2  0  0  0  0  0  0
  183.7070  177.8770  138.4800 C   0  0  0  0  0  2  0  0  0  0  0  0
  183.1960  177.0540  137.3060 C   0  0  1  0  0  3  0  0  0  0  0  0
  182.2480  177.8780  136.4490 C   0  0  0  0  0  1  0  0  0  0  0  0
  185.1400  175.4700  136.9230 N   0  0  0  0  0  1  0  0  0  0  0  0
  184.3420  176.5660  136.4830 C   0  0  0  0  0  0  0  0  0  0  0  0
  184.5990  177.1230  135.3840 O   0  0  0  0  0  0  0  0  0  0  0  0
  192.0590  175.7120  147.3430 C   0  0  0  0  0  1  0  0  0  0  0  0
  191.6540  176.8780  146.6400 O   0  0  0  0  0  0  0  0  0  0  0  0
  190.9910  176.4290  144.0070 O   0  0  0  0  0  0  0  0  0  0  0  0
  191.9370  177.2460  143.3340 C   0  0  0  0  0  2  0  0  0  0  0  0
  191.2460  177.9900  142.2130 C   0  0  0  0  0  2  0  0  0  0  0  0
  191.6420  177.3830  140.8820 C   0  0  0  0  0  2  0  0  0  0  0  0
  190.4030  176.8220  140.2000 C   0  0  0  0  0  2  0  0  0  0  0  0
  189.8010  177.7910  139.1790 C   0  0  2  0  0  3  0  0  0  0  0  0
  188.3610  178.1320  139.5330 C   0  0  0  0  0  2  0  0  0  0  0  0
  187.4590  177.9470  138.3270 C   0  0  0  0  0  1  0  0  0  0  0  0
  189.9140  177.2590  137.7500 C   0  0  0  0  0  2  0  0  0  0  0  0
  190.4770  175.8440  137.7340 C   0  0  0  0  0  2  0  0  0  0  0  0
  189.4760  174.8740  137.1320 C   0  0  0  0  0  1  0  0  0  0  0  0
  1 11  1  0  0  0  0
  2  8  1  0  0  0  0
  2  6  1  0  0  0  0
  3  1  2  0  0  0  0
  3  5  1  0  0  0  0
  4 12  1  0  0  0  0
  5  2  2  0  0  0  0
  6  7  2  0  0  0  0
  7  9  1  0  0  0  0
  8 15  2  0  0  0  0
  9 13  2  0  0  0  0
 10 13  1  0  0  0  0
 11  4  2  0  0  0  0
 11  8  1  0  0  0  0
 12 30  1  6  0  0  0
 12 14  1  0  0  0  0
 14 10  2  0  0  0  0
 15 14  1  0  0  0  0
 15  9  1  0  0  0  0
 16 18  1  0  0  0  0
 17 16  2  0  0  0  0
 18  5  1  0  0  0  0
 19 21  1  0  0  0  0
 20 16  1  0  0  0  0
 21 20  2  0  0  0  0
 22 21  1  0  0  0  0
 23 22  1  0  0  0  0
 24 25  1  6  0  0  0
 24 23  1  0  0  0  0
 27 26  1  0  0  0  0
 27 24  1  0  0  0  0
 28 27  2  0  0  0  0
 30 29  1  0  0  0  0
 31  4  1  0  0  0  0
 32 31  1  0  0  0  0
 33 32  1  0  0  0  0
 34 33  1  0  0  0  0
 35 34  1  0  0  0  0
 36 39  1  6  0  0  0
 36 37  1  0  0  0  0
 36 35  1  0  0  0  0
 38 37  1  0  0  0  0
 40 39  1  0  0  0  0
 41 40  1  0  0  0  0
M  END
>  <MODEL>
1

>  <REMARK>
 VINA RESULT:      -8.2      0.000      0.000
  Name = 
  16 active torsions:
  status: ('A' for Active; 'I' for Inactive)
    1  A    between atoms: C_4  and  C_25
    2  A    between atoms: C_4  and  C_41
    3  A    between atoms: C_5  and  C_36
    4  A    between atoms: C_7  and  C_27
    5  A    between atoms: C_8  and  C_15
    6  A    between atoms: C_8  and  C_40
    7  A    between atoms: C_9  and  C_27
    8  A    between atoms: C_9  and  C_41
    9  A    between atoms: C_12  and  O_17
   10  A    between atoms: C_13  and  N_29
   11  A    between atoms: C_15  and  C_23
   12  A    between atoms: C_16  and  N_24
   13  A    between atoms: O_17  and  C_25
   14  A    between atoms: C_27  and  C_36
   15  A    between atoms: O_28  and  C_32
   16  A    between atoms: C_33  and  C_40
                            x       y       z     vdW  Elec       q    Type
                         _______ _______ _______ _____ _____    ______ ____

>  <TORSDO>
F 16

$$$$
=
 OpenBabel10222418453D

 41 44  0  0  1  0  0  0  0  0999 V2000
  185.9880  178.9440  141.3750 C   0  0  0  0  0  3  0  0  0  0  0  0
  183.8670  178.9110  143.2510 C   0  0  0  0  0  0  0  0  0  0  0  0
  186.2470  178.9590  142.7580 C   0  0  0  0  0  3  0  0  0  0  0  0
  184.3120  178.8830  139.4920 C   0  0  0  0  0  0  0  0  0  0  0  0
  185.2040  178.9670  143.7030 C   0  0  0  0  0  0  0  0  0  0  0  0
  182.7340  178.8010  144.1170 C   0  0  0  0  0  3  0  0  0  0  0  0
  181.4100  178.7140  143.5890 C   0  0  0  0  0  3  0  0  0  0  0  0
  183.6480  178.9140  141.8580 C   0  0  0  0  0  0  0  0  0  0  0  0
  181.2800  178.7460  142.1970 C   0  0  0  0  0  0  0  0  0  0  0  0
  180.6230  178.6410  140.1280 N   0  0  0  0  0  0  0  0  0  0  0  0
  184.6720  178.9290  140.8930 C   0  0  0  0  0  0  0  0  0  0  0  0
  182.9320  178.7940  139.1140 C   0  0  0  0  0  0  0  0  0  0  0  0
  180.1930  178.6200  141.4010 N   0  0  0  0  0  0  0  0  0  0  0  0
  181.9730  178.7790  140.1470 C   0  0  0  0  0  0  0  0  0  0  0  0
  182.3640  178.8490  141.4200 C   0  0  2  0  0  3  0  0  0  0  0  0
  186.1450  177.8750  145.7950 C   0  0  0  0  0  0  0  0  0  0  0  0
  186.1430  176.7220  145.2820 O   0  0  0  0  0  0  0  0  0  0  0  0
  185.5460  178.9680  145.0950 N   0  0  0  0  0  2  0  0  0  0  0  0
  188.2550  178.2660  148.9080 C   0  0  0  0  0  1  0  0  0  0  0  0
  186.6980  178.1080  147.0990 N   0  0  0  0  0  0  0  0  0  0  0  0
  187.9330  177.9520  147.4840 C   0  0  0  0  0  0  0  0  0  0  0  0
  189.0080  177.4870  146.5350 C   0  0  0  0  0  2  0  0  0  0  0  0
  189.9340  176.4320  147.1280 C   0  0  0  0  0  2  0  0  0  0  0  0
  191.3880  176.7770  146.8400 C   0  0  1  0  0  3  0  0  0  0  0  0
  192.3170  175.7870  147.5240 C   0  0  0  0  0  1  0  0  0  0  0  0
  191.6450  178.0020  144.6340 N   0  0  0  0  0  1  0  0  0  0  0  0
  191.6340  176.7800  145.3670 C   0  0  0  0  0  0  0  0  0  0  0  0
  191.8420  175.6920  144.7690 O   0  0  0  0  0  0  0  0  0  0  0  0
  182.6770  177.5310  136.9860 C   0  0  0  0  0  1  0  0  0  0  0  0
  182.5940  178.7210  137.7570 O   0  0  0  0  0  0  0  0  0  0  0  0
  185.2520  178.9020  138.4480 O   0  0  0  0  0  0  0  0  0  0  0  0
  186.1880  177.8730  138.1680 C   0  0  0  0  0  2  0  0  0  0  0  0
  187.2570  178.4080  137.2420 C   0  0  0  0  0  2  0  0  0  0  0  0
  188.5310  178.6510  138.0260 C   0  0  0  0  0  2  0  0  0  0  0  0
  188.6890  177.5600  139.0750 C   0  0  0  0  0  2  0  0  0  0  0  0
  189.8820  177.8030  140.0030 C   0  0  2  0  0  3  0  0  0  0  0  0
  191.0150  176.8330  139.7000 C   0  0  0  0  0  2  0  0  0  0  0  0
  192.3470  177.4220  140.1240 C   0  0  0  0  0  1  0  0  0  0  0  0
  189.4790  177.7490  141.4780 C   0  0  0  0  0  2  0  0  0  0  0  0
  189.6580  176.3470  142.0440 C   0  0  0  0  0  2  0  0  0  0  0  0
  188.6730  176.0930  143.1720 C   0  0  0  0  0  1  0  0  0  0  0  0
  1  3  1  0  0  0  0
  2  5  1  0  0  0  0
  2  6  1  0  0  0  0
  3  5  2  0  0  0  0
  4 11  1  0  0  0  0
  5 18  1  0  0  0  0
  7  6  2  0  0  0  0
  8  2  2  0  0  0  0
  9  7  1  0  0  0  0
 10 14  2  0  0  0  0
 10 13  1  0  0  0  0
 11  1  2  0  0  0  0
 11  8  1  0  0  0  0
 12  4  2  0  0  0  0
 12 14  1  0  0  0  0
 13  9  2  0  0  0  0
 15 14  1  6  0  0  0
 15  8  1  0  0  0  0
 15  9  1  0  0  0  0
 16 20  1  0  0  0  0
 17 16  2  0  0  0  0
 18 16  1  0  0  0  0
 20 21  2  0  0  0  0
 21 19  1  0  0  0  0
 22 23  1  0  0  0  0
 22 21  1  0  0  0  0
 24 23  1  0  0  0  0
 24 25  1  1  0  0  0
 26 27  1  0  0  0  0
 27 24  1  0  0  0  0
 28 27  2  0  0  0  0
 29 30  1  0  0  0  0
 30 12  1  0  0  0  0
 31  4  1  0  0  0  0
 32 31  1  0  0  0  0
 33 34  1  0  0  0  0
 33 32  1  0  0  0  0
 34 35  1  0  0  0  0
 36 35  1  6  0  0  0
 36 39  1  0  0  0  0
 37 36  1  0  0  0  0
 37 38  1  0  0  0  0
 39 40  1  0  0  0  0
 40 41  1  0  0  0  0
M  END
>  <MODEL>
2

>  <REMARK>
 VINA RESULT:      -7.9      1.994      8.158
  Name = 
  16 active torsions:
  status: ('A' for Active; 'I' for Inactive)
    1  A    between atoms: C_4  and  C_25
    2  A    between atoms: C_4  and  C_41
    3  A    between atoms: C_5  and  C_36
    4  A    between atoms: C_7  and  C_27
    5  A    between atoms: C_8  and  C_15
    6  A    between atoms: C_8  and  C_40
    7  A    between atoms: C_9  and  C_27
    8  A    between atoms: C_9  and  C_41
    9  A    between atoms: C_12  and  O_17
   10  A    between atoms: C_13  and  N_29
   11  A    between atoms: C_15  and  C_23
   12  A    between atoms: C_16  and  N_24
   13  A    between atoms: O_17  and  C_25
   14  A    between atoms: C_27  and  C_36
   15  A    between atoms: O_28  and  C_32
   16  A    between atoms: C_33  and  C_40
                            x       y       z     vdW  Elec       q    Type
                         _______ _______ _______ _____ _____    ______ ____

>  <TORSDO>
F 16

$$$$
=
 OpenBabel10222418453D

 41 44  0  0  1  0  0  0  0  0999 V2000
  187.8810  178.0580  142.0460 C   0  0  0  0  0  3  0  0  0  0  0  0
  185.2620  178.8610  142.7630 C   0  0  0  0  0  0  0  0  0  0  0  0
  186.9920  178.5650  141.0810 C   0  0  0  0  0  3  0  0  0  0  0  0
  188.3390  177.4390  144.4480 C   0  0  0  0  0  0  0  0  0  0  0  0
  185.6790  178.9470  141.4170 C   0  0  0  0  0  0  0  0  0  0  0  0
  183.9940  179.3230  143.2390 C   0  0  0  0  0  3  0  0  0  0  0  0
  183.6510  179.2370  144.6210 C   0  0  0  0  0  3  0  0  0  0  0  0
  186.1760  178.3320  143.6980 C   0  0  0  0  0  0  0  0  0  0  0  0
  184.6070  178.6790  145.4780 C   0  0  0  0  0  0  0  0  0  0  0  0
  185.8070  178.0030  147.1580 N   0  0  0  0  0  0  0  0  0  0  0  0
  187.4850  177.9220  143.3840 C   0  0  0  0  0  0  0  0  0  0  0  0
  187.8510  177.4140  145.7960 C   0  0  2  0  0  3  0  0  0  0  0  0
  184.6140  178.5200  146.8210 N   0  0  0  0  0  0  0  0  0  0  0  0
  186.5300  177.8480  146.0200 C   0  0  0  0  0  0  0  0  0  0  0  0
  185.7810  178.2580  144.9950 C   0  0  0  0  0  0  0  0  0  0  0  0
  183.8550  178.7140  139.6640 C   0  0  0  0  0  0  0  0  0  0  0  0
  183.8780  177.4530  139.7010 O   0  0  0  0  0  0  0  0  0  0  0  0
  184.8350  179.4680  140.3810 N   0  0  0  0  0  2  0  0  0  0  0  0
  180.8700  180.5100  138.1940 C   0  0  0  0  0  1  0  0  0  0  0  0
  182.8870  179.4180  138.8690 N   0  0  0  0  0  0  0  0  0  0  0  0
  181.6860  179.7840  139.2130 C   0  0  0  0  0  0  0  0  0  0  0  0
  181.1330  179.5070  140.5870 C   0  0  0  0  0  2  0  0  0  0  0  0
  179.6190  179.6580  140.6810 C   0  0  0  0  0  2  0  0  0  0  0  0
  179.0330  178.5900  141.5920 C   0  0  1  0  0  3  0  0  0  0  0  0
  179.6560  177.2340  141.2960 C   0  0  0  0  0  1  0  0  0  0  0  0
  179.7310  177.9890  143.9560 N   0  0  0  0  0  1  0  0  0  0  0  0
  179.2550  178.9560  143.0220 C   0  0  0  0  0  0  0  0  0  0  0  0
  179.0280  180.1330  143.4060 O   0  0  0  0  0  0  0  0  0  0  0  0
  189.2450  177.8260  147.8150 C   0  0  0  0  0  1  0  0  0  0  0  0
  188.6950  176.9710  146.8230 O   0  0  0  0  0  0  0  0  0  0  0  0
  189.6570  176.9980  144.2440 O   0  0  0  0  0  0  0  0  0  0  0  0
  190.2080  176.6100  142.9950 C   0  0  0  0  0  2  0  0  0  0  0  0
  191.4090  177.4760  142.6890 C   0  0  0  0  0  2  0  0  0  0  0  0
  191.9110  177.1710  141.2920 C   0  0  0  0  0  2  0  0  0  0  0  0
  190.8680  177.6180  140.2780 C   0  0  0  0  0  2  0  0  0  0  0  0
  190.4870  176.5080  139.2950 C   0  0  2  0  0  3  0  0  0  0  0  0
  191.6440  176.1860  138.3600 C   0  0  0  0  0  2  0  0  0  0  0  0
  191.3430  174.9350  137.5540 C   0  0  0  0  0  1  0  0  0  0  0  0
  189.2160  176.8470  138.5140 C   0  0  0  0  0  2  0  0  0  0  0  0
  189.1190  178.3430  138.2470 C   0  0  0  0  0  2  0  0  0  0  0  0
  189.0560  178.6200  136.7550 C   0  0  0  0  0  1  0  0  0  0  0  0
  1 11  1  0  0  0  0
  2  6  1  0  0  0  0
  2  8  1  0  0  0  0
  3  5  1  0  0  0  0
  3  1  2  0  0  0  0
  4 12  1  0  0  0  0
  5  2  2  0  0  0  0
  6  7  2  0  0  0  0
  7  9  1  0  0  0  0
  8 15  2  0  0  0  0
  9 13  2  0  0  0  0
 11  8  1  0  0  0  0
 11  4  2  0  0  0  0
 12 14  1  0  0  0  0
 12 30  1  1  0  0  0
 13 10  1  0  0  0  0
 14 10  2  0  0  0  0
 15  9  1  0  0  0  0
 15 14  1  0  0  0  0
 16 17  2  0  0  0  0
 16 18  1  0  0  0  0
 18  5  1  0  0  0  0
 19 21  1  0  0  0  0
 20 21  2  0  0  0  0
 20 16  1  0  0  0  0
 21 22  1  0  0  0  0
 22 23  1  0  0  0  0
 23 24  1  0  0  0  0
 24 25  1  6  0  0  0
 24 27  1  0  0  0  0
 27 28  2  0  0  0  0
 27 26  1  0  0  0  0
 30 29  1  0  0  0  0
 31  4  1  0  0  0  0
 32 31  1  0  0  0  0
 33 32  1  0  0  0  0
 34 33  1  0  0  0  0
 35 34  1  0  0  0  0
 36 37  1  6  0  0  0
 36 35  1  0  0  0  0
 38 37  1  0  0  0  0
 39 36  1  0  0  0  0
 40 39  1  0  0  0  0
 41 40  1  0  0  0  0
M  END
>  <MODEL>
3

>  <REMARK>
 VINA RESULT:      -7.8      2.190      3.934
  Name = 
  16 active torsions:
  status: ('A' for Active; 'I' for Inactive)
    1  A    between atoms: C_4  and  C_25
    2  A    between atoms: C_4  and  C_41
    3  A    between atoms: C_5  and  C_36
    4  A    between atoms: C_7  and  C_27
    5  A    between atoms: C_8  and  C_15
    6  A    between atoms: C_8  and  C_40
    7  A    between atoms: C_9  and  C_27
    8  A    between atoms: C_9  and  C_41
    9  A    between atoms: C_12  and  O_17
   10  A    between atoms: C_13  and  N_29
   11  A    between atoms: C_15  and  C_23
   12  A    between atoms: C_16  and  N_24
   13  A    between atoms: O_17  and  C_25
   14  A    between atoms: C_27  and  C_36
   15  A    between atoms: O_28  and  C_32
   16  A    between atoms: C_33  and  C_40
                            x       y       z     vdW  Elec       q    Type
                         _______ _______ _______ _____ _____    ______ ____

>  <TORSDO>
F 16

$$$$
=
 OpenBabel10222418453D

 41 44  0  0  1  0  0  0  0  0999 V2000
  186.8200  177.6920  143.4730 C   0  0  0  0  0  3  0  0  0  0  0  0
  189.5140  177.2670  142.7130 C   0  0  0  0  0  0  0  0  0  0  0  0
  187.1910  177.6590  142.1160 C   0  0  0  0  0  3  0  0  0  0  0  0
  187.4870  177.5230  145.8990 C   0  0  0  0  0  0  0  0  0  0  0  0
  188.5290  177.4710  141.7220 C   0  0  0  0  0  0  0  0  0  0  0  0
  190.8820  176.9560  142.4290 C   0  0  0  0  0  3  0  0  0  0  0  0
  191.8180  176.7270  143.4810 C   0  0  0  0  0  3  0  0  0  0  0  0
  189.1070  177.3240  144.0620 C   0  0  0  0  0  0  0  0  0  0  0  0
  191.3360  176.8250  144.7910 C   0  0  0  0  0  0  0  0  0  0  0  0
  191.0100  176.7580  146.9380 N   0  0  0  0  0  0  0  0  0  0  0  0
  187.7800  177.5320  144.4820 C   0  0  0  0  0  0  0  0  0  0  0  0
  188.5390  177.2760  146.8410 C   0  0  2  0  0  3  0  0  0  0  0  0
  191.9400  176.6050  145.9810 N   0  0  0  0  0  0  0  0  0  0  0  0
  189.8370  177.0720  146.3320 C   0  0  0  0  0  0  0  0  0  0  0  0
  190.0500  177.1170  145.0160 C   0  0  0  0  0  0  0  0  0  0  0  0
  188.0850  178.1130  139.3040 C   0  0  0  0  0  0  0  0  0  0  0  0
  186.9310  178.5570  139.5570 O   0  0  0  0  0  0  0  0  0  0  0  0
  188.8280  177.4350  140.3200 N   0  0  0  0  0  2  0  0  0  0  0  0
  189.3400  177.7090  135.7610 C   0  0  0  0  0  1  0  0  0  0  0  0
  188.6560  178.2310  137.9920 N   0  0  0  0  0  0  0  0  0  0  0  0
  188.6770  177.3360  137.0460 C   0  0  0  0  0  0  0  0  0  0  0  0
  188.0470  175.9780  137.2220 C   0  0  0  0  0  2  0  0  0  0  0  0
  186.6670  175.8560  136.5880 C   0  0  0  0  0  2  0  0  0  0  0  0
  186.2810  174.3930  136.4320 C   0  0  1  0  0  3  0  0  0  0  0  0
  187.4550  173.4910  136.7780 C   0  0  0  0  0  1  0  0  0  0  0  0
  184.8840  172.7400  137.7550 N   0  0  0  0  0  1  0  0  0  0  0  0
  185.1120  174.0720  137.3050 C   0  0  0  0  0  0  0  0  0  0  0  0
  184.3260  174.9910  137.6540 O   0  0  0  0  0  0  0  0  0  0  0  0
  188.4260  178.3440  149.0850 C   0  0  0  0  0  1  0  0  0  0  0  0
  188.2420  177.2410  148.2100 O   0  0  0  0  0  0  0  0  0  0  0  0
  186.2020  177.7290  146.4270 O   0  0  0  0  0  0  0  0  0  0  0  0
  185.4820  178.9510  146.3780 C   0  0  0  0  0  2  0  0  0  0  0  0
  184.1100  178.6990  145.7930 C   0  0  0  0  0  2  0  0  0  0  0  0
  183.9360  179.5250  144.5350 C   0  0  0  0  0  2  0  0  0  0  0  0
  183.3650  178.6440  143.4340 C   0  0  0  0  0  2  0  0  0  0  0  0
  181.9830  179.1060  142.9660 C   0  0  2  0  0  3  0  0  0  0  0  0
  180.8990  178.6540  143.9350 C   0  0  0  0  0  2  0  0  0  0  0  0
  179.5240  178.8570  143.3270 C   0  0  0  0  0  1  0  0  0  0  0  0
  181.6800  178.6490  141.5370 C   0  0  0  0  0  2  0  0  0  0  0  0
  182.9510  178.2140  140.8200 C   0  0  0  0  0  2  0  0  0  0  0  0
  183.3210  179.2070  139.7320 C   0  0  0  0  0  1  0  0  0  0  0  0
  1 11  1  0  0  0  0
  2  8  1  0  0  0  0
  3  1  2  0  0  0  0
  4 31  1  0  0  0  0
  4 12  1  0  0  0  0
  5  3  1  0  0  0  0
  5  2  2  0  0  0  0
  6  2  1  0  0  0  0
  6  7  2  0  0  0  0
  7  9  1  0  0  0  0
  8 11  1  0  0  0  0
  8 15  2  0  0  0  0
  9 15  1  0  0  0  0
  9 13  2  0  0  0  0
 11  4  2  0  0  0  0
 12 30  1  6  0  0  0
 13 10  1  0  0  0  0
 14 12  1  0  0  0  0
 14 10  2  0  0  0  0
 15 14  1  0  0  0  0
 16 17  2  0  0  0  0
 16 18  1  0  0  0  0
 18  5  1  0  0  0  0
 19 21  1  0  0  0  0
 20 16  1  0  0  0  0
 21 22  1  0  0  0  0
 21 20  2  0  0  0  0
 23 22  1  0  0  0  0
 24 23  1  0  0  0  0
 24 25  1  1  0  0  0
 24 27  1  0  0  0  0
 27 28  2  0  0  0  0
 27 26  1  0  0  0  0
 30 29  1  0  0  0  0
 32 31  1  0  0  0  0
 33 32  1  0  0  0  0
 34 33  1  0  0  0  0
 35 34  1  0  0  0  0
 36 39  1  6  0  0  0
 36 35  1  0  0  0  0
 36 37  1  0  0  0  0
 38 37  1  0  0  0  0
 40 39  1  0  0  0  0
 41 40  1  0  0  0  0
M  END
>  <MODEL>
4

>  <REMARK>
 VINA RESULT:      -7.7      2.416      5.806
  Name = 
  16 active torsions:
  status: ('A' for Active; 'I' for Inactive)
    1  A    between atoms: C_4  and  C_25
    2  A    between atoms: C_4  and  C_41
    3  A    between atoms: C_5  and  C_36
    4  A    between atoms: C_7  and  C_27
    5  A    between atoms: C_8  and  C_15
    6  A    between atoms: C_8  and  C_40
    7  A    between atoms: C_9  and  C_27
    8  A    between atoms: C_9  and  C_41
    9  A    between atoms: C_12  and  O_17
   10  A    between atoms: C_13  and  N_29
   11  A    between atoms: C_15  and  C_23
   12  A    between atoms: C_16  and  N_24
   13  A    between atoms: O_17  and  C_25
   14  A    between atoms: C_27  and  C_36
   15  A    between atoms: O_28  and  C_32
   16  A    between atoms: C_33  and  C_40
                            x       y       z     vdW  Elec       q    Type
                         _______ _______ _______ _____ _____    ______ ____

>  <TORSDO>
F 16

$$$$
=
 OpenBabel10222418453D

 41 44  0  0  1  0  0  0  0  0999 V2000
  187.0930  178.1350  141.5990 C   0  0  0  0  0  3  0  0  0  0  0  0
  184.5590  178.5170  142.8030 C   0  0  0  0  0  0  0  0  0  0  0  0
  185.9390  178.3100  140.8130 C   0  0  0  0  0  3  0  0  0  0  0  0
  188.1470  177.9870  143.8850 C   0  0  0  0  0  0  0  0  0  0  0  0
  184.6690  178.4770  141.3960 C   0  0  0  0  0  0  0  0  0  0  0  0
  183.3410  178.7940  143.5030 C   0  0  0  0  0  3  0  0  0  0  0  0
  183.3090  178.8530  144.9280 C   0  0  0  0  0  3  0  0  0  0  0  0
  185.7340  178.3220  143.5560 C   0  0  0  0  0  0  0  0  0  0  0  0
  184.5160  178.6260  145.5990 C   0  0  0  0  0  0  0  0  0  0  0  0
  186.1470  178.4560  147.0250 N   0  0  0  0  0  0  0  0  0  0  0  0
  187.0120  178.1300  142.9980 C   0  0  0  0  0  0  0  0  0  0  0  0
  187.9560  178.0720  145.3040 C   0  0  2  0  0  3  0  0  0  0  0  0
  184.8260  178.6760  146.9150 N   0  0  0  0  0  0  0  0  0  0  0  0
  186.6440  178.2720  145.7750 C   0  0  0  0  0  0  0  0  0  0  0  0
  185.6340  178.3710  144.9100 C   0  0  0  0  0  0  0  0  0  0  0  0
  183.5740  179.3460  139.2730 C   0  0  0  0  0  0  0  0  0  0  0  0
  184.5530  180.0860  138.9840 O   0  0  0  0  0  0  0  0  0  0  0  0
  183.5410  178.6640  140.5300 N   0  0  0  0  0  2  0  0  0  0  0  0
  180.4980  179.7100  137.1050 C   0  0  0  0  0  1  0  0  0  0  0  0
  182.4570  179.2070  138.3820 N   0  0  0  0  0  0  0  0  0  0  0  0
  181.5730  180.1090  138.0630 C   0  0  0  0  0  0  0  0  0  0  0  0
  181.6290  181.5090  138.6180 C   0  0  0  0  0  2  0  0  0  0  0  0
  180.5250  182.4200  138.0950 C   0  0  0  0  0  2  0  0  0  0  0  0
  180.9830  183.1420  136.8360 C   0  0  1  0  0  3  0  0  0  0  0  0
  179.9130  183.0640  135.7580 C   0  0  0  0  0  1  0  0  0  0  0  0
  180.3480  185.5970  136.8810 N   0  0  0  0  0  1  0  0  0  0  0  0
  181.2970  184.5680  137.1470 C   0  0  0  0  0  0  0  0  0  0  0  0
  182.4100  184.8630  137.6570 O   0  0  0  0  0  0  0  0  0  0  0  0
  189.3390  176.8130  146.9440 C   0  0  0  0  0  1  0  0  0  0  0  0
  189.0640  177.9610  146.1540 O   0  0  0  0  0  0  0  0  0  0  0  0
  189.4610  177.7820  143.4360 O   0  0  0  0  0  0  0  0  0  0  0  0
  189.8850  176.7180  142.5980 C   0  0  0  0  0  2  0  0  0  0  0  0
  190.8770  177.2450  141.5850 C   0  0  0  0  0  2  0  0  0  0  0  0
  190.4640  176.8050  140.1950 C   0  0  0  0  0  2  0  0  0  0  0  0
  189.6910  177.9310  139.5230 C   0  0  0  0  0  2  0  0  0  0  0  0
  189.3590  177.6270  138.0600 C   0  0  2  0  0  3  0  0  0  0  0  0
  190.5170  176.9160  137.3730 C   0  0  0  0  0  2  0  0  0  0  0  0
  190.0040  176.0020  136.2770 C   0  0  0  0  0  1  0  0  0  0  0  0
  188.9430  178.8850  137.2950 C   0  0  0  0  0  2  0  0  0  0  0  0
  187.5590  178.7220  136.6830 C   0  0  0  0  0  2  0  0  0  0  0  0
  186.7910  177.6100  137.3770 C   0  0  0  0  0  1  0  0  0  0  0  0
  1 11  1  0  0  0  0
  2  6  1  0  0  0  0
  2  8  1  0  0  0  0
  3  5  1  0  0  0  0
  3  1  2  0  0  0  0
  4 12  1  0  0  0  0
  5  2  2  0  0  0  0
  6  7  2  0  0  0  0
  7  9  1  0  0  0  0
  8 15  2  0  0  0  0
  9 13  2  0  0  0  0
 11  8  1  0  0  0  0
 11  4  2  0  0  0  0
 12 14  1  0  0  0  0
 12 30  1  6  0  0  0
 13 10  1  0  0  0  0
 14 10  2  0  0  0  0
 15  9  1  0  0  0  0
 15 14  1  0  0  0  0
 16 18  1  0  0  0  0
 17 16  2  0  0  0  0
 18  5  1  0  0  0  0
 19 21  1  0  0  0  0
 20 16  1  0  0  0  0
 21 20  2  0  0  0  0
 21 22  1  0  0  0  0
 23 22  1  0  0  0  0
 24 25  1  6  0  0  0
 24 27  1  0  0  0  0
 24 23  1  0  0  0  0
 26 27  1  0  0  0  0
 27 28  2  0  0  0  0
 30 29  1  0  0  0  0
 31  4  1  0  0  0  0
 32 31  1  0  0  0  0
 33 32  1  0  0  0  0
 34 33  1  0  0  0  0
 35 34  1  0  0  0  0
 36 39  1  6  0  0  0
 36 35  1  0  0  0  0
 37 36  1  0  0  0  0
 38 37  1  0  0  0  0
 40 39  1  0  0  0  0
 40 41  1  0  0  0  0
M  END
>  <MODEL>
5

>  <REMARK>
 VINA RESULT:      -7.7      3.042      4.093
  Name = 
  16 active torsions:
  status: ('A' for Active; 'I' for Inactive)
    1  A    between atoms: C_4  and  C_25
    2  A    between atoms: C_4  and  C_41
    3  A    between atoms: C_5  and  C_36
    4  A    between atoms: C_7  and  C_27
    5  A    between atoms: C_8  and  C_15
    6  A    between atoms: C_8  and  C_40
    7  A    between atoms: C_9  and  C_27
    8  A    between atoms: C_9  and  C_41
    9  A    between atoms: C_12  and  O_17
   10  A    between atoms: C_13  and  N_29
   11  A    between atoms: C_15  and  C_23
   12  A    between atoms: C_16  and  N_24
   13  A    between atoms: O_17  and  C_25
   14  A    between atoms: C_27  and  C_36
   15  A    between atoms: O_28  and  C_32
   16  A    between atoms: C_33  and  C_40
                            x       y       z     vdW  Elec       q    Type
                         _______ _______ _______ _____ _____    ______ ____

>  <TORSDO>
F 16

$$$$
=
 OpenBabel10222418453D

 41 44  0  0  1  0  0  0  0  0999 V2000
  188.2210  177.7680  140.4820 C   0  0  0  0  0  3  0  0  0  0  0  0
  187.1390  178.1650  137.8960 C   0  0  0  0  0  0  0  0  0  0  0  0
  186.9600  178.3700  140.3110 C   0  0  0  0  0  3  0  0  0  0  0  0
  190.2680  176.7140  139.4550 C   0  0  0  0  0  0  0  0  0  0  0  0
  186.4190  178.5950  139.0320 C   0  0  0  0  0  0  0  0  0  0  0  0
  186.6400  178.2390  136.5570 C   0  0  0  0  0  3  0  0  0  0  0  0
  187.4080  177.7520  135.4570 C   0  0  0  0  0  3  0  0  0  0  0  0
  188.4050  177.5820  138.1070 C   0  0  1  0  0  3  0  0  0  0  0  0
  188.6630  177.2090  135.7520 C   0  0  0  0  0  0  0  0  0  0  0  0
  190.5840  176.1940  135.7530 N   0  0  0  0  0  0  0  0  0  0  0  0
  188.9790  177.3660  139.3740 C   0  0  0  0  0  0  0  0  0  0  0  0
  190.9210  176.2760  138.2550 C   0  0  0  0  0  0  0  0  0  0  0  0
  189.5860  176.6160  134.9600 N   0  0  0  0  0  0  0  0  0  0  0  0
  190.2720  176.5280  137.0300 C   0  0  0  0  0  0  0  0  0  0  0  0
  189.0950  177.1570  137.0170 C   0  0  0  0  0  0  0  0  0  0  0  0
  183.8850  178.4860  138.8790 C   0  0  0  0  0  0  0  0  0  0  0  0
  183.8810  177.2530  138.6120 O   0  0  0  0  0  0  0  0  0  0  0  0
  185.1230  179.2010  138.9370 N   0  0  0  0  0  2  0  0  0  0  0  0
  180.6330  180.0040  140.0680 C   0  0  0  0  0  1  0  0  0  0  0  0
  182.6600  179.2080  139.0810 N   0  0  0  0  0  0  0  0  0  0  0  0
  181.8530  179.1430  140.1010 C   0  0  0  0  0  0  0  0  0  0  0  0
  182.1340  178.2500  141.2810 C   0  0  0  0  0  2  0  0  0  0  0  0
  183.3650  178.6590  142.0800 C   0  0  0  0  0  2  0  0  0  0  0  0
  182.9560  179.2800  143.4080 C   0  0  1  0  0  3  0  0  0  0  0  0
  181.6540  178.6710  143.9040 C   0  0  0  0  0  1  0  0  0  0  0  0
  183.7210  178.9970  145.8090 N   0  0  0  0  0  1  0  0  0  0  0  0
  184.0340  179.0850  144.4210 C   0  0  0  0  0  0  0  0  0  0  0  0
  185.2310  178.9880  144.0450 O   0  0  0  0  0  0  0  0  0  0  0  0
  193.3960  176.2280  138.0110 C   0  0  0  0  0  1  0  0  0  0  0  0
  192.1560  175.6210  138.3450 O   0  0  0  0  0  0  0  0  0  0  0  0
  190.9340  176.4580  140.6650 O   0  0  0  0  0  0  0  0  0  0  0  0
  191.6690  177.4140  141.4140 C   0  0  0  0  0  2  0  0  0  0  0  0
  191.6200  177.0440  142.8790 C   0  0  0  0  0  2  0  0  0  0  0  0
  191.6290  178.3030  143.7210 C   0  0  0  0  0  2  0  0  0  0  0  0
  190.2190  178.5830  144.2200 C   0  0  0  0  0  2  0  0  0  0  0  0
  189.5880  177.3730  144.9120 C   0  0  2  0  0  3  0  0  0  0  0  0
  188.1330  177.2030  144.4970 C   0  0  0  0  0  2  0  0  0  0  0  0
  188.0110  176.1530  143.4080 C   0  0  0  0  0  1  0  0  0  0  0  0
  189.7290  177.4460  146.4340 C   0  0  0  0  0  2  0  0  0  0  0  0
  188.3960  177.7720  147.0930 C   0  0  0  0  0  2  0  0  0  0  0  0
  188.5760  178.0140  148.5820 C   0  0  0  0  0  1  0  0  0  0  0  0
  2  8  1  0  0  0  0
  2  5  1  0  0  0  0
  3  1  1  0  0  0  0
  4 31  1  0  0  0  0
  5  3  2  0  0  0  0
  6  2  2  0  0  0  0
  7  9  2  0  0  0  0
  7  6  1  0  0  0  0
  8 15  1  1  0  0  0
  8 11  1  0  0  0  0
  9 15  1  0  0  0  0
 10 14  1  0  0  0  0
 11  4  1  0  0  0  0
 11  1  2  0  0  0  0
 12 30  1  0  0  0  0
 12  4  2  0  0  0  0
 13  9  1  0  0  0  0
 13 10  2  0  0  0  0
 14 12  1  0  0  0  0
 15 14  2  0  0  0  0
 16 18  1  0  0  0  0
 16 20  1  0  0  0  0
 17 16  2  0  0  0  0
 18  5  1  0  0  0  0
 19 21  1  0  0  0  0
 20 21  2  0  0  0  0
 21 22  1  0  0  0  0
 22 23  1  0  0  0  0
 23 24  1  0  0  0  0
 24 25  1  1  0  0  0
 24 27  1  0  0  0  0
 27 26  1  0  0  0  0
 28 27  2  0  0  0  0
 29 30  1  0  0  0  0
 31 32  1  0  0  0  0
 32 33  1  0  0  0  0
 33 34  1  0  0  0  0
 34 35  1  0  0  0  0
 36 35  1  6  0  0  0
 36 39  1  0  0  0  0
 37 36  1  0  0  0  0
 38 37  1  0  0  0  0
 39 40  1  0  0  0  0
 40 41  1  0  0  0  0
M  END
>  <MODEL>
6

>  <REMARK>
 VINA RESULT:      -7.6      2.439      7.362
  Name = 
  16 active torsions:
  status: ('A' for Active; 'I' for Inactive)
    1  A    between atoms: C_4  and  C_25
    2  A    between atoms: C_4  and  C_41
    3  A    between atoms: C_5  and  C_36
    4  A    between atoms: C_7  and  C_27
    5  A    between atoms: C_8  and  C_15
    6  A    between atoms: C_8  and  C_40
    7  A    between atoms: C_9  and  C_27
    8  A    between atoms: C_9  and  C_41
    9  A    between atoms: C_12  and  O_17
   10  A    between atoms: C_13  and  N_29
   11  A    between atoms: C_15  and  C_23
   12  A    between atoms: C_16  and  N_24
   13  A    between atoms: O_17  and  C_25
   14  A    between atoms: C_27  and  C_36
   15  A    between atoms: O_28  and  C_32
   16  A    between atoms: C_33  and  C_40
                            x       y       z     vdW  Elec       q    Type
                         _______ _______ _______ _____ _____    ______ ____

>  <TORSDO>
F 16

$$$$
=
 OpenBabel10222418453D

 41 44  0  0  1  0  0  0  0  0999 V2000
  185.2200  178.7260  141.2260 C   0  0  0  0  0  3  0  0  0  0  0  0
  183.3390  178.7670  143.3420 C   0  0  0  0  0  0  0  0  0  0  0  0
  185.6430  178.7550  142.5680 C   0  0  0  0  0  3  0  0  0  0  0  0
  183.3290  178.6770  139.5580 C   0  0  0  0  0  0  0  0  0  0  0  0
  184.7210  178.7990  143.6300 C   0  0  0  0  0  0  0  0  0  0  0  0
  182.3150  178.6950  144.3390 C   0  0  0  0  0  3  0  0  0  0  0  0
  180.9370  178.6300  143.9750 C   0  0  0  0  0  3  0  0  0  0  0  0
  182.9540  178.7560  141.9850 C   0  0  0  0  0  0  0  0  0  0  0  0
  180.6410  178.6460  142.6080 C   0  0  0  0  0  0  0  0  0  0  0  0
  179.7390  178.5270  140.6350 N   0  0  0  0  0  0  0  0  0  0  0  0
  183.8560  178.7340  140.9050 C   0  0  0  0  0  0  0  0  0  0  0  0
  181.9120  178.6140  139.3500 C   0  0  0  0  0  0  0  0  0  0  0  0
  179.4650  178.5340  141.9500 N   0  0  0  0  0  2  0  0  0  0  0  0
  181.0840  178.6350  140.4890 C   0  0  0  0  0  0  0  0  0  0  0  0
  181.6260  178.7140  141.7050 C   0  0  0  0  0  0  0  0  0  0  0  0
  186.1880  177.8910  145.4960 C   0  0  0  0  0  0  0  0  0  0  0  0
  186.4330  176.8180  144.8800 O   0  0  0  0  0  0  0  0  0  0  0  0
  185.2270  178.8120  144.9720 N   0  0  0  0  0  2  0  0  0  0  0  0
  188.4410  178.2920  148.5050 C   0  0  0  0  0  1  0  0  0  0  0  0
  186.8200  178.1910  146.7490 N   0  0  0  0  0  0  0  0  0  0  0  0
  188.0150  177.8520  147.1430 C   0  0  0  0  0  0  0  0  0  0  0  0
  188.9470  177.0600  146.2630 C   0  0  0  0  0  2  0  0  0  0  0  0
  190.1070  177.8760  145.7070 C   0  0  0  0  0  2  0  0  0  0  0  0
  190.1940  177.7160  144.1960 C   0  0  1  0  0  3  0  0  0  0  0  0
  191.0390  178.8260  143.5890 C   0  0  0  0  0  1  0  0  0  0  0  0
  190.1750  175.5680  142.8480 N   0  0  0  0  0  1  0  0  0  0  0  0
  190.7730  176.3830  143.8530 C   0  0  0  0  0  0  0  0  0  0  0  0
  191.8040  175.9800  144.4500 O   0  0  0  0  0  0  0  0  0  0  0  0
  180.9520  179.6510  137.3030 C   0  0  0  0  0  1  0  0  0  0  0  0
  181.4120  178.5310  138.0440 O   0  0  0  0  0  0  0  0  0  0  0  0
  184.1370  178.6610  138.4090 O   0  0  0  0  0  0  0  0  0  0  0  0
  184.3860  177.5230  137.5980 C   0  0  0  0  0  2  0  0  0  0  0  0
  185.8630  177.2000  137.6290 C   0  0  0  0  0  2  0  0  0  0  0  0
  186.6620  178.4510  137.3260 C   0  0  0  0  0  2  0  0  0  0  0  0
  187.7660  178.1130  136.3350 C   0  0  0  0  0  2  0  0  0  0  0  0
  189.1650  178.2420  136.9420 C   0  0  2  0  0  3  0  0  0  0  0  0
  189.8880  176.9030  136.9370 C   0  0  0  0  0  2  0  0  0  0  0  0
  189.1020  175.8770  136.1420 C   0  0  0  0  0  1  0  0  0  0  0  0
  189.1250  178.8510  138.3450 C   0  0  0  0  0  2  0  0  0  0  0  0
  189.6850  177.8840  139.3790 C   0  0  0  0  0  2  0  0  0  0  0  0
  188.6890  177.6620  140.5040 C   0  0  0  0  0  1  0  0  0  0  0  0
  1  3  1  0  0  0  0
  2  5  1  0  0  0  0
  2  6  1  0  0  0  0
  3  5  2  0  0  0  0
  4 11  1  0  0  0  0
  5 18  1  0  0  0  0
  7  6  2  0  0  0  0
  8  2  2  0  0  0  0
  9  7  1  0  0  0  0
 10 13  1  0  0  0  0
 11  1  2  0  0  0  0
 11  8  1  0  0  0  0
 12  4  2  0  0  0  0
 12 14  1  0  0  0  0
 13  9  1  0  0  0  0
 14 10  2  0  0  0  0
 14 15  1  0  0  0  0
 15  8  1  0  0  0  0
 15  9  2  0  0  0  0
 16 20  1  0  0  0  0
 17 16  2  0  0  0  0
 18 16  1  0  0  0  0
 20 21  2  0  0  0  0
 21 19  1  0  0  0  0
 22 21  1  0  0  0  0
 23 22  1  0  0  0  0
 24 25  1  1  0  0  0
 24 23  1  0  0  0  0
 26 27  1  0  0  0  0
 27 24  1  0  0  0  0
 27 28  2  0  0  0  0
 29 30  1  0  0  0  0
 30 12  1  0  0  0  0
 31  4  1  0  0  0  0
 32 33  1  0  0  0  0
 32 31  1  0  0  0  0
 34 33  1  0  0  0  0
 35 34  1  0  0  0  0
 36 35  1  1  0  0  0
 36 39  1  0  0  0  0
 37 36  1  0  0  0  0
 38 37  1  0  0  0  0
 39 40  1  0  0  0  0
 40 41  1  0  0  0  0
M  END
>  <MODEL>
7

>  <REMARK>
 VINA RESULT:      -7.6      2.223      7.976
  Name = 
  16 active torsions:
  status: ('A' for Active; 'I' for Inactive)
    1  A    between atoms: C_4  and  C_25
    2  A    between atoms: C_4  and  C_41
    3  A    between atoms: C_5  and  C_36
    4  A    between atoms: C_7  and  C_27
    5  A    between atoms: C_8  and  C_15
    6  A    between atoms: C_8  and  C_40
    7  A    between atoms: C_9  and  C_27
    8  A    between atoms: C_9  and  C_41
    9  A    between atoms: C_12  and  O_17
   10  A    between atoms: C_13  and  N_29
   11  A    between atoms: C_15  and  C_23
   12  A    between atoms: C_16  and  N_24
   13  A    between atoms: O_17  and  C_25
   14  A    between atoms: C_27  and  C_36
   15  A    between atoms: O_28  and  C_32
   16  A    between atoms: C_33  and  C_40
                            x       y       z     vdW  Elec       q    Type
                         _______ _______ _______ _____ _____    ______ ____

>  <TORSDO>
F 16

$$$$
=
 OpenBabel10222418453D

 41 44  0  0  1  0  0  0  0  0999 V2000
  186.7050  177.8330  143.4500 C   0  0  0  0  0  3  0  0  0  0  0  0
  189.3630  177.3890  142.5820 C   0  0  0  0  0  0  0  0  0  0  0  0
  187.0270  177.8370  142.0810 C   0  0  0  0  0  3  0  0  0  0  0  0
  187.4530  177.5750  145.8450 C   0  0  0  0  0  0  0  0  0  0  0  0
  188.3470  177.6410  141.6340 C   0  0  0  0  0  0  0  0  0  0  0  0
  190.7140  177.0660  142.2400 C   0  0  0  0  0  3  0  0  0  0  0  0
  191.6830  176.7880  143.2500 C   0  0  0  0  0  3  0  0  0  0  0  0
  189.0040  177.4100  143.9450 C   0  0  0  0  0  0  0  0  0  0  0  0
  191.2490  176.8510  144.5790 C   0  0  0  0  0  0  0  0  0  0  0  0
  190.9970  176.7210  146.7330 N   0  0  0  0  0  0  0  0  0  0  0  0
  187.6960  177.6250  144.4190 C   0  0  0  0  0  0  0  0  0  0  0  0
  188.5330  177.2810  146.7410 C   0  0  2  0  0  3  0  0  0  0  0  0
  191.8900  176.5840  145.7390 N   0  0  0  0  0  0  0  0  0  0  0  0
  189.8090  177.0730  146.1790 C   0  0  0  0  0  0  0  0  0  0  0  0
  189.9770  177.1570  144.8590 C   0  0  0  0  0  0  0  0  0  0  0  0
  187.7730  178.2870  139.2440 C   0  0  0  0  0  0  0  0  0  0  0  0
  186.6030  178.6490  139.5460 O   0  0  0  0  0  0  0  0  0  0  0  0
  188.5960  177.6440  140.2220 N   0  0  0  0  0  2  0  0  0  0  0  0
  189.0490  177.9890  135.6980 C   0  0  0  0  0  1  0  0  0  0  0  0
  188.2870  178.4610  137.9150 N   0  0  0  0  0  0  0  0  0  0  0  0
  188.5050  177.5440  137.0160 C   0  0  0  0  0  0  0  0  0  0  0  0
  188.2110  176.0900  137.2760 C   0  0  0  0  0  2  0  0  0  0  0  0
  189.0050  175.1350  136.3930 C   0  0  0  0  0  2  0  0  0  0  0  0
  190.0660  174.4120  137.2090 C   0  0  1  0  0  3  0  0  0  0  0  0
  190.7150  173.3100  136.3870 C   0  0  0  0  0  1  0  0  0  0  0  0
  191.9380  176.0600  136.7490 N   0  0  0  0  0  1  0  0  0  0  0  0
  191.1010  175.3800  137.6800 C   0  0  0  0  0  0  0  0  0  0  0  0
  191.2290  175.6030  138.9120 O   0  0  0  0  0  0  0  0  0  0  0  0
  188.5680  178.2590  149.0280 C   0  0  0  0  0  1  0  0  0  0  0  0
  188.2830  177.2070  148.1170 O   0  0  0  0  0  0  0  0  0  0  0  0
  186.1920  177.7850  146.4240 O   0  0  0  0  0  0  0  0  0  0  0  0
  185.3850  178.9380  146.2390 C   0  0  0  0  0  2  0  0  0  0  0  0
  184.0320  178.5220  145.7070 C   0  0  0  0  0  2  0  0  0  0  0  0
  183.6240  179.4470  144.5790 C   0  0  0  0  0  2  0  0  0  0  0  0
  182.9990  178.6270  143.4600 C   0  0  0  0  0  2  0  0  0  0  0  0
  181.7930  179.3210  142.8220 C   0  0  2  0  0  3  0  0  0  0  0  0
  180.5750  179.2430  143.7310 C   0  0  0  0  0  2  0  0  0  0  0  0
  179.9310  177.8710  143.6400 C   0  0  0  0  0  1  0  0  0  0  0  0
  181.4870  178.7700  141.4280 C   0  0  0  0  0  2  0  0  0  0  0  0
  182.7590  178.3140  140.7270 C   0  0  0  0  0  2  0  0  0  0  0  0
  182.5730  176.9340  140.1200 C   0  0  0  0  0  1  0  0  0  0  0  0
  1 11  1  0  0  0  0
  2  8  1  0  0  0  0
  3  1  2  0  0  0  0
  4 31  1  0  0  0  0
  4 12  1  0  0  0  0
  5  3  1  0  0  0  0
  5  2  2  0  0  0  0
  6  2  1  0  0  0  0
  6  7  2  0  0  0  0
  7  9  1  0  0  0  0
  8 11  1  0  0  0  0
  8 15  2  0  0  0  0
  9 15  1  0  0  0  0
  9 13  2  0  0  0  0
 11  4  2  0  0  0  0
 12 30  1  6  0  0  0
 13 10  1  0  0  0  0
 14 10  2  0  0  0  0
 14 12  1  0  0  0  0
 15 14  1  0  0  0  0
 16 17  2  0  0  0  0
 16 18  1  0  0  0  0
 18  5  1  0  0  0  0
 19 21  1  0  0  0  0
 20 16  1  0  0  0  0
 21 22  1  0  0  0  0
 21 20  2  0  0  0  0
 23 24  1  0  0  0  0
 23 22  1  0  0  0  0
 24 25  1  6  0  0  0
 24 27  1  0  0  0  0
 26 27  1  0  0  0  0
 27 28  2  0  0  0  0
 30 29  1  0  0  0  0
 32 31  1  0  0  0  0
 33 32  1  0  0  0  0
 34 33  1  0  0  0  0
 35 34  1  0  0  0  0
 36 39  1  6  0  0  0
 36 35  1  0  0  0  0
 36 37  1  0  0  0  0
 38 37  1  0  0  0  0
 40 39  1  0  0  0  0
 41 40  1  0  0  0  0
M  END
>  <MODEL>
8

>  <REMARK>
 VINA RESULT:      -7.5      2.559      6.285
  Name = 
  16 active torsions:
  status: ('A' for Active; 'I' for Inactive)
    1  A    between atoms: C_4  and  C_25
    2  A    between atoms: C_4  and  C_41
    3  A    between atoms: C_5  and  C_36
    4  A    between atoms: C_7  and  C_27
    5  A    between atoms: C_8  and  C_15
    6  A    between atoms: C_8  and  C_40
    7  A    between atoms: C_9  and  C_27
    8  A    between atoms: C_9  and  C_41
    9  A    between atoms: C_12  and  O_17
   10  A    between atoms: C_13  and  N_29
   11  A    between atoms: C_15  and  C_23
   12  A    between atoms: C_16  and  N_24
   13  A    between atoms: O_17  and  C_25
   14  A    between atoms: C_27  and  C_36
   15  A    between atoms: O_28  and  C_32
   16  A    between atoms: C_33  and  C_40
                            x       y       z     vdW  Elec       q    Type
                         _______ _______ _______ _____ _____    ______ ____

>  <TORSDO>
F 16

$$$$
=
 OpenBabel10222418453D

 41 44  0  0  1  0  0  0  0  0999 V2000
  186.9110  178.1510  142.4550 C   0  0  0  0  0  3  0  0  0  0  0  0
  189.6820  177.7920  141.9990 C   0  0  0  0  0  0  0  0  0  0  0  0
  187.4530  178.2790  141.1620 C   0  0  0  0  0  3  0  0  0  0  0  0
  187.2620  177.6820  144.9080 C   0  0  0  0  0  0  0  0  0  0  0  0
  188.8310  178.1260  140.9230 C   0  0  0  0  0  0  0  0  0  0  0  0
  191.0760  177.5030  141.8570 C   0  0  0  0  0  3  0  0  0  0  0  0
  191.8710  177.1380  142.9840 C   0  0  0  0  0  3  0  0  0  0  0  0
  189.1050  177.6900  143.2820 C   0  0  0  0  0  0  0  0  0  0  0  0
  191.2250  177.0810  144.2240 C   0  0  0  0  0  0  0  0  0  0  0  0
  190.6260  176.7580  146.2870 N   0  0  0  0  0  0  0  0  0  0  0  0
  187.7340  177.8600  143.5510 C   0  0  0  0  0  0  0  0  0  0  0  0
  188.1860  177.3100  145.9390 C   0  0  2  0  0  3  0  0  0  0  0  0
  191.6720  176.7120  145.4460 N   0  0  0  0  0  0  0  0  0  0  0  0
  189.5390  177.1550  145.5790 C   0  0  0  0  0  0  0  0  0  0  0  0
  189.9190  177.3580  144.3170 C   0  0  0  0  0  0  0  0  0  0  0  0
  189.6470  177.1660  138.7170 C   0  0  0  0  0  0  0  0  0  0  0  0
  189.8240  176.0140  139.2000 O   0  0  0  0  0  0  0  0  0  0  0  0
  189.3080  178.2560  139.5770 N   0  0  0  0  0  2  0  0  0  0  0  0
  189.3920  177.6260  134.9730 C   0  0  0  0  0  1  0  0  0  0  0  0
  189.8270  177.4210  137.3150 N   0  0  0  0  0  0  0  0  0  0  0  0
  188.9500  177.2940  136.3610 C   0  0  0  0  0  0  0  0  0  0  0  0
  187.5380  176.8470  136.6330 C   0  0  0  0  0  2  0  0  0  0  0  0
  186.5930  177.9850  136.9990 C   0  0  0  0  0  2  0  0  0  0  0  0
  185.3260  177.4400  137.6410 C   0  0  1  0  0  3  0  0  0  0  0  0
  184.8580  178.3560  138.7620 C   0  0  0  0  0  1  0  0  0  0  0  0
  182.8800  177.4490  136.9700 N   0  0  0  0  0  1  0  0  0  0  0  0
  184.2520  177.2930  136.6150 C   0  0  0  0  0  0  0  0  0  0  0  0
  184.5620  177.0380  135.4220 O   0  0  0  0  0  0  0  0  0  0  0  0
  187.7700  178.1030  148.2600 C   0  0  0  0  0  1  0  0  0  0  0  0
  187.7150  177.1120  147.2440 O   0  0  0  0  0  0  0  0  0  0  0  0
  185.9190  177.8360  145.2880 O   0  0  0  0  0  0  0  0  0  0  0  0
  185.3170  179.0550  145.6950 C   0  0  0  0  0  2  0  0  0  0  0  0
  184.6020  179.6770  144.5160 C   0  0  0  0  0  2  0  0  0  0  0  0
  183.5750  178.7040  143.9750 C   0  0  0  0  0  2  0  0  0  0  0  0
  183.2770  179.0460  142.5230 C   0  0  0  0  0  2  0  0  0  0  0  0
  181.8920  178.5720  142.0770 C   0  0  2  0  0  3  0  0  0  0  0  0
  181.7840  178.5510  140.5580 C   0  0  0  0  0  2  0  0  0  0  0  0
  181.0070  179.7570  140.0640 C   0  0  0  0  0  1  0  0  0  0  0  0
  180.7720  179.4030  142.7050 C   0  0  0  0  0  2  0  0  0  0  0  0
  179.7750  178.5170  143.4380 C   0  0  0  0  0  2  0  0  0  0  0  0
  178.9430  179.3340  144.4110 C   0  0  0  0  0  1  0  0  0  0  0  0
  1 11  1  0  0  0  0
  2  8  1  0  0  0  0
  3  1  2  0  0  0  0
  4 31  1  0  0  0  0
  4 12  1  0  0  0  0
  5  3  1  0  0  0  0
  5  2  2  0  0  0  0
  6  2  1  0  0  0  0
  6  7  2  0  0  0  0
  7  9  1  0  0  0  0
  8 11  1  0  0  0  0
  8 15  2  0  0  0  0
  9 15  1  0  0  0  0
  9 13  2  0  0  0  0
 11  4  2  0  0  0  0
 12 30  1  6  0  0  0
 13 10  1  0  0  0  0
 14 12  1  0  0  0  0
 14 10  2  0  0  0  0
 15 14  1  0  0  0  0
 16 17  2  0  0  0  0
 16 18  1  0  0  0  0
 18  5  1  0  0  0  0
 19 21  1  0  0  0  0
 20 16  1  0  0  0  0
 21 22  1  0  0  0  0
 21 20  2  0  0  0  0
 22 23  1  0  0  0  0
 23 24  1  0  0  0  0
 24 25  1  1  0  0  0
 27 26  1  0  0  0  0
 27 24  1  0  0  0  0
 28 27  2  0  0  0  0
 30 29  1  0  0  0  0
 31 32  1  0  0  0  0
 33 32  1  0  0  0  0
 34 33  1  0  0  0  0
 35 34  1  0  0  0  0
 36 37  1  6  0  0  0
 36 35  1  0  0  0  0
 36 39  1  0  0  0  0
 38 37  1  0  0  0  0
 39 40  1  0  0  0  0
 40 41  1  0  0  0  0
M  END
>  <MODEL>
9

>  <REMARK>
 VINA RESULT:      -7.4      2.432      6.221
  Name = 
  16 active torsions:
  status: ('A' for Active; 'I' for Inactive)
    1  A    between atoms: C_4  and  C_25
    2  A    between atoms: C_4  and  C_41
    3  A    between atoms: C_5  and  C_36
    4  A    between atoms: C_7  and  C_27
    5  A    between atoms: C_8  and  C_15
    6  A    between atoms: C_8  and  C_40
    7  A    between atoms: C_9  and  C_27
    8  A    between atoms: C_9  and  C_41
    9  A    between atoms: C_12  and  O_17
   10  A    between atoms: C_13  and  N_29
   11  A    between atoms: C_15  and  C_23
   12  A    between atoms: C_16  and  N_24
   13  A    between atoms: O_17  and  C_25
   14  A    between atoms: C_27  and  C_36
   15  A    between atoms: O_28  and  C_32
   16  A    between atoms: C_33  and  C_40
                            x       y       z     vdW  Elec       q    Type
                         _______ _______ _______ _____ _____    ______ ____

>  <TORSDO>
F 16

$$$$
