=
 OpenBabel10222419483D

 33 37  0  0  1  0  0  0  0  0999 V2000
  184.1440  178.6660  143.5090 N   0  0  0  0  0  0  0  0  0  0  0  0
  189.1060  178.7010  139.3050 C   0  0  0  0  0  2  0  0  0  0  0  0
  186.1950  178.0780  142.4060 C   0  0  1  0  0  3  0  0  0  0  0  0
  190.2410  177.9940  140.0330 C   0  0  1  0  0  3  0  0  0  0  0  0
  186.3960  178.2550  139.5780 S   0  0  0  0  0  0  0  0  0  0  0  0
  189.7130  177.6850  141.3790 N   0  0  1  0  0  0  0  0  0  0  0  0
  187.6890  177.7580  142.5020 C   0  0  1  0  0  3  0  0  0  0  0  0
  185.4370  178.2550  143.5820 C   0  0  0  0  0  0  0  0  0  0  0  0
  185.9450  178.0390  144.7140 O   0  0  0  0  0  0  0  0  0  0  0  0
  187.9370  176.4860  143.3170 C   0  0  0  0  0  2  0  0  0  0  0  0
  189.5370  174.7790  143.5130 O   0  0  0  0  0  0  0  0  0  0  0  0
  189.2690  175.8510  142.9990 C   0  0  0  0  0  0  0  0  0  0  0  0
  187.9860  178.6670  140.3120 C   0  0  1  0  0  3  0  0  0  0  0  0
  183.5560  178.9290  142.3200 C   0  0  0  0  0  3  0  0  0  0  0  0
  188.3240  177.5810  141.2010 N   0  0  1  0  0  0  0  0  0  0  0  0
  185.5590  178.3800  141.1740 C   0  0  0  0  0  0  0  0  0  0  0  0
  184.2610  178.7900  141.1710 N   0  0  0  0  0  0  0  0  0  0  0  0
  190.2340  176.4450  141.9860 C   0  0  2  0  0  3  0  0  0  0  0  0
  190.6600  176.7480  139.2360 C   0  0  0  0  0  2  0  0  0  0  0  0
  190.3470  176.8810  137.7510 C   0  0  0  0  0  2  0  0  0  0  0  0
  191.4740  176.5840  136.9820 O   0  0  0  0  0  0  0  0  0  0  0  0
  193.6990  176.7330  137.4690 O   0  0  0  0  0  1  0  0  0  0  0  0
  192.4660  176.2430  137.9040 C   0  0  0  0  0  2  0  0  0  0  0  0
  191.5710  176.7270  142.6700 C   0  0  0  0  0  2  0  0  0  0  0  0
  190.8940  176.5420  147.1680 C   0  0  0  0  0  3  0  0  0  0  0  0
  191.8780  176.0080  146.4490 C   0  0  0  0  0  0  0  0  0  0  0  0
  190.9910  179.4560  143.7910 C   0  0  0  0  0  1  0  0  0  0  0  0
  190.8090  178.2220  144.6080 C   0  0  0  0  0  0  0  0  0  0  0  0
  189.6800  177.1640  146.5650 C   0  0  0  0  0  2  0  0  0  0  0  0
  191.4190  176.9470  144.1450 C   0  0  0  0  0  0  0  0  0  0  0  0
  192.8820  175.3750  147.1070 F   0  0  0  0  0  0  0  0  0  0  0  0
  190.0420  178.3230  145.6970 C   0  0  0  0  0  3  0  0  0  0  0  0
  191.9020  176.0010  144.9710 C   0  0  0  0  0  3  0  0  0  0  0  0
  1  8  1  0  0  0  0
  2  4  1  0  0  0  0
  2 13  1  0  0  0  0
  3 16  1  6  0  0  0
  3  7  1  0  0  0  0
  3  8  1  0  0  0  0
  4 19  1  6  0  0  0
  4  6  1  0  0  0  0
  5 13  1  0  0  0  0
  5 16  1  0  0  0  0
  6 18  1  0  0  0  0
  7 10  1  0  0  0  0
  8  9  2  0  0  0  0
 12 10  1  0  0  0  0
 12 11  2  0  0  0  0
 13 15  1  0  0  0  0
 14  1  2  0  0  0  0
 15  6  1  0  0  0  0
 15  7  1  0  0  0  0
 17 16  2  0  0  0  0
 17 14  1  0  0  0  0
 18 24  1  0  0  0  0
 18 12  1  0  0  0  0
 20 19  1  0  0  0  0
 21 20  1  0  0  0  0
 21 23  1  0  0  0  0
 22 23  1  0  0  0  0
 24 30  1  0  0  0  0
 26 31  1  0  0  0  0
 26 25  2  0  0  0  0
 27 28  1  0  0  0  0
 28 32  2  0  0  0  0
 29 25  1  0  0  0  0
 30 28  1  0  0  0  0
 30 33  2  0  0  0  0
 32 29  1  0  0  0  0
 33 26  1  0  0  0  0
M  END
>  <MODEL>
1

>  <REMARK>
 VINA RESULT:      -8.1      0.000      0.000
  Name = 
  6 active torsions:
  status: ('A' for Active; 'I' for Inactive)
    1  A    between atoms: C_2  and  C_6
    2  A    between atoms: C_2  and  C_32
    3  A    between atoms: C_16  and  C_30
    4  A    between atoms: C_27  and  O_29
    5  A    between atoms: O_29  and  C_32
    6  A    between atoms: C_30  and  C_33
                            x       y       z     vdW  Elec       q    Type
                         _______ _______ _______ _____ _____    ______ ____

>  <TORSDO>
F 6

$$$$
=
 OpenBabel10222419483D

 33 37  0  0  1  0  0  0  0  0999 V2000
  181.0860  179.0920  140.1500 N   0  0  0  0  0  2  0  0  0  0  0  0
  184.4350  177.9800  145.6130 C   0  0  0  0  0  2  0  0  0  0  0  0
  182.9180  178.8230  141.6800 C   0  0  0  0  0  0  0  0  0  0  0  0
  185.8280  177.5820  145.1440 C   0  0  1  0  0  3  0  0  0  0  0  0
  182.6700  179.7000  144.3710 S   0  0  0  0  0  0  0  0  0  0  0  0
  185.7570  177.5690  143.6680 N   0  0  1  0  0  0  0  0  0  0  0  0
  184.2750  178.1930  142.0010 C   0  0  1  0  0  3  0  0  0  0  0  0
  182.3450  178.6480  140.4030 C   0  0  0  0  0  0  0  0  0  0  0  0
  182.9870  178.0780  139.4830 O   0  0  0  0  0  0  0  0  0  0  0  0
  185.3560  178.6650  141.0250 C   0  0  0  0  0  2  0  0  0  0  0  0
  187.6850  178.9530  140.9470 O   0  0  0  0  0  0  0  0  0  0  0  0
  186.7470  178.5190  141.5930 C   0  0  0  0  0  0  0  0  0  0  0  0
  183.7020  178.2270  144.3200 C   0  0  1  0  0  3  0  0  0  0  0  0
  180.3470  179.6950  141.1090 C   0  0  0  0  0  3  0  0  0  0  0  0
  184.7410  178.4850  143.3520 N   0  0  1  0  0  0  0  0  0  0  0  0
  182.1120  179.4420  142.6720 C   0  0  0  0  0  0  0  0  0  0  0  0
  180.8580  179.8600  142.3530 N   0  0  0  0  0  0  0  0  0  0  0  0
  187.0060  177.9490  142.9790 C   0  0  2  0  0  3  0  0  0  0  0  0
  186.8580  178.5780  145.7020 C   0  0  0  0  0  2  0  0  0  0  0  0
  186.9050  178.5660  147.2250 C   0  0  0  0  0  2  0  0  0  0  0  0
  187.5900  177.4410  147.6870 O   0  0  0  0  0  0  0  0  0  0  0  0
  189.4830  178.4000  148.5310 O   0  0  0  0  0  1  0  0  0  0  0  0
  188.2360  177.8590  148.8530 C   0  0  0  0  0  2  0  0  0  0  0  0
  187.9210  176.7330  142.8580 C   0  0  0  0  0  2  0  0  0  0  0  0
  191.6500  177.9530  145.1670 C   0  0  0  0  0  3  0  0  0  0  0  0
  190.7220  177.0580  145.4930 C   0  0  0  0  0  0  0  0  0  0  0  0
  190.3440  176.7360  141.0780 C   0  0  0  0  0  1  0  0  0  0  0  0
  190.3850  177.3160  142.4510 C   0  0  0  0  0  0  0  0  0  0  0  0
  191.5160  178.8940  144.0170 C   0  0  0  0  0  2  0  0  0  0  0  0
  189.2910  176.9950  143.4080 C   0  0  0  0  0  0  0  0  0  0  0  0
  190.9040  176.3280  146.6230 F   0  0  0  0  0  0  0  0  0  0  0  0
  191.3860  178.1540  142.7270 C   0  0  0  0  0  3  0  0  0  0  0  0
  189.4680  176.8640  144.7350 C   0  0  0  0  0  3  0  0  0  0  0  0
  1  8  1  0  0  0  0
  1 14  1  0  0  0  0
  3  7  1  0  0  0  0
  3 16  2  0  0  0  0
  4  2  1  0  0  0  0
  4 19  1  6  0  0  0
  6  4  1  0  0  0  0
  7 15  1  0  0  0  0
  8  3  1  0  0  0  0
  9  8  2  0  0  0  0
 10 12  1  0  0  0  0
 10  7  1  0  0  0  0
 11 12  2  0  0  0  0
 12 18  1  0  0  0  0
 13  5  1  0  0  0  0
 13  2  1  0  0  0  0
 14 17  2  0  0  0  0
 15  6  1  0  0  0  0
 15 13  1  0  0  0  0
 16  5  1  0  0  0  0
 17 16  1  0  0  0  0
 18  6  1  0  0  0  0
 19 20  1  0  0  0  0
 20 21  1  0  0  0  0
 21 23  1  0  0  0  0
 22 23  1  0  0  0  0
 24 18  1  0  0  0  0
 24 30  1  0  0  0  0
 25 26  2  0  0  0  0
 26 31  1  0  0  0  0
 27 28  1  0  0  0  0
 28 32  2  0  0  0  0
 28 30  1  0  0  0  0
 29 25  1  0  0  0  0
 30 33  2  0  0  0  0
 32 29  1  0  0  0  0
 33 26  1  0  0  0  0
M  END
>  <MODEL>
2

>  <REMARK>
 VINA RESULT:      -8.1      2.927      5.770
  Name = 
  6 active torsions:
  status: ('A' for Active; 'I' for Inactive)
    1  A    between atoms: C_2  and  C_6
    2  A    between atoms: C_2  and  C_32
    3  A    between atoms: C_16  and  C_30
    4  A    between atoms: C_27  and  O_29
    5  A    between atoms: O_29  and  C_32
    6  A    between atoms: C_30  and  C_33
                            x       y       z     vdW  Elec       q    Type
                         _______ _______ _______ _____ _____    ______ ____

>  <TORSDO>
F 6

$$$$
=
 OpenBabel10222419483D

 33 37  0  0  1  0  0  0  0  0999 V2000
  182.3850  178.9320  142.9550 N   0  0  0  0  0  2  0  0  0  0  0  0
  187.8250  177.1430  146.0380 C   0  0  0  0  0  2  0  0  0  0  0  0
  184.7020  178.4940  143.4110 C   0  0  0  0  0  0  0  0  0  0  0  0
  188.8240  176.8480  144.9280 C   0  0  1  0  0  3  0  0  0  0  0  0
  185.7630  178.9790  146.0010 S   0  0  0  0  0  0  0  0  0  0  0  0
  188.0800  177.0400  143.6670 N   0  0  1  0  0  0  0  0  0  0  0  0
  186.0240  177.8560  142.9770 C   0  0  1  0  0  3  0  0  0  0  0  0
  183.5970  178.4860  142.5340 C   0  0  0  0  0  0  0  0  0  0  0  0
  183.7160  178.0660  141.3530 O   0  0  0  0  0  0  0  0  0  0  0  0
  186.5520  178.4860  141.6860 C   0  0  0  0  0  2  0  0  0  0  0  0
  188.5920  178.8360  140.5770 O   0  0  0  0  0  0  0  0  0  0  0  0
  188.0400  178.2940  141.5190 C   0  0  0  0  0  0  0  0  0  0  0  0
  186.5890  177.5520  145.2790 C   0  0  1  0  0  3  0  0  0  0  0  0
  182.1990  179.3760  144.2180 C   0  0  0  0  0  3  0  0  0  0  0  0
  187.0730  177.9680  143.9840 N   0  0  1  0  0  0  0  0  0  0  0  0
  184.4740  178.9480  144.7360 C   0  0  0  0  0  0  0  0  0  0  0  0
  183.2340  179.3780  145.0940 N   0  0  0  0  0  0  0  0  0  0  0  0
  188.8840  177.5420  142.5360 C   0  0  2  0  0  3  0  0  0  0  0  0
  190.0380  177.7790  145.0750 C   0  0  0  0  0  2  0  0  0  0  0  0
  191.3230  177.0120  145.3640 C   0  0  0  0  0  2  0  0  0  0  0  0
  191.6730  177.1280  146.7100 O   0  0  0  0  0  0  0  0  0  0  0  0
  192.8200  175.9140  148.2670 O   0  0  0  0  0  1  0  0  0  0  0  0
  192.0560  175.8430  147.1000 C   0  0  0  0  0  2  0  0  0  0  0  0
  189.5860  176.3770  141.8420 C   0  0  0  0  0  2  0  0  0  0  0  0
  191.4590  176.9730  137.7360 C   0  0  0  0  0  3  0  0  0  0  0  0
  190.1880  177.1150  138.1020 C   0  0  0  0  0  0  0  0  0  0  0  0
  192.0550  178.0830  142.0160 C   0  0  0  0  0  1  0  0  0  0  0  0
  191.6990  177.3520  140.7670 C   0  0  0  0  0  0  0  0  0  0  0  0
  192.5060  176.3780  138.6170 C   0  0  0  0  0  2  0  0  0  0  0  0
  190.3230  176.8080  140.6100 C   0  0  0  0  0  0  0  0  0  0  0  0
  189.3020  177.5700  137.1810 F   0  0  0  0  0  0  0  0  0  0  0  0
  192.6720  177.1720  139.8700 C   0  0  0  0  0  3  0  0  0  0  0  0
  189.6720  176.7350  139.4350 C   0  0  0  0  0  3  0  0  0  0  0  0
  1 14  1  0  0  0  0
  3 16  2  0  0  0  0
  4 19  1  6  0  0  0
  4  2  1  0  0  0  0
  6 15  1  0  0  0  0
  6  4  1  0  0  0  0
  7  3  1  0  0  0  0
  7 15  1  0  0  0  0
  8  1  1  0  0  0  0
  8  3  1  0  0  0  0
  9  8  2  0  0  0  0
 10  7  1  0  0  0  0
 11 12  2  0  0  0  0
 12 10  1  0  0  0  0
 12 18  1  0  0  0  0
 13  5  1  0  0  0  0
 13  2  1  0  0  0  0
 14 17  2  0  0  0  0
 15 13  1  0  0  0  0
 16 17  1  0  0  0  0
 16  5  1  0  0  0  0
 18  6  1  0  0  0  0
 19 20  1  0  0  0  0
 20 21  1  0  0  0  0
 21 23  1  0  0  0  0
 23 22  1  0  0  0  0
 24 18  1  0  0  0  0
 25 26  2  0  0  0  0
 25 29  1  0  0  0  0
 26 33  1  0  0  0  0
 28 27  1  0  0  0  0
 29 32  1  0  0  0  0
 30 28  1  0  0  0  0
 30 24  1  0  0  0  0
 31 26  1  0  0  0  0
 32 28  2  0  0  0  0
 33 30  2  0  0  0  0
M  END
>  <MODEL>
3

>  <REMARK>
 VINA RESULT:      -7.7      3.123      5.883
  Name = 
  6 active torsions:
  status: ('A' for Active; 'I' for Inactive)
    1  A    between atoms: C_2  and  C_6
    2  A    between atoms: C_2  and  C_32
    3  A    between atoms: C_16  and  C_30
    4  A    between atoms: C_27  and  O_29
    5  A    between atoms: O_29  and  C_32
    6  A    between atoms: C_30  and  C_33
                            x       y       z     vdW  Elec       q    Type
                         _______ _______ _______ _____ _____    ______ ____

>  <TORSDO>
F 6

$$$$
=
 OpenBabel10222419483D

 33 37  0  0  1  0  0  0  0  0999 V2000
  190.7680  177.1060  137.3280 N   0  0  0  0  0  2  0  0  0  0  0  0
  186.9360  178.9350  142.2550 C   0  0  0  0  0  2  0  0  0  0  0  0
  188.8040  177.5770  138.6290 C   0  0  0  0  0  0  0  0  0  0  0  0
  185.5990  179.2680  141.6070 C   0  0  1  0  0  3  0  0  0  0  0  0
  188.7870  177.0640  141.4230 S   0  0  0  0  0  0  0  0  0  0  0  0
  185.8080  179.0860  140.1560 N   0  0  1  0  0  0  0  0  0  0  0  0
  187.4320  178.2460  138.7330 C   0  0  1  0  0  3  0  0  0  0  0  0
  189.4970  177.5800  137.4000 C   0  0  0  0  0  0  0  0  0  0  0  0
  188.9520  178.0240  136.3560 O   0  0  0  0  0  0  0  0  0  0  0  0
  186.4410  177.6490  137.7300 C   0  0  0  0  0  2  0  0  0  0  0  0
  184.1260  177.3570  137.4700 O   0  0  0  0  0  0  0  0  0  0  0  0
  185.0050  177.8710  138.1400 C   0  0  0  0  0  0  0  0  0  0  0  0
  187.7840  178.5190  141.0810 C   0  0  1  0  0  3  0  0  0  0  0  0
  191.4050  176.6350  138.4230 C   0  0  0  0  0  3  0  0  0  0  0  0
  186.8370  178.1350  140.0600 N   0  0  1  0  0  0  0  0  0  0  0  0
  189.5050  177.0940  139.7660 C   0  0  0  0  0  0  0  0  0  0  0  0
  190.7780  176.6360  139.6250 N   0  0  0  0  0  0  0  0  0  0  0  0
  184.6250  178.6200  139.4070 C   0  0  2  0  0  3  0  0  0  0  0  0
  184.5080  178.3570  142.1910 C   0  0  0  0  0  2  0  0  0  0  0  0
  183.7480  179.0240  143.3310 C   0  0  0  0  0  2  0  0  0  0  0  0
  183.8400  178.2610  144.4960 O   0  0  0  0  0  0  0  0  0  0  0  0
  184.4500  178.6530  146.6610 O   0  0  0  0  0  1  0  0  0  0  0  0
  184.7150  178.9650  145.3260 C   0  0  0  0  0  2  0  0  0  0  0  0
  183.7410  179.8100  139.0410 C   0  0  0  0  0  2  0  0  0  0  0  0
  179.5640  178.0730  139.5430 C   0  0  0  0  0  3  0  0  0  0  0  0
  180.5880  178.0420  140.3910 C   0  0  0  0  0  0  0  0  0  0  0  0
  181.6350  181.8310  138.3200 C   0  0  0  0  0  1  0  0  0  0  0  0
  181.2940  180.3980  138.5510 C   0  0  0  0  0  0  0  0  0  0  0  0
  179.6790  178.5430  138.1320 C   0  0  0  0  0  2  0  0  0  0  0  0
  182.2840  179.5160  139.2270 C   0  0  0  0  0  0  0  0  0  0  0  0
  180.3900  177.4940  141.6170 F   0  0  0  0  0  0  0  0  0  0  0  0
  180.1240  179.9670  138.0730 C   0  0  0  0  0  3  0  0  0  0  0  0
  181.9500  178.5030  140.0480 C   0  0  0  0  0  3  0  0  0  0  0  0
  1  8  1  0  0  0  0
  1 14  1  0  0  0  0
  3  7  1  0  0  0  0
  3 16  2  0  0  0  0
  4 19  1  1  0  0  0
  4  2  1  0  0  0  0
  6  4  1  0  0  0  0
  7 15  1  0  0  0  0
  8  3  1  0  0  0  0
  9  8  2  0  0  0  0
 10 12  1  0  0  0  0
 10  7  1  0  0  0  0
 11 12  2  0  0  0  0
 12 18  1  0  0  0  0
 13  5  1  0  0  0  0
 13  2  1  0  0  0  0
 14 17  2  0  0  0  0
 15  6  1  0  0  0  0
 15 13  1  0  0  0  0
 16  5  1  0  0  0  0
 17 16  1  0  0  0  0
 18  6  1  0  0  0  0
 19 20  1  0  0  0  0
 20 21  1  0  0  0  0
 21 23  1  0  0  0  0
 23 22  1  0  0  0  0
 24 30  1  0  0  0  0
 24 18  1  0  0  0  0
 25 26  2  0  0  0  0
 26 31  1  0  0  0  0
 27 28  1  0  0  0  0
 28 30  1  0  0  0  0
 29 25  1  0  0  0  0
 30 33  2  0  0  0  0
 32 29  1  0  0  0  0
 32 28  2  0  0  0  0
 33 26  1  0  0  0  0
M  END
>  <MODEL>
4

>  <REMARK>
 VINA RESULT:      -7.5      4.304      9.010
  Name = 
  6 active torsions:
  status: ('A' for Active; 'I' for Inactive)
    1  A    between atoms: C_2  and  C_6
    2  A    between atoms: C_2  and  C_32
    3  A    between atoms: C_16  and  C_30
    4  A    between atoms: C_27  and  O_29
    5  A    between atoms: O_29  and  C_32
    6  A    between atoms: C_30  and  C_33
                            x       y       z     vdW  Elec       q    Type
                         _______ _______ _______ _____ _____    ______ ____

>  <TORSDO>
F 6

$$$$
=
 OpenBabel10222419483D

 33 37  0  0  1  0  0  0  0  0999 V2000
  189.4490  177.7450  147.9810 N   0  0  0  0  0  2  0  0  0  0  0  0
  184.9810  179.2230  143.4920 C   0  0  0  0  0  2  0  0  0  0  0  0
  188.2670  177.8370  145.8920 C   0  0  0  0  0  0  0  0  0  0  0  0
  185.6820  179.0080  142.1580 C   0  0  1  0  0  3  0  0  0  0  0  0
  185.4270  177.8780  145.8610 S   0  0  0  0  0  0  0  0  0  0  0  0
  187.0690  178.6280  142.4980 N   0  0  1  0  0  0  0  0  0  0  0  0
  188.2970  178.0660  144.3790 C   0  0  1  0  0  3  0  0  0  0  0  0
  189.4720  177.8180  146.6250 C   0  0  0  0  0  0  0  0  0  0  0  0
  190.5840  177.8720  146.0360 O   0  0  0  0  0  0  0  0  0  0  0  0
  189.1630  177.0210  143.6720 C   0  0  0  0  0  2  0  0  0  0  0  0
  189.3600  175.9980  141.5680 O   0  0  0  0  0  0  0  0  0  0  0  0
  188.8050  176.8710  142.2130 C   0  0  0  0  0  0  0  0  0  0  0  0
  186.0490  178.8690  144.4940 C   0  0  1  0  0  3  0  0  0  0  0  0
  188.2820  177.7040  148.6630 C   0  0  0  0  0  3  0  0  0  0  0  0
  186.9740  178.0330  143.7670 N   0  0  1  0  0  0  0  0  0  0  0  0
  187.0570  177.8120  146.6350 C   0  0  0  0  0  0  0  0  0  0  0  0
  187.1050  177.7420  147.9930 N   0  0  0  0  0  0  0  0  0  0  0  0
  187.7100  177.6940  141.5530 C   0  0  2  0  0  3  0  0  0  0  0  0
  184.9290  177.9370  141.3530 C   0  0  0  0  0  2  0  0  0  0  0  0
  183.5590  178.4170  140.8920 C   0  0  0  0  0  2  0  0  0  0  0  0
  183.4620  178.3680  139.5010 O   0  0  0  0  0  0  0  0  0  0  0  0
  184.1810  180.4960  139.0930 O   0  0  0  0  0  1  0  0  0  0  0  0
  183.0690  179.6510  139.1160 C   0  0  0  0  0  2  0  0  0  0  0  0
  188.3040  178.4700  140.3800 C   0  0  0  0  0  2  0  0  0  0  0  0
  186.5730  176.3430  136.7460 C   0  0  0  0  0  3  0  0  0  0  0  0
  186.2270  177.5160  137.2700 C   0  0  0  0  0  0  0  0  0  0  0  0
  190.4850  177.5200  138.5410 C   0  0  0  0  0  1  0  0  0  0  0  0
  189.0690  177.0910  138.3580 C   0  0  0  0  0  0  0  0  0  0  0  0
  187.5090  175.3900  137.4110 C   0  0  0  0  0  2  0  0  0  0  0  0
  187.9880  177.8360  139.0590 C   0  0  0  0  0  0  0  0  0  0  0  0
  185.2860  178.2530  136.6280 F   0  0  0  0  0  0  0  0  0  0  0  0
  188.8550  176.0060  137.6110 C   0  0  0  0  0  3  0  0  0  0  0  0
  186.7570  178.0290  138.5520 C   0  0  0  0  0  3  0  0  0  0  0  0
  1 14  1  0  0  0  0
  2 13  1  0  0  0  0
  3  8  1  0  0  0  0
  3 16  2  0  0  0  0
  4 19  1  1  0  0  0
  4  6  1  0  0  0  0
  4  2  1  0  0  0  0
  5 16  1  0  0  0  0
  6 15  1  0  0  0  0
  7  3  1  0  0  0  0
  8  1  1  0  0  0  0
  9  8  2  0  0  0  0
 10  7  1  0  0  0  0
 11 12  2  0  0  0  0
 12 10  1  0  0  0  0
 13  5  1  0  0  0  0
 15  7  1  0  0  0  0
 15 13  1  0  0  0  0
 16 17  1  0  0  0  0
 17 14  2  0  0  0  0
 18 12  1  0  0  0  0
 18  6  1  0  0  0  0
 20 19  1  0  0  0  0
 21 20  1  0  0  0  0
 22 23  1  0  0  0  0
 23 21  1  0  0  0  0
 24 18  1  0  0  0  0
 25 26  2  0  0  0  0
 25 29  1  0  0  0  0
 26 33  1  0  0  0  0
 28 27  1  0  0  0  0
 28 30  1  0  0  0  0
 29 32  1  0  0  0  0
 30 24  1  0  0  0  0
 31 26  1  0  0  0  0
 32 28  2  0  0  0  0
 33 30  2  0  0  0  0
M  END
>  <MODEL>
5

>  <REMARK>
 VINA RESULT:      -7.5      3.875      6.958
  Name = 
  6 active torsions:
  status: ('A' for Active; 'I' for Inactive)
    1  A    between atoms: C_2  and  C_6
    2  A    between atoms: C_2  and  C_32
    3  A    between atoms: C_16  and  C_30
    4  A    between atoms: C_27  and  O_29
    5  A    between atoms: O_29  and  C_32
    6  A    between atoms: C_30  and  C_33
                            x       y       z     vdW  Elec       q    Type
                         _______ _______ _______ _____ _____    ______ ____

>  <TORSDO>
F 6

$$$$
=
 OpenBabel10222419483D

 33 37  0  0  1  0  0  0  0  0999 V2000
  189.3960  177.7490  147.0860 N   0  0  0  0  0  0  0  0  0  0  0  0
  185.5370  179.2150  142.0590 C   0  0  0  0  0  2  0  0  0  0  0  0
  188.4910  177.8370  144.8620 C   0  0  1  0  0  3  0  0  0  0  0  0
  186.4040  179.0020  140.8260 C   0  0  1  0  0  3  0  0  0  0  0  0
  185.6790  177.8700  144.4660 S   0  0  0  0  0  0  0  0  0  0  0  0
  187.7370  178.6260  141.3410 N   0  0  1  0  0  0  0  0  0  0  0  0
  188.7150  178.0670  143.3660 C   0  0  1  0  0  3  0  0  0  0  0  0
  189.5930  177.8220  145.7430 C   0  0  0  0  0  0  0  0  0  0  0  0
  190.7710  177.8790  145.3020 O   0  0  0  0  0  0  0  0  0  0  0  0
  189.6680  177.0240  142.7760 C   0  0  0  0  0  2  0  0  0  0  0  0
  190.1360  176.0030  140.7140 O   0  0  0  0  0  0  0  0  0  0  0  0
  189.5010  176.8740  141.2830 C   0  0  0  0  0  0  0  0  0  0  0  0
  186.4690  178.8640  143.1900 C   0  0  1  0  0  3  0  0  0  0  0  0
  188.1510  177.7040  147.6120 C   0  0  0  0  0  3  0  0  0  0  0  0
  187.4820  178.0300  142.5880 N   0  0  1  0  0  0  0  0  0  0  0  0
  187.1970  177.8090  145.4430 C   0  0  0  0  0  0  0  0  0  0  0  0
  187.0690  177.7380  146.7960 N   0  0  0  0  0  0  0  0  0  0  0  0
  188.4970  177.6930  140.4880 C   0  0  2  0  0  3  0  0  0  0  0  0
  185.7640  177.9280  139.9310 C   0  0  0  0  0  2  0  0  0  0  0  0
  184.8510  178.5300  138.8710 C   0  0  0  0  0  2  0  0  0  0  0  0
  184.5850  179.8710  139.1540 O   0  0  0  0  0  0  0  0  0  0  0  0
  182.8490  181.2890  138.7180 O   0  0  0  0  0  1  0  0  0  0  0  0
  183.1940  179.9880  139.0920 C   0  0  0  0  0  2  0  0  0  0  0  0
  189.2350  178.4720  139.4000 C   0  0  0  0  0  2  0  0  0  0  0  0
  187.6510  176.8030  135.4710 C   0  0  0  0  0  3  0  0  0  0  0  0
  187.5750  178.0450  135.9420 C   0  0  0  0  0  0  0  0  0  0  0  0
  191.3390  176.8580  137.9830 C   0  0  0  0  0  1  0  0  0  0  0  0
  189.9180  176.8540  137.5320 C   0  0  0  0  0  0  0  0  0  0  0  0
  188.1290  175.6450  136.2820 C   0  0  0  0  0  2  0  0  0  0  0  0
  188.9940  177.9070  138.0330 C   0  0  0  0  0  0  0  0  0  0  0  0
  187.0250  178.9990  135.1490 F   0  0  0  0  0  0  0  0  0  0  0  0
  189.5360  175.8500  136.7390 C   0  0  0  0  0  3  0  0  0  0  0  0
  187.9880  178.4300  137.3090 C   0  0  0  0  0  3  0  0  0  0  0  0
  1 14  2  0  0  0  0
  2 13  1  0  0  0  0
  3 16  1  1  0  0  0
  3  8  1  0  0  0  0
  4 19  1  6  0  0  0
  4  6  1  0  0  0  0
  4  2  1  0  0  0  0
  5 16  1  0  0  0  0
  6 15  1  0  0  0  0
  7  3  1  0  0  0  0
  8  1  1  0  0  0  0
  9  8  2  0  0  0  0
 10  7  1  0  0  0  0
 11 12  2  0  0  0  0
 12 10  1  0  0  0  0
 13  5  1  0  0  0  0
 15 13  1  0  0  0  0
 15  7  1  0  0  0  0
 16 17  2  0  0  0  0
 17 14  1  0  0  0  0
 18 12  1  0  0  0  0
 18  6  1  0  0  0  0
 20 21  1  0  0  0  0
 20 19  1  0  0  0  0
 22 23  1  0  0  0  0
 23 21  1  0  0  0  0
 24 18  1  0  0  0  0
 25 26  2  0  0  0  0
 25 29  1  0  0  0  0
 26 33  1  0  0  0  0
 28 27  1  0  0  0  0
 28 30  1  0  0  0  0
 29 32  1  0  0  0  0
 30 24  1  0  0  0  0
 31 26  1  0  0  0  0
 32 28  2  0  0  0  0
 33 30  2  0  0  0  0
M  END
>  <MODEL>
6

>  <REMARK>
 VINA RESULT:      -7.2      3.801      6.932
  Name = 
  6 active torsions:
  status: ('A' for Active; 'I' for Inactive)
    1  A    between atoms: C_2  and  C_6
    2  A    between atoms: C_2  and  C_32
    3  A    between atoms: C_16  and  C_30
    4  A    between atoms: C_27  and  O_29
    5  A    between atoms: O_29  and  C_32
    6  A    between atoms: C_30  and  C_33
                            x       y       z     vdW  Elec       q    Type
                         _______ _______ _______ _____ _____    ______ ____

>  <TORSDO>
F 6

$$$$
=
 OpenBabel10222419483D

 33 37  0  0  1  0  0  0  0  0999 V2000
  182.8310  179.1980  139.9400 N   0  0  0  0  0  0  0  0  0  0  0  0
  189.1490  178.3800  138.6300 C   0  0  0  0  0  2  0  0  0  0  0  0
  185.1380  178.5680  140.1660 C   0  0  1  0  0  3  0  0  0  0  0  0
  189.8130  178.2200  139.9910 C   0  0  1  0  0  3  0  0  0  0  0  0
  186.5900  177.6370  137.9090 S   0  0  0  0  0  0  0  0  0  0  0  0
  188.7290  178.3890  140.9800 N   0  0  1  0  0  0  0  0  0  0  0  0
  186.4190  178.5660  141.0030 C   0  0  1  0  0  3  0  0  0  0  0  0
  183.9400  179.0710  140.7150 C   0  0  0  0  0  0  0  0  0  0  0  0
  183.8800  179.4100  141.9250 O   0  0  0  0  0  0  0  0  0  0  0  0
  186.2340  177.7830  142.3060 C   0  0  0  0  0  2  0  0  0  0  0  0
  187.5190  176.5860  143.8640 O   0  0  0  0  0  0  0  0  0  0  0  0
  187.5450  177.3040  142.8800 C   0  0  0  0  0  0  0  0  0  0  0  0
  187.6960  178.5650  138.9840 C   0  0  1  0  0  3  0  0  0  0  0  0
  182.8480  178.8650  138.6290 C   0  0  0  0  0  3  0  0  0  0  0  0
  187.5630  177.9940  140.3030 N   0  0  1  0  0  0  0  0  0  0  0  0
  185.1320  178.2450  138.7830 C   0  0  0  0  0  0  0  0  0  0  0  0
  183.9880  178.4000  138.0630 N   0  0  0  0  0  0  0  0  0  0  0  0
  188.8810  177.5980  142.2160 C   0  0  2  0  0  3  0  0  0  0  0  0
  190.5040  176.8480  140.0620 C   0  0  0  0  0  2  0  0  0  0  0  0
  190.5480  176.1530  138.7080 C   0  0  0  0  0  2  0  0  0  0  0  0
  191.8620  176.0610  138.2440 O   0  0  0  0  0  0  0  0  0  0  0  0
  190.7330  174.1320  137.7770 O   0  0  0  0  0  1  0  0  0  0  0  0
  191.9620  174.7880  137.6780 C   0  0  0  0  0  2  0  0  0  0  0  0
  189.7780  178.3450  143.2020 C   0  0  0  0  0  2  0  0  0  0  0  0
  190.3600  176.8300  147.4550 C   0  0  0  0  0  3  0  0  0  0  0  0
  189.2690  177.3450  146.8940 C   0  0  0  0  0  0  0  0  0  0  0  0
  191.0900  175.6400  143.2180 C   0  0  0  0  0  1  0  0  0  0  0  0
  190.9190  176.4310  144.4700 C   0  0  0  0  0  0  0  0  0  0  0  0
  191.7020  176.8400  146.8030 C   0  0  0  0  0  2  0  0  0  0  0  0
  189.9790  177.5850  144.4770 C   0  0  0  0  0  0  0  0  0  0  0  0
  188.1260  177.3750  147.6240 F   0  0  0  0  0  0  0  0  0  0  0  0
  191.6800  176.0890  145.5120 C   0  0  0  0  0  3  0  0  0  0  0  0
  189.2490  177.9520  145.5460 C   0  0  0  0  0  3  0  0  0  0  0  0
  1  8  1  0  0  0  0
  2 13  1  0  0  0  0
  2  4  1  0  0  0  0
  3 16  1  6  0  0  0
  3  8  1  0  0  0  0
  3  7  1  0  0  0  0
  4 19  1  6  0  0  0
  4  6  1  0  0  0  0
  5 16  1  0  0  0  0
  5 13  1  0  0  0  0
  6 18  1  0  0  0  0
  7 10  1  0  0  0  0
  8  9  2  0  0  0  0
 10 12  1  0  0  0  0
 12 11  2  0  0  0  0
 13 15  1  0  0  0  0
 14  1  2  0  0  0  0
 15  6  1  0  0  0  0
 15  7  1  0  0  0  0
 17 14  1  0  0  0  0
 17 16  2  0  0  0  0
 18 12  1  0  0  0  0
 18 24  1  0  0  0  0
 20 19  1  0  0  0  0
 21 20  1  0  0  0  0
 23 22  1  0  0  0  0
 23 21  1  0  0  0  0
 24 30  1  0  0  0  0
 26 25  2  0  0  0  0
 26 31  1  0  0  0  0
 27 28  1  0  0  0  0
 28 30  1  0  0  0  0
 28 32  2  0  0  0  0
 29 25  1  0  0  0  0
 30 33  2  0  0  0  0
 32 29  1  0  0  0  0
 33 26  1  0  0  0  0
M  END
>  <MODEL>
7

>  <REMARK>
 VINA RESULT:      -7.2      1.883      2.579
  Name = 
  6 active torsions:
  status: ('A' for Active; 'I' for Inactive)
    1  A    between atoms: C_2  and  C_6
    2  A    between atoms: C_2  and  C_32
    3  A    between atoms: C_16  and  C_30
    4  A    between atoms: C_27  and  O_29
    5  A    between atoms: O_29  and  C_32
    6  A    between atoms: C_30  and  C_33
                            x       y       z     vdW  Elec       q    Type
                         _______ _______ _______ _____ _____    ______ ____

>  <TORSDO>
F 6

$$$$
=
 OpenBabel10222419483D

 33 37  0  0  1  0  0  0  0  0999 V2000
  190.8810  177.5030  140.3810 N   0  0  0  0  0  2  0  0  0  0  0  0
  185.2470  178.9500  143.2930 C   0  0  0  0  0  2  0  0  0  0  0  0
  188.5350  177.8810  140.7370 C   0  0  0  0  0  0  0  0  0  0  0  0
  184.3130  179.3480  142.1590 C   0  0  1  0  0  3  0  0  0  0  0  0
  187.3270  177.1370  143.1980 S   0  0  0  0  0  0  0  0  0  0  0  0
  185.1330  179.2860  140.9310 N   0  0  1  0  0  0  0  0  0  0  0  0
  187.2340  178.5520  140.2900 C   0  0  1  0  0  3  0  0  0  0  0  0
  189.6900  177.9810  139.9340 C   0  0  0  0  0  0  0  0  0  0  0  0
  189.6380  178.5160  138.7950 O   0  0  0  0  0  0  0  0  0  0  0  0
  186.7920  178.0510  138.9130 C   0  0  0  0  0  2  0  0  0  0  0  0
  184.8250  177.8020  137.6550 O   0  0  0  0  0  0  0  0  0  0  0  0
  185.3140  178.2510  138.6770 C   0  0  0  0  0  0  0  0  0  0  0  0
  186.5300  178.6250  142.5720 C   0  0  1  0  0  3  0  0  0  0  0  0
  190.9950  176.9360  141.6040 C   0  0  0  0  0  3  0  0  0  0  0  0
  186.1290  178.3370  141.2160 N   0  0  1  0  0  0  0  0  0  0  0  0
  188.6890  177.2990  142.0230 C   0  0  0  0  0  0  0  0  0  0  0  0
  189.9110  176.8420  142.4110 N   0  0  0  0  0  0  0  0  0  0  0  0
  184.4030  178.8940  139.7100 C   0  0  2  0  0  3  0  0  0  0  0  0
  183.1020  178.4010  142.1390 C   0  0  0  0  0  2  0  0  0  0  0  0
  181.8870  179.0030  142.8330 C   0  0  0  0  0  2  0  0  0  0  0  0
  180.7250  178.3150  142.4770 O   0  0  0  0  0  0  0  0  0  0  0  0
  180.2340  180.5140  142.8450 O   0  0  0  0  0  1  0  0  0  0  0  0
  179.7340  179.2940  142.3850 C   0  0  0  0  0  2  0  0  0  0  0  0
  183.7310  180.1200  139.0940 C   0  0  0  0  0  2  0  0  0  0  0  0
  179.7200  178.5060  137.6700 C   0  0  0  0  0  3  0  0  0  0  0  0
  180.4110  178.1810  138.7590 C   0  0  0  0  0  0  0  0  0  0  0  0
  181.8690  182.3570  138.3430 C   0  0  0  0  0  1  0  0  0  0  0  0
  181.5500  180.9370  138.0220 C   0  0  0  0  0  0  0  0  0  0  0  0
  180.2640  179.3630  136.5760 C   0  0  0  0  0  2  0  0  0  0  0  0
  182.3110  179.8510  138.6970 C   0  0  0  0  0  0  0  0  0  0  0  0
  179.8540  177.3090  139.6360 F   0  0  0  0  0  0  0  0  0  0  0  0
  180.6260  180.7200  137.0840 C   0  0  0  0  0  3  0  0  0  0  0  0
  181.7840  178.6590  139.0310 C   0  0  0  0  0  3  0  0  0  0  0  0
  1 14  1  0  0  0  0
  3 16  2  0  0  0  0
  4 19  1  6  0  0  0
  4  2  1  0  0  0  0
  6 15  1  0  0  0  0
  6  4  1  0  0  0  0
  7  3  1  0  0  0  0
  7 15  1  0  0  0  0
  8  1  1  0  0  0  0
  8  3  1  0  0  0  0
  9  8  2  0  0  0  0
 10  7  1  0  0  0  0
 11 12  2  0  0  0  0
 12 10  1  0  0  0  0
 12 18  1  0  0  0  0
 13  5  1  0  0  0  0
 13  2  1  0  0  0  0
 14 17  2  0  0  0  0
 15 13  1  0  0  0  0
 16 17  1  0  0  0  0
 16  5  1  0  0  0  0
 18  6  1  0  0  0  0
 19 20  1  0  0  0  0
 21 20  1  0  0  0  0
 23 21  1  0  0  0  0
 23 22  1  0  0  0  0
 24 18  1  0  0  0  0
 25 26  2  0  0  0  0
 26 33  1  0  0  0  0
 26 31  1  0  0  0  0
 28 27  1  0  0  0  0
 28 30  1  0  0  0  0
 29 32  1  0  0  0  0
 29 25  1  0  0  0  0
 30 33  2  0  0  0  0
 30 24  1  0  0  0  0
 32 28  2  0  0  0  0
M  END
>  <MODEL>
8

>  <REMARK>
 VINA RESULT:      -7.0      4.482      9.386
  Name = 
  6 active torsions:
  status: ('A' for Active; 'I' for Inactive)
    1  A    between atoms: C_2  and  C_6
    2  A    between atoms: C_2  and  C_32
    3  A    between atoms: C_16  and  C_30
    4  A    between atoms: C_27  and  O_29
    5  A    between atoms: O_29  and  C_32
    6  A    between atoms: C_30  and  C_33
                            x       y       z     vdW  Elec       q    Type
                         _______ _______ _______ _____ _____    ______ ____

>  <TORSDO>
F 6

$$$$
=
 OpenBabel10222419483D

 33 37  0  0  1  0  0  0  0  0999 V2000
  181.5210  179.2070  143.3200 N   0  0  0  0  0  0  0  0  0  0  0  0
  186.8380  178.9260  139.5840 C   0  0  0  0  0  2  0  0  0  0  0  0
  183.7370  178.6860  142.5520 C   0  0  1  0  0  3  0  0  0  0  0  0
  187.9780  178.6290  140.5490 C   0  0  1  0  0  3  0  0  0  0  0  0
  184.2010  178.1370  139.8040 S   0  0  0  0  0  0  0  0  0  0  0  0
  187.3620  178.6080  141.8920 N   0  0  1  0  0  0  0  0  0  0  0  0
  185.2420  178.6490  142.8240 C   0  0  1  0  0  3  0  0  0  0  0  0
  182.8440  179.0440  143.5830 C   0  0  0  0  0  0  0  0  0  0  0  0
  183.2570  179.2210  144.7590 O   0  0  0  0  0  0  0  0  0  0  0  0
  185.5790  177.6960  143.9740 C   0  0  0  0  0  2  0  0  0  0  0  0
  187.3710  176.3830  144.7350 O   0  0  0  0  0  0  0  0  0  0  0  0
  187.0110  177.2220  143.9270 C   0  0  0  0  0  0  0  0  0  0  0  0
  185.6350  178.9800  140.4910 C   0  0  1  0  0  3  0  0  0  0  0  0
  181.0280  179.0470  142.0710 C   0  0  0  0  0  3  0  0  0  0  0  0
  186.0260  178.2370  141.6650 N   0  0  1  0  0  0  0  0  0  0  0  0
  183.1950  178.5440  141.2470 C   0  0  0  0  0  0  0  0  0  0  0  0
  181.8610  178.7240  141.0510 N   0  0  0  0  0  0  0  0  0  0  0  0
  187.9840  177.6740  142.8500 C   0  0  2  0  0  3  0  0  0  0  0  0
  188.6460  177.3010  140.1560 C   0  0  0  0  0  2  0  0  0  0  0  0
  190.1190  177.4760  139.8110 C   0  0  0  0  0  2  0  0  0  0  0  0
  190.3410  177.2190  138.4570 O   0  0  0  0  0  0  0  0  0  0  0  0
  190.6220  174.9630  138.2420 O   0  0  0  0  0  1  0  0  0  0  0  0
  189.6950  176.0070  138.2050 C   0  0  0  0  0  2  0  0  0  0  0  0
  189.1910  178.3380  143.5100 C   0  0  0  0  0  2  0  0  0  0  0  0
  190.9510  176.6270  147.3440 C   0  0  0  0  0  3  0  0  0  0  0  0
  189.7450  177.1490  147.1400 C   0  0  0  0  0  0  0  0  0  0  0  0
  190.4630  175.6590  143.0160 C   0  0  0  0  0  1  0  0  0  0  0  0
  190.6490  176.3840  144.3050 C   0  0  0  0  0  0  0  0  0  0  0  0
  192.0550  176.6920  146.3420 C   0  0  0  0  0  2  0  0  0  0  0  0
  189.7460  177.5200  144.6370 C   0  0  0  0  0  0  0  0  0  0  0  0
  188.8540  177.1240  148.1620 F   0  0  0  0  0  0  0  0  0  0  0  0
  191.6730  176.0050  145.0730 C   0  0  0  0  0  3  0  0  0  0  0  0
  189.3450  177.8210  145.8850 C   0  0  0  0  0  3  0  0  0  0  0  0
  1  8  1  0  0  0  0
  2 13  1  0  0  0  0
  2  4  1  0  0  0  0
  3 16  1  6  0  0  0
  3  7  1  0  0  0  0
  3  8  1  0  0  0  0
  4 19  1  6  0  0  0
  4  6  1  0  0  0  0
  5 13  1  0  0  0  0
  5 16  1  0  0  0  0
  6 18  1  0  0  0  0
  7 10  1  0  0  0  0
  8  9  2  0  0  0  0
 12 10  1  0  0  0  0
 12 11  2  0  0  0  0
 13 15  1  0  0  0  0
 14  1  2  0  0  0  0
 15  6  1  0  0  0  0
 15  7  1  0  0  0  0
 17 16  2  0  0  0  0
 17 14  1  0  0  0  0
 18 24  1  0  0  0  0
 18 12  1  0  0  0  0
 20 19  1  0  0  0  0
 21 20  1  0  0  0  0
 23 22  1  0  0  0  0
 23 21  1  0  0  0  0
 24 30  1  0  0  0  0
 26 25  2  0  0  0  0
 26 31  1  0  0  0  0
 27 28  1  0  0  0  0
 28 30  1  0  0  0  0
 28 32  2  0  0  0  0
 29 25  1  0  0  0  0
 30 33  2  0  0  0  0
 32 29  1  0  0  0  0
 33 26  1  0  0  0  0
M  END
>  <MODEL>
9

>  <REMARK>
 VINA RESULT:      -6.9      1.808      2.683
  Name = 
  6 active torsions:
  status: ('A' for Active; 'I' for Inactive)
    1  A    between atoms: C_2  and  C_6
    2  A    between atoms: C_2  and  C_32
    3  A    between atoms: C_16  and  C_30
    4  A    between atoms: C_27  and  O_29
    5  A    between atoms: O_29  and  C_32
    6  A    between atoms: C_30  and  C_33
                            x       y       z     vdW  Elec       q    Type
                         _______ _______ _______ _____ _____    ______ ____

>  <TORSDO>
F 6

$$$$
