=
 OpenBabel10222418213D

 34 39  0  0  1  0  0  0  0  0999 V2000
  183.8940  176.7090  137.6140 N   0  0  2  0  0  0  0  0  0  0  0  0
  182.8970  177.0240  135.3900 C   0  0  0  0  0  2  0  0  0  0  0  0
  183.8360  176.1250  134.5940 C   0  0  0  0  0  2  0  0  0  0  0  0
  182.6990  176.4880  136.8040 C   0  0  0  0  0  2  0  0  0  0  0  0
  184.9070  175.6980  137.3110 C   0  0  0  0  0  2  0  0  0  0  0  0
  185.2740  176.3690  134.9530 C   0  0  0  0  0  3  0  0  0  0  0  0
  185.7760  176.1680  136.1840 C   0  0  0  0  0  0  0  0  0  0  0  0
  179.4480  177.6140  141.1170 C   0  0  0  0  0  3  0  0  0  0  0  0
  182.0210  178.0840  140.2720 C   0  0  0  0  0  0  0  0  0  0  0  0
  183.4180  178.1210  139.7700 C   0  0  1  0  0  3  0  0  0  0  0  0
  181.4260  176.8920  139.9790 C   0  0  0  0  0  0  0  0  0  0  0  0
  181.3820  179.0420  140.9920 N   0  0  0  0  0  0  0  0  0  0  0  0
  180.1010  178.8260  141.4140 C   0  0  0  0  0  3  0  0  0  0  0  0
  180.1230  176.6230  140.3880 C   0  0  0  0  0  3  0  0  0  0  0  0
  182.2740  176.0240  139.2570 N   0  0  0  0  0  2  0  0  0  0  0  0
  183.5430  176.7280  139.0440 C   0  0  1  0  0  3  0  0  0  0  0  0
  183.6570  179.3570  138.9540 C   0  0  0  0  0  3  0  0  0  0  0  0
  184.4460  180.2050  139.3360 O   0  0  0  0  0  0  0  0  0  0  0  0
  187.2290  176.4250  136.4710 C   0  0  1  0  0  3  0  0  0  0  0  0
  187.1890  178.2760  138.2960 C   0  0  1  0  0  3  0  0  0  0  0  0
  186.8300  179.0300  137.1730 O   0  0  0  0  0  1  0  0  0  0  0  0
  187.4540  176.7940  137.9560 C   0  0  2  0  0  3  0  0  0  0  0  0
  189.3120  178.1780  137.0290 O   0  0  0  0  0  1  0  0  0  0  0  0
  188.6140  177.7610  138.1680 C   0  0  1  0  0  0  0  0  0  0  0  0
  189.3860  177.6160  139.4390 C   0  0  0  0  0  0  0  0  0  0  0  0
  190.8150  177.2630  141.8230 C   0  0  0  0  0  0  0  0  0  0  0  0
  190.7580  177.3370  139.4030 C   0  0  0  0  0  3  0  0  0  0  0  0
  188.7280  177.6950  140.6750 C   0  0  0  0  0  3  0  0  0  0  0  0
  191.4720  177.1650  140.5930 C   0  0  0  0  0  3  0  0  0  0  0  0
  189.4430  177.5250  141.8630 C   0  0  0  0  0  3  0  0  0  0  0  0
  191.5250  177.0950  143.0030 O   0  0  0  0  0  1  0  0  0  0  0  0
  188.8310  174.5830  136.9710 N   0  0  0  0  0  2  0  0  0  0  0  0
  188.0990  175.2820  135.9030 C   0  0  1  0  0  3  0  0  0  0  0  0
  187.6680  173.9500  136.3280 C   0  0  0  0  0  2  0  0  0  0  0  0
  1  4  1  6  0  0  0
  1 16  1  0  0  0  0
  2  4  1  0  0  0  0
  3  6  1  0  0  0  0
  3  2  1  0  0  0  0
  5  1  1  0  0  0  0
  6  7  2  0  0  0  0
  7  5  1  0  0  0  0
  8 13  1  0  0  0  0
  9 12  1  0  0  0  0
 10 17  1  6  0  0  0
 10  9  1  0  0  0  0
 11  9  2  0  0  0  0
 11 14  1  0  0  0  0
 12 13  2  0  0  0  0
 14  8  2  0  0  0  0
 15 11  1  0  0  0  0
 16 15  1  6  0  0  0
 16 10  1  0  0  0  0
 17 18  2  0  0  0  0
 19  7  1  1  0  0  0
 20 21  1  6  0  0  0
 22 19  1  6  0  0  0
 22 24  1  0  0  0  0
 22 20  1  0  0  0  0
 24 23  1  6  0  0  0
 24 20  1  0  0  0  0
 24 25  1  0  0  0  0
 25 28  1  0  0  0  0
 26 30  1  0  0  0  0
 26 31  1  0  0  0  0
 27 25  2  0  0  0  0
 27 29  1  0  0  0  0
 28 30  2  0  0  0  0
 29 26  2  0  0  0  0
 33 34  1  0  0  0  0
 33 19  1  1  0  0  0
 33 32  1  0  0  0  0
 34 32  1  0  0  0  0
M  END
>  <MODEL>
1

>  <REMARK>
 VINA RESULT:      -6.3      0.000      0.000
  Name = 
  6 active torsions:
  status: ('A' for Active; 'I' for Inactive)
    1  A    between atoms: C_1  and  C_32
    2  A    between atoms: N_2  and  C_33
    3  A    between atoms: C_9  and  C_19
    4  A    between atoms: C_10  and  C_29
    5  A    between atoms: C_26  and  C_29
    6  A    between atoms: C_29  and  C_34
                            x       y       z     vdW  Elec       q    Type
                         _______ _______ _______ _____ _____    ______ ____

>  <TORSDO>
F 6

$$$$
=
 OpenBabel10222418213D

 34 39  0  0  1  0  0  0  0  0999 V2000
  189.0610  177.9470  141.2140 N   0  0  2  0  0  0  0  0  0  0  0  0
  190.8540  176.9140  142.5390 C   0  0  0  0  0  2  0  0  0  0  0  0
  189.9940  176.0030  143.4080 C   0  0  0  0  0  2  0  0  0  0  0  0
  190.2390  177.0850  141.1540 C   0  0  0  0  0  2  0  0  0  0  0  0
  187.9040  177.1930  141.6970 C   0  0  0  0  0  2  0  0  0  0  0  0
  188.8010  176.7290  143.9610 C   0  0  0  0  0  3  0  0  0  0  0  0
  187.8370  177.2650  143.1930 C   0  0  0  0  0  0  0  0  0  0  0  0
  186.2270  177.0170  136.3190 C   0  0  0  0  0  3  0  0  0  0  0  0
  188.5070  177.5850  137.7470 C   0  0  0  0  0  0  0  0  0  0  0  0
  189.6050  178.0090  138.6510 C   0  0  1  0  0  3  0  0  0  0  0  0
  187.2880  177.8720  138.2860 C   0  0  0  0  0  0  0  0  0  0  0  0
  188.6270  177.0440  136.5060 N   0  0  0  0  0  0  0  0  0  0  0  0
  187.5040  176.7500  135.7870 C   0  0  0  0  0  3  0  0  0  0  0  0
  186.1130  177.5940  137.5930 C   0  0  0  0  0  3  0  0  0  0  0  0
  187.3860  178.4650  139.5650 N   0  0  0  0  0  2  0  0  0  0  0  0
  188.8110  178.5570  139.8970 C   0  0  1  0  0  3  0  0  0  0  0  0
  190.5710  176.8830  138.8780 C   0  0  0  0  0  3  0  0  0  0  0  0
  191.5300  176.7350  138.1410 O   0  0  0  0  0  0  0  0  0  0  0  0
  186.6650  177.9700  143.8150 C   0  0  1  0  0  3  0  0  0  0  0  0
  185.3390  179.1570  141.9190 C   0  0  1  0  0  3  0  0  0  0  0  0
  186.3770  180.0770  142.1060 O   0  0  0  0  0  1  0  0  0  0  0  0
  185.4330  177.9520  142.8790 C   0  0  2  0  0  3  0  0  0  0  0  0
  184.7740  179.9730  144.1850 O   0  0  0  0  0  1  0  0  0  0  0  0
  184.4520  179.0860  143.1520 C   0  0  1  0  0  0  0  0  0  0  0  0
  183.0050  178.7950  142.9140 C   0  0  0  0  0  0  0  0  0  0  0  0
  180.2800  178.3340  142.4610 C   0  0  0  0  0  0  0  0  0  0  0  0
  182.5340  178.5820  141.6120 C   0  0  0  0  0  3  0  0  0  0  0  0
  182.1010  178.8000  143.9850 C   0  0  0  0  0  3  0  0  0  0  0  0
  181.1740  178.3470  141.3870 C   0  0  0  0  0  3  0  0  0  0  0  0
  180.7420  178.5640  143.7590 C   0  0  0  0  0  3  0  0  0  0  0  0
  178.9310  178.0970  142.2360 O   0  0  0  0  0  1  0  0  0  0  0  0
  187.2740  178.2160  146.2180 N   0  0  0  0  0  2  0  0  0  0  0  0
  186.4420  177.4720  145.2600 C   0  0  1  0  0  3  0  0  0  0  0  0
  185.8270  178.4690  146.1360 C   0  0  0  0  0  2  0  0  0  0  0  0
  1  4  1  6  0  0  0
  1  5  1  0  0  0  0
  2  3  1  0  0  0  0
  3  6  1  0  0  0  0
  4  2  1  0  0  0  0
  5  7  1  0  0  0  0
  7  6  2  0  0  0  0
  8 14  1  0  0  0  0
  9 11  1  0  0  0  0
  9 10  1  0  0  0  0
 10 17  1  1  0  0  0
 10 16  1  0  0  0  0
 11 15  1  0  0  0  0
 12  9  2  0  0  0  0
 13  8  2  0  0  0  0
 13 12  1  0  0  0  0
 14 11  2  0  0  0  0
 16 15  1  6  0  0  0
 16  1  1  0  0  0  0
 18 17  2  0  0  0  0
 19  7  1  6  0  0  0
 20 21  1  1  0  0  0
 20 22  1  0  0  0  0
 20 24  1  0  0  0  0
 22 24  1  0  0  0  0
 22 19  1  1  0  0  0
 24 23  1  1  0  0  0
 25 24  1  0  0  0  0
 25 28  1  0  0  0  0
 26 30  1  0  0  0  0
 27 25  2  0  0  0  0
 29 27  1  0  0  0  0
 29 26  2  0  0  0  0
 30 28  2  0  0  0  0
 31 26  1  0  0  0  0
 33 19  1  6  0  0  0
 33 34  1  0  0  0  0
 33 32  1  0  0  0  0
 34 32  1  0  0  0  0
M  END
>  <MODEL>
2

>  <REMARK>
 VINA RESULT:      -6.3      3.254      8.270
  Name = 
  6 active torsions:
  status: ('A' for Active; 'I' for Inactive)
    1  A    between atoms: C_1  and  C_32
    2  A    between atoms: N_2  and  C_33
    3  A    between atoms: C_9  and  C_19
    4  A    between atoms: C_10  and  C_29
    5  A    between atoms: C_26  and  C_29
    6  A    between atoms: C_29  and  C_34
                            x       y       z     vdW  Elec       q    Type
                         _______ _______ _______ _____ _____    ______ ____

>  <TORSDO>
F 6

$$$$
=
 OpenBabel10222418213D

 34 39  0  0  1  0  0  0  0  0999 V2000
  188.0610  177.0190  142.4610 N   0  0  2  0  0  0  0  0  0  0  0  0
  189.0560  177.1890  140.2210 C   0  0  0  0  0  2  0  0  0  0  0  0
  188.4720  178.5390  139.8180 C   0  0  0  0  0  2  0  0  0  0  0  0
  189.3150  177.1350  141.7230 C   0  0  0  0  0  2  0  0  0  0  0  0
  187.4090  178.3260  142.5640 C   0  0  0  0  0  2  0  0  0  0  0  0
  187.0070  178.6270  140.1360 C   0  0  0  0  0  3  0  0  0  0  0  0
  186.5110  178.5420  141.3830 C   0  0  0  0  0  0  0  0  0  0  0  0
  187.6420  178.2000  148.0550 C   0  0  0  0  0  3  0  0  0  0  0  0
  189.0380  177.3770  145.8340 C   0  0  0  0  0  0  0  0  0  0  0  0
  189.6020  176.8350  144.5720 C   0  0  1  0  0  3  0  0  0  0  0  0
  187.6800  177.2590  145.8550 C   0  0  0  0  0  0  0  0  0  0  0  0
  189.7260  177.8720  146.8960 N   0  0  0  0  0  0  0  0  0  0  0  0
  189.0470  178.2920  148.0040 C   0  0  0  0  0  3  0  0  0  0  0  0
  186.9410  177.6700  146.9610 C   0  0  0  0  0  3  0  0  0  0  0  0
  187.1660  176.6850  144.6710 N   0  0  0  0  0  2  0  0  0  0  0  0
  188.3030  176.4180  143.7840 C   0  0  1  0  0  3  0  0  0  0  0  0
  190.5200  177.8330  143.9290 C   0  0  0  0  0  3  0  0  0  0  0  0
  191.7060  177.8510  144.2110 O   0  0  0  0  0  0  0  0  0  0  0  0
  185.0330  178.6470  141.6300 C   0  0  1  0  0  3  0  0  0  0  0  0
  183.7890  178.7390  139.3480 C   0  0  1  0  0  3  0  0  0  0  0  0
  184.1740  180.0790  139.4730 O   0  0  0  0  0  1  0  0  0  0  0  0
  184.2260  177.8810  140.5550 C   0  0  2  0  0  3  0  0  0  0  0  0
  182.3820  179.4020  141.2720 O   0  0  0  0  0  1  0  0  0  0  0  0
  182.7850  178.3630  140.4260 C   0  0  1  0  0  0  0  0  0  0  0  0
  181.7640  177.3370  140.0540 C   0  0  0  0  0  0  0  0  0  0  0  0
  179.8710  175.3700  139.4270 C   0  0  0  0  0  0  0  0  0  0  0  0
  180.4440  177.4610  140.5050 C   0  0  0  0  0  3  0  0  0  0  0  0
  182.1370  176.2110  139.3070 C   0  0  0  0  0  3  0  0  0  0  0  0
  179.4970  176.4810  140.1880 C   0  0  0  0  0  3  0  0  0  0  0  0
  181.1910  175.2330  138.9900 C   0  0  0  0  0  3  0  0  0  0  0  0
  178.9310  174.3990  139.1100 O   0  0  0  0  0  1  0  0  0  0  0  0
  184.8670  179.4980  143.9660 N   0  0  0  0  0  2  0  0  0  0  0  0
  184.7090  178.3160  143.1040 C   0  0  1  0  0  3  0  0  0  0  0  0
  183.5250  179.0080  143.6120 C   0  0  0  0  0  2  0  0  0  0  0  0
  1  4  1  1  0  0  0
  1  5  1  0  0  0  0
  1 16  1  0  0  0  0
  2  4  1  0  0  0  0
  3  6  1  0  0  0  0
  3  2  1  0  0  0  0
  6  7  2  0  0  0  0
  7  5  1  0  0  0  0
  9 11  2  0  0  0  0
  9 12  1  0  0  0  0
 10 17  1  6  0  0  0
 10  9  1  0  0  0  0
 11 14  1  0  0  0  0
 12 13  2  0  0  0  0
 13  8  1  0  0  0  0
 14  8  2  0  0  0  0
 15 11  1  0  0  0  0
 16 10  1  0  0  0  0
 16 15  1  1  0  0  0
 17 18  2  0  0  0  0
 19  7  1  6  0  0  0
 20 21  1  1  0  0  0
 20 24  1  0  0  0  0
 20 22  1  0  0  0  0
 22 19  1  1  0  0  0
 24 22  1  0  0  0  0
 24 23  1  1  0  0  0
 25 24  1  0  0  0  0
 25 27  1  0  0  0  0
 26 29  1  0  0  0  0
 28 25  2  0  0  0  0
 29 27  2  0  0  0  0
 30 28  1  0  0  0  0
 30 26  2  0  0  0  0
 31 26  1  0  0  0  0
 33 19  1  6  0  0  0
 33 34  1  0  0  0  0
 33 32  1  0  0  0  0
 34 32  1  0  0  0  0
M  END
>  <MODEL>
3

>  <REMARK>
 VINA RESULT:      -6.2      3.913      8.467
  Name = 
  6 active torsions:
  status: ('A' for Active; 'I' for Inactive)
    1  A    between atoms: C_1  and  C_32
    2  A    between atoms: N_2  and  C_33
    3  A    between atoms: C_9  and  C_19
    4  A    between atoms: C_10  and  C_29
    5  A    between atoms: C_26  and  C_29
    6  A    between atoms: C_29  and  C_34
                            x       y       z     vdW  Elec       q    Type
                         _______ _______ _______ _____ _____    ______ ____

>  <TORSDO>
F 6

$$$$
=
 OpenBabel10222418213D

 34 39  0  0  1  0  0  0  0  0999 V2000
  185.9340  177.9970  143.3310 N   0  0  2  0  0  0  0  0  0  0  0  0
  184.8730  179.6000  144.8610 C   0  0  0  0  0  2  0  0  0  0  0  0
  183.4240  179.3920  144.4340 C   0  0  0  0  0  2  0  0  0  0  0  0
  185.6690  178.3060  144.7340 C   0  0  0  0  0  2  0  0  0  0  0  0
  184.7520  177.3980  142.7110 C   0  0  0  0  0  2  0  0  0  0  0  0
  183.2820  179.3810  142.9390 C   0  0  0  0  0  3  0  0  0  0  0  0
  183.8730  178.4710  142.1440 C   0  0  0  0  0  0  0  0  0  0  0  0
  191.3740  177.5950  145.0920 C   0  0  0  0  0  3  0  0  0  0  0  0
  189.4410  177.6390  143.1380 C   0  0  0  0  0  0  0  0  0  0  0  0
  188.2700  177.5530  142.2290 C   0  0  1  0  0  3  0  0  0  0  0  0
  189.1030  177.2770  144.4090 C   0  0  0  0  0  0  0  0  0  0  0  0
  190.7180  177.9580  142.8050 N   0  0  0  0  0  0  0  0  0  0  0  0
  191.6890  177.9470  143.7650 C   0  0  0  0  0  3  0  0  0  0  0  0
  190.0560  177.2480  145.4230 C   0  0  0  0  0  3  0  0  0  0  0  0
  187.7350  176.9470  144.5350 N   0  0  0  0  0  2  0  0  0  0  0  0
  187.1180  177.1280  143.2170 C   0  0  1  0  0  3  0  0  0  0  0  0
  188.0970  178.8320  141.4630 C   0  0  0  0  0  3  0  0  0  0  0  0
  188.4110  178.8920  140.2870 O   0  0  0  0  0  0  0  0  0  0  0  0
  183.6810  178.5150  140.6550 C   0  0  1  0  0  3  0  0  0  0  0  0
  181.1490  179.0740  140.4670 C   0  0  1  0  0  3  0  0  0  0  0  0
  181.0760  177.7630  140.9480 O   0  0  0  0  0  1  0  0  0  0  0  0
  182.6030  179.5490  140.2540 C   0  0  2  0  0  3  0  0  0  0  0  0
  182.0440  177.8570  138.5070 O   0  0  0  0  0  1  0  0  0  0  0  0
  181.7510  179.1040  139.0710 C   0  0  1  0  0  0  0  0  0  0  0  0
  181.2570  180.1790  138.1570 C   0  0  0  0  0  0  0  0  0  0  0  0
  180.4110  182.2050  136.4170 C   0  0  0  0  0  0  0  0  0  0  0  0
  180.8540  179.8640  136.8530 C   0  0  0  0  0  3  0  0  0  0  0  0
  181.2570  181.5160  138.5770 C   0  0  0  0  0  3  0  0  0  0  0  0
  180.4270  180.8750  135.9860 C   0  0  0  0  0  3  0  0  0  0  0  0
  180.8300  182.5250  137.7110 C   0  0  0  0  0  3  0  0  0  0  0  0
  179.9850  183.2070  135.5570 O   0  0  0  0  0  1  0  0  0  0  0  0
  185.0530  177.8770  138.6750 N   0  0  0  0  0  2  0  0  0  0  0  0
  185.0460  178.6280  139.9400 C   0  0  1  0  0  3  0  0  0  0  0  0
  184.9830  179.3470  138.6670 C   0  0  0  0  0  2  0  0  0  0  0  0
  1  5  1  1  0  0  0
  1  4  1  0  0  0  0
  3  2  1  0  0  0  0
  4  2  1  0  0  0  0
  6  3  1  0  0  0  0
  7  5  1  0  0  0  0
  7  6  2  0  0  0  0
  8 14  1  0  0  0  0
  9 11  1  0  0  0  0
 10 17  1  1  0  0  0
 10  9  1  0  0  0  0
 10 16  1  0  0  0  0
 11 15  1  0  0  0  0
 11 14  2  0  0  0  0
 12  9  2  0  0  0  0
 12 13  1  0  0  0  0
 13  8  2  0  0  0  0
 16  1  1  0  0  0  0
 16 15  1  1  0  0  0
 18 17  2  0  0  0  0
 19  7  1  1  0  0  0
 20 21  1  1  0  0  0
 22 20  1  0  0  0  0
 22 19  1  1  0  0  0
 24 23  1  6  0  0  0
 24 22  1  0  0  0  0
 24 20  1  0  0  0  0
 25 28  1  0  0  0  0
 25 24  1  0  0  0  0
 26 30  1  0  0  0  0
 27 25  2  0  0  0  0
 29 26  2  0  0  0  0
 29 27  1  0  0  0  0
 30 28  2  0  0  0  0
 31 26  1  0  0  0  0
 32 33  1  0  0  0  0
 33 19  1  1  0  0  0
 34 32  1  0  0  0  0
 34 33  1  0  0  0  0
M  END
>  <MODEL>
4

>  <REMARK>
 VINA RESULT:      -6.0      3.769      8.727
  Name = 
  6 active torsions:
  status: ('A' for Active; 'I' for Inactive)
    1  A    between atoms: C_1  and  C_32
    2  A    between atoms: N_2  and  C_33
    3  A    between atoms: C_9  and  C_19
    4  A    between atoms: C_10  and  C_29
    5  A    between atoms: C_26  and  C_29
    6  A    between atoms: C_29  and  C_34
                            x       y       z     vdW  Elec       q    Type
                         _______ _______ _______ _____ _____    ______ ____

>  <TORSDO>
F 6

$$$$
=
 OpenBabel10222418213D

 34 39  0  0  1  0  0  0  0  0999 V2000
  185.9090  178.0320  143.3660 N   0  0  2  0  0  0  0  0  0  0  0  0
  185.0350  179.6360  145.0080 C   0  0  0  0  0  2  0  0  0  0  0  0
  183.5480  179.4670  144.7170 C   0  0  0  0  0  2  0  0  0  0  0  0
  185.7850  178.3260  144.7910 C   0  0  0  0  0  2  0  0  0  0  0  0
  184.6610  177.4680  142.8530 C   0  0  0  0  0  2  0  0  0  0  0  0
  183.2660  179.4810  143.2420 C   0  0  0  0  0  3  0  0  0  0  0  0
  183.7580  178.5690  142.3840 C   0  0  0  0  0  0  0  0  0  0  0  0
  191.4560  177.4300  144.6810 C   0  0  0  0  0  3  0  0  0  0  0  0
  189.3790  177.5920  142.8870 C   0  0  0  0  0  0  0  0  0  0  0  0
  188.1390  177.5680  142.0700 C   0  0  1  0  0  3  0  0  0  0  0  0
  189.1310  177.1940  144.1680 C   0  0  0  0  0  0  0  0  0  0  0  0
  190.6350  177.8900  142.4650 N   0  0  0  0  0  0  0  0  0  0  0  0
  191.6770  177.8210  143.3450 C   0  0  0  0  0  3  0  0  0  0  0  0
  190.1580  177.1050  145.1020 C   0  0  0  0  0  3  0  0  0  0  0  0
  187.7680  176.8940  144.3890 N   0  0  0  0  0  2  0  0  0  0  0  0
  187.0560  177.1370  143.1310 C   0  0  1  0  0  3  0  0  0  0  0  0
  187.9440  178.8770  141.3630 C   0  0  0  0  0  3  0  0  0  0  0  0
  188.2690  179.0010  140.1950 O   0  0  0  0  0  0  0  0  0  0  0  0
  183.4280  178.6380  140.9200 C   0  0  1  0  0  3  0  0  0  0  0  0
  185.0680  179.3950  139.0500 C   0  0  1  0  0  3  0  0  0  0  0  0
  184.2140  180.5030  139.0920 O   0  0  0  0  0  1  0  0  0  0  0  0
  184.6570  178.2910  140.0470 C   0  0  2  0  0  3  0  0  0  0  0  0
  182.9930  178.3590  138.1890 O   0  0  0  0  0  1  0  0  0  0  0  0
  184.3260  178.1600  138.5650 C   0  0  1  0  0  0  0  0  0  0  0  0
  185.1250  177.1680  137.7830 C   0  0  0  0  0  0  0  0  0  0  0  0
  186.6430  175.2700  136.3890 C   0  0  0  0  0  0  0  0  0  0  0  0
  184.5190  176.0050  137.2910 C   0  0  0  0  0  3  0  0  0  0  0  0
  186.5010  177.3650  137.5940 C   0  0  0  0  0  3  0  0  0  0  0  0
  185.2760  175.0600  136.5910 C   0  0  0  0  0  3  0  0  0  0  0  0
  187.2560  176.4210  136.8930 C   0  0  0  0  0  3  0  0  0  0  0  0
  187.3930  174.3330  135.6920 O   0  0  0  0  0  1  0  0  0  0  0  0
  181.1260  178.0650  141.6820 N   0  0  0  0  0  2  0  0  0  0  0  0
  182.1280  177.8570  140.6250 C   0  0  1  0  0  3  0  0  0  0  0  0
  180.9720  178.7180  140.3720 C   0  0  0  0  0  2  0  0  0  0  0  0
  1  5  1  1  0  0  0
  1  4  1  0  0  0  0
  3  2  1  0  0  0  0
  4  2  1  0  0  0  0
  6  3  1  0  0  0  0
  7  5  1  0  0  0  0
  7  6  2  0  0  0  0
  8 14  1  0  0  0  0
  9 11  1  0  0  0  0
 10 17  1  1  0  0  0
 10  9  1  0  0  0  0
 10 16  1  0  0  0  0
 11 15  1  0  0  0  0
 11 14  2  0  0  0  0
 12  9  2  0  0  0  0
 12 13  1  0  0  0  0
 13  8  2  0  0  0  0
 16  1  1  0  0  0  0
 16 15  1  1  0  0  0
 18 17  2  0  0  0  0
 19  7  1  1  0  0  0
 20 21  1  1  0  0  0
 20 22  1  0  0  0  0
 22 19  1  1  0  0  0
 24 23  1  6  0  0  0
 24 20  1  0  0  0  0
 24 22  1  0  0  0  0
 25 24  1  0  0  0  0
 26 29  2  0  0  0  0
 26 30  1  0  0  0  0
 27 25  2  0  0  0  0
 28 25  1  0  0  0  0
 29 27  1  0  0  0  0
 30 28  2  0  0  0  0
 31 26  1  0  0  0  0
 33 19  1  1  0  0  0
 33 32  1  0  0  0  0
 34 33  1  0  0  0  0
 34 32  1  0  0  0  0
M  END
>  <MODEL>
5

>  <REMARK>
 VINA RESULT:      -6.0      3.138      7.619
  Name = 
  6 active torsions:
  status: ('A' for Active; 'I' for Inactive)
    1  A    between atoms: C_1  and  C_32
    2  A    between atoms: N_2  and  C_33
    3  A    between atoms: C_9  and  C_19
    4  A    between atoms: C_10  and  C_29
    5  A    between atoms: C_26  and  C_29
    6  A    between atoms: C_29  and  C_34
                            x       y       z     vdW  Elec       q    Type
                         _______ _______ _______ _____ _____    ______ ____

>  <TORSDO>
F 6

$$$$
=
 OpenBabel10222418213D

 34 39  0  0  1  0  0  0  0  0999 V2000
  189.9980  177.0060  138.9550 N   0  0  2  0  0  0  0  0  0  0  0  0
  189.0540  179.0370  137.9440 C   0  0  0  0  0  2  0  0  0  0  0  0
  188.4790  178.4110  136.6780 C   0  0  0  0  0  2  0  0  0  0  0  0
  188.9960  178.0560  139.1110 C   0  0  0  0  0  2  0  0  0  0  0  0
  189.5290  175.9940  138.0080 C   0  0  0  0  0  2  0  0  0  0  0  0
  189.4610  177.4800  136.0250 C   0  0  0  0  0  3  0  0  0  0  0  0
  189.9370  176.3700  136.6160 C   0  0  0  0  0  0  0  0  0  0  0  0
  190.0500  178.2920  144.5410 C   0  0  0  0  0  3  0  0  0  0  0  0
  191.2470  177.3970  142.2340 C   0  0  0  0  0  0  0  0  0  0  0  0
  191.6970  176.8210  140.9420 C   0  0  1  0  0  3  0  0  0  0  0  0
  189.8920  177.3120  142.3640 C   0  0  0  0  0  0  0  0  0  0  0  0
  192.0280  177.8940  143.2280 N   0  0  0  0  0  0  0  0  0  0  0  0
  191.4480  178.3490  144.3780 C   0  0  0  0  0  3  0  0  0  0  0  0
  189.2530  177.7600  143.5160 C   0  0  0  0  0  3  0  0  0  0  0  0
  189.2740  176.7310  141.2350 N   0  0  0  0  0  2  0  0  0  0  0  0
  190.3300  176.4220  140.2670 C   0  0  1  0  0  3  0  0  0  0  0  0
  192.5830  177.7850  140.2100 C   0  0  0  0  0  3  0  0  0  0  0  0
  193.6980  177.4480  139.8500 O   0  0  0  0  0  0  0  0  0  0  0  0
  190.9120  175.4790  135.8990 C   0  0  1  0  0  3  0  0  0  0  0  0
  193.0970  175.5330  137.3060 C   0  0  1  0  0  3  0  0  0  0  0  0
  193.1890  176.7710  136.6620 O   0  0  0  0  0  1  0  0  0  0  0  0
  191.8380  174.7400  136.8930 C   0  0  2  0  0  3  0  0  0  0  0  0
  193.4360  174.7710  134.9770 O   0  0  0  0  0  1  0  0  0  0  0  0
  193.2010  174.3940  136.3040 C   0  0  1  0  0  0  0  0  0  0  0  0
  193.8440  173.1360  136.7920 C   0  0  0  0  0  0  0  0  0  0  0  0
  195.1140  170.7920  137.6520 C   0  0  0  0  0  0  0  0  0  0  0  0
  194.7100  173.1680  137.8920 C   0  0  0  0  0  3  0  0  0  0  0  0
  193.6350  171.9290  136.1100 C   0  0  0  0  0  3  0  0  0  0  0  0
  195.3410  171.9960  138.3240 C   0  0  0  0  0  3  0  0  0  0  0  0
  194.2640  170.7590  136.5430 C   0  0  0  0  0  3  0  0  0  0  0  0
  195.7380  169.6290  138.0840 O   0  0  0  0  0  1  0  0  0  0  0  0
  190.2730  173.1750  135.1980 N   0  0  0  0  0  2  0  0  0  0  0  0
  190.1750  174.6030  134.8600 C   0  0  1  0  0  3  0  0  0  0  0  0
  189.0110  173.9040  135.4040 C   0  0  0  0  0  2  0  0  0  0  0  0
  1  5  1  6  0  0  0
  1  4  1  0  0  0  0
  1 16  1  0  0  0  0
  2  4  1  0  0  0  0
  3  2  1  0  0  0  0
  6  7  2  0  0  0  0
  6  3  1  0  0  0  0
  7  5  1  0  0  0  0
  9 11  2  0  0  0  0
  9 12  1  0  0  0  0
 10 17  1  6  0  0  0
 10  9  1  0  0  0  0
 11 14  1  0  0  0  0
 12 13  2  0  0  0  0
 13  8  1  0  0  0  0
 14  8  2  0  0  0  0
 15 11  1  0  0  0  0
 16 10  1  0  0  0  0
 16 15  1  1  0  0  0
 18 17  2  0  0  0  0
 19  7  1  1  0  0  0
 20 21  1  6  0  0  0
 22 19  1  6  0  0  0
 22 20  1  0  0  0  0
 24 23  1  6  0  0  0
 24 25  1  0  0  0  0
 24 22  1  0  0  0  0
 24 20  1  0  0  0  0
 25 27  1  0  0  0  0
 26 31  1  0  0  0  0
 26 29  1  0  0  0  0
 27 29  2  0  0  0  0
 28 30  1  0  0  0  0
 28 25  2  0  0  0  0
 30 26  2  0  0  0  0
 32 34  1  0  0  0  0
 33 32  1  0  0  0  0
 33 34  1  0  0  0  0
 33 19  1  1  0  0  0
M  END
>  <MODEL>
6

>  <REMARK>
 VINA RESULT:      -6.0      5.380      7.499
  Name = 
  6 active torsions:
  status: ('A' for Active; 'I' for Inactive)
    1  A    between atoms: C_1  and  C_32
    2  A    between atoms: N_2  and  C_33
    3  A    between atoms: C_9  and  C_19
    4  A    between atoms: C_10  and  C_29
    5  A    between atoms: C_26  and  C_29
    6  A    between atoms: C_29  and  C_34
                            x       y       z     vdW  Elec       q    Type
                         _______ _______ _______ _____ _____    ______ ____

>  <TORSDO>
F 6

$$$$
=
 OpenBabel10222418213D

 34 39  0  0  1  0  0  0  0  0999 V2000
  183.0670  178.6170  138.0320 N   0  0  2  0  0  0  0  0  0  0  0  0
  181.5630  178.5850  136.0890 C   0  0  0  0  0  2  0  0  0  0  0  0
  181.5330  177.0780  135.8540 C   0  0  0  0  0  2  0  0  0  0  0  0
  181.7100  178.9010  137.5740 C   0  0  0  0  0  2  0  0  0  0  0  0
  183.2360  177.1820  138.2630 C   0  0  0  0  0  2  0  0  0  0  0  0
  182.9100  176.4820  135.9070 C   0  0  0  0  0  3  0  0  0  0  0  0
  183.6910  176.5130  137.0010 C   0  0  0  0  0  0  0  0  0  0  0  0
  186.1570  178.4110  142.8550 C   0  0  0  0  0  3  0  0  0  0  0  0
  183.8000  178.7530  141.4820 C   0  0  0  0  0  0  0  0  0  0  0  0
  182.6510  179.0350  140.5850 C   0  0  1  0  0  3  0  0  0  0  0  0
  184.9860  178.9710  140.8450 C   0  0  0  0  0  0  0  0  0  0  0  0
  183.7510  178.3910  142.7910 N   0  0  0  0  0  0  0  0  0  0  0  0
  184.9130  178.2100  143.4850 C   0  0  0  0  0  3  0  0  0  0  0  0
  186.1980  178.8030  141.5090 C   0  0  0  0  0  3  0  0  0  0  0  0
  184.8150  179.3770  139.5030 N   0  0  0  0  0  2  0  0  0  0  0  0
  183.3740  179.4090  139.2360 C   0  0  1  0  0  3  0  0  0  0  0  0
  181.6940  177.8810  140.5690 C   0  0  0  0  0  3  0  0  0  0  0  0
  180.5620  178.0120  141.0030 O   0  0  0  0  0  0  0  0  0  0  0  0
  185.0570  175.8870  136.9860 C   0  0  1  0  0  3  0  0  0  0  0  0
  186.7820  177.7780  136.5280 C   0  0  1  0  0  3  0  0  0  0  0  0
  186.3150  177.5510  135.2290 O   0  0  0  0  0  1  0  0  0  0  0  0
  186.1240  176.8450  137.5670 C   0  0  2  0  0  3  0  0  0  0  0  0
  187.6810  175.5040  136.1520 O   0  0  0  0  0  1  0  0  0  0  0  0
  187.5310  176.5640  137.0530 C   0  0  1  0  0  0  0  0  0  0  0  0
  188.6580  176.8350  137.9970 C   0  0  0  0  0  0  0  0  0  0  0  0
  190.7440  177.2780  139.8140 C   0  0  0  0  0  0  0  0  0  0  0  0
  189.9000  176.2160  137.8080 C   0  0  0  0  0  3  0  0  0  0  0  0
  188.4580  177.6580  139.1140 C   0  0  0  0  0  3  0  0  0  0  0  0
  190.9430  176.4400  138.7130 C   0  0  0  0  0  3  0  0  0  0  0  0
  189.5010  177.8830  140.0170 C   0  0  0  0  0  3  0  0  0  0  0  0
  191.7800  177.5020  140.7100 O   0  0  0  0  0  1  0  0  0  0  0  0
  183.7660  173.7680  137.2080 N   0  0  0  0  0  2  0  0  0  0  0  0
  185.0040  174.4650  137.5890 C   0  0  1  0  0  3  0  0  0  0  0  0
  185.0490  173.4020  136.5850 C   0  0  0  0  0  2  0  0  0  0  0  0
  1  4  1  1  0  0  0
  1  5  1  0  0  0  0
  1 16  1  0  0  0  0
  2  4  1  0  0  0  0
  3  6  1  0  0  0  0
  3  2  1  0  0  0  0
  6  7  2  0  0  0  0
  7  5  1  0  0  0  0
  8 13  1  0  0  0  0
  9 12  1  0  0  0  0
 10 17  1  6  0  0  0
 10  9  1  0  0  0  0
 11  9  2  0  0  0  0
 11 14  1  0  0  0  0
 12 13  2  0  0  0  0
 14  8  2  0  0  0  0
 15 11  1  0  0  0  0
 16 15  1  1  0  0  0
 16 10  1  0  0  0  0
 17 18  2  0  0  0  0
 19  7  1  1  0  0  0
 20 21  1  6  0  0  0
 20 24  1  0  0  0  0
 20 22  1  0  0  0  0
 22 19  1  6  0  0  0
 24 23  1  6  0  0  0
 24 22  1  0  0  0  0
 24 25  1  0  0  0  0
 25 28  1  0  0  0  0
 26 30  1  0  0  0  0
 26 31  1  0  0  0  0
 27 25  2  0  0  0  0
 27 29  1  0  0  0  0
 28 30  2  0  0  0  0
 29 26  2  0  0  0  0
 32 33  1  0  0  0  0
 33 19  1  6  0  0  0
 34 32  1  0  0  0  0
 34 33  1  0  0  0  0
M  END
>  <MODEL>
7

>  <REMARK>
 VINA RESULT:      -5.9      2.170      3.243
  Name = 
  6 active torsions:
  status: ('A' for Active; 'I' for Inactive)
    1  A    between atoms: C_1  and  C_32
    2  A    between atoms: N_2  and  C_33
    3  A    between atoms: C_9  and  C_19
    4  A    between atoms: C_10  and  C_29
    5  A    between atoms: C_26  and  C_29
    6  A    between atoms: C_29  and  C_34
                            x       y       z     vdW  Elec       q    Type
                         _______ _______ _______ _____ _____    ______ ____

>  <TORSDO>
F 6

$$$$
=
 OpenBabel10222418213D

 34 39  0  0  1  0  0  0  0  0999 V2000
  189.7300  177.0160  140.4630 N   0  0  2  0  0  0  0  0  0  0  0  0
  191.8560  177.8780  141.3410 C   0  0  0  0  0  2  0  0  0  0  0  0
  191.6590  177.5090  142.8080 C   0  0  0  0  0  2  0  0  0  0  0  0
  191.1810  176.8600  140.4280 C   0  0  0  0  0  2  0  0  0  0  0  0
  189.1790  176.3880  141.6640 C   0  0  0  0  0  2  0  0  0  0  0  0
  190.2900  177.8880  143.2960 C   0  0  0  0  0  3  0  0  0  0  0  0
  189.1530  177.3760  142.7910 C   0  0  0  0  0  0  0  0  0  0  0  0
  191.1030  175.5180  135.1030 C   0  0  0  0  0  3  0  0  0  0  0  0
  189.5910  176.8990  136.9370 C   0  0  0  0  0  0  0  0  0  0  0  0
  188.7960  177.4640  138.0560 C   0  0  1  0  0  3  0  0  0  0  0  0
  190.2320  175.7570  137.3190 C   0  0  0  0  0  0  0  0  0  0  0  0
  189.6630  177.3630  135.6630 N   0  0  0  0  0  0  0  0  0  0  0  0
  190.4150  176.6920  134.7410 C   0  0  0  0  0  3  0  0  0  0  0  0
  191.0090  175.0350  136.4170 C   0  0  0  0  0  3  0  0  0  0  0  0
  189.9970  175.4290  138.6730 N   0  0  0  0  0  2  0  0  0  0  0  0
  189.1300  176.4710  139.2320 C   0  0  1  0  0  3  0  0  0  0  0  0
  189.1160  178.9160  138.2550 C   0  0  0  0  0  3  0  0  0  0  0  0
  188.6810  179.7550  137.4840 O   0  0  0  0  0  0  0  0  0  0  0  0
  187.8160  177.7940  143.3340 C   0  0  1  0  0  3  0  0  0  0  0  0
  186.7900  178.7540  141.1460 C   0  0  1  0  0  3  0  0  0  0  0  0
  187.8370  179.6610  141.3440 O   0  0  0  0  0  1  0  0  0  0  0  0
  186.7110  177.6860  142.2570 C   0  0  2  0  0  3  0  0  0  0  0  0
  185.9860  179.8810  143.1950 O   0  0  0  0  0  1  0  0  0  0  0  0
  185.7550  178.8730  142.2520 C   0  0  1  0  0  0  0  0  0  0  0  0
  184.3370  178.5940  141.8700 C   0  0  0  0  0  0  0  0  0  0  0  0
  181.6730  178.1500  141.1270 C   0  0  0  0  0  0  0  0  0  0  0  0
  184.0330  178.1310  140.5830 C   0  0  0  0  0  3  0  0  0  0  0  0
  183.2990  178.8550  142.7740 C   0  0  0  0  0  3  0  0  0  0  0  0
  182.7030  177.9060  140.2140 C   0  0  0  0  0  3  0  0  0  0  0  0
  181.9710  178.6280  142.4050 C   0  0  0  0  0  3  0  0  0  0  0  0
  180.3540  177.9240  140.7600 O   0  0  0  0  0  1  0  0  0  0  0  0
  187.7340  178.0110  145.8140 N   0  0  0  0  0  2  0  0  0  0  0  0
  187.5400  177.0920  144.6820 C   0  0  1  0  0  3  0  0  0  0  0  0
  186.3780  177.6260  145.3920 C   0  0  0  0  0  2  0  0  0  0  0  0
  1  4  1  6  0  0  0
  1  5  1  0  0  0  0
  2  3  1  0  0  0  0
  3  6  1  0  0  0  0
  4  2  1  0  0  0  0
  5  7  1  0  0  0  0
  7  6  2  0  0  0  0
  8 14  1  0  0  0  0
  9 11  1  0  0  0  0
  9 10  1  0  0  0  0
 10 17  1  1  0  0  0
 10 16  1  0  0  0  0
 11 15  1  0  0  0  0
 12  9  2  0  0  0  0
 13  8  2  0  0  0  0
 13 12  1  0  0  0  0
 14 11  2  0  0  0  0
 16 15  1  6  0  0  0
 16  1  1  0  0  0  0
 18 17  2  0  0  0  0
 19  7  1  6  0  0  0
 20 21  1  1  0  0  0
 20 24  1  0  0  0  0
 20 22  1  0  0  0  0
 22 19  1  1  0  0  0
 24 22  1  0  0  0  0
 24 23  1  1  0  0  0
 25 24  1  0  0  0  0
 25 28  1  0  0  0  0
 26 30  1  0  0  0  0
 27 25  2  0  0  0  0
 29 27  1  0  0  0  0
 29 26  2  0  0  0  0
 30 28  2  0  0  0  0
 31 26  1  0  0  0  0
 33 19  1  6  0  0  0
 33 34  1  0  0  0  0
 33 32  1  0  0  0  0
 34 32  1  0  0  0  0
M  END
>  <MODEL>
8

>  <REMARK>
 VINA RESULT:      -5.8      3.437      8.357
  Name = 
  6 active torsions:
  status: ('A' for Active; 'I' for Inactive)
    1  A    between atoms: C_1  and  C_32
    2  A    between atoms: N_2  and  C_33
    3  A    between atoms: C_9  and  C_19
    4  A    between atoms: C_10  and  C_29
    5  A    between atoms: C_26  and  C_29
    6  A    between atoms: C_29  and  C_34
                            x       y       z     vdW  Elec       q    Type
                         _______ _______ _______ _____ _____    ______ ____

>  <TORSDO>
F 6

$$$$
=
 OpenBabel10222418213D

 34 39  0  0  1  0  0  0  0  0999 V2000
  184.7500  176.3820  136.5170 N   0  0  2  0  0  0  0  0  0  0  0  0
  183.9780  174.0770  136.1590 C   0  0  0  0  0  2  0  0  0  0  0  0
  182.5260  174.3800  135.8050 C   0  0  0  0  0  2  0  0  0  0  0  0
  184.8990  175.1950  135.6810 C   0  0  0  0  0  2  0  0  0  0  0  0
  183.5520  177.1280  136.1310 C   0  0  0  0  0  2  0  0  0  0  0  0
  181.9180  175.3710  136.7550 C   0  0  0  0  0  3  0  0  0  0  0  0
  182.3690  176.6290  136.9050 C   0  0  0  0  0  0  0  0  0  0  0  0
  190.0110  176.8250  138.7480 C   0  0  0  0  0  3  0  0  0  0  0  0
  187.5400  177.8470  138.1080 C   0  0  0  0  0  0  0  0  0  0  0  0
  186.2210  178.2740  137.5780 C   0  0  1  0  0  3  0  0  0  0  0  0
  188.0320  176.7860  137.4040 C   0  0  0  0  0  0  0  0  0  0  0  0
  188.2530  178.4290  139.1070 N   0  0  0  0  0  0  0  0  0  0  0  0
  189.4790  177.9300  139.4420 C   0  0  0  0  0  3  0  0  0  0  0  0
  189.2770  176.2420  137.7040 C   0  0  0  0  0  3  0  0  0  0  0  0
  187.1530  176.3570  136.3850 N   0  0  0  0  0  2  0  0  0  0  0  0
  185.9650  177.2130  136.4410 C   0  0  1  0  0  3  0  0  0  0  0  0
  185.2120  178.3720  138.6840 C   0  0  0  0  0  3  0  0  0  0  0  0
  184.9310  179.4550  139.1680 O   0  0  0  0  0  0  0  0  0  0  0  0
  181.7060  177.5710  137.8690 C   0  0  1  0  0  3  0  0  0  0  0  0
  181.0440  176.4430  140.1160 C   0  0  1  0  0  3  0  0  0  0  0  0
  179.8950  176.1820  139.3620 O   0  0  0  0  0  1  0  0  0  0  0  0
  182.0990  177.2520  139.3310 C   0  0  2  0  0  3  0  0  0  0  0  0
  180.1740  178.7450  139.8690 O   0  0  0  0  0  1  0  0  0  0  0  0
  181.2040  177.9350  140.3590 C   0  0  1  0  0  0  0  0  0  0  0  0
  181.8450  178.3340  141.6490 C   0  0  0  0  0  0  0  0  0  0  0  0
  183.0420  179.0010  144.0920 C   0  0  0  0  0  0  0  0  0  0  0  0
  183.2400  178.3160  141.7770 C   0  0  0  0  0  3  0  0  0  0  0  0
  181.0520  178.6650  142.7570 C   0  0  0  0  0  3  0  0  0  0  0  0
  183.8380  178.6530  142.9960 C   0  0  0  0  0  3  0  0  0  0  0  0
  181.6500  179.0030  143.9730 C   0  0  0  0  0  3  0  0  0  0  0  0
  183.6360  179.3380  145.3000 O   0  0  0  0  0  1  0  0  0  0  0  0
  181.3110  179.2540  136.0750 N   0  0  0  0  0  2  0  0  0  0  0  0
  181.8940  179.0330  137.4070 C   0  0  1  0  0  3  0  0  0  0  0  0
  180.6380  179.7720  137.2770 C   0  0  0  0  0  2  0  0  0  0  0  0
  1  4  1  6  0  0  0
  3  2  1  0  0  0  0
  3  6  1  0  0  0  0
  4  2  1  0  0  0  0
  5  1  1  0  0  0  0
  5  7  1  0  0  0  0
  6  7  2  0  0  0  0
  8 13  1  0  0  0  0
  9 12  1  0  0  0  0
 10  9  1  0  0  0  0
 10 17  1  1  0  0  0
 11 14  1  0  0  0  0
 11  9  2  0  0  0  0
 12 13  2  0  0  0  0
 14  8  2  0  0  0  0
 15 11  1  0  0  0  0
 16 15  1  1  0  0  0
 16  1  1  0  0  0  0
 16 10  1  0  0  0  0
 17 18  2  0  0  0  0
 19  7  1  6  0  0  0
 20 21  1  6  0  0  0
 20 24  1  0  0  0  0
 22 19  1  6  0  0  0
 22 20  1  0  0  0  0
 22 24  1  0  0  0  0
 24 23  1  6  0  0  0
 24 25  1  0  0  0  0
 25 27  2  0  0  0  0
 25 28  1  0  0  0  0
 26 31  1  0  0  0  0
 27 29  1  0  0  0  0
 28 30  2  0  0  0  0
 29 26  2  0  0  0  0
 30 26  1  0  0  0  0
 32 34  1  0  0  0  0
 32 33  1  0  0  0  0
 33 19  1  1  0  0  0
 34 33  1  0  0  0  0
M  END
>  <MODEL>
9

>  <REMARK>
 VINA RESULT:      -5.8      2.617      6.782
  Name = 
  6 active torsions:
  status: ('A' for Active; 'I' for Inactive)
    1  A    between atoms: C_1  and  C_32
    2  A    between atoms: N_2  and  C_33
    3  A    between atoms: C_9  and  C_19
    4  A    between atoms: C_10  and  C_29
    5  A    between atoms: C_26  and  C_29
    6  A    between atoms: C_29  and  C_34
                            x       y       z     vdW  Elec       q    Type
                         _______ _______ _______ _____ _____    ______ ____

>  <TORSDO>
F 6

$$$$
