=
 OpenBabel10222419553D

 37 40  0  0  1  0  0  0  0  0999 V2000
  185.3150  177.8530  137.5000 C   0  0  0  0  0  3  0  0  0  0  0  0
  189.0170  177.1900  139.3070 C   0  0  0  0  0  0  0  0  0  0  0  0
  189.3280  177.8140  140.5520 N   0  0  0  0  0  2  0  0  0  0  0  0
  189.6090  175.7330  137.4730 C   0  0  0  0  0  3  0  0  0  0  0  0
  186.5390  177.6580  145.2750 C   0  0  1  0  0  3  0  0  0  0  0  0
  189.9310  176.3230  138.6990 C   0  0  0  0  0  3  0  0  0  0  0  0
  186.2570  177.0400  136.8590 C   0  0  0  0  0  3  0  0  0  0  0  0
  189.4560  177.0360  141.7720 C   0  0  0  0  0  2  0  0  0  0  0  0
  184.4180  178.6270  140.7950 N   0  0  0  0  0  0  0  0  0  0  0  0
  188.4110  175.9910  136.8790 N   0  0  0  0  0  0  0  0  0  0  0  0
  184.6230  179.2280  139.4810 C   0  0  0  0  0  2  0  0  0  0  0  0
  185.9460  180.0290  141.8690 O   0  0  0  0  0  0  0  0  0  0  0  0
  185.6400  178.4440  138.7250 C   0  0  0  0  0  0  0  0  0  0  0  0
  187.5010  176.8210  137.4540 C   0  0  0  0  0  0  0  0  0  0  0  0
  185.5740  177.9220  142.9600 C   0  0  0  0  0  2  0  0  0  0  0  0
  188.1610  176.9540  142.4390 N   0  0  0  0  0  2  0  0  0  0  0  0
  187.7930  177.4440  138.6810 C   0  0  0  0  0  0  0  0  0  0  0  0
  188.7290  177.4650  144.7170 C   0  0  0  0  0  2  0  0  0  0  0  0
  188.1280  177.9960  143.4630 C   0  0  2  0  0  3  0  0  0  0  0  0
  186.8650  178.2360  139.2760 N   0  0  0  0  0  0  0  0  0  0  0  0
  185.3330  178.9250  141.8640 C   0  0  0  0  0  0  0  0  0  0  0  0
  186.6960  178.3350  143.9160 C   0  0  2  0  0  3  0  0  0  0  0  0
  187.8770  177.2910  145.6510 N   0  0  0  0  0  2  0  0  0  0  0  0
  184.5540  178.2950  146.5570 N   0  0  0  0  0  1  0  0  0  0  0  0
  185.9470  178.6210  146.3040 C   0  0  1  0  0  3  0  0  0  0  0  0
  186.7150  178.5370  147.6090 C   0  0  0  0  0  1  0  0  0  0  0  0
  183.4750  177.5190  140.8980 C   0  0  0  0  0  2  0  0  0  0  0  0
  182.2440  177.7830  140.0460 C   0  0  0  0  0  2  0  0  0  0  0  0
  180.8370  179.9160  139.9430 C   0  0  0  0  0  0  0  0  0  0  0  0
  181.4240  178.8180  140.6530 N   0  0  0  0  0  2  0  0  0  0  0  0
  180.3020  180.8380  140.6130 O   0  0  0  0  0  0  0  0  0  0  0  0
  180.8420  179.9850  138.4980 N   0  0  0  0  0  0  0  0  0  0  0  0
  181.1480  178.8760  137.7820 O   0  0  0  0  0  1  0  0  0  0  0  0
  181.4040  182.3540  138.1540 C   0  0  0  0  0  1  0  0  0  0  0  0
  179.0480  181.6490  138.1420 C   0  0  0  0  0  1  0  0  0  0  0  0
  180.5100  180.9950  136.2810 C   0  0  0  0  0  1  0  0  0  0  0  0
  180.4620  181.2190  137.7840 C   0  0  0  0  0  0  0  0  0  0  0  0
  1 13  1  0  0  0  0
  2  3  1  0  0  0  0
  3  8  1  0  0  0  0
  4  6  2  0  0  0  0
  5 23  1  0  0  0  0
  5 25  1  1  0  0  0
  6  2  1  0  0  0  0
  7 14  1  0  0  0  0
  7  1  2  0  0  0  0
  8 16  1  0  0  0  0
  9 27  1  0  0  0  0
  9 21  1  0  0  0  0
 10 14  2  0  0  0  0
 10  4  1  0  0  0  0
 11  9  1  0  0  0  0
 13 20  2  0  0  0  0
 13 11  1  0  0  0  0
 14 17  1  0  0  0  0
 16 19  1  0  0  0  0
 17 20  1  0  0  0  0
 17  2  2  0  0  0  0
 18 23  1  0  0  0  0
 19 22  1  0  0  0  0
 19 18  1  1  0  0  0
 21 12  2  0  0  0  0
 21 15  1  0  0  0  0
 22 15  1  6  0  0  0
 22  5  1  0  0  0  0
 25 24  1  0  0  0  0
 25 26  1  1  0  0  0
 28 30  1  0  0  0  0
 28 27  1  0  0  0  0
 29 31  2  0  0  0  0
 29 30  1  0  0  0  0
 32 29  1  0  0  0  0
 33 32  1  0  0  0  0
 36 37  1  0  0  0  0
 37 35  1  0  0  0  0
 37 34  1  0  0  0  0
 37 32  1  0  0  0  0
M  END
>  <MODEL>
1

>  <REMARK>
 VINA RESULT:      -8.4      0.000      0.000
  Name = 
  5 active torsions:
  status: ('A' for Active; 'I' for Inactive)
    1  A    between atoms: C_7  and  C_9
    2  A    between atoms: N_13  and  C_34
    3  A    between atoms: N_14  and  C_25
    4  A    between atoms: C_22  and  N_36
    5  A    between atoms: C_25  and  C_34
                            x       y       z     vdW  Elec       q    Type
                         _______ _______ _______ _____ _____    ______ ____

>  <TORSDO>
F 5

$$$$
=
 OpenBabel10222419553D

 37 40  0  0  1  0  0  0  0  0999 V2000
  185.3230  177.8690  137.4740 C   0  0  0  0  0  3  0  0  0  0  0  0
  189.0220  177.1660  139.2710 C   0  0  0  0  0  0  0  0  0  0  0  0
  189.3420  177.7830  140.5180 N   0  0  0  0  0  2  0  0  0  0  0  0
  189.5960  175.7090  137.4320 C   0  0  0  0  0  3  0  0  0  0  0  0
  186.5620  177.6390  145.2460 C   0  0  1  0  0  3  0  0  0  0  0  0
  189.9270  176.2920  138.6590 C   0  0  0  0  0  3  0  0  0  0  0  0
  186.2550  177.0490  136.8290 C   0  0  0  0  0  3  0  0  0  0  0  0
  189.4650  177.0000  141.7350 C   0  0  0  0  0  2  0  0  0  0  0  0
  184.4400  178.6410  140.7740 N   0  0  0  0  0  0  0  0  0  0  0  0
  188.4000  175.9800  136.8410 N   0  0  0  0  0  0  0  0  0  0  0  0
  184.6480  179.2450  139.4620 C   0  0  0  0  0  2  0  0  0  0  0  0
  185.9840  180.0260  141.8490 O   0  0  0  0  0  0  0  0  0  0  0  0
  185.6560  178.4530  138.7000 C   0  0  0  0  0  0  0  0  0  0  0  0
  187.4980  176.8160  137.4210 C   0  0  0  0  0  0  0  0  0  0  0  0
  185.5940  177.9190  142.9340 C   0  0  0  0  0  2  0  0  0  0  0  0
  188.1710  176.9290  142.4040 N   0  0  0  0  0  2  0  0  0  0  0  0
  187.7990  177.4330  138.6490 C   0  0  0  0  0  0  0  0  0  0  0  0
  188.7490  177.4270  144.6830 C   0  0  0  0  0  2  0  0  0  0  0  0
  188.1500  177.9680  143.4310 C   0  0  2  0  0  3  0  0  0  0  0  0
  186.8800  178.2320  139.2490 N   0  0  0  0  0  0  0  0  0  0  0  0
  185.3600  178.9280  141.8420 C   0  0  0  0  0  0  0  0  0  0  0  0
  186.7220  178.3190  143.8890 C   0  0  2  0  0  3  0  0  0  0  0  0
  187.8970  177.2580  145.6180 N   0  0  0  0  0  2  0  0  0  0  0  0
  184.5800  178.3040  146.5190 N   0  0  0  0  0  1  0  0  0  0  0  0
  185.9820  178.6050  146.2790 C   0  0  1  0  0  3  0  0  0  0  0  0
  186.7380  178.4940  147.5890 C   0  0  0  0  0  1  0  0  0  0  0  0
  183.4870  177.5420  140.8760 C   0  0  0  0  0  2  0  0  0  0  0  0
  182.3990  177.6790  139.8240 C   0  0  0  0  0  2  0  0  0  0  0  0
  180.6650  175.8240  139.5170 C   0  0  0  0  0  0  0  0  0  0  0  0
  181.2120  176.9430  140.2260 N   0  0  0  0  0  2  0  0  0  0  0  0
  179.5360  175.3920  139.8700 O   0  0  0  0  0  0  0  0  0  0  0  0
  181.3710  175.1890  138.4260 N   0  0  0  0  0  0  0  0  0  0  0  0
  182.6870  175.4570  138.2420 O   0  0  0  0  0  1  0  0  0  0  0  0
  179.9480  173.1850  138.3760 C   0  0  0  0  0  1  0  0  0  0  0  0
  181.7210  173.4570  136.6950 C   0  0  0  0  0  1  0  0  0  0  0  0
  179.7430  174.9090  136.6050 C   0  0  0  0  0  1  0  0  0  0  0  0
  180.7080  174.2070  137.5470 C   0  0  0  0  0  0  0  0  0  0  0  0
  1 13  1  0  0  0  0
  2  3  1  0  0  0  0
  3  8  1  0  0  0  0
  4  6  2  0  0  0  0
  5 23  1  0  0  0  0
  5 25  1  1  0  0  0
  6  2  1  0  0  0  0
  7 14  1  0  0  0  0
  7  1  2  0  0  0  0
  8 16  1  0  0  0  0
  9 27  1  0  0  0  0
  9 21  1  0  0  0  0
 10 14  2  0  0  0  0
 10  4  1  0  0  0  0
 11  9  1  0  0  0  0
 13 20  2  0  0  0  0
 13 11  1  0  0  0  0
 14 17  1  0  0  0  0
 16 19  1  0  0  0  0
 17 20  1  0  0  0  0
 17  2  2  0  0  0  0
 18 23  1  0  0  0  0
 19 22  1  0  0  0  0
 19 18  1  1  0  0  0
 21 12  2  0  0  0  0
 21 15  1  0  0  0  0
 22 15  1  6  0  0  0
 22  5  1  0  0  0  0
 25 24  1  0  0  0  0
 25 26  1  1  0  0  0
 28 30  1  0  0  0  0
 28 27  1  0  0  0  0
 29 31  2  0  0  0  0
 29 30  1  0  0  0  0
 32 29  1  0  0  0  0
 33 32  1  0  0  0  0
 35 37  1  0  0  0  0
 36 37  1  0  0  0  0
 37 34  1  0  0  0  0
 37 32  1  0  0  0  0
M  END
>  <MODEL>
2

>  <REMARK>
 VINA RESULT:      -8.0      2.138      3.026
  Name = 
  5 active torsions:
  status: ('A' for Active; 'I' for Inactive)
    1  A    between atoms: C_7  and  C_9
    2  A    between atoms: N_13  and  C_34
    3  A    between atoms: N_14  and  C_25
    4  A    between atoms: C_22  and  N_36
    5  A    between atoms: C_25  and  C_34
                            x       y       z     vdW  Elec       q    Type
                         _______ _______ _______ _____ _____    ______ ____

>  <TORSDO>
F 5

$$$$
=
 OpenBabel10222419553D

 37 40  0  0  1  0  0  0  0  0999 V2000
  185.2160  177.4230  136.6550 C   0  0  0  0  0  3  0  0  0  0  0  0
  186.6920  173.5220  136.5330 C   0  0  0  0  0  0  0  0  0  0  0  0
  187.9560  173.2520  135.9270 N   0  0  0  0  0  2  0  0  0  0  0  0
  184.7130  172.7770  137.7020 C   0  0  0  0  0  3  0  0  0  0  0  0
  192.8430  175.5010  137.0060 C   0  0  1  0  0  3  0  0  0  0  0  0
  185.9540  172.4910  137.1250 C   0  0  0  0  0  3  0  0  0  0  0  0
  184.4480  176.3800  137.1860 C   0  0  0  0  0  3  0  0  0  0  0  0
  189.1000  172.8420  136.7230 C   0  0  0  0  0  2  0  0  0  0  0  0
  188.6180  178.1760  136.3050 N   0  0  0  0  0  0  0  0  0  0  0  0
  184.2300  174.0500  137.6990 N   0  0  0  0  0  0  0  0  0  0  0  0
  187.3430  178.2320  135.5970 C   0  0  0  0  0  2  0  0  0  0  0  0
  189.6820  176.9210  134.6480 O   0  0  0  0  0  0  0  0  0  0  0  0
  186.4560  177.1340  136.0760 C   0  0  0  0  0  0  0  0  0  0  0  0
  184.9320  175.0710  137.1410 C   0  0  0  0  0  0  0  0  0  0  0  0
  190.6320  176.7020  136.8420 C   0  0  0  0  0  2  0  0  0  0  0  0
  189.8510  174.0190  137.1440 N   0  0  0  0  0  2  0  0  0  0  0  0
  186.1790  174.8220  136.5380 C   0  0  0  0  0  0  0  0  0  0  0  0
  192.1140  173.3830  136.6470 C   0  0  0  0  0  2  0  0  0  0  0  0
  190.9510  174.1990  136.2000 C   0  0  2  0  0  3  0  0  0  0  0  0
  186.8990  175.8510  136.0220 N   0  0  0  0  0  0  0  0  0  0  0  0
  189.6370  177.2630  135.8620 C   0  0  0  0  0  0  0  0  0  0  0  0
  191.5320  175.6250  136.2330 C   0  0  2  0  0  3  0  0  0  0  0  0
  193.0910  174.0860  137.0700 N   0  0  0  0  0  2  0  0  0  0  0  0
  195.2520  175.5650  136.5780 N   0  0  0  0  0  1  0  0  0  0  0  0
  193.9830  176.2030  136.2690 C   0  0  1  0  0  3  0  0  0  0  0  0
  193.7590  176.1450  134.7700 C   0  0  0  0  0  1  0  0  0  0  0  0
  188.7040  178.8270  137.6080 C   0  0  0  0  0  2  0  0  0  0  0  0
  188.3730  177.8440  138.7190 C   0  0  0  0  0  2  0  0  0  0  0  0
  188.0450  178.2590  141.2210 C   0  0  0  0  0  0  0  0  0  0  0  0
  187.7670  178.5390  139.8430 N   0  0  0  0  0  2  0  0  0  0  0  0
  187.3210  178.8060  142.0950 O   0  0  0  0  0  0  0  0  0  0  0  0
  189.1210  177.3800  141.6240 N   0  0  0  0  0  0  0  0  0  0  0  0
  190.0670  177.0320  140.7170 O   0  0  0  0  0  1  0  0  0  0  0  0
  187.9150  176.3730  143.5140 C   0  0  0  0  0  1  0  0  0  0  0  0
  189.6820  178.0280  143.9430 C   0  0  0  0  0  1  0  0  0  0  0  0
  190.2930  175.8040  143.1020 C   0  0  0  0  0  1  0  0  0  0  0  0
  189.2490  176.9050  143.0140 C   0  0  0  0  0  0  0  0  0  0  0  0
  1  7  1  0  0  0  0
  2 17  1  0  0  0  0
  2  6  2  0  0  0  0
  3  2  1  0  0  0  0
  3  8  1  0  0  0  0
  5 25  1  6  0  0  0
  5 23  1  0  0  0  0
  6  4  1  0  0  0  0
  8 16  1  0  0  0  0
  9 27  1  0  0  0  0
 10  4  2  0  0  0  0
 11 13  1  0  0  0  0
 11  9  1  0  0  0  0
 12 21  2  0  0  0  0
 13  1  2  0  0  0  0
 14  7  2  0  0  0  0
 14 10  1  0  0  0  0
 17 14  1  0  0  0  0
 18 23  1  0  0  0  0
 19 22  1  0  0  0  0
 19 18  1  1  0  0  0
 19 16  1  0  0  0  0
 20 13  1  0  0  0  0
 20 17  2  0  0  0  0
 21  9  1  0  0  0  0
 21 15  1  0  0  0  0
 22 15  1  1  0  0  0
 22  5  1  0  0  0  0
 25 26  1  6  0  0  0
 25 24  1  0  0  0  0
 27 28  1  0  0  0  0
 28 30  1  0  0  0  0
 29 32  1  0  0  0  0
 29 31  2  0  0  0  0
 30 29  1  0  0  0  0
 32 37  1  0  0  0  0
 33 32  1  0  0  0  0
 37 36  1  0  0  0  0
 37 34  1  0  0  0  0
 37 35  1  0  0  0  0
M  END
>  <MODEL>
3

>  <REMARK>
 VINA RESULT:      -7.7      4.113      8.410
  Name = 
  5 active torsions:
  status: ('A' for Active; 'I' for Inactive)
    1  A    between atoms: C_7  and  C_9
    2  A    between atoms: N_13  and  C_34
    3  A    between atoms: N_14  and  C_25
    4  A    between atoms: C_22  and  N_36
    5  A    between atoms: C_25  and  C_34
                            x       y       z     vdW  Elec       q    Type
                         _______ _______ _______ _____ _____    ______ ____

>  <TORSDO>
F 5

$$$$
=
 OpenBabel10222419553D

 37 40  0  0  1  0  0  0  0  0999 V2000
  185.3290  178.7470  142.0230 C   0  0  0  0  0  3  0  0  0  0  0  0
  184.4190  177.9260  138.0350 C   0  0  0  0  0  0  0  0  0  0  0  0
  185.4250  178.0510  137.0300 N   0  0  0  0  0  2  0  0  0  0  0  0
  182.1590  177.3910  138.7000 C   0  0  0  0  0  3  0  0  0  0  0  0
  190.3790  175.7010  136.8070 C   0  0  1  0  0  3  0  0  0  0  0  0
  183.1320  177.4930  137.7010 C   0  0  0  0  0  3  0  0  0  0  0  0
  184.0240  178.3800  141.6780 C   0  0  0  0  0  3  0  0  0  0  0  0
  185.9560  176.8820  136.3490 C   0  0  0  0  0  2  0  0  0  0  0  0
  188.5700  178.0500  140.8950 N   0  0  0  0  0  0  0  0  0  0  0  0
  182.4640  177.6990  139.9910 N   0  0  0  0  0  0  0  0  0  0  0  0
  187.7210  179.1370  141.3700 C   0  0  0  0  0  2  0  0  0  0  0  0
  189.1020  179.1110  138.8830 O   0  0  0  0  0  0  0  0  0  0  0  0
  186.3000  178.8510  141.0220 C   0  0  0  0  0  0  0  0  0  0  0  0
  183.7110  178.1110  140.3440 C   0  0  0  0  0  0  0  0  0  0  0  0
  189.2800  176.7170  138.8360 C   0  0  0  0  0  2  0  0  0  0  0  0
  187.1170  176.3780  137.0740 N   0  0  0  0  0  2  0  0  0  0  0  0
  184.7130  178.2400  139.3650 C   0  0  0  0  0  0  0  0  0  0  0  0
  188.7080  176.0300  135.3070 C   0  0  0  0  0  2  0  0  0  0  0  0
  188.3090  176.9240  136.4290 C   0  0  2  0  0  3  0  0  0  0  0  0
  185.9690  178.6080  139.7260 N   0  0  0  0  0  0  0  0  0  0  0  0
  188.9920  178.0260  139.5200 C   0  0  0  0  0  0  0  0  0  0  0  0
  189.5510  176.8690  137.3380 C   0  0  2  0  0  3  0  0  0  0  0  0
  189.7930  175.3960  135.5290 N   0  0  0  0  0  2  0  0  0  0  0  0
  192.6320  175.6280  137.7590 N   0  0  0  0  0  1  0  0  0  0  0  0
  191.8440  176.1000  136.6330 C   0  0  1  0  0  3  0  0  0  0  0  0
  192.4070  175.5030  135.3570 C   0  0  0  0  0  1  0  0  0  0  0  0
  188.7160  176.8760  141.7480 C   0  0  0  0  0  2  0  0  0  0  0  0
  188.9440  177.2900  143.1920 C   0  0  0  0  0  2  0  0  0  0  0  0
  187.5670  177.4410  145.3420 C   0  0  0  0  0  0  0  0  0  0  0  0
  187.6870  177.2960  143.9210 N   0  0  0  0  0  2  0  0  0  0  0  0
  186.4380  177.2480  145.8640 O   0  0  0  0  0  0  0  0  0  0  0  0
  188.6940  177.8020  146.1730 N   0  0  0  0  0  0  0  0  0  0  0  0
  189.8180  178.2890  145.5930 O   0  0  0  0  0  1  0  0  0  0  0  0
  189.8980  178.2680  148.2650 C   0  0  0  0  0  1  0  0  0  0  0  0
  188.4770  176.2680  148.1010 C   0  0  0  0  0  1  0  0  0  0  0  0
  187.4290  178.4870  148.1670 C   0  0  0  0  0  1  0  0  0  0  0  0
  188.6270  177.7110  147.6440 C   0  0  0  0  0  0  0  0  0  0  0  0
  2 17  1  0  0  0  0
  3  2  1  0  0  0  0
  4 10  2  0  0  0  0
  5 25  1  6  0  0  0
  5 22  1  0  0  0  0
  6  2  2  0  0  0  0
  6  4  1  0  0  0  0
  7  1  1  0  0  0  0
  8  3  1  0  0  0  0
  8 16  1  0  0  0  0
  9 11  1  0  0  0  0
  9 27  1  0  0  0  0
 10 14  1  0  0  0  0
 12 21  2  0  0  0  0
 13 11  1  0  0  0  0
 13  1  2  0  0  0  0
 14  7  2  0  0  0  0
 15 21  1  0  0  0  0
 17 20  2  0  0  0  0
 17 14  1  0  0  0  0
 18 23  1  0  0  0  0
 19 18  1  6  0  0  0
 19 16  1  0  0  0  0
 19 22  1  0  0  0  0
 20 13  1  0  0  0  0
 21  9  1  0  0  0  0
 22 15  1  1  0  0  0
 23  5  1  0  0  0  0
 25 26  1  6  0  0  0
 25 24  1  0  0  0  0
 27 28  1  0  0  0  0
 28 30  1  0  0  0  0
 29 31  2  0  0  0  0
 29 32  1  0  0  0  0
 30 29  1  0  0  0  0
 32 37  1  0  0  0  0
 33 32  1  0  0  0  0
 37 35  1  0  0  0  0
 37 36  1  0  0  0  0
 37 34  1  0  0  0  0
M  END
>  <MODEL>
4

>  <REMARK>
 VINA RESULT:      -7.6      3.010      8.514
  Name = 
  5 active torsions:
  status: ('A' for Active; 'I' for Inactive)
    1  A    between atoms: C_7  and  C_9
    2  A    between atoms: N_13  and  C_34
    3  A    between atoms: N_14  and  C_25
    4  A    between atoms: C_22  and  N_36
    5  A    between atoms: C_25  and  C_34
                            x       y       z     vdW  Elec       q    Type
                         _______ _______ _______ _____ _____    ______ ____

>  <TORSDO>
F 5

$$$$
=
 OpenBabel10222419553D

 37 40  0  0  1  0  0  0  0  0999 V2000
  187.6430  177.0640  137.1400 C   0  0  0  0  0  3  0  0  0  0  0  0
  188.8360  178.0560  141.0140 C   0  0  0  0  0  0  0  0  0  0  0  0
  188.0300  178.9230  141.8120 N   0  0  0  0  0  2  0  0  0  0  0  0
  190.7900  176.6650  140.7280 C   0  0  0  0  0  3  0  0  0  0  0  0
  182.7250  178.4470  143.1310 C   0  0  1  0  0  3  0  0  0  0  0  0
  190.0100  177.5010  141.5320 C   0  0  0  0  0  3  0  0  0  0  0  0
  188.8520  176.5640  137.6360 C   0  0  0  0  0  3  0  0  0  0  0  0
  187.3230  178.4280  142.9800 C   0  0  0  0  0  2  0  0  0  0  0  0
  184.5050  177.9250  138.4340 N   0  0  0  0  0  0  0  0  0  0  0  0
  190.4040  176.3830  139.4530 N   0  0  0  0  0  0  0  0  0  0  0  0
  185.5250  178.3640  137.4870 C   0  0  0  0  0  2  0  0  0  0  0  0
  184.5140  179.9250  139.6400 O   0  0  0  0  0  0  0  0  0  0  0  0
  186.8660  177.9020  137.9460 C   0  0  0  0  0  0  0  0  0  0  0  0
  189.2610  176.8990  138.9290 C   0  0  0  0  0  0  0  0  0  0  0  0
  183.7650  178.0080  140.8760 C   0  0  0  0  0  2  0  0  0  0  0  0
  185.9900  177.9790  142.5930 N   0  0  0  0  0  2  0  0  0  0  0  0
  188.4570  177.7560  139.7020 C   0  0  0  0  0  0  0  0  0  0  0  0
  184.6050  178.9830  144.2810 C   0  0  0  0  0  2  0  0  0  0  0  0
  185.0620  179.0740  142.8660 C   0  0  2  0  0  3  0  0  0  0  0  0
  187.2930  178.2340  139.1930 N   0  0  0  0  0  0  0  0  0  0  0  0
  184.2730  178.6860  139.6330 C   0  0  0  0  0  0  0  0  0  0  0  0
  183.7360  178.9320  142.0950 C   0  0  2  0  0  3  0  0  0  0  0  0
  183.3790  178.6490  144.3950 N   0  0  0  0  0  2  0  0  0  0  0  0
  180.9570  179.3460  141.6970 N   0  0  0  0  0  1  0  0  0  0  0  0
  181.4370  179.2680  143.0670 C   0  0  1  0  0  3  0  0  0  0  0  0
  180.3610  178.6320  143.9270 C   0  0  0  0  0  1  0  0  0  0  0  0
  183.9680  176.5780  138.2810 C   0  0  0  0  0  2  0  0  0  0  0  0
  182.7860  176.5790  137.3240 C   0  0  0  0  0  2  0  0  0  0  0  0
  180.8130  178.1310  137.8130 C   0  0  0  0  0  0  0  0  0  0  0  0
  181.5660  176.9300  138.0300 N   0  0  0  0  0  2  0  0  0  0  0  0
  179.8790  178.3990  138.6140 O   0  0  0  0  0  0  0  0  0  0  0  0
  181.0960  179.0240  136.7110 N   0  0  0  0  0  0  0  0  0  0  0  0
  181.8890  178.5970  135.6980 O   0  0  0  0  0  1  0  0  0  0  0  0
  181.0230  181.2510  137.7480 C   0  0  0  0  0  1  0  0  0  0  0  0
  178.9780  180.2990  136.7720 C   0  0  0  0  0  1  0  0  0  0  0  0
  180.8010  181.0090  135.2900 C   0  0  0  0  0  1  0  0  0  0  0  0
  180.4900  180.3670  136.6320 C   0  0  0  0  0  0  0  0  0  0  0  0
  1  7  2  0  0  0  0
  1 13  1  0  0  0  0
  2  6  1  0  0  0  0
  2  3  1  0  0  0  0
  3  8  1  0  0  0  0
  4  6  2  0  0  0  0
  5 25  1  1  0  0  0
  5 23  1  0  0  0  0
  7 14  1  0  0  0  0
  9 21  1  0  0  0  0
 10  4  1  0  0  0  0
 11 13  1  0  0  0  0
 11  9  1  0  0  0  0
 13 20  2  0  0  0  0
 14 10  2  0  0  0  0
 14 17  1  0  0  0  0
 16 19  1  0  0  0  0
 16  8  1  0  0  0  0
 17  2  2  0  0  0  0
 18 23  1  0  0  0  0
 19 18  1  1  0  0  0
 20 17  1  0  0  0  0
 21 12  2  0  0  0  0
 21 15  1  0  0  0  0
 22 15  1  6  0  0  0
 22 19  1  0  0  0  0
 22  5  1  0  0  0  0
 24 25  1  0  0  0  0
 25 26  1  1  0  0  0
 27  9  1  0  0  0  0
 28 30  1  0  0  0  0
 28 27  1  0  0  0  0
 29 30  1  0  0  0  0
 29 31  2  0  0  0  0
 32 29  1  0  0  0  0
 33 32  1  0  0  0  0
 36 37  1  0  0  0  0
 37 32  1  0  0  0  0
 37 35  1  0  0  0  0
 37 34  1  0  0  0  0
M  END
>  <MODEL>
5

>  <REMARK>
 VINA RESULT:      -7.5      1.915      3.216
  Name = 
  5 active torsions:
  status: ('A' for Active; 'I' for Inactive)
    1  A    between atoms: C_7  and  C_9
    2  A    between atoms: N_13  and  C_34
    3  A    between atoms: N_14  and  C_25
    4  A    between atoms: C_22  and  N_36
    5  A    between atoms: C_25  and  C_34
                            x       y       z     vdW  Elec       q    Type
                         _______ _______ _______ _____ _____    ______ ____

>  <TORSDO>
F 5

$$$$
=
 OpenBabel10222419553D

 37 40  0  0  1  0  0  0  0  0999 V2000
  191.3520  177.2600  144.6030 C   0  0  0  0  0  3  0  0  0  0  0  0
  187.6890  178.0680  146.4300 C   0  0  0  0  0  0  0  0  0  0  0  0
  186.7230  178.8830  145.7680 N   0  0  0  0  0  2  0  0  0  0  0  0
  188.3730  176.7170  148.3130 C   0  0  0  0  0  3  0  0  0  0  0  0
  184.5540  178.2770  140.7640 C   0  0  1  0  0  3  0  0  0  0  0  0
  187.4060  177.5020  147.6780 C   0  0  0  0  0  3  0  0  0  0  0  0
  191.0950  176.7510  145.8810 C   0  0  0  0  0  3  0  0  0  0  0  0
  185.4790  178.3210  145.2710 C   0  0  0  0  0  2  0  0  0  0  0  0
  189.5050  178.0170  141.7260 N   0  0  0  0  0  0  0  0  0  0  0  0
  189.5780  176.4960  147.7180 N   0  0  0  0  0  0  0  0  0  0  0  0
  190.5860  178.5160  142.5700 C   0  0  0  0  0  2  0  0  0  0  0  0
  188.2140  179.9530  141.9330 O   0  0  0  0  0  0  0  0  0  0  0  0
  190.3850  178.0470  143.9710 C   0  0  0  0  0  0  0  0  0  0  0  0
  189.8740  177.0240  146.5010 C   0  0  0  0  0  0  0  0  0  0  0  0
  186.9720  177.9660  141.4100 C   0  0  0  0  0  2  0  0  0  0  0  0
  185.6590  177.8770  143.8930 N   0  0  0  0  0  2  0  0  0  0  0  0
  188.9320  177.8310  145.8370 C   0  0  0  0  0  0  0  0  0  0  0  0
  183.7110  178.7760  142.8110 C   0  0  0  0  0  2  0  0  0  0  0  0
  185.1760  178.9450  143.0210 C   0  0  2  0  0  3  0  0  0  0  0  0
  189.2120  178.3200  144.6010 N   0  0  0  0  0  0  0  0  0  0  0  0
  188.2460  178.7120  141.6980 C   0  0  0  0  0  0  0  0  0  0  0  0
  185.7190  178.8260  141.5840 C   0  0  2  0  0  3  0  0  0  0  0  0
  183.4090  178.4210  141.6230 N   0  0  0  0  0  2  0  0  0  0  0  0
  185.5440  179.0030  138.6480 N   0  0  0  0  0  1  0  0  0  0  0  0
  184.3570  179.0850  139.4820 C   0  0  1  0  0  3  0  0  0  0  0  0
  183.1720  178.5520  138.6990 C   0  0  0  0  0  1  0  0  0  0  0  0
  189.6350  176.6730  141.1750 C   0  0  0  0  0  2  0  0  0  0  0  0
  190.1230  176.7300  139.7370 C   0  0  0  0  0  2  0  0  0  0  0  0
  189.1430  178.1590  137.8560 C   0  0  0  0  0  0  0  0  0  0  0  0
  189.7710  178.0050  139.1350 N   0  0  0  0  0  2  0  0  0  0  0  0
  189.0580  179.3180  137.3720 O   0  0  0  0  0  0  0  0  0  0  0  0
  188.6110  177.0310  137.1220 N   0  0  0  0  0  0  0  0  0  0  0  0
  188.4390  175.8470  137.7590 O   0  0  0  0  0  1  0  0  0  0  0  0
  189.3840  177.5030  134.8370 C   0  0  0  0  0  1  0  0  0  0  0  0
  187.1520  178.2540  135.5440 C   0  0  0  0  0  1  0  0  0  0  0  0
  187.5720  175.8550  135.2290 C   0  0  0  0  0  1  0  0  0  0  0  0
  188.1910  177.1570  135.7140 C   0  0  0  0  0  0  0  0  0  0  0  0
  1  7  1  0  0  0  0
  2  6  2  0  0  0  0
  3  2  1  0  0  0  0
  5 25  1  6  0  0  0
  5 22  1  0  0  0  0
  5 23  1  0  0  0  0
  6  4  1  0  0  0  0
  7 14  2  0  0  0  0
  8  3  1  0  0  0  0
  9 11  1  0  0  0  0
 10  4  2  0  0  0  0
 11 13  1  0  0  0  0
 13 20  1  0  0  0  0
 13  1  2  0  0  0  0
 14 10  1  0  0  0  0
 15 21  1  0  0  0  0
 16  8  1  0  0  0  0
 17  2  1  0  0  0  0
 17 14  1  0  0  0  0
 19 18  1  6  0  0  0
 19 16  1  0  0  0  0
 20 17  2  0  0  0  0
 21  9  1  0  0  0  0
 21 12  2  0  0  0  0
 22 15  1  1  0  0  0
 22 19  1  0  0  0  0
 23 18  1  0  0  0  0
 24 25  1  0  0  0  0
 25 26  1  6  0  0  0
 27  9  1  0  0  0  0
 28 27  1  0  0  0  0
 29 30  1  0  0  0  0
 30 28  1  0  0  0  0
 31 29  2  0  0  0  0
 32 33  1  0  0  0  0
 32 29  1  0  0  0  0
 34 37  1  0  0  0  0
 35 37  1  0  0  0  0
 36 37  1  0  0  0  0
 37 32  1  0  0  0  0
M  END
>  <MODEL>
6

>  <REMARK>
 VINA RESULT:      -7.5      2.909      7.516
  Name = 
  5 active torsions:
  status: ('A' for Active; 'I' for Inactive)
    1  A    between atoms: C_7  and  C_9
    2  A    between atoms: N_13  and  C_34
    3  A    between atoms: N_14  and  C_25
    4  A    between atoms: C_22  and  N_36
    5  A    between atoms: C_25  and  C_34
                            x       y       z     vdW  Elec       q    Type
                         _______ _______ _______ _____ _____    ______ ____

>  <TORSDO>
F 5

$$$$
=
 OpenBabel10222419553D

 37 40  0  0  1  0  0  0  0  0999 V2000
  185.3990  178.8980  142.0910 C   0  0  0  0  0  3  0  0  0  0  0  0
  184.3820  177.7980  138.1970 C   0  0  0  0  0  0  0  0  0  0  0  0
  185.3510  177.8830  137.1520 N   0  0  0  0  0  2  0  0  0  0  0  0
  182.1610  177.2480  138.9720 C   0  0  0  0  0  3  0  0  0  0  0  0
  190.3590  175.6530  136.9090 C   0  0  1  0  0  3  0  0  0  0  0  0
  183.0970  177.3100  137.9350 C   0  0  0  0  0  3  0  0  0  0  0  0
  184.0940  178.4760  141.8150 C   0  0  0  0  0  3  0  0  0  0  0  0
  185.8920  176.6870  136.5290 C   0  0  0  0  0  2  0  0  0  0  0  0
  188.6200  178.2140  140.8980 N   0  0  0  0  0  0  0  0  0  0  0  0
  182.5000  177.6470  140.2290 N   0  0  0  0  0  0  0  0  0  0  0  0
  187.7560  179.3080  141.3320 C   0  0  0  0  0  2  0  0  0  0  0  0
  189.0550  179.1560  138.8060 O   0  0  0  0  0  0  0  0  0  0  0  0
  186.3330  178.9630  141.0520 C   0  0  0  0  0  0  0  0  0  0  0  0
  183.7450  178.1140  140.5120 C   0  0  0  0  0  0  0  0  0  0  0  0
  189.2990  176.7700  138.9060 C   0  0  0  0  0  2  0  0  0  0  0  0
  187.0900  176.2610  137.2440 N   0  0  0  0  0  2  0  0  0  0  0  0
  184.7110  178.2050  139.4930 C   0  0  0  0  0  0  0  0  0  0  0  0
  188.6320  175.8410  135.4500 C   0  0  0  0  0  2  0  0  0  0  0  0
  188.2440  176.7950  136.5260 C   0  0  2  0  0  3  0  0  0  0  0  0
  185.9670  178.6280  139.7870 N   0  0  0  0  0  0  0  0  0  0  0  0
  188.9960  178.1120  139.5140 C   0  0  0  0  0  0  0  0  0  0  0  0
  189.5170  176.8310  137.3920 C   0  0  2  0  0  3  0  0  0  0  0  0
  189.7400  175.2510  135.6740 N   0  0  0  0  0  2  0  0  0  0  0  0
  192.6120  175.8410  137.8450 N   0  0  0  0  0  1  0  0  0  0  0  0
  191.8060  176.0780  136.6590 C   0  0  1  0  0  3  0  0  0  0  0  0
  192.3950  175.2950  135.5020 C   0  0  0  0  0  1  0  0  0  0  0  0
  188.8260  177.1020  141.8190 C   0  0  0  0  0  2  0  0  0  0  0  0
  188.4330  177.4990  143.2330 C   0  0  0  0  0  2  0  0  0  0  0  0
  189.2880  177.1040  145.6100 C   0  0  0  0  0  0  0  0  0  0  0  0
  189.4130  177.0040  144.1860 N   0  0  0  0  0  2  0  0  0  0  0  0
  190.2870  176.8010  146.3160 O   0  0  0  0  0  0  0  0  0  0  0  0
  188.0610  177.5340  146.2450 N   0  0  0  0  0  0  0  0  0  0  0  0
  186.9180  177.5750  145.5180 O   0  0  0  0  0  1  0  0  0  0  0  0
  186.8060  178.7440  147.9770 C   0  0  0  0  0  1  0  0  0  0  0  0
  189.2580  178.6260  148.1130 C   0  0  0  0  0  1  0  0  0  0  0  0
  187.9310  176.6000  148.5160 C   0  0  0  0  0  1  0  0  0  0  0  0
  188.0120  177.8680  147.6810 C   0  0  0  0  0  0  0  0  0  0  0  0
  2 17  1  0  0  0  0
  3  2  1  0  0  0  0
  4 10  2  0  0  0  0
  5 25  1  6  0  0  0
  5 22  1  0  0  0  0
  6  2  2  0  0  0  0
  6  4  1  0  0  0  0
  7  1  1  0  0  0  0
  8  3  1  0  0  0  0
  8 16  1  0  0  0  0
  9 11  1  0  0  0  0
  9 27  1  0  0  0  0
 10 14  1  0  0  0  0
 12 21  2  0  0  0  0
 13 11  1  0  0  0  0
 13  1  2  0  0  0  0
 14  7  2  0  0  0  0
 15 21  1  0  0  0  0
 17 20  2  0  0  0  0
 17 14  1  0  0  0  0
 18 23  1  0  0  0  0
 19 18  1  6  0  0  0
 19 16  1  0  0  0  0
 19 22  1  0  0  0  0
 20 13  1  0  0  0  0
 21  9  1  0  0  0  0
 22 15  1  1  0  0  0
 23  5  1  0  0  0  0
 25 26  1  6  0  0  0
 25 24  1  0  0  0  0
 27 28  1  0  0  0  0
 28 30  1  0  0  0  0
 29 32  1  0  0  0  0
 29 31  2  0  0  0  0
 30 29  1  0  0  0  0
 32 37  1  0  0  0  0
 33 32  1  0  0  0  0
 37 34  1  0  0  0  0
 37 35  1  0  0  0  0
 37 36  1  0  0  0  0
M  END
>  <MODEL>
7

>  <REMARK>
 VINA RESULT:      -7.4      3.043      8.550
  Name = 
  5 active torsions:
  status: ('A' for Active; 'I' for Inactive)
    1  A    between atoms: C_7  and  C_9
    2  A    between atoms: N_13  and  C_34
    3  A    between atoms: N_14  and  C_25
    4  A    between atoms: C_22  and  N_36
    5  A    between atoms: C_25  and  C_34
                            x       y       z     vdW  Elec       q    Type
                         _______ _______ _______ _____ _____    ______ ____

>  <TORSDO>
F 5

$$$$
=
 OpenBabel10222419553D

 37 40  0  0  1  0  0  0  0  0999 V2000
  189.3880  177.5120  139.8380 C   0  0  0  0  0  3  0  0  0  0  0  0
  186.6340  178.2530  142.8830 C   0  0  0  0  0  0  0  0  0  0  0  0
  185.4150  178.9390  142.5960 N   0  0  0  0  0  2  0  0  0  0  0  0
  188.1050  177.1300  144.4360 C   0  0  0  0  0  3  0  0  0  0  0  0
  181.5780  177.7320  138.8650 C   0  0  1  0  0  3  0  0  0  0  0  0
  186.9000  177.7890  144.1760 C   0  0  0  0  0  3  0  0  0  0  0  0
  189.6840  177.1090  141.1450 C   0  0  0  0  0  3  0  0  0  0  0  0
  184.1350  178.2550  142.6530 C   0  0  0  0  0  2  0  0  0  0  0  0
  186.5240  177.8770  137.8560 N   0  0  0  0  0  0  0  0  0  0  0  0
  189.0090  176.9310  143.4370 N   0  0  0  0  0  0  0  0  0  0  0  0
  187.7920  178.5210  138.1850 C   0  0  0  0  0  2  0  0  0  0  0  0
  185.2320  179.7380  138.4240 O   0  0  0  0  0  0  0  0  0  0  0  0
  188.1830  178.1730  139.5810 C   0  0  0  0  0  0  0  0  0  0  0  0
  188.7700  177.3610  142.1700 C   0  0  0  0  0  0  0  0  0  0  0  0
  184.0780  177.6360  138.5450 C   0  0  0  0  0  2  0  0  0  0  0  0
  183.8200  177.6960  141.3430 N   0  0  0  0  0  2  0  0  0  0  0  0
  187.5740  178.0410  141.8720 C   0  0  0  0  0  0  0  0  0  0  0  0
  181.5320  178.3660  141.0430 C   0  0  0  0  0  2  0  0  0  0  0  0
  182.9440  178.6450  140.6610 C   0  0  2  0  0  3  0  0  0  0  0  0
  187.3170  178.4290  140.5970 N   0  0  0  0  0  0  0  0  0  0  0  0
  185.2890  178.4860  138.2720 C   0  0  0  0  0  0  0  0  0  0  0  0
  182.9090  178.4280  139.1360 C   0  0  2  0  0  3  0  0  0  0  0  0
  180.8370  177.8830  140.0870 N   0  0  0  0  0  2  0  0  0  0  0  0
  179.3980  178.3330  137.9290 N   0  0  0  0  0  1  0  0  0  0  0  0
  180.8330  178.4020  137.7100 C   0  0  1  0  0  3  0  0  0  0  0  0
  181.2410  179.8580  137.5930 C   0  0  0  0  0  1  0  0  0  0  0  0
  186.5620  176.4990  137.3820 C   0  0  0  0  0  2  0  0  0  0  0  0
  187.8860  176.2070  136.6940 C   0  0  0  0  0  2  0  0  0  0  0  0
  189.8110  174.5660  137.0740 C   0  0  0  0  0  0  0  0  0  0  0  0
  188.4310  174.9440  137.1650 N   0  0  0  0  0  2  0  0  0  0  0  0
  190.1200  173.3780  137.3520 O   0  0  0  0  0  0  0  0  0  0  0  0
  190.8390  175.5050  136.6820 N   0  0  0  0  0  0  0  0  0  0  0  0
  190.5570  176.8310  136.6690 O   0  0  0  0  0  1  0  0  0  0  0  0
  192.8910  174.5050  137.5940 C   0  0  0  0  0  1  0  0  0  0  0  0
  193.0510  176.2090  135.8290 C   0  0  0  0  0  1  0  0  0  0  0  0
  192.1680  173.9850  135.2790 C   0  0  0  0  0  1  0  0  0  0  0  0
  192.2060  175.0590  136.3550 C   0  0  0  0  0  0  0  0  0  0  0  0
  1  7  1  0  0  0  0
  2  6  2  0  0  0  0
  3  8  1  0  0  0  0
  3  2  1  0  0  0  0
  5 25  1  6  0  0  0
  5 22  1  0  0  0  0
  5 23  1  0  0  0  0
  6  4  1  0  0  0  0
  7 14  2  0  0  0  0
  9 11  1  0  0  0  0
  9 21  1  0  0  0  0
 10  4  2  0  0  0  0
 11 13  1  0  0  0  0
 13  1  2  0  0  0  0
 13 20  1  0  0  0  0
 14 10  1  0  0  0  0
 16  8  1  0  0  0  0
 17 14  1  0  0  0  0
 17  2  1  0  0  0  0
 19 18  1  1  0  0  0
 19 16  1  0  0  0  0
 20 17  2  0  0  0  0
 21 12  2  0  0  0  0
 21 15  1  0  0  0  0
 22 15  1  1  0  0  0
 22 19  1  0  0  0  0
 23 18  1  0  0  0  0
 25 26  1  1  0  0  0
 25 24  1  0  0  0  0
 27  9  1  0  0  0  0
 28 30  1  0  0  0  0
 28 27  1  0  0  0  0
 29 30  1  0  0  0  0
 29 31  2  0  0  0  0
 32 29  1  0  0  0  0
 33 32  1  0  0  0  0
 35 37  1  0  0  0  0
 36 37  1  0  0  0  0
 37 32  1  0  0  0  0
 37 34  1  0  0  0  0
M  END
>  <MODEL>
8

>  <REMARK>
 VINA RESULT:      -7.4      2.670      8.135
  Name = 
  5 active torsions:
  status: ('A' for Active; 'I' for Inactive)
    1  A    between atoms: C_7  and  C_9
    2  A    between atoms: N_13  and  C_34
    3  A    between atoms: N_14  and  C_25
    4  A    between atoms: C_22  and  N_36
    5  A    between atoms: C_25  and  C_34
                            x       y       z     vdW  Elec       q    Type
                         _______ _______ _______ _____ _____    ______ ____

>  <TORSDO>
F 5

$$$$
=
 OpenBabel10222419553D

 37 40  0  0  1  0  0  0  0  0999 V2000
  187.9170  177.0750  137.2570 C   0  0  0  0  0  3  0  0  0  0  0  0
  188.7520  178.0700  141.2220 C   0  0  0  0  0  0  0  0  0  0  0  0
  187.8730  178.9310  141.9450 N   0  0  0  0  0  2  0  0  0  0  0  0
  190.7310  176.6890  141.1120 C   0  0  0  0  0  3  0  0  0  0  0  0
  182.4730  178.4270  142.7820 C   0  0  1  0  0  3  0  0  0  0  0  0
  189.8780  177.5210  141.8440 C   0  0  0  0  0  3  0  0  0  0  0  0
  189.0800  176.5820  137.8590 C   0  0  0  0  0  3  0  0  0  0  0  0
  187.0660  178.4310  143.0450 C   0  0  0  0  0  2  0  0  0  0  0  0
  184.6710  177.9190  138.2640 N   0  0  0  0  0  0  0  0  0  0  0  0
  190.4630  176.4060  139.8080 N   0  0  0  0  0  0  0  0  0  0  0  0
  185.7700  178.3650  137.4120 C   0  0  0  0  0  2  0  0  0  0  0  0
  184.5620  179.9180  139.4670 O   0  0  0  0  0  0  0  0  0  0  0  0
  187.0670  177.9090  137.9900 C   0  0  0  0  0  0  0  0  0  0  0  0
  189.3690  176.9170  139.1830 C   0  0  0  0  0  0  0  0  0  0  0  0
  183.7140  177.9950  140.6290 C   0  0  0  0  0  2  0  0  0  0  0  0
  185.7760  177.9770  142.5390 N   0  0  0  0  0  2  0  0  0  0  0  0
  188.4940  177.7690  139.8820 C   0  0  0  0  0  0  0  0  0  0  0  0
  184.2400  178.9710  144.0960 C   0  0  0  0  0  2  0  0  0  0  0  0
  184.8210  179.0660  142.7290 C   0  0  2  0  0  3  0  0  0  0  0  0
  187.3780  178.2420  139.2700 N   0  0  0  0  0  0  0  0  0  0  0  0
  184.3280  178.6770  139.4370 C   0  0  0  0  0  0  0  0  0  0  0  0
  183.5710  178.9180  141.8410 C   0  0  2  0  0  3  0  0  0  0  0  0
  183.0100  178.6300  144.1000 N   0  0  0  0  0  2  0  0  0  0  0  0
  180.6780  179.0810  141.2530 N   0  0  0  0  0  1  0  0  0  0  0  0
  181.1920  179.2410  142.6030 C   0  0  1  0  0  3  0  0  0  0  0  0
  180.1330  178.7830  143.5870 C   0  0  0  0  0  1  0  0  0  0  0  0
  184.1570  176.5690  138.0620 C   0  0  0  0  0  2  0  0  0  0  0  0
  183.1390  176.5480  136.9330 C   0  0  0  0  0  2  0  0  0  0  0  0
  183.1640  174.2890  135.7360 C   0  0  0  0  0  0  0  0  0  0  0  0
  183.5780  175.6540  135.8750 N   0  0  0  0  0  2  0  0  0  0  0  0
  183.7550  173.5730  134.8850 O   0  0  0  0  0  0  0  0  0  0  0  0
  182.0970  173.7260  136.5340 N   0  0  0  0  0  0  0  0  0  0  0  0
  181.2780  174.5550  137.2260 O   0  0  0  0  0  1  0  0  0  0  0  0
  181.3590  171.7950  135.2040 C   0  0  0  0  0  1  0  0  0  0  0  0
  180.7720  171.9230  137.5880 C   0  0  0  0  0  1  0  0  0  0  0  0
  183.1070  171.5210  136.9420 C   0  0  0  0  0  1  0  0  0  0  0  0
  181.8410  172.2730  136.5640 C   0  0  0  0  0  0  0  0  0  0  0  0
  1  7  2  0  0  0  0
  1 13  1  0  0  0  0
  2  6  1  0  0  0  0
  2  3  1  0  0  0  0
  3  8  1  0  0  0  0
  4  6  2  0  0  0  0
  5 25  1  1  0  0  0
  5 23  1  0  0  0  0
  7 14  1  0  0  0  0
  9 21  1  0  0  0  0
 10  4  1  0  0  0  0
 11 13  1  0  0  0  0
 11  9  1  0  0  0  0
 13 20  2  0  0  0  0
 14 10  2  0  0  0  0
 14 17  1  0  0  0  0
 16 19  1  0  0  0  0
 16  8  1  0  0  0  0
 17  2  2  0  0  0  0
 18 23  1  0  0  0  0
 19 18  1  1  0  0  0
 20 17  1  0  0  0  0
 21 12  2  0  0  0  0
 21 15  1  0  0  0  0
 22 15  1  6  0  0  0
 22 19  1  0  0  0  0
 22  5  1  0  0  0  0
 24 25  1  0  0  0  0
 25 26  1  1  0  0  0
 27  9  1  0  0  0  0
 28 27  1  0  0  0  0
 29 30  1  0  0  0  0
 29 32  1  0  0  0  0
 30 28  1  0  0  0  0
 31 29  2  0  0  0  0
 32 37  1  0  0  0  0
 32 33  1  0  0  0  0
 34 37  1  0  0  0  0
 37 36  1  0  0  0  0
 37 35  1  0  0  0  0
M  END
>  <MODEL>
9

>  <REMARK>
 VINA RESULT:      -7.3      3.375      5.314
  Name = 
  5 active torsions:
  status: ('A' for Active; 'I' for Inactive)
    1  A    between atoms: C_7  and  C_9
    2  A    between atoms: N_13  and  C_34
    3  A    between atoms: N_14  and  C_25
    4  A    between atoms: C_22  and  N_36
    5  A    between atoms: C_25  and  C_34
                            x       y       z     vdW  Elec       q    Type
                         _______ _______ _______ _____ _____    ______ ____

>  <TORSDO>
F 5

$$$$
