=
 OpenBabel10222416073D

 61 66  0  0  1  0  0  0  0  0999 V2000
  189.3380  176.5340  137.2560 C   0  0  1  0  0  3  0  0  0  0  0  0
  188.2390  175.9920  135.1710 O   0  0  0  0  0  1  0  0  0  0  0  0
  187.0330  178.2210  135.7060 F   0  0  0  0  0  0  0  0  0  0  0  0
  186.6880  178.3430  142.3860 C   0  0  0  0  0  0  0  0  0  0  0  0
  183.9820  177.3520  138.2910 C   0  0  0  0  0  2  0  0  0  0  0  0
  184.7080  177.7780  137.1750 O   0  0  0  0  0  0  0  0  0  0  0  0
  187.0220  177.3290  136.7730 C   0  0  2  0  0  0  0  0  0  0  0  0
  183.9840  178.6090  140.3440 C   0  0  0  0  0  0  0  0  0  0  0  0
  188.6160  178.6390  137.8670 C   0  0  1  0  0  3  0  0  0  0  0  0
  187.4690  177.7590  141.5160 C   0  0  0  0  0  0  0  0  0  0  0  0
  185.6140  176.7480  136.9100 C   0  0  2  0  0  3  0  0  0  0  0  0
  188.2480  177.1710  140.6500 C   0  0  0  0  0  3  0  0  0  0  0  0
  189.5940  177.9110  137.1340 O   0  0  0  0  0  0  0  0  0  0  0  0
  185.7010  179.3490  141.8850 C   0  0  0  0  0  2  0  0  0  0  0  0
  187.3410  178.0110  137.9690 O   0  0  0  0  0  0  0  0  0  0  0  0
  189.4760  177.8500  140.1340 C   0  0  0  0  0  2  0  0  0  0  0  0
  184.3980  178.6940  141.5760 C   0  0  0  0  0  3  0  0  0  0  0  0
  188.0290  176.1860  136.5430 C   0  0  2  0  0  3  0  0  0  0  0  0
  183.5640  178.5310  139.1120 C   0  0  0  0  0  0  0  0  0  0  0  0
  185.2370  176.0940  135.7350 O   0  0  0  0  0  1  0  0  0  0  0  0
  189.1370  179.0480  139.2460 C   0  0  0  0  0  2  0  0  0  0  0  0
  190.4540  175.7670  136.7220 N   0  0  0  0  0  2  0  0  0  0  0  0
  191.3560  175.2480  138.8120 O   0  0  0  0  0  0  0  0  0  0  0  0
  191.4720  175.2030  137.5560 C   0  0  0  0  0  0  0  0  0  0  0  0
  195.9730  172.7150  135.2510 F   0  0  0  0  0  0  0  0  0  0  0  0
  192.5470  173.9220  135.7030 C   0  0  0  0  0  3  0  0  0  0  0  0
  193.6640  173.2990  135.1340 C   0  0  0  0  0  3  0  0  0  0  0  0
  193.8850  174.5630  137.6160 C   0  0  0  0  0  3  0  0  0  0  0  0
  192.6490  174.5560  136.9500 C   0  0  0  0  0  0  0  0  0  0  0  0
  195.0010  173.9430  137.0460 C   0  0  0  0  0  3  0  0  0  0  0  0
  194.8900  173.3100  135.8060 C   0  0  0  0  0  0  0  0  0  0  0  0
  185.5980  177.9610  144.4470 O   0  0  0  0  0  0  0  0  0  0  0  0
  186.6960  177.9690  143.8250 C   0  0  0  0  0  0  0  0  0  0  0  0
  191.8950  176.3580  146.1240 C   0  0  0  0  0  3  0  0  0  0  0  0
  189.0550  177.1950  143.9470 N   0  0  0  0  0  0  0  0  0  0  0  0
  189.8930  176.9700  144.9690 C   0  0  0  0  0  0  0  0  0  0  0  0
  189.2760  177.2400  146.1500 C   0  0  0  0  0  0  0  0  0  0  0  0
  187.9230  177.6120  144.5750 C   0  0  0  0  0  0  0  0  0  0  0  0
  191.2090  176.5220  144.9050 C   0  0  0  0  0  3  0  0  0  0  0  0
  191.2550  176.6430  147.3510 C   0  0  0  0  0  3  0  0  0  0  0  0
  189.9220  177.0920  147.3740 C   0  0  0  0  0  3  0  0  0  0  0  0
  188.0190  177.6500  145.9320 N   0  0  0  0  0  2  0  0  0  0  0  0
  182.5760  179.5580  138.6320 C   0  0  0  0  0  2  0  0  0  0  0  0
  181.1280  179.0900  138.7250 C   0  0  2  0  0  3  0  0  0  0  0  0
  180.1140  179.0740  140.6230 C   0  0  0  0  0  2  0  0  0  0  0  0
  180.3060  180.0920  139.5160 C   0  0  0  0  0  2  0  0  0  0  0  0
  180.9580  178.0800  139.8470 C   0  0  1  0  0  3  0  0  0  0  0  0
  180.1220  176.8570  139.4420 C   0  0  0  0  0  2  0  0  0  0  0  0
  178.9310  176.1780  137.5920 O   0  0  0  0  0  1  0  0  0  0  0  0
  180.1510  176.6170  137.9980 N   0  0  0  0  0  0  0  0  0  0  0  0
  181.1320  175.7030  137.6900 O   0  0  0  0  0  0  0  0  0  0  0  0
  180.6000  174.6740  136.8760 C   0  0  0  0  0  2  0  0  0  0  0  0
  181.6490  173.1960  135.2330 C   0  0  0  0  0  1  0  0  0  0  0  0
  181.5450  173.4700  136.7240 C   0  0  2  0  0  0  0  0  0  0  0  0
  181.0160  172.2000  137.4130 C   0  0  0  0  0  2  0  0  0  0  0  0
  179.6210  172.2210  137.4990 O   0  0  0  0  0  1  0  0  0  0  0  0
  182.8880  173.8350  137.2000 N   0  0  0  0  0  2  0  0  0  0  0  0
  183.4240  171.0700  136.9540 O   0  0  0  0  0  1  0  0  0  0  0  0
  184.1220  172.6090  136.8690 P   0  0  0  0  0  0  0  0  0  0  0  0
  185.2590  172.6950  137.8630 O   0  0  0  0  0  1  0  0  0  0  0  0
  184.7310  172.8500  135.3100 O   0  0  0  0  0  0  0  0  0  0  0  0
  1 22  1  6  0  0  0
  4 33  1  0  0  0  0
  5 19  1  0  0  0  0
  6  5  1  0  0  0  0
  7  3  1  6  0  0  0
  7 11  1  0  0  0  0
  7 15  1  0  0  0  0
  8 17  2  0  0  0  0
  9 15  1  0  0  0  0
  9 21  1  1  0  0  0
 10  4  2  0  0  0  0
 11 20  1  6  0  0  0
 11  6  1  0  0  0  0
 12 10  2  0  0  0  0
 13  1  1  0  0  0  0
 13  9  1  0  0  0  0
 14  4  1  0  0  0  0
 16 12  1  0  0  0  0
 17 14  1  0  0  0  0
 18  2  1  6  0  0  0
 18  7  1  0  0  0  0
 18  1  1  0  0  0  0
 19  8  2  0  0  0  0
 21 16  1  0  0  0  0
 22 24  1  0  0  0  0
 24 23  2  0  0  0  0
 25 31  1  0  0  0  0
 26 29  1  0  0  0  0
 27 26  2  0  0  0  0
 27 31  1  0  0  0  0
 29 24  1  0  0  0  0
 29 28  2  0  0  0  0
 30 28  1  0  0  0  0
 31 30  2  0  0  0  0
 33 32  2  0  0  0  0
 33 38  1  0  0  0  0
 34 40  1  0  0  0  0
 35 38  2  0  0  0  0
 35 36  1  0  0  0  0
 36 37  2  0  0  0  0
 37 41  1  0  0  0  0
 38 42  1  0  0  0  0
 39 36  1  0  0  0  0
 39 34  2  0  0  0  0
 40 41  2  0  0  0  0
 42 37  1  0  0  0  0
 43 19  1  0  0  0  0
 44 43  1  1  0  0  0
 44 46  1  0  0  0  0
 44 47  1  0  0  0  0
 46 45  1  0  0  0  0
 47 48  1  6  0  0  0
 47 45  1  0  0  0  0
 49 50  1  0  0  0  0
 50 48  1  0  0  0  0
 51 50  1  0  0  0  0
 52 51  1  0  0  0  0
 54 53  1  6  0  0  0
 54 52  1  0  0  0  0
 54 57  1  0  0  0  0
 54 55  1  0  0  0  0
 55 56  1  0  0  0  0
 59 58  1  0  0  0  0
 59 57  1  0  0  0  0
 59 60  1  0  0  0  0
 61 59  2  0  0  0  0
M  END
>  <MODEL>
1

>  <REMARK>
 VINA RESULT:      -8.4      0.000      0.000
  Name = 
  14 active torsions:
  status: ('A' for Active; 'I' for Inactive)
    1  A    between atoms: N_1  and  C_2
    2  A    between atoms: C_4  and  C_53
    3  A    between atoms: C_4  and  N_57
    4  A    between atoms: C_9  and  C_49
    5  A    between atoms: C_12  and  C_17
    6  A    between atoms: C_12  and  O_40
    7  A    between atoms: C_14  and  C_55
    8  A    between atoms: C_15  and  C_42
    9  A    between atoms: C_16  and  C_17
   10  A    between atoms: C_17  and  N_30
   11  A    between atoms: N_30  and  P_32
   12  A    between atoms: C_36  and  C_55
   13  A    between atoms: O_40  and  N_57
   14  A    between atoms: C_49  and  C_52
                            x       y       z     vdW  Elec       q    Type
                         _______ _______ _______ _____ _____    ______ ____

>  <TORSDO>
F 14

$$$$
=
 OpenBabel10222416073D

 61 66  0  0  1  0  0  0  0  0999 V2000
  188.8860  177.5110  145.4790 C   0  0  1  0  0  3  0  0  0  0  0  0
  187.2730  178.2150  147.1380 O   0  0  0  0  0  1  0  0  0  0  0  0
  185.6880  176.9390  145.5350 F   0  0  0  0  0  0  0  0  0  0  0  0
  188.3280  177.9370  139.4700 C   0  0  0  0  0  0  0  0  0  0  0  0
  184.6870  179.5190  142.5210 C   0  0  0  0  0  2  0  0  0  0  0  0
  184.6200  178.6460  143.6090 O   0  0  0  0  0  0  0  0  0  0  0  0
  186.4900  177.8670  144.8800 C   0  0  2  0  0  0  0  0  0  0  0  0
  185.1240  178.7180  140.2930 C   0  0  0  0  0  0  0  0  0  0  0  0
  187.7750  176.1210  144.0110 C   0  0  1  0  0  3  0  0  0  0  0  0
  188.7970  177.9460  140.6900 C   0  0  0  0  0  0  0  0  0  0  0  0
  185.6280  179.0650  144.4810 C   0  0  2  0  0  3  0  0  0  0  0  0
  189.2680  177.9590  141.9070 C   0  0  0  0  0  3  0  0  0  0  0  0
  188.5190  176.1780  145.2220 O   0  0  0  0  0  0  0  0  0  0  0  0
  186.9240  177.4700  139.2560 C   0  0  0  0  0  2  0  0  0  0  0  0
  187.0230  177.2910  143.7040 O   0  0  0  0  0  0  0  0  0  0  0  0
  189.7790  176.7090  142.5490 C   0  0  0  0  0  2  0  0  0  0  0  0
  185.9760  178.6190  139.3120 C   0  0  0  0  0  3  0  0  0  0  0  0
  187.6390  178.3410  145.7910 C   0  0  2  0  0  3  0  0  0  0  0  0
  184.2660  178.8140  141.2700 C   0  0  0  0  0  0  0  0  0  0  0  0
  185.0470  179.6480  145.6110 O   0  0  0  0  0  1  0  0  0  0  0  0
  188.6560  175.7100  142.8290 C   0  0  0  0  0  2  0  0  0  0  0  0
  189.8460  177.5640  146.5730 N   0  0  0  0  0  2  0  0  0  0  0  0
  191.4330  176.2220  145.5100 O   0  0  0  0  0  0  0  0  0  0  0  0
  191.0790  176.8380  146.5540 C   0  0  0  0  0  0  0  0  0  0  0  0
  194.4070  176.7740  151.1010 F   0  0  0  0  0  0  0  0  0  0  0  0
  191.9260  177.8900  148.6530 C   0  0  0  0  0  3  0  0  0  0  0  0
  192.7570  177.8760  149.7790 C   0  0  0  0  0  3  0  0  0  0  0  0
  192.8030  175.7350  147.9840 C   0  0  0  0  0  3  0  0  0  0  0  0
  191.9450  176.8200  147.7460 C   0  0  0  0  0  0  0  0  0  0  0  0
  193.6310  175.7210  149.1110 C   0  0  0  0  0  3  0  0  0  0  0  0
  193.6090  176.7920  150.0070 C   0  0  0  0  0  0  0  0  0  0  0  0
  188.9870  179.6750  138.0110 O   0  0  0  0  0  0  0  0  0  0  0  0
  189.1150  178.4590  138.3220 C   0  0  0  0  0  0  0  0  0  0  0  0
  193.2480  175.1240  135.7320 C   0  0  0  0  0  3  0  0  0  0  0  0
  191.1760  177.0970  138.0370 N   0  0  0  0  0  0  0  0  0  0  0  0
  191.7070  176.4500  136.9910 C   0  0  0  0  0  0  0  0  0  0  0  0
  190.9180  176.6000  135.8950 C   0  0  0  0  0  0  0  0  0  0  0  0
  190.0390  177.6290  137.5130 C   0  0  0  0  0  0  0  0  0  0  0  0
  192.8910  175.7180  136.9570 C   0  0  0  0  0  3  0  0  0  0  0  0
  192.4250  175.2770  134.5940 C   0  0  0  0  0  3  0  0  0  0  0  0
  191.2370  176.0270  134.6670 C   0  0  0  0  0  3  0  0  0  0  0  0
  189.8470  177.3480  136.1950 N   0  0  0  0  0  2  0  0  0  0  0  0
  182.8620  178.3330  141.0310 C   0  0  0  0  0  2  0  0  0  0  0  0
  182.1820  179.0160  139.8510 C   0  0  2  0  0  3  0  0  0  0  0  0
  180.1080  178.6330  139.4240 C   0  0  0  0  0  2  0  0  0  0  0  0
  180.8610  179.6240  140.2890 C   0  0  0  0  0  2  0  0  0  0  0  0
  181.4240  178.0060  139.0050 C   0  0  1  0  0  3  0  0  0  0  0  0
  181.6550  178.1830  137.4970 C   0  0  0  0  0  2  0  0  0  0  0  0
  182.0530  175.9300  137.7540 O   0  0  0  0  0  1  0  0  0  0  0  0
  182.1010  176.9460  136.8530 N   0  0  0  0  0  0  0  0  0  0  0  0
  183.3740  177.1040  136.3550 O   0  0  0  0  0  0  0  0  0  0  0  0
  184.2790  176.2750  137.0610 C   0  0  0  0  0  2  0  0  0  0  0  0
  186.0080  176.7590  135.4000 C   0  0  0  0  0  1  0  0  0  0  0  0
  185.3380  175.6240  136.1560 C   0  0  2  0  0  0  0  0  0  0  0  0
  184.7340  174.6500  135.1280 C   0  0  0  0  0  2  0  0  0  0  0  0
  183.6840  173.9180  135.6890 O   0  0  0  0  0  1  0  0  0  0  0  0
  186.3660  174.9790  136.9860 N   0  0  0  0  0  2  0  0  0  0  0  0
  188.9730  173.8840  137.0220 O   0  0  0  0  0  1  0  0  0  0  0  0
  187.6040  174.1220  136.0550 P   0  0  0  0  0  0  0  0  0  0  0  0
  187.9980  174.9040  134.8200 O   0  0  0  0  0  0  0  0  0  0  0  0
  186.9950  172.6160  135.5850 O   0  0  0  0  0  1  0  0  0  0  0  0
  1 18  1  0  0  0  0
  1 22  1  1  0  0  0
  4 10  2  0  0  0  0
  5  6  1  0  0  0  0
  6 11  1  0  0  0  0
  7  3  1  1  0  0  0
  7 18  1  0  0  0  0
  8 19  2  0  0  0  0
  9 21  1  6  0  0  0
  9 13  1  0  0  0  0
 10 12  2  0  0  0  0
 11  7  1  0  0  0  0
 11 20  1  1  0  0  0
 12 16  1  0  0  0  0
 13  1  1  0  0  0  0
 14 17  1  0  0  0  0
 14  4  1  0  0  0  0
 15  9  1  0  0  0  0
 15  7  1  0  0  0  0
 16 21  1  0  0  0  0
 17  8  2  0  0  0  0
 18  2  1  1  0  0  0
 19  5  1  0  0  0  0
 23 24  2  0  0  0  0
 24 22  1  0  0  0  0
 24 29  1  0  0  0  0
 26 27  1  0  0  0  0
 27 31  2  0  0  0  0
 28 30  2  0  0  0  0
 29 28  1  0  0  0  0
 29 26  2  0  0  0  0
 30 31  1  0  0  0  0
 31 25  1  0  0  0  0
 32 33  2  0  0  0  0
 33  4  1  0  0  0  0
 34 39  1  0  0  0  0
 36 35  1  0  0  0  0
 37 42  1  0  0  0  0
 37 36  1  0  0  0  0
 38 35  2  0  0  0  0
 38 33  1  0  0  0  0
 39 36  2  0  0  0  0
 40 41  1  0  0  0  0
 40 34  2  0  0  0  0
 41 37  2  0  0  0  0
 42 38  1  0  0  0  0
 43 19  1  0  0  0  0
 44 46  1  0  0  0  0
 44 43  1  1  0  0  0
 45 46  1  0  0  0  0
 47 48  1  6  0  0  0
 47 45  1  0  0  0  0
 47 44  1  0  0  0  0
 50 48  1  0  0  0  0
 50 49  1  0  0  0  0
 51 50  1  0  0  0  0
 51 52  1  0  0  0  0
 54 53  1  6  0  0  0
 54 57  1  0  0  0  0
 54 52  1  0  0  0  0
 55 56  1  0  0  0  0
 55 54  1  0  0  0  0
 59 57  1  0  0  0  0
 59 58  1  0  0  0  0
 60 59  2  0  0  0  0
 61 59  1  0  0  0  0
M  END
>  <MODEL>
2

>  <REMARK>
 VINA RESULT:      -6.6      3.232      7.763
  Name = 
  14 active torsions:
  status: ('A' for Active; 'I' for Inactive)
    1  A    between atoms: N_1  and  C_2
    2  A    between atoms: C_4  and  C_53
    3  A    between atoms: C_4  and  N_57
    4  A    between atoms: C_9  and  C_49
    5  A    between atoms: C_12  and  C_17
    6  A    between atoms: C_12  and  O_40
    7  A    between atoms: C_14  and  C_55
    8  A    between atoms: C_15  and  C_42
    9  A    between atoms: C_16  and  C_17
   10  A    between atoms: C_17  and  N_30
   11  A    between atoms: N_30  and  P_32
   12  A    between atoms: C_36  and  C_55
   13  A    between atoms: O_40  and  N_57
   14  A    between atoms: C_49  and  C_52
                            x       y       z     vdW  Elec       q    Type
                         _______ _______ _______ _____ _____    ______ ____

>  <TORSDO>
F 14

$$$$
=
 OpenBabel10222416073D

 61 66  0  0  1  0  0  0  0  0999 V2000
  188.8850  177.4630  145.4550 C   0  0  1  0  0  3  0  0  0  0  0  0
  187.2610  178.1620  147.1060 O   0  0  0  0  0  1  0  0  0  0  0  0
  185.6900  176.8710  145.5010 F   0  0  0  0  0  0  0  0  0  0  0  0
  188.3480  177.8670  139.4420 C   0  0  0  0  0  0  0  0  0  0  0  0
  184.6840  179.4360  142.4740 C   0  0  0  0  0  2  0  0  0  0  0  0
  184.6190  178.5650  143.5650 O   0  0  0  0  0  0  0  0  0  0  0  0
  186.4890  177.8020  144.8460 C   0  0  2  0  0  0  0  0  0  0  0  0
  185.1360  178.6300  140.2510 C   0  0  0  0  0  0  0  0  0  0  0  0
  187.7880  176.0610  143.9870 C   0  0  1  0  0  3  0  0  0  0  0  0
  188.8120  177.8820  140.6650 C   0  0  0  0  0  0  0  0  0  0  0  0
  185.6210  178.9930  144.4400 C   0  0  2  0  0  3  0  0  0  0  0  0
  189.2780  177.9020  141.8830 C   0  0  0  0  0  3  0  0  0  0  0  0
  188.5270  176.1270  145.2010 O   0  0  0  0  0  0  0  0  0  0  0  0
  186.9470  177.3900  139.2250 C   0  0  0  0  0  2  0  0  0  0  0  0
  187.0300  177.2260  143.6740 O   0  0  0  0  0  0  0  0  0  0  0  0
  189.7940  176.6580  142.5310 C   0  0  0  0  0  2  0  0  0  0  0  0
  185.9920  178.5330  139.2740 C   0  0  0  0  0  3  0  0  0  0  0  0
  187.6310  178.2860  145.7600 C   0  0  2  0  0  3  0  0  0  0  0  0
  184.2730  178.7240  141.2240 C   0  0  0  0  0  0  0  0  0  0  0  0
  185.0320  179.5760  145.5650 O   0  0  0  0  0  1  0  0  0  0  0  0
  188.6770  175.6520  142.8100 C   0  0  0  0  0  2  0  0  0  0  0  0
  189.8400  177.5260  146.5530 N   0  0  0  0  0  2  0  0  0  0  0  0
  191.4360  176.1810  145.5050 O   0  0  0  0  0  0  0  0  0  0  0  0
  191.0760  176.8030  146.5430 C   0  0  0  0  0  0  0  0  0  0  0  0
  194.3850  176.7760  151.1040 F   0  0  0  0  0  0  0  0  0  0  0  0
  191.9410  177.8880  148.6180 C   0  0  0  0  0  3  0  0  0  0  0  0
  192.7670  177.8830  149.7470 C   0  0  0  0  0  3  0  0  0  0  0  0
  192.7670  175.6950  148.0080 C   0  0  0  0  0  3  0  0  0  0  0  0
  191.9370  176.7950  147.7390 C   0  0  0  0  0  0  0  0  0  0  0  0
  193.5900  175.6900  149.1390 C   0  0  0  0  0  3  0  0  0  0  0  0
  193.5920  176.7850  150.0060 C   0  0  0  0  0  0  0  0  0  0  0  0
  188.9880  179.6000  137.9700 O   0  0  0  0  0  0  0  0  0  0  0  0
  189.1360  178.3900  138.2960 C   0  0  0  0  0  0  0  0  0  0  0  0
  192.3570  175.0990  134.5940 C   0  0  0  0  0  3  0  0  0  0  0  0
  189.7940  177.1500  136.2430 N   0  0  0  0  0  0  0  0  0  0  0  0
  190.8830  176.4450  135.9100 C   0  0  0  0  0  0  0  0  0  0  0  0
  191.7740  176.4430  136.9370 C   0  0  0  0  0  0  0  0  0  0  0  0
  190.0830  177.5680  137.5050 C   0  0  0  0  0  0  0  0  0  0  0  0
  191.1310  175.7800  134.7120 C   0  0  0  0  0  3  0  0  0  0  0  0
  193.2850  175.1010  135.6590 C   0  0  0  0  0  3  0  0  0  0  0  0
  192.9960  175.7820  136.8570 C   0  0  0  0  0  3  0  0  0  0  0  0
  191.2920  177.1500  137.9680 N   0  0  0  0  0  2  0  0  0  0  0  0
  182.8730  178.2330  140.9820 C   0  0  0  0  0  2  0  0  0  0  0  0
  182.0030  179.2360  140.2330 C   0  0  2  0  0  3  0  0  0  0  0  0
  179.9160  178.8260  139.9020 C   0  0  0  0  0  2  0  0  0  0  0  0
  180.7190  179.4900  141.0040 C   0  0  0  0  0  2  0  0  0  0  0  0
  181.2000  178.5470  139.1420 C   0  0  1  0  0  3  0  0  0  0  0  0
  181.2170  179.3040  137.8060 C   0  0  0  0  0  2  0  0  0  0  0  0
  180.3720  177.5350  136.5990 O   0  0  0  0  0  1  0  0  0  0  0  0
  181.4090  178.4110  136.6630 N   0  0  0  0  0  0  0  0  0  0  0  0
  182.6080  177.7470  136.7760 O   0  0  0  0  0  0  0  0  0  0  0  0
  182.5230  176.4780  136.1530 C   0  0  0  0  0  2  0  0  0  0  0  0
  183.5200  175.8230  138.2890 C   0  0  0  0  0  1  0  0  0  0  0  0
  183.3950  175.4090  136.8320 C   0  0  2  0  0  0  0  0  0  0  0  0
  184.8100  175.3180  136.2340 C   0  0  0  0  0  2  0  0  0  0  0  0
  185.4170  176.5760  136.1890 O   0  0  0  0  0  1  0  0  0  0  0  0
  182.7000  174.1130  136.8000 N   0  0  0  0  0  2  0  0  0  0  0  0
  184.4930  172.5240  135.2980 O   0  0  0  0  0  0  0  0  0  0  0  0
  183.7880  172.7170  136.8240 P   0  0  0  0  0  0  0  0  0  0  0  0
  183.0460  171.4510  137.1930 O   0  0  0  0  0  1  0  0  0  0  0  0
  185.0090  172.9920  137.9610 O   0  0  0  0  0  1  0  0  0  0  0  0
  1 18  1  0  0  0  0
  1 22  1  1  0  0  0
  4 10  2  0  0  0  0
  5  6  1  0  0  0  0
  6 11  1  0  0  0  0
  7  3  1  1  0  0  0
  7 18  1  0  0  0  0
  8 19  2  0  0  0  0
  9 21  1  6  0  0  0
  9 13  1  0  0  0  0
 10 12  2  0  0  0  0
 11  7  1  0  0  0  0
 11 20  1  1  0  0  0
 12 16  1  0  0  0  0
 13  1  1  0  0  0  0
 14 17  1  0  0  0  0
 14  4  1  0  0  0  0
 15  9  1  0  0  0  0
 15  7  1  0  0  0  0
 16 21  1  0  0  0  0
 17  8  2  0  0  0  0
 18  2  1  1  0  0  0
 19  5  1  0  0  0  0
 23 24  2  0  0  0  0
 24 22  1  0  0  0  0
 24 29  1  0  0  0  0
 26 27  1  0  0  0  0
 27 31  2  0  0  0  0
 28 30  2  0  0  0  0
 29 28  1  0  0  0  0
 29 26  2  0  0  0  0
 30 31  1  0  0  0  0
 31 25  1  0  0  0  0
 32 33  2  0  0  0  0
 33  4  1  0  0  0  0
 34 39  2  0  0  0  0
 34 40  1  0  0  0  0
 35 38  2  0  0  0  0
 36 35  1  0  0  0  0
 36 37  2  0  0  0  0
 37 42  1  0  0  0  0
 38 42  1  0  0  0  0
 38 33  1  0  0  0  0
 39 36  1  0  0  0  0
 40 41  2  0  0  0  0
 41 37  1  0  0  0  0
 43 19  1  0  0  0  0
 44 43  1  1  0  0  0
 44 46  1  0  0  0  0
 45 46  1  0  0  0  0
 47 48  1  6  0  0  0
 47 45  1  0  0  0  0
 47 44  1  0  0  0  0
 49 50  1  0  0  0  0
 50 51  1  0  0  0  0
 50 48  1  0  0  0  0
 52 51  1  0  0  0  0
 52 54  1  0  0  0  0
 54 53  1  1  0  0  0
 55 54  1  0  0  0  0
 56 55  1  0  0  0  0
 57 59  1  0  0  0  0
 57 54  1  0  0  0  0
 58 59  2  0  0  0  0
 59 60  1  0  0  0  0
 59 61  1  0  0  0  0
M  END
>  <MODEL>
3

>  <REMARK>
 VINA RESULT:      -6.5      3.135      7.666
  Name = 
  14 active torsions:
  status: ('A' for Active; 'I' for Inactive)
    1  A    between atoms: N_1  and  C_2
    2  A    between atoms: C_4  and  C_53
    3  A    between atoms: C_4  and  N_57
    4  A    between atoms: C_9  and  C_49
    5  A    between atoms: C_12  and  C_17
    6  A    between atoms: C_12  and  O_40
    7  A    between atoms: C_14  and  C_55
    8  A    between atoms: C_15  and  C_42
    9  A    between atoms: C_16  and  C_17
   10  A    between atoms: C_17  and  N_30
   11  A    between atoms: N_30  and  P_32
   12  A    between atoms: C_36  and  C_55
   13  A    between atoms: O_40  and  N_57
   14  A    between atoms: C_49  and  C_52
                            x       y       z     vdW  Elec       q    Type
                         _______ _______ _______ _____ _____    ______ ____

>  <TORSDO>
F 14

$$$$
=
 OpenBabel10222416073D

 61 66  0  0  1  0  0  0  0  0999 V2000
  192.2380  173.8700  136.9660 C   0  0  1  0  0  3  0  0  0  0  0  0
  191.2970  172.4360  135.2600 O   0  0  0  0  0  1  0  0  0  0  0  0
  190.1660  174.6690  134.5940 F   0  0  0  0  0  0  0  0  0  0  0  0
  189.2510  177.8510  140.4070 C   0  0  0  0  0  0  0  0  0  0  0  0
  186.8620  175.1050  136.9680 C   0  0  0  0  0  2  0  0  0  0  0  0
  187.7030  174.9660  135.8610 O   0  0  0  0  0  0  0  0  0  0  0  0
  190.0170  174.3670  135.9430 C   0  0  2  0  0  0  0  0  0  0  0  0
  186.7510  177.1650  138.2080 C   0  0  0  0  0  0  0  0  0  0  0  0
  191.5760  176.0240  136.4720 C   0  0  1  0  0  3  0  0  0  0  0  0
  190.0730  176.9270  139.9830 C   0  0  0  0  0  0  0  0  0  0  0  0
  188.5740  173.9240  136.1880 C   0  0  2  0  0  3  0  0  0  0  0  0
  190.8930  176.0020  139.5650 C   0  0  0  0  0  3  0  0  0  0  0  0
  192.5740  175.0350  136.2540 O   0  0  0  0  0  0  0  0  0  0  0  0
  188.3650  178.5200  139.4060 C   0  0  0  0  0  2  0  0  0  0  0  0
  190.2660  175.5210  136.7200 O   0  0  0  0  0  0  0  0  0  0  0  0
  192.1950  176.3600  138.9220 C   0  0  0  0  0  2  0  0  0  0  0  0
  187.0610  177.8040  139.3010 C   0  0  0  0  0  3  0  0  0  0  0  0
  190.9800  173.2400  136.3630 C   0  0  2  0  0  3  0  0  0  0  0  0
  186.4370  176.5330  137.1130 C   0  0  0  0  0  0  0  0  0  0  0  0
  188.2670  172.8050  135.4100 O   0  0  0  0  0  1  0  0  0  0  0  0
  191.9960  177.0180  137.5570 C   0  0  0  0  0  2  0  0  0  0  0  0
  193.3550  172.9360  136.9570 N   0  0  0  0  0  2  0  0  0  0  0  0
  194.7060  174.2290  138.3550 O   0  0  0  0  0  0  0  0  0  0  0  0
  194.5930  173.2080  137.6210 C   0  0  0  0  0  0  0  0  0  0  0  0
  198.9530  169.6930  136.9900 F   0  0  0  0  0  0  0  0  0  0  0  0
  197.0490  172.7760  137.5030 C   0  0  0  0  0  3  0  0  0  0  0  0
  198.1310  171.9040  137.3400 C   0  0  0  0  0  3  0  0  0  0  0  0
  195.5180  170.9160  137.2590 C   0  0  0  0  0  3  0  0  0  0  0  0
  195.7350  172.2890  137.4610 C   0  0  0  0  0  0  0  0  0  0  0  0
  196.6000  170.0450  137.1000 C   0  0  0  0  0  3  0  0  0  0  0  0
  197.9060  170.5390  137.1390 C   0  0  0  0  0  0  0  0  0  0  0  0
  190.1650  178.3950  142.5170 O   0  0  0  0  0  0  0  0  0  0  0  0
  189.1150  178.1800  141.8500 C   0  0  0  0  0  0  0  0  0  0  0  0
  183.6530  178.8280  144.0080 C   0  0  0  0  0  3  0  0  0  0  0  0
  186.6920  178.7280  141.9450 N   0  0  0  0  0  0  0  0  0  0  0  0
  185.7740  178.6490  142.9170 C   0  0  0  0  0  0  0  0  0  0  0  0
  186.3350  178.1610  144.0560 C   0  0  0  0  0  0  0  0  0  0  0  0
  187.8150  178.2630  142.5560 C   0  0  0  0  0  0  0  0  0  0  0  0
  184.4280  179.0000  142.8460 C   0  0  0  0  0  3  0  0  0  0  0  0
  184.2360  178.3180  145.1900 C   0  0  0  0  0  3  0  0  0  0  0  0
  185.6010  177.9760  145.2240 C   0  0  0  0  0  3  0  0  0  0  0  0
  187.6350  177.9070  143.8570 N   0  0  0  0  0  2  0  0  0  0  0  0
  185.5480  177.2290  136.1200 C   0  0  0  0  0  2  0  0  0  0  0  0
  184.1120  176.7170  136.1320 C   0  0  2  0  0  3  0  0  0  0  0  0
  182.5820  177.8070  137.1830 C   0  0  0  0  0  2  0  0  0  0  0  0
  183.1550  177.8420  135.7790 C   0  0  0  0  0  2  0  0  0  0  0  0
  183.5560  176.7030  137.5470 C   0  0  1  0  0  3  0  0  0  0  0  0
  182.8060  175.4070  137.8910 C   0  0  0  0  0  2  0  0  0  0  0  0
  180.7010  174.9850  138.7200 O   0  0  0  0  0  1  0  0  0  0  0  0
  181.3650  175.5220  137.6630 N   0  0  0  0  0  0  0  0  0  0  0  0
  181.0190  174.8910  136.4910 O   0  0  0  0  0  0  0  0  0  0  0  0
  181.9440  173.8580  136.2030 C   0  0  0  0  0  2  0  0  0  0  0  0
  180.0300  172.7720  135.1360 C   0  0  0  0  0  1  0  0  0  0  0  0
  181.2760  172.4950  135.9610 C   0  0  2  0  0  0  0  0  0  0  0  0
  180.8460  171.7940  137.2620 C   0  0  0  0  0  2  0  0  0  0  0  0
  179.4960  172.0290  137.5350 O   0  0  0  0  0  1  0  0  0  0  0  0
  182.1640  171.6480  135.1480 N   0  0  0  0  0  2  0  0  0  0  0  0
  183.7220  169.6370  136.3800 O   0  0  0  0  0  1  0  0  0  0  0  0
  183.7040  171.2680  135.9330 P   0  0  0  0  0  0  0  0  0  0  0  0
  183.9180  172.1240  137.1620 O   0  0  0  0  0  1  0  0  0  0  0  0
  184.9620  171.5510  134.8380 O   0  0  0  0  0  0  0  0  0  0  0  0
  1 22  1  6  0  0  0
  4 33  1  0  0  0  0
  5 19  1  0  0  0  0
  6 11  1  0  0  0  0
  6  5  1  0  0  0  0
  7  3  1  6  0  0  0
  7 11  1  0  0  0  0
  7 18  1  0  0  0  0
  7 15  1  0  0  0  0
  8 17  2  0  0  0  0
  9 15  1  0  0  0  0
  9 21  1  1  0  0  0
 10  4  2  0  0  0  0
 11 20  1  6  0  0  0
 12 10  2  0  0  0  0
 13  9  1  0  0  0  0
 13  1  1  0  0  0  0
 14  4  1  0  0  0  0
 16 12  1  0  0  0  0
 17 14  1  0  0  0  0
 18  2  1  6  0  0  0
 18  1  1  0  0  0  0
 19  8  2  0  0  0  0
 21 16  1  0  0  0  0
 22 24  1  0  0  0  0
 24 23  2  0  0  0  0
 25 31  1  0  0  0  0
 27 26  2  0  0  0  0
 28 29  2  0  0  0  0
 29 26  1  0  0  0  0
 29 24  1  0  0  0  0
 30 31  2  0  0  0  0
 30 28  1  0  0  0  0
 31 27  1  0  0  0  0
 33 32  2  0  0  0  0
 33 38  1  0  0  0  0
 34 40  1  0  0  0  0
 35 38  2  0  0  0  0
 35 36  1  0  0  0  0
 36 37  2  0  0  0  0
 37 41  1  0  0  0  0
 38 42  1  0  0  0  0
 39 36  1  0  0  0  0
 39 34  2  0  0  0  0
 40 41  2  0  0  0  0
 42 37  1  0  0  0  0
 43 19  1  0  0  0  0
 44 43  1  1  0  0  0
 44 47  1  0  0  0  0
 45 47  1  0  0  0  0
 46 44  1  0  0  0  0
 46 45  1  0  0  0  0
 47 48  1  6  0  0  0
 50 48  1  0  0  0  0
 50 49  1  0  0  0  0
 51 50  1  0  0  0  0
 52 51  1  0  0  0  0
 54 53  1  6  0  0  0
 54 52  1  0  0  0  0
 54 55  1  0  0  0  0
 55 56  1  0  0  0  0
 57 59  1  0  0  0  0
 57 54  1  0  0  0  0
 59 58  1  0  0  0  0
 59 60  1  0  0  0  0
 61 59  2  0  0  0  0
M  END
>  <MODEL>
4

>  <REMARK>
 VINA RESULT:      -5.7      2.659      4.003
  Name = 
  14 active torsions:
  status: ('A' for Active; 'I' for Inactive)
    1  A    between atoms: N_1  and  C_2
    2  A    between atoms: C_4  and  C_53
    3  A    between atoms: C_4  and  N_57
    4  A    between atoms: C_9  and  C_49
    5  A    between atoms: C_12  and  C_17
    6  A    between atoms: C_12  and  O_40
    7  A    between atoms: C_14  and  C_55
    8  A    between atoms: C_15  and  C_42
    9  A    between atoms: C_16  and  C_17
   10  A    between atoms: C_17  and  N_30
   11  A    between atoms: N_30  and  P_32
   12  A    between atoms: C_36  and  C_55
   13  A    between atoms: O_40  and  N_57
   14  A    between atoms: C_49  and  C_52
                            x       y       z     vdW  Elec       q    Type
                         _______ _______ _______ _____ _____    ______ ____

>  <TORSDO>
F 14

$$$$
