=
 OpenBabel10222416443D

 45 50  0  0  1  0  0  0  0  0999 V2000
  183.3580  178.5640  143.9520 C   0  0  2  0  0  3  0  0  0  0  0  0
  184.1210  178.2920  142.6620 C   0  0  0  0  0  2  0  0  0  0  0  0
  185.1310  179.3940  142.3960 C   0  0  0  0  0  2  0  0  0  0  0  0
  185.3990  179.3960  140.0340 O   0  0  0  0  0  0  0  0  0  0  0  0
  185.8910  179.0910  141.1540 C   0  0  0  0  0  0  0  0  0  0  0  0
  187.1810  178.4860  141.2410 N   0  0  0  0  0  2  0  0  0  0  0  0
  187.9710  178.2060  140.0520 C   0  0  0  0  0  2  0  0  0  0  0  0
  191.4680  177.4330  139.3170 C   0  0  0  0  0  3  0  0  0  0  0  0
  189.2510  177.5340  140.4350 C   0  0  0  0  0  0  0  0  0  0  0  0
  190.7650  176.5340  143.5930 F   0  0  0  0  0  0  0  0  0  0  0  0
  192.3140  177.4680  140.3440 C   0  0  0  0  0  3  0  0  0  0  0  0
  189.5710  177.5110  141.7300 C   0  0  0  0  0  3  0  0  0  0  0  0
  190.1080  176.8260  139.4140 C   0  0  1  0  0  3  0  0  0  0  0  0
  192.0130  176.9920  141.7090 C   0  0  0  0  0  3  0  0  0  0  0  0
  190.8140  176.9560  142.3070 C   0  0  0  0  0  0  0  0  0  0  0  0
  188.9610  175.6090  137.7190 O   0  0  0  0  0  0  0  0  0  0  0  0
  189.4400  177.8320  137.1770 N   0  0  0  0  0  2  0  0  0  0  0  0
  189.4780  176.7060  138.0600 C   0  0  0  0  0  0  0  0  0  0  0  0
  188.7780  177.7930  135.8810 C   0  0  0  0  0  2  0  0  0  0  0  0
  187.3670  178.3360  136.0000 C   0  0  0  0  0  1  0  0  0  0  0  0
  182.2240  179.3770  143.6780 O   0  0  0  0  0  0  0  0  0  0  0  0
  180.9610  178.8380  143.4020 C   0  0  0  0  0  0  0  0  0  0  0  0
  180.2120  178.4590  144.3430 O   0  0  0  0  0  0  0  0  0  0  0  0
  180.5350  179.7670  141.2020 C   0  0  0  0  0  2  0  0  0  0  0  0
  180.5060  178.7160  142.0070 C   0  0  0  0  0  0  0  0  0  0  0  0
  179.9920  177.4170  141.4720 C   0  0  0  0  0  2  0  0  0  0  0  0
  181.5360  176.4150  138.1150 N   0  0  0  0  0  4  0  0  0  0  0  0
  184.0330  176.9730  137.7460 S   0  0  0  0  0  1  0  0  0  0  0  0
  181.9760  175.2860  137.2700 C   0  0  0  0  0  2  0  0  0  0  0  0
  182.2970  175.9540  139.7230 N   0  0  0  0  0  0  0  0  0  0  0  0
  180.0960  177.3760  140.0200 N   0  0  0  0  0  0  0  0  0  0  0  0
  181.1580  176.6850  139.3640 C   0  0  0  0  0  0  0  0  0  0  0  0
  182.7450  175.7940  138.2580 C   0  0  2  0  0  0  0  0  0  0  0  0
  184.2610  179.2960  144.9260 C   0  0  0  0  0  2  0  0  0  0  0  0
  184.5740  178.4150  146.1220 C   0  0  0  0  0  2  0  0  0  0  0  0
  186.7190  178.2880  147.4010 C   0  0  0  0  0  3  0  0  0  0  0  0
  186.0370  178.1420  146.1880 C   0  0  0  0  0  0  0  0  0  0  0  0
  188.1030  177.4730  145.1120 C   0  0  0  0  0  3  0  0  0  0  0  0
  186.7340  177.7380  145.0420 C   0  0  0  0  0  3  0  0  0  0  0  0
  188.0920  178.0260  147.4690 C   0  0  0  0  0  3  0  0  0  0  0  0
  188.7880  177.6140  146.3290 C   0  0  0  0  0  0  0  0  0  0  0  0
  190.1880  177.3370  146.4260 N   0  0  0  0  0  2  0  0  0  0  0  0
  192.0430  175.9080  146.9570 C   0  0  0  0  0  2  0  0  0  0  0  0
  191.9780  176.9720  147.8760 O   0  0  0  0  0  0  0  0  0  0  0  0
  190.7510  176.4460  147.4300 C   0  0  1  0  0  3  0  0  0  0  0  0
  1  2  1  6  0  0  0
  1 34  1  0  0  0  0
  3  2  1  0  0  0  0
  4  5  2  0  0  0  0
  5  6  1  0  0  0  0
  5  3  1  0  0  0  0
  7  9  1  0  0  0  0
  7  6  1  0  0  0  0
  8 13  1  0  0  0  0
  8 11  2  0  0  0  0
  9 12  2  0  0  0  0
 11 14  1  0  0  0  0
 12 15  1  0  0  0  0
 13 18  1  6  0  0  0
 13  9  1  0  0  0  0
 14 15  2  0  0  0  0
 15 10  1  0  0  0  0
 16 18  2  0  0  0  0
 17 18  1  0  0  0  0
 19 20  1  0  0  0  0
 19 17  1  0  0  0  0
 21  1  1  0  0  0  0
 22 21  1  0  0  0  0
 22 23  2  0  0  0  0
 24 25  2  0  0  0  0
 25 22  1  0  0  0  0
 26 25  1  0  0  0  0
 27 33  1  0  0  0  0
 27 32  1  0  0  0  0
 27 30  1  0  0  0  0
 29 27  1  0  0  0  0
 29 33  1  0  0  0  0
 31 26  1  0  0  0  0
 32 30  1  0  0  0  0
 32 31  2  0  0  0  0
 33 28  1  6  0  0  0
 33 30  1  0  0  0  0
 34 35  1  0  0  0  0
 35 37  1  0  0  0  0
 36 40  1  0  0  0  0
 37 36  2  0  0  0  0
 38 41  1  0  0  0  0
 39 38  2  0  0  0  0
 39 37  1  0  0  0  0
 41 42  1  0  0  0  0
 41 40  2  0  0  0  0
 43 45  1  0  0  0  0
 43 44  1  0  0  0  0
 45 42  1  6  0  0  0
 45 44  1  0  0  0  0
M  END
>  <MODEL>
1

>  <REMARK>
 VINA RESULT:      -8.5      0.000      0.000
  Name = 
  17 active torsions:
  status: ('A' for Active; 'I' for Inactive)
    1  A    between atoms: C_3  and  C_21
    2  A    between atoms: C_4  and  C_22
    3  A    between atoms: C_4  and  O_24
    4  A    between atoms: C_4  and  C_44
    5  A    between atoms: C_9  and  C_13
    6  A    between atoms: C_13  and  C_44
    7  A    between atoms: C_15  and  N_25
    8  A    between atoms: C_15  and  C_34
    9  A    between atoms: C_16  and  O_24
   10  A    between atoms: C_16  and  C_34
   11  A    between atoms: C_17  and  N_29
   12  A    between atoms: N_20  and  C_43
   13  A    between atoms: N_20  and  C_45
   14  A    between atoms: C_21  and  N_32
   15  A    between atoms: C_22  and  C_35
   16  A    between atoms: C_30  and  C_35
   17  A    between atoms: C_36  and  C_42
                            x       y       z     vdW  Elec       q    Type
                         _______ _______ _______ _____ _____    ______ ____

>  <TORSDO>
F 17

$$$$
=
 OpenBabel10222416443D

 45 50  0  0  1  0  0  0  0  0999 V2000
  183.4540  178.5750  143.9410 C   0  0  2  0  0  3  0  0  0  0  0  0
  184.2440  178.2180  142.6890 C   0  0  0  0  0  2  0  0  0  0  0  0
  185.1490  179.3670  142.2810 C   0  0  0  0  0  2  0  0  0  0  0  0
  185.3620  179.1540  139.9240 O   0  0  0  0  0  0  0  0  0  0  0  0
  185.9020  179.0030  141.0530 C   0  0  0  0  0  0  0  0  0  0  0  0
  187.2400  178.5160  141.1590 N   0  0  0  0  0  2  0  0  0  0  0  0
  188.0240  178.1820  139.9800 C   0  0  0  0  0  2  0  0  0  0  0  0
  191.5260  177.3930  139.2880 C   0  0  0  0  0  3  0  0  0  0  0  0
  189.3000  177.5160  140.3850 C   0  0  0  0  0  0  0  0  0  0  0  0
  190.7870  176.5710  143.5730 F   0  0  0  0  0  0  0  0  0  0  0  0
  192.3630  177.4460  140.3210 C   0  0  0  0  0  3  0  0  0  0  0  0
  189.6090  177.5160  141.6830 C   0  0  0  0  0  3  0  0  0  0  0  0
  190.1640  176.7890  139.3840 C   0  0  1  0  0  3  0  0  0  0  0  0
  192.0500  176.9950  141.6920 C   0  0  0  0  0  3  0  0  0  0  0  0
  190.8460  176.9700  142.2800 C   0  0  0  0  0  0  0  0  0  0  0  0
  188.8200  175.6440  137.7870 O   0  0  0  0  0  0  0  0  0  0  0  0
  189.7530  177.6480  137.0270 N   0  0  0  0  0  2  0  0  0  0  0  0
  189.5460  176.6450  138.0280 C   0  0  0  0  0  0  0  0  0  0  0  0
  189.1190  177.5960  135.7180 C   0  0  0  0  0  2  0  0  0  0  0  0
  189.9650  176.7770  134.7610 C   0  0  0  0  0  1  0  0  0  0  0  0
  182.3550  179.4080  143.5960 O   0  0  0  0  0  0  0  0  0  0  0  0
  181.0740  178.8990  143.3470 C   0  0  0  0  0  0  0  0  0  0  0  0
  180.3180  178.5810  144.3050 O   0  0  0  0  0  0  0  0  0  0  0  0
  179.5050  178.0490  141.7030 C   0  0  0  0  0  2  0  0  0  0  0  0
  180.6080  178.7360  141.9600 C   0  0  0  0  0  0  0  0  0  0  0  0
  181.3690  179.3240  140.8130 C   0  0  0  0  0  2  0  0  0  0  0  0
  180.1680  181.0320  137.6050 N   0  0  0  0  0  4  0  0  0  0  0  0
  179.6920  183.5700  137.7200 S   0  0  0  0  0  1  0  0  0  0  0  0
  180.5500  181.4730  136.2480 C   0  0  0  0  0  2  0  0  0  0  0  0
  181.5880  181.6670  138.5820 N   0  0  0  0  0  0  0  0  0  0  0  0
  180.5020  179.5190  139.6600 N   0  0  0  0  0  0  0  0  0  0  0  0
  180.7090  180.5870  138.7380 C   0  0  0  0  0  0  0  0  0  0  0  0
  180.8310  182.2000  137.3510 C   0  0  2  0  0  0  0  0  0  0  0  0
  184.3520  179.3250  144.9060 C   0  0  0  0  0  2  0  0  0  0  0  0
  184.6580  178.4670  146.1200 C   0  0  0  0  0  2  0  0  0  0  0  0
  186.7900  178.2920  147.4160 C   0  0  0  0  0  3  0  0  0  0  0  0
  186.1180  178.1830  146.1930 C   0  0  0  0  0  0  0  0  0  0  0  0
  188.1900  177.5300  145.1190 C   0  0  0  0  0  3  0  0  0  0  0  0
  186.8230  177.8050  145.0440 C   0  0  0  0  0  3  0  0  0  0  0  0
  188.1590  178.0190  147.4900 C   0  0  0  0  0  3  0  0  0  0  0  0
  188.8640  177.6340  146.3460 C   0  0  0  0  0  0  0  0  0  0  0  0
  190.2620  177.3450  146.4480 N   0  0  0  0  0  2  0  0  0  0  0  0
  192.1040  175.8820  146.9250 C   0  0  0  0  0  2  0  0  0  0  0  0
  192.0240  176.8880  147.9060 O   0  0  0  0  0  0  0  0  0  0  0  0
  190.8050  176.3940  147.4060 C   0  0  1  0  0  3  0  0  0  0  0  0
  1  2  1  6  0  0  0
  1 34  1  0  0  0  0
  3  2  1  0  0  0  0
  4  5  2  0  0  0  0
  5  6  1  0  0  0  0
  5  3  1  0  0  0  0
  7  9  1  0  0  0  0
  7  6  1  0  0  0  0
  8 13  1  0  0  0  0
  8 11  2  0  0  0  0
  9 12  2  0  0  0  0
 11 14  1  0  0  0  0
 12 15  1  0  0  0  0
 13 18  1  6  0  0  0
 13  9  1  0  0  0  0
 14 15  2  0  0  0  0
 15 10  1  0  0  0  0
 16 18  2  0  0  0  0
 17 18  1  0  0  0  0
 19 17  1  0  0  0  0
 20 19  1  0  0  0  0
 21  1  1  0  0  0  0
 22 21  1  0  0  0  0
 22 23  2  0  0  0  0
 24 25  2  0  0  0  0
 25 22  1  0  0  0  0
 26 25  1  0  0  0  0
 27 30  1  0  0  0  0
 27 32  1  0  0  0  0
 29 33  1  0  0  0  0
 29 27  1  0  0  0  0
 30 32  1  0  0  0  0
 31 26  1  0  0  0  0
 32 31  2  0  0  0  0
 33 27  1  0  0  0  0
 33 28  1  1  0  0  0
 33 30  1  0  0  0  0
 34 35  1  0  0  0  0
 35 37  1  0  0  0  0
 36 40  1  0  0  0  0
 37 36  2  0  0  0  0
 38 41  1  0  0  0  0
 39 38  2  0  0  0  0
 39 37  1  0  0  0  0
 41 42  1  0  0  0  0
 41 40  2  0  0  0  0
 43 45  1  0  0  0  0
 43 44  1  0  0  0  0
 45 42  1  6  0  0  0
 45 44  1  0  0  0  0
M  END
>  <MODEL>
2

>  <REMARK>
 VINA RESULT:      -8.4      1.946      2.355
  Name = 
  17 active torsions:
  status: ('A' for Active; 'I' for Inactive)
    1  A    between atoms: C_3  and  C_21
    2  A    between atoms: C_4  and  C_22
    3  A    between atoms: C_4  and  O_24
    4  A    between atoms: C_4  and  C_44
    5  A    between atoms: C_9  and  C_13
    6  A    between atoms: C_13  and  C_44
    7  A    between atoms: C_15  and  N_25
    8  A    between atoms: C_15  and  C_34
    9  A    between atoms: C_16  and  O_24
   10  A    between atoms: C_16  and  C_34
   11  A    between atoms: C_17  and  N_29
   12  A    between atoms: N_20  and  C_43
   13  A    between atoms: N_20  and  C_45
   14  A    between atoms: C_21  and  N_32
   15  A    between atoms: C_22  and  C_35
   16  A    between atoms: C_30  and  C_35
   17  A    between atoms: C_36  and  C_42
                            x       y       z     vdW  Elec       q    Type
                         _______ _______ _______ _____ _____    ______ ____

>  <TORSDO>
F 17

$$$$
=
 OpenBabel10222416443D

 45 50  0  0  1  0  0  0  0  0999 V2000
  183.0030  178.6410  143.4760 C   0  0  2  0  0  3  0  0  0  0  0  0
  183.5380  178.5510  142.0530 C   0  0  0  0  0  2  0  0  0  0  0  0
  184.9450  179.1140  141.9730 C   0  0  0  0  0  2  0  0  0  0  0  0
  184.7740  179.5940  139.6520 O   0  0  0  0  0  0  0  0  0  0  0  0
  185.4370  179.0440  140.5730 C   0  0  0  0  0  0  0  0  0  0  0  0
  186.6690  178.3830  140.2850 N   0  0  0  0  0  2  0  0  0  0  0  0
  187.2030  178.3240  138.9330 C   0  0  0  0  0  2  0  0  0  0  0  0
  189.8990  176.7360  137.0430 C   0  0  0  0  0  3  0  0  0  0  0  0
  188.4520  177.5020  138.9120 C   0  0  0  0  0  0  0  0  0  0  0  0
  191.1430  176.8840  141.2870 F   0  0  0  0  0  0  0  0  0  0  0  0
  191.1190  176.8100  137.5700 C   0  0  0  0  0  3  0  0  0  0  0  0
  189.3230  177.6800  139.9070 C   0  0  0  0  0  3  0  0  0  0  0  0
  188.6840  176.4450  137.8600 C   0  0  1  0  0  3  0  0  0  0  0  0
  191.4320  176.6910  139.0080 C   0  0  0  0  0  3  0  0  0  0  0  0
  190.6380  177.0170  140.0380 C   0  0  0  0  0  0  0  0  0  0  0  0
  187.3290  176.8860  135.9530 O   0  0  0  0  0  0  0  0  0  0  0  0
  186.5900  175.1190  137.2930 N   0  0  0  0  0  2  0  0  0  0  0  0
  187.5000  176.1800  136.9830 C   0  0  0  0  0  0  0  0  0  0  0  0
  185.4660  174.7710  136.4380 C   0  0  0  0  0  2  0  0  0  0  0  0
  184.2190  175.5050  136.8930 C   0  0  0  0  0  1  0  0  0  0  0  0
  181.7700  179.3510  143.4830 O   0  0  0  0  0  0  0  0  0  0  0  0
  180.5370  178.7200  143.2810 C   0  0  0  0  0  0  0  0  0  0  0  0
  180.0040  178.0540  144.2110 O   0  0  0  0  0  0  0  0  0  0  0  0
  179.7080  177.7680  141.2090 C   0  0  0  0  0  2  0  0  0  0  0  0
  179.8590  178.8350  141.9790 C   0  0  0  0  0  0  0  0  0  0  0  0
  179.3410  180.1510  141.4900 C   0  0  0  0  0  2  0  0  0  0  0  0
  180.7450  181.9640  138.4250 N   0  0  0  0  0  4  0  0  0  0  0  0
  180.6220  180.7280  136.1580 S   0  0  0  0  0  1  0  0  0  0  0  0
  180.5490  183.0830  137.4810 C   0  0  0  0  0  2  0  0  0  0  0  0
  179.0570  181.2390  138.4490 N   0  0  0  0  0  0  0  0  0  0  0  0
  180.3530  180.8510  140.7120 N   0  0  0  0  0  0  0  0  0  0  0  0
  180.1020  181.2930  139.3790 C   0  0  0  0  0  0  0  0  0  0  0  0
  179.9050  181.9030  137.3480 C   0  0  2  0  0  0  0  0  0  0  0  0
  184.0000  179.3850  144.3430 C   0  0  0  0  0  2  0  0  0  0  0  0
  184.1370  178.7050  145.6940 C   0  0  0  0  0  2  0  0  0  0  0  0
  186.2170  177.5480  144.9280 C   0  0  0  0  0  3  0  0  0  0  0  0
  185.5480  178.2810  145.9140 C   0  0  0  0  0  0  0  0  0  0  0  0
  187.5340  178.2210  147.3010 C   0  0  0  0  0  3  0  0  0  0  0  0
  186.2080  178.6130  147.1030 C   0  0  0  0  0  3  0  0  0  0  0  0
  187.5440  177.1530  145.1280 C   0  0  0  0  0  3  0  0  0  0  0  0
  188.2080  177.4900  146.3110 C   0  0  0  0  0  0  0  0  0  0  0  0
  189.5710  177.0890  146.4880 N   0  0  0  0  0  2  0  0  0  0  0  0
  191.7200  176.5090  145.5880 C   0  0  0  0  0  2  0  0  0  0  0  0
  190.7730  176.5970  144.5500 O   0  0  0  0  0  0  0  0  0  0  0  0
  190.6440  177.5210  145.6040 C   0  0  1  0  0  3  0  0  0  0  0  0
  1  2  1  6  0  0  0
  1 21  1  0  0  0  0
  1 34  1  0  0  0  0
  3  2  1  0  0  0  0
  4  5  2  0  0  0  0
  5  3  1  0  0  0  0
  6  5  1  0  0  0  0
  7  6  1  0  0  0  0
  8 11  2  0  0  0  0
  8 13  1  0  0  0  0
  9  7  1  0  0  0  0
  9 12  2  0  0  0  0
 11 14  1  0  0  0  0
 12 15  1  0  0  0  0
 13 18  1  6  0  0  0
 13  9  1  0  0  0  0
 14 15  2  0  0  0  0
 15 10  1  0  0  0  0
 16 18  2  0  0  0  0
 18 17  1  0  0  0  0
 19 20  1  0  0  0  0
 19 17  1  0  0  0  0
 22 21  1  0  0  0  0
 22 23  2  0  0  0  0
 24 25  2  0  0  0  0
 25 22  1  0  0  0  0
 26 25  1  0  0  0  0
 27 30  1  0  0  0  0
 27 32  1  0  0  0  0
 29 27  1  0  0  0  0
 30 32  1  0  0  0  0
 31 26  1  0  0  0  0
 32 31  2  0  0  0  0
 33 28  1  6  0  0  0
 33 29  1  0  0  0  0
 33 27  1  0  0  0  0
 33 30  1  0  0  0  0
 34 35  1  0  0  0  0
 35 37  1  0  0  0  0
 36 40  2  0  0  0  0
 36 37  1  0  0  0  0
 37 39  2  0  0  0  0
 39 38  1  0  0  0  0
 40 41  1  0  0  0  0
 41 42  1  0  0  0  0
 41 38  2  0  0  0  0
 43 45  1  0  0  0  0
 44 43  1  0  0  0  0
 44 45  1  0  0  0  0
 45 42  1  1  0  0  0
M  END
>  <MODEL>
3

>  <REMARK>
 VINA RESULT:      -7.8      2.228      3.068
  Name = 
  17 active torsions:
  status: ('A' for Active; 'I' for Inactive)
    1  A    between atoms: C_3  and  C_21
    2  A    between atoms: C_4  and  C_22
    3  A    between atoms: C_4  and  O_24
    4  A    between atoms: C_4  and  C_44
    5  A    between atoms: C_9  and  C_13
    6  A    between atoms: C_13  and  C_44
    7  A    between atoms: C_15  and  N_25
    8  A    between atoms: C_15  and  C_34
    9  A    between atoms: C_16  and  O_24
   10  A    between atoms: C_16  and  C_34
   11  A    between atoms: C_17  and  N_29
   12  A    between atoms: N_20  and  C_43
   13  A    between atoms: N_20  and  C_45
   14  A    between atoms: C_21  and  N_32
   15  A    between atoms: C_22  and  C_35
   16  A    between atoms: C_30  and  C_35
   17  A    between atoms: C_36  and  C_42
                            x       y       z     vdW  Elec       q    Type
                         _______ _______ _______ _____ _____    ______ ____

>  <TORSDO>
F 17

$$$$
=
 OpenBabel10222416443D

 45 50  0  0  1  0  0  0  0  0999 V2000
  182.9170  179.1280  142.6030 C   0  0  2  0  0  3  0  0  0  0  0  0
  181.4260  178.9700  142.3380 C   0  0  0  0  0  2  0  0  0  0  0  0
  181.1880  178.3250  140.9840 C   0  0  0  0  0  2  0  0  0  0  0  0
  178.9520  179.0350  140.6100 O   0  0  0  0  0  0  0  0  0  0  0  0
  180.1550  179.0890  140.2370 C   0  0  0  0  0  0  0  0  0  0  0  0
  180.5360  179.8990  139.1250 N   0  0  0  0  0  2  0  0  0  0  0  0
  179.5610  180.6890  138.3900 C   0  0  0  0  0  2  0  0  0  0  0  0
  179.9340  182.0640  135.0230 C   0  0  0  0  0  3  0  0  0  0  0  0
  180.2590  181.6140  137.4450 C   0  0  0  0  0  0  0  0  0  0  0  0
  182.0680  184.7540  137.8150 F   0  0  0  0  0  0  0  0  0  0  0  0
  180.1620  183.3730  134.9360 C   0  0  0  0  0  3  0  0  0  0  0  0
  180.6430  182.8010  137.9180 C   0  0  0  0  0  3  0  0  0  0  0  0
  180.6010  181.1950  136.0370 C   0  0  1  0  0  3  0  0  0  0  0  0
  181.0280  184.1460  135.8490 C   0  0  0  0  0  3  0  0  0  0  0  0
  181.2880  183.8790  137.1370 C   0  0  0  0  0  0  0  0  0  0  0  0
  179.2800  179.4130  135.1710 O   0  0  0  0  0  0  0  0  0  0  0  0
  181.3240  178.7580  136.0970 N   0  0  0  0  0  2  0  0  0  0  0  0
  180.3500  179.7470  135.7480 C   0  0  0  0  0  0  0  0  0  0  0  0
  181.1640  177.3480  135.7760 C   0  0  0  0  0  2  0  0  0  0  0  0
  182.0990  176.5100  136.6270 C   0  0  0  0  0  1  0  0  0  0  0  0
  183.6590  178.4240  141.6140 O   0  0  0  0  0  0  0  0  0  0  0  0
  184.6500  179.0370  140.8390 C   0  0  0  0  0  0  0  0  0  0  0  0
  185.6780  179.5210  141.3870 O   0  0  0  0  0  0  0  0  0  0  0  0
  183.7250  180.0510  138.8370 C   0  0  0  0  0  2  0  0  0  0  0  0
  184.4930  179.1150  139.3770 C   0  0  0  0  0  0  0  0  0  0  0  0
  185.1780  178.1410  138.4710 C   0  0  0  0  0  2  0  0  0  0  0  0
  188.7990  177.8420  137.2630 N   0  0  0  0  0  4  0  0  0  0  0  0
  190.3830  176.3270  138.6340 S   0  0  0  0  0  1  0  0  0  0  0  0
  189.6870  177.3060  136.2130 C   0  0  0  0  0  2  0  0  0  0  0  0
  187.7540  176.3710  137.6100 N   0  0  0  0  0  0  0  0  0  0  0  0
  186.4870  178.6360  138.0700 N   0  0  0  0  0  0  0  0  0  0  0  0
  187.5430  177.7520  137.7000 C   0  0  0  0  0  0  0  0  0  0  0  0
  189.2380  176.5480  137.2370 C   0  0  2  0  0  0  0  0  0  0  0  0
  183.2500  178.5520  143.9650 C   0  0  0  0  0  2  0  0  0  0  0  0
  184.1130  179.5220  144.7530 C   0  0  0  0  0  2  0  0  0  0  0  0
  186.1380  178.0950  144.4090 C   0  0  0  0  0  3  0  0  0  0  0  0
  185.3200  178.8250  145.2790 C   0  0  0  0  0  0  0  0  0  0  0  0
  186.7800  178.2520  147.1270 C   0  0  0  0  0  3  0  0  0  0  0  0
  185.6410  178.8980  146.6400 C   0  0  0  0  0  3  0  0  0  0  0  0
  187.2750  177.4440  144.8980 C   0  0  0  0  0  3  0  0  0  0  0  0
  187.6030  177.5230  146.2550 C   0  0  0  0  0  0  0  0  0  0  0  0
  188.7800  176.8630  146.7300 N   0  0  0  0  0  2  0  0  0  0  0  0
  191.0710  176.6220  147.4080 C   0  0  0  0  0  2  0  0  0  0  0  0
  190.9830  176.6130  146.0040 O   0  0  0  0  0  0  0  0  0  0  0  0
  190.1020  177.4720  146.6860 C   0  0  1  0  0  3  0  0  0  0  0  0
  1  2  1  6  0  0  0
  1 34  1  0  0  0  0
  3  2  1  0  0  0  0
  5  4  2  0  0  0  0
  5  3  1  0  0  0  0
  6  5  1  0  0  0  0
  7  6  1  0  0  0  0
  8 13  1  0  0  0  0
  9 12  2  0  0  0  0
  9  7  1  0  0  0  0
 11  8  2  0  0  0  0
 11 14  1  0  0  0  0
 13 18  1  6  0  0  0
 13  9  1  0  0  0  0
 14 15  2  0  0  0  0
 15 10  1  0  0  0  0
 15 12  1  0  0  0  0
 16 18  2  0  0  0  0
 18 17  1  0  0  0  0
 19 17  1  0  0  0  0
 19 20  1  0  0  0  0
 21  1  1  0  0  0  0
 22 23  2  0  0  0  0
 22 21  1  0  0  0  0
 24 25  2  0  0  0  0
 25 22  1  0  0  0  0
 26 25  1  0  0  0  0
 27 30  1  0  0  0  0
 27 32  1  0  0  0  0
 29 33  1  0  0  0  0
 29 27  1  0  0  0  0
 30 32  1  0  0  0  0
 31 26  1  0  0  0  0
 32 31  2  0  0  0  0
 33 27  1  0  0  0  0
 33 30  1  0  0  0  0
 33 28  1  1  0  0  0
 34 35  1  0  0  0  0
 35 37  1  0  0  0  0
 36 40  2  0  0  0  0
 36 37  1  0  0  0  0
 37 39  2  0  0  0  0
 39 38  1  0  0  0  0
 40 41  1  0  0  0  0
 41 42  1  0  0  0  0
 41 38  2  0  0  0  0
 44 45  1  0  0  0  0
 44 43  1  0  0  0  0
 45 42  1  1  0  0  0
 45 43  1  0  0  0  0
M  END
>  <MODEL>
4

>  <REMARK>
 VINA RESULT:      -7.5      3.872      7.316
  Name = 
  17 active torsions:
  status: ('A' for Active; 'I' for Inactive)
    1  A    between atoms: C_3  and  C_21
    2  A    between atoms: C_4  and  C_22
    3  A    between atoms: C_4  and  O_24
    4  A    between atoms: C_4  and  C_44
    5  A    between atoms: C_9  and  C_13
    6  A    between atoms: C_13  and  C_44
    7  A    between atoms: C_15  and  N_25
    8  A    between atoms: C_15  and  C_34
    9  A    between atoms: C_16  and  O_24
   10  A    between atoms: C_16  and  C_34
   11  A    between atoms: C_17  and  N_29
   12  A    between atoms: N_20  and  C_43
   13  A    between atoms: N_20  and  C_45
   14  A    between atoms: C_21  and  N_32
   15  A    between atoms: C_22  and  C_35
   16  A    between atoms: C_30  and  C_35
   17  A    between atoms: C_36  and  C_42
                            x       y       z     vdW  Elec       q    Type
                         _______ _______ _______ _____ _____    ______ ____

>  <TORSDO>
F 17

$$$$
=
 OpenBabel10222416443D

 45 50  0  0  1  0  0  0  0  0999 V2000
  190.1710  176.9440  138.5990 C   0  0  2  0  0  3  0  0  0  0  0  0
  188.8720  176.3720  138.0470 C   0  0  0  0  0  2  0  0  0  0  0  0
  188.4180  177.1540  136.8270 C   0  0  0  0  0  2  0  0  0  0  0  0
  187.2080  179.1990  136.8630 O   0  0  0  0  0  0  0  0  0  0  0  0
  187.2280  177.9760  137.1690 C   0  0  0  0  0  0  0  0  0  0  0  0
  186.1070  177.3680  137.8110 N   0  0  0  0  0  2  0  0  0  0  0  0
  184.9090  178.1300  138.1300 C   0  0  0  0  0  2  0  0  0  0  0  0
  183.3770  178.4240  141.4370 C   0  0  0  0  0  3  0  0  0  0  0  0
  184.9740  178.6170  139.5430 C   0  0  0  0  0  0  0  0  0  0  0  0
  187.6780  179.3740  141.8620 F   0  0  0  0  0  0  0  0  0  0  0  0
  184.1840  178.2650  142.4830 C   0  0  0  0  0  3  0  0  0  0  0  0
  186.1600  178.5850  140.1510 C   0  0  0  0  0  3  0  0  0  0  0  0
  183.7680  179.2110  140.2300 C   0  0  1  0  0  3  0  0  0  0  0  0
  185.5700  178.7660  142.5710 C   0  0  0  0  0  3  0  0  0  0  0  0
  186.4260  178.9600  141.5570 C   0  0  0  0  0  0  0  0  0  0  0  0
  181.7700  178.4880  139.1550 O   0  0  0  0  0  0  0  0  0  0  0  0
  182.3870  180.6950  138.6950 N   0  0  0  0  0  2  0  0  0  0  0  0
  182.5920  179.4270  139.3280 C   0  0  0  0  0  0  0  0  0  0  0  0
  181.2250  180.9830  137.8690 C   0  0  0  0  0  2  0  0  0  0  0  0
  181.0320  182.4830  137.7460 C   0  0  0  0  0  1  0  0  0  0  0  0
  191.1350  175.9060  138.7310 O   0  0  0  0  0  0  0  0  0  0  0  0
  192.3020  175.8610  137.9590 C   0  0  0  0  0  0  0  0  0  0  0  0
  193.2210  176.7050  138.1440 O   0  0  0  0  0  0  0  0  0  0  0  0
  191.3900  174.2270  136.4130 C   0  0  0  0  0  2  0  0  0  0  0  0
  192.4570  174.8210  136.9270 C   0  0  0  0  0  0  0  0  0  0  0  0
  193.8110  174.4030  136.4480 C   0  0  0  0  0  2  0  0  0  0  0  0
  197.0170  174.1340  138.5220 N   0  0  0  0  0  4  0  0  0  0  0  0
  199.1540  173.3410  137.3020 S   0  0  0  0  0  1  0  0  0  0  0  0
  198.0690  174.8880  139.2340 C   0  0  0  0  0  2  0  0  0  0  0  0
  196.9480  175.0610  136.9370 N   0  0  0  0  0  0  0  0  0  0  0  0
  194.6390  173.9500  137.5570 N   0  0  0  0  0  0  0  0  0  0  0  0
  196.0120  174.3190  137.6680 C   0  0  0  0  0  0  0  0  0  0  0  0
  198.0960  174.6960  137.8970 C   0  0  2  0  0  0  0  0  0  0  0  0
  189.9150  177.5490  139.9650 C   0  0  0  0  0  2  0  0  0  0  0  0
  190.5340  176.6870  141.0500 C   0  0  0  0  0  2  0  0  0  0  0  0
  188.7560  176.3640  142.7790 C   0  0  0  0  0  3  0  0  0  0  0  0
  189.9280  177.0110  142.3720 C   0  0  0  0  0  0  0  0  0  0  0  0
  189.9590  178.2540  144.4530 C   0  0  0  0  0  3  0  0  0  0  0  0
  190.5260  177.9610  143.2100 C   0  0  0  0  0  3  0  0  0  0  0  0
  188.1870  176.6610  144.0220 C   0  0  0  0  0  3  0  0  0  0  0  0
  188.7870  177.6010  144.8640 C   0  0  0  0  0  0  0  0  0  0  0  0
  188.1960  177.8780  146.1380 N   0  0  0  0  0  2  0  0  0  0  0  0
  188.9860  178.0960  148.3950 C   0  0  0  0  0  2  0  0  0  0  0  0
  187.6900  177.5460  148.3910 O   0  0  0  0  0  0  0  0  0  0  0  0
  188.5480  177.1500  147.3490 C   0  0  1  0  0  3  0  0  0  0  0  0
  1  2  1  1  0  0  0
  1 21  1  0  0  0  0
  1 34  1  0  0  0  0
  3  5  1  0  0  0  0
  3  2  1  0  0  0  0
  4  5  2  0  0  0  0
  5  6  1  0  0  0  0
  6  7  1  0  0  0  0
  7  9  1  0  0  0  0
  8 11  2  0  0  0  0
  9 12  2  0  0  0  0
  9 13  1  0  0  0  0
 11 14  1  0  0  0  0
 12 15  1  0  0  0  0
 13 18  1  6  0  0  0
 13  8  1  0  0  0  0
 15 10  1  0  0  0  0
 15 14  2  0  0  0  0
 16 18  2  0  0  0  0
 17 18  1  0  0  0  0
 19 17  1  0  0  0  0
 20 19  1  0  0  0  0
 22 23  2  0  0  0  0
 22 21  1  0  0  0  0
 24 25  2  0  0  0  0
 25 22  1  0  0  0  0
 26 25  1  0  0  0  0
 26 31  1  0  0  0  0
 27 29  1  0  0  0  0
 30 32  1  0  0  0  0
 30 33  1  0  0  0  0
 30 27  1  0  0  0  0
 31 32  2  0  0  0  0
 32 27  1  0  0  0  0
 33 28  1  6  0  0  0
 33 27  1  0  0  0  0
 33 29  1  0  0  0  0
 34 35  1  0  0  0  0
 35 37  1  0  0  0  0
 36 40  1  0  0  0  0
 37 36  2  0  0  0  0
 37 39  1  0  0  0  0
 38 41  1  0  0  0  0
 39 38  2  0  0  0  0
 40 41  2  0  0  0  0
 41 42  1  0  0  0  0
 44 43  1  0  0  0  0
 45 42  1  6  0  0  0
 45 44  1  0  0  0  0
 45 43  1  0  0  0  0
M  END
>  <MODEL>
5

>  <REMARK>
 VINA RESULT:      -7.5      4.236      9.269
  Name = 
  17 active torsions:
  status: ('A' for Active; 'I' for Inactive)
    1  A    between atoms: C_3  and  C_21
    2  A    between atoms: C_4  and  C_22
    3  A    between atoms: C_4  and  O_24
    4  A    between atoms: C_4  and  C_44
    5  A    between atoms: C_9  and  C_13
    6  A    between atoms: C_13  and  C_44
    7  A    between atoms: C_15  and  N_25
    8  A    between atoms: C_15  and  C_34
    9  A    between atoms: C_16  and  O_24
   10  A    between atoms: C_16  and  C_34
   11  A    between atoms: C_17  and  N_29
   12  A    between atoms: N_20  and  C_43
   13  A    between atoms: N_20  and  C_45
   14  A    between atoms: C_21  and  N_32
   15  A    between atoms: C_22  and  C_35
   16  A    between atoms: C_30  and  C_35
   17  A    between atoms: C_36  and  C_42
                            x       y       z     vdW  Elec       q    Type
                         _______ _______ _______ _____ _____    ______ ____

>  <TORSDO>
F 17

$$$$
=
 OpenBabel10222416443D

 45 50  0  0  1  0  0  0  0  0999 V2000
  182.7830  178.0030  141.2620 C   0  0  2  0  0  3  0  0  0  0  0  0
  182.9700  177.5950  139.8070 C   0  0  0  0  0  2  0  0  0  0  0  0
  183.6730  178.6930  139.0290 C   0  0  0  0  0  2  0  0  0  0  0  0
  184.5500  177.1370  137.4620 O   0  0  0  0  0  0  0  0  0  0  0  0
  184.7810  178.1130  138.2270 C   0  0  0  0  0  0  0  0  0  0  0  0
  186.0880  178.6810  138.3060 N   0  0  0  0  0  2  0  0  0  0  0  0
  187.1910  178.1640  137.5100 C   0  0  0  0  0  2  0  0  0  0  0  0
  190.2590  176.2130  137.8910 C   0  0  0  0  0  3  0  0  0  0  0  0
  188.1960  177.5020  138.3980 C   0  0  0  0  0  0  0  0  0  0  0  0
  189.3430  178.0510  141.8110 F   0  0  0  0  0  0  0  0  0  0  0  0
  191.0810  176.5820  138.8710 C   0  0  0  0  0  3  0  0  0  0  0  0
  188.5030  178.1140  139.5430 C   0  0  0  0  0  3  0  0  0  0  0  0
  188.7780  176.1510  138.0630 C   0  0  1  0  0  3  0  0  0  0  0  0
  190.6560  177.0400  140.2090 C   0  0  0  0  0  3  0  0  0  0  0  0
  189.5120  177.6620  140.5250 C   0  0  0  0  0  0  0  0  0  0  0  0
  188.6710  175.5690  135.7570 O   0  0  0  0  0  0  0  0  0  0  0  0
  186.9330  174.7140  137.0650 N   0  0  0  0  0  2  0  0  0  0  0  0
  188.1320  175.4770  136.8920 C   0  0  0  0  0  0  0  0  0  0  0  0
  186.3030  173.9800  135.9780 C   0  0  0  0  0  2  0  0  0  0  0  0
  185.7520  172.6620  136.4890 C   0  0  0  0  0  1  0  0  0  0  0  0
  181.7860  179.0140  141.3540 O   0  0  0  0  0  0  0  0  0  0  0  0
  180.4220  178.7410  141.1980 C   0  0  0  0  0  0  0  0  0  0  0  0
  179.8100  178.0440  142.0530 O   0  0  0  0  0  0  0  0  0  0  0  0
  179.2220  178.4490  139.1090 C   0  0  0  0  0  2  0  0  0  0  0  0
  179.6980  179.2720  140.0310 C   0  0  0  0  0  0  0  0  0  0  0  0
  179.4960  180.7440  139.8490 C   0  0  0  0  0  2  0  0  0  0  0  0
  181.2560  183.2380  137.5390 N   0  0  0  0  0  4  0  0  0  0  0  0
  180.3880  183.4200  135.1110 S   0  0  0  0  0  1  0  0  0  0  0  0
  181.4840  184.6660  137.2440 C   0  0  0  0  0  2  0  0  0  0  0  0
  179.4330  183.2210  137.7580 N   0  0  0  0  0  0  0  0  0  0  0  0
  180.6340  181.3450  139.1690 N   0  0  0  0  0  0  0  0  0  0  0  0
  180.4780  182.4460  138.2750 C   0  0  0  0  0  0  0  0  0  0  0  0
  180.3770  184.0090  136.8320 C   0  0  2  0  0  0  0  0  0  0  0  0
  184.0880  178.5540  141.8030 C   0  0  0  0  0  2  0  0  0  0  0  0
  183.9050  179.0420  143.2290 C   0  0  0  0  0  2  0  0  0  0  0  0
  186.0960  177.8700  143.5140 C   0  0  0  0  0  3  0  0  0  0  0  0
  185.0060  178.5300  144.0920 C   0  0  0  0  0  0  0  0  0  0  0  0
  185.9960  178.2350  146.2850 C   0  0  0  0  0  3  0  0  0  0  0  0
  184.9570  178.7070  145.4800 C   0  0  0  0  0  3  0  0  0  0  0  0
  187.1350  177.3930  144.3200 C   0  0  0  0  0  3  0  0  0  0  0  0
  187.0920  177.5770  145.7050 C   0  0  0  0  0  0  0  0  0  0  0  0
  188.1730  177.0940  146.5090 N   0  0  0  0  0  2  0  0  0  0  0  0
  189.1640  178.1600  148.4190 C   0  0  0  0  0  2  0  0  0  0  0  0
  190.0630  177.2280  147.8700 O   0  0  0  0  0  0  0  0  0  0  0  0
  189.2640  177.9460  146.9610 C   0  0  1  0  0  3  0  0  0  0  0  0
  1  2  1  6  0  0  0
  1 21  1  0  0  0  0
  1 34  1  0  0  0  0
  3  2  1  0  0  0  0
  4  5  2  0  0  0  0
  5  6  1  0  0  0  0
  5  3  1  0  0  0  0
  7  6  1  0  0  0  0
  7  9  1  0  0  0  0
  8 13  1  0  0  0  0
  8 11  2  0  0  0  0
  9 12  2  0  0  0  0
 11 14  1  0  0  0  0
 12 15  1  0  0  0  0
 13 18  1  6  0  0  0
 13  9  1  0  0  0  0
 14 15  2  0  0  0  0
 15 10  1  0  0  0  0
 16 18  2  0  0  0  0
 18 17  1  0  0  0  0
 19 20  1  0  0  0  0
 19 17  1  0  0  0  0
 22 21  1  0  0  0  0
 22 23  2  0  0  0  0
 24 25  2  0  0  0  0
 25 22  1  0  0  0  0
 26 25  1  0  0  0  0
 27 30  1  0  0  0  0
 27 32  1  0  0  0  0
 29 27  1  0  0  0  0
 30 32  1  0  0  0  0
 31 26  1  0  0  0  0
 32 31  2  0  0  0  0
 33 28  1  6  0  0  0
 33 29  1  0  0  0  0
 33 27  1  0  0  0  0
 33 30  1  0  0  0  0
 34 35  1  0  0  0  0
 35 37  1  0  0  0  0
 36 37  2  0  0  0  0
 36 40  1  0  0  0  0
 37 39  1  0  0  0  0
 39 38  2  0  0  0  0
 40 41  2  0  0  0  0
 41 38  1  0  0  0  0
 41 42  1  0  0  0  0
 44 43  1  0  0  0  0
 45 42  1  1  0  0  0
 45 44  1  0  0  0  0
 45 43  1  0  0  0  0
M  END
>  <MODEL>
6

>  <REMARK>
 VINA RESULT:      -7.5      3.092      4.000
  Name = 
  17 active torsions:
  status: ('A' for Active; 'I' for Inactive)
    1  A    between atoms: C_3  and  C_21
    2  A    between atoms: C_4  and  C_22
    3  A    between atoms: C_4  and  O_24
    4  A    between atoms: C_4  and  C_44
    5  A    between atoms: C_9  and  C_13
    6  A    between atoms: C_13  and  C_44
    7  A    between atoms: C_15  and  N_25
    8  A    between atoms: C_15  and  C_34
    9  A    between atoms: C_16  and  O_24
   10  A    between atoms: C_16  and  C_34
   11  A    between atoms: C_17  and  N_29
   12  A    between atoms: N_20  and  C_43
   13  A    between atoms: N_20  and  C_45
   14  A    between atoms: C_21  and  N_32
   15  A    between atoms: C_22  and  C_35
   16  A    between atoms: C_30  and  C_35
   17  A    between atoms: C_36  and  C_42
                            x       y       z     vdW  Elec       q    Type
                         _______ _______ _______ _____ _____    ______ ____

>  <TORSDO>
F 17

$$$$
=
 OpenBabel10222416443D

 45 50  0  0  1  0  0  0  0  0999 V2000
  184.5600  178.9740  142.2000 C   0  0  2  0  0  3  0  0  0  0  0  0
  185.8360  179.0120  141.3680 C   0  0  0  0  0  2  0  0  0  0  0  0
  186.9510  178.2520  142.0640 C   0  0  0  0  0  2  0  0  0  0  0  0
  189.1950  177.6310  141.5920 O   0  0  0  0  0  0  0  0  0  0  0  0
  188.1310  178.1550  141.1650 C   0  0  0  0  0  0  0  0  0  0  0  0
  188.0410  178.6270  139.8220 N   0  0  0  0  0  2  0  0  0  0  0  0
  189.1620  178.5190  138.9000 C   0  0  0  0  0  2  0  0  0  0  0  0
  188.4980  175.3830  137.1410 C   0  0  0  0  0  3  0  0  0  0  0  0
  188.7360  177.8020  137.6590 C   0  0  0  0  0  0  0  0  0  0  0  0
  186.6120  178.6470  134.8230 F   0  0  0  0  0  0  0  0  0  0  0  0
  187.4250  175.3580  136.3540 C   0  0  0  0  0  3  0  0  0  0  0  0
  187.7670  178.3580  136.9290 C   0  0  0  0  0  3  0  0  0  0  0  0
  189.4320  176.5470  137.1930 C   0  0  1  0  0  3  0  0  0  0  0  0
  186.9730  176.4730  135.4970 C   0  0  0  0  0  3  0  0  0  0  0  0
  187.1610  177.7830  135.7090 C   0  0  0  0  0  0  0  0  0  0  0  0
  190.5550  175.6400  139.0860 O   0  0  0  0  0  0  0  0  0  0  0  0
  191.9630  176.4940  137.4280 N   0  0  0  0  0  2  0  0  0  0  0  0
  190.6680  176.2060  137.9660 C   0  0  0  0  0  0  0  0  0  0  0  0
  193.1970  176.1200  138.1030 C   0  0  0  0  0  2  0  0  0  0  0  0
  193.6840  174.7770  137.5910 C   0  0  0  0  0  1  0  0  0  0  0  0
  184.7870  178.2360  143.3940 O   0  0  0  0  0  0  0  0  0  0  0  0
  184.4530  178.7330  144.6600 C   0  0  0  0  0  0  0  0  0  0  0  0
  183.3470  179.3090  144.8470 O   0  0  0  0  0  0  0  0  0  0  0  0
  184.9580  178.2540  146.9850 C   0  0  0  0  0  2  0  0  0  0  0  0
  185.3990  178.5800  145.7790 C   0  0  0  0  0  0  0  0  0  0  0  0
  186.8660  178.8010  145.5880 C   0  0  0  0  0  2  0  0  0  0  0  0
  190.0110  176.6780  146.0950 N   0  0  0  0  0  4  0  0  0  0  0  0
  191.3620  176.0390  143.9860 S   0  0  0  0  0  1  0  0  0  0  0  0
  191.3930  176.6610  146.6150 C   0  0  0  0  0  2  0  0  0  0  0  0
  190.0280  178.2440  145.1340 N   0  0  0  0  0  0  0  0  0  0  0  0
  187.6300  177.6540  146.0570 N   0  0  0  0  0  0  0  0  0  0  0  0
  189.0280  177.5280  145.8030 C   0  0  0  0  0  0  0  0  0  0  0  0
  191.0850  177.1550  145.3960 C   0  0  2  0  0  0  0  0  0  0  0  0
  183.4620  178.2950  141.4060 C   0  0  0  0  0  2  0  0  0  0  0  0
  183.6040  178.6120  139.9280 C   0  0  0  0  0  2  0  0  0  0  0  0
  184.0830  177.1410  137.9630 C   0  0  0  0  0  3  0  0  0  0  0  0
  183.3290  177.3950  139.1140 C   0  0  0  0  0  0  0  0  0  0  0  0
  182.0720  175.3580  138.7340 C   0  0  0  0  0  3  0  0  0  0  0  0
  182.3200  176.5020  139.4950 C   0  0  0  0  0  3  0  0  0  0  0  0
  183.8330  175.9960  137.1990 C   0  0  0  0  0  3  0  0  0  0  0  0
  182.8320  175.0990  137.5820 C   0  0  0  0  0  0  0  0  0  0  0  0
  182.6030  173.9270  136.7940 N   0  0  0  0  0  2  0  0  0  0  0  0
  181.3380  172.4500  135.3860 C   0  0  0  0  0  2  0  0  0  0  0  0
  181.2420  172.0330  136.7260 O   0  0  0  0  0  0  0  0  0  0  0  0
  181.2710  173.4210  136.4960 C   0  0  1  0  0  3  0  0  0  0  0  0
  1  2  1  6  0  0  0
  1 21  1  0  0  0  0
  2  3  1  0  0  0  0
  5  4  2  0  0  0  0
  5  3  1  0  0  0  0
  6  5  1  0  0  0  0
  7  6  1  0  0  0  0
  8 13  1  0  0  0  0
  9  7  1  0  0  0  0
 10 15  1  0  0  0  0
 11  8  2  0  0  0  0
 12  9  2  0  0  0  0
 13  9  1  0  0  0  0
 13 18  1  1  0  0  0
 14 15  2  0  0  0  0
 14 11  1  0  0  0  0
 15 12  1  0  0  0  0
 17 18  1  0  0  0  0
 17 19  1  0  0  0  0
 18 16  2  0  0  0  0
 20 19  1  0  0  0  0
 21 22  1  0  0  0  0
 22 23  2  0  0  0  0
 22 25  1  0  0  0  0
 25 24  2  0  0  0  0
 26 25  1  0  0  0  0
 26 31  1  0  0  0  0
 27 29  1  0  0  0  0
 30 33  1  0  0  0  0
 30 32  1  0  0  0  0
 30 27  1  0  0  0  0
 32 31  2  0  0  0  0
 32 27  1  0  0  0  0
 33 28  1  6  0  0  0
 33 27  1  0  0  0  0
 33 29  1  0  0  0  0
 34  1  1  0  0  0  0
 35 34  1  0  0  0  0
 36 37  1  0  0  0  0
 37 39  2  0  0  0  0
 37 35  1  0  0  0  0
 38 39  1  0  0  0  0
 40 41  1  0  0  0  0
 40 36  2  0  0  0  0
 41 38  2  0  0  0  0
 42 41  1  0  0  0  0
 43 45  1  0  0  0  0
 43 44  1  0  0  0  0
 45 44  1  0  0  0  0
 45 42  1  1  0  0  0
M  END
>  <MODEL>
7

>  <REMARK>
 VINA RESULT:      -7.4      3.137      8.127
  Name = 
  17 active torsions:
  status: ('A' for Active; 'I' for Inactive)
    1  A    between atoms: C_3  and  C_21
    2  A    between atoms: C_4  and  C_22
    3  A    between atoms: C_4  and  O_24
    4  A    between atoms: C_4  and  C_44
    5  A    between atoms: C_9  and  C_13
    6  A    between atoms: C_13  and  C_44
    7  A    between atoms: C_15  and  N_25
    8  A    between atoms: C_15  and  C_34
    9  A    between atoms: C_16  and  O_24
   10  A    between atoms: C_16  and  C_34
   11  A    between atoms: C_17  and  N_29
   12  A    between atoms: N_20  and  C_43
   13  A    between atoms: N_20  and  C_45
   14  A    between atoms: C_21  and  N_32
   15  A    between atoms: C_22  and  C_35
   16  A    between atoms: C_30  and  C_35
   17  A    between atoms: C_36  and  C_42
                            x       y       z     vdW  Elec       q    Type
                         _______ _______ _______ _____ _____    ______ ____

>  <TORSDO>
F 17

$$$$
=
 OpenBabel10222416443D

 45 50  0  0  1  0  0  0  0  0999 V2000
  190.4850  177.2050  138.5870 C   0  0  2  0  0  3  0  0  0  0  0  0
  189.2300  176.6960  137.8900 C   0  0  0  0  0  2  0  0  0  0  0  0
  188.8430  177.6160  136.7460 C   0  0  0  0  0  2  0  0  0  0  0  0
  187.3530  179.4640  136.6370 O   0  0  0  0  0  0  0  0  0  0  0  0
  187.5570  178.2930  137.0570 C   0  0  0  0  0  0  0  0  0  0  0  0
  186.5530  177.6030  137.8010 N   0  0  0  0  0  2  0  0  0  0  0  0
  185.2670  178.2170  138.0950 C   0  0  0  0  0  2  0  0  0  0  0  0
  183.4360  178.3620  141.2560 C   0  0  0  0  0  3  0  0  0  0  0  0
  185.2100  178.6180  139.5350 C   0  0  0  0  0  0  0  0  0  0  0  0
  187.7000  179.1530  142.1380 F   0  0  0  0  0  0  0  0  0  0  0  0
  184.1360  178.1160  142.3610 C   0  0  0  0  0  3  0  0  0  0  0  0
  186.3320  178.5130  140.2480 C   0  0  0  0  0  3  0  0  0  0  0  0
  183.9590  179.2060  140.1420 C   0  0  1  0  0  3  0  0  0  0  0  0
  185.5200  178.5690  142.6090 C   0  0  0  0  0  3  0  0  0  0  0  0
  186.4720  178.7960  141.6930 C   0  0  0  0  0  0  0  0  0  0  0  0
  182.7910  180.6760  138.6770 O   0  0  0  0  0  0  0  0  0  0  0  0
  181.9770  178.4860  138.7220 N   0  0  0  0  0  2  0  0  0  0  0  0
  182.8790  179.5110  139.1500 C   0  0  0  0  0  0  0  0  0  0  0  0
  180.9570  178.7080  137.7090 C   0  0  0  0  0  2  0  0  0  0  0  0
  180.0740  177.4810  137.5800 C   0  0  0  0  0  1  0  0  0  0  0  0
  191.4440  176.1580  138.6760 O   0  0  0  0  0  0  0  0  0  0  0  0
  192.7540  176.2960  138.2030 C   0  0  0  0  0  0  0  0  0  0  0  0
  193.5830  177.0160  138.8250 O   0  0  0  0  0  0  0  0  0  0  0  0
  194.0120  176.1690  136.1320 C   0  0  0  0  0  2  0  0  0  0  0  0
  193.1680  175.5950  136.9760 C   0  0  0  0  0  0  0  0  0  0  0  0
  192.6400  174.2340  136.6460 C   0  0  0  0  0  2  0  0  0  0  0  0
  189.0000  173.8280  135.5330 N   0  0  0  0  0  4  0  0  0  0  0  0
  187.9520  171.4740  135.7420 S   0  0  0  0  0  1  0  0  0  0  0  0
  187.5920  174.1510  135.8430 C   0  0  0  0  0  2  0  0  0  0  0  0
  189.5910  173.2660  137.1780 N   0  0  0  0  0  0  0  0  0  0  0  0
  191.5180  174.3220  135.7210 N   0  0  0  0  0  0  0  0  0  0  0  0
  190.2140  173.8700  136.0790 C   0  0  0  0  0  0  0  0  0  0  0  0
  188.2490  173.1300  136.4360 C   0  0  2  0  0  0  0  0  0  0  0  0
  190.1320  177.6650  139.9880 C   0  0  0  0  0  2  0  0  0  0  0  0
  190.5130  176.6040  141.0040 C   0  0  0  0  0  2  0  0  0  0  0  0
  188.9820  176.3550  142.9660 C   0  0  0  0  0  3  0  0  0  0  0  0
  190.0620  177.0110  142.3640 C   0  0  0  0  0  0  0  0  0  0  0  0
  190.2950  178.4170  144.3250 C   0  0  0  0  0  3  0  0  0  0  0  0
  190.7150  178.0460  143.0450 C   0  0  0  0  0  3  0  0  0  0  0  0
  188.5600  176.7300  144.2460 C   0  0  0  0  0  3  0  0  0  0  0  0
  189.2150  177.7570  144.9310 C   0  0  0  0  0  0  0  0  0  0  0  0
  188.7750  178.1130  146.2460 N   0  0  0  0  0  2  0  0  0  0  0  0
  188.6420  178.0400  148.6420 C   0  0  0  0  0  2  0  0  0  0  0  0
  187.9320  176.9580  148.0880 O   0  0  0  0  0  0  0  0  0  0  0  0
  189.1160  177.3400  147.4310 C   0  0  1  0  0  3  0  0  0  0  0  0
  1  2  1  1  0  0  0
  1 21  1  0  0  0  0
  1 34  1  0  0  0  0
  3  5  1  0  0  0  0
  3  2  1  0  0  0  0
  4  5  2  0  0  0  0
  5  6  1  0  0  0  0
  6  7  1  0  0  0  0
  7  9  1  0  0  0  0
  8 11  2  0  0  0  0
  9 13  1  0  0  0  0
  9 12  2  0  0  0  0
 11 14  1  0  0  0  0
 12 15  1  0  0  0  0
 13 18  1  6  0  0  0
 13  8  1  0  0  0  0
 15 10  1  0  0  0  0
 15 14  2  0  0  0  0
 16 18  2  0  0  0  0
 17 18  1  0  0  0  0
 19 17  1  0  0  0  0
 20 19  1  0  0  0  0
 22 21  1  0  0  0  0
 22 23  2  0  0  0  0
 24 25  2  0  0  0  0
 25 22  1  0  0  0  0
 26 25  1  0  0  0  0
 27 29  1  0  0  0  0
 27 32  1  0  0  0  0
 27 33  1  0  0  0  0
 27 30  1  0  0  0  0
 29 33  1  0  0  0  0
 31 32  2  0  0  0  0
 31 26  1  0  0  0  0
 32 30  1  0  0  0  0
 33 28  1  6  0  0  0
 33 30  1  0  0  0  0
 34 35  1  0  0  0  0
 35 37  1  0  0  0  0
 36 40  1  0  0  0  0
 37 36  2  0  0  0  0
 37 39  1  0  0  0  0
 38 41  1  0  0  0  0
 39 38  2  0  0  0  0
 40 41  2  0  0  0  0
 41 42  1  0  0  0  0
 44 43  1  0  0  0  0
 45 42  1  6  0  0  0
 45 44  1  0  0  0  0
 45 43  1  0  0  0  0
M  END
>  <MODEL>
8

>  <REMARK>
 VINA RESULT:      -7.4      2.909      7.809
  Name = 
  17 active torsions:
  status: ('A' for Active; 'I' for Inactive)
    1  A    between atoms: C_3  and  C_21
    2  A    between atoms: C_4  and  C_22
    3  A    between atoms: C_4  and  O_24
    4  A    between atoms: C_4  and  C_44
    5  A    between atoms: C_9  and  C_13
    6  A    between atoms: C_13  and  C_44
    7  A    between atoms: C_15  and  N_25
    8  A    between atoms: C_15  and  C_34
    9  A    between atoms: C_16  and  O_24
   10  A    between atoms: C_16  and  C_34
   11  A    between atoms: C_17  and  N_29
   12  A    between atoms: N_20  and  C_43
   13  A    between atoms: N_20  and  C_45
   14  A    between atoms: C_21  and  N_32
   15  A    between atoms: C_22  and  C_35
   16  A    between atoms: C_30  and  C_35
   17  A    between atoms: C_36  and  C_42
                            x       y       z     vdW  Elec       q    Type
                         _______ _______ _______ _____ _____    ______ ____

>  <TORSDO>
F 17

$$$$
=
 OpenBabel10222416443D

 45 50  0  0  1  0  0  0  0  0999 V2000
  182.9520  177.9370  141.0320 C   0  0  2  0  0  3  0  0  0  0  0  0
  183.5640  177.8520  139.6390 C   0  0  0  0  0  2  0  0  0  0  0  0
  184.5580  178.9780  139.4210 C   0  0  0  0  0  2  0  0  0  0  0  0
  185.7740  177.9430  137.6620 O   0  0  0  0  0  0  0  0  0  0  0  0
  185.8060  178.4400  138.8200 C   0  0  0  0  0  0  0  0  0  0  0  0
  187.0330  178.5160  139.5450 N   0  0  0  0  0  2  0  0  0  0  0  0
  188.2820  178.0330  138.9780 C   0  0  0  0  0  2  0  0  0  0  0  0
  191.6190  177.2800  140.2690 C   0  0  0  0  0  3  0  0  0  0  0  0
  189.1500  177.4700  140.0580 C   0  0  0  0  0  0  0  0  0  0  0  0
  188.7780  177.0040  143.6510 F   0  0  0  0  0  0  0  0  0  0  0  0
  191.8180  177.4960  141.5680 C   0  0  0  0  0  3  0  0  0  0  0  0
  188.7580  177.6510  141.3200 C   0  0  0  0  0  3  0  0  0  0  0  0
  190.3750  176.6470  139.7390 C   0  0  1  0  0  3  0  0  0  0  0  0
  190.8360  177.2190  142.6350 C   0  0  0  0  0  3  0  0  0  0  0  0
  189.5000  177.2310  142.5290 C   0  0  0  0  0  0  0  0  0  0  0  0
  191.3190  176.9780  137.5790 O   0  0  0  0  0  0  0  0  0  0  0  0
  189.7980  175.2090  137.7240 N   0  0  0  0  0  2  0  0  0  0  0  0
  190.5250  176.3050  138.2890 C   0  0  0  0  0  0  0  0  0  0  0  0
  189.9610  174.7870  136.3400 C   0  0  0  0  0  2  0  0  0  0  0  0
  191.1250  173.8220  136.2230 C   0  0  0  0  0  1  0  0  0  0  0  0
  181.8330  178.8150  141.0120 O   0  0  0  0  0  0  0  0  0  0  0  0
  180.6210  178.4750  140.4000 C   0  0  0  0  0  0  0  0  0  0  0  0
  180.2120  177.2810  140.4170 O   0  0  0  0  0  0  0  0  0  0  0  0
  178.9670  179.1890  138.7740 C   0  0  0  0  0  2  0  0  0  0  0  0
  179.8200  179.5150  139.7340 C   0  0  0  0  0  0  0  0  0  0  0  0
  179.9570  180.9570  140.1100 C   0  0  0  0  0  2  0  0  0  0  0  0
  181.1870  182.9960  137.1120 N   0  0  0  0  0  4  0  0  0  0  0  0
  180.5530  182.1390  134.7570 S   0  0  0  0  0  1  0  0  0  0  0  0
  181.0390  184.2590  136.3610 C   0  0  0  0  0  2  0  0  0  0  0  0
  179.4260  182.5140  137.3160 N   0  0  0  0  0  0  0  0  0  0  0  0
  180.9480  181.6200  139.2730 N   0  0  0  0  0  0  0  0  0  0  0  0
  180.5860  182.2850  138.0650 C   0  0  0  0  0  0  0  0  0  0  0  0
  180.2050  183.2110  136.1850 C   0  0  2  0  0  0  0  0  0  0  0  0
  183.9830  178.4810  142.0020 C   0  0  0  0  0  2  0  0  0  0  0  0
  183.3590  178.6980  143.3690 C   0  0  0  0  0  2  0  0  0  0  0  0
  184.0340  178.6980  145.7780 C   0  0  0  0  0  3  0  0  0  0  0  0
  184.3960  178.5710  144.4320 C   0  0  0  0  0  0  0  0  0  0  0  0
  186.6980  178.1950  145.0910 C   0  0  0  0  0  3  0  0  0  0  0  0
  185.7310  178.3240  144.0900 C   0  0  0  0  0  3  0  0  0  0  0  0
  185.0030  178.5730  146.7780 C   0  0  0  0  0  3  0  0  0  0  0  0
  186.3350  178.3170  146.4410 C   0  0  0  0  0  0  0  0  0  0  0  0
  187.3070  178.1780  147.4820 N   0  0  0  0  0  2  0  0  0  0  0  0
  189.4680  177.8990  148.4910 C   0  0  0  0  0  2  0  0  0  0  0  0
  189.2260  176.8550  147.5790 O   0  0  0  0  0  0  0  0  0  0  0  0
  188.7390  178.1270  147.2270 C   0  0  1  0  0  3  0  0  0  0  0  0
  1  2  1  6  0  0  0
  1 34  1  0  0  0  0
  3  2  1  0  0  0  0
  4  5  2  0  0  0  0
  5  3  1  0  0  0  0
  5  6  1  0  0  0  0
  7  6  1  0  0  0  0
  7  9  1  0  0  0  0
  8 11  2  0  0  0  0
  9 12  2  0  0  0  0
 11 14  1  0  0  0  0
 12 15  1  0  0  0  0
 13 18  1  6  0  0  0
 13  9  1  0  0  0  0
 13  8  1  0  0  0  0
 15 14  2  0  0  0  0
 15 10  1  0  0  0  0
 16 18  2  0  0  0  0
 17 18  1  0  0  0  0
 19 17  1  0  0  0  0
 20 19  1  0  0  0  0
 21  1  1  0  0  0  0
 22 23  2  0  0  0  0
 22 21  1  0  0  0  0
 24 25  2  0  0  0  0
 25 26  1  0  0  0  0
 25 22  1  0  0  0  0
 27 30  1  0  0  0  0
 27 32  1  0  0  0  0
 29 27  1  0  0  0  0
 30 32  1  0  0  0  0
 31 26  1  0  0  0  0
 32 31  2  0  0  0  0
 33 28  1  6  0  0  0
 33 29  1  0  0  0  0
 33 27  1  0  0  0  0
 33 30  1  0  0  0  0
 34 35  1  0  0  0  0
 35 37  1  0  0  0  0
 36 40  1  0  0  0  0
 37 36  2  0  0  0  0
 38 41  1  0  0  0  0
 39 37  1  0  0  0  0
 39 38  2  0  0  0  0
 41 40  2  0  0  0  0
 41 42  1  0  0  0  0
 44 43  1  0  0  0  0
 45 42  1  1  0  0  0
 45 44  1  0  0  0  0
 45 43  1  0  0  0  0
M  END
>  <MODEL>
9

>  <REMARK>
 VINA RESULT:      -7.4      2.927      3.730
  Name = 
  17 active torsions:
  status: ('A' for Active; 'I' for Inactive)
    1  A    between atoms: C_3  and  C_21
    2  A    between atoms: C_4  and  C_22
    3  A    between atoms: C_4  and  O_24
    4  A    between atoms: C_4  and  C_44
    5  A    between atoms: C_9  and  C_13
    6  A    between atoms: C_13  and  C_44
    7  A    between atoms: C_15  and  N_25
    8  A    between atoms: C_15  and  C_34
    9  A    between atoms: C_16  and  O_24
   10  A    between atoms: C_16  and  C_34
   11  A    between atoms: C_17  and  N_29
   12  A    between atoms: N_20  and  C_43
   13  A    between atoms: N_20  and  C_45
   14  A    between atoms: C_21  and  N_32
   15  A    between atoms: C_22  and  C_35
   16  A    between atoms: C_30  and  C_35
   17  A    between atoms: C_36  and  C_42
                            x       y       z     vdW  Elec       q    Type
                         _______ _______ _______ _____ _____    ______ ____

>  <TORSDO>
F 17

$$$$
