=
 OpenBabel10222417563D

 33 37  0  0  1  0  0  0  0  0999 V2000
  184.5740  178.5970  141.0630 C   0  0  0  0  0  3  0  0  0  0  0  0
  186.3750  178.4020  139.4190 C   0  0  0  0  0  0  0  0  0  0  0  0
  185.0190  178.6290  139.7300 C   0  0  0  0  0  3  0  0  0  0  0  0
  185.3230  178.2250  143.5430 C   0  0  2  0  0  3  0  0  0  0  0  0
  188.6400  177.8970  140.1630 O   0  0  0  0  0  1  0  0  0  0  0  0
  186.6750  177.9100  144.0150 N   0  0  0  0  0  0  0  0  0  0  0  0
  188.8970  177.5600  143.1420 N   0  0  0  0  0  2  0  0  0  0  0  0
  187.3000  178.1340  140.4470 C   0  0  0  0  0  0  0  0  0  0  0  0
  186.8290  178.1110  141.7610 C   0  0  0  0  0  0  0  0  0  0  0  0
  185.5130  178.3420  142.0630 C   0  0  0  0  0  0  0  0  0  0  0  0
  187.4990  177.8510  143.0150 C   0  0  0  0  0  0  0  0  0  0  0  0
  189.1910  175.5670  136.9150 C   0  0  0  0  0  3  0  0  0  0  0  0
  186.7980  178.4420  138.0590 N   0  0  0  0  0  0  0  0  0  0  0  0
  187.5640  177.9040  136.9040 C   0  0  1  0  0  0  0  0  0  0  0  0
  190.0200  177.0040  134.7770 Cl  0  0  0  0  0  0  0  0  0  0  0  0
  186.9890  176.5770  136.4090 C   0  0  0  0  0  2  0  0  0  0  0  0
  187.8580  175.4340  136.8560 C   0  0  0  0  0  3  0  0  0  0  0  0
  189.8570  176.8690  136.5490 C   0  0  1  0  0  3  0  0  0  0  0  0
  186.8230  179.0440  136.6890 C   0  0  0  0  0  2  0  0  0  0  0  0
  189.0760  178.0660  137.1040 C   0  0  0  0  0  2  0  0  0  0  0  0
  189.0580  177.5700  145.6150 C   0  0  0  0  0  3  0  0  0  0  0  0
  191.0860  176.7780  146.7080 C   0  0  0  0  0  0  0  0  0  0  0  0
  189.7760  177.3140  146.7880 C   0  0  0  0  0  0  0  0  0  0  0  0
  190.9020  176.7770  144.2790 C   0  0  0  0  0  3  0  0  0  0  0  0
  189.6140  177.3040  144.3570 C   0  0  0  0  0  0  0  0  0  0  0  0
  189.1050  177.6280  148.0820 C   0  0  0  0  0  1  0  0  0  0  0  0
  191.6300  176.5160  145.4420 C   0  0  0  0  0  3  0  0  0  0  0  0
  191.9220  176.4750  147.8950 C   0  0  0  0  0  0  0  0  0  0  0  0
  192.3060  177.5040  148.7500 O   0  0  0  0  0  1  0  0  0  0  0  0
  192.2980  175.3020  148.1530 O   0  0  0  0  0  0  0  0  0  0  0  0
  184.8750  179.5540  144.1410 C   0  0  0  0  0  2  0  0  0  0  0  0
  184.1920  178.8780  146.1850 O   0  0  0  0  0  1  0  0  0  0  0  0
  183.7240  179.3590  145.0090 N   0  0  0  0  0  2  0  0  0  0  0  0
  1 10  1  0  0  0  0
  2  3  1  0  0  0  0
  2  8  2  0  0  0  0
  3  1  2  0  0  0  0
  4  6  1  0  0  0  0
  4 31  1  1  0  0  0
  5  8  1  0  0  0  0
  7 25  1  0  0  0  0
  8  9  1  0  0  0  0
  9 10  2  0  0  0  0
  9 11  1  0  0  0  0
 10  4  1  0  0  0  0
 11  7  1  0  0  0  0
 11  6  2  0  0  0  0
 13  2  1  0  0  0  0
 14 16  1  6  0  0  0
 14 20  1  0  0  0  0
 14 13  1  0  0  0  0
 16 17  1  0  0  0  0
 17 12  2  0  0  0  0
 18 15  1  6  0  0  0
 18 12  1  0  0  0  0
 18 20  1  0  0  0  0
 19 14  1  0  0  0  0
 19 13  1  0  0  0  0
 21 23  1  0  0  0  0
 22 23  2  0  0  0  0
 22 28  1  0  0  0  0
 23 26  1  0  0  0  0
 24 25  1  0  0  0  0
 24 27  2  0  0  0  0
 25 21  2  0  0  0  0
 27 22  1  0  0  0  0
 28 30  2  0  0  0  0
 28 29  1  0  0  0  0
 31 33  1  0  0  0  0
 33 32  1  0  0  0  0
M  END
>  <MODEL>
1

>  <REMARK>
 VINA RESULT:      -9.1      0.000      0.000
  Name = 
  5 active torsions:
  status: ('A' for Active; 'I' for Inactive)
    1  A    between atoms: C_1  and  C_8
    2  A    between atoms: N_3  and  C_11
    3  A    between atoms: N_13  and  C_18
    4  A    between atoms: C_18  and  C_19
    5  A    between atoms: C_22  and  N_25
                            x       y       z     vdW  Elec       q    Type
                         _______ _______ _______ _____ _____    ______ ____

>  <TORSDO>
F 5

$$$$
=
 OpenBabel10222417563D

 33 37  0  0  1  0  0  0  0  0999 V2000
  188.1780  178.2360  138.1280 C   0  0  0  0  0  3  0  0  0  0  0  0
  185.9810  178.5610  139.1530 C   0  0  0  0  0  0  0  0  0  0  0  0
  186.8080  178.5250  138.0110 C   0  0  0  0  0  3  0  0  0  0  0  0
  190.0940  177.6730  139.8200 C   0  0  2  0  0  3  0  0  0  0  0  0
  185.7330  178.3510  141.5680 O   0  0  0  0  0  1  0  0  0  0  0  0
  189.9720  177.5530  141.2770 N   0  0  0  0  0  0  0  0  0  0  0  0
  188.2950  177.7030  143.0050 N   0  0  0  0  0  2  0  0  0  0  0  0
  186.5260  178.3110  140.4270 C   0  0  0  0  0  0  0  0  0  0  0  0
  187.8900  178.0250  140.5110 C   0  0  0  0  0  0  0  0  0  0  0  0
  188.6900  177.9790  139.4000 C   0  0  0  0  0  0  0  0  0  0  0  0
  188.7440  177.7490  141.6440 C   0  0  0  0  0  0  0  0  0  0  0  0
  182.2330  175.7920  138.4280 C   0  0  0  0  0  3  0  0  0  0  0  0
  184.5950  178.8560  139.0050 N   0  0  0  0  0  0  0  0  0  0  0  0
  183.1810  178.4540  138.7850 C   0  0  1  0  0  0  0  0  0  0  0  0
  180.2870  177.3840  137.4270 Cl  0  0  0  0  0  0  0  0  0  0  0  0
  182.6180  177.6830  139.9790 C   0  0  0  0  0  2  0  0  0  0  0  0
  182.5450  176.2140  139.6630 C   0  0  0  0  0  3  0  0  0  0  0  0
  181.9610  176.7750  137.3190 C   0  0  1  0  0  3  0  0  0  0  0  0
  183.4320  179.7970  138.9500 C   0  0  0  0  0  2  0  0  0  0  0  0
  182.9550  177.9430  137.3580 C   0  0  0  0  0  2  0  0  0  0  0  0
  188.5890  177.5610  145.4620 C   0  0  0  0  0  3  0  0  0  0  0  0
  190.7280  176.8630  146.3960 C   0  0  0  0  0  0  0  0  0  0  0  0
  189.3870  177.2860  146.5770 C   0  0  0  0  0  0  0  0  0  0  0  0
  190.4130  177.0090  143.9850 C   0  0  0  0  0  3  0  0  0  0  0  0
  189.0940  177.4250  144.1630 C   0  0  0  0  0  0  0  0  0  0  0  0
  188.7640  177.4570  147.9220 C   0  0  0  0  0  1  0  0  0  0  0  0
  191.2210  176.7320  145.0900 C   0  0  0  0  0  3  0  0  0  0  0  0
  191.6480  176.5500  147.5170 C   0  0  0  0  0  0  0  0  0  0  0  0
  192.0690  175.2390  147.7200 O   0  0  0  0  0  0  0  0  0  0  0  0
  192.0610  177.4460  148.2990 O   0  0  0  0  0  1  0  0  0  0  0  0
  190.5580  176.3430  139.2390 C   0  0  0  0  0  2  0  0  0  0  0  0
  192.7180  176.6770  138.6710 O   0  0  0  0  0  1  0  0  0  0  0  0
  191.4800  176.5630  138.1360 N   0  0  0  0  0  2  0  0  0  0  0  0
  1 10  1  0  0  0  0
  2  8  2  0  0  0  0
  3  1  2  0  0  0  0
  3  2  1  0  0  0  0
  4 31  1  6  0  0  0
  4  6  1  0  0  0  0
  6 11  2  0  0  0  0
  7 25  1  0  0  0  0
  8  9  1  0  0  0  0
  8  5  1  0  0  0  0
  9 11  1  0  0  0  0
 10  4  1  0  0  0  0
 10  9  2  0  0  0  0
 11  7  1  0  0  0  0
 12 17  2  0  0  0  0
 13  2  1  0  0  0  0
 14 20  1  6  0  0  0
 14 19  1  0  0  0  0
 14 13  1  0  0  0  0
 14 16  1  0  0  0  0
 17 16  1  0  0  0  0
 18 20  1  0  0  0  0
 18 15  1  1  0  0  0
 18 12  1  0  0  0  0
 19 13  1  0  0  0  0
 21 23  1  0  0  0  0
 22 23  2  0  0  0  0
 22 28  1  0  0  0  0
 23 26  1  0  0  0  0
 24 25  1  0  0  0  0
 24 27  2  0  0  0  0
 25 21  2  0  0  0  0
 27 22  1  0  0  0  0
 28 29  2  0  0  0  0
 28 30  1  0  0  0  0
 33 32  1  0  0  0  0
 33 31  1  0  0  0  0
M  END
>  <MODEL>
2

>  <REMARK>
 VINA RESULT:      -8.8      2.875      4.975
  Name = 
  5 active torsions:
  status: ('A' for Active; 'I' for Inactive)
    1  A    between atoms: C_1  and  C_8
    2  A    between atoms: N_3  and  C_11
    3  A    between atoms: N_13  and  C_18
    4  A    between atoms: C_18  and  C_19
    5  A    between atoms: C_22  and  N_25
                            x       y       z     vdW  Elec       q    Type
                         _______ _______ _______ _____ _____    ______ ____

>  <TORSDO>
F 5

$$$$
=
 OpenBabel10222417563D

 33 37  0  0  1  0  0  0  0  0999 V2000
  184.0690  178.9110  145.6030 C   0  0  0  0  0  3  0  0  0  0  0  0
  186.2300  178.0860  144.8080 C   0  0  0  0  0  0  0  0  0  0  0  0
  185.3940  178.5180  145.8580 C   0  0  0  0  0  3  0  0  0  0  0  0
  182.2710  179.2310  143.7280 C   0  0  2  0  0  3  0  0  0  0  0  0
  186.5520  177.6390  142.4340 O   0  0  0  0  0  1  0  0  0  0  0  0
  182.4440  178.9800  142.2930 N   0  0  0  0  0  0  0  0  0  0  0  0
  184.1270  178.2070  140.7460 N   0  0  0  0  0  2  0  0  0  0  0  0
  185.7430  178.0510  143.4870 C   0  0  0  0  0  0  0  0  0  0  0  0
  184.4220  178.4460  143.2650 C   0  0  0  0  0  0  0  0  0  0  0  0
  183.6070  178.8550  144.2880 C   0  0  0  0  0  0  0  0  0  0  0  0
  183.6410  178.5440  142.0530 C   0  0  0  0  0  0  0  0  0  0  0  0
  189.9900  177.4560  142.0320 C   0  0  0  0  0  3  0  0  0  0  0  0
  187.5680  177.6920  145.0950 N   0  0  0  0  0  0  0  0  0  0  0  0
  188.9610  177.3710  144.6860 C   0  0  1  0  0  0  0  0  0  0  0  0
  191.7070  175.8860  143.4130 Cl  0  0  0  0  0  0  0  0  0  0  0  0
  189.7120  178.6120  144.2030 C   0  0  0  0  0  2  0  0  0  0  0  0
  189.8180  178.6050  142.7030 C   0  0  0  0  0  3  0  0  0  0  0  0
  190.0670  176.1380  142.7590 C   0  0  1  0  0  3  0  0  0  0  0  0
  188.6650  177.2820  146.0270 C   0  0  0  0  0  2  0  0  0  0  0  0
  189.0280  176.0650  143.8850 C   0  0  0  0  0  2  0  0  0  0  0  0
  182.7090  179.4320  139.1240 C   0  0  0  0  0  3  0  0  0  0  0  0
  181.9740  178.3360  137.0760 C   0  0  0  0  0  0  0  0  0  0  0  0
  182.0000  179.4760  137.9190 C   0  0  0  0  0  0  0  0  0  0  0  0
  183.3690  177.1550  138.6860 C   0  0  0  0  0  3  0  0  0  0  0  0
  183.3950  178.2760  139.5160 C   0  0  0  0  0  0  0  0  0  0  0  0
  181.3000  180.7490  137.5850 C   0  0  0  0  0  1  0  0  0  0  0  0
  182.6660  177.1860  137.4800 C   0  0  0  0  0  3  0  0  0  0  0  0
  181.2500  178.2900  135.7820 C   0  0  0  0  0  0  0  0  0  0  0  0
  179.9310  177.8500  135.7440 O   0  0  0  0  0  1  0  0  0  0  0  0
  181.8030  178.6400  134.7070 O   0  0  0  0  0  0  0  0  0  0  0  0
  181.1760  178.3210  144.2730 C   0  0  0  0  0  2  0  0  0  0  0  0
  178.9360  178.5430  144.4480 O   0  0  0  0  0  1  0  0  0  0  0  0
  179.9380  178.5200  143.5370 N   0  0  0  0  0  2  0  0  0  0  0  0
  1  3  1  0  0  0  0
  2 13  1  0  0  0  0
  2  3  2  0  0  0  0
  4 31  1  1  0  0  0
  4 10  1  0  0  0  0
  5  8  1  0  0  0  0
  6  4  1  0  0  0  0
  7 11  1  0  0  0  0
  8  2  1  0  0  0  0
  9  8  2  0  0  0  0
  9 10  1  0  0  0  0
 10  1  2  0  0  0  0
 11  6  2  0  0  0  0
 11  9  1  0  0  0  0
 12 17  2  0  0  0  0
 12 18  1  0  0  0  0
 13 19  1  0  0  0  0
 14 20  1  6  0  0  0
 14 13  1  0  0  0  0
 14 19  1  0  0  0  0
 16 14  1  0  0  0  0
 17 16  1  0  0  0  0
 18 15  1  1  0  0  0
 18 20  1  0  0  0  0
 21 25  1  0  0  0  0
 22 27  2  0  0  0  0
 22 23  1  0  0  0  0
 23 21  2  0  0  0  0
 24 25  2  0  0  0  0
 25  7  1  0  0  0  0
 26 23  1  0  0  0  0
 27 24  1  0  0  0  0
 28 22  1  0  0  0  0
 29 28  1  0  0  0  0
 30 28  2  0  0  0  0
 33 31  1  0  0  0  0
 33 32  1  0  0  0  0
M  END
>  <MODEL>
3

>  <REMARK>
 VINA RESULT:      -8.8      4.020      8.817
  Name = 
  5 active torsions:
  status: ('A' for Active; 'I' for Inactive)
    1  A    between atoms: C_1  and  C_8
    2  A    between atoms: N_3  and  C_11
    3  A    between atoms: N_13  and  C_18
    4  A    between atoms: C_18  and  C_19
    5  A    between atoms: C_22  and  N_25
                            x       y       z     vdW  Elec       q    Type
                         _______ _______ _______ _____ _____    ______ ____

>  <TORSDO>
F 5

$$$$
=
 OpenBabel10222417563D

 33 37  0  0  1  0  0  0  0  0999 V2000
  186.5250  178.6290  138.7920 C   0  0  0  0  0  3  0  0  0  0  0  0
  184.4640  178.6630  140.1090 C   0  0  0  0  0  0  0  0  0  0  0  0
  185.1310  178.7830  138.8720 C   0  0  0  0  0  3  0  0  0  0  0  0
  188.6940  178.1630  140.1810 C   0  0  2  0  0  3  0  0  0  0  0  0
  184.5610  178.2810  142.5140 O   0  0  0  0  0  1  0  0  0  0  0  0
  188.7800  177.9410  141.6280 N   0  0  0  0  0  0  0  0  0  0  0  0
  187.3420  177.8120  143.5620 N   0  0  0  0  0  2  0  0  0  0  0  0
  185.1960  178.3930  141.2810 C   0  0  0  0  0  0  0  0  0  0  0  0
  186.5790  178.2430  141.1700 C   0  0  0  0  0  0  0  0  0  0  0  0
  187.2240  178.3490  139.9660 C   0  0  0  0  0  0  0  0  0  0  0  0
  187.5990  177.9880  142.1620 C   0  0  0  0  0  0  0  0  0  0  0  0
  181.2350  179.2310  136.7190 C   0  0  0  0  0  3  0  0  0  0  0  0
  183.0500  178.8230  140.1600 N   0  0  0  0  0  0  0  0  0  0  0  0
  181.7230  179.0180  139.5170 C   0  0  1  0  0  0  0  0  0  0  0  0
  179.0580  180.3120  137.9090 Cl  0  0  0  0  0  0  0  0  0  0  0  0
  181.2890  177.7840  138.7270 C   0  0  0  0  0  2  0  0  0  0  0  0
  181.4630  178.0210  137.2520 C   0  0  0  0  0  3  0  0  0  0  0  0
  180.8100  180.3910  137.5830 C   0  0  1  0  0  3  0  0  0  0  0  0
  181.7460  178.9260  140.8900 C   0  0  0  0  0  2  0  0  0  0  0  0
  181.5950  180.4160  138.9010 C   0  0  0  0  0  2  0  0  0  0  0  0
  188.0250  177.7360  145.9430 C   0  0  0  0  0  3  0  0  0  0  0  0
  190.2710  177.0070  146.5450 C   0  0  0  0  0  0  0  0  0  0  0  0
  188.9860  177.4730  146.9240 C   0  0  0  0  0  0  0  0  0  0  0  0
  189.5740  177.0900  144.2120 C   0  0  0  0  0  3  0  0  0  0  0  0
  188.3110  177.5480  144.5850 C   0  0  0  0  0  0  0  0  0  0  0  0
  188.5920  177.7010  148.3440 C   0  0  0  0  0  1  0  0  0  0  0  0
  190.5430  176.8230  145.1820 C   0  0  0  0  0  3  0  0  0  0  0  0
  191.3520  176.7030  147.5130 C   0  0  0  0  0  0  0  0  0  0  0  0
  191.8440  175.4050  147.6140 O   0  0  0  0  0  0  0  0  0  0  0  0
  191.8400  177.5950  148.2550 O   0  0  0  0  0  1  0  0  0  0  0  0
  189.1990  176.9250  139.4490 C   0  0  0  0  0  2  0  0  0  0  0  0
  191.4420  177.1470  139.6020 O   0  0  0  0  0  1  0  0  0  0  0  0
  190.4060  176.4170  140.0820 N   0  0  0  0  0  2  0  0  0  0  0  0
  1  3  2  0  0  0  0
  1 10  1  0  0  0  0
  2 13  1  0  0  0  0
  2  8  2  0  0  0  0
  3  2  1  0  0  0  0
  4 31  1  6  0  0  0
  4  6  1  0  0  0  0
  6 11  2  0  0  0  0
  7 25  1  0  0  0  0
  8  5  1  0  0  0  0
  9  8  1  0  0  0  0
  9 11  1  0  0  0  0
 10  4  1  0  0  0  0
 10  9  2  0  0  0  0
 11  7  1  0  0  0  0
 12 17  2  0  0  0  0
 12 18  1  0  0  0  0
 13 19  1  0  0  0  0
 14 16  1  6  0  0  0
 14 13  1  0  0  0  0
 14 19  1  0  0  0  0
 17 16  1  0  0  0  0
 18 15  1  1  0  0  0
 18 20  1  0  0  0  0
 20 14  1  0  0  0  0
 21 23  1  0  0  0  0
 22 23  2  0  0  0  0
 22 28  1  0  0  0  0
 23 26  1  0  0  0  0
 24 25  1  0  0  0  0
 24 27  2  0  0  0  0
 25 21  2  0  0  0  0
 27 22  1  0  0  0  0
 28 29  2  0  0  0  0
 28 30  1  0  0  0  0
 31 33  1  0  0  0  0
 32 33  1  0  0  0  0
M  END
>  <MODEL>
4

>  <REMARK>
 VINA RESULT:      -8.5      3.187      5.218
  Name = 
  5 active torsions:
  status: ('A' for Active; 'I' for Inactive)
    1  A    between atoms: C_1  and  C_8
    2  A    between atoms: N_3  and  C_11
    3  A    between atoms: N_13  and  C_18
    4  A    between atoms: C_18  and  C_19
    5  A    between atoms: C_22  and  N_25
                            x       y       z     vdW  Elec       q    Type
                         _______ _______ _______ _____ _____    ______ ____

>  <TORSDO>
F 5

$$$$
=
 OpenBabel10222417563D

 33 37  0  0  1  0  0  0  0  0999 V2000
  190.1950  176.2450  136.1700 C   0  0  0  0  0  3  0  0  0  0  0  0
  192.6050  176.2080  136.5870 C   0  0  0  0  0  0  0  0  0  0  0  0
  191.5140  176.1360  135.6970 C   0  0  0  0  0  3  0  0  0  0  0  0
  188.7260  176.5540  138.3140 C   0  0  2  0  0  3  0  0  0  0  0  0
  193.4410  176.4480  138.8640 O   0  0  0  0  0  1  0  0  0  0  0  0
  189.2040  176.6890  139.6950 N   0  0  0  0  0  0  0  0  0  0  0  0
  191.2760  176.7590  140.9300 N   0  0  0  0  0  2  0  0  0  0  0  0
  192.3800  176.3850  137.9660 C   0  0  0  0  0  0  0  0  0  0  0  0
  191.0600  176.4920  138.4060 C   0  0  0  0  0  0  0  0  0  0  0  0
  190.0010  176.4330  137.5390 C   0  0  0  0  0  0  0  0  0  0  0  0
  190.5000  176.6540  139.7280 C   0  0  0  0  0  0  0  0  0  0  0  0
  195.5050  172.5150  136.1520 C   0  0  0  0  0  3  0  0  0  0  0  0
  193.9310  176.0950  136.0800 N   0  0  0  0  0  0  0  0  0  0  0  0
  195.1520  175.3120  135.7510 C   0  0  1  0  0  0  0  0  0  0  0  0
  198.0060  173.5260  135.9310 Cl  0  0  0  0  0  0  0  0  0  0  0  0
  194.9110  174.3440  134.5940 C   0  0  0  0  0  2  0  0  0  0  0  0
  194.7740  172.9380  135.1100 C   0  0  0  0  0  3  0  0  0  0  0  0
  196.4750  173.4380  136.8440 C   0  0  1  0  0  3  0  0  0  0  0  0
  195.1750  176.6580  135.4670 C   0  0  0  0  0  2  0  0  0  0  0  0
  195.8780  174.8400  137.0170 C   0  0  0  0  0  2  0  0  0  0  0  0
  189.4220  176.7500  142.5750 C   0  0  0  0  0  3  0  0  0  0  0  0
  189.8610  177.2870  144.9100 C   0  0  0  0  0  0  0  0  0  0  0  0
  188.9550  176.9230  143.8810 C   0  0  0  0  0  0  0  0  0  0  0  0
  191.6660  177.2880  143.2740 C   0  0  0  0  0  3  0  0  0  0  0  0
  190.7750  176.9300  142.2620 C   0  0  0  0  0  0  0  0  0  0  0  0
  187.4990  176.7100  144.1210 C   0  0  0  0  0  1  0  0  0  0  0  0
  191.2130  177.4640  144.5830 C   0  0  0  0  0  3  0  0  0  0  0  0
  189.4580  177.4940  146.3220 C   0  0  0  0  0  0  0  0  0  0  0  0
  189.9180  176.6240  147.3070 O   0  0  0  0  0  1  0  0  0  0  0  0
  188.7030  178.4430  146.6590 O   0  0  0  0  0  0  0  0  0  0  0  0
  187.9650  177.8130  137.9170 C   0  0  0  0  0  2  0  0  0  0  0  0
  189.0570  179.7620  137.5850 O   0  0  0  0  0  1  0  0  0  0  0  0
  188.5410  178.9810  138.5640 N   0  0  0  0  0  2  0  0  0  0  0  0
  1 10  1  0  0  0  0
  2  8  2  0  0  0  0
  3  1  2  0  0  0  0
  3  2  1  0  0  0  0
  4 31  1  6  0  0  0
  4  6  1  0  0  0  0
  6 11  2  0  0  0  0
  7 25  1  0  0  0  0
  8  9  1  0  0  0  0
  8  5  1  0  0  0  0
  9 11  1  0  0  0  0
 10  4  1  0  0  0  0
 10  9  2  0  0  0  0
 11  7  1  0  0  0  0
 12 18  1  0  0  0  0
 13  2  1  0  0  0  0
 14 16  1  6  0  0  0
 14 13  1  0  0  0  0
 14 20  1  0  0  0  0
 16 17  1  0  0  0  0
 17 12  2  0  0  0  0
 18 15  1  6  0  0  0
 18 20  1  0  0  0  0
 19 14  1  0  0  0  0
 19 13  1  0  0  0  0
 21 23  1  0  0  0  0
 22 28  1  0  0  0  0
 23 26  1  0  0  0  0
 23 22  2  0  0  0  0
 24 27  2  0  0  0  0
 25 21  2  0  0  0  0
 25 24  1  0  0  0  0
 27 22  1  0  0  0  0
 28 30  2  0  0  0  0
 28 29  1  0  0  0  0
 31 33  1  0  0  0  0
 32 33  1  0  0  0  0
M  END
>  <MODEL>
5

>  <REMARK>
 VINA RESULT:      -8.1      4.147      6.269
  Name = 
  5 active torsions:
  status: ('A' for Active; 'I' for Inactive)
    1  A    between atoms: C_1  and  C_8
    2  A    between atoms: N_3  and  C_11
    3  A    between atoms: N_13  and  C_18
    4  A    between atoms: C_18  and  C_19
    5  A    between atoms: C_22  and  N_25
                            x       y       z     vdW  Elec       q    Type
                         _______ _______ _______ _____ _____    ______ ____

>  <TORSDO>
F 5

$$$$
=
 OpenBabel10222417563D

 33 37  0  0  1  0  0  0  0  0999 V2000
  182.6950  178.7320  144.3530 C   0  0  0  0  0  3  0  0  0  0  0  0
  181.9130  179.1770  142.0780 C   0  0  0  0  0  0  0  0  0  0  0  0
  181.6620  179.0670  143.4610 C   0  0  0  0  0  3  0  0  0  0  0  0
  185.2360  178.1330  144.5310 C   0  0  2  0  0  3  0  0  0  0  0  0
  183.4780  179.0370  140.2150 O   0  0  0  0  0  1  0  0  0  0  0  0
  186.1950  178.0320  143.4250 N   0  0  0  0  0  0  0  0  0  0  0  0
  186.2770  178.2900  141.0270 N   0  0  0  0  0  2  0  0  0  0  0  0
  183.2080  178.9450  141.5760 C   0  0  0  0  0  0  0  0  0  0  0  0
  184.2150  178.6160  142.4860 C   0  0  0  0  0  0  0  0  0  0  0  0
  183.9710  178.5210  143.8310 C   0  0  0  0  0  0  0  0  0  0  0  0
  185.6130  178.3040  142.2980 C   0  0  0  0  0  0  0  0  0  0  0  0
  181.5490  179.0450  137.3780 C   0  0  0  0  0  3  0  0  0  0  0  0
  180.8470  179.5180  141.1970 N   0  0  0  0  0  0  0  0  0  0  0  0
  180.2580  179.6630  139.8390 C   0  0  1  0  0  0  0  0  0  0  0  0
  179.5160  180.7040  136.7200 Cl  0  0  0  0  0  0  0  0  0  0  0  0
  180.0180  178.3070  139.1770 C   0  0  0  0  0  2  0  0  0  0  0  0
  181.0660  178.0450  138.1310 C   0  0  0  0  0  3  0  0  0  0  0  0
  181.0670  180.4600  137.5670 C   0  0  1  0  0  3  0  0  0  0  0  0
  179.4610  180.0040  140.9090 C   0  0  0  0  0  2  0  0  0  0  0  0
  180.9200  180.8010  139.0550 C   0  0  0  0  0  2  0  0  0  0  0  0
  188.4610  177.3590  141.7380 C   0  0  0  0  0  3  0  0  0  0  0  0
  190.3760  177.4560  140.2360 C   0  0  0  0  0  0  0  0  0  0  0  0
  189.8080  177.0850  141.4810 C   0  0  0  0  0  0  0  0  0  0  0  0
  188.2180  178.3630  139.5600 C   0  0  0  0  0  3  0  0  0  0  0  0
  187.6590  177.9980  140.7840 C   0  0  0  0  0  0  0  0  0  0  0  0
  190.5840  176.4010  142.5550 C   0  0  0  0  0  1  0  0  0  0  0  0
  189.5620  178.0950  139.2900 C   0  0  0  0  0  3  0  0  0  0  0  0
  191.7920  177.2070  139.8740 C   0  0  0  0  0  0  0  0  0  0  0  0
  192.0950  176.4380  138.7550 O   0  0  0  0  0  0  0  0  0  0  0  0
  192.7380  177.6770  140.5590 O   0  0  0  0  0  1  0  0  0  0  0  0
  185.6850  179.2290  145.4900 C   0  0  0  0  0  2  0  0  0  0  0  0
  185.8350  179.8150  147.6670 O   0  0  0  0  0  1  0  0  0  0  0  0
  185.1950  178.9600  146.8330 N   0  0  0  0  0  2  0  0  0  0  0  0
  2  3  1  0  0  0  0
  3  1  2  0  0  0  0
  4 31  1  1  0  0  0
  5  8  1  0  0  0  0
  6  4  1  0  0  0  0
  7 11  1  0  0  0  0
  8  2  2  0  0  0  0
  8  9  1  0  0  0  0
  9 10  2  0  0  0  0
 10  1  1  0  0  0  0
 10  4  1  0  0  0  0
 11  9  1  0  0  0  0
 11  6  2  0  0  0  0
 12 18  1  0  0  0  0
 12 17  2  0  0  0  0
 13  2  1  0  0  0  0
 14 20  1  6  0  0  0
 14 19  1  0  0  0  0
 14 13  1  0  0  0  0
 16 14  1  0  0  0  0
 17 16  1  0  0  0  0
 18 15  1  6  0  0  0
 18 20  1  0  0  0  0
 19 13  1  0  0  0  0
 22 23  2  0  0  0  0
 23 21  1  0  0  0  0
 23 26  1  0  0  0  0
 24 25  1  0  0  0  0
 25  7  1  0  0  0  0
 25 21  2  0  0  0  0
 27 24  2  0  0  0  0
 27 22  1  0  0  0  0
 28 22  1  0  0  0  0
 28 30  1  0  0  0  0
 29 28  2  0  0  0  0
 31 33  1  0  0  0  0
 33 32  1  0  0  0  0
M  END
>  <MODEL>
6

>  <REMARK>
 VINA RESULT:      -8.0      3.883      6.200
  Name = 
  5 active torsions:
  status: ('A' for Active; 'I' for Inactive)
    1  A    between atoms: C_1  and  C_8
    2  A    between atoms: N_3  and  C_11
    3  A    between atoms: N_13  and  C_18
    4  A    between atoms: C_18  and  C_19
    5  A    between atoms: C_22  and  N_25
                            x       y       z     vdW  Elec       q    Type
                         _______ _______ _______ _____ _____    ______ ____

>  <TORSDO>
F 5

$$$$
=
 OpenBabel10222417563D

 33 37  0  0  1  0  0  0  0  0999 V2000
  187.3590  178.3680  137.8320 C   0  0  0  0  0  3  0  0  0  0  0  0
  184.9590  178.1810  138.2640 C   0  0  0  0  0  0  0  0  0  0  0  0
  186.0360  178.3200  137.3640 C   0  0  0  0  0  3  0  0  0  0  0  0
  188.8570  178.3150  139.9780 C   0  0  2  0  0  3  0  0  0  0  0  0
  184.1580  177.9700  140.5560 O   0  0  0  0  0  1  0  0  0  0  0  0
  188.3990  178.1990  141.3670 N   0  0  0  0  0  0  0  0  0  0  0  0
  186.3480  177.9810  142.6190 N   0  0  0  0  0  2  0  0  0  0  0  0
  185.2040  178.0960  139.6480 C   0  0  0  0  0  0  0  0  0  0  0  0
  186.5290  178.1450  140.0830 C   0  0  0  0  0  0  0  0  0  0  0  0
  187.5750  178.2680  139.2070 C   0  0  0  0  0  0  0  0  0  0  0  0
  187.1060  178.1050  141.4080 C   0  0  0  0  0  0  0  0  0  0  0  0
  180.7870  178.9360  140.3290 C   0  0  0  0  0  3  0  0  0  0  0  0
  183.6270  178.1340  137.7610 N   0  0  0  0  0  0  0  0  0  0  0  0
  182.1540  178.2560  137.9260 C   0  0  1  0  0  0  0  0  0  0  0  0
  178.9310  177.7380  138.7670 Cl  0  0  0  0  0  0  0  0  0  0  0  0
  181.7280  179.7020  138.1710 C   0  0  0  0  0  2  0  0  0  0  0  0
  181.3870  179.9060  139.6220 C   0  0  0  0  0  3  0  0  0  0  0  0
  180.4490  177.6110  139.6960 C   0  0  1  0  0  3  0  0  0  0  0  0
  182.6210  177.9290  136.6730 C   0  0  0  0  0  2  0  0  0  0  0  0
  181.5870  177.1240  138.7900 C   0  0  0  0  0  2  0  0  0  0  0  0
  188.1780  177.5190  144.2240 C   0  0  0  0  0  3  0  0  0  0  0  0
  187.8180  177.8430  146.6120 C   0  0  0  0  0  0  0  0  0  0  0  0
  188.6630  177.4720  145.5350 C   0  0  0  0  0  0  0  0  0  0  0  0
  186.0350  178.2920  145.0130 C   0  0  0  0  0  3  0  0  0  0  0  0
  186.8660  177.9270  143.9540 C   0  0  0  0  0  0  0  0  0  0  0  0
  190.0720  177.0250  145.7270 C   0  0  0  0  0  1  0  0  0  0  0  0
  186.5070  178.2510  146.3270 C   0  0  0  0  0  3  0  0  0  0  0  0
  188.2430  177.8250  148.0320 C   0  0  0  0  0  0  0  0  0  0  0  0
  189.1520  178.7720  148.4940 O   0  0  0  0  0  0  0  0  0  0  0  0
  187.8020  176.9660  148.8400 O   0  0  0  0  0  1  0  0  0  0  0  0
  189.7410  177.1210  139.6360 C   0  0  0  0  0  2  0  0  0  0  0  0
  191.7850  177.5580  140.4940 O   0  0  0  0  0  1  0  0  0  0  0  0
  190.6600  176.8410  140.7290 N   0  0  0  0  0  2  0  0  0  0  0  0
  1 10  1  0  0  0  0
  2  8  2  0  0  0  0
  3  1  2  0  0  0  0
  3  2  1  0  0  0  0
  4 31  1  6  0  0  0
  4  6  1  0  0  0  0
  6 11  2  0  0  0  0
  7 25  1  0  0  0  0
  8  9  1  0  0  0  0
  8  5  1  0  0  0  0
  9 11  1  0  0  0  0
 10  4  1  0  0  0  0
 10  9  2  0  0  0  0
 11  7  1  0  0  0  0
 13 14  1  0  0  0  0
 13  2  1  0  0  0  0
 14 19  1  6  0  0  0
 14 16  1  0  0  0  0
 14 20  1  0  0  0  0
 16 17  1  0  0  0  0
 17 12  2  0  0  0  0
 18 15  1  6  0  0  0
 18 12  1  0  0  0  0
 19 13  1  0  0  0  0
 20 18  1  0  0  0  0
 21 23  1  0  0  0  0
 22 28  1  0  0  0  0
 23 26  1  0  0  0  0
 23 22  2  0  0  0  0
 24 27  2  0  0  0  0
 25 21  2  0  0  0  0
 25 24  1  0  0  0  0
 27 22  1  0  0  0  0
 28 29  2  0  0  0  0
 28 30  1  0  0  0  0
 31 33  1  0  0  0  0
 32 33  1  0  0  0  0
M  END
>  <MODEL>
7

>  <REMARK>
 VINA RESULT:      -7.9      3.345      5.585
  Name = 
  5 active torsions:
  status: ('A' for Active; 'I' for Inactive)
    1  A    between atoms: C_1  and  C_8
    2  A    between atoms: N_3  and  C_11
    3  A    between atoms: N_13  and  C_18
    4  A    between atoms: C_18  and  C_19
    5  A    between atoms: C_22  and  N_25
                            x       y       z     vdW  Elec       q    Type
                         _______ _______ _______ _____ _____    ______ ____

>  <TORSDO>
F 5

$$$$
=
 OpenBabel10222417563D

 33 37  0  0  1  0  0  0  0  0999 V2000
  186.9630  178.4280  138.2730 C   0  0  0  0  0  3  0  0  0  0  0  0
  184.5730  178.3400  138.7860 C   0  0  0  0  0  0  0  0  0  0  0  0
  185.6230  178.4290  137.8490 C   0  0  0  0  0  3  0  0  0  0  0  0
  188.5290  178.3300  140.3670 C   0  0  2  0  0  3  0  0  0  0  0  0
  183.8420  178.1760  141.1050 O   0  0  0  0  0  1  0  0  0  0  0  0
  188.1140  178.2420  141.7720 N   0  0  0  0  0  0  0  0  0  0  0  0
  186.0990  178.1150  143.0940 N   0  0  0  0  0  2  0  0  0  0  0  0
  184.8610  178.2540  140.1620 C   0  0  0  0  0  0  0  0  0  0  0  0
  186.2010  178.2530  140.5520 C   0  0  0  0  0  0  0  0  0  0  0  0
  187.2210  178.3290  139.6400 C   0  0  0  0  0  0  0  0  0  0  0  0
  186.8200  178.2000  141.8570 C   0  0  0  0  0  0  0  0  0  0  0  0
  181.7400  174.8670  137.3220 C   0  0  0  0  0  3  0  0  0  0  0  0
  183.2240  178.3420  138.3290 N   0  0  0  0  0  0  0  0  0  0  0  0
  182.0090  177.6590  137.8120 C   0  0  1  0  0  0  0  0  0  0  0  0
  179.7760  176.0380  135.8760 Cl  0  0  0  0  0  0  0  0  0  0  0  0
  181.3690  176.7610  138.8710 C   0  0  0  0  0  2  0  0  0  0  0  0
  181.6750  175.3170  138.5840 C   0  0  0  0  0  3  0  0  0  0  0  0
  181.5210  175.7950  136.1550 C   0  0  1  0  0  3  0  0  0  0  0  0
  181.9320  179.0210  137.9950 C   0  0  0  0  0  2  0  0  0  0  0  0
  182.2160  177.1430  136.3830 C   0  0  0  0  0  2  0  0  0  0  0  0
  187.9440  177.5420  144.6460 C   0  0  0  0  0  3  0  0  0  0  0  0
  187.6980  177.9490  147.0350 C   0  0  0  0  0  0  0  0  0  0  0  0
  188.4710  177.4860  145.9400 C   0  0  0  0  0  0  0  0  0  0  0  0
  185.9000  178.5050  145.4880 C   0  0  0  0  0  3  0  0  0  0  0  0
  186.6600  178.0490  144.4110 C   0  0  0  0  0  0  0  0  0  0  0  0
  189.8460  176.9310  146.0950 C   0  0  0  0  0  1  0  0  0  0  0  0
  186.4140  178.4550  146.7860 C   0  0  0  0  0  3  0  0  0  0  0  0
  188.1720  177.9290  148.4410 C   0  0  0  0  0  0  0  0  0  0  0  0
  189.3230  178.6270  148.7920 O   0  0  0  0  0  0  0  0  0  0  0  0
  187.5560  177.2900  149.3330 O   0  0  0  0  0  1  0  0  0  0  0  0
  189.3530  177.0990  140.0060 C   0  0  0  0  0  2  0  0  0  0  0  0
  191.4020  177.4890  140.8740 O   0  0  0  0  0  1  0  0  0  0  0  0
  190.7250  177.4780  139.7020 N   0  0  0  0  0  2  0  0  0  0  0  0
  1 10  1  0  0  0  0
  2  8  2  0  0  0  0
  3  1  2  0  0  0  0
  3  2  1  0  0  0  0
  4 31  1  6  0  0  0
  4  6  1  0  0  0  0
  6 11  2  0  0  0  0
  7 25  1  0  0  0  0
  8  9  1  0  0  0  0
  8  5  1  0  0  0  0
  9 11  1  0  0  0  0
 10  4  1  0  0  0  0
 10  9  2  0  0  0  0
 11  7  1  0  0  0  0
 12 17  2  0  0  0  0
 13  2  1  0  0  0  0
 14 20  1  6  0  0  0
 14 19  1  0  0  0  0
 14 13  1  0  0  0  0
 14 16  1  0  0  0  0
 17 16  1  0  0  0  0
 18 15  1  1  0  0  0
 18 20  1  0  0  0  0
 18 12  1  0  0  0  0
 19 13  1  0  0  0  0
 21 23  1  0  0  0  0
 22 28  1  0  0  0  0
 23 26  1  0  0  0  0
 23 22  2  0  0  0  0
 24 27  2  0  0  0  0
 25 21  2  0  0  0  0
 25 24  1  0  0  0  0
 27 22  1  0  0  0  0
 28 29  2  0  0  0  0
 28 30  1  0  0  0  0
 33 31  1  0  0  0  0
 33 32  1  0  0  0  0
M  END
>  <MODEL>
8

>  <REMARK>
 VINA RESULT:      -7.8      3.451      5.181
  Name = 
  5 active torsions:
  status: ('A' for Active; 'I' for Inactive)
    1  A    between atoms: C_1  and  C_8
    2  A    between atoms: N_3  and  C_11
    3  A    between atoms: N_13  and  C_18
    4  A    between atoms: C_18  and  C_19
    5  A    between atoms: C_22  and  N_25
                            x       y       z     vdW  Elec       q    Type
                         _______ _______ _______ _____ _____    ______ ____

>  <TORSDO>
F 5

$$$$
=
 OpenBabel10222417563D

 33 37  0  0  1  0  0  0  0  0999 V2000
  189.6470  176.7770  137.1130 C   0  0  0  0  0  3  0  0  0  0  0  0
  192.0470  176.3850  137.3800 C   0  0  0  0  0  0  0  0  0  0  0  0
  190.9110  176.5210  136.5550 C   0  0  0  0  0  3  0  0  0  0  0  0
  188.3500  177.1430  139.3570 C   0  0  2  0  0  3  0  0  0  0  0  0
  193.0250  176.3590  139.6120 O   0  0  0  0  0  1  0  0  0  0  0  0
  188.9140  177.1210  140.7120 N   0  0  0  0  0  0  0  0  0  0  0  0
  191.0360  176.8250  141.8200 N   0  0  0  0  0  2  0  0  0  0  0  0
  191.9210  176.5000  138.7780 C   0  0  0  0  0  0  0  0  0  0  0  0
  190.6540  176.7570  139.3030 C   0  0  0  0  0  0  0  0  0  0  0  0
  189.5530  176.9000  138.5000 C   0  0  0  0  0  0  0  0  0  0  0  0
  190.1920  176.9070  140.6640 C   0  0  0  0  0  0  0  0  0  0  0  0
  194.3810  172.3690  136.5690 C   0  0  0  0  0  3  0  0  0  0  0  0
  193.3160  176.1260  136.7870 N   0  0  0  0  0  0  0  0  0  0  0  0
  194.3970  175.2070  136.3430 C   0  0  1  0  0  0  0  0  0  0  0  0
  196.9820  173.0450  136.2510 Cl  0  0  0  0  0  0  0  0  0  0  0  0
  193.9630  174.3540  135.1510 C   0  0  0  0  0  2  0  0  0  0  0  0
  193.6610  172.9500  135.5990 C   0  0  0  0  0  3  0  0  0  0  0  0
  195.5050  173.1080  137.2490 C   0  0  1  0  0  3  0  0  0  0  0  0
  194.5910  176.5530  136.1310 C   0  0  0  0  0  2  0  0  0  0  0  0
  195.1170  174.5640  137.5340 C   0  0  0  0  0  2  0  0  0  0  0  0
  191.4210  176.5060  144.2470 C   0  0  0  0  0  3  0  0  0  0  0  0
  189.7770  177.3060  145.8580 C   0  0  0  0  0  0  0  0  0  0  0  0
  191.0090  176.6620  145.5750 C   0  0  0  0  0  0  0  0  0  0  0  0
  189.4240  177.6090  143.4670 C   0  0  0  0  0  3  0  0  0  0  0  0
  190.6350  176.9760  143.1880 C   0  0  0  0  0  0  0  0  0  0  0  0
  191.9100  176.1310  146.6370 C   0  0  0  0  0  1  0  0  0  0  0  0
  189.0010  177.7720  144.7880 C   0  0  0  0  0  3  0  0  0  0  0  0
  189.2590  177.5160  147.2320 C   0  0  0  0  0  0  0  0  0  0  0  0
  188.4760  176.5350  147.8330 O   0  0  0  0  0  0  0  0  0  0  0  0
  189.5090  178.5680  147.8750 O   0  0  0  0  0  1  0  0  0  0  0  0
  187.7520  178.5170  139.0800 C   0  0  0  0  0  2  0  0  0  0  0  0
  186.3410  178.0220  137.3870 O   0  0  0  0  0  1  0  0  0  0  0  0
  186.3570  178.3950  138.6890 N   0  0  0  0  0  2  0  0  0  0  0  0
  1 10  1  0  0  0  0
  2  8  2  0  0  0  0
  3  1  2  0  0  0  0
  3  2  1  0  0  0  0
  4 31  1  6  0  0  0
  4  6  1  0  0  0  0
  7 25  1  0  0  0  0
  8  9  1  0  0  0  0
  8  5  1  0  0  0  0
  9 11  1  0  0  0  0
 10  9  2  0  0  0  0
 10  4  1  0  0  0  0
 11  6  2  0  0  0  0
 11  7  1  0  0  0  0
 12 18  1  0  0  0  0
 13  2  1  0  0  0  0
 14 16  1  6  0  0  0
 14 13  1  0  0  0  0
 14 20  1  0  0  0  0
 16 17  1  0  0  0  0
 17 12  2  0  0  0  0
 18 15  1  6  0  0  0
 18 20  1  0  0  0  0
 19 14  1  0  0  0  0
 19 13  1  0  0  0  0
 21 23  1  0  0  0  0
 22 28  1  0  0  0  0
 23 22  2  0  0  0  0
 23 26  1  0  0  0  0
 24 27  2  0  0  0  0
 25 24  1  0  0  0  0
 25 21  2  0  0  0  0
 27 22  1  0  0  0  0
 28 29  2  0  0  0  0
 28 30  1  0  0  0  0
 32 33  1  0  0  0  0
 33 31  1  0  0  0  0
M  END
>  <MODEL>
9

>  <REMARK>
 VINA RESULT:      -7.8      3.721      5.556
  Name = 
  5 active torsions:
  status: ('A' for Active; 'I' for Inactive)
    1  A    between atoms: C_1  and  C_8
    2  A    between atoms: N_3  and  C_11
    3  A    between atoms: N_13  and  C_18
    4  A    between atoms: C_18  and  C_19
    5  A    between atoms: C_22  and  N_25
                            x       y       z     vdW  Elec       q    Type
                         _______ _______ _______ _____ _____    ______ ____

>  <TORSDO>
F 5

$$$$
