=
 OpenBabel10222418363D

 62 70  0  0  1  0  0  0  0  0999 V2000
  186.0430  174.1080  135.4090 C   0  0  0  0  0  0  0  0  0  0  0  0
  183.9850  172.6520  136.6360 C   0  0  0  0  0  0  0  0  0  0  0  0
  181.6570  176.6870  138.7540 C   0  0  0  0  0  0  0  0  0  0  0  0
  186.0230  178.1400  134.6000 O   0  0  0  0  0  0  0  0  0  0  0  0
  182.5580  176.1060  137.9950 C   0  0  0  0  0  0  0  0  0  0  0  0
  182.0300  177.6890  139.8080 C   0  0  1  0  0  3  0  0  0  0  0  0
  187.6800  172.8420  136.2970 N   0  0  0  0  0  0  0  0  0  0  0  0
  184.5920  177.1870  136.9330 C   0  0  0  0  0  0  0  0  0  0  0  0
  184.3360  177.1280  139.3340 O   0  0  0  0  0  0  0  0  0  0  0  0
  187.2850  174.8280  135.1950 C   0  0  0  0  0  0  0  0  0  0  0  0
  184.8400  174.5790  135.4060 N   0  0  0  0  0  0  0  0  0  0  0  0
  185.3650  172.0030  136.6770 C   0  0  0  0  0  2  0  0  0  0  0  0
  187.4620  176.2420  134.7090 C   0  0  0  0  0  2  0  0  0  0  0  0
  183.7630  173.8540  136.0270 C   0  0  0  0  0  0  0  0  0  0  0  0
  186.4270  177.1600  135.2800 C   0  0  0  0  0  0  0  0  0  0  0  0
  185.9060  176.8980  136.5530 O   0  0  0  0  0  0  0  0  0  0  0  0
  182.4070  174.4970  135.9900 C   0  0  0  0  0  2  0  0  0  0  0  0
  181.9870  175.0000  137.2960 N   0  0  0  0  0  0  0  0  0  0  0  0
  183.8930  178.0180  136.2940 O   0  0  0  0  0  0  0  0  0  0  0  0
  180.5800  174.9490  137.6860 C   0  0  0  0  0  3  0  0  0  0  0  0
  183.4450  178.2130  139.5310 C   0  0  0  0  0  2  0  0  0  0  0  0
  180.4080  176.0140  138.6740 N   0  0  0  0  0  0  0  0  0  0  0  0
  186.4030  172.9120  136.1030 C   0  0  0  0  0  0  0  0  0  0  0  0
  188.2310  174.0430  135.7230 C   0  0  0  0  0  0  0  0  0  0  0  0
  184.0270  176.4620  138.1150 C   0  0  1  0  0  3  0  0  0  0  0  0
  179.5110  180.4210  138.8380 C   0  0  0  0  0  2  0  0  0  0  0  0
  181.0370  178.8070  139.9310 C   0  0  0  0  0  0  0  0  0  0  0  0
  179.6640  181.2940  140.0850 C   0  0  0  0  0  2  0  0  0  0  0  0
  180.5830  179.3670  138.8010 C   0  0  0  0  0  3  0  0  0  0  0  0
  179.8360  180.4350  141.3070 C   0  0  0  0  0  3  0  0  0  0  0  0
  180.5220  179.2800  141.2470 C   0  0  0  0  0  0  0  0  0  0  0  0
  180.7490  178.5200  142.4010 O   0  0  0  0  0  0  0  0  0  0  0  0
  181.6100  178.9550  143.4490 C   0  0  0  0  0  2  0  0  0  0  0  0
  182.9920  178.3640  143.2550 C   0  0  0  0  0  2  0  0  0  0  0  0
  184.1300  179.0230  144.5060 P   0  0  2  0  0  0  0  0  0  0  0  0
  183.3630  179.2750  145.7870 O   0  0  0  0  0  1  0  0  0  0  0  0
  184.8050  180.4710  143.9540 O   0  0  0  0  0  0  0  0  0  0  0  0
  185.3610  177.8850  144.7730 O   0  0  0  0  0  0  0  0  0  0  0  0
  186.2850  178.5190  145.6070 C   0  0  2  0  0  3  0  0  0  0  0  0
  187.2500  177.5420  146.0990 C   0  0  0  0  0  2  0  0  0  0  0  0
  186.1450  177.9790  146.9670 N   0  0  0  0  0  2  0  0  0  0  0  0
  182.0450  171.3520  137.7790 N   0  0  0  0  0  0  0  0  0  0  0  0
  182.9090  171.9320  137.2700 C   0  0  0  0  0  0  0  0  0  0  0  0
  189.9310  175.3970  136.8460 C   0  0  0  0  0  3  0  0  0  0  0  0
  189.6140  174.4750  135.9440 C   0  0  0  0  0  3  0  0  0  0  0  0
  191.3080  175.9000  136.9620 C   0  0  0  0  0  0  0  0  0  0  0  0
  192.0420  175.9460  135.9370 O   0  0  0  0  0  0  0  0  0  0  0  0
  192.7550  177.4510  140.6840 C   0  0  0  0  0  3  0  0  0  0  0  0
  191.8230  176.4160  138.2450 C   0  0  0  0  0  0  0  0  0  0  0  0
  193.2000  176.5560  138.4730 C   0  0  0  0  0  3  0  0  0  0  0  0
  190.9230  176.7910  139.2520 C   0  0  0  0  0  3  0  0  0  0  0  0
  191.3780  177.3200  140.4690 C   0  0  0  0  0  0  0  0  0  0  0  0
  193.6630  177.0720  139.6890 C   0  0  0  0  0  3  0  0  0  0  0  0
  188.6720  176.1850  142.4820 C   0  0  0  0  0  2  0  0  0  0  0  0
  189.5260  176.7890  143.9570 S   0  0  0  0  0  0  0  0  0  0  0  0
  190.9410  177.2440  142.9170 C   0  0  1  0  0  3  0  0  0  0  0  0
  190.4170  177.6990  141.5620 C   0  0  2  0  0  3  0  0  0  0  0  0
  189.0220  177.1090  141.3330 C   0  0  2  0  0  3  0  0  0  0  0  0
  190.6970  179.2980  144.0050 C   0  0  0  0  0  1  0  0  0  0  0  0
  191.6780  178.3310  143.5420 N   0  0  0  0  0  2  0  0  0  0  0  0
  187.9750  178.2100  141.2130 C   0  0  0  0  0  2  0  0  0  0  0  0
  187.7280  178.5070  139.8120 N   0  0  0  0  0  1  0  0  0  0  0  0
  1 23  1  0  0  0  0
  2 12  1  0  0  0  0
  2 43  1  0  0  0  0
  3  6  1  0  0  0  0
  4 15  2  0  0  0  0
  5 25  1  0  0  0  0
  5  3  2  0  0  0  0
  6 27  1  6  0  0  0
  9 21  1  0  0  0  0
 10  1  1  0  0  0  0
 10 24  2  0  0  0  0
 11  1  2  0  0  0  0
 11 14  1  0  0  0  0
 13 10  1  0  0  0  0
 13 15  1  0  0  0  0
 14  2  2  0  0  0  0
 15 16  1  0  0  0  0
 16  8  1  0  0  0  0
 17 14  1  0  0  0  0
 17 18  1  0  0  0  0
 18 20  1  0  0  0  0
 18  5  1  0  0  0  0
 19  8  2  0  0  0  0
 20 22  2  0  0  0  0
 21  6  1  0  0  0  0
 22  3  1  0  0  0  0
 23  7  2  0  0  0  0
 23 12  1  0  0  0  0
 24 45  1  0  0  0  0
 24  7  1  0  0  0  0
 25  8  1  6  0  0  0
 25  9  1  0  0  0  0
 26 28  1  0  0  0  0
 27 31  1  0  0  0  0
 28 30  1  0  0  0  0
 29 26  1  0  0  0  0
 29 27  2  0  0  0  0
 31 30  2  0  0  0  0
 31 32  1  0  0  0  0
 32 33  1  0  0  0  0
 34 33  1  0  0  0  0
 34 35  1  0  0  0  0
 35 37  2  6  0  0  0
 35 38  1  0  0  0  0
 35 36  1  0  0  0  0
 39 38  1  6  0  0  0
 39 40  1  0  0  0  0
 39 41  1  0  0  0  0
 40 41  1  0  0  0  0
 43 42  3  0  0  0  0
 44 46  1  0  0  0  0
 45 44  2  0  0  0  0
 46 49  1  0  0  0  0
 47 46  2  0  0  0  0
 49 50  2  0  0  0  0
 49 51  1  0  0  0  0
 50 53  1  0  0  0  0
 51 52  2  0  0  0  0
 52 48  1  0  0  0  0
 53 48  2  0  0  0  0
 54 55  1  0  0  0  0
 56 60  1  1  0  0  0
 56 55  1  0  0  0  0
 57 52  1  6  0  0  0
 57 56  1  0  0  0  0
 58 61  1  1  0  0  0
 58 57  1  0  0  0  0
 58 54  1  0  0  0  0
 60 59  1  0  0  0  0
 62 61  1  0  0  0  0
M  END
>  <MODEL>
1

>  <REMARK>
 VINA RESULT:      -7.0      0.000      0.000
  Name = 
  14 active torsions:
  status: ('A' for Active; 'I' for Inactive)
    1  A    between atoms: P_1  and  O_6
    2  A    between atoms: P_1  and  C_60
    3  A    between atoms: O_6  and  C_15
    4  A    between atoms: C_8  and  C_10
    5  A    between atoms: C_9  and  C_11
    6  A    between atoms: C_11  and  C_14
    7  A    between atoms: C_18  and  C_26
    8  A    between atoms: O_29  and  C_44
    9  A    between atoms: O_29  and  C_61
   10  A    between atoms: C_30  and  C_55
   11  A    between atoms: C_36  and  N_49
   12  A    between atoms: C_43  and  C_47
   13  A    between atoms: C_44  and  C_60
   14  A    between atoms: C_57  and  C_58
                            x       y       z     vdW  Elec       q    Type
                         _______ _______ _______ _____ _____    ______ ____

>  <TORSDO>
F 14

$$$$
=
 OpenBabel10222418363D

 62 70  0  0  1  0  0  0  0  0999 V2000
  188.6430  176.0810  136.4920 C   0  0  0  0  0  0  0  0  0  0  0  0
  186.5220  174.4320  135.6910 C   0  0  0  0  0  0  0  0  0  0  0  0
  182.7850  177.6140  137.1380 C   0  0  0  0  0  0  0  0  0  0  0  0
  188.4500  180.1320  137.1770 O   0  0  0  0  0  0  0  0  0  0  0  0
  184.0380  177.2770  136.9360 C   0  0  0  0  0  0  0  0  0  0  0  0
  182.3080  178.1530  138.4550 C   0  0  1  0  0  3  0  0  0  0  0  0
  189.6340  174.4750  137.7190 N   0  0  0  0  0  0  0  0  0  0  0  0
  186.1040  178.5210  137.7240 C   0  0  0  0  0  0  0  0  0  0  0  0
  184.5110  177.6380  139.3120 O   0  0  0  0  0  0  0  0  0  0  0  0
  189.6420  176.7440  137.3110 C   0  0  0  0  0  0  0  0  0  0  0  0
  187.6100  176.6050  135.9190 N   0  0  0  0  0  0  0  0  0  0  0  0
  187.7020  173.7170  136.3410 C   0  0  0  0  0  2  0  0  0  0  0  0
  189.8380  178.2230  137.5130 C   0  0  0  0  0  2  0  0  0  0  0  0
  186.5070  175.7840  135.4950 C   0  0  0  0  0  0  0  0  0  0  0  0
  188.5340  178.9500  137.6050 C   0  0  0  0  0  0  0  0  0  0  0  0
  187.4190  178.2940  138.1420 O   0  0  0  0  0  0  0  0  0  0  0  0
  185.3440  176.4900  134.8610 C   0  0  0  0  0  2  0  0  0  0  0  0
  184.1680  176.5290  135.7270 N   0  0  0  0  0  0  0  0  0  0  0  0
  185.7860  179.5690  137.1030 O   0  0  0  0  0  0  0  0  0  0  0  0
  182.8280  176.4410  135.1520 C   0  0  0  0  0  3  0  0  0  0  0  0
  183.5130  178.6430  139.2690 C   0  0  0  0  0  2  0  0  0  0  0  0
  181.9440  177.0990  136.1140 N   0  0  0  0  0  0  0  0  0  0  0  0
  188.7180  174.6960  136.8340 C   0  0  0  0  0  0  0  0  0  0  0  0
  190.2140  175.7600  138.0140 C   0  0  0  0  0  0  0  0  0  0  0  0
  185.0820  177.4660  138.0190 C   0  0  1  0  0  3  0  0  0  0  0  0
  180.5090  181.3140  137.2220 C   0  0  0  0  0  2  0  0  0  0  0  0
  181.2660  179.2220  138.3070 C   0  0  0  0  0  0  0  0  0  0  0  0
  179.6400  181.5520  138.4580 C   0  0  0  0  0  2  0  0  0  0  0  0
  181.5400  180.2570  137.5020 C   0  0  0  0  0  3  0  0  0  0  0  0
  179.1580  180.2430  139.0190 C   0  0  0  0  0  3  0  0  0  0  0  0
  179.9420  179.1500  138.9890 C   0  0  0  0  0  0  0  0  0  0  0  0
  179.5240  177.9520  139.5810 O   0  0  0  0  0  0  0  0  0  0  0  0
  179.2670  177.8360  140.9770 C   0  0  0  0  0  2  0  0  0  0  0  0
  180.5120  178.2010  141.7600 C   0  0  0  0  0  2  0  0  0  0  0  0
  180.1040  179.4140  143.0460 P   0  0  2  0  0  0  0  0  0  0  0  0
  179.0340  178.8350  143.9480 O   0  0  0  0  0  1  0  0  0  0  0  0
  179.5350  180.8350  142.3280 O   0  0  0  0  0  0  0  0  0  0  0  0
  181.5070  179.7490  143.9410 O   0  0  0  0  0  0  0  0  0  0  0  0
  182.4720  178.8520  143.4790 C   0  0  2  0  0  3  0  0  0  0  0  0
  183.4490  178.5990  144.5310 C   0  0  0  0  0  2  0  0  0  0  0  0
  183.7740  179.5320  143.4410 N   0  0  0  0  0  2  0  0  0  0  0  0
  184.5170  172.9530  134.9490 N   0  0  0  0  0  0  0  0  0  0  0  0
  185.4110  173.6110  135.2790 C   0  0  0  0  0  0  0  0  0  0  0  0
  190.7760  176.7500  140.1790 C   0  0  0  0  0  3  0  0  0  0  0  0
  191.1190  175.9910  139.1440 C   0  0  0  0  0  3  0  0  0  0  0  0
  191.7450  177.0650  141.2400 C   0  0  0  0  0  0  0  0  0  0  0  0
  192.9660  176.7930  141.0680 O   0  0  0  0  0  0  0  0  0  0  0  0
  190.4520  179.0540  144.8070 C   0  0  0  0  0  3  0  0  0  0  0  0
  191.3240  177.7540  142.4750 C   0  0  0  0  0  0  0  0  0  0  0  0
  191.8740  178.9920  142.8410 C   0  0  0  0  0  3  0  0  0  0  0  0
  190.3440  177.1740  143.2910 C   0  0  0  0  0  3  0  0  0  0  0  0
  189.8930  177.8210  144.4520 C   0  0  0  0  0  0  0  0  0  0  0  0
  191.4380  179.6380  144.0030 C   0  0  0  0  0  3  0  0  0  0  0  0
  188.0210  178.2040  147.4540 C   0  0  0  0  0  2  0  0  0  0  0  0
  186.5090  177.7890  146.5540 S   0  0  0  0  0  0  0  0  0  0  0  0
  187.4720  177.7220  145.0200 C   0  0  1  0  0  3  0  0  0  0  0  0
  188.8610  177.1890  145.3450 C   0  0  2  0  0  3  0  0  0  0  0  0
  189.1610  177.4250  146.8290 C   0  0  2  0  0  3  0  0  0  0  0  0
  186.6590  177.5790  142.8340 C   0  0  0  0  0  1  0  0  0  0  0  0
  186.8220  176.8330  144.0710 N   0  0  0  0  0  2  0  0  0  0  0  0
  189.3540  176.1050  147.5650 C   0  0  0  0  0  2  0  0  0  0  0  0
  190.7680  175.7720  147.6210 N   0  0  0  0  0  1  0  0  0  0  0  0
  1 23  1  0  0  0  0
  1 10  1  0  0  0  0
  2 12  1  0  0  0  0
  3  6  1  0  0  0  0
  4 15  2  0  0  0  0
  5  3  2  0  0  0  0
  6 27  1  6  0  0  0
  6 21  1  0  0  0  0
  7 24  1  0  0  0  0
  8 25  1  0  0  0  0
  8 16  1  0  0  0  0
 10 13  1  0  0  0  0
 10 24  2  0  0  0  0
 11  1  2  0  0  0  0
 12 23  1  0  0  0  0
 13 15  1  0  0  0  0
 14  2  2  0  0  0  0
 14 11  1  0  0  0  0
 15 16  1  0  0  0  0
 17 14  1  0  0  0  0
 17 18  1  0  0  0  0
 18  5  1  0  0  0  0
 19  8  2  0  0  0  0
 20 18  1  0  0  0  0
 20 22  2  0  0  0  0
 21  9  1  0  0  0  0
 22  3  1  0  0  0  0
 23  7  2  0  0  0  0
 24 45  1  0  0  0  0
 25  5  1  6  0  0  0
 25  9  1  0  0  0  0
 26 29  1  0  0  0  0
 26 28  1  0  0  0  0
 27 31  1  0  0  0  0
 28 30  1  0  0  0  0
 29 27  2  0  0  0  0
 31 30  2  0  0  0  0
 31 32  1  0  0  0  0
 32 33  1  0  0  0  0
 33 34  1  0  0  0  0
 34 35  1  0  0  0  0
 35 37  2  6  0  0  0
 35 38  1  0  0  0  0
 35 36  1  0  0  0  0
 39 38  1  1  0  0  0
 39 40  1  0  0  0  0
 41 39  1  0  0  0  0
 41 40  1  0  0  0  0
 42 43  3  0  0  0  0
 43  2  1  0  0  0  0
 44 46  1  0  0  0  0
 45 44  2  0  0  0  0
 46 49  1  0  0  0  0
 47 46  2  0  0  0  0
 49 50  2  0  0  0  0
 49 51  1  0  0  0  0
 50 53  1  0  0  0  0
 51 52  2  0  0  0  0
 52 48  1  0  0  0  0
 53 48  2  0  0  0  0
 55 54  1  0  0  0  0
 56 60  1  6  0  0  0
 56 57  1  0  0  0  0
 56 55  1  0  0  0  0
 57 52  1  6  0  0  0
 57 58  1  0  0  0  0
 58 54  1  0  0  0  0
 58 61  1  1  0  0  0
 59 60  1  0  0  0  0
 61 62  1  0  0  0  0
M  END
>  <MODEL>
2

>  <REMARK>
 VINA RESULT:      -6.2      2.343      3.919
  Name = 
  14 active torsions:
  status: ('A' for Active; 'I' for Inactive)
    1  A    between atoms: P_1  and  O_6
    2  A    between atoms: P_1  and  C_60
    3  A    between atoms: O_6  and  C_15
    4  A    between atoms: C_8  and  C_10
    5  A    between atoms: C_9  and  C_11
    6  A    between atoms: C_11  and  C_14
    7  A    between atoms: C_18  and  C_26
    8  A    between atoms: O_29  and  C_44
    9  A    between atoms: O_29  and  C_61
   10  A    between atoms: C_30  and  C_55
   11  A    between atoms: C_36  and  N_49
   12  A    between atoms: C_43  and  C_47
   13  A    between atoms: C_44  and  C_60
   14  A    between atoms: C_57  and  C_58
                            x       y       z     vdW  Elec       q    Type
                         _______ _______ _______ _____ _____    ______ ____

>  <TORSDO>
F 14

$$$$
=
 OpenBabel10222418363D

 62 70  0  0  1  0  0  0  0  0999 V2000
  190.1250  176.5530  137.4320 C   0  0  0  0  0  0  0  0  0  0  0  0
  187.4790  177.3650  137.8810 C   0  0  0  0  0  0  0  0  0  0  0  0
  187.8880  177.7540  142.9670 C   0  0  0  0  0  0  0  0  0  0  0  0
  193.2910  177.0430  140.0110 O   0  0  0  0  0  0  0  0  0  0  0  0
  188.3540  177.5540  141.7560 C   0  0  0  0  0  0  0  0  0  0  0  0
  188.1320  176.7820  144.0840 C   0  0  1  0  0  3  0  0  0  0  0  0
  189.5310  174.7410  136.2350 N   0  0  0  0  0  0  0  0  0  0  0  0
  190.6420  176.6600  141.1240 C   0  0  0  0  0  0  0  0  0  0  0  0
  189.1050  175.3200  142.4210 O   0  0  0  0  0  0  0  0  0  0  0  0
  191.3130  175.7280  137.3130 C   0  0  1  0  0  3  0  0  0  0  0  0
  189.8800  177.4740  138.3050 N   0  0  0  0  0  0  0  0  0  0  0  0
  187.6650  176.2860  136.8190 C   0  0  0  0  0  3  0  0  0  0  0  0
  192.6250  175.8880  138.0340 C   0  0  0  0  0  2  0  0  0  0  0  0
  188.5320  177.9120  138.5560 C   0  0  0  0  0  0  0  0  0  0  0  0
  192.4310  176.3070  139.4570 C   0  0  0  0  0  0  0  0  0  0  0  0
  191.2810  175.8960  140.1420 O   0  0  0  0  0  0  0  0  0  0  0  0
  188.3510  178.9700  139.6050 C   0  0  0  0  0  2  0  0  0  0  0  0
  187.7440  178.4520  140.8290 N   0  0  0  0  0  0  0  0  0  0  0  0
  191.2400  177.5960  141.7180 O   0  0  0  0  0  0  0  0  0  0  0  0
  186.8270  179.2840  141.6050 C   0  0  0  0  0  3  0  0  0  0  0  0
  189.3050  175.8660  143.7130 C   0  0  0  0  0  2  0  0  0  0  0  0
  186.8960  178.7720  142.9730 N   0  0  0  0  0  0  0  0  0  0  0  0
  189.0910  175.8460  136.7450 C   0  0  0  0  0  0  0  0  0  0  0  0
  190.9250  174.6720  136.5900 C   0  0  0  0  0  0  0  0  0  0  0  0
  189.2120  176.3450  141.4390 C   0  0  1  0  0  3  0  0  0  0  0  0
  189.8910  178.5410  147.0100 C   0  0  0  0  0  2  0  0  0  0  0  0
  188.3490  177.4540  145.4080 C   0  0  0  0  0  0  0  0  0  0  0  0
  188.9070  178.1440  148.1120 C   0  0  0  0  0  2  0  0  0  0  0  0
  189.6040  177.7750  145.7490 C   0  0  0  0  0  3  0  0  0  0  0  0
  187.4970  178.1710  147.5880 C   0  0  0  0  0  3  0  0  0  0  0  0
  187.2250  177.8030  146.3240 C   0  0  0  0  0  0  0  0  0  0  0  0
  185.9040  177.7540  145.8600 O   0  0  0  0  0  0  0  0  0  0  0  0
  185.1930  178.9180  145.4500 C   0  0  0  0  0  2  0  0  0  0  0  0
  183.7280  178.5820  145.2560 C   0  0  0  0  0  2  0  0  0  0  0  0
  183.1550  179.2020  143.6500 P   0  0  2  0  0  0  0  0  0  0  0  0
  183.3980  178.1420  142.5960 O   0  0  0  0  0  0  0  0  0  0  0  0
  184.0030  180.6080  143.2470 O   0  0  0  0  0  1  0  0  0  0  0  0
  181.4970  179.5480  143.7610 O   0  0  0  0  0  0  0  0  0  0  0  0
  180.8450  178.4600  143.1770 C   0  0  2  0  0  3  0  0  0  0  0  0
  179.9710  178.9290  142.1080 C   0  0  0  0  0  2  0  0  0  0  0  0
  179.4010  178.5860  143.4200 N   0  0  0  0  0  2  0  0  0  0  0  0
  185.0420  178.1370  138.3540 N   0  0  0  0  0  0  0  0  0  0  0  0
  186.1280  177.7940  138.1430 C   0  0  0  0  0  0  0  0  0  0  0  0
  191.6380  172.6940  135.3400 C   0  0  0  0  0  3  0  0  0  0  0  0
  191.7370  173.4630  136.4180 C   0  0  0  0  0  3  0  0  0  0  0  0
  192.3740  171.4240  135.2470 C   0  0  0  0  0  0  0  0  0  0  0  0
  191.8750  170.4640  134.5970 O   0  0  0  0  0  0  0  0  0  0  0  0
  196.2970  171.0170  136.9190 C   0  0  0  0  0  3  0  0  0  0  0  0
  193.7140  171.2750  135.8440 C   0  0  0  0  0  0  0  0  0  0  0  0
  194.0830  170.1050  136.5240 C   0  0  0  0  0  3  0  0  0  0  0  0
  194.6470  172.3140  135.7170 C   0  0  0  0  0  3  0  0  0  0  0  0
  195.9430  172.1890  136.2400 C   0  0  0  0  0  0  0  0  0  0  0  0
  195.3700  169.9780  137.0590 C   0  0  0  0  0  3  0  0  0  0  0  0
  197.1790  175.1430  137.7930 C   0  0  0  0  0  2  0  0  0  0  0  0
  198.8690  174.5320  137.5920 S   0  0  0  0  0  0  0  0  0  0  0  0
  198.2010  172.9880  136.9160 C   0  0  1  0  0  3  0  0  0  0  0  0
  196.9390  173.3120  136.1290 C   0  0  2  0  0  3  0  0  0  0  0  0
  196.3630  174.6440  136.6180 C   0  0  2  0  0  3  0  0  0  0  0  0
  198.8330  172.7680  134.6780 C   0  0  0  0  0  1  0  0  0  0  0  0
  199.1800  172.3750  136.0330 N   0  0  0  0  0  2  0  0  0  0  0  0
  196.3650  175.6840  135.5040 C   0  0  0  0  0  2  0  0  0  0  0  0
  194.9990  176.0600  135.1770 N   0  0  0  0  0  1  0  0  0  0  0  0
  1 11  1  0  0  0  0
  2 43  1  0  0  0  0
  2 14  1  0  0  0  0
  3 22  1  0  0  0  0
  3  6  1  0  0  0  0
  5  3  2  0  0  0  0
  6 27  1  1  0  0  0
  7 24  2  0  0  0  0
  7 23  1  0  0  0  0
  8 19  2  0  0  0  0
  9 21  1  0  0  0  0
 10  1  1  0  0  0  0
 10 13  1  1  0  0  0
 11 14  2  0  0  0  0
 12  2  2  0  0  0  0
 13 15  1  0  0  0  0
 14 17  1  0  0  0  0
 15  4  2  0  0  0  0
 15 16  1  0  0  0  0
 16  8  1  0  0  0  0
 17 18  1  0  0  0  0
 18 20  1  0  0  0  0
 18  5  1  0  0  0  0
 20 22  2  0  0  0  0
 21  6  1  0  0  0  0
 23 12  1  0  0  0  0
 23  1  2  0  0  0  0
 24 10  1  0  0  0  0
 25  8  1  1  0  0  0
 25  5  1  0  0  0  0
 25  9  1  0  0  0  0
 26 28  1  0  0  0  0
 27 29  2  0  0  0  0
 27 31  1  0  0  0  0
 29 26  1  0  0  0  0
 30 28  1  0  0  0  0
 31 30  2  0  0  0  0
 32 31  1  0  0  0  0
 33 32  1  0  0  0  0
 34 33  1  0  0  0  0
 35 36  2  6  0  0  0
 35 38  1  0  0  0  0
 35 34  1  0  0  0  0
 37 35  1  0  0  0  0
 39 41  1  0  0  0  0
 39 38  1  1  0  0  0
 40 39  1  0  0  0  0
 40 41  1  0  0  0  0
 43 42  3  0  0  0  0
 44 45  2  0  0  0  0
 45 24  1  0  0  0  0
 46 44  1  0  0  0  0
 46 49  1  0  0  0  0
 47 46  2  0  0  0  0
 48 53  1  0  0  0  0
 49 50  1  0  0  0  0
 50 53  2  0  0  0  0
 51 49  2  0  0  0  0
 51 52  1  0  0  0  0
 52 48  2  0  0  0  0
 55 54  1  0  0  0  0
 56 60  1  6  0  0  0
 56 55  1  0  0  0  0
 57 52  1  1  0  0  0
 57 58  1  0  0  0  0
 57 56  1  0  0  0  0
 58 61  1  6  0  0  0
 58 54  1  0  0  0  0
 59 60  1  0  0  0  0
 62 61  1  0  0  0  0
M  END
>  <MODEL>
3

>  <REMARK>
 VINA RESULT:      -5.5      4.134      7.699
  Name = 
  14 active torsions:
  status: ('A' for Active; 'I' for Inactive)
    1  A    between atoms: P_1  and  O_6
    2  A    between atoms: P_1  and  C_60
    3  A    between atoms: O_6  and  C_15
    4  A    between atoms: C_8  and  C_10
    5  A    between atoms: C_9  and  C_11
    6  A    between atoms: C_11  and  C_14
    7  A    between atoms: C_18  and  C_26
    8  A    between atoms: O_29  and  C_44
    9  A    between atoms: O_29  and  C_61
   10  A    between atoms: C_30  and  C_55
   11  A    between atoms: C_36  and  N_49
   12  A    between atoms: C_43  and  C_47
   13  A    between atoms: C_44  and  C_60
   14  A    between atoms: C_57  and  C_58
                            x       y       z     vdW  Elec       q    Type
                         _______ _______ _______ _____ _____    ______ ____

>  <TORSDO>
F 14

$$$$
=
 OpenBabel10222418363D

 62 70  0  0  1  0  0  0  0  0999 V2000
  185.7770  178.7840  140.0100 C   0  0  0  0  0  0  0  0  0  0  0  0
  186.8780  177.7860  137.6330 C   0  0  0  0  0  0  0  0  0  0  0  0
  182.9240  174.7690  136.4310 C   0  0  0  0  0  0  0  0  0  0  0  0
  181.8000  178.7410  141.0550 O   0  0  0  0  0  0  0  0  0  0  0  0
  183.5430  175.6740  137.1530 C   0  0  0  0  0  0  0  0  0  0  0  0
  182.2990  173.5510  137.0460 C   0  0  1  0  0  3  0  0  0  0  0  0
  187.5810  178.2590  141.2500 N   0  0  0  0  0  0  0  0  0  0  0  0
  182.8230  176.5890  139.4070 C   0  0  0  0  0  0  0  0  0  0  0  0
  183.3230  174.2410  139.1270 O   0  0  0  0  0  0  0  0  0  0  0  0
  185.3740  178.9060  141.3990 C   0  0  0  0  0  0  0  0  0  0  0  0
  185.0210  178.6310  138.9730 N   0  0  0  0  0  0  0  0  0  0  0  0
  187.8540  177.9470  138.7930 C   0  0  0  0  0  2  0  0  0  0  0  0
  183.9830  179.0970  141.9450 C   0  0  0  0  0  2  0  0  0  0  0  0
  185.5580  178.1220  137.7390 C   0  0  0  0  0  0  0  0  0  0  0  0
  182.9720  178.2990  141.1830 C   0  0  0  0  0  0  0  0  0  0  0  0
  183.3540  177.0840  140.6020 O   0  0  0  0  0  0  0  0  0  0  0  0
  184.5940  177.9590  136.6000 C   0  0  0  0  0  2  0  0  0  0  0  0
  184.2890  176.5580  136.3170 N   0  0  0  0  0  0  0  0  0  0  0  0
  181.7240  177.0070  138.9560 O   0  0  0  0  0  0  0  0  0  0  0  0
  184.0570  176.1190  134.9430 C   0  0  0  0  0  3  0  0  0  0  0  0
  182.1120  173.7820  138.5510 C   0  0  0  0  0  2  0  0  0  0  0  0
  183.2190  174.9250  135.0490 N   0  0  0  0  0  0  0  0  0  0  0  0
  187.1440  178.3710  140.0380 C   0  0  0  0  0  0  0  0  0  0  0  0
  186.4690  178.5980  142.1010 C   0  0  0  0  0  0  0  0  0  0  0  0
  183.6120  175.5550  138.6630 C   0  0  1  0  0  3  0  0  0  0  0  0
  179.5310  171.3610  135.5340 C   0  0  0  0  0  2  0  0  0  0  0  0
  181.0150  173.1510  136.3810 C   0  0  0  0  0  0  0  0  0  0  0  0
  178.9310  172.4070  134.5930 C   0  0  0  0  0  2  0  0  0  0  0  0
  180.8310  171.8530  136.1050 C   0  0  0  0  0  3  0  0  0  0  0  0
  178.9340  173.7610  135.2470 C   0  0  0  0  0  3  0  0  0  0  0  0
  179.9410  174.1320  136.0580 C   0  0  0  0  0  0  0  0  0  0  0  0
  179.9830  175.4210  136.6040 O   0  0  0  0  0  0  0  0  0  0  0  0
  179.7220  176.5890  135.8320 C   0  0  0  0  0  2  0  0  0  0  0  0
  180.9480  177.4790  135.8180 C   0  0  0  0  0  2  0  0  0  0  0  0
  180.5460  179.1050  136.5180 P   0  0  2  0  0  0  0  0  0  0  0  0
  181.6700  179.5390  137.4350 O   0  0  0  0  0  1  0  0  0  0  0  0
  179.1040  179.0040  137.3960 O   0  0  0  0  0  0  0  0  0  0  0  0
  180.3640  180.2140  135.2470 O   0  0  0  0  0  0  0  0  0  0  0  0
  179.5550  181.2350  135.7500 C   0  0  2  0  0  3  0  0  0  0  0  0
  179.3040  182.2220  134.7060 C   0  0  0  0  0  2  0  0  0  0  0  0
  180.3150  182.4920  135.7400 N   0  0  0  0  0  2  0  0  0  0  0  0
  187.8410  176.8410  135.4110 N   0  0  0  0  0  0  0  0  0  0  0  0
  187.4130  177.2630  136.4010 C   0  0  0  0  0  0  0  0  0  0  0  0
  185.5820  178.9350  144.3550 C   0  0  0  0  0  3  0  0  0  0  0  0
  186.4660  178.3610  143.5480 C   0  0  0  0  0  3  0  0  0  0  0  0
  185.6760  178.7780  145.8150 C   0  0  0  0  0  0  0  0  0  0  0  0
  184.6330  178.8770  146.5190 O   0  0  0  0  0  0  0  0  0  0  0  0
  189.4040  177.7380  147.6500 C   0  0  0  0  0  3  0  0  0  0  0  0
  186.9570  178.4390  146.4630 C   0  0  0  0  0  0  0  0  0  0  0  0
  187.0740  178.3830  147.8600 C   0  0  0  0  0  3  0  0  0  0  0  0
  188.0770  178.1500  145.6720 C   0  0  0  0  0  3  0  0  0  0  0  0
  189.3000  177.7870  146.2550 C   0  0  0  0  0  0  0  0  0  0  0  0
  188.2940  178.0340  148.4500 C   0  0  0  0  0  3  0  0  0  0  0  0
  190.8550  175.4100  144.1100 C   0  0  0  0  0  2  0  0  0  0  0  0
  191.1580  176.7160  142.8960 S   0  0  0  0  0  0  0  0  0  0  0  0
  190.2530  177.8750  143.9570 C   0  0  1  0  0  3  0  0  0  0  0  0
  190.5120  177.5020  145.4100 C   0  0  2  0  0  3  0  0  0  0  0  0
  190.9370  176.0320  145.4890 C   0  0  2  0  0  3  0  0  0  0  0  0
  191.9460  179.3990  144.4750 C   0  0  0  0  0  1  0  0  0  0  0  0
  190.7200  179.2300  143.7140 N   0  0  0  0  0  2  0  0  0  0  0  0
  192.3530  175.8990  146.0360 C   0  0  0  0  0  2  0  0  0  0  0  0
  192.3700  176.2290  147.4520 N   0  0  0  0  0  1  0  0  0  0  0  0
  1 23  1  0  0  0  0
  1 10  1  0  0  0  0
  2 14  2  0  0  0  0
  2 12  1  0  0  0  0
  3  6  1  0  0  0  0
  3  5  2  0  0  0  0
  4 15  2  0  0  0  0
  6 27  1  6  0  0  0
  6 21  1  0  0  0  0
  7 24  1  0  0  0  0
  8 16  1  0  0  0  0
 10 13  1  0  0  0  0
 10 24  2  0  0  0  0
 11  1  2  0  0  0  0
 12 23  1  0  0  0  0
 14 11  1  0  0  0  0
 15 13  1  0  0  0  0
 16 15  1  0  0  0  0
 17 14  1  0  0  0  0
 18 17  1  0  0  0  0
 18  5  1  0  0  0  0
 19  8  2  0  0  0  0
 20 22  2  0  0  0  0
 20 18  1  0  0  0  0
 21  9  1  0  0  0  0
 22  3  1  0  0  0  0
 23  7  2  0  0  0  0
 24 45  1  0  0  0  0
 25  5  1  6  0  0  0
 25  9  1  0  0  0  0
 25  8  1  0  0  0  0
 26 29  1  0  0  0  0
 28 30  1  0  0  0  0
 28 26  1  0  0  0  0
 29 27  2  0  0  0  0
 30 31  2  0  0  0  0
 31 27  1  0  0  0  0
 31 32  1  0  0  0  0
 33 32  1  0  0  0  0
 34 33  1  0  0  0  0
 34 35  1  0  0  0  0
 35 37  2  1  0  0  0
 35 36  1  0  0  0  0
 38 35  1  0  0  0  0
 39 38  1  6  0  0  0
 40 41  1  0  0  0  0
 40 39  1  0  0  0  0
 41 39  1  0  0  0  0
 42 43  3  0  0  0  0
 43  2  1  0  0  0  0
 44 46  1  0  0  0  0
 45 44  2  0  0  0  0
 46 49  1  0  0  0  0
 46 47  2  0  0  0  0
 48 53  1  0  0  0  0
 49 50  1  0  0  0  0
 50 53  2  0  0  0  0
 51 52  1  0  0  0  0
 51 49  2  0  0  0  0
 52 48  2  0  0  0  0
 54 58  1  0  0  0  0
 55 56  1  0  0  0  0
 55 54  1  0  0  0  0
 56 60  1  1  0  0  0
 56 57  1  0  0  0  0
 57 58  1  0  0  0  0
 57 52  1  1  0  0  0
 58 61  1  6  0  0  0
 60 59  1  0  0  0  0
 61 62  1  0  0  0  0
M  END
>  <MODEL>
4

>  <REMARK>
 VINA RESULT:      -5.1      3.377      7.544
  Name = 
  14 active torsions:
  status: ('A' for Active; 'I' for Inactive)
    1  A    between atoms: P_1  and  O_6
    2  A    between atoms: P_1  and  C_60
    3  A    between atoms: O_6  and  C_15
    4  A    between atoms: C_8  and  C_10
    5  A    between atoms: C_9  and  C_11
    6  A    between atoms: C_11  and  C_14
    7  A    between atoms: C_18  and  C_26
    8  A    between atoms: O_29  and  C_44
    9  A    between atoms: O_29  and  C_61
   10  A    between atoms: C_30  and  C_55
   11  A    between atoms: C_36  and  N_49
   12  A    between atoms: C_43  and  C_47
   13  A    between atoms: C_44  and  C_60
   14  A    between atoms: C_57  and  C_58
                            x       y       z     vdW  Elec       q    Type
                         _______ _______ _______ _____ _____    ______ ____

>  <TORSDO>
F 14

$$$$
=
 OpenBabel10222418363D

 62 70  0  0  1  0  0  0  0  0999 V2000
  188.9970  176.0960  136.5620 C   0  0  0  0  0  0  0  0  0  0  0  0
  186.9470  174.3580  135.7640 C   0  0  0  0  0  0  0  0  0  0  0  0
  183.0800  177.4050  137.1560 C   0  0  0  0  0  0  0  0  0  0  0  0
  188.6410  180.1430  137.2060 O   0  0  0  0  0  0  0  0  0  0  0  0
  184.3460  177.1150  136.9650 C   0  0  0  0  0  0  0  0  0  0  0  0
  182.5730  177.9380  138.4640 C   0  0  1  0  0  3  0  0  0  0  0  0
  190.0420  174.5420  137.8110 N   0  0  0  0  0  0  0  0  0  0  0  0
  186.3570  178.4470  137.7530 C   0  0  0  0  0  0  0  0  0  0  0  0
  184.7890  177.5180  139.3400 O   0  0  0  0  0  0  0  0  0  0  0  0
  189.9640  176.8050  137.3800 C   0  0  0  0  0  0  0  0  0  0  0  0
  187.9480  176.5740  135.9770 N   0  0  0  0  0  0  0  0  0  0  0  0
  188.1500  173.6960  136.4280 C   0  0  0  0  0  2  0  0  0  0  0  0
  190.1010  178.2930  137.5690 C   0  0  0  0  0  2  0  0  0  0  0  0
  186.8800  175.7060  135.5550 C   0  0  0  0  0  0  0  0  0  0  0  0
  188.7690  178.9690  137.6460 C   0  0  0  0  0  0  0  0  0  0  0  0
  187.6770  178.2750  138.1820 O   0  0  0  0  0  0  0  0  0  0  0  0
  185.6950  176.3600  134.9060 C   0  0  0  0  0  2  0  0  0  0  0  0
  184.5130  176.3620  135.7640 N   0  0  0  0  0  0  0  0  0  0  0  0
  186.0020  179.4750  137.1200 O   0  0  0  0  0  0  0  0  0  0  0  0
  183.1810  176.2160  135.1820 C   0  0  0  0  0  3  0  0  0  0  0  0
  183.7520  178.4820  139.2810 C   0  0  0  0  0  2  0  0  0  0  0  0
  182.2660  176.8480  136.1320 N   0  0  0  0  0  0  0  0  0  0  0  0
  189.1230  174.7190  136.9180 C   0  0  0  0  0  0  0  0  0  0  0  0
  190.5690  175.8520  138.0970 C   0  0  0  0  0  0  0  0  0  0  0  0
  185.3750  177.3560  138.0530 C   0  0  1  0  0  3  0  0  0  0  0  0
  180.4160  180.7130  136.9160 C   0  0  0  0  0  2  0  0  0  0  0  0
  181.4910  178.9640  138.3000 C   0  0  0  0  0  0  0  0  0  0  0  0
  179.8750  181.3050  138.2190 C   0  0  0  0  0  2  0  0  0  0  0  0
  181.5200  179.7340  137.2040 C   0  0  0  0  0  3  0  0  0  0  0  0
  179.5930  180.2120  139.2130 C   0  0  0  0  0  3  0  0  0  0  0  0
  180.3820  179.1250  139.2830 C   0  0  0  0  0  0  0  0  0  0  0  0
  180.1670  178.1450  140.2600 O   0  0  0  0  0  0  0  0  0  0  0  0
  178.9960  177.3330  140.2860 C   0  0  0  0  0  2  0  0  0  0  0  0
  178.9370  176.4790  139.0360 C   0  0  0  0  0  2  0  0  0  0  0  0
  179.9970  175.0180  139.2310 P   0  0  2  0  0  0  0  0  0  0  0  0
  179.1740  173.8840  139.8050 O   0  0  0  0  0  0  0  0  0  0  0  0
  181.2750  175.3790  140.2770 O   0  0  0  0  0  1  0  0  0  0  0  0
  180.6110  174.5860  137.7090 O   0  0  0  0  0  0  0  0  0  0  0  0
  179.8960  173.4500  137.3230 C   0  0  2  0  0  3  0  0  0  0  0  0
  180.7030  172.2590  137.5600 C   0  0  0  0  0  2  0  0  0  0  0  0
  180.5920  172.8080  136.1990 N   0  0  0  0  0  2  0  0  0  0  0  0
  185.0090  172.7920  135.0220 N   0  0  0  0  0  0  0  0  0  0  0  0
  185.8720  173.4900  135.3530 C   0  0  0  0  0  0  0  0  0  0  0  0
  190.9940  176.5380  140.4060 C   0  0  0  0  0  3  0  0  0  0  0  0
  191.4570  176.1290  139.2300 C   0  0  0  0  0  3  0  0  0  0  0  0
  191.9120  176.9260  141.4870 C   0  0  0  0  0  0  0  0  0  0  0  0
  193.1400  176.6540  141.3870 O   0  0  0  0  0  0  0  0  0  0  0  0
  190.4510  179.1150  144.8670 C   0  0  0  0  0  3  0  0  0  0  0  0
  191.4330  177.6880  142.6560 C   0  0  0  0  0  0  0  0  0  0  0  0
  191.8220  179.0190  142.8680 C   0  0  0  0  0  3  0  0  0  0  0  0
  190.5570  177.0800  143.5660 C   0  0  0  0  0  3  0  0  0  0  0  0
  190.0520  177.7890  144.6670 C   0  0  0  0  0  0  0  0  0  0  0  0
  191.3320  179.7290  143.9700 C   0  0  0  0  0  3  0  0  0  0  0  0
  188.6190  178.0480  147.9150 C   0  0  0  0  0  2  0  0  0  0  0  0
  186.9860  177.7170  147.2120 S   0  0  0  0  0  0  0  0  0  0  0  0
  187.7290  177.7120  145.5570 C   0  0  1  0  0  3  0  0  0  0  0  0
  189.1320  177.1320  145.6610 C   0  0  2  0  0  3  0  0  0  0  0  0
  189.6390  177.2800  147.0990 C   0  0  2  0  0  3  0  0  0  0  0  0
  186.4070  177.7720  143.6320 C   0  0  0  0  0  1  0  0  0  0  0  0
  186.9290  176.8910  144.6630 N   0  0  0  0  0  2  0  0  0  0  0  0
  189.8920  175.9170  147.7330 C   0  0  0  0  0  2  0  0  0  0  0  0
  191.3050  175.5860  147.6470 N   0  0  0  0  0  1  0  0  0  0  0  0
  1 23  1  0  0  0  0
  1 10  1  0  0  0  0
  2 12  1  0  0  0  0
  3  6  1  0  0  0  0
  4 15  2  0  0  0  0
  5  3  2  0  0  0  0
  6 27  1  6  0  0  0
  6 21  1  0  0  0  0
  7 24  1  0  0  0  0
  8 25  1  0  0  0  0
  8 16  1  0  0  0  0
 10 13  1  0  0  0  0
 10 24  2  0  0  0  0
 11  1  2  0  0  0  0
 12 23  1  0  0  0  0
 13 15  1  0  0  0  0
 14  2  2  0  0  0  0
 14 11  1  0  0  0  0
 15 16  1  0  0  0  0
 17 14  1  0  0  0  0
 17 18  1  0  0  0  0
 18  5  1  0  0  0  0
 19  8  2  0  0  0  0
 20 18  1  0  0  0  0
 20 22  2  0  0  0  0
 21  9  1  0  0  0  0
 22  3  1  0  0  0  0
 23  7  2  0  0  0  0
 24 45  1  0  0  0  0
 25  5  1  6  0  0  0
 25  9  1  0  0  0  0
 26 29  1  0  0  0  0
 26 28  1  0  0  0  0
 27 31  1  0  0  0  0
 28 30  1  0  0  0  0
 29 27  2  0  0  0  0
 30 31  2  0  0  0  0
 31 32  1  0  0  0  0
 32 33  1  0  0  0  0
 34 35  1  0  0  0  0
 34 33  1  0  0  0  0
 35 36  2  1  0  0  0
 35 37  1  0  0  0  0
 38 35  1  0  0  0  0
 39 40  1  0  0  0  0
 39 38  1  1  0  0  0
 41 39  1  0  0  0  0
 41 40  1  0  0  0  0
 42 43  3  0  0  0  0
 43  2  1  0  0  0  0
 44 46  1  0  0  0  0
 45 44  2  0  0  0  0
 46 49  1  0  0  0  0
 47 46  2  0  0  0  0
 49 50  2  0  0  0  0
 49 51  1  0  0  0  0
 50 53  1  0  0  0  0
 51 52  2  0  0  0  0
 52 48  1  0  0  0  0
 53 48  2  0  0  0  0
 55 54  1  0  0  0  0
 56 60  1  6  0  0  0
 56 57  1  0  0  0  0
 56 55  1  0  0  0  0
 57 52  1  6  0  0  0
 57 58  1  0  0  0  0
 58 61  1  1  0  0  0
 58 54  1  0  0  0  0
 59 60  1  0  0  0  0
 62 61  1  0  0  0  0
M  END
>  <MODEL>
5

>  <REMARK>
 VINA RESULT:      -4.9      2.699      5.136
  Name = 
  14 active torsions:
  status: ('A' for Active; 'I' for Inactive)
    1  A    between atoms: P_1  and  O_6
    2  A    between atoms: P_1  and  C_60
    3  A    between atoms: O_6  and  C_15
    4  A    between atoms: C_8  and  C_10
    5  A    between atoms: C_9  and  C_11
    6  A    between atoms: C_11  and  C_14
    7  A    between atoms: C_18  and  C_26
    8  A    between atoms: O_29  and  C_44
    9  A    between atoms: O_29  and  C_61
   10  A    between atoms: C_30  and  C_55
   11  A    between atoms: C_36  and  N_49
   12  A    between atoms: C_43  and  C_47
   13  A    between atoms: C_44  and  C_60
   14  A    between atoms: C_57  and  C_58
                            x       y       z     vdW  Elec       q    Type
                         _______ _______ _______ _____ _____    ______ ____

>  <TORSDO>
F 14

$$$$
=
 OpenBabel10222418363D

 62 70  0  0  1  0  0  0  0  0999 V2000
  187.7110  178.0990  140.0800 C   0  0  0  0  0  0  0  0  0  0  0  0
  188.2830  176.3130  137.9960 C   0  0  0  0  0  0  0  0  0  0  0  0
  183.4210  175.5200  136.6140 C   0  0  0  0  0  0  0  0  0  0  0  0
  184.2210  180.2160  140.5810 O   0  0  0  0  0  0  0  0  0  0  0  0
  184.3720  176.1000  137.3080 C   0  0  0  0  0  0  0  0  0  0  0  0
  182.2250  174.8940  137.2700 C   0  0  1  0  0  3  0  0  0  0  0  0
  188.9130  176.9550  141.6010 N   0  0  0  0  0  0  0  0  0  0  0  0
  184.0910  177.6040  139.3320 C   0  0  0  0  0  0  0  0  0  0  0  0
  183.3320  175.3110  139.3810 O   0  0  0  0  0  0  0  0  0  0  0  0
  187.3460  178.6300  141.3810 C   0  0  0  0  0  0  0  0  0  0  0  0
  187.0470  178.1770  138.9740 N   0  0  0  0  0  0  0  0  0  0  0  0
  189.1340  176.1530  139.2520 C   0  0  0  0  0  2  0  0  0  0  0  0
  186.2210  179.5750  141.7100 C   0  0  0  0  0  2  0  0  0  0  0  0
  187.3190  177.2740  137.8860 C   0  0  0  0  0  0  0  0  0  0  0  0
  184.9910  179.2750  140.9130 C   0  0  0  0  0  0  0  0  0  0  0  0
  184.7290  177.9560  140.5260 O   0  0  0  0  0  0  0  0  0  0  0  0
  186.4770  177.4300  136.6540 C   0  0  0  0  0  2  0  0  0  0  0  0
  185.5150  176.3440  136.4880 N   0  0  0  0  0  0  0  0  0  0  0  0
  183.3910  178.4350  138.6940 O   0  0  0  0  0  0  0  0  0  0  0  0
  185.1720  175.8620  135.1520 C   0  0  0  0  0  3  0  0  0  0  0  0
  182.0940  175.4290  138.7020 C   0  0  0  0  0  2  0  0  0  0  0  0
  183.8350  175.2810  135.2760 N   0  0  0  0  0  0  0  0  0  0  0  0
  188.6690  177.0710  140.3360 C   0  0  0  0  0  0  0  0  0  0  0  0
  188.0850  177.9360  142.2530 C   0  0  0  0  0  0  0  0  0  0  0  0
  184.2810  176.2100  138.8180 C   0  0  1  0  0  3  0  0  0  0  0  0
  179.4730  174.3630  134.6440 C   0  0  0  0  0  2  0  0  0  0  0  0
  180.9590  175.0860  136.4870 C   0  0  0  0  0  0  0  0  0  0  0  0
  178.9310  175.7930  134.6220 C   0  0  0  0  0  2  0  0  0  0  0  0
  180.7610  174.3030  135.4180 C   0  0  0  0  0  3  0  0  0  0  0  0
  178.9350  176.3760  136.0090 C   0  0  0  0  0  3  0  0  0  0  0  0
  179.9180  176.0780  136.8770 C   0  0  0  0  0  0  0  0  0  0  0  0
  179.9640  176.6810  138.1410 O   0  0  0  0  0  0  0  0  0  0  0  0
  179.5420  178.0220  138.3650 C   0  0  0  0  0  2  0  0  0  0  0  0
  179.3790  178.2660  139.8520 C   0  0  0  0  0  2  0  0  0  0  0  0
  180.1750  179.8300  140.3160 P   0  0  2  0  0  0  0  0  0  0  0  0
  181.0650  179.5920  141.5190 O   0  0  0  0  0  1  0  0  0  0  0  0
  178.9940  180.9770  140.7030 O   0  0  0  0  0  0  0  0  0  0  0  0
  181.0980  180.3810  139.0030 O   0  0  0  0  0  0  0  0  0  0  0  0
  180.4830  181.5620  138.5800 C   0  0  2  0  0  3  0  0  0  0  0  0
  180.7730  181.7860  137.1690 C   0  0  0  0  0  2  0  0  0  0  0  0
  181.5220  182.5270  138.1960 N   0  0  0  0  0  2  0  0  0  0  0  0
  188.7570  174.6690  136.0390 N   0  0  0  0  0  0  0  0  0  0  0  0
  188.5460  175.4000  136.9120 C   0  0  0  0  0  0  0  0  0  0  0  0
  186.6750  177.8040  144.2470 C   0  0  0  0  0  3  0  0  0  0  0  0
  187.8740  177.9720  143.7030 C   0  0  0  0  0  3  0  0  0  0  0  0
  186.4700  177.9660  145.6950 C   0  0  0  0  0  0  0  0  0  0  0  0
  185.2990  178.0910  146.1470 O   0  0  0  0  0  0  0  0  0  0  0  0
  189.7890  177.7570  148.3950 C   0  0  0  0  0  3  0  0  0  0  0  0
  187.6070  177.9170  146.6340 C   0  0  0  0  0  0  0  0  0  0  0  0
  187.4530  178.2690  147.9830 C   0  0  0  0  0  3  0  0  0  0  0  0
  188.8640  177.4940  146.1770 C   0  0  0  0  0  3  0  0  0  0  0  0
  189.9560  177.3990  147.0520 C   0  0  0  0  0  0  0  0  0  0  0  0
  188.5410  178.1890  148.8590 C   0  0  0  0  0  3  0  0  0  0  0  0
  191.8770  174.6630  145.8320 C   0  0  0  0  0  2  0  0  0  0  0  0
  192.4570  175.6910  144.4620 S   0  0  0  0  0  0  0  0  0  0  0  0
  191.3730  177.0250  145.0410 C   0  0  1  0  0  3  0  0  0  0  0  0
  191.3130  176.9720  146.5610 C   0  0  2  0  0  3  0  0  0  0  0  0
  191.6790  175.5620  147.0350 C   0  0  2  0  0  3  0  0  0  0  0  0
  191.4180  178.5560  143.2770 C   0  0  0  0  0  1  0  0  0  0  0  0
  191.9110  178.3100  144.6220 N   0  0  0  0  0  2  0  0  0  0  0  0
  192.9450  175.5810  147.8830 C   0  0  0  0  0  2  0  0  0  0  0  0
  192.9920  176.8000  148.6750 N   0  0  0  0  0  1  0  0  0  0  0  0
  1 23  1  0  0  0  0
  1 10  1  0  0  0  0
  2 12  1  0  0  0  0
  3  6  1  0  0  0  0
  3  5  2  0  0  0  0
  4 15  2  0  0  0  0
  6 27  1  6  0  0  0
  6 21  1  0  0  0  0
  7 24  1  0  0  0  0
  8 16  1  0  0  0  0
 10 13  1  0  0  0  0
 10 24  2  0  0  0  0
 11  1  2  0  0  0  0
 12 23  1  0  0  0  0
 14  2  2  0  0  0  0
 14 11  1  0  0  0  0
 15 13  1  0  0  0  0
 16 15  1  0  0  0  0
 17 14  1  0  0  0  0
 18 17  1  0  0  0  0
 18  5  1  0  0  0  0
 19  8  2  0  0  0  0
 20 22  2  0  0  0  0
 20 18  1  0  0  0  0
 21  9  1  0  0  0  0
 22  3  1  0  0  0  0
 23  7  2  0  0  0  0
 24 45  1  0  0  0  0
 25  5  1  6  0  0  0
 25  8  1  0  0  0  0
 25  9  1  0  0  0  0
 26 29  1  0  0  0  0
 27 31  1  0  0  0  0
 28 26  1  0  0  0  0
 28 30  1  0  0  0  0
 29 27  2  0  0  0  0
 30 31  2  0  0  0  0
 31 32  1  0  0  0  0
 32 33  1  0  0  0  0
 33 34  1  0  0  0  0
 34 35  1  0  0  0  0
 35 37  2  1  0  0  0
 35 36  1  0  0  0  0
 38 35  1  0  0  0  0
 39 38  1  1  0  0  0
 40 41  1  0  0  0  0
 40 39  1  0  0  0  0
 41 39  1  0  0  0  0
 42 43  3  0  0  0  0
 43  2  1  0  0  0  0
 44 46  1  0  0  0  0
 45 44  2  0  0  0  0
 46 47  2  0  0  0  0
 46 49  1  0  0  0  0
 48 53  1  0  0  0  0
 49 50  1  0  0  0  0
 50 53  2  0  0  0  0
 51 49  2  0  0  0  0
 51 52  1  0  0  0  0
 52 48  2  0  0  0  0
 54 58  1  0  0  0  0
 55 56  1  0  0  0  0
 55 54  1  0  0  0  0
 56 60  1  1  0  0  0
 56 57  1  0  0  0  0
 57 58  1  0  0  0  0
 57 52  1  6  0  0  0
 58 61  1  6  0  0  0
 59 60  1  0  0  0  0
 61 62  1  0  0  0  0
M  END
>  <MODEL>
6

>  <REMARK>
 VINA RESULT:      -4.3      2.887      6.739
  Name = 
  14 active torsions:
  status: ('A' for Active; 'I' for Inactive)
    1  A    between atoms: P_1  and  O_6
    2  A    between atoms: P_1  and  C_60
    3  A    between atoms: O_6  and  C_15
    4  A    between atoms: C_8  and  C_10
    5  A    between atoms: C_9  and  C_11
    6  A    between atoms: C_11  and  C_14
    7  A    between atoms: C_18  and  C_26
    8  A    between atoms: O_29  and  C_44
    9  A    between atoms: O_29  and  C_61
   10  A    between atoms: C_30  and  C_55
   11  A    between atoms: C_36  and  N_49
   12  A    between atoms: C_43  and  C_47
   13  A    between atoms: C_44  and  C_60
   14  A    between atoms: C_57  and  C_58
                            x       y       z     vdW  Elec       q    Type
                         _______ _______ _______ _____ _____    ______ ____

>  <TORSDO>
F 14

$$$$
