=
 OpenBabel10222417133D

 51 58  0  0  1  0  0  0  0  0999 V2000
  187.6000  177.1380  138.5520 S   0  0  0  0  0  0  0  0  0  0  0  0
  188.6880  177.9120  136.1760 C   0  0  0  0  0  1  0  0  0  0  0  0
  187.4890  178.1790  137.0690 C   0  0  1  0  0  3  0  0  0  0  0  0
  186.2060  177.8510  136.3310 C   0  0  0  0  0  2  0  0  0  0  0  0
  186.1820  176.3860  135.9310 C   0  0  0  0  0  2  0  0  0  0  0  0
  180.5010  175.6870  138.9640 C   0  0  0  0  0  3  0  0  0  0  0  0
  179.9120  175.5260  140.2210 C   0  0  0  0  0  3  0  0  0  0  0  0
  184.7550  175.2190  137.3700 C   0  0  0  0  0  2  0  0  0  0  0  0
  183.9250  177.0100  136.1240 C   0  0  1  0  0  3  0  0  0  0  0  0
  184.8320  175.8660  136.0670 N   0  0  0  0  0  0  0  0  0  0  0  0
  180.3330  178.0910  139.1830 C   0  0  0  0  0  0  0  0  0  0  0  0
  183.0980  177.0690  134.8360 C   0  0  0  0  0  2  0  0  0  0  0  0
  179.6030  179.4610  137.3170 C   0  0  1  0  0  3  0  0  0  0  0  0
  179.5420  176.6450  140.9650 C   0  0  0  0  0  3  0  0  0  0  0  0
  183.0570  176.8830  137.3920 C   0  0  1  0  0  3  0  0  0  0  0  0
  180.3240  179.3790  138.5780 N   0  0  0  0  0  0  0  0  0  0  0  0
  182.0970  178.0720  134.9560 O   0  0  0  0  0  0  0  0  0  0  0  0
  179.7410  177.9230  140.4440 C   0  0  0  0  0  3  0  0  0  0  0  0
  181.5390  177.0580  137.1520 C   0  0  2  0  0  3  0  0  0  0  0  0
  179.0460  180.7300  137.1440 O   0  0  0  0  0  1  0  0  0  0  0  0
  181.3020  178.1430  136.1020 C   0  0  0  0  0  0  0  0  0  0  0  0
  180.4910  179.1550  136.2100 N   0  0  0  0  0  0  0  0  0  0  0  0
  183.3940  175.5210  137.9420 C   0  0  0  0  0  2  0  0  0  0  0  0
  180.7220  176.9660  138.4300 C   0  0  0  0  0  0  0  0  0  0  0  0
  182.2310  180.8730  138.5530 C   0  0  0  0  0  2  0  0  0  0  0  0
  181.0750  180.4950  139.0850 C   0  0  0  0  0  3  0  0  0  0  0  0
  187.2020  178.5190  139.6720 C   0  0  1  0  0  3  0  0  0  0  0  0
  183.4460  178.9050  144.9660 C   0  0  0  0  0  3  0  0  0  0  0  0
  184.0350  178.6820  142.6210 C   0  0  0  0  0  0  0  0  0  0  0  0
  183.6440  178.6070  141.1670 C   0  0  0  0  0  2  0  0  0  0  0  0
  184.7830  178.7210  145.3260 C   0  0  0  0  0  3  0  0  0  0  0  0
  181.6230  179.0650  143.2840 C   0  0  0  0  0  1  0  0  0  0  0  0
  186.3840  178.3020  141.9890 N   0  0  0  0  0  2  0  0  0  0  0  0
  183.0640  178.8800  143.6220 C   0  0  0  0  0  0  0  0  0  0  0  0
  185.7500  178.5120  144.3400 C   0  0  0  0  0  3  0  0  0  0  0  0
  185.3810  178.4820  142.9930 C   0  0  0  0  0  0  0  0  0  0  0  0
  184.8000  179.0030  140.2510 C   0  0  0  0  0  2  0  0  0  0  0  0
  186.0280  178.1540  140.5790 C   0  0  1  0  0  3  0  0  0  0  0  0
  188.3750  178.8660  140.4630 N   0  0  0  0  0  2  0  0  0  0  0  0
  189.4090  177.8880  140.1630 C   0  0  0  0  0  2  0  0  0  0  0  0
  191.0310  176.8150  141.7740 C   0  0  2  0  0  0  0  0  0  0  0  0
  191.7980  177.2960  140.5650 C   0  0  0  0  0  2  0  0  0  0  0  0
  190.2470  175.6720  141.5810 O   0  0  0  0  0  1  0  0  0  0  0  0
  190.6050  178.0990  141.0830 C   0  0  1  0  0  3  0  0  0  0  0  0
  188.6060  176.4570  143.9860 O   0  0  0  0  0  1  0  0  0  0  0  0
  191.6990  176.9910  143.0660 N   0  0  1  0  0  0  0  0  0  0  0  0
  191.9230  178.4270  143.3260 C   0  0  0  0  0  2  0  0  0  0  0  0
  191.2030  178.9620  144.5650 C   0  0  0  0  0  2  0  0  0  0  0  0
  189.7260  176.9480  144.6540 C   0  0  2  0  0  3  0  0  0  0  0  0
  189.7690  178.4700  144.5520 C   0  0  0  0  0  2  0  0  0  0  0  0
  191.0010  176.2580  144.1400 C   0  0  0  0  0  2  0  0  0  0  0  0
  3  2  1  6  0  0  0
  3  1  1  0  0  0  0
  4  3  1  0  0  0  0
  5 10  1  0  0  0  0
  5  4  1  0  0  0  0
  6  7  1  0  0  0  0
  7 14  2  0  0  0  0
  8 23  1  0  0  0  0
  9 12  1  6  0  0  0
  9 15  1  0  0  0  0
 10  9  1  0  0  0  0
 10  8  1  0  0  0  0
 11 18  2  0  0  0  0
 12 17  1  0  0  0  0
 13 20  1  6  0  0  0
 13 16  1  0  0  0  0
 15 23  1  6  0  0  0
 16 26  1  0  0  0  0
 16 11  1  0  0  0  0
 17 21  1  0  0  0  0
 18 14  1  0  0  0  0
 19 21  1  1  0  0  0
 19 15  1  0  0  0  0
 19 24  1  0  0  0  0
 21 22  2  0  0  0  0
 22 13  1  0  0  0  0
 24  6  2  0  0  0  0
 24 11  1  0  0  0  0
 25 26  2  0  0  0  0
 27  1  1  6  0  0  0
 27 39  1  0  0  0  0
 28 31  1  0  0  0  0
 29 36  2  0  0  0  0
 29 34  1  0  0  0  0
 30 29  1  0  0  0  0
 32 34  1  0  0  0  0
 33 36  1  0  0  0  0
 34 28  2  0  0  0  0
 35 31  2  0  0  0  0
 36 35  1  0  0  0  0
 37 38  1  0  0  0  0
 37 30  1  0  0  0  0
 38 27  1  6  0  0  0
 38 33  1  0  0  0  0
 40 39  1  0  0  0  0
 41 43  1  6  0  0  0
 41 46  1  0  0  0  0
 42 44  1  0  0  0  0
 42 41  1  0  0  0  0
 44 40  1  6  0  0  0
 44 41  1  0  0  0  0
 46 47  1  1  0  0  0
 46 51  1  0  0  0  0
 47 48  1  0  0  0  0
 49 45  1  6  0  0  0
 50 48  1  0  0  0  0
 50 49  1  0  0  0  0
 51 49  1  0  0  0  0
M  END
>  <MODEL>
1

>  <REMARK>
 VINA RESULT:      -7.6      0.000      0.000
  Name = 
  11 active torsions:
  status: ('A' for Active; 'I' for Inactive)
    1  A    between atoms: C_2  and  N_16
    2  A    between atoms: C_3  and  N_11
    3  A    between atoms: C_3  and  S_45
    4  A    between atoms: C_3  and  C_49
    5  A    between atoms: N_10  and  C_27
    6  A    between atoms: N_11  and  C_42
    7  A    between atoms: C_23  and  C_42
    8  A    between atoms: C_24  and  N_33
    9  A    between atoms: C_27  and  C_43
   10  A    between atoms: C_35  and  C_43
   11  A    between atoms: C_35  and  S_45
                            x       y       z     vdW  Elec       q    Type
                         _______ _______ _______ _____ _____    ______ ____

>  <TORSDO>
F 11

$$$$
=
 OpenBabel10222417133D

 51 58  0  0  1  0  0  0  0  0999 V2000
  188.3210  178.9320  141.2250 S   0  0  0  0  0  0  0  0  0  0  0  0
  187.8060  177.9450  138.7380 C   0  0  0  0  0  1  0  0  0  0  0  0
  188.5670  177.6090  140.0070 C   0  0  1  0  0  3  0  0  0  0  0  0
  190.0490  177.4820  139.7090 C   0  0  0  0  0  2  0  0  0  0  0  0
  190.3520  176.1260  139.0970 C   0  0  0  0  0  2  0  0  0  0  0  0
  196.0500  175.0610  136.2030 C   0  0  0  0  0  3  0  0  0  0  0  0
  197.4200  174.9260  136.4390 C   0  0  0  0  0  3  0  0  0  0  0  0
  192.5620  176.7340  138.6320 C   0  0  0  0  0  2  0  0  0  0  0  0
  191.5880  174.9540  137.4780 C   0  0  1  0  0  3  0  0  0  0  0  0
  191.3180  176.2830  138.0230 N   0  0  0  0  0  0  0  0  0  0  0  0
  195.7510  172.6790  136.5130 C   0  0  0  0  0  0  0  0  0  0  0  0
  190.9860  174.8470  136.0730 C   0  0  0  0  0  2  0  0  0  0  0  0
  194.3220  171.4020  135.0240 C   0  0  1  0  0  3  0  0  0  0  0  0
  197.9570  173.6700  136.7220 C   0  0  0  0  0  3  0  0  0  0  0  0
  193.1110  174.7160  137.5000 C   0  0  1  0  0  3  0  0  0  0  0  0
  194.9650  171.5080  136.3240 N   0  0  0  0  0  0  0  0  0  0  0  0
  191.3910  173.6230  135.4720 O   0  0  0  0  0  0  0  0  0  0  0  0
  197.1270  172.5500  136.7480 C   0  0  0  0  0  3  0  0  0  0  0  0
  193.7030  174.2060  136.1650 C   0  0  2  0  0  3  0  0  0  0  0  0
  194.1870  170.0650  134.6440 O   0  0  0  0  0  1  0  0  0  0  0  0
  192.7290  173.2270  135.5080 C   0  0  0  0  0  0  0  0  0  0  0  0
  193.0190  172.0420  135.0530 N   0  0  0  0  0  0  0  0  0  0  0  0
  193.6920  176.0450  137.9110 C   0  0  0  0  0  2  0  0  0  0  0  0
  195.1980  173.9460  136.2390 C   0  0  0  0  0  0  0  0  0  0  0  0
  195.6620  169.8350  137.9310 C   0  0  0  0  0  2  0  0  0  0  0  0
  194.7010  170.5570  137.3700 C   0  0  0  0  0  3  0  0  0  0  0  0
  186.8180  178.1600  141.9070 C   0  0  1  0  0  3  0  0  0  0  0  0
  190.1580  177.1250  147.3900 C   0  0  0  0  0  3  0  0  0  0  0  0
  188.2400  177.4370  145.9330 C   0  0  0  0  0  0  0  0  0  0  0  0
  186.7590  177.6250  145.7300 C   0  0  0  0  0  2  0  0  0  0  0  0
  190.9910  176.9930  146.2760 C   0  0  0  0  0  3  0  0  0  0  0  0
  187.9330  177.4610  148.4440 C   0  0  0  0  0  1  0  0  0  0  0  0
  188.5530  177.4050  143.4910 N   0  0  0  0  0  2  0  0  0  0  0  0
  188.7860  177.3400  147.2270 C   0  0  0  0  0  0  0  0  0  0  0  0
  190.4550  177.0750  144.9890 C   0  0  0  0  0  3  0  0  0  0  0  0
  189.0860  177.2870  144.8130 C   0  0  0  0  0  0  0  0  0  0  0  0
  186.4530  178.3000  144.3940 C   0  0  0  0  0  2  0  0  0  0  0  0
  187.1130  177.5150  143.2610 C   0  0  1  0  0  3  0  0  0  0  0  0
  185.7640  179.1580  142.0320 N   0  0  0  0  0  2  0  0  0  0  0  0
  184.8630  178.9860  140.9030 C   0  0  0  0  0  2  0  0  0  0  0  0
  182.3900  178.6220  140.5420 C   0  0  2  0  0  0  0  0  0  0  0  0
  183.1220  177.3450  140.1990 C   0  0  0  0  0  2  0  0  0  0  0  0
  182.5170  179.6630  139.6140 O   0  0  0  0  0  1  0  0  0  0  0  0
  183.6180  178.2280  141.3450 C   0  0  1  0  0  3  0  0  0  0  0  0
  180.3550  177.4920  138.2010 O   0  0  0  0  0  1  0  0  0  0  0  0
  181.1100  178.4580  141.2340 N   0  0  1  0  0  0  0  0  0  0  0  0
  180.4460  179.7690  141.3840 C   0  0  0  0  0  2  0  0  0  0  0  0
  179.0990  179.8780  140.6680 C   0  0  0  0  0  2  0  0  0  0  0  0
  179.5830  177.8370  139.3100 C   0  0  2  0  0  3  0  0  0  0  0  0
  179.2400  179.3230  139.2650 C   0  0  0  0  0  2  0  0  0  0  0  0
  180.2880  177.4040  140.6070 C   0  0  0  0  0  2  0  0  0  0  0  0
  3  2  1  6  0  0  0
  3  1  1  0  0  0  0
  4  3  1  0  0  0  0
  5  4  1  0  0  0  0
  6 24  2  0  0  0  0
  6  7  1  0  0  0  0
  7 14  2  0  0  0  0
  9 12  1  6  0  0  0
  9 15  1  0  0  0  0
  9 10  1  0  0  0  0
 10  8  1  0  0  0  0
 10  5  1  0  0  0  0
 11 18  2  0  0  0  0
 13 20  1  1  0  0  0
 13 22  1  0  0  0  0
 13 16  1  0  0  0  0
 14 18  1  0  0  0  0
 15 23  1  6  0  0  0
 16 11  1  0  0  0  0
 16 26  1  0  0  0  0
 17 21  1  0  0  0  0
 17 12  1  0  0  0  0
 19 21  1  1  0  0  0
 19 24  1  0  0  0  0
 19 15  1  0  0  0  0
 22 21  2  0  0  0  0
 23  8  1  0  0  0  0
 24 11  1  0  0  0  0
 26 25  2  0  0  0  0
 27  1  1  1  0  0  0
 27 39  1  0  0  0  0
 29 34  2  0  0  0  0
 30 29  1  0  0  0  0
 31 28  2  0  0  0  0
 33 36  1  0  0  0  0
 34 28  1  0  0  0  0
 34 32  1  0  0  0  0
 35 31  1  0  0  0  0
 36 35  2  0  0  0  0
 36 29  1  0  0  0  0
 37 30  1  0  0  0  0
 38 27  1  6  0  0  0
 38 33  1  0  0  0  0
 38 37  1  0  0  0  0
 40 39  1  0  0  0  0
 41 43  1  6  0  0  0
 41 46  1  0  0  0  0
 41 44  1  0  0  0  0
 42 41  1  0  0  0  0
 42 44  1  0  0  0  0
 44 40  1  6  0  0  0
 46 51  1  6  0  0  0
 46 47  1  0  0  0  0
 48 47  1  0  0  0  0
 49 45  1  6  0  0  0
 49 51  1  0  0  0  0
 50 49  1  0  0  0  0
 50 48  1  0  0  0  0
M  END
>  <MODEL>
2

>  <REMARK>
 VINA RESULT:      -7.3      4.729     10.891
  Name = 
  11 active torsions:
  status: ('A' for Active; 'I' for Inactive)
    1  A    between atoms: C_2  and  N_16
    2  A    between atoms: C_3  and  N_11
    3  A    between atoms: C_3  and  S_45
    4  A    between atoms: C_3  and  C_49
    5  A    between atoms: N_10  and  C_27
    6  A    between atoms: N_11  and  C_42
    7  A    between atoms: C_23  and  C_42
    8  A    between atoms: C_24  and  N_33
    9  A    between atoms: C_27  and  C_43
   10  A    between atoms: C_35  and  C_43
   11  A    between atoms: C_35  and  S_45
                            x       y       z     vdW  Elec       q    Type
                         _______ _______ _______ _____ _____    ______ ____

>  <TORSDO>
F 11

$$$$
=
 OpenBabel10222417133D

 51 58  0  0  1  0  0  0  0  0999 V2000
  188.6850  176.4080  138.3410 S   0  0  0  0  0  0  0  0  0  0  0  0
  188.4750  178.8130  137.0770 C   0  0  0  0  0  1  0  0  0  0  0  0
  187.7370  177.9320  138.0690 C   0  0  1  0  0  3  0  0  0  0  0  0
  186.3670  177.5710  137.5280 C   0  0  0  0  0  2  0  0  0  0  0  0
  186.4370  176.2880  136.7190 C   0  0  0  0  0  2  0  0  0  0  0  0
  180.5180  174.5370  138.6850 C   0  0  0  0  0  3  0  0  0  0  0  0
  179.8190  173.9130  139.7210 C   0  0  0  0  0  3  0  0  0  0  0  0
  184.9150  174.6740  137.4560 C   0  0  0  0  0  2  0  0  0  0  0  0
  184.1550  176.8130  136.9130 C   0  0  1  0  0  3  0  0  0  0  0  0
  185.0960  175.7690  136.5130 N   0  0  0  0  0  0  0  0  0  0  0  0
  180.2620  176.6760  139.7870 C   0  0  0  0  0  0  0  0  0  0  0  0
  183.4510  177.3680  135.6710 C   0  0  0  0  0  2  0  0  0  0  0  0
  179.6720  178.6630  138.5230 C   0  0  1  0  0  3  0  0  0  0  0  0
  179.3490  174.6660  140.7960 C   0  0  0  0  0  3  0  0  0  0  0  0
  183.1750  176.2190  137.9460 C   0  0  1  0  0  3  0  0  0  0  0  0
  180.2730  178.0980  139.7210 N   0  0  0  0  0  0  0  0  0  0  0  0
  182.4150  178.2580  136.0670 O   0  0  0  0  0  0  0  0  0  0  0  0
  179.5600  176.0450  140.8240 C   0  0  0  0  0  3  0  0  0  0  0  0
  181.6820  176.4870  137.6440 C   0  0  2  0  0  3  0  0  0  0  0  0
  179.0980  179.9060  138.7940 O   0  0  0  0  0  1  0  0  0  0  0  0
  181.5150  177.8930  137.0690 C   0  0  0  0  0  0  0  0  0  0  0  0
  180.6680  178.7950  137.4750 N   0  0  0  0  0  0  0  0  0  0  0  0
  183.4980  174.7470  137.9650 C   0  0  0  0  0  2  0  0  0  0  0  0
  180.7520  175.9210  138.7030 C   0  0  0  0  0  0  0  0  0  0  0  0
  182.1390  178.6270  141.1730 C   0  0  0  0  0  2  0  0  0  0  0  0
  180.9420  178.9280  140.6860 C   0  0  0  0  0  3  0  0  0  0  0  0
  189.7680  177.1860  139.5830 C   0  0  1  0  0  3  0  0  0  0  0  0
  190.0030  177.1850  146.0820 C   0  0  0  0  0  3  0  0  0  0  0  0
  189.0460  177.2800  143.8520 C   0  0  0  0  0  0  0  0  0  0  0  0
  187.8730  177.5030  142.9310 C   0  0  0  0  0  2  0  0  0  0  0  0
  191.2230  176.7640  145.5460 C   0  0  0  0  0  3  0  0  0  0  0  0
  187.6240  177.8690  145.8600 C   0  0  0  0  0  1  0  0  0  0  0  0
  190.4380  176.6970  141.9070 N   0  0  0  0  0  2  0  0  0  0  0  0
  188.9120  177.4370  145.2450 C   0  0  0  0  0  0  0  0  0  0  0  0
  191.3600  176.5940  144.1680 C   0  0  0  0  0  3  0  0  0  0  0  0
  190.2770  176.8400  143.3210 C   0  0  0  0  0  0  0  0  0  0  0  0
  188.3260  177.8860  141.5240 C   0  0  0  0  0  2  0  0  0  0  0  0
  189.3030  176.8360  140.9960 C   0  0  1  0  0  3  0  0  0  0  0  0
  191.1440  176.7580  139.3740 N   0  0  0  0  0  2  0  0  0  0  0  0
  191.3130  176.5030  137.9520 C   0  0  0  0  0  2  0  0  0  0  0  0
  193.4300  175.2580  137.3660 C   0  0  2  0  0  0  0  0  0  0  0  0
  192.9960  176.0660  136.1650 C   0  0  0  0  0  2  0  0  0  0  0  0
  192.6660  174.1170  137.6380 O   0  0  0  0  0  1  0  0  0  0  0  0
  192.7840  176.6170  137.5750 C   0  0  1  0  0  3  0  0  0  0  0  0
  194.5800  173.2950  134.9740 O   0  0  0  0  0  1  0  0  0  0  0  0
  194.8730  175.2060  137.6120 N   0  0  1  0  0  0  0  0  0  0  0  0
  195.1620  174.2720  138.7190 C   0  0  0  0  0  2  0  0  0  0  0  0
  196.0260  173.0750  138.3230 C   0  0  0  0  0  2  0  0  0  0  0  0
  195.6070  173.4940  135.8950 C   0  0  2  0  0  3  0  0  0  0  0  0
  195.4900  172.4850  137.0330 C   0  0  0  0  0  2  0  0  0  0  0  0
  195.6250  174.9580  136.3670 C   0  0  0  0  0  2  0  0  0  0  0  0
  3  2  1  6  0  0  0
  3  1  1  0  0  0  0
  4  3  1  0  0  0  0
  5  4  1  0  0  0  0
  6 24  2  0  0  0  0
  6  7  1  0  0  0  0
  7 14  2  0  0  0  0
  8 23  1  0  0  0  0
  9 12  1  6  0  0  0
  9 15  1  0  0  0  0
 10  5  1  0  0  0  0
 10  9  1  0  0  0  0
 10  8  1  0  0  0  0
 11 18  2  0  0  0  0
 12 17  1  0  0  0  0
 13 20  1  1  0  0  0
 13 16  1  0  0  0  0
 14 18  1  0  0  0  0
 15 23  1  6  0  0  0
 16 11  1  0  0  0  0
 16 26  1  0  0  0  0
 17 21  1  0  0  0  0
 19 21  1  1  0  0  0
 19 15  1  0  0  0  0
 19 24  1  0  0  0  0
 21 22  2  0  0  0  0
 22 13  1  0  0  0  0
 24 11  1  0  0  0  0
 26 25  2  0  0  0  0
 27  1  1  6  0  0  0
 29 34  1  0  0  0  0
 30 29  1  0  0  0  0
 31 28  1  0  0  0  0
 33 36  1  0  0  0  0
 34 32  1  0  0  0  0
 34 28  2  0  0  0  0
 35 31  2  0  0  0  0
 36 29  2  0  0  0  0
 36 35  1  0  0  0  0
 37 30  1  0  0  0  0
 38 27  1  6  0  0  0
 38 37  1  0  0  0  0
 38 33  1  0  0  0  0
 39 27  1  0  0  0  0
 40 39  1  0  0  0  0
 41 44  1  0  0  0  0
 41 46  1  0  0  0  0
 41 43  1  1  0  0  0
 42 41  1  0  0  0  0
 42 44  1  0  0  0  0
 44 40  1  1  0  0  0
 46 51  1  6  0  0  0
 46 47  1  0  0  0  0
 48 47  1  0  0  0  0
 49 45  1  6  0  0  0
 49 51  1  0  0  0  0
 49 50  1  0  0  0  0
 50 48  1  0  0  0  0
M  END
>  <MODEL>
3

>  <REMARK>
 VINA RESULT:      -7.3      3.043      4.777
  Name = 
  11 active torsions:
  status: ('A' for Active; 'I' for Inactive)
    1  A    between atoms: C_2  and  N_16
    2  A    between atoms: C_3  and  N_11
    3  A    between atoms: C_3  and  S_45
    4  A    between atoms: C_3  and  C_49
    5  A    between atoms: N_10  and  C_27
    6  A    between atoms: N_11  and  C_42
    7  A    between atoms: C_23  and  C_42
    8  A    between atoms: C_24  and  N_33
    9  A    between atoms: C_27  and  C_43
   10  A    between atoms: C_35  and  C_43
   11  A    between atoms: C_35  and  S_45
                            x       y       z     vdW  Elec       q    Type
                         _______ _______ _______ _____ _____    ______ ____

>  <TORSDO>
F 11

$$$$
=
 OpenBabel10222417133D

 51 58  0  0  1  0  0  0  0  0999 V2000
  189.2440  176.2980  138.0870 S   0  0  0  0  0  0  0  0  0  0  0  0
  189.1120  179.0040  137.7960 C   0  0  0  0  0  1  0  0  0  0  0  0
  188.2720  177.7540  137.6060 C   0  0  1  0  0  3  0  0  0  0  0  0
  187.8620  177.6160  136.1530 C   0  0  0  0  0  2  0  0  0  0  0  0
  186.3500  177.6460  136.0230 C   0  0  0  0  0  2  0  0  0  0  0  0
  181.3380  175.7780  139.6770 C   0  0  0  0  0  3  0  0  0  0  0  0
  180.0570  176.1460  140.0970 C   0  0  0  0  0  3  0  0  0  0  0  0
  184.8080  178.0280  137.7380 C   0  0  0  0  0  2  0  0  0  0  0  0
  184.9480  175.9120  136.7640 C   0  0  1  0  0  3  0  0  0  0  0  0
  185.7480  177.0520  137.2050 N   0  0  0  0  0  0  0  0  0  0  0  0
  180.3930  174.6210  137.7730 C   0  0  0  0  0  0  0  0  0  0  0  0
  185.6170  174.6120  137.2220 C   0  0  0  0  0  2  0  0  0  0  0  0
  181.2190  172.4370  137.1120 C   0  0  1  0  0  3  0  0  0  0  0  0
  178.9430  175.7600  139.3520 C   0  0  0  0  0  3  0  0  0  0  0  0
  183.5160  176.0780  137.3110 C   0  0  1  0  0  3  0  0  0  0  0  0
  180.5290  173.6590  136.7330 N   0  0  0  0  0  0  0  0  0  0  0  0
  184.7600  173.5110  136.9480 O   0  0  0  0  0  0  0  0  0  0  0  0
  179.1100  174.9920  138.2000 C   0  0  0  0  0  3  0  0  0  0  0  0
  182.9510  174.8270  138.0240 C   0  0  2  0  0  3  0  0  0  0  0  0
  180.7400  171.3490  136.3800 O   0  0  0  0  0  1  0  0  0  0  0  0
  183.4090  173.5640  137.2950 C   0  0  0  0  0  0  0  0  0  0  0  0
  182.6480  172.5810  136.9070 N   0  0  0  0  0  0  0  0  0  0  0  0
  183.6020  177.2690  138.2310 C   0  0  0  0  0  2  0  0  0  0  0  0
  181.5250  175.0170  138.5140 C   0  0  0  0  0  0  0  0  0  0  0  0
  180.2260  175.1150  134.8200 C   0  0  0  0  0  2  0  0  0  0  0  0
  180.1440  173.9100  135.3710 C   0  0  0  0  0  3  0  0  0  0  0  0
  190.0910  177.1860  139.4350 C   0  0  1  0  0  3  0  0  0  0  0  0
  189.4950  177.2960  145.9100 C   0  0  0  0  0  3  0  0  0  0  0  0
  188.8260  177.3060  143.5750 C   0  0  0  0  0  0  0  0  0  0  0  0
  187.7710  177.4520  142.5090 C   0  0  0  0  0  2  0  0  0  0  0  0
  190.7930  176.9330  145.5420 C   0  0  0  0  0  3  0  0  0  0  0  0
  187.1320  177.8500  145.3740 C   0  0  0  0  0  1  0  0  0  0  0  0
  190.4830  176.7680  141.8350 N   0  0  0  0  0  2  0  0  0  0  0  0
  188.5080  177.4770  144.9360 C   0  0  0  0  0  0  0  0  0  0  0  0
  191.1140  176.7490  144.1960 C   0  0  0  0  0  3  0  0  0  0  0  0
  190.1360  176.9250  143.2140 C   0  0  0  0  0  0  0  0  0  0  0  0
  188.3790  177.8380  141.1620 C   0  0  0  0  0  2  0  0  0  0  0  0
  189.4670  176.8330  140.7850 C   0  0  1  0  0  3  0  0  0  0  0  0
  191.5110  176.8600  139.4230 N   0  0  0  0  0  2  0  0  0  0  0  0
  191.8240  176.3150  138.1110 C   0  0  0  0  0  2  0  0  0  0  0  0
  193.8900  175.0510  137.3980 C   0  0  2  0  0  0  0  0  0  0  0  0
  193.6160  176.1400  136.3870 C   0  0  0  0  0  2  0  0  0  0  0  0
  193.0280  173.9500  137.3530 O   0  0  0  0  0  1  0  0  0  0  0  0
  193.3260  176.3810  137.8680 C   0  0  1  0  0  3  0  0  0  0  0  0
  195.0710  173.4810  134.7460 O   0  0  0  0  0  1  0  0  0  0  0  0
  195.3000  174.8200  137.7210 N   0  0  1  0  0  0  0  0  0  0  0  0
  195.4250  173.6700  138.6390 C   0  0  0  0  0  2  0  0  0  0  0  0
  196.2220  172.4950  138.0710 C   0  0  0  0  0  2  0  0  0  0  0  0
  196.0330  173.4050  135.7510 C   0  0  2  0  0  3  0  0  0  0  0  0
  195.7470  172.2130  136.6590 C   0  0  0  0  0  2  0  0  0  0  0  0
  196.1280  174.7450  136.5010 C   0  0  0  0  0  2  0  0  0  0  0  0
  3  2  1  6  0  0  0
  3  1  1  0  0  0  0
  4  3  1  0  0  0  0
  5  4  1  0  0  0  0
  5 10  1  0  0  0  0
  6  7  1  0  0  0  0
  8 23  1  0  0  0  0
  9 10  1  0  0  0  0
  9 12  1  1  0  0  0
  9 15  1  0  0  0  0
 10  8  1  0  0  0  0
 11 18  2  0  0  0  0
 11 24  1  0  0  0  0
 13 20  1  6  0  0  0
 14  7  2  0  0  0  0
 15 19  1  0  0  0  0
 15 23  1  1  0  0  0
 16 13  1  0  0  0  0
 16 11  1  0  0  0  0
 17 12  1  0  0  0  0
 17 21  1  0  0  0  0
 18 14  1  0  0  0  0
 19 21  1  6  0  0  0
 19 24  1  0  0  0  0
 22 13  1  0  0  0  0
 22 21  2  0  0  0  0
 24  6  2  0  0  0  0
 25 26  2  0  0  0  0
 26 16  1  0  0  0  0
 27  1  1  6  0  0  0
 29 34  1  0  0  0  0
 30 29  1  0  0  0  0
 31 28  1  0  0  0  0
 33 36  1  0  0  0  0
 34 32  1  0  0  0  0
 34 28  2  0  0  0  0
 35 31  2  0  0  0  0
 36 29  2  0  0  0  0
 36 35  1  0  0  0  0
 37 30  1  0  0  0  0
 38 27  1  6  0  0  0
 38 37  1  0  0  0  0
 38 33  1  0  0  0  0
 39 27  1  0  0  0  0
 40 39  1  0  0  0  0
 41 43  1  1  0  0  0
 41 46  1  0  0  0  0
 41 44  1  0  0  0  0
 42 41  1  0  0  0  0
 42 44  1  0  0  0  0
 44 40  1  6  0  0  0
 46 51  1  6  0  0  0
 46 47  1  0  0  0  0
 48 47  1  0  0  0  0
 49 45  1  6  0  0  0
 49 51  1  0  0  0  0
 49 50  1  0  0  0  0
 50 48  1  0  0  0  0
M  END
>  <MODEL>
4

>  <REMARK>
 VINA RESULT:      -7.2      3.657      5.660
  Name = 
  11 active torsions:
  status: ('A' for Active; 'I' for Inactive)
    1  A    between atoms: C_2  and  N_16
    2  A    between atoms: C_3  and  N_11
    3  A    between atoms: C_3  and  S_45
    4  A    between atoms: C_3  and  C_49
    5  A    between atoms: N_10  and  C_27
    6  A    between atoms: N_11  and  C_42
    7  A    between atoms: C_23  and  C_42
    8  A    between atoms: C_24  and  N_33
    9  A    between atoms: C_27  and  C_43
   10  A    between atoms: C_35  and  C_43
   11  A    between atoms: C_35  and  S_45
                            x       y       z     vdW  Elec       q    Type
                         _______ _______ _______ _____ _____    ______ ____

>  <TORSDO>
F 11

$$$$
=
 OpenBabel10222417133D

 51 58  0  0  1  0  0  0  0  0999 V2000
  189.3890  177.9610  141.1130 S   0  0  0  0  0  0  0  0  0  0  0  0
  189.0560  178.8320  138.5530 C   0  0  0  0  0  1  0  0  0  0  0  0
  188.8650  177.5970  139.4140 C   0  0  1  0  0  3  0  0  0  0  0  0
  189.7010  176.4520  138.8740 C   0  0  0  0  0  2  0  0  0  0  0  0
  190.3760  176.8540  137.5760 C   0  0  0  0  0  2  0  0  0  0  0  0
  186.6330  172.2110  135.0450 C   0  0  0  0  0  3  0  0  0  0  0  0
  186.0420  170.9740  135.3160 C   0  0  0  0  0  3  0  0  0  0  0  0
  189.9840  174.6210  137.0000 C   0  0  0  0  0  2  0  0  0  0  0  0
  188.5050  176.2750  136.2780 C   0  0  1  0  0  3  0  0  0  0  0  0
  189.9200  175.9880  136.5010 N   0  0  0  0  0  0  0  0  0  0  0  0
  184.6710  173.3460  135.8910 C   0  0  0  0  0  0  0  0  0  0  0  0
  188.3350  176.9850  134.9310 C   0  0  0  0  0  2  0  0  0  0  0  0
  183.7440  175.2620  134.7240 C   0  0  1  0  0  3  0  0  0  0  0  0
  184.7690  170.9210  135.8830 C   0  0  0  0  0  3  0  0  0  0  0  0
  187.7170  174.9530  136.3650 C   0  0  1  0  0  3  0  0  0  0  0  0
  183.8740  174.5230  135.9690 N   0  0  0  0  0  0  0  0  0  0  0  0
  186.9520  177.1130  134.6290 O   0  0  0  0  0  0  0  0  0  0  0  0
  184.0810  172.1020  136.1590 C   0  0  0  0  0  3  0  0  0  0  0  0
  186.7470  174.7020  135.1870 C   0  0  2  0  0  3  0  0  0  0  0  0
  182.5110  175.9140  134.6590 O   0  0  0  0  0  1  0  0  0  0  0  0
  186.0950  176.0190  134.7650 C   0  0  0  0  0  0  0  0  0  0  0  0
  184.8210  176.2270  134.5950 N   0  0  0  0  0  0  0  0  0  0  0  0
  188.7810  173.8890  136.4650 C   0  0  0  0  0  2  0  0  0  0  0  0
  185.9620  173.4100  135.3290 C   0  0  0  0  0  0  0  0  0  0  0  0
  182.0650  174.9050  137.5350 C   0  0  0  0  0  2  0  0  0  0  0  0
  183.3440  175.0360  137.2030 C   0  0  0  0  0  3  0  0  0  0  0  0
  187.7370  177.6160  141.8010 C   0  0  1  0  0  3  0  0  0  0  0  0
  190.4230  177.0660  147.6980 C   0  0  0  0  0  3  0  0  0  0  0  0
  188.6890  177.3050  146.0140 C   0  0  0  0  0  0  0  0  0  0  0  0
  187.2520  177.5490  145.6300 C   0  0  0  0  0  2  0  0  0  0  0  0
  191.3530  176.7540  146.7030 C   0  0  0  0  0  3  0  0  0  0  0  0
  188.1290  177.6490  148.4570 C   0  0  0  0  0  1  0  0  0  0  0  0
  189.2460  176.9620  143.6400 N   0  0  0  0  0  2  0  0  0  0  0  0
  189.0920  177.3350  147.3630 C   0  0  0  0  0  0  0  0  0  0  0  0
  190.9590  176.7100  145.3650 C   0  0  0  0  0  3  0  0  0  0  0  0
  189.6320  176.9750  145.0180 C   0  0  0  0  0  0  0  0  0  0  0  0
  187.1310  178.0740  144.2010 C   0  0  0  0  0  2  0  0  0  0  0  0
  187.8470  177.1230  143.2430 C   0  0  1  0  0  3  0  0  0  0  0  0
  186.9130  178.8150  141.7290 N   0  0  0  0  0  2  0  0  0  0  0  0
  185.9460  178.6190  140.6600 C   0  0  0  0  0  2  0  0  0  0  0  0
  183.4730  178.6860  140.1570 C   0  0  2  0  0  0  0  0  0  0  0  0
  183.6810  177.9520  141.4610 C   0  0  0  0  0  2  0  0  0  0  0  0
  183.8340  177.9830  139.0010 O   0  0  0  0  0  1  0  0  0  0  0  0
  184.5800  179.1320  141.0960 C   0  0  1  0  0  3  0  0  0  0  0  0
  180.9020  176.6140  140.1650 O   0  0  0  0  0  1  0  0  0  0  0  0
  182.3050  179.5680  140.1000 N   0  0  1  0  0  0  0  0  0  0  0  0
  182.1020  180.0470  138.7180 C   0  0  0  0  0  2  0  0  0  0  0  0
  180.7730  179.6220  138.0940 C   0  0  0  0  0  2  0  0  0  0  0  0
  180.4250  177.8870  139.8590 C   0  0  2  0  0  3  0  0  0  0  0  0
  180.5520  178.1460  138.3610 C   0  0  0  0  0  2  0  0  0  0  0  0
  181.1250  178.9440  140.7300 C   0  0  0  0  0  2  0  0  0  0  0  0
  3  2  1  6  0  0  0
  3  1  1  0  0  0  0
  4  3  1  0  0  0  0
  5  4  1  0  0  0  0
  6  7  2  0  0  0  0
  6 24  1  0  0  0  0
  7 14  1  0  0  0  0
  9 12  1  6  0  0  0
  9 15  1  0  0  0  0
  9 10  1  0  0  0  0
 10  8  1  0  0  0  0
 10  5  1  0  0  0  0
 11 16  1  0  0  0  0
 11 18  1  0  0  0  0
 13 20  1  1  0  0  0
 13 16  1  0  0  0  0
 14 18  2  0  0  0  0
 15 23  1  6  0  0  0
 16 26  1  0  0  0  0
 17 21  1  0  0  0  0
 17 12  1  0  0  0  0
 19 21  1  1  0  0  0
 19 24  1  0  0  0  0
 19 15  1  0  0  0  0
 22 13  1  0  0  0  0
 22 21  2  0  0  0  0
 23  8  1  0  0  0  0
 24 11  2  0  0  0  0
 26 25  2  0  0  0  0
 27  1  1  1  0  0  0
 29 34  2  0  0  0  0
 30 29  1  0  0  0  0
 31 28  2  0  0  0  0
 33 36  1  0  0  0  0
 34 28  1  0  0  0  0
 34 32  1  0  0  0  0
 35 31  1  0  0  0  0
 36 35  2  0  0  0  0
 36 29  1  0  0  0  0
 37 30  1  0  0  0  0
 38 27  1  6  0  0  0
 38 33  1  0  0  0  0
 38 37  1  0  0  0  0
 39 27  1  0  0  0  0
 40 39  1  0  0  0  0
 41 43  1  6  0  0  0
 41 44  1  0  0  0  0
 41 42  1  0  0  0  0
 44 40  1  6  0  0  0
 44 42  1  0  0  0  0
 46 47  1  6  0  0  0
 46 41  1  0  0  0  0
 46 51  1  0  0  0  0
 48 50  1  0  0  0  0
 48 47  1  0  0  0  0
 49 45  1  6  0  0  0
 49 51  1  0  0  0  0
 50 49  1  0  0  0  0
M  END
>  <MODEL>
5

>  <REMARK>
 VINA RESULT:      -7.2      2.650      6.863
  Name = 
  11 active torsions:
  status: ('A' for Active; 'I' for Inactive)
    1  A    between atoms: C_2  and  N_16
    2  A    between atoms: C_3  and  N_11
    3  A    between atoms: C_3  and  S_45
    4  A    between atoms: C_3  and  C_49
    5  A    between atoms: N_10  and  C_27
    6  A    between atoms: N_11  and  C_42
    7  A    between atoms: C_23  and  C_42
    8  A    between atoms: C_24  and  N_33
    9  A    between atoms: C_27  and  C_43
   10  A    between atoms: C_35  and  C_43
   11  A    between atoms: C_35  and  S_45
                            x       y       z     vdW  Elec       q    Type
                         _______ _______ _______ _____ _____    ______ ____

>  <TORSDO>
F 11

$$$$
=
 OpenBabel10222417133D

 51 58  0  0  1  0  0  0  0  0999 V2000
  188.9150  178.5050  137.7320 S   0  0  0  0  0  0  0  0  0  0  0  0
  188.0900  175.9150  137.5310 C   0  0  0  0  0  1  0  0  0  0  0  0
  189.2530  176.8170  137.1550 C   0  0  1  0  0  3  0  0  0  0  0  0
  189.4330  176.8360  135.6500 C   0  0  0  0  0  2  0  0  0  0  0  0
  190.8300  176.3740  135.2770 C   0  0  0  0  0  2  0  0  0  0  0  0
  194.3950  171.1690  136.7530 C   0  0  0  0  0  3  0  0  0  0  0  0
  195.0060  170.0370  136.2090 C   0  0  0  0  0  3  0  0  0  0  0  0
  191.1850  174.0630  135.2730 C   0  0  0  0  0  2  0  0  0  0  0  0
  192.6060  175.4450  136.5040 C   0  0  1  0  0  3  0  0  0  0  0  0
  191.2120  175.2500  136.1160 N   0  0  0  0  0  0  0  0  0  0  0  0
  196.4100  172.4540  136.3720 C   0  0  0  0  0  0  0  0  0  0  0  0
  192.6790  175.7740  137.9980 C   0  0  0  0  0  2  0  0  0  0  0  0
  197.2470  173.9810  138.0620 C   0  0  1  0  0  3  0  0  0  0  0  0
  196.3160  170.1130  135.7370 C   0  0  0  0  0  3  0  0  0  0  0  0
  193.4010  174.1790  136.1270 C   0  0  1  0  0  3  0  0  0  0  0  0
  197.2070  173.5970  136.6600 N   0  0  0  0  0  0  0  0  0  0  0  0
  194.0370  175.7960  138.4180 O   0  0  0  0  0  0  0  0  0  0  0  0
  197.0190  171.3140  135.8280 C   0  0  0  0  0  3  0  0  0  0  0  0
  194.2860  173.6120  137.2620 C   0  0  2  0  0  3  0  0  0  0  0  0
  198.4720  174.5730  138.3800 O   0  0  0  0  0  1  0  0  0  0  0  0
  194.9040  174.7610  138.0590 C   0  0  0  0  0  0  0  0  0  0  0  0
  196.1620  174.8970  138.3650 N   0  0  0  0  0  0  0  0  0  0  0  0
  192.3500  173.1960  135.6790 C   0  0  0  0  0  2  0  0  0  0  0  0
  195.0820  172.3890  136.8400 C   0  0  0  0  0  0  0  0  0  0  0  0
  197.2060  175.4410  135.0880 C   0  0  0  0  0  2  0  0  0  0  0  0
  197.8230  174.4060  135.6440 C   0  0  0  0  0  3  0  0  0  0  0  0
  187.9020  177.9300  139.1330 C   0  0  1  0  0  3  0  0  0  0  0  0
  189.1210  177.0680  145.4630 C   0  0  0  0  0  3  0  0  0  0  0  0
  189.5620  177.3680  143.0930 C   0  0  0  0  0  0  0  0  0  0  0  0
  190.5140  177.3960  141.9250 C   0  0  0  0  0  2  0  0  0  0  0  0
  187.7830  177.4160  145.2630 C   0  0  0  0  0  3  0  0  0  0  0  0
  191.4380  176.6850  144.6480 C   0  0  0  0  0  1  0  0  0  0  0  0
  187.7290  178.0380  141.5920 N   0  0  0  0  0  2  0  0  0  0  0  0
  190.0150  177.0480  144.3880 C   0  0  0  0  0  0  0  0  0  0  0  0
  187.3290  177.7460  143.9850 C   0  0  0  0  0  3  0  0  0  0  0  0
  188.2130  177.7330  142.9040 C   0  0  0  0  0  0  0  0  0  0  0  0
  189.7920  177.1490  140.6020 C   0  0  0  0  0  2  0  0  0  0  0  0
  188.6410  178.1440  140.4540 C   0  0  1  0  0  3  0  0  0  0  0  0
  186.6260  178.6310  139.1390 N   0  0  0  0  0  2  0  0  0  0  0  0
  185.9070  178.2420  137.9350 C   0  0  0  0  0  2  0  0  0  0  0  0
  183.5190  178.3120  138.7500 C   0  0  2  0  0  0  0  0  0  0  0  0
  183.5340  177.7610  137.3430 C   0  0  0  0  0  2  0  0  0  0  0  0
  183.7480  179.6890  138.8650 O   0  0  0  0  0  1  0  0  0  0  0  0
  184.6730  177.4310  138.3060 C   0  0  1  0  0  3  0  0  0  0  0  0
  180.5760  179.4170  137.7430 O   0  0  0  0  0  1  0  0  0  0  0  0
  182.5690  177.6850  139.6720 N   0  0  1  0  0  0  0  0  0  0  0  0
  182.5640  178.4080  140.9600 C   0  0  0  0  0  2  0  0  0  0  0  0
  181.2200  179.0400  141.3200 C   0  0  0  0  0  2  0  0  0  0  0  0
  180.3980  178.7880  138.9740 C   0  0  2  0  0  3  0  0  0  0  0  0
  180.6760  179.7700  140.1070 C   0  0  0  0  0  2  0  0  0  0  0  0
  181.2460  177.5050  139.0450 C   0  0  0  0  0  2  0  0  0  0  0  0
  3  2  1  6  0  0  0
  3  1  1  0  0  0  0
  4  3  1  0  0  0  0
  5  4  1  0  0  0  0
  5 10  1  0  0  0  0
  6 24  1  0  0  0  0
  7  6  2  0  0  0  0
  8 23  1  0  0  0  0
  8 10  1  0  0  0  0
  9 12  1  1  0  0  0
 10  9  1  0  0  0  0
 11 16  1  0  0  0  0
 11 24  2  0  0  0  0
 12 17  1  0  0  0  0
 13 22  1  0  0  0  0
 13 20  1  6  0  0  0
 14 18  2  0  0  0  0
 14  7  1  0  0  0  0
 15 23  1  1  0  0  0
 15  9  1  0  0  0  0
 15 19  1  0  0  0  0
 16 13  1  0  0  0  0
 18 11  1  0  0  0  0
 19 24  1  6  0  0  0
 19 21  1  0  0  0  0
 21 22  2  0  0  0  0
 21 17  1  0  0  0  0
 25 26  2  0  0  0  0
 26 16  1  0  0  0  0
 27  1  1  6  0  0  0
 27 39  1  0  0  0  0
 29 34  1  0  0  0  0
 30 29  1  0  0  0  0
 31 28  1  0  0  0  0
 33 36  1  0  0  0  0
 34 32  1  0  0  0  0
 34 28  2  0  0  0  0
 35 31  2  0  0  0  0
 36 29  2  0  0  0  0
 36 35  1  0  0  0  0
 37 30  1  0  0  0  0
 38 27  1  6  0  0  0
 38 37  1  0  0  0  0
 38 33  1  0  0  0  0
 40 39  1  0  0  0  0
 41 43  1  1  0  0  0
 41 46  1  0  0  0  0
 42 44  1  0  0  0  0
 42 41  1  0  0  0  0
 44 40  1  6  0  0  0
 44 41  1  0  0  0  0
 46 51  1  6  0  0  0
 46 47  1  0  0  0  0
 47 48  1  0  0  0  0
 49 45  1  6  0  0  0
 49 51  1  0  0  0  0
 49 50  1  0  0  0  0
 50 48  1  0  0  0  0
M  END
>  <MODEL>
6

>  <REMARK>
 VINA RESULT:      -7.2      4.772     10.948
  Name = 
  11 active torsions:
  status: ('A' for Active; 'I' for Inactive)
    1  A    between atoms: C_2  and  N_16
    2  A    between atoms: C_3  and  N_11
    3  A    between atoms: C_3  and  S_45
    4  A    between atoms: C_3  and  C_49
    5  A    between atoms: N_10  and  C_27
    6  A    between atoms: N_11  and  C_42
    7  A    between atoms: C_23  and  C_42
    8  A    between atoms: C_24  and  N_33
    9  A    between atoms: C_27  and  C_43
   10  A    between atoms: C_35  and  C_43
   11  A    between atoms: C_35  and  S_45
                            x       y       z     vdW  Elec       q    Type
                         _______ _______ _______ _____ _____    ______ ____

>  <TORSDO>
F 11

$$$$
=
 OpenBabel10222417133D

 51 58  0  0  1  0  0  0  0  0999 V2000
  189.0200  176.2950  138.6780 S   0  0  0  0  0  0  0  0  0  0  0  0
  188.9480  177.1600  136.0940 C   0  0  0  0  0  1  0  0  0  0  0  0
  188.2180  177.3230  137.4150 C   0  0  1  0  0  3  0  0  0  0  0  0
  186.7720  176.8880  137.2700 C   0  0  0  0  0  2  0  0  0  0  0  0
  186.6000  176.0270  136.0320 C   0  0  0  0  0  2  0  0  0  0  0  0
  180.7300  174.8810  138.5220 C   0  0  0  0  0  3  0  0  0  0  0  0
  180.0590  174.5190  139.6930 C   0  0  0  0  0  3  0  0  0  0  0  0
  185.0830  174.6500  137.1600 C   0  0  0  0  0  2  0  0  0  0  0  0
  184.3320  176.6270  136.1730 C   0  0  1  0  0  3  0  0  0  0  0  0
  185.2450  175.5020  135.9890 N   0  0  0  0  0  0  0  0  0  0  0  0
  180.5390  177.2180  139.1220 C   0  0  0  0  0  0  0  0  0  0  0  0
  183.5930  176.9030  134.8600 C   0  0  0  0  0  2  0  0  0  0  0  0
  179.9310  178.8810  137.4620 C   0  0  1  0  0  3  0  0  0  0  0  0
  179.6350  175.5040  140.5840 C   0  0  0  0  0  3  0  0  0  0  0  0
  183.3810  176.3000  137.3420 C   0  0  1  0  0  3  0  0  0  0  0  0
  180.5650  178.5880  138.7370 N   0  0  0  0  0  0  0  0  0  0  0  0
  182.5830  177.8810  135.0760 O   0  0  0  0  0  0  0  0  0  0  0  0
  179.8640  176.8490  140.2950 C   0  0  0  0  0  3  0  0  0  0  0  0
  181.8820  176.5230  137.0330 C   0  0  2  0  0  3  0  0  0  0  0  0
  179.3820  180.1650  137.4630 O   0  0  0  0  0  1  0  0  0  0  0  0
  181.7120  177.7680  136.1620 C   0  0  0  0  0  0  0  0  0  0  0  0
  180.8920  178.7550  136.3810 N   0  0  0  0  0  0  0  0  0  0  0  0
  183.6860  174.8640  137.6820 C   0  0  0  0  0  2  0  0  0  0  0  0
  180.9810  176.2280  138.2210 C   0  0  0  0  0  0  0  0  0  0  0  0
  182.5870  179.7740  139.3500 C   0  0  0  0  0  2  0  0  0  0  0  0
  181.2770  179.5990  139.4700 C   0  0  0  0  0  3  0  0  0  0  0  0
  189.9060  177.7100  139.4090 C   0  0  1  0  0  3  0  0  0  0  0  0
  185.1430  178.3470  143.7890 C   0  0  0  0  0  3  0  0  0  0  0  0
  187.3530  177.8720  142.9030 C   0  0  0  0  0  0  0  0  0  0  0  0
  188.7570  177.3500  143.0760 C   0  0  0  0  0  2  0  0  0  0  0  0
  184.7770  178.9380  142.5770 C   0  0  0  0  0  3  0  0  0  0  0  0
  186.7790  177.2110  145.2770 C   0  0  0  0  0  1  0  0  0  0  0  0
  187.9010  178.5260  140.5930 N   0  0  0  0  0  2  0  0  0  0  0  0
  186.4260  177.8190  143.9610 C   0  0  0  0  0  0  0  0  0  0  0  0
  185.6940  179.0040  141.5270 C   0  0  0  0  0  3  0  0  0  0  0  0
  186.9800  178.4840  141.6870 C   0  0  0  0  0  0  0  0  0  0  0  0
  189.3720  176.9320  141.7420 C   0  0  0  0  0  2  0  0  0  0  0  0
  189.2890  178.0940  140.7530 C   0  0  1  0  0  3  0  0  0  0  0  0
  191.3160  177.3810  139.5650 N   0  0  0  0  0  2  0  0  0  0  0  0
  191.6450  176.3770  138.5650 C   0  0  0  0  0  2  0  0  0  0  0  0
  193.6510  175.1680  137.6210 C   0  0  2  0  0  0  0  0  0  0  0  0
  193.2920  176.3070  136.6950 C   0  0  0  0  0  2  0  0  0  0  0  0
  192.7920  174.0640  137.5870 O   0  0  0  0  0  1  0  0  0  0  0  0
  193.1220  176.4670  138.2050 C   0  0  1  0  0  3  0  0  0  0  0  0
  194.6150  173.7310  134.8100 O   0  0  0  0  0  1  0  0  0  0  0  0
  195.0840  174.9310  137.8160 N   0  0  1  0  0  0  0  0  0  0  0  0
  195.2860  173.7410  138.6660 C   0  0  0  0  0  2  0  0  0  0  0  0
  196.0370  172.5990  137.9800 C   0  0  0  0  0  2  0  0  0  0  0  0
  195.6560  173.6150  135.7280 C   0  0  2  0  0  3  0  0  0  0  0  0
  195.4480  172.3800  136.6000 C   0  0  0  0  0  2  0  0  0  0  0  0
  195.8090  174.9190  136.5310 C   0  0  0  0  0  2  0  0  0  0  0  0
  3  2  1  6  0  0  0
  3  1  1  0  0  0  0
  4  3  1  0  0  0  0
  5  4  1  0  0  0  0
  6  7  1  0  0  0  0
  7 14  2  0  0  0  0
  8 23  1  0  0  0  0
  9 12  1  6  0  0  0
  9 15  1  0  0  0  0
 10  5  1  0  0  0  0
 10  9  1  0  0  0  0
 10  8  1  0  0  0  0
 11 18  2  0  0  0  0
 12 17  1  0  0  0  0
 13 20  1  1  0  0  0
 13 16  1  0  0  0  0
 15 23  1  6  0  0  0
 16 11  1  0  0  0  0
 16 26  1  0  0  0  0
 17 21  1  0  0  0  0
 18 14  1  0  0  0  0
 19 21  1  1  0  0  0
 19 15  1  0  0  0  0
 19 24  1  0  0  0  0
 21 22  2  0  0  0  0
 22 13  1  0  0  0  0
 24  6  2  0  0  0  0
 24 11  1  0  0  0  0
 25 26  2  0  0  0  0
 27  1  1  1  0  0  0
 27 39  1  0  0  0  0
 28 34  1  0  0  0  0
 29 30  1  0  0  0  0
 29 34  2  0  0  0  0
 31 28  2  0  0  0  0
 33 38  1  0  0  0  0
 33 36  1  0  0  0  0
 34 32  1  0  0  0  0
 35 36  2  0  0  0  0
 35 31  1  0  0  0  0
 36 29  1  0  0  0  0
 37 30  1  0  0  0  0
 38 27  1  6  0  0  0
 38 37  1  0  0  0  0
 40 39  1  0  0  0  0
 41 43  1  1  0  0  0
 41 46  1  0  0  0  0
 41 44  1  0  0  0  0
 42 41  1  0  0  0  0
 42 44  1  0  0  0  0
 44 40  1  6  0  0  0
 46 51  1  6  0  0  0
 46 47  1  0  0  0  0
 48 47  1  0  0  0  0
 49 45  1  6  0  0  0
 49 51  1  0  0  0  0
 49 50  1  0  0  0  0
 50 48  1  0  0  0  0
M  END
>  <MODEL>
7

>  <REMARK>
 VINA RESULT:      -7.1      2.992      4.361
  Name = 
  11 active torsions:
  status: ('A' for Active; 'I' for Inactive)
    1  A    between atoms: C_2  and  N_16
    2  A    between atoms: C_3  and  N_11
    3  A    between atoms: C_3  and  S_45
    4  A    between atoms: C_3  and  C_49
    5  A    between atoms: N_10  and  C_27
    6  A    between atoms: N_11  and  C_42
    7  A    between atoms: C_23  and  C_42
    8  A    between atoms: C_24  and  N_33
    9  A    between atoms: C_27  and  C_43
   10  A    between atoms: C_35  and  C_43
   11  A    between atoms: C_35  and  S_45
                            x       y       z     vdW  Elec       q    Type
                         _______ _______ _______ _____ _____    ______ ____

>  <TORSDO>
F 11

$$$$
=
 OpenBabel10222417133D

 51 58  0  0  1  0  0  0  0  0999 V2000
  190.3200  176.0020  142.0180 S   0  0  0  0  0  0  0  0  0  0  0  0
  192.0460  178.0330  142.5860 C   0  0  0  0  0  1  0  0  0  0  0  0
  191.1460  177.5240  141.4740 C   0  0  1  0  0  3  0  0  0  0  0  0
  191.9670  177.2250  140.2350 C   0  0  0  0  0  2  0  0  0  0  0  0
  191.3250  176.1100  139.4290 C   0  0  0  0  0  2  0  0  0  0  0  0
  195.7990  175.0690  134.8610 C   0  0  0  0  0  3  0  0  0  0  0  0
  197.1700  175.1290  134.6000 C   0  0  0  0  0  3  0  0  0  0  0  0
  193.1080  176.8350  138.1030 C   0  0  0  0  0  2  0  0  0  0  0  0
  192.1200  174.7640  137.6750 C   0  0  1  0  0  3  0  0  0  0  0  0
  191.8280  176.1410  138.0670 N   0  0  0  0  0  0  0  0  0  0  0  0
  196.0340  172.7850  135.6250 C   0  0  0  0  0  0  0  0  0  0  0  0
  191.1060  174.3080  136.6210 C   0  0  0  0  0  2  0  0  0  0  0  0
  194.4250  171.0870  134.9780 C   0  0  1  0  0  3  0  0  0  0  0  0
  197.9770  174.0220  134.8590 C   0  0  0  0  0  3  0  0  0  0  0  0
  193.5780  174.6960  137.1770 C   0  0  1  0  0  3  0  0  0  0  0  0
  195.4420  171.5250  135.9210 N   0  0  0  0  0  0  0  0  0  0  0  0
  191.4860  173.0360  136.1120 O   0  0  0  0  0  0  0  0  0  0  0  0
  197.4090  172.8500  135.3600 C   0  0  0  0  0  3  0  0  0  0  0  0
  193.7600  173.9860  135.8150 C   0  0  2  0  0  3  0  0  0  0  0  0
  194.4000  169.6940  134.8860 O   0  0  0  0  0  1  0  0  0  0  0  0
  192.8040  172.7970  135.7190 C   0  0  0  0  0  0  0  0  0  0  0  0
  193.1210  171.5810  135.3800 N   0  0  0  0  0  0  0  0  0  0  0  0
  194.0280  176.1340  137.1360 C   0  0  0  0  0  2  0  0  0  0  0  0
  195.2130  173.9040  135.3780 C   0  0  0  0  0  0  0  0  0  0  0  0
  195.4220  171.2620  138.3290 C   0  0  0  0  0  2  0  0  0  0  0  0
  195.7150  170.7880  137.1250 C   0  0  0  0  0  3  0  0  0  0  0  0
  188.6570  176.7310  141.8590 C   0  0  1  0  0  3  0  0  0  0  0  0
  187.8140  178.2330  148.1290 C   0  0  0  0  0  3  0  0  0  0  0  0
  187.2480  177.8370  145.8010 C   0  0  0  0  0  0  0  0  0  0  0  0
  186.2630  177.8770  144.6610 C   0  0  0  0  0  2  0  0  0  0  0  0
  189.0730  177.6610  147.9260 C   0  0  0  0  0  3  0  0  0  0  0  0
  185.5600  178.9230  147.3420 C   0  0  0  0  0  1  0  0  0  0  0  0
  188.8980  176.7740  144.3140 N   0  0  0  0  0  2  0  0  0  0  0  0
  186.8980  178.3190  147.0770 C   0  0  0  0  0  0  0  0  0  0  0  0
  189.4240  177.1710  146.6670 C   0  0  0  0  0  3  0  0  0  0  0  0
  188.5150  177.2480  145.6090 C   0  0  0  0  0  0  0  0  0  0  0  0
  186.9680  177.9090  143.3060 C   0  0  0  0  0  2  0  0  0  0  0  0
  187.9410  176.7340  143.2090 C   0  0  1  0  0  3  0  0  0  0  0  0
  188.7610  178.0830  141.3280 N   0  0  0  0  0  2  0  0  0  0  0  0
  187.7980  178.2040  140.2440 C   0  0  0  0  0  2  0  0  0  0  0  0
  187.6920  178.2150  137.7220 C   0  0  2  0  0  0  0  0  0  0  0  0
  189.0000  178.8370  138.1540 C   0  0  0  0  0  2  0  0  0  0  0  0
  186.5520  179.0030  137.9140 O   0  0  0  0  0  1  0  0  0  0  0  0
  188.4050  177.6770  138.9500 C   0  0  1  0  0  3  0  0  0  0  0  0
  184.5740  177.2190  137.2890 O   0  0  0  0  0  1  0  0  0  0  0  0
  187.7540  177.3570  136.5350 N   0  0  1  0  0  0  0  0  0  0  0  0
  188.2820  176.0280  136.9020 C   0  0  0  0  0  2  0  0  0  0  0  0
  187.3070  174.8750  136.6620 C   0  0  0  0  0  2  0  0  0  0  0  0
  185.3860  176.4610  136.4490 C   0  0  2  0  0  3  0  0  0  0  0  0
  185.9450  175.2600  137.2070 C   0  0  0  0  0  2  0  0  0  0  0  0
  186.4690  177.3460  135.8090 C   0  0  0  0  0  2  0  0  0  0  0  0
  3  1  1  0  0  0  0
  3  2  1  1  0  0  0
  4  3  1  0  0  0  0
  5  4  1  0  0  0  0
  6 24  1  0  0  0  0
  7 14  1  0  0  0  0
  7  6  2  0  0  0  0
  9 12  1  6  0  0  0
  9 10  1  0  0  0  0
 10  8  1  0  0  0  0
 10  5  1  0  0  0  0
 11 16  1  0  0  0  0
 13 20  1  1  0  0  0
 13 22  1  0  0  0  0
 13 16  1  0  0  0  0
 14 18  2  0  0  0  0
 15 23  1  6  0  0  0
 15  9  1  0  0  0  0
 16 26  1  0  0  0  0
 17 12  1  0  0  0  0
 18 11  1  0  0  0  0
 19 24  1  1  0  0  0
 19 15  1  0  0  0  0
 21 19  1  0  0  0  0
 21 17  1  0  0  0  0
 22 21  2  0  0  0  0
 23  8  1  0  0  0  0
 24 11  2  0  0  0  0
 26 25  2  0  0  0  0
 27 39  1  1  0  0  0
 27  1  1  0  0  0  0
 29 34  1  0  0  0  0
 30 29  1  0  0  0  0
 31 28  1  0  0  0  0
 33 36  1  0  0  0  0
 34 32  1  0  0  0  0
 34 28  2  0  0  0  0
 35 31  2  0  0  0  0
 36 29  2  0  0  0  0
 36 35  1  0  0  0  0
 37 30  1  0  0  0  0
 38 27  1  6  0  0  0
 38 37  1  0  0  0  0
 38 33  1  0  0  0  0
 40 39  1  0  0  0  0
 41 43  1  1  0  0  0
 41 42  1  0  0  0  0
 41 44  1  0  0  0  0
 42 44  1  0  0  0  0
 44 40  1  1  0  0  0
 46 51  1  1  0  0  0
 46 47  1  0  0  0  0
 46 41  1  0  0  0  0
 48 47  1  0  0  0  0
 48 50  1  0  0  0  0
 49 50  1  0  0  0  0
 49 45  1  1  0  0  0
 51 49  1  0  0  0  0
M  END
>  <MODEL>
8

>  <REMARK>
 VINA RESULT:      -6.8      5.001     10.485
  Name = 
  11 active torsions:
  status: ('A' for Active; 'I' for Inactive)
    1  A    between atoms: C_2  and  N_16
    2  A    between atoms: C_3  and  N_11
    3  A    between atoms: C_3  and  S_45
    4  A    between atoms: C_3  and  C_49
    5  A    between atoms: N_10  and  C_27
    6  A    between atoms: N_11  and  C_42
    7  A    between atoms: C_23  and  C_42
    8  A    between atoms: C_24  and  N_33
    9  A    between atoms: C_27  and  C_43
   10  A    between atoms: C_35  and  C_43
   11  A    between atoms: C_35  and  S_45
                            x       y       z     vdW  Elec       q    Type
                         _______ _______ _______ _____ _____    ______ ____

>  <TORSDO>
F 11

$$$$
=
 OpenBabel10222417133D

 51 58  0  0  1  0  0  0  0  0999 V2000
  188.3840  176.6150  138.5630 S   0  0  0  0  0  0  0  0  0  0  0  0
  188.6810  178.6940  136.8260 C   0  0  0  0  0  1  0  0  0  0  0  0
  187.6730  178.0960  137.7920 C   0  0  1  0  0  3  0  0  0  0  0  0
  186.4080  177.7090  137.0510 C   0  0  0  0  0  2  0  0  0  0  0  0
  186.3920  176.2160  136.7730 C   0  0  0  0  0  2  0  0  0  0  0  0
  180.4230  174.6320  138.7290 C   0  0  0  0  0  3  0  0  0  0  0  0
  179.7080  173.9790  139.7370 C   0  0  0  0  0  3  0  0  0  0  0  0
  184.8030  174.6340  137.4360 C   0  0  0  0  0  2  0  0  0  0  0  0
  184.1410  176.8360  137.0380 C   0  0  1  0  0  3  0  0  0  0  0  0
  185.0240  175.7750  136.5590 N   0  0  0  0  0  0  0  0  0  0  0  0
  180.2870  176.7080  139.9640 C   0  0  0  0  0  0  0  0  0  0  0  0
  183.4480  177.5000  135.8440 C   0  0  0  0  0  2  0  0  0  0  0  0
  179.7770  178.7950  138.8340 C   0  0  1  0  0  3  0  0  0  0  0  0
  179.2910  174.6860  140.8640 C   0  0  0  0  0  3  0  0  0  0  0  0
  183.1480  176.2270  138.0490 C   0  0  1  0  0  3  0  0  0  0  0  0
  180.3660  178.1290  139.9850 N   0  0  0  0  0  0  0  0  0  0  0  0
  182.4620  178.4130  136.3110 O   0  0  0  0  0  0  0  0  0  0  0  0
  179.5690  176.0480  140.9720 C   0  0  0  0  0  3  0  0  0  0  0  0
  181.6660  176.5840  137.7890 C   0  0  2  0  0  3  0  0  0  0  0  0
  179.2680  180.0450  139.1910 O   0  0  0  0  0  1  0  0  0  0  0  0
  181.5590  178.0300  137.3050 C   0  0  0  0  0  0  0  0  0  0  0  0
  180.7630  178.9440  137.7800 N   0  0  0  0  0  0  0  0  0  0  0  0
  183.3990  174.7430  137.9720 C   0  0  0  0  0  2  0  0  0  0  0  0
  180.7240  175.9980  138.8280 C   0  0  0  0  0  0  0  0  0  0  0  0
  182.3650  178.6290  141.2590 C   0  0  0  0  0  2  0  0  0  0  0  0
  181.0880  178.8650  140.9870 C   0  0  0  0  0  3  0  0  0  0  0  0
  189.8680  177.5050  139.1360 C   0  0  1  0  0  3  0  0  0  0  0  0
  187.1150  177.5840  145.0270 C   0  0  0  0  0  3  0  0  0  0  0  0
  188.8710  177.5480  143.3500 C   0  0  0  0  0  0  0  0  0  0  0  0
  190.3250  177.4260  142.9680 C   0  0  0  0  0  2  0  0  0  0  0  0
  186.1710  177.8750  144.0400 C   0  0  0  0  0  3  0  0  0  0  0  0
  189.4410  177.1310  145.7800 C   0  0  0  0  0  1  0  0  0  0  0  0
  188.3050  177.9620  140.9900 N   0  0  0  0  0  2  0  0  0  0  0  0
  188.4640  177.4260  144.6920 C   0  0  0  0  0  0  0  0  0  0  0  0
  186.5690  178.0090  142.7090 C   0  0  0  0  0  3  0  0  0  0  0  0
  187.9130  177.8570  142.3620 C   0  0  0  0  0  0  0  0  0  0  0  0
  190.4910  176.9790  141.5170 C   0  0  0  0  0  2  0  0  0  0  0  0
  189.7140  177.9200  140.5990 C   0  0  1  0  0  3  0  0  0  0  0  0
  191.0440  176.6640  138.9610 N   0  0  0  0  0  2  0  0  0  0  0  0
  190.7160  175.6530  137.9680 C   0  0  0  0  0  2  0  0  0  0  0  0
  191.5400  174.7130  135.7740 C   0  0  2  0  0  0  0  0  0  0  0  0
  190.5160  175.7860  135.4860 C   0  0  0  0  0  2  0  0  0  0  0  0
  191.0310  173.5050  136.2640 O   0  0  0  0  0  1  0  0  0  0  0  0
  191.4670  175.9350  136.6730 C   0  0  1  0  0  3  0  0  0  0  0  0
  193.9450  173.3790  137.6000 O   0  0  0  0  0  1  0  0  0  0  0  0
  192.6910  174.6690  134.8690 N   0  0  1  0  0  0  0  0  0  0  0  0
  193.3070  176.0070  134.7710 C   0  0  0  0  0  2  0  0  0  0  0  0
  194.7520  176.0720  135.2660 C   0  0  0  0  0  2  0  0  0  0  0  0
  194.5200  173.8730  136.4310 C   0  0  2  0  0  3  0  0  0  0  0  0
  194.8510  175.3530  136.5970 C   0  0  0  0  0  2  0  0  0  0  0  0
  193.6150  173.5740  135.2230 C   0  0  0  0  0  2  0  0  0  0  0  0
  3  2  1  6  0  0  0
  3  1  1  0  0  0  0
  4  3  1  0  0  0  0
  5  4  1  0  0  0  0
  6 24  2  0  0  0  0
  6  7  1  0  0  0  0
  7 14  2  0  0  0  0
  8 23  1  0  0  0  0
  9 12  1  6  0  0  0
  9 15  1  0  0  0  0
 10  5  1  0  0  0  0
 10  9  1  0  0  0  0
 10  8  1  0  0  0  0
 11 16  1  0  0  0  0
 11 18  2  0  0  0  0
 12 17  1  0  0  0  0
 13 20  1  1  0  0  0
 13 16  1  0  0  0  0
 14 18  1  0  0  0  0
 15 23  1  6  0  0  0
 16 26  1  0  0  0  0
 17 21  1  0  0  0  0
 19 21  1  1  0  0  0
 19 15  1  0  0  0  0
 19 24  1  0  0  0  0
 21 22  2  0  0  0  0
 22 13  1  0  0  0  0
 24 11  1  0  0  0  0
 26 25  2  0  0  0  0
 27  1  1  1  0  0  0
 29 34  2  0  0  0  0
 30 29  1  0  0  0  0
 31 28  2  0  0  0  0
 33 36  1  0  0  0  0
 34 28  1  0  0  0  0
 34 32  1  0  0  0  0
 35 31  1  0  0  0  0
 36 35  2  0  0  0  0
 36 29  1  0  0  0  0
 37 30  1  0  0  0  0
 38 27  1  6  0  0  0
 38 33  1  0  0  0  0
 38 37  1  0  0  0  0
 39 27  1  0  0  0  0
 40 39  1  0  0  0  0
 41 43  1  1  0  0  0
 41 44  1  0  0  0  0
 42 41  1  0  0  0  0
 42 44  1  0  0  0  0
 44 40  1  1  0  0  0
 46 47  1  1  0  0  0
 46 51  1  0  0  0  0
 46 41  1  0  0  0  0
 47 48  1  0  0  0  0
 48 50  1  0  0  0  0
 49 50  1  0  0  0  0
 49 45  1  1  0  0  0
 51 49  1  0  0  0  0
M  END
>  <MODEL>
9

>  <REMARK>
 VINA RESULT:      -6.8      2.896      4.688
  Name = 
  11 active torsions:
  status: ('A' for Active; 'I' for Inactive)
    1  A    between atoms: C_2  and  N_16
    2  A    between atoms: C_3  and  N_11
    3  A    between atoms: C_3  and  S_45
    4  A    between atoms: C_3  and  C_49
    5  A    between atoms: N_10  and  C_27
    6  A    between atoms: N_11  and  C_42
    7  A    between atoms: C_23  and  C_42
    8  A    between atoms: C_24  and  N_33
    9  A    between atoms: C_27  and  C_43
   10  A    between atoms: C_35  and  C_43
   11  A    between atoms: C_35  and  S_45
                            x       y       z     vdW  Elec       q    Type
                         _______ _______ _______ _____ _____    ______ ____

>  <TORSDO>
F 11

$$$$
