=
 OpenBabel10222416523D

 41 46  0  0  1  0  0  0  0  0999 V2000
  186.5030  178.6860  141.1120 C   0  0  0  0  0  3  0  0  0  0  0  0
  187.7040  177.8330  141.5640 C   0  0  0  0  0  0  0  0  0  0  0  0
  186.7700  177.5080  143.8890 C   0  0  0  0  0  0  0  0  0  0  0  0
  184.3270  179.2790  142.6900 C   0  0  1  0  0  0  0  0  0  0  0  0
  187.8060  177.3240  142.8320 C   0  0  0  0  0  3  0  0  0  0  0  0
  184.4410  178.7280  143.9850 N   0  0  0  0  0  2  0  0  0  0  0  0
  185.5530  178.7910  142.2020 N   0  0  0  0  0  0  0  0  0  0  0  0
  185.7320  178.2160  143.5090 C   0  0  2  0  0  0  0  0  0  0  0  0
  188.8250  177.5960  140.6210 C   0  0  0  0  0  0  0  0  0  0  0  0
  189.9490  177.2610  141.0900 O   0  0  0  0  0  0  0  0  0  0  0  0
  188.1790  176.7020  138.3560 C   0  0  0  0  0  3  0  0  0  0  0  0
  188.4890  178.0410  136.3610 C   0  0  0  0  0  3  0  0  0  0  0  0
  189.1120  178.9250  138.5270 C   0  0  0  0  0  3  0  0  0  0  0  0
  189.0090  179.0780  137.1410 C   0  0  0  0  0  3  0  0  0  0  0  0
  188.6870  177.7400  139.1510 C   0  0  0  0  0  0  0  0  0  0  0  0
  188.0760  176.8520  136.9690 C   0  0  0  0  0  3  0  0  0  0  0  0
  186.8990  176.9430  145.2600 C   0  0  0  0  0  2  0  0  0  0  0  0
  187.0680  178.0610  146.2710 C   0  0  0  0  0  2  0  0  0  0  0  0
  188.2280  177.7900  147.1030 N   0  0  0  0  0  2  0  0  0  0  0  0
  190.2850  176.6240  147.1360 C   0  0  0  0  0  3  0  0  0  0  0  0
  191.4910  176.7300  144.3250 C   0  0  0  0  0  3  0  0  0  0  0  0
  190.8550  178.0520  144.4710 C   0  0  0  0  0  3  0  0  0  0  0  0
  191.8340  175.9350  145.3390 C   0  0  0  0  0  3  0  0  0  0  0  0
  190.0110  178.4180  145.4440 C   0  0  0  0  0  3  0  0  0  0  0  0
  189.5360  177.5730  146.5680 C   0  0  0  0  0  0  0  0  0  0  0  0
  191.7030  176.3420  146.7670 C   0  0  0  0  0  2  0  0  0  0  0  0
  183.1630  178.6290  141.9460 C   0  0  0  0  0  2  0  0  0  0  0  0
  181.8460  178.9150  142.6470 C   0  0  0  0  0  2  0  0  0  0  0  0
  180.7640  178.9550  141.6780 N   0  0  0  0  0  2  0  0  0  0  0  0
  180.3280  180.2850  141.6190 N   0  0  0  0  0  2  0  0  0  0  0  0
  179.7510  180.4820  140.2980 C   0  0  0  0  0  2  0  0  0  0  0  0
  180.9910  179.7110  135.8730 C   0  0  0  0  0  2  0  0  0  0  0  0
  180.8070  180.9580  139.3040 C   0  0  2  0  0  3  0  0  0  0  0  0
  180.2960  182.1400  138.4640 C   0  0  0  0  0  2  0  0  0  0  0  0
  181.2120  179.8320  138.3390 C   0  0  1  0  0  3  0  0  0  0  0  0
  180.4420  181.7300  137.0820 N   0  0  0  0  0  0  0  0  0  0  0  0
  179.9990  182.5380  135.9570 C   0  0  0  0  0  1  0  0  0  0  0  0
  180.9690  180.4190  136.9980 C   0  0  0  0  0  0  0  0  0  0  0  0
  183.0530  178.2910  138.3500 O   0  0  0  0  0  0  0  0  0  0  0  0
  183.5590  180.4550  138.9070 O   0  0  0  0  0  1  0  0  0  0  0  0
  182.6520  179.4710  138.5350 C   0  0  0  0  0  0  0  0  0  0  0  0
  1  2  2  0  0  0  0
  1  7  1  0  0  0  0
  2  5  1  0  0  0  0
  3 17  1  0  0  0  0
  4 27  1  6  0  0  0
  4  8  1  0  0  0  0
  4  6  1  0  0  0  0
  5  3  2  0  0  0  0
  7  4  1  0  0  0  0
  7  8  1  0  0  0  0
  8  3  1  1  0  0  0
  8  6  1  0  0  0  0
  9 10  2  0  0  0  0
  9  2  1  0  0  0  0
 11 15  1  0  0  0  0
 12 16  1  0  0  0  0
 12 14  2  0  0  0  0
 13 15  2  0  0  0  0
 14 13  1  0  0  0  0
 15  9  1  0  0  0  0
 16 11  2  0  0  0  0
 17 18  1  0  0  0  0
 18 19  1  0  0  0  0
 21 22  1  0  0  0  0
 21 23  2  0  0  0  0
 22 24  2  0  0  0  0
 23 26  1  0  0  0  0
 24 25  1  0  0  0  0
 25 19  1  0  0  0  0
 25 20  2  0  0  0  0
 26 20  1  0  0  0  0
 27 28  1  0  0  0  0
 29 28  1  0  0  0  0
 30 29  1  0  0  0  0
 31 30  1  0  0  0  0
 32 38  2  0  0  0  0
 33 31  1  1  0  0  0
 34 33  1  0  0  0  0
 35 41  1  6  0  0  0
 35 33  1  0  0  0  0
 36 34  1  0  0  0  0
 37 36  1  0  0  0  0
 38 36  1  0  0  0  0
 38 35  1  0  0  0  0
 39 41  2  0  0  0  0
 41 40  1  0  0  0  0
M  END
>  <MODEL>
1

>  <REMARK>
 VINA RESULT:      -8.2      0.000      0.000
  Name = 
  13 active torsions:
  status: ('A' for Active; 'I' for Inactive)
    1  A    between atoms: C_2  and  N_10
    2  A    between atoms: C_2  and  C_11
    3  A    between atoms: N_4  and  C_20
    4  A    between atoms: N_4  and  C_25
    5  A    between atoms: C_9  and  C_19
    6  A    between atoms: C_9  and  C_20
    7  A    between atoms: N_10  and  N_18
    8  A    between atoms: C_11  and  C_21
    9  A    between atoms: C_16  and  C_22
   10  A    between atoms: N_18  and  C_41
   11  A    between atoms: C_22  and  C_31
   12  A    between atoms: C_29  and  C_41
   13  A    between atoms: C_33  and  C_36
                            x       y       z     vdW  Elec       q    Type
                         _______ _______ _______ _____ _____    ______ ____

>  <TORSDO>
F 13

$$$$
=
 OpenBabel10222416523D

 41 46  0  0  1  0  0  0  0  0999 V2000
  186.2260  178.8390  141.2910 C   0  0  0  0  0  3  0  0  0  0  0  0
  187.4740  178.0420  141.7170 C   0  0  0  0  0  0  0  0  0  0  0  0
  186.5510  177.5700  144.0220 C   0  0  0  0  0  0  0  0  0  0  0  0
  184.0110  179.2360  142.8750 C   0  0  1  0  0  0  0  0  0  0  0  0
  187.6020  177.4910  142.9660 C   0  0  0  0  0  3  0  0  0  0  0  0
  184.1520  178.6430  144.1490 N   0  0  0  0  0  2  0  0  0  0  0  0
  185.2660  178.8430  142.3780 N   0  0  0  0  0  0  0  0  0  0  0  0
  185.4740  178.2300  143.6620 C   0  0  2  0  0  0  0  0  0  0  0  0
  188.6120  177.9100  140.7740 C   0  0  0  0  0  0  0  0  0  0  0  0
  189.7730  177.7570  141.2450 O   0  0  0  0  0  0  0  0  0  0  0  0
  187.6490  177.0230  138.6210 C   0  0  0  0  0  3  0  0  0  0  0  0
  188.2030  178.0530  136.5000 C   0  0  0  0  0  3  0  0  0  0  0  0
  189.1360  178.9280  138.5550 C   0  0  0  0  0  3  0  0  0  0  0  0
  189.0110  178.9800  137.1630 C   0  0  0  0  0  3  0  0  0  0  0  0
  188.4470  177.9570  139.3000 C   0  0  0  0  0  0  0  0  0  0  0  0
  187.5230  177.0730  137.2290 C   0  0  0  0  0  3  0  0  0  0  0  0
  186.7080  176.9610  145.3710 C   0  0  0  0  0  2  0  0  0  0  0  0
  186.9690  178.0400  146.4040 C   0  0  0  0  0  2  0  0  0  0  0  0
  188.0870  177.6460  147.2440 N   0  0  0  0  0  2  0  0  0  0  0  0
  190.2190  176.6330  147.3820 C   0  0  0  0  0  3  0  0  0  0  0  0
  191.4770  176.6660  144.5920 C   0  0  0  0  0  3  0  0  0  0  0  0
  190.7480  177.9450  144.6500 C   0  0  0  0  0  3  0  0  0  0  0  0
  191.8530  175.9550  145.6550 C   0  0  0  0  0  3  0  0  0  0  0  0
  189.8590  178.3050  145.5840 C   0  0  0  0  0  3  0  0  0  0  0  0
  189.4190  177.4920  146.7460 C   0  0  0  0  0  0  0  0  0  0  0  0
  191.6610  176.4310  147.0550 C   0  0  0  0  0  2  0  0  0  0  0  0
  182.8910  178.5480  142.0990 C   0  0  0  0  0  2  0  0  0  0  0  0
  181.5420  179.1540  142.4430 C   0  0  0  0  0  2  0  0  0  0  0  0
  180.4740  178.3310  141.9030 N   0  0  0  0  0  2  0  0  0  0  0  0
  179.9380  179.0320  140.8160 N   0  0  0  0  0  2  0  0  0  0  0  0
  179.9570  178.1250  139.6770 C   0  0  0  0  0  2  0  0  0  0  0  0
  183.8060  177.5620  137.1140 C   0  0  0  0  0  2  0  0  0  0  0  0
  180.6360  178.7710  138.4740 C   0  0  2  0  0  3  0  0  0  0  0  0
  180.2260  178.0850  137.1610 C   0  0  0  0  0  2  0  0  0  0  0  0
  182.1670  178.6940  138.5890 C   0  0  1  0  0  3  0  0  0  0  0  0
  181.4630  177.6730  136.5310 N   0  0  0  0  0  0  0  0  0  0  0  0
  181.5160  176.9120  135.2930 C   0  0  0  0  0  1  0  0  0  0  0  0
  182.5770  178.0190  137.3330 C   0  0  0  0  0  0  0  0  0  0  0  0
  182.0610  181.0870  138.4350 O   0  0  0  0  0  0  0  0  0  0  0  0
  184.0690  180.2190  139.1130 O   0  0  0  0  0  1  0  0  0  0  0  0
  182.7520  180.0680  138.6980 C   0  0  0  0  0  0  0  0  0  0  0  0
  1  2  2  0  0  0  0
  1  7  1  0  0  0  0
  2  5  1  0  0  0  0
  3 17  1  0  0  0  0
  4 27  1  6  0  0  0
  4  8  1  0  0  0  0
  4  6  1  0  0  0  0
  5  3  2  0  0  0  0
  7  4  1  0  0  0  0
  7  8  1  0  0  0  0
  8  3  1  1  0  0  0
  8  6  1  0  0  0  0
  9 10  2  0  0  0  0
  9  2  1  0  0  0  0
 11 15  1  0  0  0  0
 12 14  2  0  0  0  0
 12 16  1  0  0  0  0
 13 15  2  0  0  0  0
 14 13  1  0  0  0  0
 15  9  1  0  0  0  0
 16 11  2  0  0  0  0
 17 18  1  0  0  0  0
 18 19  1  0  0  0  0
 21 22  1  0  0  0  0
 21 23  2  0  0  0  0
 22 24  2  0  0  0  0
 23 26  1  0  0  0  0
 24 25  1  0  0  0  0
 25 19  1  0  0  0  0
 25 20  2  0  0  0  0
 26 20  1  0  0  0  0
 27 28  1  0  0  0  0
 29 28  1  0  0  0  0
 30 29  1  0  0  0  0
 31 30  1  0  0  0  0
 32 38  2  0  0  0  0
 33 35  1  0  0  0  0
 33 31  1  1  0  0  0
 34 33  1  0  0  0  0
 35 41  1  6  0  0  0
 36 34  1  0  0  0  0
 36 38  1  0  0  0  0
 37 36  1  0  0  0  0
 38 35  1  0  0  0  0
 39 41  2  0  0  0  0
 41 40  1  0  0  0  0
M  END
>  <MODEL>
2

>  <REMARK>
 VINA RESULT:      -8.1      1.429      1.728
  Name = 
  13 active torsions:
  status: ('A' for Active; 'I' for Inactive)
    1  A    between atoms: C_2  and  N_10
    2  A    between atoms: C_2  and  C_11
    3  A    between atoms: N_4  and  C_20
    4  A    between atoms: N_4  and  C_25
    5  A    between atoms: C_9  and  C_19
    6  A    between atoms: C_9  and  C_20
    7  A    between atoms: N_10  and  N_18
    8  A    between atoms: C_11  and  C_21
    9  A    between atoms: C_16  and  C_22
   10  A    between atoms: N_18  and  C_41
   11  A    between atoms: C_22  and  C_31
   12  A    between atoms: C_29  and  C_41
   13  A    between atoms: C_33  and  C_36
                            x       y       z     vdW  Elec       q    Type
                         _______ _______ _______ _____ _____    ______ ____

>  <TORSDO>
F 13

$$$$
=
 OpenBabel10222416523D

 41 46  0  0  1  0  0  0  0  0999 V2000
  190.2800  177.2620  141.8490 C   0  0  0  0  0  3  0  0  0  0  0  0
  189.2380  177.4370  142.9710 C   0  0  0  0  0  0  0  0  0  0  0  0
  187.4990  178.3730  141.3950 C   0  0  0  0  0  0  0  0  0  0  0  0
  189.8340  177.8590  139.1990 C   0  0  1  0  0  0  0  0  0  0  0  0
  187.9920  177.9570  142.7410 C   0  0  0  0  0  3  0  0  0  0  0  0
  188.5370  178.3720  138.9780 N   0  0  0  0  0  2  0  0  0  0  0  0
  189.6990  177.6800  140.5870 N   0  0  0  0  0  0  0  0  0  0  0  0
  188.3710  178.2090  140.4270 C   0  0  2  0  0  0  0  0  0  0  0  0
  189.6060  177.0920  144.3660 C   0  0  0  0  0  0  0  0  0  0  0  0
  190.6680  176.4400  144.5690 O   0  0  0  0  0  0  0  0  0  0  0  0
  189.3490  177.6960  146.7990 C   0  0  0  0  0  3  0  0  0  0  0  0
  187.1630  178.1470  147.7390 C   0  0  0  0  0  3  0  0  0  0  0  0
  187.3840  177.5760  145.3970 C   0  0  0  0  0  3  0  0  0  0  0  0
  186.5800  177.9160  146.4900 C   0  0  0  0  0  3  0  0  0  0  0  0
  188.7780  177.4730  145.5370 C   0  0  0  0  0  0  0  0  0  0  0  0
  188.5470  178.0360  147.8940 C   0  0  0  0  0  3  0  0  0  0  0  0
  186.1380  178.9310  141.1660 C   0  0  0  0  0  2  0  0  0  0  0  0
  185.4360  179.1550  142.4910 C   0  0  0  0  0  2  0  0  0  0  0  0
  184.3330  178.2180  142.6190 N   0  0  0  0  0  2  0  0  0  0  0  0
  182.4340  178.6740  141.2860 C   0  0  0  0  0  3  0  0  0  0  0  0
  179.9340  178.2070  142.9890 C   0  0  0  0  0  3  0  0  0  0  0  0
  180.8950  178.7790  143.9480 C   0  0  0  0  0  3  0  0  0  0  0  0
  180.0160  178.3310  141.6640 C   0  0  0  0  0  3  0  0  0  0  0  0
  182.2060  178.9570  143.7410 C   0  0  0  0  0  3  0  0  0  0  0  0
  182.9620  178.6100  142.5120 C   0  0  0  0  0  0  0  0  0  0  0  0
  181.0550  179.1630  140.9920 C   0  0  0  0  0  2  0  0  0  0  0  0
  189.9880  176.5100  138.5010 C   0  0  0  0  0  2  0  0  0  0  0  0
  189.6720  176.6260  137.0200 C   0  0  0  0  0  2  0  0  0  0  0  0
  190.0030  175.3870  136.3410 N   0  0  0  0  0  2  0  0  0  0  0  0
  190.4950  174.5120  137.3180 N   0  0  0  0  0  2  0  0  0  0  0  0
  191.3430  173.5470  136.6340 C   0  0  0  0  0  2  0  0  0  0  0  0
  195.4670  173.7190  138.7950 C   0  0  0  0  0  2  0  0  0  0  0  0
  192.7380  174.1170  136.3960 C   0  0  2  0  0  3  0  0  0  0  0  0
  193.6590  173.0850  135.7250 C   0  0  0  0  0  2  0  0  0  0  0  0
  193.3960  174.5500  137.7150 C   0  0  1  0  0  3  0  0  0  0  0  0
  194.8120  172.9650  136.5950 N   0  0  0  0  0  0  0  0  0  0  0  0
  195.8970  172.0250  136.3610 C   0  0  0  0  0  1  0  0  0  0  0  0
  194.6760  173.8000  137.7290 C   0  0  0  0  0  0  0  0  0  0  0  0
  193.9140  176.6460  136.6650 O   0  0  0  0  0  0  0  0  0  0  0  0
  193.4850  176.7360  138.9130 O   0  0  0  0  0  1  0  0  0  0  0  0
  193.6210  176.0310  137.7240 C   0  0  0  0  0  0  0  0  0  0  0  0
  1  2  2  0  0  0  0
  2  9  1  0  0  0  0
  3  5  2  0  0  0  0
  4 27  1  6  0  0  0
  4  8  1  0  0  0  0
  4  7  1  0  0  0  0
  5  2  1  0  0  0  0
  6  4  1  0  0  0  0
  7  1  1  0  0  0  0
  8  6  1  6  0  0  0
  8  7  1  0  0  0  0
  8  3  1  0  0  0  0
  9 10  2  0  0  0  0
  9 15  1  0  0  0  0
 11 16  1  0  0  0  0
 12 16  2  0  0  0  0
 13 15  1  0  0  0  0
 13 14  2  0  0  0  0
 14 12  1  0  0  0  0
 15 11  2  0  0  0  0
 17  3  1  0  0  0  0
 17 18  1  0  0  0  0
 18 19  1  0  0  0  0
 20 25  2  0  0  0  0
 21 22  1  0  0  0  0
 23 21  2  0  0  0  0
 24 22  2  0  0  0  0
 25 19  1  0  0  0  0
 25 24  1  0  0  0  0
 26 20  1  0  0  0  0
 26 23  1  0  0  0  0
 28 27  1  0  0  0  0
 29 28  1  0  0  0  0
 29 30  1  0  0  0  0
 31 30  1  0  0  0  0
 33 31  1  1  0  0  0
 33 35  1  0  0  0  0
 34 33  1  0  0  0  0
 34 36  1  0  0  0  0
 35 41  1  6  0  0  0
 35 38  1  0  0  0  0
 36 38  1  0  0  0  0
 37 36  1  0  0  0  0
 38 32  2  0  0  0  0
 39 41  2  0  0  0  0
 41 40  1  0  0  0  0
M  END
>  <MODEL>
3

>  <REMARK>
 VINA RESULT:      -8.1      4.382     10.275
  Name = 
  13 active torsions:
  status: ('A' for Active; 'I' for Inactive)
    1  A    between atoms: C_2  and  N_10
    2  A    between atoms: C_2  and  C_11
    3  A    between atoms: N_4  and  C_20
    4  A    between atoms: N_4  and  C_25
    5  A    between atoms: C_9  and  C_19
    6  A    between atoms: C_9  and  C_20
    7  A    between atoms: N_10  and  N_18
    8  A    between atoms: C_11  and  C_21
    9  A    between atoms: C_16  and  C_22
   10  A    between atoms: N_18  and  C_41
   11  A    between atoms: C_22  and  C_31
   12  A    between atoms: C_29  and  C_41
   13  A    between atoms: C_33  and  C_36
                            x       y       z     vdW  Elec       q    Type
                         _______ _______ _______ _____ _____    ______ ____

>  <TORSDO>
F 13

$$$$
=
 OpenBabel10222416523D

 41 46  0  0  1  0  0  0  0  0999 V2000
  190.0690  177.3970  141.8540 C   0  0  0  0  0  3  0  0  0  0  0  0
  189.1440  177.4310  143.0860 C   0  0  0  0  0  0  0  0  0  0  0  0
  187.1960  178.3520  141.7660 C   0  0  0  0  0  0  0  0  0  0  0  0
  189.3120  178.1330  139.3120 C   0  0  1  0  0  0  0  0  0  0  0  0
  187.8520  177.8830  143.0210 C   0  0  0  0  0  3  0  0  0  0  0  0
  187.9710  178.5750  139.2620 N   0  0  0  0  0  2  0  0  0  0  0  0
  189.3350  177.8570  140.6910 N   0  0  0  0  0  0  0  0  0  0  0  0
  187.9690  178.3080  140.7050 C   0  0  2  0  0  0  0  0  0  0  0  0
  189.6770  177.0210  144.4090 C   0  0  0  0  0  0  0  0  0  0  0  0
  190.7250  176.3190  144.4470 O   0  0  0  0  0  0  0  0  0  0  0  0
  189.7660  177.5170  146.8780 C   0  0  0  0  0  3  0  0  0  0  0  0
  187.7500  178.0550  148.1070 C   0  0  0  0  0  3  0  0  0  0  0  0
  187.6380  177.5890  145.7340 C   0  0  0  0  0  3  0  0  0  0  0  0
  187.0020  177.9220  146.9340 C   0  0  0  0  0  3  0  0  0  0  0  0
  189.0280  177.3940  145.6900 C   0  0  0  0  0  0  0  0  0  0  0  0
  189.1320  177.8500  148.0790 C   0  0  0  0  0  3  0  0  0  0  0  0
  185.7880  178.8340  141.7160 C   0  0  0  0  0  2  0  0  0  0  0  0
  184.9650  178.1520  142.7910 C   0  0  0  0  0  2  0  0  0  0  0  0
  183.9470  179.0680  143.2760 N   0  0  0  0  0  2  0  0  0  0  0  0
  181.7340  178.8250  144.0720 C   0  0  0  0  0  3  0  0  0  0  0  0
  179.8190  179.7920  141.8890 C   0  0  0  0  0  3  0  0  0  0  0  0
  180.9020  179.1440  141.1280 C   0  0  0  0  0  3  0  0  0  0  0  0
  179.5530  179.5670  143.1760 C   0  0  0  0  0  3  0  0  0  0  0  0
  182.0830  178.7490  141.6170 C   0  0  0  0  0  3  0  0  0  0  0  0
  182.5520  178.8890  143.0180 C   0  0  0  0  0  0  0  0  0  0  0  0
  180.2720  178.5390  143.9820 C   0  0  0  0  0  2  0  0  0  0  0  0
  189.4690  176.8450  138.5080 C   0  0  0  0  0  2  0  0  0  0  0  0
  190.9310  176.4450  138.4080 C   0  0  0  0  0  2  0  0  0  0  0  0
  191.0420  175.0110  138.2050 N   0  0  0  0  0  2  0  0  0  0  0  0
  190.5990  174.7550  136.9010 N   0  0  0  0  0  2  0  0  0  0  0  0
  189.7730  173.5580  136.9630 C   0  0  0  0  0  2  0  0  0  0  0  0
  185.9340  176.1960  137.0670 C   0  0  0  0  0  2  0  0  0  0  0  0
  188.4850  173.7390  136.1650 C   0  0  2  0  0  3  0  0  0  0  0  0
  188.6390  174.8280  135.0900 C   0  0  0  0  0  2  0  0  0  0  0  0
  187.3150  174.1380  137.0780 C   0  0  1  0  0  3  0  0  0  0  0  0
  187.5790  175.7820  135.3460 N   0  0  0  0  0  0  0  0  0  0  0  0
  187.4150  177.0160  134.5940 C   0  0  0  0  0  1  0  0  0  0  0  0
  186.8140  175.3970  136.4720 C   0  0  0  0  0  0  0  0  0  0  0  0
  186.1640  172.2630  136.1150 O   0  0  0  0  0  0  0  0  0  0  0  0
  185.4110  172.9510  138.1670 O   0  0  0  0  0  1  0  0  0  0  0  0
  186.2670  173.0680  137.0790 C   0  0  0  0  0  0  0  0  0  0  0  0
  1  2  2  0  0  0  0
  2  9  1  0  0  0  0
  3  5  2  0  0  0  0
  4 27  1  6  0  0  0
  4  7  1  0  0  0  0
  4  8  1  0  0  0  0
  5  2  1  0  0  0  0
  6  4  1  0  0  0  0
  7  8  1  0  0  0  0
  7  1  1  0  0  0  0
  8  6  1  6  0  0  0
  8  3  1  0  0  0  0
  9 10  2  0  0  0  0
  9 15  1  0  0  0  0
 11 16  1  0  0  0  0
 13 14  2  0  0  0  0
 14 12  1  0  0  0  0
 15 13  1  0  0  0  0
 15 11  2  0  0  0  0
 16 12  2  0  0  0  0
 17  3  1  0  0  0  0
 17 18  1  0  0  0  0
 18 19  1  0  0  0  0
 21 23  2  0  0  0  0
 22 24  2  0  0  0  0
 22 21  1  0  0  0  0
 23 26  1  0  0  0  0
 24 25  1  0  0  0  0
 25 19  1  0  0  0  0
 25 20  2  0  0  0  0
 26 20  1  0  0  0  0
 28 27  1  0  0  0  0
 29 28  1  0  0  0  0
 30 31  1  0  0  0  0
 30 29  1  0  0  0  0
 33 31  1  1  0  0  0
 33 35  1  0  0  0  0
 34 36  1  0  0  0  0
 34 33  1  0  0  0  0
 35 41  1  6  0  0  0
 36 38  1  0  0  0  0
 37 36  1  0  0  0  0
 38 32  2  0  0  0  0
 38 35  1  0  0  0  0
 39 41  2  0  0  0  0
 41 40  1  0  0  0  0
M  END
>  <MODEL>
4

>  <REMARK>
 VINA RESULT:      -8.0      3.289      8.481
  Name = 
  13 active torsions:
  status: ('A' for Active; 'I' for Inactive)
    1  A    between atoms: C_2  and  N_10
    2  A    between atoms: C_2  and  C_11
    3  A    between atoms: N_4  and  C_20
    4  A    between atoms: N_4  and  C_25
    5  A    between atoms: C_9  and  C_19
    6  A    between atoms: C_9  and  C_20
    7  A    between atoms: N_10  and  N_18
    8  A    between atoms: C_11  and  C_21
    9  A    between atoms: C_16  and  C_22
   10  A    between atoms: N_18  and  C_41
   11  A    between atoms: C_22  and  C_31
   12  A    between atoms: C_29  and  C_41
   13  A    between atoms: C_33  and  C_36
                            x       y       z     vdW  Elec       q    Type
                         _______ _______ _______ _____ _____    ______ ____

>  <TORSDO>
F 13

$$$$
=
 OpenBabel10222416523D

 41 46  0  0  1  0  0  0  0  0999 V2000
  189.4150  177.3390  138.9570 C   0  0  0  0  0  3  0  0  0  0  0  0
  189.6160  177.6730  140.4480 C   0  0  0  0  0  0  0  0  0  0  0  0
  187.2660  178.5660  140.7030 C   0  0  0  0  0  0  0  0  0  0  0  0
  187.0680  177.7250  137.5730 C   0  0  1  0  0  0  0  0  0  0  0  0
  188.6300  178.2420  141.2120 C   0  0  0  0  0  3  0  0  0  0  0  0
  186.0590  178.2920  138.3810 N   0  0  0  0  0  2  0  0  0  0  0  0
  188.0600  177.6770  138.5690 N   0  0  0  0  0  0  0  0  0  0  0  0
  187.0770  178.2670  139.4380 C   0  0  2  0  0  0  0  0  0  0  0  0
  190.9370  177.4310  141.0780 C   0  0  0  0  0  0  0  0  0  0  0  0
  191.9480  177.3050  140.3330 O   0  0  0  0  0  0  0  0  0  0  0  0
  191.3150  178.4600  143.3470 C   0  0  0  0  0  3  0  0  0  0  0  0
  191.5210  177.0680  145.3190 C   0  0  0  0  0  3  0  0  0  0  0  0
  191.1510  176.0560  143.1520 C   0  0  0  0  0  3  0  0  0  0  0  0
  191.3440  175.9280  144.5310 C   0  0  0  0  0  3  0  0  0  0  0  0
  191.1230  177.3230  142.5460 C   0  0  0  0  0  0  0  0  0  0  0  0
  191.5080  178.3340  144.7260 C   0  0  0  0  0  3  0  0  0  0  0  0
  186.2070  179.1810  141.5510 C   0  0  0  0  0  2  0  0  0  0  0  0
  185.5560  178.1230  142.4200 C   0  0  0  0  0  2  0  0  0  0  0  0
  185.3280  178.6630  143.7500 N   0  0  0  0  0  2  0  0  0  0  0  0
  187.1970  177.6050  144.7380 C   0  0  0  0  0  3  0  0  0  0  0  0
  187.4100  178.5520  147.6410 C   0  0  0  0  0  3  0  0  0  0  0  0
  185.9560  178.4630  147.4190 C   0  0  0  0  0  3  0  0  0  0  0  0
  188.3310  177.9220  146.9120 C   0  0  0  0  0  3  0  0  0  0  0  0
  185.3470  178.2970  146.2390 C   0  0  0  0  0  3  0  0  0  0  0  0
  186.0030  178.1780  144.9130 C   0  0  0  0  0  0  0  0  0  0  0  0
  187.9840  176.9580  145.8290 C   0  0  0  0  0  2  0  0  0  0  0  0
  186.6690  176.3130  137.1510 C   0  0  0  0  0  2  0  0  0  0  0  0
  185.1990  176.2550  136.7770 C   0  0  0  0  0  2  0  0  0  0  0  0
  184.5410  175.1840  137.5040 N   0  0  0  0  0  2  0  0  0  0  0  0
  183.1640  175.4160  137.4020 N   0  0  0  0  0  2  0  0  0  0  0  0
  182.9830  176.8580  137.3240 C   0  0  0  0  0  2  0  0  0  0  0  0
  180.8520  178.2820  141.2140 C   0  0  0  0  0  2  0  0  0  0  0  0
  181.5850  177.2610  137.7820 C   0  0  2  0  0  3  0  0  0  0  0  0
  181.3710  178.7790  137.6680 C   0  0  0  0  0  2  0  0  0  0  0  0
  181.3400  176.8580  139.2450 C   0  0  1  0  0  3  0  0  0  0  0  0
  180.9790  179.2200  138.9910 N   0  0  0  0  0  0  0  0  0  0  0  0
  180.7530  180.6150  139.3360 C   0  0  0  0  0  1  0  0  0  0  0  0
  180.9520  178.1330  139.8970 C   0  0  0  0  0  0  0  0  0  0  0  0
  180.2030  175.0160  140.2840 O   0  0  0  0  0  1  0  0  0  0  0  0
  179.2640  175.8060  138.3500 O   0  0  0  0  0  0  0  0  0  0  0  0
  180.2480  175.8360  139.3290 C   0  0  0  0  0  0  0  0  0  0  0  0
  1  2  2  0  0  0  0
  2  9  1  0  0  0  0
  2  5  1  0  0  0  0
  3  5  2  0  0  0  0
  3 17  1  0  0  0  0
  4 27  1  1  0  0  0
  4  6  1  0  0  0  0
  4  7  1  0  0  0  0
  4  8  1  0  0  0  0
  7  1  1  0  0  0  0
  7  8  1  0  0  0  0
  8  6  1  1  0  0  0
  8  3  1  0  0  0  0
  9 15  1  0  0  0  0
 10  9  2  0  0  0  0
 11 16  1  0  0  0  0
 13 14  2  0  0  0  0
 14 12  1  0  0  0  0
 15 13  1  0  0  0  0
 15 11  2  0  0  0  0
 16 12  2  0  0  0  0
 17 18  1  0  0  0  0
 18 19  1  0  0  0  0
 19 25  1  0  0  0  0
 20 25  2  0  0  0  0
 20 26  1  0  0  0  0
 22 21  1  0  0  0  0
 23 21  2  0  0  0  0
 24 22  2  0  0  0  0
 25 24  1  0  0  0  0
 26 23  1  0  0  0  0
 28 27  1  0  0  0  0
 28 29  1  0  0  0  0
 30 29  1  0  0  0  0
 31 30  1  0  0  0  0
 33 31  1  1  0  0  0
 33 35  1  0  0  0  0
 34 33  1  0  0  0  0
 34 36  1  0  0  0  0
 35 41  1  6  0  0  0
 35 38  1  0  0  0  0
 36 37  1  0  0  0  0
 36 38  1  0  0  0  0
 38 32  2  0  0  0  0
 40 41  2  0  0  0  0
 41 39  1  0  0  0  0
M  END
>  <MODEL>
5

>  <REMARK>
 VINA RESULT:      -7.8      2.547      5.180
  Name = 
  13 active torsions:
  status: ('A' for Active; 'I' for Inactive)
    1  A    between atoms: C_2  and  N_10
    2  A    between atoms: C_2  and  C_11
    3  A    between atoms: N_4  and  C_20
    4  A    between atoms: N_4  and  C_25
    5  A    between atoms: C_9  and  C_19
    6  A    between atoms: C_9  and  C_20
    7  A    between atoms: N_10  and  N_18
    8  A    between atoms: C_11  and  C_21
    9  A    between atoms: C_16  and  C_22
   10  A    between atoms: N_18  and  C_41
   11  A    between atoms: C_22  and  C_31
   12  A    between atoms: C_29  and  C_41
   13  A    between atoms: C_33  and  C_36
                            x       y       z     vdW  Elec       q    Type
                         _______ _______ _______ _____ _____    ______ ____

>  <TORSDO>
F 13

$$$$
=
 OpenBabel10222416523D

 41 46  0  0  1  0  0  0  0  0999 V2000
  187.0310  178.0280  141.8590 C   0  0  0  0  0  3  0  0  0  0  0  0
  186.7890  177.8030  143.3640 C   0  0  0  0  0  0  0  0  0  0  0  0
  184.5150  178.9040  143.2990 C   0  0  0  0  0  0  0  0  0  0  0  0
  185.2310  179.2110  140.1470 C   0  0  1  0  0  0  0  0  0  0  0  0
  185.6470  178.2230  143.9940 C   0  0  0  0  0  3  0  0  0  0  0  0
  184.0520  179.6180  140.8100 N   0  0  0  0  0  2  0  0  0  0  0  0
  185.8730  178.6790  141.2790 N   0  0  0  0  0  0  0  0  0  0  0  0
  184.7030  179.0820  142.0120 C   0  0  2  0  0  0  0  0  0  0  0  0
  187.8460  177.1640  144.1850 C   0  0  0  0  0  0  0  0  0  0  0  0
  188.6070  176.3160  143.6400 O   0  0  0  0  0  0  0  0  0  0  0  0
  189.2760  177.2370  146.2590 C   0  0  0  0  0  3  0  0  0  0  0  0
  188.3690  178.0240  148.3620 C   0  0  0  0  0  3  0  0  0  0  0  0
  186.9770  177.9710  146.3830 C   0  0  0  0  0  3  0  0  0  0  0  0
  187.1370  178.2510  147.7430 C   0  0  0  0  0  3  0  0  0  0  0  0
  188.0480  177.4720  145.6230 C   0  0  0  0  0  0  0  0  0  0  0  0
  189.4390  177.5160  147.6200 C   0  0  0  0  0  3  0  0  0  0  0  0
  183.2810  179.3490  144.0020 C   0  0  0  0  0  2  0  0  0  0  0  0
  182.1230  178.4330  143.6540 C   0  0  0  0  0  2  0  0  0  0  0  0
  181.0300  179.2210  143.1090 N   0  0  0  0  0  2  0  0  0  0  0  0
  180.0650  180.2370  141.2050 C   0  0  0  0  0  3  0  0  0  0  0  0
  181.1860  178.8570  138.7130 C   0  0  0  0  0  3  0  0  0  0  0  0
  181.0580  177.7540  139.6820 C   0  0  0  0  0  3  0  0  0  0  0  0
  180.5310  180.0150  138.7870 C   0  0  0  0  0  3  0  0  0  0  0  0
  180.8120  177.8800  140.9920 C   0  0  0  0  0  3  0  0  0  0  0  0
  180.6260  179.1490  141.7400 C   0  0  0  0  0  0  0  0  0  0  0  0
  179.4980  180.2950  139.8250 C   0  0  0  0  0  2  0  0  0  0  0  0
  184.9130  178.1040  139.1460 C   0  0  0  0  0  2  0  0  0  0  0  0
  185.7550  178.2500  137.8910 C   0  0  0  0  0  2  0  0  0  0  0  0
  187.1390  178.5070  138.2460 N   0  0  0  0  0  2  0  0  0  0  0  0
  187.7910  177.2670  138.2390 N   0  0  0  0  0  2  0  0  0  0  0  0
  189.2070  177.5360  138.0350 C   0  0  0  0  0  2  0  0  0  0  0  0
  193.4500  177.4970  139.9600 C   0  0  0  0  0  2  0  0  0  0  0  0
  190.0690  176.6120  138.8900 C   0  0  2  0  0  3  0  0  0  0  0  0
  189.9040  176.9140  140.3880 C   0  0  0  0  0  2  0  0  0  0  0  0
  191.5580  176.7570  138.5400 C   0  0  1  0  0  3  0  0  0  0  0  0
  191.2390  177.1760  140.8840 N   0  0  0  0  0  0  0  0  0  0  0  0
  191.5200  177.5820  142.2520 C   0  0  0  0  0  1  0  0  0  0  0  0
  192.1920  177.0830  139.8410 C   0  0  0  0  0  0  0  0  0  0  0  0
  191.3350  174.4770  137.8180 O   0  0  0  0  0  1  0  0  0  0  0  0
  193.4210  175.3960  137.5910 O   0  0  0  0  0  0  0  0  0  0  0  0
  192.0870  175.4760  137.9710 C   0  0  0  0  0  0  0  0  0  0  0  0
  1  2  2  0  0  0  0
  2  5  1  0  0  0  0
  2  9  1  0  0  0  0
  3  5  2  0  0  0  0
  3 17  1  0  0  0  0
  4 27  1  6  0  0  0
  4  6  1  0  0  0  0
  4  7  1  0  0  0  0
  4  8  1  0  0  0  0
  7  1  1  0  0  0  0
  7  8  1  0  0  0  0
  8  6  1  6  0  0  0
  8  3  1  0  0  0  0
  9 15  1  0  0  0  0
 10  9  2  0  0  0  0
 11 16  1  0  0  0  0
 13 14  2  0  0  0  0
 14 12  1  0  0  0  0
 15 11  2  0  0  0  0
 15 13  1  0  0  0  0
 16 12  2  0  0  0  0
 18 17  1  0  0  0  0
 19 18  1  0  0  0  0
 20 25  2  0  0  0  0
 21 23  2  0  0  0  0
 21 22  1  0  0  0  0
 22 24  2  0  0  0  0
 23 26  1  0  0  0  0
 24 25  1  0  0  0  0
 25 19  1  0  0  0  0
 26 20  1  0  0  0  0
 28 29  1  0  0  0  0
 28 27  1  0  0  0  0
 30 29  1  0  0  0  0
 31 30  1  0  0  0  0
 33 31  1  6  0  0  0
 33 34  1  0  0  0  0
 34 36  1  0  0  0  0
 35 41  1  1  0  0  0
 35 33  1  0  0  0  0
 35 38  1  0  0  0  0
 36 37  1  0  0  0  0
 38 32  2  0  0  0  0
 38 36  1  0  0  0  0
 39 41  1  0  0  0  0
 40 41  2  0  0  0  0
M  END
>  <MODEL>
6

>  <REMARK>
 VINA RESULT:      -7.7      2.793      9.069
  Name = 
  13 active torsions:
  status: ('A' for Active; 'I' for Inactive)
    1  A    between atoms: C_2  and  N_10
    2  A    between atoms: C_2  and  C_11
    3  A    between atoms: N_4  and  C_20
    4  A    between atoms: N_4  and  C_25
    5  A    between atoms: C_9  and  C_19
    6  A    between atoms: C_9  and  C_20
    7  A    between atoms: N_10  and  N_18
    8  A    between atoms: C_11  and  C_21
    9  A    between atoms: C_16  and  C_22
   10  A    between atoms: N_18  and  C_41
   11  A    between atoms: C_22  and  C_31
   12  A    between atoms: C_29  and  C_41
   13  A    between atoms: C_33  and  C_36
                            x       y       z     vdW  Elec       q    Type
                         _______ _______ _______ _____ _____    ______ ____

>  <TORSDO>
F 13

$$$$
=
 OpenBabel10222416523D

 41 46  0  0  1  0  0  0  0  0999 V2000
  185.2430  178.6100  139.3660 C   0  0  0  0  0  3  0  0  0  0  0  0
  186.5680  178.0870  138.7790 C   0  0  0  0  0  0  0  0  0  0  0  0
  187.8050  178.3750  140.9630 C   0  0  0  0  0  0  0  0  0  0  0  0
  184.8930  179.3860  141.9830 C   0  0  1  0  0  0  0  0  0  0  0  0
  187.7180  178.0060  139.5210 C   0  0  0  0  0  3  0  0  0  0  0  0
  186.0820  179.2740  142.7360 N   0  0  0  0  0  2  0  0  0  0  0  0
  185.4320  178.9260  140.7680 N   0  0  0  0  0  0  0  0  0  0  0  0
  186.6760  178.8030  141.4800 C   0  0  2  0  0  0  0  0  0  0  0  0
  186.6330  177.7120  137.3450 C   0  0  0  0  0  0  0  0  0  0  0  0
  187.5040  178.2600  136.6150 O   0  0  0  0  0  0  0  0  0  0  0  0
  184.4980  177.1190  136.1450 C   0  0  0  0  0  3  0  0  0  0  0  0
  183.9770  174.8150  135.6100 C   0  0  0  0  0  3  0  0  0  0  0  0
  186.0380  175.3590  136.7570 C   0  0  0  0  0  3  0  0  0  0  0  0
  185.1780  174.4090  136.1970 C   0  0  0  0  0  3  0  0  0  0  0  0
  185.7120  176.7260  136.7270 C   0  0  0  0  0  0  0  0  0  0  0  0
  183.6360  176.1700  135.5850 C   0  0  0  0  0  3  0  0  0  0  0  0
  189.0640  178.2750  141.7520 C   0  0  0  0  0  2  0  0  0  0  0  0
  189.0850  176.9790  142.5390 C   0  0  0  0  0  2  0  0  0  0  0  0
  189.6220  177.2270  143.8660 N   0  0  0  0  0  0  0  0  0  0  0  0
  189.4520  177.2460  146.2240 C   0  0  0  0  0  2  0  0  0  0  0  0
  186.6910  178.3290  146.9780 C   0  0  0  0  0  3  0  0  0  0  0  0
  186.4260  177.5430  145.7590 C   0  0  0  0  0  3  0  0  0  0  0  0
  187.7580  178.1790  147.7620 C   0  0  0  0  0  3  0  0  0  0  0  0
  187.3470  177.0450  144.9260 C   0  0  0  0  0  3  0  0  0  0  0  0
  188.8200  177.1850  145.0500 C   0  0  0  0  0  0  0  0  0  0  0  0
  188.7760  177.1120  147.5480 C   0  0  0  0  0  2  0  0  0  0  0  0
  183.8480  178.4050  142.5070 C   0  0  0  0  0  2  0  0  0  0  0  0
  183.2360  178.9060  143.8030 C   0  0  0  0  0  2  0  0  0  0  0  0
  181.7890  178.8020  143.7450 N   0  0  0  0  0  2  0  0  0  0  0  0
  181.4030  179.2800  142.4860 N   0  0  0  0  0  2  0  0  0  0  0  0
  180.0670  178.7640  142.2290 C   0  0  0  0  0  2  0  0  0  0  0  0
  182.5410  176.0140  139.3950 C   0  0  0  0  0  2  0  0  0  0  0  0
  179.9660  178.1810  140.8220 C   0  0  2  0  0  3  0  0  0  0  0  0
  179.3120  176.7900  140.8350 C   0  0  0  0  0  2  0  0  0  0  0  0
  181.3530  178.0460  140.1740 C   0  0  1  0  0  3  0  0  0  0  0  0
  180.2590  175.9070  140.1850 N   0  0  0  0  0  0  0  0  0  0  0  0
  180.0580  174.4720  140.0580 C   0  0  0  0  0  1  0  0  0  0  0  0
  181.4240  176.6120  139.7990 C   0  0  0  0  0  0  0  0  0  0  0  0
  180.9440  178.6070  137.8750 O   0  0  0  0  0  0  0  0  0  0  0  0
  182.1170  180.1570  139.0880 O   0  0  0  0  0  1  0  0  0  0  0  0
  181.4590  178.9390  138.9760 C   0  0  0  0  0  0  0  0  0  0  0  0
  1  7  1  0  0  0  0
  2  1  2  0  0  0  0
  2  5  1  0  0  0  0
  3 17  1  0  0  0  0
  4 27  1  1  0  0  0
  4  6  1  0  0  0  0
  5  3  2  0  0  0  0
  7  8  1  0  0  0  0
  7  4  1  0  0  0  0
  8  3  1  6  0  0  0
  8  4  1  0  0  0  0
  8  6  1  0  0  0  0
  9  2  1  0  0  0  0
 10  9  2  0  0  0  0
 11 15  1  0  0  0  0
 12 14  2  0  0  0  0
 14 13  1  0  0  0  0
 15 13  2  0  0  0  0
 15  9  1  0  0  0  0
 16 12  1  0  0  0  0
 16 11  2  0  0  0  0
 17 18  1  0  0  0  0
 18 19  1  0  0  0  0
 19 25  2  0  0  0  0
 20 26  1  0  0  0  0
 21 23  2  0  0  0  0
 22 21  1  0  0  0  0
 24 25  1  0  0  0  0
 24 22  2  0  0  0  0
 25 20  1  0  0  0  0
 26 23  1  0  0  0  0
 27 28  1  0  0  0  0
 29 28  1  0  0  0  0
 30 29  1  0  0  0  0
 31 30  1  0  0  0  0
 32 38  2  0  0  0  0
 33 34  1  0  0  0  0
 33 31  1  1  0  0  0
 35 41  1  6  0  0  0
 35 33  1  0  0  0  0
 36 34  1  0  0  0  0
 37 36  1  0  0  0  0
 38 35  1  0  0  0  0
 38 36  1  0  0  0  0
 39 41  2  0  0  0  0
 41 40  1  0  0  0  0
M  END
>  <MODEL>
7

>  <REMARK>
 VINA RESULT:      -7.6      2.532      3.996
  Name = 
  13 active torsions:
  status: ('A' for Active; 'I' for Inactive)
    1  A    between atoms: C_2  and  N_10
    2  A    between atoms: C_2  and  C_11
    3  A    between atoms: N_4  and  C_20
    4  A    between atoms: N_4  and  C_25
    5  A    between atoms: C_9  and  C_19
    6  A    between atoms: C_9  and  C_20
    7  A    between atoms: N_10  and  N_18
    8  A    between atoms: C_11  and  C_21
    9  A    between atoms: C_16  and  C_22
   10  A    between atoms: N_18  and  C_41
   11  A    between atoms: C_22  and  C_31
   12  A    between atoms: C_29  and  C_41
   13  A    between atoms: C_33  and  C_36
                            x       y       z     vdW  Elec       q    Type
                         _______ _______ _______ _____ _____    ______ ____

>  <TORSDO>
F 13

$$$$
=
 OpenBabel10222416523D

 41 46  0  0  1  0  0  0  0  0999 V2000
  190.2050  177.1750  137.3090 C   0  0  0  0  0  3  0  0  0  0  0  0
  191.0270  176.7610  138.5450 C   0  0  0  0  0  0  0  0  0  0  0  0
  189.1800  177.3930  140.1500 C   0  0  0  0  0  0  0  0  0  0  0  0
  187.6300  178.1420  137.3970 C   0  0  1  0  0  0  0  0  0  0  0  0
  190.5440  176.8850  139.8220 C   0  0  0  0  0  3  0  0  0  0  0  0
  187.1430  178.2420  138.7190 N   0  0  0  0  0  2  0  0  0  0  0  0
  188.8990  177.6390  137.7350 N   0  0  0  0  0  0  0  0  0  0  0  0
  188.4640  177.7300  139.1030 C   0  0  2  0  0  0  0  0  0  0  0  0
  192.4140  176.2660  138.3670 C   0  0  0  0  0  0  0  0  0  0  0  0
  193.3610  176.9190  138.8860 O   0  0  0  0  0  0  0  0  0  0  0  0
  191.7360  174.2460  137.0210 C   0  0  0  0  0  3  0  0  0  0  0  0
  193.4010  172.6950  136.1900 C   0  0  0  0  0  3  0  0  0  0  0  0
  194.0790  174.6320  137.4750 C   0  0  0  0  0  3  0  0  0  0  0  0
  194.4090  173.4700  136.7710 C   0  0  0  0  0  3  0  0  0  0  0  0
  192.7400  175.0390  137.5980 C   0  0  0  0  0  0  0  0  0  0  0  0
  192.0640  173.0830  136.3170 C   0  0  0  0  0  3  0  0  0  0  0  0
  188.6740  177.5160  141.5450 C   0  0  0  0  0  2  0  0  0  0  0  0
  189.8120  177.3400  142.5310 C   0  0  0  0  0  2  0  0  0  0  0  0
  189.5910  178.1970  143.6840 N   0  0  0  0  0  2  0  0  0  0  0  0
  189.9050  177.4140  145.8930 C   0  0  0  0  0  3  0  0  0  0  0  0
  187.3710  178.0300  147.4960 C   0  0  0  0  0  3  0  0  0  0  0  0
  186.8520  177.6850  146.1610 C   0  0  0  0  0  3  0  0  0  0  0  0
  188.5730  177.6840  147.9580 C   0  0  0  0  0  3  0  0  0  0  0  0
  187.5770  177.5460  145.0440 C   0  0  0  0  0  3  0  0  0  0  0  0
  189.0460  177.7170  144.9160 C   0  0  0  0  0  0  0  0  0  0  0  0
  189.5100  176.8080  147.1980 C   0  0  0  0  0  2  0  0  0  0  0  0
  186.8320  177.0960  136.6230 C   0  0  0  0  0  2  0  0  0  0  0  0
  185.3410  177.3650  136.7290 C   0  0  0  0  0  2  0  0  0  0  0  0
  184.6190  176.1150  136.8890 N   0  0  0  0  0  2  0  0  0  0  0  0
  183.3470  176.4460  137.3740 N   0  0  0  0  0  2  0  0  0  0  0  0
  183.2870  175.9820  138.7520 C   0  0  0  0  0  2  0  0  0  0  0  0
  182.2410  180.5210  138.6400 C   0  0  0  0  0  2  0  0  0  0  0  0
  182.6520  177.0340  139.6570 C   0  0  2  0  0  3  0  0  0  0  0  0
  181.1410  177.1590  139.4000 C   0  0  0  0  0  2  0  0  0  0  0  0
  183.2840  178.4170  139.4330 C   0  0  1  0  0  3  0  0  0  0  0  0
  180.9100  178.5540  139.0880 N   0  0  0  0  0  0  0  0  0  0  0  0
  179.6120  179.0850  138.7040 C   0  0  0  0  0  1  0  0  0  0  0  0
  182.1240  179.2830  139.1100 C   0  0  0  0  0  0  0  0  0  0  0  0
  185.0160  179.6010  140.6010 O   0  0  0  0  0  0  0  0  0  0  0  0
  183.4940  178.5060  141.9160 O   0  0  0  0  0  1  0  0  0  0  0  0
  183.9900  178.8740  140.6720 C   0  0  0  0  0  0  0  0  0  0  0  0
  1  7  1  0  0  0  0
  1  2  2  0  0  0  0
  2  5  1  0  0  0  0
  3 17  1  0  0  0  0
  4 27  1  6  0  0  0
  4  7  1  0  0  0  0
  4  6  1  0  0  0  0
  4  8  1  0  0  0  0
  5  3  2  0  0  0  0
  7  8  1  0  0  0  0
  8  6  1  6  0  0  0
  8  3  1  0  0  0  0
  9  2  1  0  0  0  0
  9 10  2  0  0  0  0
 11 15  1  0  0  0  0
 12 16  1  0  0  0  0
 12 14  2  0  0  0  0
 13 15  2  0  0  0  0
 14 13  1  0  0  0  0
 15  9  1  0  0  0  0
 16 11  2  0  0  0  0
 17 18  1  0  0  0  0
 18 19  1  0  0  0  0
 19 25  1  0  0  0  0
 20 26  1  0  0  0  0
 21 23  2  0  0  0  0
 22 21  1  0  0  0  0
 24 22  2  0  0  0  0
 25 24  1  0  0  0  0
 25 20  2  0  0  0  0
 26 23  1  0  0  0  0
 27 28  1  0  0  0  0
 28 29  1  0  0  0  0
 29 30  1  0  0  0  0
 30 31  1  0  0  0  0
 32 38  2  0  0  0  0
 33 31  1  6  0  0  0
 34 33  1  0  0  0  0
 35 33  1  0  0  0  0
 35 41  1  1  0  0  0
 36 38  1  0  0  0  0
 36 34  1  0  0  0  0
 37 36  1  0  0  0  0
 38 35  1  0  0  0  0
 39 41  2  0  0  0  0
 41 40  1  0  0  0  0
M  END
>  <MODEL>
8

>  <REMARK>
 VINA RESULT:      -7.6      3.418      4.899
  Name = 
  13 active torsions:
  status: ('A' for Active; 'I' for Inactive)
    1  A    between atoms: C_2  and  N_10
    2  A    between atoms: C_2  and  C_11
    3  A    between atoms: N_4  and  C_20
    4  A    between atoms: N_4  and  C_25
    5  A    between atoms: C_9  and  C_19
    6  A    between atoms: C_9  and  C_20
    7  A    between atoms: N_10  and  N_18
    8  A    between atoms: C_11  and  C_21
    9  A    between atoms: C_16  and  C_22
   10  A    between atoms: N_18  and  C_41
   11  A    between atoms: C_22  and  C_31
   12  A    between atoms: C_29  and  C_41
   13  A    between atoms: C_33  and  C_36
                            x       y       z     vdW  Elec       q    Type
                         _______ _______ _______ _____ _____    ______ ____

>  <TORSDO>
F 13

$$$$
=
 OpenBabel10222416523D

 41 46  0  0  1  0  0  0  0  0999 V2000
  185.3780  178.8180  141.7540 C   0  0  0  0  0  3  0  0  0  0  0  0
  184.2800  178.6590  142.8230 C   0  0  0  0  0  0  0  0  0  0  0  0
  182.4200  178.7210  141.1150 C   0  0  0  0  0  0  0  0  0  0  0  0
  184.9090  178.9910  139.0480 C   0  0  1  0  0  0  0  0  0  0  0  0
  182.9470  178.6340  142.5070 C   0  0  0  0  0  3  0  0  0  0  0  0
  183.5320  178.9410  138.7410 N   0  0  0  0  0  2  0  0  0  0  0  0
  184.7640  178.8800  140.4420 N   0  0  0  0  0  0  0  0  0  0  0  0
  183.3480  178.8360  140.1930 C   0  0  2  0  0  0  0  0  0  0  0  0
  184.6610  178.5910  144.2560 C   0  0  0  0  0  0  0  0  0  0  0  0
  183.8200  178.9540  145.1240 O   0  0  0  0  0  0  0  0  0  0  0  0
  186.8660  177.4400  143.8550 C   0  0  0  0  0  3  0  0  0  0  0  0
  188.4850  177.2070  145.6420 C   0  0  0  0  0  3  0  0  0  0  0  0
  186.3770  178.3230  146.0510 C   0  0  0  0  0  3  0  0  0  0  0  0
  187.6180  177.8730  146.5110 C   0  0  0  0  0  3  0  0  0  0  0  0
  185.9920  178.1220  144.7150 C   0  0  0  0  0  0  0  0  0  0  0  0
  188.1080  176.9890  144.3130 C   0  0  0  0  0  3  0  0  0  0  0  0
  180.9660  178.6880  140.7930 C   0  0  0  0  0  2  0  0  0  0  0  0
  180.5100  177.2560  140.5900 C   0  0  0  0  0  2  0  0  0  0  0  0
  180.5490  176.9310  139.1740 N   0  0  0  0  0  2  0  0  0  0  0  0
  180.3600  174.8310  138.1060 C   0  0  0  0  0  3  0  0  0  0  0  0
  183.0240  174.2120  136.7300 C   0  0  0  0  0  3  0  0  0  0  0  0
  183.4330  174.8990  137.9680 C   0  0  0  0  0  3  0  0  0  0  0  0
  181.8440  173.6200  136.5430 C   0  0  0  0  0  3  0  0  0  0  0  0
  182.6260  175.5590  138.8080 C   0  0  0  0  0  3  0  0  0  0  0  0
  181.1600  175.7420  138.6650 C   0  0  0  0  0  0  0  0  0  0  0  0
  180.8210  173.4970  137.6200 C   0  0  0  0  0  2  0  0  0  0  0  0
  185.6150  177.7590  138.4870 C   0  0  0  0  0  2  0  0  0  0  0  0
  185.7960  177.8770  136.9830 C   0  0  0  0  0  2  0  0  0  0  0  0
  186.3150  176.6320  136.4450 N   0  0  0  0  0  2  0  0  0  0  0  0
  187.1290  176.0740  137.4390 N   0  0  0  0  0  2  0  0  0  0  0  0
  188.4130  175.7820  136.8190 C   0  0  0  0  0  2  0  0  0  0  0  0
  191.3090  177.0300  140.2480 C   0  0  0  0  0  2  0  0  0  0  0  0
  189.4290  176.8810  137.1180 C   0  0  2  0  0  3  0  0  0  0  0  0
  190.8490  176.4620  136.7040 C   0  0  0  0  0  2  0  0  0  0  0  0
  189.4540  177.2230  138.6150 C   0  0  1  0  0  3  0  0  0  0  0  0
  191.6610  176.6000  137.8960 N   0  0  0  0  0  0  0  0  0  0  0  0
  193.0650  176.2280  137.9560 C   0  0  0  0  0  1  0  0  0  0  0  0
  190.8780  177.0400  138.9900 C   0  0  0  0  0  0  0  0  0  0  0  0
  189.0570  179.4830  137.9070 O   0  0  0  0  0  0  0  0  0  0  0  0
  188.4930  179.0030  140.0750 O   0  0  0  0  0  1  0  0  0  0  0  0
  189.0000  178.6340  138.8350 C   0  0  0  0  0  0  0  0  0  0  0  0
  1  2  2  0  0  0  0
  2  9  1  0  0  0  0
  3  5  2  0  0  0  0
  4 27  1  6  0  0  0
  4  8  1  0  0  0  0
  4  7  1  0  0  0  0
  5  2  1  0  0  0  0
  6  4  1  0  0  0  0
  7  1  1  0  0  0  0
  8  6  1  6  0  0  0
  8  7  1  0  0  0  0
  8  3  1  0  0  0  0
  9 15  1  0  0  0  0
  9 10  2  0  0  0  0
 11 16  2  0  0  0  0
 11 15  1  0  0  0  0
 12 14  2  0  0  0  0
 13 14  1  0  0  0  0
 15 13  2  0  0  0  0
 16 12  1  0  0  0  0
 17  3  1  0  0  0  0
 18 17  1  0  0  0  0
 19 18  1  0  0  0  0
 20 25  2  0  0  0  0
 21 22  1  0  0  0  0
 22 24  2  0  0  0  0
 23 21  2  0  0  0  0
 23 26  1  0  0  0  0
 25 24  1  0  0  0  0
 25 19  1  0  0  0  0
 26 20  1  0  0  0  0
 28 27  1  0  0  0  0
 29 28  1  0  0  0  0
 29 30  1  0  0  0  0
 31 30  1  0  0  0  0
 33 31  1  1  0  0  0
 33 35  1  0  0  0  0
 34 33  1  0  0  0  0
 34 36  1  0  0  0  0
 35 41  1  6  0  0  0
 35 38  1  0  0  0  0
 36 37  1  0  0  0  0
 36 38  1  0  0  0  0
 38 32  2  0  0  0  0
 39 41  2  0  0  0  0
 41 40  1  0  0  0  0
M  END
>  <MODEL>
9

>  <REMARK>
 VINA RESULT:      -7.5      3.522      8.924
  Name = 
  13 active torsions:
  status: ('A' for Active; 'I' for Inactive)
    1  A    between atoms: C_2  and  N_10
    2  A    between atoms: C_2  and  C_11
    3  A    between atoms: N_4  and  C_20
    4  A    between atoms: N_4  and  C_25
    5  A    between atoms: C_9  and  C_19
    6  A    between atoms: C_9  and  C_20
    7  A    between atoms: N_10  and  N_18
    8  A    between atoms: C_11  and  C_21
    9  A    between atoms: C_16  and  C_22
   10  A    between atoms: N_18  and  C_41
   11  A    between atoms: C_22  and  C_31
   12  A    between atoms: C_29  and  C_41
   13  A    between atoms: C_33  and  C_36
                            x       y       z     vdW  Elec       q    Type
                         _______ _______ _______ _____ _____    ______ ____

>  <TORSDO>
F 13

$$$$
