=
 OpenBabel10222416543D

 28 34  0  0  1  0  0  0  0  0999 V2000
  185.1220  178.1850  142.2580 C   0  0  2  0  0  0  0  0  0  0  0  0
  181.4370  179.0330  142.4570 O   0  0  0  0  0  0  0  0  0  0  0  0
  184.0620  178.6200  144.7240 C   0  0  0  0  0  3  0  0  0  0  0  0
  185.0270  178.3460  143.7370 N   0  0  0  0  0  0  0  0  0  0  0  0
  182.6210  178.8810  142.8580 C   0  0  0  0  0  0  0  0  0  0  0  0
  183.7760  178.8480  141.8290 C   0  0  2  0  0  3  0  0  0  0  0  0
  186.2410  178.6690  142.9710 C   0  0  2  0  0  0  0  0  0  0  0  0
  186.0740  179.0820  141.6060 N   0  0  0  0  0  2  0  0  0  0  0  0
  182.8710  178.8540  144.2800 N   0  0  0  0  0  0  0  0  0  0  0  0
  182.5020  177.3290  138.0530 N   0  0  0  0  0  0  0  0  0  0  0  0
  183.3280  178.3020  140.5040 C   0  0  0  0  0  0  0  0  0  0  0  0
  182.6650  176.4640  139.0890 C   0  0  0  0  0  3  0  0  0  0  0  0
  183.0820  176.9340  140.3360 C   0  0  0  0  0  3  0  0  0  0  0  0
  182.7360  178.6620  138.1960 C   0  0  0  0  0  3  0  0  0  0  0  0
  183.1530  179.1730  139.4270 C   0  0  0  0  0  3  0  0  0  0  0  0
  187.2520  177.5420  143.0760 C   0  0  0  0  0  2  0  0  0  0  0  0
  187.9260  177.0170  145.4510 C   0  0  1  0  0  3  0  0  0  0  0  0
  188.2850  177.5260  147.8510 C   0  0  0  0  0  2  0  0  0  0  0  0
  188.2510  177.8170  144.1970 C   0  0  1  0  0  3  0  0  0  0  0  0
  190.5690  177.0020  145.0130 C   0  0  0  0  0  3  0  0  0  0  0  0
  189.7570  177.5380  143.8250 C   0  0  1  0  0  3  0  0  0  0  0  0
  190.0740  177.0880  146.2700 C   0  0  0  0  0  3  0  0  0  0  0  0
  188.7740  177.8270  146.4530 C   0  0  1  0  0  0  0  0  0  0  0  0
  187.3010  177.5390  146.7010 C   0  0  1  0  0  3  0  0  0  0  0  0
  189.8850  175.3860  142.7740 O   0  0  0  0  0  0  0  0  0  0  0  0
  190.1820  177.2150  141.3570 N   0  0  0  0  0  2  0  0  0  0  0  0
  190.3510  176.4080  140.2250 N   0  0  0  0  0  1  0  0  0  0  0  0
  189.9460  176.6390  142.6410 C   0  0  0  0  0  0  0  0  0  0  0  0
  1  8  1  1  0  0  0
  1  7  1  0  0  0  0
  1  4  1  0  0  0  0
  2  5  2  0  0  0  0
  4  3  1  0  0  0  0
  5  9  1  0  0  0  0
  6 11  1  6  0  0  0
  6  1  1  0  0  0  0
  6  5  1  0  0  0  0
  7 16  1  1  0  0  0
  7  4  1  0  0  0  0
  8  7  1  0  0  0  0
  9  3  2  0  0  0  0
 10 14  2  0  0  0  0
 10 12  1  0  0  0  0
 12 13  2  0  0  0  0
 13 11  1  0  0  0  0
 14 15  1  0  0  0  0
 15 11  2  0  0  0  0
 16 19  1  0  0  0  0
 17 23  1  0  0  0  0
 17 24  1  0  0  0  0
 19 17  1  0  0  0  0
 20 22  2  0  0  0  0
 21 19  1  0  0  0  0
 21 20  1  0  0  0  0
 22 23  1  0  0  0  0
 23 24  1  0  0  0  0
 23 18  1  0  0  0  0
 24 18  1  0  0  0  0
 26 28  1  0  0  0  0
 27 26  1  0  0  0  0
 28 25  2  0  0  0  0
 28 21  1  0  0  0  0
M  END
>  <MODEL>
1

>  <REMARK>
 VINA RESULT:      -9.1      0.000      0.000
  Name = 
  4 active torsions:
  status: ('A' for Active; 'I' for Inactive)
    1  A    between atoms: C_6  and  C_15
    2  A    between atoms: C_12  and  C_27
    3  A    between atoms: C_13  and  C_19
    4  A    between atoms: C_15  and  C_22
                            x       y       z     vdW  Elec       q    Type
                         _______ _______ _______ _____ _____    ______ ____

>  <TORSDO>
F 4

$$$$
=
 OpenBabel10222416543D

 28 34  0  0  1  0  0  0  0  0999 V2000
  187.4820  178.0080  145.2710 C   0  0  2  0  0  0  0  0  0  0  0  0
  190.3010  177.2110  147.6710 O   0  0  0  0  0  0  0  0  0  0  0  0
  187.0150  178.3680  147.9260 C   0  0  0  0  0  3  0  0  0  0  0  0
  186.7690  178.3270  146.5410 N   0  0  0  0  0  0  0  0  0  0  0  0
  189.1330  177.5020  147.3000 C   0  0  0  0  0  0  0  0  0  0  0  0
  188.7040  177.2220  145.8410 C   0  0  2  0  0  3  0  0  0  0  0  0
  186.0880  177.7950  145.3490 C   0  0  2  0  0  0  0  0  0  0  0  0
  186.8550  176.9660  144.4630 N   0  0  0  0  0  2  0  0  0  0  0  0
  188.1950  177.9850  148.2870 N   0  0  0  0  0  0  0  0  0  0  0  0
  191.9960  177.5050  143.1430 N   0  0  0  0  0  0  0  0  0  0  0  0
  189.8640  177.3090  144.8920 C   0  0  0  0  0  0  0  0  0  0  0  0
  191.5390  176.2730  143.4970 C   0  0  0  0  0  3  0  0  0  0  0  0
  190.4630  176.1520  144.3790 C   0  0  0  0  0  3  0  0  0  0  0  0
  191.4270  178.6410  143.6290 C   0  0  0  0  0  3  0  0  0  0  0  0
  190.3490  178.5630  144.5130 C   0  0  0  0  0  3  0  0  0  0  0  0
  185.4010  178.9120  144.5860 C   0  0  0  0  0  2  0  0  0  0  0  0
  183.0680  179.2770  143.6920 C   0  0  1  0  0  3  0  0  0  0  0  0
  180.6490  178.7860  143.4560 C   0  0  0  0  0  2  0  0  0  0  0  0
  184.2810  178.3560  143.7110 C   0  0  1  0  0  3  0  0  0  0  0  0
  183.5450  178.3420  141.2280 C   0  0  0  0  0  3  0  0  0  0  0  0
  184.6900  178.0710  142.2160 C   0  0  1  0  0  3  0  0  0  0  0  0
  182.2780  178.4930  141.6800 C   0  0  0  0  0  3  0  0  0  0  0  0
  182.0360  178.2680  143.1490 C   0  0  1  0  0  0  0  0  0  0  0  0
  181.7820  179.0660  144.4200 C   0  0  1  0  0  3  0  0  0  0  0  0
  185.8750  180.0120  141.4580 O   0  0  0  0  0  0  0  0  0  0  0  0
  187.1600  178.0800  141.6930 N   0  0  0  0  0  2  0  0  0  0  0  0
  188.3380  178.7200  141.2870 N   0  0  0  0  0  1  0  0  0  0  0  0
  185.9240  178.7890  141.7620 C   0  0  0  0  0  0  0  0  0  0  0  0
  1  8  1  1  0  0  0
  1  7  1  0  0  0  0
  1  6  1  0  0  0  0
  1  4  1  0  0  0  0
  3  9  2  0  0  0  0
  4  3  1  0  0  0  0
  5  2  2  0  0  0  0
  5  9  1  0  0  0  0
  6 11  1  6  0  0  0
  6  5  1  0  0  0  0
  7 16  1  6  0  0  0
  7  4  1  0  0  0  0
  8  7  1  0  0  0  0
 10 12  2  0  0  0  0
 10 14  1  0  0  0  0
 12 13  1  0  0  0  0
 13 11  2  0  0  0  0
 14 15  2  0  0  0  0
 15 11  1  0  0  0  0
 17 19  1  0  0  0  0
 17 24  1  0  0  0  0
 18 24  1  0  0  0  0
 19 16  1  0  0  0  0
 20 22  2  0  0  0  0
 20 21  1  0  0  0  0
 21 19  1  0  0  0  0
 22 23  1  0  0  0  0
 23 18  1  0  0  0  0
 23 17  1  0  0  0  0
 23 24  1  0  0  0  0
 25 28  2  0  0  0  0
 26 28  1  0  0  0  0
 27 26  1  0  0  0  0
 28 21  1  0  0  0  0
M  END
>  <MODEL>
2

>  <REMARK>
 VINA RESULT:      -8.9      2.521      6.933
  Name = 
  4 active torsions:
  status: ('A' for Active; 'I' for Inactive)
    1  A    between atoms: C_6  and  C_15
    2  A    between atoms: C_12  and  C_27
    3  A    between atoms: C_13  and  C_19
    4  A    between atoms: C_15  and  C_22
                            x       y       z     vdW  Elec       q    Type
                         _______ _______ _______ _____ _____    ______ ____

>  <TORSDO>
F 4

$$$$
=
 OpenBabel10222416543D

 28 34  0  0  1  0  0  0  0  0999 V2000
  190.4770  177.0630  140.8300 C   0  0  2  0  0  0  0  0  0  0  0  0
  189.4940  177.9190  137.2750 O   0  0  0  0  0  0  0  0  0  0  0  0
  188.2290  178.5490  140.4700 C   0  0  0  0  0  3  0  0  0  0  0  0
  189.2590  177.8630  141.1400 N   0  0  0  0  0  0  0  0  0  0  0  0
  189.4660  177.9580  138.5330 C   0  0  0  0  0  0  0  0  0  0  0  0
  190.6930  177.4700  139.3390 C   0  0  2  0  0  3  0  0  0  0  0  0
  190.4310  177.8100  142.0270 C   0  0  2  0  0  0  0  0  0  0  0  0
  191.7110  177.5740  141.4210 N   0  0  0  0  0  2  0  0  0  0  0  0
  188.3260  178.5650  139.1810 N   0  0  0  0  0  0  0  0  0  0  0  0
  192.8610  174.4320  137.2740 N   0  0  0  0  0  0  0  0  0  0  0  0
  191.4450  176.3940  138.6120 C   0  0  0  0  0  0  0  0  0  0  0  0
  191.5210  174.2760  137.4570 C   0  0  0  0  0  3  0  0  0  0  0  0
  190.7870  175.2550  138.1290 C   0  0  0  0  0  3  0  0  0  0  0  0
  193.5180  175.5310  137.7340 C   0  0  0  0  0  3  0  0  0  0  0  0
  192.8200  176.5330  138.4110 C   0  0  0  0  0  3  0  0  0  0  0  0
  190.1890  176.8440  143.1720 C   0  0  0  0  0  2  0  0  0  0  0  0
  188.0570  176.8570  144.5240 C   0  0  1  0  0  3  0  0  0  0  0  0
  185.8890  177.7820  145.2950 C   0  0  0  0  0  2  0  0  0  0  0  0
  189.4060  177.5230  144.2930 C   0  0  1  0  0  3  0  0  0  0  0  0
  189.1980  177.4520  146.8740 C   0  0  0  0  0  3  0  0  0  0  0  0
  190.1540  177.5860  145.6790 C   0  0  1  0  0  3  0  0  0  0  0  0
  187.8630  177.5900  146.6950 C   0  0  0  0  0  3  0  0  0  0  0  0
  187.3860  177.9920  145.3240 C   0  0  1  0  0  0  0  0  0  0  0  0
  186.7240  177.3780  144.0990 C   0  0  1  0  0  3  0  0  0  0  0  0
  191.8250  176.1080  144.8000 O   0  0  0  0  0  0  0  0  0  0  0  0
  191.7320  176.2470  147.1260 N   0  0  0  0  0  2  0  0  0  0  0  0
  192.7870  175.3430  147.3000 N   0  0  0  0  0  1  0  0  0  0  0  0
  191.2770  176.6040  145.8220 C   0  0  0  0  0  0  0  0  0  0  0  0
  1  4  1  0  0  0  0
  1  8  1  6  0  0  0
  1  7  1  0  0  0  0
  2  5  2  0  0  0  0
  3  4  1  0  0  0  0
  4  7  1  0  0  0  0
  5  9  1  0  0  0  0
  5  6  1  0  0  0  0
  6 11  1  6  0  0  0
  6  1  1  0  0  0  0
  7 16  1  1  0  0  0
  8  7  1  0  0  0  0
  9  3  2  0  0  0  0
 10 12  2  0  0  0  0
 10 14  1  0  0  0  0
 12 13  1  0  0  0  0
 13 11  2  0  0  0  0
 14 15  2  0  0  0  0
 15 11  1  0  0  0  0
 16 19  1  0  0  0  0
 17 23  1  0  0  0  0
 18 23  1  0  0  0  0
 19 17  1  0  0  0  0
 19 21  1  0  0  0  0
 21 28  1  0  0  0  0
 21 20  1  0  0  0  0
 22 20  2  0  0  0  0
 23 22  1  0  0  0  0
 24 17  1  0  0  0  0
 24 18  1  0  0  0  0
 24 23  1  0  0  0  0
 25 28  2  0  0  0  0
 26 27  1  0  0  0  0
 28 26  1  0  0  0  0
M  END
>  <MODEL>
3

>  <REMARK>
 VINA RESULT:      -8.8      3.958      6.407
  Name = 
  4 active torsions:
  status: ('A' for Active; 'I' for Inactive)
    1  A    between atoms: C_6  and  C_15
    2  A    between atoms: C_12  and  C_27
    3  A    between atoms: C_13  and  C_19
    4  A    between atoms: C_15  and  C_22
                            x       y       z     vdW  Elec       q    Type
                         _______ _______ _______ _____ _____    ______ ____

>  <TORSDO>
F 4

$$$$
=
 OpenBabel10222416543D

 28 34  0  0  1  0  0  0  0  0999 V2000
  189.1320  177.3120  142.0490 C   0  0  2  0  0  0  0  0  0  0  0  0
  192.6210  177.5270  140.5940 O   0  0  0  0  0  0  0  0  0  0  0  0
  191.1560  177.9990  143.7300 C   0  0  0  0  0  3  0  0  0  0  0  0
  189.8550  177.6810  143.2990 N   0  0  0  0  0  0  0  0  0  0  0  0
  191.7280  177.5020  141.4820 C   0  0  0  0  0  0  0  0  0  0  0  0
  190.3410  176.9030  141.1510 C   0  0  2  0  0  3  0  0  0  0  0  0
  188.6540  176.8300  143.2870 C   0  0  2  0  0  0  0  0  0  0  0  0
  188.4110  176.0440  142.1110 N   0  0  0  0  0  2  0  0  0  0  0  0
  192.0690  177.9360  142.8170 N   0  0  0  0  0  0  0  0  0  0  0  0
  189.3290  177.4140  137.0400 N   0  0  0  0  0  0  0  0  0  0  0  0
  189.9910  177.0720  139.7020 C   0  0  0  0  0  0  0  0  0  0  0  0
  189.9440  176.2640  137.4280 C   0  0  0  0  0  3  0  0  0  0  0  0
  190.2870  176.0710  138.7680 C   0  0  0  0  0  3  0  0  0  0  0  0
  189.0320  178.3980  137.9310 C   0  0  0  0  0  3  0  0  0  0  0  0
  189.3580  178.2440  139.2800 C   0  0  0  0  0  3  0  0  0  0  0  0
  187.4250  177.6380  143.6620 C   0  0  0  0  0  2  0  0  0  0  0  0
  188.1170  178.2840  146.0020 C   0  0  1  0  0  3  0  0  0  0  0  0
  189.0000  177.8660  148.2810 C   0  0  0  0  0  2  0  0  0  0  0  0
  187.1250  177.5010  145.1520 C   0  0  1  0  0  3  0  0  0  0  0  0
  185.6390  178.5930  146.9700 C   0  0  0  0  0  3  0  0  0  0  0  0
  185.6740  177.9440  145.5780 C   0  0  1  0  0  3  0  0  0  0  0  0
  186.7000  178.4750  147.8030 C   0  0  0  0  0  3  0  0  0  0  0  0
  187.8370  177.5960  147.3540 C   0  0  1  0  0  0  0  0  0  0  0  0
  189.2480  177.7180  146.7950 C   0  0  1  0  0  3  0  0  0  0  0  0
  185.1270  180.0870  144.6510 O   0  0  0  0  0  0  0  0  0  0  0  0
  184.1720  178.2530  143.5720 N   0  0  0  0  0  2  0  0  0  0  0  0
  183.5200  179.0520  142.6240 N   0  0  0  0  0  1  0  0  0  0  0  0
  184.9830  178.8350  144.5910 C   0  0  0  0  0  0  0  0  0  0  0  0
  1  8  1  1  0  0  0
  1  7  1  0  0  0  0
  1  4  1  0  0  0  0
  2  5  2  0  0  0  0
  4  3  1  0  0  0  0
  5  9  1  0  0  0  0
  6 11  1  6  0  0  0
  6  5  1  0  0  0  0
  6  1  1  0  0  0  0
  7  4  1  0  0  0  0
  7 16  1  1  0  0  0
  8  7  1  0  0  0  0
  9  3  2  0  0  0  0
 10 12  2  0  0  0  0
 10 14  1  0  0  0  0
 12 13  1  0  0  0  0
 13 11  2  0  0  0  0
 14 15  2  0  0  0  0
 15 11  1  0  0  0  0
 16 19  1  0  0  0  0
 17 24  1  0  0  0  0
 17 23  1  0  0  0  0
 19 21  1  0  0  0  0
 19 17  1  0  0  0  0
 20 22  2  0  0  0  0
 21 20  1  0  0  0  0
 23 22  1  0  0  0  0
 23 18  1  0  0  0  0
 24 23  1  0  0  0  0
 24 18  1  0  0  0  0
 26 28  1  0  0  0  0
 27 26  1  0  0  0  0
 28 25  2  0  0  0  0
 28 21  1  0  0  0  0
M  END
>  <MODEL>
4

>  <REMARK>
 VINA RESULT:      -8.5      3.157      6.017
  Name = 
  4 active torsions:
  status: ('A' for Active; 'I' for Inactive)
    1  A    between atoms: C_6  and  C_15
    2  A    between atoms: C_12  and  C_27
    3  A    between atoms: C_13  and  C_19
    4  A    between atoms: C_15  and  C_22
                            x       y       z     vdW  Elec       q    Type
                         _______ _______ _______ _____ _____    ______ ____

>  <TORSDO>
F 4

$$$$
=
 OpenBabel10222416543D

 28 34  0  0  1  0  0  0  0  0999 V2000
  188.0900  177.7440  140.0430 C   0  0  2  0  0  0  0  0  0  0  0  0
  185.4390  178.4390  137.4300 O   0  0  0  0  0  0  0  0  0  0  0  0
  185.7520  178.8490  140.8850 C   0  0  0  0  0  3  0  0  0  0  0  0
  187.0610  178.3360  140.9450 N   0  0  0  0  0  0  0  0  0  0  0  0
  186.0020  178.4700  138.5560 C   0  0  0  0  0  0  0  0  0  0  0  0
  187.5180  178.1840  138.6590 C   0  0  2  0  0  3  0  0  0  0  0  0
  188.5080  178.4710  141.1790 C   0  0  2  0  0  0  0  0  0  0  0  0
  189.3700  178.4470  140.0320 N   0  0  0  0  0  2  0  0  0  0  0  0
  185.2280  178.8830  139.7040 N   0  0  0  0  0  0  0  0  0  0  0  0
  188.8280  175.4890  135.6240 N   0  0  0  0  0  0  0  0  0  0  0  0
  187.9840  177.2450  137.5840 C   0  0  0  0  0  0  0  0  0  0  0  0
  189.1640  176.8040  135.5270 C   0  0  0  0  0  3  0  0  0  0  0  0
  188.7480  177.7080  136.5060 C   0  0  0  0  0  3  0  0  0  0  0  0
  188.0870  175.0190  136.6640 C   0  0  0  0  0  3  0  0  0  0  0  0
  187.6520  175.8910  137.6640 C   0  0  0  0  0  3  0  0  0  0  0  0
  188.9720  177.4760  142.2270 C   0  0  0  0  0  2  0  0  0  0  0  0
  187.5970  177.1590  144.3200 C   0  0  1  0  0  3  0  0  0  0  0  0
  185.8730  177.7770  145.9930 C   0  0  0  0  0  2  0  0  0  0  0  0
  188.6690  177.9920  143.6310 C   0  0  1  0  0  3  0  0  0  0  0  0
  189.5530  177.7470  146.0530 C   0  0  0  0  0  3  0  0  0  0  0  0
  189.9150  178.0620  144.5940 C   0  0  1  0  0  3  0  0  0  0  0  0
  188.2580  177.7380  146.4460 C   0  0  0  0  0  3  0  0  0  0  0  0
  187.2250  178.1590  145.4340 C   0  0  1  0  0  0  0  0  0  0  0  0
  186.1700  177.5430  144.5270 C   0  0  1  0  0  3  0  0  0  0  0  0
  191.9970  177.7000  143.4600 O   0  0  0  0  0  0  0  0  0  0  0  0
  191.1340  175.8510  144.5880 N   0  0  0  0  0  2  0  0  0  0  0  0
  192.2080  175.0290  144.2230 N   0  0  0  0  0  1  0  0  0  0  0  0
  191.0750  177.2130  144.1690 C   0  0  0  0  0  0  0  0  0  0  0  0
  1  8  1  6  0  0  0
  1  4  1  0  0  0  0
  1  7  1  0  0  0  0
  2  5  2  0  0  0  0
  3  4  1  0  0  0  0
  4  7  1  0  0  0  0
  5  6  1  0  0  0  0
  5  9  1  0  0  0  0
  6 11  1  6  0  0  0
  6  1  1  0  0  0  0
  7 16  1  1  0  0  0
  8  7  1  0  0  0  0
  9  3  2  0  0  0  0
 10 14  1  0  0  0  0
 11 15  1  0  0  0  0
 12 10  2  0  0  0  0
 12 13  1  0  0  0  0
 13 11  2  0  0  0  0
 14 15  2  0  0  0  0
 16 19  1  0  0  0  0
 17 24  1  0  0  0  0
 17 23  1  0  0  0  0
 19 17  1  0  0  0  0
 19 21  1  0  0  0  0
 20 22  2  0  0  0  0
 21 20  1  0  0  0  0
 23 18  1  0  0  0  0
 23 22  1  0  0  0  0
 24 23  1  0  0  0  0
 24 18  1  0  0  0  0
 25 28  2  0  0  0  0
 27 26  1  0  0  0  0
 28 26  1  0  0  0  0
 28 21  1  0  0  0  0
M  END
>  <MODEL>
5

>  <REMARK>
 VINA RESULT:      -8.0      3.600      4.352
  Name = 
  4 active torsions:
  status: ('A' for Active; 'I' for Inactive)
    1  A    between atoms: C_6  and  C_15
    2  A    between atoms: C_12  and  C_27
    3  A    between atoms: C_13  and  C_19
    4  A    between atoms: C_15  and  C_22
                            x       y       z     vdW  Elec       q    Type
                         _______ _______ _______ _____ _____    ______ ____

>  <TORSDO>
F 4

$$$$
=
 OpenBabel10222416543D

 28 34  0  0  1  0  0  0  0  0999 V2000
  190.5300  177.1420  140.0980 C   0  0  2  0  0  0  0  0  0  0  0  0
  192.8550  176.4120  137.2000 O   0  0  0  0  0  0  0  0  0  0  0  0
  193.1970  177.4780  140.5090 C   0  0  0  0  0  3  0  0  0  0  0  0
  191.8180  177.4360  140.7870 N   0  0  0  0  0  0  0  0  0  0  0  0
  192.5150  176.6720  138.3840 C   0  0  0  0  0  0  0  0  0  0  0  0
  191.0650  176.3870  138.8410 C   0  0  2  0  0  3  0  0  0  0  0  0
  190.6410  176.8910  141.4830 C   0  0  2  0  0  0  0  0  0  0  0  0
  189.7330  176.0860  140.7170 N   0  0  0  0  0  2  0  0  0  0  0  0
  193.5270  177.1260  139.3100 N   0  0  0  0  0  0  0  0  0  0  0  0
  188.2900  176.7010  135.6170 N   0  0  0  0  0  0  0  0  0  0  0  0
  190.0880  176.5100  137.7080 C   0  0  0  0  0  0  0  0  0  0  0  0
  188.7500  177.8390  136.2040 C   0  0  0  0  0  3  0  0  0  0  0  0
  189.6580  177.7650  137.2610 C   0  0  0  0  0  3  0  0  0  0  0  0
  188.6970  175.4720  136.0360 C   0  0  0  0  0  3  0  0  0  0  0  0
  189.6050  175.3540  137.0900 C   0  0  0  0  0  3  0  0  0  0  0  0
  189.9010  177.9920  142.2190 C   0  0  0  0  0  2  0  0  0  0  0  0
  189.2690  178.1180  144.6600 C   0  0  1  0  0  3  0  0  0  0  0  0
  189.1470  177.2960  146.9960 C   0  0  0  0  0  2  0  0  0  0  0  0
  189.0370  177.4080  143.3330 C   0  0  1  0  0  3  0  0  0  0  0  0
  186.6530  177.6580  144.3140 C   0  0  0  0  0  3  0  0  0  0  0  0
  187.4870  177.4220  143.0460 C   0  0  1  0  0  3  0  0  0  0  0  0
  187.2240  177.5380  145.5360 C   0  0  0  0  0  3  0  0  0  0  0  0
  188.6490  177.0550  145.5890 C   0  0  1  0  0  0  0  0  0  0  0  0
  190.0510  177.6000  145.8210 C   0  0  1  0  0  3  0  0  0  0  0  0
  187.9270  179.0090  141.3040 O   0  0  0  0  0  0  0  0  0  0  0  0
  185.6740  178.5800  141.7250 N   0  0  0  0  0  2  0  0  0  0  0  0
  185.2390  179.4630  140.7280 N   0  0  0  0  0  1  0  0  0  0  0  0
  187.0630  178.3860  141.9800 C   0  0  0  0  0  0  0  0  0  0  0  0
  1  8  1  1  0  0  0
  1  4  1  0  0  0  0
  1  7  1  0  0  0  0
  2  5  2  0  0  0  0
  3  4  1  0  0  0  0
  4  7  1  0  0  0  0
  5  6  1  0  0  0  0
  5  9  1  0  0  0  0
  6 11  1  6  0  0  0
  6  1  1  0  0  0  0
  7 16  1  1  0  0  0
  8  7  1  0  0  0  0
  9  3  2  0  0  0  0
 10 14  2  0  0  0  0
 10 12  1  0  0  0  0
 12 13  2  0  0  0  0
 13 11  1  0  0  0  0
 14 15  1  0  0  0  0
 15 11  2  0  0  0  0
 16 19  1  0  0  0  0
 17 23  1  0  0  0  0
 17 24  1  0  0  0  0
 19 17  1  0  0  0  0
 20 22  2  0  0  0  0
 21 19  1  0  0  0  0
 21 20  1  0  0  0  0
 22 23  1  0  0  0  0
 23 24  1  0  0  0  0
 23 18  1  0  0  0  0
 24 18  1  0  0  0  0
 25 28  2  0  0  0  0
 26 28  1  0  0  0  0
 27 26  1  0  0  0  0
 28 21  1  0  0  0  0
M  END
>  <MODEL>
6

>  <REMARK>
 VINA RESULT:      -7.8      3.551      6.523
  Name = 
  4 active torsions:
  status: ('A' for Active; 'I' for Inactive)
    1  A    between atoms: C_6  and  C_15
    2  A    between atoms: C_12  and  C_27
    3  A    between atoms: C_13  and  C_19
    4  A    between atoms: C_15  and  C_22
                            x       y       z     vdW  Elec       q    Type
                         _______ _______ _______ _____ _____    ______ ____

>  <TORSDO>
F 4

$$$$
=
 OpenBabel10222416543D

 28 34  0  0  1  0  0  0  0  0999 V2000
  184.3940  178.4250  140.8920 C   0  0  2  0  0  0  0  0  0  0  0  0
  180.7200  178.9200  141.6630 O   0  0  0  0  0  0  0  0  0  0  0  0
  183.7040  178.8960  143.4800 C   0  0  0  0  0  3  0  0  0  0  0  0
  184.5210  178.6600  142.3580 N   0  0  0  0  0  0  0  0  0  0  0  0
  181.9630  178.9070  141.8680 C   0  0  0  0  0  0  0  0  0  0  0  0
  182.9340  178.9280  140.6650 C   0  0  2  0  0  3  0  0  0  0  0  0
  185.5560  179.0560  141.3900 C   0  0  2  0  0  0  0  0  0  0  0  0
  185.1290  179.3710  140.0560 N   0  0  0  0  0  2  0  0  0  0  0  0
  182.4390  178.9870  143.2300 N   0  0  0  0  0  0  0  0  0  0  0  0
  181.2370  177.0780  137.2180 N   0  0  0  0  0  0  0  0  0  0  0  0
  182.3400  178.2660  139.4560 C   0  0  0  0  0  0  0  0  0  0  0  0
  181.7400  176.2910  138.2070 C   0  0  0  0  0  3  0  0  0  0  0  0
  182.3020  176.8700  139.3460 C   0  0  0  0  0  3  0  0  0  0  0  0
  181.2630  178.4350  137.3060 C   0  0  0  0  0  3  0  0  0  0  0  0
  181.8160  179.0540  138.4290 C   0  0  0  0  0  3  0  0  0  0  0  0
  186.6830  178.0400  141.3720 C   0  0  0  0  0  2  0  0  0  0  0  0
  187.5010  177.1600  143.5920 C   0  0  1  0  0  3  0  0  0  0  0  0
  187.7980  177.1970  146.0540 C   0  0  0  0  0  2  0  0  0  0  0  0
  187.6280  178.2640  142.5500 C   0  0  1  0  0  3  0  0  0  0  0  0
  190.0810  177.7840  143.2270 C   0  0  0  0  0  3  0  0  0  0  0  0
  189.1510  178.3870  142.1640 C   0  0  1  0  0  3  0  0  0  0  0  0
  189.6050  177.4910  144.4600 C   0  0  0  0  0  3  0  0  0  0  0  0
  188.1850  177.8890  144.7660 C   0  0  1  0  0  0  0  0  0  0  0  0
  186.8080  177.2580  144.9100 C   0  0  1  0  0  3  0  0  0  0  0  0
  189.2050  178.4640  139.7680 O   0  0  0  0  0  0  0  0  0  0  0  0
  190.1720  176.5740  140.7340 N   0  0  0  0  0  2  0  0  0  0  0  0
  190.5230  176.0240  139.4950 N   0  0  0  0  0  1  0  0  0  0  0  0
  189.4960  177.8270  140.8180 C   0  0  0  0  0  0  0  0  0  0  0  0
  1  8  1  1  0  0  0
  1  7  1  0  0  0  0
  1  4  1  0  0  0  0
  2  5  2  0  0  0  0
  4  3  1  0  0  0  0
  5  9  1  0  0  0  0
  6 11  1  6  0  0  0
  6  1  1  0  0  0  0
  6  5  1  0  0  0  0
  7 16  1  1  0  0  0
  7  4  1  0  0  0  0
  8  7  1  0  0  0  0
  9  3  2  0  0  0  0
 10 14  2  0  0  0  0
 10 12  1  0  0  0  0
 12 13  2  0  0  0  0
 13 11  1  0  0  0  0
 14 15  1  0  0  0  0
 15 11  2  0  0  0  0
 16 19  1  0  0  0  0
 17 23  1  0  0  0  0
 17 24  1  0  0  0  0
 19 17  1  0  0  0  0
 20 22  2  0  0  0  0
 21 19  1  0  0  0  0
 21 20  1  0  0  0  0
 22 23  1  0  0  0  0
 23 24  1  0  0  0  0
 23 18  1  0  0  0  0
 24 18  1  0  0  0  0
 25 28  2  0  0  0  0
 26 28  1  0  0  0  0
 27 26  1  0  0  0  0
 28 21  1  0  0  0  0
M  END
>  <MODEL>
7

>  <REMARK>
 VINA RESULT:      -7.7      1.479      1.794
  Name = 
  4 active torsions:
  status: ('A' for Active; 'I' for Inactive)
    1  A    between atoms: C_6  and  C_15
    2  A    between atoms: C_12  and  C_27
    3  A    between atoms: C_13  and  C_19
    4  A    between atoms: C_15  and  C_22
                            x       y       z     vdW  Elec       q    Type
                         _______ _______ _______ _____ _____    ______ ____

>  <TORSDO>
F 4

$$$$
=
 OpenBabel10222416543D

 28 34  0  0  1  0  0  0  0  0999 V2000
  185.3480  178.3150  142.4600 C   0  0  2  0  0  0  0  0  0  0  0  0
  182.0880  178.8050  144.3230 O   0  0  0  0  0  0  0  0  0  0  0  0
  185.4390  178.3100  145.1780 C   0  0  0  0  0  3  0  0  0  0  0  0
  185.8920  178.2600  143.8470 N   0  0  0  0  0  0  0  0  0  0  0  0
  183.3320  178.7020  144.1590 C   0  0  0  0  0  0  0  0  0  0  0  0
  183.9350  178.9120  142.7510 C   0  0  2  0  0  3  0  0  0  0  0  0
  186.6550  178.7900  142.7050 C   0  0  2  0  0  0  0  0  0  0  0  0
  185.9110  179.3720  141.6240 N   0  0  0  0  0  2  0  0  0  0  0  0
  184.1680  178.5000  145.3200 N   0  0  0  0  0  0  0  0  0  0  0  0
  181.2260  177.7690  139.6610 N   0  0  0  0  0  0  0  0  0  0  0  0
  182.9740  178.5190  141.6670 C   0  0  0  0  0  0  0  0  0  0  0  0
  180.9290  178.8510  140.4310 C   0  0  0  0  0  3  0  0  0  0  0  0
  181.7970  179.2470  141.4490 C   0  0  0  0  0  3  0  0  0  0  0  0
  182.3640  177.0500  139.8550 C   0  0  0  0  0  3  0  0  0  0  0  0
  183.2600  177.4130  140.8640 C   0  0  0  0  0  3  0  0  0  0  0  0
  187.6340  177.7510  142.1910 C   0  0  0  0  0  2  0  0  0  0  0  0
  189.3720  176.9210  143.8240 C   0  0  1  0  0  3  0  0  0  0  0  0
  190.7770  177.0360  145.8630 C   0  0  0  0  0  2  0  0  0  0  0  0
  189.0220  177.9790  142.7860 C   0  0  1  0  0  3  0  0  0  0  0  0
  191.4990  177.4230  142.2750 C   0  0  0  0  0  3  0  0  0  0  0  0
  190.1940  178.0240  141.7330 C   0  0  1  0  0  3  0  0  0  0  0  0
  191.6440  177.1960  143.6020 C   0  0  0  0  0  3  0  0  0  0  0  0
  190.5360  177.6630  144.5090 C   0  0  1  0  0  0  0  0  0  0  0  0
  189.3710  177.0950  145.3060 C   0  0  1  0  0  3  0  0  0  0  0  0
  188.9500  177.8840  139.6890 O   0  0  0  0  0  0  0  0  0  0  0  0
  190.6060  176.2660  139.9690 N   0  0  0  0  0  2  0  0  0  0  0  0
  190.3360  175.6640  138.7330 N   0  0  0  0  0  1  0  0  0  0  0  0
  189.8640  177.4010  140.4110 C   0  0  0  0  0  0  0  0  0  0  0  0
  1  8  1  1  0  0  0
  1  7  1  0  0  0  0
  1  6  1  0  0  0  0
  1  4  1  0  0  0  0
  3  9  2  0  0  0  0
  4  3  1  0  0  0  0
  5  2  2  0  0  0  0
  5  9  1  0  0  0  0
  6 11  1  6  0  0  0
  6  5  1  0  0  0  0
  7 16  1  6  0  0  0
  7  4  1  0  0  0  0
  8  7  1  0  0  0  0
 10 14  2  0  0  0  0
 10 12  1  0  0  0  0
 12 13  2  0  0  0  0
 13 11  1  0  0  0  0
 14 15  1  0  0  0  0
 15 11  2  0  0  0  0
 16 19  1  0  0  0  0
 17 23  1  0  0  0  0
 17 24  1  0  0  0  0
 19 17  1  0  0  0  0
 20 22  2  0  0  0  0
 21 20  1  0  0  0  0
 21 19  1  0  0  0  0
 22 23  1  0  0  0  0
 23 24  1  0  0  0  0
 23 18  1  0  0  0  0
 24 18  1  0  0  0  0
 25 28  2  0  0  0  0
 26 28  1  0  0  0  0
 27 26  1  0  0  0  0
 28 21  1  0  0  0  0
M  END
>  <MODEL>
8

>  <REMARK>
 VINA RESULT:      -7.6      1.627      2.169
  Name = 
  4 active torsions:
  status: ('A' for Active; 'I' for Inactive)
    1  A    between atoms: C_6  and  C_15
    2  A    between atoms: C_12  and  C_27
    3  A    between atoms: C_13  and  C_19
    4  A    between atoms: C_15  and  C_22
                            x       y       z     vdW  Elec       q    Type
                         _______ _______ _______ _____ _____    ______ ____

>  <TORSDO>
F 4

$$$$
=
 OpenBabel10222416543D

 28 34  0  0  1  0  0  0  0  0999 V2000
  188.8550  177.3480  142.2440 C   0  0  2  0  0  0  0  0  0  0  0  0
  191.5070  177.4710  139.5440 O   0  0  0  0  0  0  0  0  0  0  0  0
  191.4440  177.6130  143.0340 C   0  0  0  0  0  3  0  0  0  0  0  0
  190.0470  177.4710  143.1300 N   0  0  0  0  0  0  0  0  0  0  0  0
  191.0310  177.3960  140.7070 C   0  0  0  0  0  0  0  0  0  0  0  0
  189.5570  176.9700  140.9020 C   0  0  2  0  0  3  0  0  0  0  0  0
  188.8320  176.7350  143.5160 C   0  0  2  0  0  0  0  0  0  0  0  0
  188.0500  176.1490  142.4640 N   0  0  0  0  0  2  0  0  0  0  0  0
  191.9160  177.6030  141.8310 N   0  0  0  0  0  0  0  0  0  0  0  0
  187.1020  178.1350  137.6150 N   0  0  0  0  0  0  0  0  0  0  0  0
  188.7010  177.3740  139.7370 C   0  0  0  0  0  0  0  0  0  0  0  0
  188.1410  177.2860  137.3920 C   0  0  0  0  0  3  0  0  0  0  0  0
  188.9620  176.8890  138.4500 C   0  0  0  0  0  3  0  0  0  0  0  0
  186.8310  178.6160  138.8580 C   0  0  0  0  0  3  0  0  0  0  0  0
  187.6270  178.2430  139.9430 C   0  0  0  0  0  3  0  0  0  0  0  0
  187.9640  177.5830  144.4270 C   0  0  0  0  0  2  0  0  0  0  0  0
  189.5140  177.9040  146.3940 C   0  0  1  0  0  3  0  0  0  0  0  0
  191.1590  177.1800  148.1020 C   0  0  0  0  0  2  0  0  0  0  0  0
  188.2340  177.2480  145.8920 C   0  0  1  0  0  3  0  0  0  0  0  0
  187.5970  178.0940  148.2560 C   0  0  0  0  0  3  0  0  0  0  0  0
  187.0740  177.6380  146.8850 C   0  0  1  0  0  3  0  0  0  0  0  0
  188.8840  177.8590  148.6050 C   0  0  0  0  0  3  0  0  0  0  0  0
  189.7210  177.0430  147.6560 C   0  0  1  0  0  0  0  0  0  0  0  0
  190.8250  177.2310  146.6260 C   0  0  1  0  0  3  0  0  0  0  0  0
  186.1280  179.8380  146.7890 O   0  0  0  0  0  0  0  0  0  0  0  0
  185.1960  178.2810  145.3250 N   0  0  0  0  0  2  0  0  0  0  0  0
  184.2930  179.2080  144.7900 N   0  0  0  0  0  1  0  0  0  0  0  0
  186.1150  178.6560  146.3490 C   0  0  0  0  0  0  0  0  0  0  0  0
  1  8  1  1  0  0  0
  1  4  1  0  0  0  0
  1  7  1  0  0  0  0
  2  5  2  0  0  0  0
  3  4  1  0  0  0  0
  4  7  1  0  0  0  0
  5  6  1  0  0  0  0
  5  9  1  0  0  0  0
  6 11  1  6  0  0  0
  6  1  1  0  0  0  0
  7 16  1  1  0  0  0
  8  7  1  0  0  0  0
  9  3  2  0  0  0  0
 10 14  1  0  0  0  0
 11 15  1  0  0  0  0
 12 10  2  0  0  0  0
 12 13  1  0  0  0  0
 13 11  2  0  0  0  0
 14 15  2  0  0  0  0
 16 19  1  0  0  0  0
 17 24  1  0  0  0  0
 17 23  1  0  0  0  0
 19 17  1  0  0  0  0
 19 21  1  0  0  0  0
 20 22  2  0  0  0  0
 21 20  1  0  0  0  0
 23 18  1  0  0  0  0
 23 22  1  0  0  0  0
 24 23  1  0  0  0  0
 24 18  1  0  0  0  0
 26 28  1  0  0  0  0
 27 26  1  0  0  0  0
 28 25  2  0  0  0  0
 28 21  1  0  0  0  0
M  END
>  <MODEL>
9

>  <REMARK>
 VINA RESULT:      -7.4      3.133      5.576
  Name = 
  4 active torsions:
  status: ('A' for Active; 'I' for Inactive)
    1  A    between atoms: C_6  and  C_15
    2  A    between atoms: C_12  and  C_27
    3  A    between atoms: C_13  and  C_19
    4  A    between atoms: C_15  and  C_22
                            x       y       z     vdW  Elec       q    Type
                         _______ _______ _______ _____ _____    ______ ____

>  <TORSDO>
F 4

$$$$
