=
 OpenBabel10222417093D

 25 29  0  0  1  0  0  0  0  0999 V2000
  187.6650  177.9790  145.9650 O   0  0  0  0  0  0  0  0  0  0  0  0
  191.4350  176.2830  143.2370 N   0  0  0  0  0  2  0  0  0  0  0  0
  189.4030  176.7400  144.0780 C   0  0  2  0  0  0  0  0  0  0  0  0
  189.7280  176.7510  146.9190 C   0  0  2  0  0  3  0  0  0  0  0  0
  189.0310  177.9140  146.2100 C   0  0  2  0  0  0  0  0  0  0  0  0
  189.0440  177.7650  147.7360 C   0  0  0  0  0  2  0  0  0  0  0  0
  189.1940  175.6740  143.1050 N   0  0  0  0  0  2  0  0  0  0  0  0
  191.6780  177.1540  145.4420 C   0  0  0  0  0  3  0  0  0  0  0  0
  188.4800  177.8770  143.8600 C   0  0  2  0  0  3  0  0  0  0  0  0
  190.8900  176.9350  144.2020 C   0  0  1  0  0  3  0  0  0  0  0  0
  190.4510  175.6280  142.5330 O   0  0  0  0  0  0  0  0  0  0  0  0
  191.1720  177.0620  146.6830 C   0  0  0  0  0  3  0  0  0  0  0  0
  188.3220  177.0450  145.1650 C   0  0  2  0  0  0  0  0  0  0  0  0
  187.2890  177.6050  142.9410 C   0  0  0  0  0  2  0  0  0  0  0  0
  188.2190  178.3200  140.8660 O   0  0  0  0  0  1  0  0  0  0  0  0
  187.2410  178.6270  141.8120 C   0  0  1  0  0  3  0  0  0  0  0  0
  185.8900  178.6570  141.1510 C   0  0  0  0  0  0  0  0  0  0  0  0
  185.7850  179.0270  139.9910 O   0  0  0  0  0  0  0  0  0  0  0  0
  183.4930  178.0600  140.9470 C   0  0  0  0  0  1  0  0  0  0  0  0
  184.6540  178.2560  141.9040 C   0  0  2  0  0  3  0  0  0  0  0  0
  184.2790  179.2820  142.9630 C   0  0  0  0  0  2  0  0  0  0  0  0
  182.9380  178.9380  143.5850 C   0  0  0  0  0  2  0  0  0  0  0  0
  183.0530  179.0030  145.0920 C   0  0  0  0  0  2  0  0  0  0  0  0
  184.4860  178.7380  145.5010 C   0  0  0  0  0  2  0  0  0  0  0  0
  184.5600  178.6270  146.8890 O   0  0  0  0  0  1  0  0  0  0  0  0
  1  5  1  0  0  0  0
  2 10  1  0  0  0  0
  3  7  1  6  0  0  0
  3 10  1  0  0  0  0
  3 13  1  0  0  0  0
  4 12  1  1  0  0  0
  4  6  1  0  0  0  0
  5  4  1  0  0  0  0
  5  6  1  6  0  0  0
  8 12  2  0  0  0  0
  9 14  1  6  0  0  0
  9  3  1  0  0  0  0
  9 13  1  0  0  0  0
 10  8  1  1  0  0  0
 11  7  1  0  0  0  0
 11  2  1  0  0  0  0
 13  1  1  1  0  0  0
 13  5  1  0  0  0  0
 16 15  1  6  0  0  0
 16 14  1  0  0  0  0
 17 16  1  0  0  0  0
 17 20  1  0  0  0  0
 18 17  2  0  0  0  0
 20 19  1  6  0  0  0
 20 21  1  0  0  0  0
 21 22  1  0  0  0  0
 22 23  1  0  0  0  0
 23 24  1  0  0  0  0
 24 25  1  0  0  0  0
M  END
>  <MODEL>
1

>  <REMARK>
 VINA RESULT:      -8.0      0.000      0.000
  Name = 
  8 active torsions:
  status: ('A' for Active; 'I' for Inactive)
    1  A    between atoms: C_1  and  C_9
    2  A    between atoms: C_1  and  C_12
    3  A    between atoms: C_4  and  C_12
    4  A    between atoms: C_7  and  C_11
    5  A    between atoms: C_7  and  C_20
    6  A    between atoms: C_9  and  C_20
    7  A    between atoms: C_11  and  C_15
    8  A    between atoms: C_15  and  C_19
                            x       y       z     vdW  Elec       q    Type
                         _______ _______ _______ _____ _____    ______ ____

>  <TORSDO>
F 8

$$$$
=
 OpenBabel10222417093D

 25 29  0  0  1  0  0  0  0  0999 V2000
  187.3970  177.9380  145.8990 O   0  0  0  0  0  0  0  0  0  0  0  0
  191.2390  176.3300  143.2190 N   0  0  0  0  0  2  0  0  0  0  0  0
  189.1860  176.7490  144.0280 C   0  0  2  0  0  0  0  0  0  0  0  0
  189.4570  176.7220  146.8740 C   0  0  2  0  0  3  0  0  0  0  0  0
  188.7580  177.8870  146.1690 C   0  0  2  0  0  0  0  0  0  0  0  0
  188.7450  177.7150  147.6930 C   0  0  0  0  0  2  0  0  0  0  0  0
  189.0090  175.6960  143.0350 N   0  0  0  0  0  2  0  0  0  0  0  0
  191.4290  177.1710  145.4410 C   0  0  0  0  0  3  0  0  0  0  0  0
  188.2520  177.8770  143.8080 C   0  0  2  0  0  3  0  0  0  0  0  0
  190.6680  176.9620  144.1830 C   0  0  1  0  0  3  0  0  0  0  0  0
  190.2780  175.6740  142.4870 O   0  0  0  0  0  0  0  0  0  0  0  0
  190.9010  177.0550  146.6700 C   0  0  0  0  0  3  0  0  0  0  0  0
  188.0800  177.0240  145.0980 C   0  0  2  0  0  0  0  0  0  0  0  0
  187.0830  177.6050  142.8630 C   0  0  0  0  0  2  0  0  0  0  0  0
  187.8220  178.3880  140.7370 O   0  0  0  0  0  1  0  0  0  0  0  0
  186.9830  178.6980  141.8060 C   0  0  1  0  0  3  0  0  0  0  0  0
  185.5720  178.8610  141.3120 C   0  0  0  0  0  0  0  0  0  0  0  0
  185.3210  179.6780  140.4390 O   0  0  0  0  0  0  0  0  0  0  0  0
  183.3930  177.7780  140.8380 C   0  0  0  0  0  1  0  0  0  0  0  0
  184.4520  178.0430  141.8910 C   0  0  2  0  0  3  0  0  0  0  0  0
  183.8190  178.7240  143.0960 C   0  0  0  0  0  2  0  0  0  0  0  0
  182.3790  179.0970  142.7990 C   0  0  0  0  0  2  0  0  0  0  0  0
  181.5210  178.7830  144.0060 C   0  0  0  0  0  2  0  0  0  0  0  0
  180.1100  178.4720  143.5540 C   0  0  0  0  0  2  0  0  0  0  0  0
  179.4870  177.6630  144.5030 O   0  0  0  0  0  1  0  0  0  0  0  0
  1  5  1  0  0  0  0
  2 10  1  0  0  0  0
  3  7  1  6  0  0  0
  3 10  1  0  0  0  0
  3 13  1  0  0  0  0
  4 12  1  1  0  0  0
  4  6  1  0  0  0  0
  5  4  1  0  0  0  0
  5  6  1  6  0  0  0
  8 12  2  0  0  0  0
  9 14  1  6  0  0  0
  9  3  1  0  0  0  0
  9 13  1  0  0  0  0
 10  8  1  1  0  0  0
 11  7  1  0  0  0  0
 11  2  1  0  0  0  0
 13  1  1  1  0  0  0
 13  5  1  0  0  0  0
 16 15  1  6  0  0  0
 16 14  1  0  0  0  0
 17 16  1  0  0  0  0
 17 20  1  0  0  0  0
 18 17  2  0  0  0  0
 20 19  1  6  0  0  0
 20 21  1  0  0  0  0
 22 21  1  0  0  0  0
 22 23  1  0  0  0  0
 24 23  1  0  0  0  0
 24 25  1  0  0  0  0
M  END
>  <MODEL>
2

>  <REMARK>
 VINA RESULT:      -7.7      1.365      1.584
  Name = 
  8 active torsions:
  status: ('A' for Active; 'I' for Inactive)
    1  A    between atoms: C_1  and  C_9
    2  A    between atoms: C_1  and  C_12
    3  A    between atoms: C_4  and  C_12
    4  A    between atoms: C_7  and  C_11
    5  A    between atoms: C_7  and  C_20
    6  A    between atoms: C_9  and  C_20
    7  A    between atoms: C_11  and  C_15
    8  A    between atoms: C_15  and  C_19
                            x       y       z     vdW  Elec       q    Type
                         _______ _______ _______ _____ _____    ______ ____

>  <TORSDO>
F 8

$$$$
=
 OpenBabel10222417093D

 25 29  0  0  1  0  0  0  0  0999 V2000
  186.3410  178.3330  144.9720 O   0  0  0  0  0  0  0  0  0  0  0  0
  183.9200  178.8470  140.6820 N   0  0  0  0  0  2  0  0  0  0  0  0
  185.4550  178.8860  142.3220 C   0  0  2  0  0  0  0  0  0  0  0  0
  183.9980  179.3950  144.7300 C   0  0  2  0  0  3  0  0  0  0  0  0
  184.9930  178.2350  144.6510 C   0  0  2  0  0  0  0  0  0  0  0  0
  184.3480  178.6830  145.9680 C   0  0  0  0  0  2  0  0  0  0  0  0
  185.9790  179.7540  141.2740 N   0  0  0  0  0  2  0  0  0  0  0  0
  182.8500  178.4090  142.7650 C   0  0  0  0  0  3  0  0  0  0  0  0
  186.4530  177.8840  142.7600 C   0  0  2  0  0  3  0  0  0  0  0  0
  184.0610  178.4930  141.9110 C   0  0  1  0  0  3  0  0  0  0  0  0
  185.0640  179.4910  140.2720 O   0  0  0  0  0  0  0  0  0  0  0  0
  182.7980  178.8250  144.0420 C   0  0  0  0  0  3  0  0  0  0  0  0
  186.0140  178.9750  143.7790 C   0  0  2  0  0  0  0  0  0  0  0  0
  187.8960  178.1460  142.3320 C   0  0  0  0  0  2  0  0  0  0  0  0
  189.2120  176.7100  140.9580 O   0  0  0  0  0  1  0  0  0  0  0  0
  188.6720  176.8370  142.2370 C   0  0  1  0  0  3  0  0  0  0  0  0
  189.7720  176.7720  143.2600 C   0  0  0  0  0  0  0  0  0  0  0  0
  190.5710  175.8480  143.2400 O   0  0  0  0  0  0  0  0  0  0  0  0
  190.9260  178.8600  143.9320 C   0  0  0  0  0  1  0  0  0  0  0  0
  189.8950  177.8210  144.3290 C   0  0  2  0  0  3  0  0  0  0  0  0
  190.2670  177.2160  145.6750 C   0  0  0  0  0  2  0  0  0  0  0  0
  189.0490  177.1350  146.5760 C   0  0  0  0  0  2  0  0  0  0  0  0
  189.3920  177.7020  147.9360 C   0  0  0  0  0  2  0  0  0  0  0  0
  188.1260  177.8640  148.7500 C   0  0  0  0  0  2  0  0  0  0  0  0
  187.2530  178.7210  148.0830 O   0  0  0  0  0  1  0  0  0  0  0  0
  2 10  1  0  0  0  0
  3  7  1  6  0  0  0
  3  9  1  0  0  0  0
  3 13  1  0  0  0  0
  4 12  1  6  0  0  0
  4  6  1  0  0  0  0
  5  4  1  0  0  0  0
  5  1  1  0  0  0  0
  5  6  1  6  0  0  0
  8 12  2  0  0  0  0
  9 14  1  6  0  0  0
  9 13  1  0  0  0  0
 10  3  1  0  0  0  0
 10  8  1  1  0  0  0
 11  2  1  0  0  0  0
 11  7  1  0  0  0  0
 13  5  1  0  0  0  0
 13  1  1  1  0  0  0
 16 15  1  6  0  0  0
 16 14  1  0  0  0  0
 16 17  1  0  0  0  0
 17 20  1  0  0  0  0
 18 17  2  0  0  0  0
 20 19  1  6  0  0  0
 20 21  1  0  0  0  0
 21 22  1  0  0  0  0
 22 23  1  0  0  0  0
 23 24  1  0  0  0  0
 25 24  1  0  0  0  0
M  END
>  <MODEL>
3

>  <REMARK>
 VINA RESULT:      -7.6      2.119      5.856
  Name = 
  8 active torsions:
  status: ('A' for Active; 'I' for Inactive)
    1  A    between atoms: C_1  and  C_9
    2  A    between atoms: C_1  and  C_12
    3  A    between atoms: C_4  and  C_12
    4  A    between atoms: C_7  and  C_11
    5  A    between atoms: C_7  and  C_20
    6  A    between atoms: C_9  and  C_20
    7  A    between atoms: C_11  and  C_15
    8  A    between atoms: C_15  and  C_19
                            x       y       z     vdW  Elec       q    Type
                         _______ _______ _______ _____ _____    ______ ____

>  <TORSDO>
F 8

$$$$
=
 OpenBabel10222417093D

 25 29  0  0  1  0  0  0  0  0999 V2000
  191.8190  176.7930  141.4590 O   0  0  0  0  0  0  0  0  0  0  0  0
  187.0690  178.0120  142.1540 N   0  0  0  0  0  2  0  0  0  0  0  0
  189.1130  177.0920  142.2980 C   0  0  2  0  0  0  0  0  0  0  0  0
  190.0230  176.8050  139.6020 C   0  0  2  0  0  3  0  0  0  0  0  0
  190.9090  177.4700  140.6580 C   0  0  2  0  0  0  0  0  0  0  0  0
  191.4220  177.1000  139.2610 C   0  0  0  0  0  2  0  0  0  0  0  0
  188.2550  176.2770  143.1510 N   0  0  0  0  0  2  0  0  0  0  0  0
  188.2810  178.4810  140.1570 C   0  0  0  0  0  3  0  0  0  0  0  0
  190.3410  177.5260  143.0030 C   0  0  2  0  0  3  0  0  0  0  0  0
  188.2200  178.0690  141.5820 C   0  0  1  0  0  3  0  0  0  0  0  0
  187.1070  177.0470  143.1330 O   0  0  0  0  0  0  0  0  0  0  0  0
  189.0830  177.9110  139.2410 C   0  0  0  0  0  3  0  0  0  0  0  0
  190.4920  176.5440  141.8060 C   0  0  2  0  0  0  0  0  0  0  0  0
  190.6620  176.7890  144.3030 C   0  0  0  0  0  2  0  0  0  0  0  0
  190.1860  178.9990  145.0570 O   0  0  0  0  0  1  0  0  0  0  0  0
  190.6450  177.7540  145.4830 C   0  0  1  0  0  3  0  0  0  0  0  0
  189.7720  177.2470  146.5980 C   0  0  0  0  0  0  0  0  0  0  0  0
  190.0170  176.1720  147.1250 O   0  0  0  0  0  0  0  0  0  0  0  0
  188.5020  178.0240  148.5800 C   0  0  0  0  0  1  0  0  0  0  0  0
  188.5810  178.0350  147.0650 C   0  0  2  0  0  3  0  0  0  0  0  0
  187.2830  177.4990  146.4790 C   0  0  0  0  0  2  0  0  0  0  0  0
  186.1090  178.3530  146.9190 C   0  0  0  0  0  2  0  0  0  0  0  0
  185.6750  179.2390  145.7710 C   0  0  0  0  0  2  0  0  0  0  0  0
  184.5190  178.5880  145.0410 C   0  0  0  0  0  2  0  0  0  0  0  0
  183.3160  179.0740  145.5490 O   0  0  0  0  0  1  0  0  0  0  0  0
  2 11  1  0  0  0  0
  3  9  1  0  0  0  0
  3  7  1  1  0  0  0
  4 12  1  6  0  0  0
  4  5  1  0  0  0  0
  5  6  1  1  0  0  0
  5  1  1  0  0  0  0
  5 13  1  0  0  0  0
  6  4  1  0  0  0  0
  9 14  1  1  0  0  0
 10  8  1  6  0  0  0
 10  2  1  0  0  0  0
 10  3  1  0  0  0  0
 11  7  1  0  0  0  0
 12  8  2  0  0  0  0
 13  1  1  1  0  0  0
 13  3  1  0  0  0  0
 13  9  1  0  0  0  0
 14 16  1  0  0  0  0
 16 15  1  6  0  0  0
 16 17  1  0  0  0  0
 17 20  1  0  0  0  0
 17 18  2  0  0  0  0
 20 19  1  1  0  0  0
 21 22  1  0  0  0  0
 21 20  1  0  0  0  0
 23 22  1  0  0  0  0
 24 25  1  0  0  0  0
 24 23  1  0  0  0  0
M  END
>  <MODEL>
4

>  <REMARK>
 VINA RESULT:      -7.3      2.371      5.485
  Name = 
  8 active torsions:
  status: ('A' for Active; 'I' for Inactive)
    1  A    between atoms: C_1  and  C_9
    2  A    between atoms: C_1  and  C_12
    3  A    between atoms: C_4  and  C_12
    4  A    between atoms: C_7  and  C_11
    5  A    between atoms: C_7  and  C_20
    6  A    between atoms: C_9  and  C_20
    7  A    between atoms: C_11  and  C_15
    8  A    between atoms: C_15  and  C_19
                            x       y       z     vdW  Elec       q    Type
                         _______ _______ _______ _____ _____    ______ ____

>  <TORSDO>
F 8

$$$$
=
 OpenBabel10222417093D

 25 29  0  0  1  0  0  0  0  0999 V2000
  188.6150  177.6550  140.2720 O   0  0  0  0  0  0  0  0  0  0  0  0
  192.9290  176.3170  138.2400 N   0  0  0  0  0  2  0  0  0  0  0  0
  191.3330  177.1650  139.5750 C   0  0  2  0  0  0  0  0  0  0  0  0
  189.2850  178.1160  137.8200 C   0  0  2  0  0  3  0  0  0  0  0  0
  188.9390  177.2040  138.9990 C   0  0  2  0  0  0  0  0  0  0  0  0
  187.8690  177.9120  138.1600 C   0  0  0  0  0  2  0  0  0  0  0  0
  192.5860  177.7420  140.0470 N   0  0  0  0  0  2  0  0  0  0  0  0
  190.8610  176.3610  137.0570 C   0  0  0  0  0  3  0  0  0  0  0  0
  190.5510  176.5630  140.6790 C   0  0  2  0  0  3  0  0  0  0  0  0
  191.6470  176.4020  138.3150 C   0  0  1  0  0  3  0  0  0  0  0  0
  193.4820  177.0060  139.2950 O   0  0  0  0  0  0  0  0  0  0  0  0
  189.7940  177.1390  136.8080 C   0  0  0  0  0  3  0  0  0  0  0  0
  189.9650  177.8130  139.9620 C   0  0  2  0  0  0  0  0  0  0  0  0
  190.9840  176.9480  142.0930 C   0  0  0  0  0  2  0  0  0  0  0  0
  190.4740  174.8710  143.1450 O   0  0  0  0  0  1  0  0  0  0  0  0
  190.1330  176.2230  143.1290 C   0  0  1  0  0  3  0  0  0  0  0  0
  190.3170  176.8080  144.5020 C   0  0  0  0  0  0  0  0  0  0  0  0
  191.3630  176.6280  145.1070 O   0  0  0  0  0  0  0  0  0  0  0  0
  189.0810  177.2020  146.6140 C   0  0  0  0  0  1  0  0  0  0  0  0
  189.2210  177.6000  145.1570 C   0  0  2  0  0  3  0  0  0  0  0  0
  187.8890  177.4170  144.4450 C   0  0  0  0  0  2  0  0  0  0  0  0
  186.7380  177.6060  145.4150 C   0  0  0  0  0  2  0  0  0  0  0  0
  185.5830  178.2750  144.7000 C   0  0  0  0  0  2  0  0  0  0  0  0
  184.5790  178.7700  145.7190 C   0  0  0  0  0  2  0  0  0  0  0  0
  185.2510  179.2140  146.8560 O   0  0  0  0  0  1  0  0  0  0  0  0
  2 10  1  0  0  0  0
  2 11  1  0  0  0  0
  3 13  1  0  0  0  0
  3  7  1  1  0  0  0
  3  9  1  0  0  0  0
  4 12  1  6  0  0  0
  4  6  1  0  0  0  0
  4  5  1  0  0  0  0
  5  6  1  6  0  0  0
  5 13  1  0  0  0  0
  5  1  1  0  0  0  0
  9 14  1  1  0  0  0
 10  8  1  6  0  0  0
 10  3  1  0  0  0  0
 11  7  1  0  0  0  0
 12  8  2  0  0  0  0
 13  1  1  1  0  0  0
 13  9  1  0  0  0  0
 14 16  1  0  0  0  0
 16 15  1  1  0  0  0
 16 17  1  0  0  0  0
 17 18  2  0  0  0  0
 17 20  1  0  0  0  0
 20 19  1  1  0  0  0
 21 20  1  0  0  0  0
 21 22  1  0  0  0  0
 23 22  1  0  0  0  0
 23 24  1  0  0  0  0
 24 25  1  0  0  0  0
M  END
>  <MODEL>
5

>  <REMARK>
 VINA RESULT:      -7.3      3.408      6.024
  Name = 
  8 active torsions:
  status: ('A' for Active; 'I' for Inactive)
    1  A    between atoms: C_1  and  C_9
    2  A    between atoms: C_1  and  C_12
    3  A    between atoms: C_4  and  C_12
    4  A    between atoms: C_7  and  C_11
    5  A    between atoms: C_7  and  C_20
    6  A    between atoms: C_9  and  C_20
    7  A    between atoms: C_11  and  C_15
    8  A    between atoms: C_15  and  C_19
                            x       y       z     vdW  Elec       q    Type
                         _______ _______ _______ _____ _____    ______ ____

>  <TORSDO>
F 8

$$$$
=
 OpenBabel10222417093D

 25 29  0  0  1  0  0  0  0  0999 V2000
  186.6900  177.6750  143.1140 O   0  0  0  0  0  0  0  0  0  0  0  0
  191.3740  176.7360  144.4210 N   0  0  0  0  0  2  0  0  0  0  0  0
  189.3780  176.7750  143.3900 C   0  0  2  0  0  0  0  0  0  0  0  0
  187.4340  176.9490  145.4790 C   0  0  2  0  0  3  0  0  0  0  0  0
  187.3890  177.9120  144.2900 C   0  0  2  0  0  0  0  0  0  0  0  0
  186.2580  177.8200  145.3220 C   0  0  0  0  0  2  0  0  0  0  0  0
  190.1050  175.6580  142.7970 N   0  0  0  0  0  2  0  0  0  0  0  0
  189.7590  177.7110  145.8770 C   0  0  0  0  0  3  0  0  0  0  0  0
  188.8200  177.6800  142.3590 C   0  0  2  0  0  3  0  0  0  0  0  0
  190.2170  177.2890  144.5290 C   0  0  1  0  0  3  0  0  0  0  0  0
  191.3510  175.8640  143.3580 O   0  0  0  0  0  0  0  0  0  0  0  0
  188.5040  177.5540  146.3300 C   0  0  0  0  0  3  0  0  0  0  0  0
  187.8260  176.8770  143.2460 C   0  0  2  0  0  0  0  0  0  0  0  0
  188.7830  177.1300  140.9340 C   0  0  0  0  0  2  0  0  0  0  0  0
  190.7530  177.4060  139.6220 O   0  0  0  0  0  1  0  0  0  0  0  0
  189.5640  178.0360  139.9900 C   0  0  1  0  0  3  0  0  0  0  0  0
  188.7660  178.3710  138.7600 C   0  0  0  0  0  0  0  0  0  0  0  0
  188.9910  179.4050  138.1490 O   0  0  0  0  0  0  0  0  0  0  0  0
  188.2440  176.3940  137.3600 C   0  0  0  0  0  1  0  0  0  0  0  0
  187.6740  177.4600  138.2760 C   0  0  2  0  0  3  0  0  0  0  0  0
  186.5770  178.2260  137.5530 C   0  0  0  0  0  2  0  0  0  0  0  0
  185.2090  177.7610  138.0170 C   0  0  0  0  0  2  0  0  0  0  0  0
  184.4960  178.9050  138.7040 C   0  0  0  0  0  2  0  0  0  0  0  0
  184.5770  178.7210  140.2040 C   0  0  0  0  0  2  0  0  0  0  0  0
  185.5900  179.5300  140.7160 O   0  0  0  0  0  1  0  0  0  0  0  0
  1  5  1  0  0  0  0
  2 10  1  0  0  0  0
  3  7  1  6  0  0  0
  3 10  1  0  0  0  0
  4  6  1  1  0  0  0
  4 12  1  0  0  0  0
  5  6  1  1  0  0  0
  5  4  1  0  0  0  0
  7 11  1  0  0  0  0
  8 12  2  0  0  0  0
  9 14  1  6  0  0  0
  9 13  1  0  0  0  0
  9  3  1  0  0  0  0
 10  8  1  1  0  0  0
 11  2  1  0  0  0  0
 13  1  1  6  0  0  0
 13  3  1  0  0  0  0
 13  5  1  0  0  0  0
 16 15  1  6  0  0  0
 16 14  1  0  0  0  0
 17 16  1  0  0  0  0
 18 17  2  0  0  0  0
 20 19  1  6  0  0  0
 20 17  1  0  0  0  0
 21 22  1  0  0  0  0
 21 20  1  0  0  0  0
 22 23  1  0  0  0  0
 23 24  1  0  0  0  0
 24 25  1  0  0  0  0
M  END
>  <MODEL>
6

>  <REMARK>
 VINA RESULT:      -7.2      2.368      3.781
  Name = 
  8 active torsions:
  status: ('A' for Active; 'I' for Inactive)
    1  A    between atoms: C_1  and  C_9
    2  A    between atoms: C_1  and  C_12
    3  A    between atoms: C_4  and  C_12
    4  A    between atoms: C_7  and  C_11
    5  A    between atoms: C_7  and  C_20
    6  A    between atoms: C_9  and  C_20
    7  A    between atoms: C_11  and  C_15
    8  A    between atoms: C_15  and  C_19
                            x       y       z     vdW  Elec       q    Type
                         _______ _______ _______ _____ _____    ______ ____

>  <TORSDO>
F 8

$$$$
=
 OpenBabel10222417093D

 25 29  0  0  1  0  0  0  0  0999 V2000
  191.3620  176.9840  140.0910 O   0  0  0  0  0  0  0  0  0  0  0  0
  187.0510  177.7970  142.3900 N   0  0  0  0  0  2  0  0  0  0  0  0
  189.0730  177.0270  141.7870 C   0  0  2  0  0  0  0  0  0  0  0  0
  189.0560  176.9700  138.9280 C   0  0  2  0  0  3  0  0  0  0  0  0
  190.2050  177.6370  139.6870 C   0  0  2  0  0  0  0  0  0  0  0  0
  190.2470  177.3900  138.1740 C   0  0  0  0  0  2  0  0  0  0  0  0
  188.5880  176.1000  142.8030 N   0  0  0  0  0  2  0  0  0  0  0  0
  187.5100  178.4740  140.1520 C   0  0  0  0  0  3  0  0  0  0  0  0
  190.4400  177.5100  142.0870 C   0  0  2  0  0  3  0  0  0  0  0  0
  187.9440  177.9740  141.4810 C   0  0  1  0  0  3  0  0  0  0  0  0
  187.4600  176.7810  143.2220 O   0  0  0  0  0  0  0  0  0  0  0  0
  187.9940  178.0220  138.9830 C   0  0  0  0  0  3  0  0  0  0  0  0
  190.2380  176.6150  140.8300 C   0  0  2  0  0  0  0  0  0  0  0  0
  191.2110  176.7240  143.1470 C   0  0  0  0  0  2  0  0  0  0  0  0
  191.9520  178.9050  143.7580 O   0  0  0  0  0  1  0  0  0  0  0  0
  191.6560  177.6440  144.2760 C   0  0  1  0  0  3  0  0  0  0  0  0
  190.5980  177.7690  145.3380 C   0  0  0  0  0  0  0  0  0  0  0  0
  189.5410  178.3260  145.0840 O   0  0  0  0  0  0  0  0  0  0  0  0
  191.7500  176.0300  146.6770 C   0  0  0  0  0  1  0  0  0  0  0  0
  190.8280  177.2340  146.7230 C   0  0  2  0  0  3  0  0  0  0  0  0
  189.5230  176.8560  147.4080 C   0  0  0  0  0  2  0  0  0  0  0  0
  189.0120  178.0080  148.2510 C   0  0  0  0  0  2  0  0  0  0  0  0
  187.5190  177.8600  148.4520 C   0  0  0  0  0  2  0  0  0  0  0  0
  186.8000  178.2090  147.1660 C   0  0  0  0  0  2  0  0  0  0  0  0
  185.9610  179.3000  147.3850 O   0  0  0  0  0  1  0  0  0  0  0  0
  2 11  1  0  0  0  0
  3  9  1  0  0  0  0
  3  7  1  1  0  0  0
  4  6  1  6  0  0  0
  4 12  1  0  0  0  0
  4  5  1  0  0  0  0
  5  6  1  1  0  0  0
  5  1  1  0  0  0  0
  5 13  1  0  0  0  0
  7 11  1  0  0  0  0
  9 14  1  1  0  0  0
 10  8  1  6  0  0  0
 10  3  1  0  0  0  0
 10  2  1  0  0  0  0
 12  8  2  0  0  0  0
 13  1  1  6  0  0  0
 13  3  1  0  0  0  0
 13  9  1  0  0  0  0
 14 16  1  0  0  0  0
 16 15  1  6  0  0  0
 16 17  1  0  0  0  0
 17 20  1  0  0  0  0
 18 17  2  0  0  0  0
 20 19  1  6  0  0  0
 20 21  1  0  0  0  0
 21 22  1  0  0  0  0
 22 23  1  0  0  0  0
 24 25  1  0  0  0  0
 24 23  1  0  0  0  0
M  END
>  <MODEL>
7

>  <REMARK>
 VINA RESULT:      -7.1      2.693      6.080
  Name = 
  8 active torsions:
  status: ('A' for Active; 'I' for Inactive)
    1  A    between atoms: C_1  and  C_9
    2  A    between atoms: C_1  and  C_12
    3  A    between atoms: C_4  and  C_12
    4  A    between atoms: C_7  and  C_11
    5  A    between atoms: C_7  and  C_20
    6  A    between atoms: C_9  and  C_20
    7  A    between atoms: C_11  and  C_15
    8  A    between atoms: C_15  and  C_19
                            x       y       z     vdW  Elec       q    Type
                         _______ _______ _______ _____ _____    ______ ____

>  <TORSDO>
F 8

$$$$
=
 OpenBabel10222417093D

 25 29  0  0  1  0  0  0  0  0999 V2000
  187.5090  177.5770  142.1140 O   0  0  0  0  0  0  0  0  0  0  0  0
  191.4470  176.5330  144.9300 N   0  0  0  0  0  2  0  0  0  0  0  0
  189.8940  176.5770  143.3060 C   0  0  2  0  0  0  0  0  0  0  0  0
  187.4020  177.0240  144.6350 C   0  0  2  0  0  3  0  0  0  0  0  0
  187.8100  177.8810  143.4340 C   0  0  2  0  0  0  0  0  0  0  0  0
  186.4060  177.9330  144.0480 C   0  0  0  0  0  2  0  0  0  0  0  0
  190.6880  175.3790  143.0570 N   0  0  0  0  0  2  0  0  0  0  0  0
  189.5280  177.7060  145.7150 C   0  0  0  0  0  3  0  0  0  0  0  0
  189.7630  177.4150  142.0930 C   0  0  2  0  0  3  0  0  0  0  0  0
  190.3600  177.1470  144.6200 C   0  0  1  0  0  3  0  0  0  0  0  0
  191.7010  175.5730  143.9780 O   0  0  0  0  0  0  0  0  0  0  0  0
  188.1860  177.6490  145.7460 C   0  0  0  0  0  3  0  0  0  0  0  0
  188.4810  176.7400  142.6610 C   0  0  2  0  0  0  0  0  0  0  0  0
  190.1430  176.7460  140.7730 C   0  0  0  0  0  2  0  0  0  0  0  0
  192.2340  177.8530  141.0560 O   0  0  0  0  0  1  0  0  0  0  0  0
  191.2830  177.4990  140.1000 C   0  0  1  0  0  3  0  0  0  0  0  0
  191.9310  176.6730  139.0220 C   0  0  0  0  0  0  0  0  0  0  0  0
  193.1290  176.7820  138.8070 O   0  0  0  0  0  0  0  0  0  0  0  0
  192.0140  174.6490  137.5950 C   0  0  0  0  0  1  0  0  0  0  0  0
  191.1210  175.7240  138.1860 C   0  0  2  0  0  3  0  0  0  0  0  0
  190.3790  176.4450  137.0700 C   0  0  0  0  0  2  0  0  0  0  0  0
  188.8970  176.1260  137.1260 C   0  0  0  0  0  2  0  0  0  0  0  0
  188.1420  177.3320  137.6410 C   0  0  0  0  0  2  0  0  0  0  0  0
  188.9030  178.5920  137.2880 C   0  0  0  0  0  2  0  0  0  0  0  0
  189.0520  179.3790  138.4280 O   0  0  0  0  0  1  0  0  0  0  0  0
  1  5  1  0  0  0  0
  3  7  1  6  0  0  0
  3 10  1  0  0  0  0
  4  6  1  1  0  0  0
  4 12  1  0  0  0  0
  5  6  1  1  0  0  0
  5  4  1  0  0  0  0
  7 11  1  0  0  0  0
  8 12  2  0  0  0  0
  9 14  1  6  0  0  0
  9 13  1  0  0  0  0
  9  3  1  0  0  0  0
 10  2  1  0  0  0  0
 10  8  1  1  0  0  0
 11  2  1  0  0  0  0
 13  1  1  6  0  0  0
 13  3  1  0  0  0  0
 13  5  1  0  0  0  0
 16 14  1  0  0  0  0
 16 15  1  1  0  0  0
 17 16  1  0  0  0  0
 18 17  2  0  0  0  0
 20 19  1  6  0  0  0
 20 17  1  0  0  0  0
 21 22  1  0  0  0  0
 21 20  1  0  0  0  0
 22 23  1  0  0  0  0
 24 23  1  0  0  0  0
 24 25  1  0  0  0  0
M  END
>  <MODEL>
8

>  <REMARK>
 VINA RESULT:      -7.1      3.568      5.777
  Name = 
  8 active torsions:
  status: ('A' for Active; 'I' for Inactive)
    1  A    between atoms: C_1  and  C_9
    2  A    between atoms: C_1  and  C_12
    3  A    between atoms: C_4  and  C_12
    4  A    between atoms: C_7  and  C_11
    5  A    between atoms: C_7  and  C_20
    6  A    between atoms: C_9  and  C_20
    7  A    between atoms: C_11  and  C_15
    8  A    between atoms: C_15  and  C_19
                            x       y       z     vdW  Elec       q    Type
                         _______ _______ _______ _____ _____    ______ ____

>  <TORSDO>
F 8

$$$$
=
 OpenBabel10222417093D

 25 29  0  0  1  0  0  0  0  0999 V2000
  187.2070  177.6950  143.6070 O   0  0  0  0  0  0  0  0  0  0  0  0
  187.9010  178.1310  148.4920 N   0  0  0  0  0  2  0  0  0  0  0  0
  187.9860  177.4920  146.3400 C   0  0  2  0  0  0  0  0  0  0  0  0
  185.3090  177.7220  145.3600 C   0  0  2  0  0  3  0  0  0  0  0  0
  186.4770  178.3470  144.5920 C   0  0  2  0  0  0  0  0  0  0  0  0
  185.0610  178.2550  144.0120 C   0  0  0  0  0  2  0  0  0  0  0  0
  188.6870  176.4530  147.0850 N   0  0  0  0  0  2  0  0  0  0  0  0
  186.0320  179.0440  147.3300 C   0  0  0  0  0  3  0  0  0  0  0  0
  188.7870  177.9870  145.1970 C   0  0  2  0  0  3  0  0  0  0  0  0
  187.3820  178.4280  147.3530 C   0  0  1  0  0  3  0  0  0  0  0  0
  188.7360  177.0500  148.3310 O   0  0  0  0  0  0  0  0  0  0  0  0
  185.0740  178.7280  146.4420 C   0  0  0  0  0  3  0  0  0  0  0  0
  187.4700  177.2170  144.8910 C   0  0  2  0  0  0  0  0  0  0  0  0
  189.9810  177.1240  144.7930 C   0  0  0  0  0  2  0  0  0  0  0  0
  191.8520  177.9400  143.5620 O   0  0  0  0  0  1  0  0  0  0  0  0
  190.5170  177.5560  143.4340 C   0  0  1  0  0  3  0  0  0  0  0  0
  190.4040  176.4520  142.4180 C   0  0  0  0  0  0  0  0  0  0  0  0
  190.4940  175.2860  142.7720 O   0  0  0  0  0  0  0  0  0  0  0  0
  191.5310  177.0800  140.3020 C   0  0  0  0  0  1  0  0  0  0  0  0
  190.2030  176.7600  140.9620 C   0  0  2  0  0  3  0  0  0  0  0  0
  189.2360  177.9170  140.7570 C   0  0  0  0  0  2  0  0  0  0  0  0
  188.5710  177.8190  139.3970 C   0  0  0  0  0  2  0  0  0  0  0  0
  189.0520  178.9550  138.5200 C   0  0  0  0  0  2  0  0  0  0  0  0
  188.7060  178.6590  137.0770 C   0  0  0  0  0  2  0  0  0  0  0  0
  187.3460  178.8850  136.8700 O   0  0  0  0  0  1  0  0  0  0  0  0
  1  5  1  0  0  0  0
  3  7  1  1  0  0  0
  3 10  1  0  0  0  0
  4  6  1  6  0  0  0
  4 12  1  0  0  0  0
  5  6  1  1  0  0  0
  5 13  1  0  0  0  0
  5  4  1  0  0  0  0
  7 11  1  0  0  0  0
  9 14  1  6  0  0  0
  9  3  1  0  0  0  0
 10  8  1  1  0  0  0
 10  2  1  0  0  0  0
 11  2  1  0  0  0  0
 12  8  2  0  0  0  0
 13  1  1  6  0  0  0
 13  9  1  0  0  0  0
 13  3  1  0  0  0  0
 16 15  1  1  0  0  0
 16 14  1  0  0  0  0
 17 18  2  0  0  0  0
 17 16  1  0  0  0  0
 20 19  1  1  0  0  0
 20 17  1  0  0  0  0
 21 20  1  0  0  0  0
 22 21  1  0  0  0  0
 23 22  1  0  0  0  0
 24 23  1  0  0  0  0
 25 24  1  0  0  0  0
M  END
>  <MODEL>
9

>  <REMARK>
 VINA RESULT:      -7.0      2.786      5.850
  Name = 
  8 active torsions:
  status: ('A' for Active; 'I' for Inactive)
    1  A    between atoms: C_1  and  C_9
    2  A    between atoms: C_1  and  C_12
    3  A    between atoms: C_4  and  C_12
    4  A    between atoms: C_7  and  C_11
    5  A    between atoms: C_7  and  C_20
    6  A    between atoms: C_9  and  C_20
    7  A    between atoms: C_11  and  C_15
    8  A    between atoms: C_15  and  C_19
                            x       y       z     vdW  Elec       q    Type
                         _______ _______ _______ _____ _____    ______ ____

>  <TORSDO>
F 8

$$$$
