=
 OpenBabel10222419543D

 37 41  0  0  1  0  0  0  0  0999 V2000
  190.5250  177.1400  140.7980 C   0  0  0  0  0  0  0  0  0  0  0  0
  191.2020  176.9460  145.4790 N   0  0  0  0  0  2  0  0  0  0  0  0
  192.1870  177.6120  142.4310 C   0  0  0  0  0  3  0  0  0  0  0  0
  191.9490  177.6440  140.9300 C   0  0  0  0  0  3  0  0  0  0  0  0
  191.0350  177.2580  142.9590 C   0  0  0  0  0  0  0  0  0  0  0  0
  189.3030  176.3690  144.1190 N   0  0  0  0  0  0  0  0  0  0  0  0
  190.0560  176.9800  142.0160 C   0  0  2  0  0  3  0  0  0  0  0  0
  188.8800  176.3660  142.6980 C   0  0  2  0  0  3  0  0  0  0  0  0
  190.5030  176.8600  144.2380 C   0  0  0  0  0  0  0  0  0  0  0  0
  183.8470  178.2160  144.5850 C   0  0  0  0  0  2  0  0  0  0  0  0
  187.6600  177.1560  142.4780 N   0  0  1  0  0  0  0  0  0  0  0  0
  185.2130  178.7600  144.9910 C   0  0  0  0  0  2  0  0  0  0  0  0
  185.6640  179.0420  142.4750 C   0  0  0  0  0  0  0  0  0  0  0  0
  183.3800  178.8770  143.3200 C   0  0  0  0  0  0  0  0  0  0  0  0
  187.0520  177.4190  143.7990 C   0  0  0  0  0  2  0  0  0  0  0  0
  182.0930  179.1280  143.0980 C   0  0  0  0  0  3  0  0  0  0  0  0
  186.6170  179.0650  141.3220 C   0  0  0  0  0  2  0  0  0  0  0  0
  187.9340  178.4010  141.7300 C   0  0  0  0  0  2  0  0  0  0  0  0
  186.2250  178.7130  143.8390 C   0  0  2  0  0  3  0  0  0  0  0  0
  184.3510  179.1220  142.2470 C   0  0  0  0  0  3  0  0  0  0  0  0
  179.0050  178.0250  144.6540 O   0  0  0  0  0  0  0  0  0  0  0  0
  179.5320  177.9410  142.3950 N   0  0  0  0  0  1  0  0  0  0  0  0
  179.8420  178.2690  143.7450 C   0  0  0  0  0  0  0  0  0  0  0  0
  181.0960  178.8590  144.0840 N   0  0  0  0  0  2  0  0  0  0  0  0
  189.5870  175.3590  137.6670 C   0  0  0  0  0  3  0  0  0  0  0  0
  189.8330  176.7990  139.5430 C   0  0  0  0  0  0  0  0  0  0  0  0
  190.2030  175.6990  138.8300 N   0  0  0  0  0  0  0  0  0  0  0  0
  188.7890  177.6050  139.0760 C   0  0  0  0  0  3  0  0  0  0  0  0
  188.5470  176.1460  137.1720 C   0  0  0  0  0  3  0  0  0  0  0  0
  188.1410  177.2850  137.8810 C   0  0  0  0  0  0  0  0  0  0  0  0
  187.0980  178.1170  137.4440 O   0  0  0  0  0  0  0  0  0  0  0  0
  185.7520  178.0150  137.8180 C   0  0  0  0  0  0  0  0  0  0  0  0
  185.0060  176.8710  137.5620 O   0  0  0  0  0  0  0  0  0  0  0  0
  185.1980  178.9940  138.3830 O   0  0  0  0  0  1  0  0  0  0  0  0
  190.6210  176.5490  146.6380 O   0  0  0  0  0  0  0  0  0  0  0  0
  191.5800  176.7890  147.6230 C   0  0  0  0  0  2  0  0  0  0  0  0
  192.5530  175.6300  147.6750 C   0  0  0  0  0  1  0  0  0  0  0  0
  1  4  2  0  0  0  0
  2 35  1  0  0  0  0
  3  5  2  0  0  0  0
  4  3  1  0  0  0  0
  5  9  1  0  0  0  0
  6  9  2  0  0  0  0
  7  1  1  6  0  0  0
  7  8  1  0  0  0  0
  7  5  1  0  0  0  0
  8  6  1  1  0  0  0
  9  2  1  0  0  0  0
 10 12  1  0  0  0  0
 11 18  1  1  0  0  0
 11  8  1  0  0  0  0
 11 15  1  0  0  0  0
 13 19  1  0  0  0  0
 14 10  1  0  0  0  0
 16 14  2  0  0  0  0
 16 24  1  0  0  0  0
 17 18  1  0  0  0  0
 17 13  1  0  0  0  0
 19 15  1  6  0  0  0
 19 12  1  0  0  0  0
 20 13  2  0  0  0  0
 20 14  1  0  0  0  0
 22 23  1  0  0  0  0
 23 24  1  0  0  0  0
 23 21  2  0  0  0  0
 25 27  1  0  0  0  0
 26  1  1  0  0  0  0
 27 26  2  0  0  0  0
 28 26  1  0  0  0  0
 29 25  2  0  0  0  0
 29 30  1  0  0  0  0
 30 28  2  0  0  0  0
 31 32  1  0  0  0  0
 31 30  1  0  0  0  0
 32 34  1  0  0  0  0
 33 32  2  0  0  0  0
 35 36  1  0  0  0  0
 36 37  1  0  0  0  0
M  END
>  <MODEL>
1

>  <REMARK>
 VINA RESULT:      -9.1      0.000      0.000
  Name = 
  7 active torsions:
  status: ('A' for Active; 'I' for Inactive)
    1  A    between atoms: C_1  and  C_13
    2  A    between atoms: N_4  and  C_36
    3  A    between atoms: C_8  and  O_21
    4  A    between atoms: O_9  and  C_22
    5  A    between atoms: O_9  and  C_33
    6  A    between atoms: N_12  and  O_21
    7  A    between atoms: C_20  and  N_25
                            x       y       z     vdW  Elec       q    Type
                         _______ _______ _______ _____ _____    ______ ____

>  <TORSDO>
F 7

$$$$
=
 OpenBabel10222419543D

 37 41  0  0  1  0  0  0  0  0999 V2000
  190.6870  177.5280  141.6140 C   0  0  0  0  0  0  0  0  0  0  0  0
  190.5040  177.1130  146.3260 N   0  0  0  0  0  2  0  0  0  0  0  0
  191.9630  178.0490  143.5510 C   0  0  0  0  0  3  0  0  0  0  0  0
  192.0030  178.1500  142.0350 C   0  0  0  0  0  3  0  0  0  0  0  0
  190.7740  177.5600  143.8360 C   0  0  0  0  0  0  0  0  0  0  0  0
  188.9570  176.4500  144.6070 N   0  0  0  0  0  0  0  0  0  0  0  0
  190.0190  177.2530  142.7130 C   0  0  2  0  0  3  0  0  0  0  0  0
  188.8050  176.4940  143.1330 C   0  0  2  0  0  3  0  0  0  0  0  0
  190.0590  177.0400  144.9720 C   0  0  0  0  0  0  0  0  0  0  0  0
  183.7010  178.6100  144.4740 C   0  0  0  0  0  2  0  0  0  0  0  0
  187.5740  177.1830  142.7200 N   0  0  1  0  0  0  0  0  0  0  0  0
  185.0490  179.2650  144.7600 C   0  0  0  0  0  2  0  0  0  0  0  0
  185.5400  178.9680  142.2540 C   0  0  0  0  0  0  0  0  0  0  0  0
  183.2450  178.9480  143.0840 C   0  0  0  0  0  0  0  0  0  0  0  0
  186.9360  177.7300  143.9360 C   0  0  0  0  0  2  0  0  0  0  0  0
  181.9580  179.1100  142.7930 C   0  0  0  0  0  3  0  0  0  0  0  0
  186.5140  178.7470  141.1400 C   0  0  0  0  0  2  0  0  0  0  0  0
  187.8370  178.2260  141.7070 C   0  0  0  0  0  2  0  0  0  0  0  0
  186.0830  178.9770  143.6640 C   0  0  2  0  0  3  0  0  0  0  0  0
  184.2310  178.9610  141.9960 C   0  0  0  0  0  3  0  0  0  0  0  0
  178.9310  178.2080  144.5800 O   0  0  0  0  0  0  0  0  0  0  0  0
  179.5700  177.4790  142.4720 N   0  0  0  0  0  1  0  0  0  0  0  0
  179.7800  178.2470  143.6510 C   0  0  0  0  0  0  0  0  0  0  0  0
  180.9480  179.0530  143.8000 N   0  0  0  0  0  2  0  0  0  0  0  0
  190.2370  175.6670  138.4210 C   0  0  0  0  0  3  0  0  0  0  0  0
  190.2760  177.2020  140.2370 C   0  0  0  0  0  0  0  0  0  0  0  0
  190.5980  175.9970  139.6900 N   0  0  0  0  0  0  0  0  0  0  0  0
  189.5510  178.1310  139.4840 C   0  0  0  0  0  3  0  0  0  0  0  0
  189.5180  176.5740  137.6420 C   0  0  0  0  0  3  0  0  0  0  0  0
  189.1700  177.8240  138.1750 C   0  0  0  0  0  0  0  0  0  0  0  0
  188.4440  178.7810  137.4490 O   0  0  0  0  0  0  0  0  0  0  0  0
  187.1400  178.6270  136.9580 C   0  0  0  0  0  0  0  0  0  0  0  0
  186.8890  178.3830  135.6130 O   0  0  0  0  0  0  0  0  0  0  0  0
  186.1710  178.7310  137.7550 O   0  0  0  0  0  1  0  0  0  0  0  0
  189.7630  176.5960  147.3360 O   0  0  0  0  0  0  0  0  0  0  0  0
  189.4050  177.6930  148.1200 C   0  0  0  0  0  2  0  0  0  0  0  0
  187.9230  177.6340  148.4280 C   0  0  0  0  0  1  0  0  0  0  0  0
  1  4  2  0  0  0  0
  2 35  1  0  0  0  0
  3  5  2  0  0  0  0
  4  3  1  0  0  0  0
  5  9  1  0  0  0  0
  6  9  2  0  0  0  0
  7  1  1  6  0  0  0
  7  8  1  0  0  0  0
  7  5  1  0  0  0  0
  8  6  1  1  0  0  0
  9  2  1  0  0  0  0
 10 12  1  0  0  0  0
 11 18  1  6  0  0  0
 11  8  1  0  0  0  0
 11 15  1  0  0  0  0
 13 19  1  0  0  0  0
 14 10  1  0  0  0  0
 16 14  2  0  0  0  0
 16 24  1  0  0  0  0
 17 18  1  0  0  0  0
 17 13  1  0  0  0  0
 19 15  1  1  0  0  0
 19 12  1  0  0  0  0
 20 13  2  0  0  0  0
 20 14  1  0  0  0  0
 22 23  1  0  0  0  0
 23 24  1  0  0  0  0
 23 21  2  0  0  0  0
 25 27  1  0  0  0  0
 26  1  1  0  0  0  0
 27 26  2  0  0  0  0
 28 26  1  0  0  0  0
 29 30  1  0  0  0  0
 29 25  2  0  0  0  0
 30 28  2  0  0  0  0
 31 30  1  0  0  0  0
 32 31  1  0  0  0  0
 32 34  1  0  0  0  0
 33 32  2  0  0  0  0
 35 36  1  0  0  0  0
 36 37  1  0  0  0  0
M  END
>  <MODEL>
2

>  <REMARK>
 VINA RESULT:      -8.9      1.126      1.333
  Name = 
  7 active torsions:
  status: ('A' for Active; 'I' for Inactive)
    1  A    between atoms: C_1  and  C_13
    2  A    between atoms: N_4  and  C_36
    3  A    between atoms: C_8  and  O_21
    4  A    between atoms: O_9  and  C_22
    5  A    between atoms: O_9  and  C_33
    6  A    between atoms: N_12  and  O_21
    7  A    between atoms: C_20  and  N_25
                            x       y       z     vdW  Elec       q    Type
                         _______ _______ _______ _____ _____    ______ ____

>  <TORSDO>
F 7

$$$$
=
 OpenBabel10222419543D

 37 41  0  0  1  0  0  0  0  0999 V2000
  189.2410  177.5170  141.7170 C   0  0  0  0  0  0  0  0  0  0  0  0
  193.1560  176.9300  139.1220 N   0  0  0  0  0  2  0  0  0  0  0  0
  191.5530  177.0310  141.9740 C   0  0  0  0  0  3  0  0  0  0  0  0
  190.2850  177.2450  142.7820 C   0  0  0  0  0  2  0  0  0  0  0  0
  191.1760  177.0790  140.7130 C   0  0  0  0  0  0  0  0  0  0  0  0
  190.8870  177.4250  138.4930 N   0  0  0  0  0  0  0  0  0  0  0  0
  189.8270  177.3610  140.5510 C   0  0  0  0  0  0  0  0  0  0  0  0
  189.5530  177.6270  139.1090 C   0  0  2  0  0  3  0  0  0  0  0  0
  191.7710  177.1310  139.4030 C   0  0  0  0  0  0  0  0  0  0  0  0
  184.1750  176.5940  137.5820 C   0  0  0  0  0  2  0  0  0  0  0  0
  188.5470  176.6980  138.5740 N   0  0  1  0  0  0  0  0  0  0  0  0
  185.2060  177.3730  136.7700 C   0  0  0  0  0  2  0  0  0  0  0  0
  186.7300  175.3210  137.0440 C   0  0  0  0  0  0  0  0  0  0  0  0
  184.3130  175.1220  137.3180 C   0  0  0  0  0  0  0  0  0  0  0  0
  187.4070  177.5030  138.0870 C   0  0  0  0  0  2  0  0  0  0  0  0
  183.2570  174.3140  137.3110 C   0  0  0  0  0  3  0  0  0  0  0  0
  188.0980  174.7280  137.1660 C   0  0  0  0  0  2  0  0  0  0  0  0
  189.1050  175.8240  137.5210 C   0  0  0  0  0  2  0  0  0  0  0  0
  186.6270  176.8250  136.9520 C   0  0  2  0  0  3  0  0  0  0  0  0
  185.6580  174.5430  137.2060 C   0  0  0  0  0  3  0  0  0  0  0  0
  179.6530  174.4280  137.7190 O   0  0  0  0  0  0  0  0  0  0  0  0
  180.9620  172.5310  137.4530 N   0  0  0  0  0  1  0  0  0  0  0  0
  180.8020  173.9420  137.5510 C   0  0  0  0  0  0  0  0  0  0  0  0
  181.9300  174.8130  137.4710 N   0  0  0  0  0  2  0  0  0  0  0  0
  185.9060  179.0730  141.1540 C   0  0  0  0  0  3  0  0  0  0  0  0
  187.8570  177.9690  141.9460 C   0  0  0  0  0  0  0  0  0  0  0  0
  187.1820  178.6390  140.9730 N   0  0  0  0  0  0  0  0  0  0  0  0
  187.2290  177.7100  143.1700 C   0  0  0  0  0  3  0  0  0  0  0  0
  185.2540  178.8360  142.3640 C   0  0  0  0  0  3  0  0  0  0  0  0
  185.9200  178.1480  143.3890 C   0  0  0  0  0  0  0  0  0  0  0  0
  185.3230  177.8710  144.6280 O   0  0  0  0  0  0  0  0  0  0  0  0
  184.8020  178.8170  145.5210 C   0  0  0  0  0  0  0  0  0  0  0  0
  185.5840  179.3940  146.5130 O   0  0  0  0  0  1  0  0  0  0  0  0
  183.5880  179.1370  145.4320 O   0  0  0  0  0  0  0  0  0  0  0  0
  193.6310  176.9950  137.8540 O   0  0  0  0  0  0  0  0  0  0  0  0
  193.5320  175.6930  137.3640 C   0  0  0  0  0  2  0  0  0  0  0  0
  194.6060  174.8320  137.9940 C   0  0  0  0  0  1  0  0  0  0  0  0
  1 26  1  0  0  0  0
  1  4  1  0  0  0  0
  2  9  1  0  0  0  0
  3  4  1  0  0  0  0
  5  3  2  0  0  0  0
  6  9  2  0  0  0  0
  7  5  1  0  0  0  0
  7  1  2  0  0  0  0
  8  6  1  6  0  0  0
  8  7  1  0  0  0  0
  9  5  1  0  0  0  0
 11 18  1  6  0  0  0
 11  8  1  0  0  0  0
 12 10  1  0  0  0  0
 13 17  1  0  0  0  0
 13 20  2  0  0  0  0
 14 10  1  0  0  0  0
 15 11  1  0  0  0  0
 16 14  2  0  0  0  0
 16 24  1  0  0  0  0
 17 18  1  0  0  0  0
 19 12  1  1  0  0  0
 19 13  1  0  0  0  0
 19 15  1  0  0  0  0
 20 14  1  0  0  0  0
 22 23  1  0  0  0  0
 23 21  2  0  0  0  0
 24 23  1  0  0  0  0
 25 29  1  0  0  0  0
 26 28  2  0  0  0  0
 27 25  2  0  0  0  0
 27 26  1  0  0  0  0
 28 30  1  0  0  0  0
 29 30  2  0  0  0  0
 30 31  1  0  0  0  0
 31 32  1  0  0  0  0
 32 33  1  0  0  0  0
 34 32  2  0  0  0  0
 35  2  1  0  0  0  0
 36 35  1  0  0  0  0
 36 37  1  0  0  0  0
M  END
>  <MODEL>
3

>  <REMARK>
 VINA RESULT:      -8.5      3.480      6.541
  Name = 
  7 active torsions:
  status: ('A' for Active; 'I' for Inactive)
    1  A    between atoms: C_1  and  C_13
    2  A    between atoms: N_4  and  C_36
    3  A    between atoms: C_8  and  O_21
    4  A    between atoms: O_9  and  C_22
    5  A    between atoms: O_9  and  C_33
    6  A    between atoms: N_12  and  O_21
    7  A    between atoms: C_20  and  N_25
                            x       y       z     vdW  Elec       q    Type
                         _______ _______ _______ _____ _____    ______ ____

>  <TORSDO>
F 7

$$$$
=
 OpenBabel10222419543D

 37 41  0  0  1  0  0  0  0  0999 V2000
  190.5860  177.4240  141.6430 C   0  0  0  0  0  0  0  0  0  0  0  0
  190.5350  177.1790  146.3700 N   0  0  0  0  0  2  0  0  0  0  0  0
  191.9350  177.9760  143.5210 C   0  0  0  0  0  3  0  0  0  0  0  0
  191.9320  178.0220  142.0020 C   0  0  0  0  0  3  0  0  0  0  0  0
  190.7420  177.5310  143.8580 C   0  0  0  0  0  0  0  0  0  0  0  0
  188.9190  176.5010  144.7220 N   0  0  0  0  0  0  0  0  0  0  0  0
  189.9450  177.2060  142.7700 C   0  0  2  0  0  3  0  0  0  0  0  0
  188.7240  176.4980  143.2520 C   0  0  2  0  0  3  0  0  0  0  0  0
  190.0470  177.0710  145.0330 C   0  0  0  0  0  0  0  0  0  0  0  0
  183.6310  178.6210  144.6230 C   0  0  0  0  0  2  0  0  0  0  0  0
  187.5000  177.2070  142.8500 N   0  0  1  0  0  0  0  0  0  0  0  0
  184.9830  179.2590  144.9310 C   0  0  0  0  0  2  0  0  0  0  0  0
  185.4830  179.0200  142.4200 C   0  0  0  0  0  0  0  0  0  0  0  0
  183.1840  178.9980  143.2400 C   0  0  0  0  0  0  0  0  0  0  0  0
  186.8620  177.7280  144.0770 C   0  0  0  0  0  2  0  0  0  0  0  0
  181.8990  179.1780  142.9470 C   0  0  0  0  0  3  0  0  0  0  0  0
  186.4600  178.8180  141.3050 C   0  0  0  0  0  2  0  0  0  0  0  0
  187.7760  178.2730  141.8660 C   0  0  0  0  0  2  0  0  0  0  0  0
  186.0190  178.9890  143.8320 C   0  0  2  0  0  3  0  0  0  0  0  0
  184.1750  179.0300  142.1560 C   0  0  0  0  0  3  0  0  0  0  0  0
  178.9310  178.1500  144.7660 O   0  0  0  0  0  0  0  0  0  0  0  0
  179.6530  177.3430  142.7130 N   0  0  0  0  0  1  0  0  0  0  0  0
  179.7870  178.1990  143.8430 C   0  0  0  0  0  0  0  0  0  0  0  0
  180.8850  179.1030  143.9490 N   0  0  0  0  0  2  0  0  0  0  0  0
  188.4050  177.0490  138.6490 C   0  0  0  0  0  3  0  0  0  0  0  0
  190.1250  177.0620  140.2910 C   0  0  0  0  0  0  0  0  0  0  0  0
  188.8620  177.3730  139.8880 N   0  0  0  0  0  0  0  0  0  0  0  0
  190.9850  176.3940  139.4120 C   0  0  0  0  0  3  0  0  0  0  0  0
  189.2360  176.3780  137.7520 C   0  0  0  0  0  3  0  0  0  0  0  0
  190.5430  176.0420  138.1350 C   0  0  0  0  0  0  0  0  0  0  0  0
  191.4330  175.3730  137.2810 O   0  0  0  0  0  0  0  0  0  0  0  0
  192.8200  175.2770  137.4500 C   0  0  0  0  0  0  0  0  0  0  0  0
  193.4460  174.0580  137.6860 O   0  0  0  0  0  1  0  0  0  0  0  0
  193.5160  176.3250  137.4060 O   0  0  0  0  0  0  0  0  0  0  0  0
  189.8110  176.7190  147.4190 O   0  0  0  0  0  0  0  0  0  0  0  0
  189.3760  177.8630  148.0870 C   0  0  0  0  0  2  0  0  0  0  0  0
  187.8830  178.0250  147.8960 C   0  0  0  0  0  1  0  0  0  0  0  0
  1  4  2  0  0  0  0
  2 35  1  0  0  0  0
  3  5  2  0  0  0  0
  4  3  1  0  0  0  0
  5  9  1  0  0  0  0
  6  9  2  0  0  0  0
  7  1  1  6  0  0  0
  7  8  1  0  0  0  0
  7  5  1  0  0  0  0
  8  6  1  1  0  0  0
  9  2  1  0  0  0  0
 10 12  1  0  0  0  0
 11 18  1  6  0  0  0
 11  8  1  0  0  0  0
 11 15  1  0  0  0  0
 13 19  1  0  0  0  0
 14 10  1  0  0  0  0
 16 14  2  0  0  0  0
 16 24  1  0  0  0  0
 17 18  1  0  0  0  0
 17 13  1  0  0  0  0
 19 15  1  1  0  0  0
 19 12  1  0  0  0  0
 20 13  2  0  0  0  0
 20 14  1  0  0  0  0
 22 23  1  0  0  0  0
 23 24  1  0  0  0  0
 23 21  2  0  0  0  0
 25 27  1  0  0  0  0
 26  1  1  0  0  0  0
 27 26  2  0  0  0  0
 28 26  1  0  0  0  0
 29 30  1  0  0  0  0
 29 25  2  0  0  0  0
 30 28  2  0  0  0  0
 31 32  1  0  0  0  0
 31 30  1  0  0  0  0
 32 33  1  0  0  0  0
 34 32  2  0  0  0  0
 35 36  1  0  0  0  0
 37 36  1  0  0  0  0
M  END
>  <MODEL>
4

>  <REMARK>
 VINA RESULT:      -8.2      2.208      2.904
  Name = 
  7 active torsions:
  status: ('A' for Active; 'I' for Inactive)
    1  A    between atoms: C_1  and  C_13
    2  A    between atoms: N_4  and  C_36
    3  A    between atoms: C_8  and  O_21
    4  A    between atoms: O_9  and  C_22
    5  A    between atoms: O_9  and  C_33
    6  A    between atoms: N_12  and  O_21
    7  A    between atoms: C_20  and  N_25
                            x       y       z     vdW  Elec       q    Type
                         _______ _______ _______ _____ _____    ______ ____

>  <TORSDO>
F 7

$$$$
=
 OpenBabel10222419543D

 37 41  0  0  1  0  0  0  0  0999 V2000
  185.4220  176.8010  137.0890 C   0  0  0  0  0  0  0  0  0  0  0  0
  180.7120  177.0000  137.5180 N   0  0  0  0  0  2  0  0  0  0  0  0
  183.4580  175.7800  136.2220 C   0  0  0  0  0  3  0  0  0  0  0  0
  184.9720  175.7530  136.0900 C   0  0  0  0  0  3  0  0  0  0  0  0
  183.2090  176.6220  137.2030 C   0  0  0  0  0  0  0  0  0  0  0  0
  182.4650  178.2320  138.6120 N   0  0  0  0  0  0  0  0  0  0  0  0
  184.3480  177.2240  137.7180 C   0  0  2  0  0  3  0  0  0  0  0  0
  183.9450  178.3200  138.6450 C   0  0  2  0  0  3  0  0  0  0  0  0
  182.0810  177.2900  137.8000 C   0  0  0  0  0  0  0  0  0  0  0  0
  188.4370  177.8860  142.1020 C   0  0  0  0  0  2  0  0  0  0  0  0
  184.4850  178.1060  139.9960 N   0  0  1  0  0  0  0  0  0  0  0  0
  187.8400  179.1830  141.5650 C   0  0  0  0  0  2  0  0  0  0  0  0
  185.5960  178.3410  142.4960 C   0  0  0  0  0  0  0  0  0  0  0  0
  187.7060  177.4510  143.3400 C   0  0  0  0  0  0  0  0  0  0  0  0
  185.8650  178.6330  140.0150 C   0  0  0  0  0  2  0  0  0  0  0  0
  188.3310  176.8330  144.3370 C   0  0  0  0  0  3  0  0  0  0  0  0
  184.1030  178.2770  142.4230 C   0  0  0  0  0  2  0  0  0  0  0  0
  183.6350  178.7230  141.0360 C   0  0  0  0  0  2  0  0  0  0  0  0
  186.3160  179.1010  141.4070 C   0  0  2  0  0  3  0  0  0  0  0  0
  186.2450  177.5880  143.3860 C   0  0  0  0  0  3  0  0  0  0  0  0
  191.7890  176.6270  145.4200 O   0  0  0  0  0  0  0  0  0  0  0  0
  189.9750  177.3270  146.6870 N   0  0  0  0  0  1  0  0  0  0  0  0
  190.5520  176.8540  145.4740 C   0  0  0  0  0  0  0  0  0  0  0  0
  189.7420  176.6220  144.3220 N   0  0  0  0  0  2  0  0  0  0  0  0
  188.4010  179.0200  136.8380 C   0  0  0  0  0  3  0  0  0  0  0  0
  186.7920  177.3190  137.2530 C   0  0  0  0  0  0  0  0  0  0  0  0
  187.1450  178.5160  136.7080 N   0  0  0  0  0  0  0  0  0  0  0  0
  187.7390  176.5810  137.9720 C   0  0  0  0  0  3  0  0  0  0  0  0
  189.3700  178.3060  137.5430 C   0  0  0  0  0  3  0  0  0  0  0  0
  189.0400  177.0700  138.1180 C   0  0  0  0  0  0  0  0  0  0  0  0
  189.9630  176.3020  138.8450 O   0  0  0  0  0  0  0  0  0  0  0  0
  191.1740  175.7930  138.3600 C   0  0  0  0  0  0  0  0  0  0  0  0
  192.3240  176.5710  138.3000 O   0  0  0  0  0  1  0  0  0  0  0  0
  191.2160  174.6040  137.9490 O   0  0  0  0  0  0  0  0  0  0  0  0
  179.7120  177.6790  138.1300 O   0  0  0  0  0  0  0  0  0  0  0  0
  179.1070  176.7490  138.9760 C   0  0  0  0  0  2  0  0  0  0  0  0
  179.5240  177.0200  140.4060 C   0  0  0  0  0  1  0  0  0  0  0  0
  1 26  1  0  0  0  0
  2  9  1  0  0  0  0
  2 35  1  0  0  0  0
  3  5  2  0  0  0  0
  4  3  1  0  0  0  0
  4  1  2  0  0  0  0
  5  7  1  0  0  0  0
  5  9  1  0  0  0  0
  7  1  1  6  0  0  0
  7  8  1  0  0  0  0
  8  6  1  1  0  0  0
  8 11  1  0  0  0  0
  9  6  2  0  0  0  0
 10 14  1  0  0  0  0
 11 15  1  6  0  0  0
 11 18  1  0  0  0  0
 12 10  1  0  0  0  0
 13 20  2  0  0  0  0
 14 20  1  0  0  0  0
 14 16  2  0  0  0  0
 17 13  1  0  0  0  0
 18 17  1  0  0  0  0
 19 15  1  6  0  0  0
 19 12  1  0  0  0  0
 19 13  1  0  0  0  0
 21 23  2  0  0  0  0
 23 22  1  0  0  0  0
 24 16  1  0  0  0  0
 24 23  1  0  0  0  0
 25 29  1  0  0  0  0
 26 28  2  0  0  0  0
 27 25  2  0  0  0  0
 27 26  1  0  0  0  0
 28 30  1  0  0  0  0
 29 30  2  0  0  0  0
 30 31  1  0  0  0  0
 32 31  1  0  0  0  0
 33 32  1  0  0  0  0
 34 32  2  0  0  0  0
 35 36  1  0  0  0  0
 36 37  1  0  0  0  0
M  END
>  <MODEL>
5

>  <REMARK>
 VINA RESULT:      -8.1      2.914      7.951
  Name = 
  7 active torsions:
  status: ('A' for Active; 'I' for Inactive)
    1  A    between atoms: C_1  and  C_13
    2  A    between atoms: N_4  and  C_36
    3  A    between atoms: C_8  and  O_21
    4  A    between atoms: O_9  and  C_22
    5  A    between atoms: O_9  and  C_33
    6  A    between atoms: N_12  and  O_21
    7  A    between atoms: C_20  and  N_25
                            x       y       z     vdW  Elec       q    Type
                         _______ _______ _______ _____ _____    ______ ____

>  <TORSDO>
F 7

$$$$
=
 OpenBabel10222419543D

 37 41  0  0  1  0  0  0  0  0999 V2000
  188.3510  176.7130  136.3340 C   0  0  0  0  0  0  0  0  0  0  0  0
  193.0520  176.3790  136.7810 N   0  0  0  0  0  2  0  0  0  0  0  0
  190.3450  177.2000  135.1350 C   0  0  0  0  0  3  0  0  0  0  0  0
  188.8320  177.2750  135.0110 C   0  0  0  0  0  3  0  0  0  0  0  0
  190.5740  176.7740  136.3600 C   0  0  0  0  0  0  0  0  0  0  0  0
  191.2620  175.7670  138.2690 N   0  0  0  0  0  0  0  0  0  0  0  0
  189.4170  176.4870  137.0710 C   0  0  2  0  0  3  0  0  0  0  0  0
  189.7820  175.7960  138.3410 C   0  0  2  0  0  3  0  0  0  0  0  0
  191.6770  176.3070  137.1590 C   0  0  0  0  0  0  0  0  0  0  0  0
  189.9270  176.7170  143.9490 C   0  0  0  0  0  2  0  0  0  0  0  0
  189.2960  176.5380  139.5140 N   0  0  1  0  0  0  0  0  0  0  0  0
  190.9520  177.2090  142.9310 C   0  0  0  0  0  2  0  0  0  0  0  0
  188.9590  178.2190  141.6590 C   0  0  0  0  0  0  0  0  0  0  0  0
  188.7760  177.6780  144.0320 C   0  0  0  0  0  0  0  0  0  0  0  0
  190.2940  176.3780  140.5910 C   0  0  0  0  0  2  0  0  0  0  0  0
  188.1340  177.9010  145.1750 C   0  0  0  0  0  3  0  0  0  0  0  0
  188.3130  178.6270  140.3730 C   0  0  0  0  0  2  0  0  0  0  0  0
  189.0330  177.9580  139.1990 C   0  0  0  0  0  2  0  0  0  0  0  0
  190.3130  177.5530  141.5800 C   0  0  2  0  0  3  0  0  0  0  0  0
  188.2600  178.2770  142.7940 C   0  0  0  0  0  3  0  0  0  0  0  0
  188.3040  177.0180  148.6920 O   0  0  0  0  0  0  0  0  0  0  0  0
  186.8310  178.5140  147.7030 N   0  0  0  0  0  1  0  0  0  0  0  0
  187.9140  177.5920  147.6410 C   0  0  0  0  0  0  0  0  0  0  0  0
  188.5560  177.3020  146.4000 N   0  0  0  0  0  2  0  0  0  0  0  0
  185.2030  174.7890  136.8330 C   0  0  0  0  0  3  0  0  0  0  0  0
  186.9590  176.3860  136.6890 C   0  0  0  0  0  0  0  0  0  0  0  0
  186.4830  175.1220  136.5190 N   0  0  0  0  0  0  0  0  0  0  0  0
  186.1160  177.3770  137.2030 C   0  0  0  0  0  3  0  0  0  0  0  0
  184.3360  175.7560  137.3420 C   0  0  0  0  0  3  0  0  0  0  0  0
  184.7930  177.0680  137.5300 C   0  0  0  0  0  0  0  0  0  0  0  0
  183.9770  178.0880  138.0440 O   0  0  0  0  0  0  0  0  0  0  0  0
  184.2560  178.8790  139.1660 C   0  0  0  0  0  0  0  0  0  0  0  0
  184.2810  180.2670  139.0940 O   0  0  0  0  0  0  0  0  0  0  0  0
  184.5080  178.3160  140.2630 O   0  0  0  0  0  1  0  0  0  0  0  0
  194.0280  175.9140  137.5990 O   0  0  0  0  0  0  0  0  0  0  0  0
  194.5180  174.7720  136.9650 C   0  0  0  0  0  2  0  0  0  0  0  0
  195.7890  174.3190  137.6500 C   0  0  0  0  0  1  0  0  0  0  0  0
  1 26  1  0  0  0  0
  2  9  1  0  0  0  0
  2 35  1  0  0  0  0
  3  5  2  0  0  0  0
  4  3  1  0  0  0  0
  4  1  2  0  0  0  0
  5  7  1  0  0  0  0
  5  9  1  0  0  0  0
  7  1  1  6  0  0  0
  7  8  1  0  0  0  0
  8  6  1  1  0  0  0
  8 11  1  0  0  0  0
  9  6  2  0  0  0  0
 10 14  1  0  0  0  0
 11 18  1  6  0  0  0
 11 15  1  0  0  0  0
 12 10  1  0  0  0  0
 13 20  2  0  0  0  0
 14 16  2  0  0  0  0
 16 24  1  0  0  0  0
 17 13  1  0  0  0  0
 18 17  1  0  0  0  0
 19 15  1  6  0  0  0
 19 13  1  0  0  0  0
 19 12  1  0  0  0  0
 20 14  1  0  0  0  0
 23 22  1  0  0  0  0
 23 21  2  0  0  0  0
 24 23  1  0  0  0  0
 25 29  1  0  0  0  0
 26 28  2  0  0  0  0
 27 26  1  0  0  0  0
 27 25  2  0  0  0  0
 28 30  1  0  0  0  0
 29 30  2  0  0  0  0
 30 31  1  0  0  0  0
 31 32  1  0  0  0  0
 32 34  1  0  0  0  0
 33 32  2  0  0  0  0
 36 35  1  0  0  0  0
 36 37  1  0  0  0  0
M  END
>  <MODEL>
6

>  <REMARK>
 VINA RESULT:      -8.0      3.372      6.212
  Name = 
  7 active torsions:
  status: ('A' for Active; 'I' for Inactive)
    1  A    between atoms: C_1  and  C_13
    2  A    between atoms: N_4  and  C_36
    3  A    between atoms: C_8  and  O_21
    4  A    between atoms: O_9  and  C_22
    5  A    between atoms: O_9  and  C_33
    6  A    between atoms: N_12  and  O_21
    7  A    between atoms: C_20  and  N_25
                            x       y       z     vdW  Elec       q    Type
                         _______ _______ _______ _____ _____    ______ ____

>  <TORSDO>
F 7

$$$$
=
 OpenBabel10222419543D

 37 41  0  0  1  0  0  0  0  0999 V2000
  189.7180  175.5300  137.1890 C   0  0  0  0  0  0  0  0  0  0  0  0
  185.7200  178.0260  137.6300 N   0  0  0  0  0  2  0  0  0  0  0  0
  187.3830  175.3380  136.7850 C   0  0  0  0  0  3  0  0  0  0  0  0
  188.6850  174.5680  136.6360 C   0  0  0  0  0  3  0  0  0  0  0  0
  187.7060  176.4500  137.4100 C   0  0  0  0  0  0  0  0  0  0  0  0
  188.0010  178.5620  138.1750 N   0  0  0  0  0  0  0  0  0  0  0  0
  189.0670  176.5740  137.6530 C   0  0  2  0  0  3  0  0  0  0  0  0
  189.3530  177.9540  138.1410 C   0  0  2  0  0  3  0  0  0  0  0  0
  187.1060  177.7130  137.7580 C   0  0  0  0  0  0  0  0  0  0  0  0
  188.8770  177.4260  143.7820 C   0  0  0  0  0  2  0  0  0  0  0  0
  189.9880  177.9320  139.4670 N   0  0  1  0  0  0  0  0  0  0  0  0
  188.8640  176.2850  142.7690 C   0  0  0  0  0  2  0  0  0  0  0  0
  191.0790  177.2560  141.8950 C   0  0  0  0  0  0  0  0  0  0  0  0
  190.2900  177.7820  144.1440 C   0  0  0  0  0  0  0  0  0  0  0  0
  189.0620  177.2510  140.3960 C   0  0  0  0  0  2  0  0  0  0  0  0
  190.6140  178.1930  145.3660 C   0  0  0  0  0  3  0  0  0  0  0  0
  192.0340  177.5020  140.7690 C   0  0  0  0  0  2  0  0  0  0  0  0
  191.3190  177.2910  139.4320 C   0  0  0  0  0  2  0  0  0  0  0  0
  189.7780  176.5620  141.5670 C   0  0  2  0  0  3  0  0  0  0  0  0
  191.3090  177.8100  143.0870 C   0  0  0  0  0  3  0  0  0  0  0  0
  188.9060  177.5100  148.4950 O   0  0  0  0  0  0  0  0  0  0  0  0
  190.8370  176.4880  147.7130 N   0  0  0  0  0  1  0  0  0  0  0  0
  189.7640  177.4130  147.5780 C   0  0  0  0  0  0  0  0  0  0  0  0
  189.6530  178.2400  146.4210 N   0  0  0  0  0  2  0  0  0  0  0  0
  193.1650  174.3400  137.9390 C   0  0  0  0  0  3  0  0  0  0  0  0
  191.1810  175.3700  137.1270 C   0  0  0  0  0  0  0  0  0  0  0  0
  191.8160  174.5080  137.9680 N   0  0  0  0  0  0  0  0  0  0  0  0
  191.9280  176.1060  136.2010 C   0  0  0  0  0  3  0  0  0  0  0  0
  193.9380  175.0640  137.0310 C   0  0  0  0  0  3  0  0  0  0  0  0
  193.3170  175.9610  136.1500 C   0  0  0  0  0  0  0  0  0  0  0  0
  194.0330  176.7160  135.2080 O   0  0  0  0  0  0  0  0  0  0  0  0
  195.3180  177.2460  135.3830 C   0  0  0  0  0  0  0  0  0  0  0  0
  196.4190  176.4310  135.6170 O   0  0  0  0  0  1  0  0  0  0  0  0
  195.4750  178.4940  135.3460 O   0  0  0  0  0  0  0  0  0  0  0  0
  185.2410  179.2440  137.9850 O   0  0  0  0  0  0  0  0  0  0  0  0
  184.5270  179.0220  139.1630 C   0  0  0  0  0  2  0  0  0  0  0  0
  183.1910  179.7300  139.0860 C   0  0  0  0  0  1  0  0  0  0  0  0
  2  9  1  0  0  0  0
  2 35  1  0  0  0  0
  3  5  2  0  0  0  0
  4  3  1  0  0  0  0
  4  1  2  0  0  0  0
  5  7  1  0  0  0  0
  5  9  1  0  0  0  0
  7  1  1  6  0  0  0
  7  8  1  0  0  0  0
  8  6  1  1  0  0  0
  8 11  1  0  0  0  0
  9  6  2  0  0  0  0
 10 14  1  0  0  0  0
 11 18  1  6  0  0  0
 11 15  1  0  0  0  0
 12 10  1  0  0  0  0
 13 20  2  0  0  0  0
 14 16  2  0  0  0  0
 16 24  1  0  0  0  0
 17 13  1  0  0  0  0
 18 17  1  0  0  0  0
 19 15  1  6  0  0  0
 19 13  1  0  0  0  0
 19 12  1  0  0  0  0
 20 14  1  0  0  0  0
 23 22  1  0  0  0  0
 23 21  2  0  0  0  0
 24 23  1  0  0  0  0
 25 27  1  0  0  0  0
 26  1  1  0  0  0  0
 26 27  2  0  0  0  0
 28 26  1  0  0  0  0
 29 25  2  0  0  0  0
 30 28  2  0  0  0  0
 30 29  1  0  0  0  0
 31 32  1  0  0  0  0
 31 30  1  0  0  0  0
 32 33  1  0  0  0  0
 34 32  2  0  0  0  0
 35 36  1  0  0  0  0
 37 36  1  0  0  0  0
M  END
>  <MODEL>
7

>  <REMARK>
 VINA RESULT:      -8.0      3.486      7.621
  Name = 
  7 active torsions:
  status: ('A' for Active; 'I' for Inactive)
    1  A    between atoms: C_1  and  C_13
    2  A    between atoms: N_4  and  C_36
    3  A    between atoms: C_8  and  O_21
    4  A    between atoms: O_9  and  C_22
    5  A    between atoms: O_9  and  C_33
    6  A    between atoms: N_12  and  O_21
    7  A    between atoms: C_20  and  N_25
                            x       y       z     vdW  Elec       q    Type
                         _______ _______ _______ _____ _____    ______ ____

>  <TORSDO>
F 7

$$$$
=
 OpenBabel10222419543D

 37 41  0  0  1  0  0  0  0  0999 V2000
  182.4570  176.4970  138.0240 C   0  0  0  0  0  0  0  0  0  0  0  0
  179.8840  180.3110  139.1380 N   0  0  0  0  0  2  0  0  0  0  0  0
  180.2090  177.2690  137.9760 C   0  0  0  0  0  3  0  0  0  0  0  0
  181.0640  176.0670  137.6090 C   0  0  0  0  0  3  0  0  0  0  0  0
  181.0270  178.1090  138.5750 C   0  0  0  0  0  0  0  0  0  0  0  0
  182.2390  179.8620  139.3430 N   0  0  0  0  0  0  0  0  0  0  0  0
  182.3430  177.6690  138.6100 C   0  0  2  0  0  3  0  0  0  0  0  0
  183.2180  178.7790  139.0870 C   0  0  2  0  0  3  0  0  0  0  0  0
  181.0330  179.4700  139.0450 C   0  0  0  0  0  0  0  0  0  0  0  0
  188.1600  177.5740  141.6250 C   0  0  0  0  0  2  0  0  0  0  0  0
  183.9560  178.3970  140.2990 N   0  0  1  0  0  0  0  0  0  0  0  0
  187.6400  178.9680  141.2870 C   0  0  0  0  0  2  0  0  0  0  0  0
  185.5090  178.3030  142.5620 C   0  0  0  0  0  0  0  0  0  0  0  0
  187.6100  177.1220  142.9470 C   0  0  0  0  0  0  0  0  0  0  0  0
  185.3730  178.7670  140.0960 C   0  0  0  0  0  2  0  0  0  0  0  0
  188.3200  176.3600  143.7730 C   0  0  0  0  0  3  0  0  0  0  0  0
  184.0300  178.4080  142.7610 C   0  0  0  0  0  2  0  0  0  0  0  0
  183.3840  179.0150  141.5130 C   0  0  0  0  0  2  0  0  0  0  0  0
  186.1140  179.0670  141.4070 C   0  0  2  0  0  3  0  0  0  0  0  0
  186.2070  177.4140  143.2700 C   0  0  0  0  0  3  0  0  0  0  0  0
  191.9450  176.2300  143.8920 O   0  0  0  0  0  0  0  0  0  0  0  0
  190.5620  177.6130  145.1400 N   0  0  0  0  0  1  0  0  0  0  0  0
  190.7730  176.6030  144.1600 C   0  0  0  0  0  0  0  0  0  0  0  0
  189.6700  175.9970  143.4860 N   0  0  0  0  0  2  0  0  0  0  0  0
  184.9180  173.7390  137.5820 C   0  0  0  0  0  3  0  0  0  0  0  0
  183.7130  175.7830  137.7350 C   0  0  0  0  0  0  0  0  0  0  0  0
  183.7740  174.4260  137.8380 N   0  0  0  0  0  0  0  0  0  0  0  0
  184.8540  176.4980  137.3540 C   0  0  0  0  0  3  0  0  0  0  0  0
  186.0740  174.4230  137.2050 C   0  0  0  0  0  3  0  0  0  0  0  0
  186.0470  175.8200  137.0900 C   0  0  0  0  0  0  0  0  0  0  0  0
  187.1700  176.5700  136.7090 O   0  0  0  0  0  0  0  0  0  0  0  0
  188.0140  177.2840  137.5700 C   0  0  0  0  0  0  0  0  0  0  0  0
  187.8560  178.6490  137.7830 O   0  0  0  0  0  0  0  0  0  0  0  0
  188.9500  176.6760  138.1510 O   0  0  0  0  0  1  0  0  0  0  0  0
  179.9820  181.5840  139.5950 O   0  0  0  0  0  0  0  0  0  0  0  0
  179.3500  182.3640  138.6270 C   0  0  0  0  0  2  0  0  0  0  0  0
  180.3850  182.9360  137.6810 C   0  0  0  0  0  1  0  0  0  0  0  0
  2 35  1  0  0  0  0
  3  5  2  0  0  0  0
  4  3  1  0  0  0  0
  4  1  2  0  0  0  0
  5  7  1  0  0  0  0
  5  9  1  0  0  0  0
  7  1  1  6  0  0  0
  7  8  1  0  0  0  0
  8  6  1  1  0  0  0
  8 11  1  0  0  0  0
  9  2  1  0  0  0  0
  9  6  2  0  0  0  0
 10 14  1  0  0  0  0
 11 15  1  6  0  0  0
 11 18  1  0  0  0  0
 12 19  1  0  0  0  0
 12 10  1  0  0  0  0
 13 17  1  0  0  0  0
 13 20  2  0  0  0  0
 14 20  1  0  0  0  0
 14 16  2  0  0  0  0
 18 17  1  0  0  0  0
 19 15  1  6  0  0  0
 19 13  1  0  0  0  0
 21 23  2  0  0  0  0
 23 22  1  0  0  0  0
 24 16  1  0  0  0  0
 24 23  1  0  0  0  0
 25 27  1  0  0  0  0
 26 27  2  0  0  0  0
 26  1  1  0  0  0  0
 28 26  1  0  0  0  0
 29 25  2  0  0  0  0
 30 29  1  0  0  0  0
 30 28  2  0  0  0  0
 31 30  1  0  0  0  0
 31 32  1  0  0  0  0
 32 33  2  0  0  0  0
 32 34  1  0  0  0  0
 36 35  1  0  0  0  0
 37 36  1  0  0  0  0
M  END
>  <MODEL>
8

>  <REMARK>
 VINA RESULT:      -7.9      3.413      8.445
  Name = 
  7 active torsions:
  status: ('A' for Active; 'I' for Inactive)
    1  A    between atoms: C_1  and  C_13
    2  A    between atoms: N_4  and  C_36
    3  A    between atoms: C_8  and  O_21
    4  A    between atoms: O_9  and  C_22
    5  A    between atoms: O_9  and  C_33
    6  A    between atoms: N_12  and  O_21
    7  A    between atoms: C_20  and  N_25
                            x       y       z     vdW  Elec       q    Type
                         _______ _______ _______ _____ _____    ______ ____

>  <TORSDO>
F 7

$$$$
=
 OpenBabel10222419543D

 37 41  0  0  1  0  0  0  0  0999 V2000
  189.0560  177.4830  141.8000 C   0  0  0  0  0  0  0  0  0  0  0  0
  193.0530  177.0410  139.3030 N   0  0  0  0  0  2  0  0  0  0  0  0
  191.3760  177.0700  142.1130 C   0  0  0  0  0  3  0  0  0  0  0  0
  190.0800  177.2370  142.8890 C   0  0  0  0  0  2  0  0  0  0  0  0
  191.0290  177.1140  140.8430 C   0  0  0  0  0  0  0  0  0  0  0  0
  190.7860  177.4670  138.6190 N   0  0  0  0  0  0  0  0  0  0  0  0
  189.6760  177.3540  140.6470 C   0  0  0  0  0  0  0  0  0  0  0  0
  189.4310  177.6210  139.2000 C   0  0  2  0  0  3  0  0  0  0  0  0
  191.6560  177.1940  139.5490 C   0  0  0  0  0  0  0  0  0  0  0  0
  184.1410  176.4400  137.4870 C   0  0  0  0  0  2  0  0  0  0  0  0
  188.4700  176.6640  138.6340 N   0  0  1  0  0  0  0  0  0  0  0  0
  185.1790  177.2430  136.7090 C   0  0  0  0  0  2  0  0  0  0  0  0
  186.7460  175.2330  137.0460 C   0  0  0  0  0  0  0  0  0  0  0  0
  184.3260  174.9710  137.2360 C   0  0  0  0  0  0  0  0  0  0  0  0
  187.3270  177.4370  138.1040 C   0  0  0  0  0  2  0  0  0  0  0  0
  183.2940  174.1350  137.1940 C   0  0  0  0  0  3  0  0  0  0  0  0
  188.1240  174.6770  137.2200 C   0  0  0  0  0  2  0  0  0  0  0  0
  189.0880  175.8010  137.6060 C   0  0  0  0  0  2  0  0  0  0  0  0
  186.6070  176.7340  136.9440 C   0  0  2  0  0  3  0  0  0  0  0  0
  185.6890  174.4280  137.1740 C   0  0  0  0  0  3  0  0  0  0  0  0
  179.6730  174.1560  137.4510 O   0  0  0  0  0  0  0  0  0  0  0  0
  181.0400  172.2950  137.2160 N   0  0  0  0  0  1  0  0  0  0  0  0
  180.8400  173.7000  137.3250 C   0  0  0  0  0  0  0  0  0  0  0  0
  181.9480  174.5990  137.3040 N   0  0  0  0  0  2  0  0  0  0  0  0
  185.6940  177.9000  143.3440 C   0  0  0  0  0  3  0  0  0  0  0  0
  187.6530  177.8880  141.9960 C   0  0  0  0  0  0  0  0  0  0  0  0
  186.9900  177.5450  143.1340 N   0  0  0  0  0  0  0  0  0  0  0  0
  186.9930  178.6290  141.0090 C   0  0  0  0  0  3  0  0  0  0  0  0
  185.0070  178.6340  142.3770 C   0  0  0  0  0  3  0  0  0  0  0  0
  185.6600  179.0040  141.1930 C   0  0  0  0  0  0  0  0  0  0  0  0
  185.0310  179.7480  140.1820 O   0  0  0  0  0  0  0  0  0  0  0  0
  183.7680  179.4870  139.6330 C   0  0  0  0  0  0  0  0  0  0  0  0
  183.0550  178.3380  139.9510 O   0  0  0  0  0  1  0  0  0  0  0  0
  183.2760  180.3090  138.8160 O   0  0  0  0  0  0  0  0  0  0  0  0
  193.5580  177.1300  138.0480 O   0  0  0  0  0  0  0  0  0  0  0  0
  193.6040  175.8160  137.5830 C   0  0  0  0  0  2  0  0  0  0  0  0
  192.9080  175.7280  136.2410 C   0  0  0  0  0  1  0  0  0  0  0  0
  1 26  1  0  0  0  0
  1  4  1  0  0  0  0
  2  9  1  0  0  0  0
  3  4  1  0  0  0  0
  5  3  2  0  0  0  0
  6  9  2  0  0  0  0
  7  5  1  0  0  0  0
  7  1  2  0  0  0  0
  8  6  1  6  0  0  0
  8  7  1  0  0  0  0
  9  5  1  0  0  0  0
 11 18  1  6  0  0  0
 11  8  1  0  0  0  0
 12 10  1  0  0  0  0
 13 20  2  0  0  0  0
 13 17  1  0  0  0  0
 14 10  1  0  0  0  0
 15 11  1  0  0  0  0
 16 14  2  0  0  0  0
 16 24  1  0  0  0  0
 17 18  1  0  0  0  0
 19 12  1  1  0  0  0
 19 13  1  0  0  0  0
 19 15  1  0  0  0  0
 20 14  1  0  0  0  0
 22 23  1  0  0  0  0
 23 21  2  0  0  0  0
 24 23  1  0  0  0  0
 26 27  2  0  0  0  0
 27 25  1  0  0  0  0
 28 30  2  0  0  0  0
 28 26  1  0  0  0  0
 29 25  2  0  0  0  0
 30 29  1  0  0  0  0
 31 30  1  0  0  0  0
 32 33  1  0  0  0  0
 32 31  1  0  0  0  0
 34 32  2  0  0  0  0
 35  2  1  0  0  0  0
 36 35  1  0  0  0  0
 37 36  1  0  0  0  0
M  END
>  <MODEL>
9

>  <REMARK>
 VINA RESULT:      -7.8      3.261      6.188
  Name = 
  7 active torsions:
  status: ('A' for Active; 'I' for Inactive)
    1  A    between atoms: C_1  and  C_13
    2  A    between atoms: N_4  and  C_36
    3  A    between atoms: C_8  and  O_21
    4  A    between atoms: O_9  and  C_22
    5  A    between atoms: O_9  and  C_33
    6  A    between atoms: N_12  and  O_21
    7  A    between atoms: C_20  and  N_25
                            x       y       z     vdW  Elec       q    Type
                         _______ _______ _______ _____ _____    ______ ____

>  <TORSDO>
F 7

$$$$
