=
 OpenBabel10222420263D

 31 35  0  0  1  0  0  0  0  0999 V2000
  190.5310  178.8170  143.6350 C   0  0  0  0  0  1  0  0  0  0  0  0
  188.7290  177.9200  139.2690 C   0  0  0  0  0  0  0  0  0  0  0  0
  186.4320  178.0910  140.2190 C   0  0  0  0  0  2  0  0  0  0  0  0
  188.8480  178.5570  137.9250 C   0  0  0  0  0  2  0  0  0  0  0  0
  185.7030  178.8180  141.3270 C   0  0  2  0  0  3  0  0  0  0  0  0
  188.4800  177.3330  141.4930 C   0  0  0  0  0  0  0  0  0  0  0  0
  187.9730  177.1240  142.8970 C   0  0  0  0  0  2  0  0  0  0  0  0
  191.5850  176.0140  138.6860 O   0  0  0  0  0  0  0  0  0  0  0  0
  185.6600  178.0060  142.6230 C   0  0  1  0  0  3  0  0  0  0  0  0
  190.5890  176.7710  138.5460 C   0  0  0  0  0  0  0  0  0  0  0  0
  184.0010  178.3690  144.3700 O   0  0  0  0  0  0  0  0  0  0  0  0
  186.6970  177.8360  144.8500 N   0  0  0  0  0  2  0  0  0  0  0  0
  190.4720  175.6240  143.0230 C   0  0  0  0  0  2  0  0  0  0  0  0
  187.4800  179.4380  143.3540 O   0  0  0  0  0  1  0  0  0  0  0  0
  186.9630  178.1410  143.4430 C   0  0  1  0  0  0  0  0  0  0  0  0
  190.2390  177.7010  137.0580 S   0  0  0  0  0  0  0  0  0  0  0  0
  190.1820  177.1810  145.5670 C   0  0  0  0  0  3  0  0  0  0  0  0
  191.5840  176.5140  143.5710 C   0  0  0  0  0  2  0  0  0  0  0  0
  184.4180  178.5570  143.1960 C   0  0  0  0  0  0  0  0  0  0  0  0
  187.6550  177.7820  145.9220 C   0  0  0  0  0  0  0  0  0  0  0  0
  191.0770  177.6580  144.4530 C   0  0  1  0  0  3  0  0  0  0  0  0
  190.3740  175.7600  141.6100 O   0  0  0  0  0  0  0  0  0  0  0  0
  183.6700  179.2330  142.2110 N   0  0  0  0  0  2  0  0  0  0  0  0
  189.6250  177.0380  139.5770 C   0  0  0  0  0  0  0  0  0  0  0  0
  189.5170  176.6660  140.9690 C   0  0  0  0  0  0  0  0  0  0  0  0
  184.3290  179.1880  140.9730 N   0  0  0  0  0  2  0  0  0  0  0  0
  187.9200  178.2970  140.4610 C   0  0  1  0  0  3  0  0  0  0  0  0
  188.9210  177.5100  145.7140 C   0  0  0  0  0  0  0  0  0  0  0  0
  188.2950  178.2640  148.2580 C   0  0  0  0  0  1  0  0  0  0  0  0
  187.1730  177.8330  147.3350 C   0  0  0  0  0  3  0  0  0  0  0  0
  186.0010  178.7880  147.4680 C   0  0  0  0  0  1  0  0  0  0  0  0
  2 24  2  0  0  0  0
  2 27  1  0  0  0  0
  4  2  1  0  0  0  0
  5  3  1  6  0  0  0
  5  9  1  0  0  0  0
  6  7  1  0  0  0  0
  7 15  1  0  0  0  0
  9 19  1  1  0  0  0
  9 15  1  0  0  0  0
 10  8  2  0  0  0  0
 10 24  1  0  0  0  0
 12 20  1  0  0  0  0
 13 18  1  0  0  0  0
 15 14  1  6  0  0  0
 15 12  1  0  0  0  0
 16  4  1  0  0  0  0
 16 10  1  0  0  0  0
 17 28  2  0  0  0  0
 18 21  1  0  0  0  0
 19 11  2  0  0  0  0
 20 30  1  0  0  0  0
 21  1  1  6  0  0  0
 21 17  1  0  0  0  0
 22 13  1  0  0  0  0
 23 19  1  0  0  0  0
 24 25  1  0  0  0  0
 25  6  2  0  0  0  0
 25 22  1  0  0  0  0
 26  5  1  0  0  0  0
 26 23  1  0  0  0  0
 27  3  1  6  0  0  0
 27  6  1  0  0  0  0
 28 20  2  0  0  0  0
 30 31  1  0  0  0  0
 30 29  1  0  0  0  0
M  END
>  <MODEL>
1

>  <REMARK>
 VINA RESULT:      -8.7      0.000      0.000
  Name = 
  1 active torsions:
  status: ('A' for Active; 'I' for Inactive)
    1  A    between atoms: C_21  and  C_30
                            x       y       z     vdW  Elec       q    Type
                         _______ _______ _______ _____ _____    ______ ____

>  <TORSDO>
F 1

$$$$
=
 OpenBabel10222420263D

 31 35  0  0  1  0  0  0  0  0999 V2000
  190.0590  175.8290  142.6000 C   0  0  0  0  0  1  0  0  0  0  0  0
  187.3890  177.6980  146.1340 C   0  0  0  0  0  0  0  0  0  0  0  0
  185.8400  178.6360  144.4220 C   0  0  0  0  0  2  0  0  0  0  0  0
  186.6720  177.1480  147.3220 C   0  0  0  0  0  2  0  0  0  0  0  0
  185.3380  178.3120  143.0320 C   0  0  2  0  0  3  0  0  0  0  0  0
  188.3120  178.2270  144.0800 C   0  0  0  0  0  0  0  0  0  0  0  0
  188.5400  178.5940  142.6350 C   0  0  0  0  0  2  0  0  0  0  0  0
  190.3380  177.9750  147.9650 O   0  0  0  0  0  0  0  0  0  0  0  0
  186.1790  178.9790  141.9430 C   0  0  1  0  0  3  0  0  0  0  0  0
  189.1360  177.8140  147.6300 C   0  0  0  0  0  0  0  0  0  0  0  0
  185.3510  179.3990  139.6900 O   0  0  0  0  0  0  0  0  0  0  0  0
  187.9310  178.5130  140.2760 N   0  0  0  0  0  2  0  0  0  0  0  0
  191.2840  178.6610  143.6240 C   0  0  0  0  0  2  0  0  0  0  0  0
  187.2310  176.8050  141.6920 O   0  0  0  0  0  1  0  0  0  0  0  0
  187.4640  178.1830  141.6230 C   0  0  1  0  0  0  0  0  0  0  0  0
  187.8530  177.2470  148.7420 S   0  0  0  0  0  0  0  0  0  0  0  0
  191.2860  177.3330  140.9380 C   0  0  0  0  0  3  0  0  0  0  0  0
  191.9580  177.3150  143.3760 C   0  0  0  0  0  2  0  0  0  0  0  0
  185.1490  179.0860  140.8920 C   0  0  0  0  0  0  0  0  0  0  0  0
  189.1260  178.0380  139.6300 C   0  0  0  0  0  0  0  0  0  0  0  0
  191.3510  176.5290  142.2110 C   0  0  1  0  0  3  0  0  0  0  0  0
  190.6050  178.6570  144.8750 O   0  0  0  0  0  0  0  0  0  0  0  0
  183.8600  178.9120  141.4380 N   0  0  0  0  0  2  0  0  0  0  0  0
  188.6350  178.0090  146.2970 C   0  0  0  0  0  0  0  0  0  0  0  0
  189.2530  178.3210  145.0300 C   0  0  0  0  0  0  0  0  0  0  0  0
  183.9360  178.6830  142.8200 N   0  0  0  0  0  2  0  0  0  0  0  0
  187.0190  177.7130  144.6910 C   0  0  1  0  0  3  0  0  0  0  0  0
  190.1830  177.6620  140.3090 C   0  0  0  0  0  0  0  0  0  0  0  0
  189.9740  176.9600  137.5770 C   0  0  0  0  0  1  0  0  0  0  0  0
  189.2550  178.1660  138.1480 C   0  0  0  0  0  3  0  0  0  0  0  0
  187.8900  178.3060  137.5000 C   0  0  0  0  0  1  0  0  0  0  0  0
  2 24  2  0  0  0  0
  2  4  1  0  0  0  0
  4 16  1  0  0  0  0
  5  3  1  1  0  0  0
  6 27  1  0  0  0  0
  6 25  2  0  0  0  0
  7  6  1  0  0  0  0
  9 19  1  6  0  0  0
  9  5  1  0  0  0  0
 10  8  2  0  0  0  0
 10 16  1  0  0  0  0
 11 19  2  0  0  0  0
 12 15  1  0  0  0  0
 13 22  1  0  0  0  0
 15 14  1  1  0  0  0
 15  9  1  0  0  0  0
 15  7  1  0  0  0  0
 17 21  1  0  0  0  0
 18 13  1  0  0  0  0
 19 23  1  0  0  0  0
 20 12  1  0  0  0  0
 20 28  2  0  0  0  0
 21  1  1  1  0  0  0
 21 18  1  0  0  0  0
 22 25  1  0  0  0  0
 23 26  1  0  0  0  0
 24 10  1  0  0  0  0
 25 24  1  0  0  0  0
 26  5  1  0  0  0  0
 27  3  1  1  0  0  0
 27  2  1  0  0  0  0
 28 17  2  0  0  0  0
 29 30  1  0  0  0  0
 30 20  1  0  0  0  0
 31 30  1  0  0  0  0
M  END
>  <MODEL>
2

>  <REMARK>
 VINA RESULT:      -8.3      2.882      5.975
  Name = 
  1 active torsions:
  status: ('A' for Active; 'I' for Inactive)
    1  A    between atoms: C_21  and  C_30
                            x       y       z     vdW  Elec       q    Type
                         _______ _______ _______ _____ _____    ______ ____

>  <TORSDO>
F 1

$$$$
=
 OpenBabel10222420263D

 31 35  0  0  1  0  0  0  0  0999 V2000
  185.4210  180.1950  144.8990 C   0  0  0  0  0  1  0  0  0  0  0  0
  189.4320  178.1070  143.2670 C   0  0  0  0  0  0  0  0  0  0  0  0
  188.3580  177.8700  141.0310 C   0  0  0  0  0  2  0  0  0  0  0  0
  190.8690  178.5010  143.1790 C   0  0  0  0  0  2  0  0  0  0  0  0
  187.3360  178.5800  140.1710 C   0  0  2  0  0  3  0  0  0  0  0  0
  187.1300  177.8870  143.2400 C   0  0  0  0  0  0  0  0  0  0  0  0
  185.6760  177.8150  142.8440 C   0  0  0  0  0  2  0  0  0  0  0  0
  189.8970  176.8990  146.4990 O   0  0  0  0  0  0  0  0  0  0  0  0
  185.9240  178.0290  140.3760 C   0  0  1  0  0  3  0  0  0  0  0  0
  190.0880  177.3460  145.3390 C   0  0  0  0  0  0  0  0  0  0  0  0
  184.1450  178.2770  138.7290 O   0  0  0  0  0  0  0  0  0  0  0  0
  183.7820  178.5260  141.4840 N   0  0  0  0  0  2  0  0  0  0  0  0
  185.4860  177.0310  145.6480 C   0  0  0  0  0  2  0  0  0  0  0  0
  185.5770  179.9760  141.7850 O   0  0  0  0  0  1  0  0  0  0  0  0
  185.2360  178.6290  141.6220 C   0  0  1  0  0  0  0  0  0  0  0  0
  191.6810  177.8760  144.7190 S   0  0  0  0  0  0  0  0  0  0  0  0
  183.2230  178.8980  145.0390 C   0  0  0  0  0  3  0  0  0  0  0  0
  185.1770  178.2530  146.5090 C   0  0  0  0  0  2  0  0  0  0  0  0
  185.3600  178.3480  139.0500 C   0  0  0  0  0  0  0  0  0  0  0  0
  182.7890  178.9060  142.4530 C   0  0  0  0  0  0  0  0  0  0  0  0
  184.4630  179.3740  145.7490 C   0  0  1  0  0  3  0  0  0  0  0  0
  186.8910  176.8820  145.4780 O   0  0  0  0  0  0  0  0  0  0  0  0
  186.3870  178.6280  138.1250 N   0  0  0  0  0  2  0  0  0  0  0  0
  189.0470  177.5460  144.3680 C   0  0  0  0  0  0  0  0  0  0  0  0
  187.6090  177.4150  144.3990 C   0  0  0  0  0  0  0  0  0  0  0  0
  187.6450  178.5270  138.7390 N   0  0  0  0  0  2  0  0  0  0  0  0
  188.2630  178.4800  142.4210 C   0  0  1  0  0  3  0  0  0  0  0  0
  183.0410  178.9240  143.7400 C   0  0  0  0  0  0  0  0  0  0  0  0
  181.1150  178.3190  140.7340 C   0  0  0  0  0  1  0  0  0  0  0  0
  181.3730  179.0890  142.0150 C   0  0  0  0  0  3  0  0  0  0  0  0
  180.4120  178.6280  143.0950 C   0  0  0  0  0  1  0  0  0  0  0  0
  2 24  2  0  0  0  0
  4  2  1  0  0  0  0
  4 16  1  0  0  0  0
  5  9  1  0  0  0  0
  5  3  1  1  0  0  0
  6 25  2  0  0  0  0
  7  6  1  0  0  0  0
  9 19  1  6  0  0  0
  9 15  1  0  0  0  0
 10  8  2  0  0  0  0
 11 19  2  0  0  0  0
 12 15  1  0  0  0  0
 12 20  1  0  0  0  0
 13 18  1  0  0  0  0
 15 14  1  1  0  0  0
 15  7  1  0  0  0  0
 16 10  1  0  0  0  0
 17 21  1  0  0  0  0
 20 28  2  0  0  0  0
 21  1  1  6  0  0  0
 21 18  1  0  0  0  0
 22 13  1  0  0  0  0
 23 26  1  0  0  0  0
 23 19  1  0  0  0  0
 24 25  1  0  0  0  0
 24 10  1  0  0  0  0
 25 22  1  0  0  0  0
 26  5  1  0  0  0  0
 27  3  1  6  0  0  0
 27  6  1  0  0  0  0
 27  2  1  0  0  0  0
 28 17  2  0  0  0  0
 29 30  1  0  0  0  0
 30 20  1  0  0  0  0
 30 31  1  0  0  0  0
M  END
>  <MODEL>
3

>  <REMARK>
 VINA RESULT:      -7.9      2.898      5.555
  Name = 
  1 active torsions:
  status: ('A' for Active; 'I' for Inactive)
    1  A    between atoms: C_21  and  C_30
                            x       y       z     vdW  Elec       q    Type
                         _______ _______ _______ _____ _____    ______ ____

>  <TORSDO>
F 1

$$$$
=
 OpenBabel10222420263D

 31 35  0  0  1  0  0  0  0  0999 V2000
  186.0900  176.3770  145.6290 C   0  0  0  0  0  1  0  0  0  0  0  0
  184.3150  178.3050  141.5980 C   0  0  0  0  0  0  0  0  0  0  0  0
  186.6220  178.3800  140.6590 C   0  0  0  0  0  2  0  0  0  0  0  0
  183.2940  177.8940  140.5900 C   0  0  0  0  0  2  0  0  0  0  0  0
  187.9230  177.6150  140.7560 C   0  0  2  0  0  3  0  0  0  0  0  0
  186.0460  178.5390  143.1150 C   0  0  0  0  0  0  0  0  0  0  0  0
  187.3900  178.5930  143.7970 C   0  0  0  0  0  2  0  0  0  0  0  0
  181.8550  179.7500  143.5930 O   0  0  0  0  0  0  0  0  0  0  0  0
  188.8550  178.1900  141.8240 C   0  0  1  0  0  3  0  0  0  0  0  0
  182.4740  179.2150  142.6370 C   0  0  0  0  0  0  0  0  0  0  0  0
  191.2650  177.8320  141.8230 O   0  0  0  0  0  0  0  0  0  0  0  0
  189.6720  177.7940  144.1130 N   0  0  0  0  0  2  0  0  0  0  0  0
  185.6840  179.5870  145.9440 C   0  0  0  0  0  2  0  0  0  0  0  0
  188.0770  176.3580  143.2150 O   0  0  0  0  0  1  0  0  0  0  0  0
  188.5000  177.6910  143.2420 C   0  0  1  0  0  0  0  0  0  0  0  0
  181.6880  178.6280  141.1400 S   0  0  0  0  0  0  0  0  0  0  0  0
  187.6810  177.6970  147.1320 C   0  0  0  0  0  3  0  0  0  0  0  0
  185.2780  178.4360  146.8610 C   0  0  0  0  0  2  0  0  0  0  0  0
  190.1480  177.7770  141.2460 C   0  0  0  0  0  0  0  0  0  0  0  0
  189.7380  177.4960  145.5190 C   0  0  0  0  0  0  0  0  0  0  0  0
  186.2650  177.2660  146.8490 C   0  0  1  0  0  3  0  0  0  0  0  0
  184.7650  179.7130  144.8640 O   0  0  0  0  0  0  0  0  0  0  0  0
  189.9970  177.4200  139.8900 N   0  0  0  0  0  2  0  0  0  0  0  0
  183.8860  178.9510  142.6350 C   0  0  0  0  0  0  0  0  0  0  0  0
  184.9340  179.0940  143.6170 C   0  0  0  0  0  0  0  0  0  0  0  0
  188.6590  177.5570  139.4890 N   0  0  0  0  0  2  0  0  0  0  0  0
  185.7310  177.8780  141.7850 C   0  0  1  0  0  3  0  0  0  0  0  0
  188.6870  177.5740  146.2990 C   0  0  0  0  0  0  0  0  0  0  0  0
  190.9020  176.7540  147.5670 C   0  0  0  0  0  1  0  0  0  0  0  0
  191.0720  177.2920  146.1600 C   0  0  0  0  0  3  0  0  0  0  0  0
  191.9200  176.3350  145.3430 C   0  0  0  0  0  1  0  0  0  0  0  0
  2 27  1  0  0  0  0
  2 24  2  0  0  0  0
  4 16  1  0  0  0  0
  4  2  1  0  0  0  0
  5  3  1  6  0  0  0
  5  9  1  0  0  0  0
  6 25  2  0  0  0  0
  6  7  1  0  0  0  0
  9 19  1  6  0  0  0
  9 15  1  0  0  0  0
 10  8  2  0  0  0  0
 12 20  1  0  0  0  0
 13 18  1  0  0  0  0
 15 14  1  6  0  0  0
 15  7  1  0  0  0  0
 15 12  1  0  0  0  0
 16 10  1  0  0  0  0
 19 11  2  0  0  0  0
 20 30  1  0  0  0  0
 20 28  2  0  0  0  0
 21  1  1  6  0  0  0
 21 18  1  0  0  0  0
 21 17  1  0  0  0  0
 22 13  1  0  0  0  0
 23 19  1  0  0  0  0
 24 10  1  0  0  0  0
 24 25  1  0  0  0  0
 25 22  1  0  0  0  0
 26 23  1  0  0  0  0
 26  5  1  0  0  0  0
 27  3  1  6  0  0  0
 27  6  1  0  0  0  0
 28 17  2  0  0  0  0
 30 29  1  0  0  0  0
 31 30  1  0  0  0  0
M  END
>  <MODEL>
4

>  <REMARK>
 VINA RESULT:      -7.3      2.820      5.645
  Name = 
  1 active torsions:
  status: ('A' for Active; 'I' for Inactive)
    1  A    between atoms: C_21  and  C_30
                            x       y       z     vdW  Elec       q    Type
                         _______ _______ _______ _____ _____    ______ ____

>  <TORSDO>
F 1

$$$$
=
 OpenBabel10222420263D

 31 35  0  0  1  0  0  0  0  0999 V2000
  186.2300  176.4840  145.1100 C   0  0  0  0  0  1  0  0  0  0  0  0
  183.8330  178.2130  141.3190 C   0  0  0  0  0  0  0  0  0  0  0  0
  185.9940  178.4420  140.0990 C   0  0  0  0  0  2  0  0  0  0  0  0
  182.7280  177.7130  140.4480 C   0  0  0  0  0  2  0  0  0  0  0  0
  187.3500  177.7750  140.0390 C   0  0  2  0  0  3  0  0  0  0  0  0
  185.7150  178.5970  142.6070 C   0  0  0  0  0  0  0  0  0  0  0  0
  187.1250  178.7590  143.1160 C   0  0  0  0  0  2  0  0  0  0  0  0
  181.5370  179.5070  143.5940 O   0  0  0  0  0  0  0  0  0  0  0  0
  188.3610  178.4340  140.9790 C   0  0  1  0  0  3  0  0  0  0  0  0
  182.0710  179.0030  142.5720 C   0  0  0  0  0  0  0  0  0  0  0  0
  190.7730  178.2530  140.6810 O   0  0  0  0  0  0  0  0  0  0  0  0
  189.4820  178.1350  143.1510 N   0  0  0  0  0  2  0  0  0  0  0  0
  185.6280  179.6610  145.4520 C   0  0  0  0  0  2  0  0  0  0  0  0
  187.9000  176.5720  142.4680 O   0  0  0  0  0  1  0  0  0  0  0  0
  188.2220  177.9330  142.4340 C   0  0  1  0  0  0  0  0  0  0  0  0
  181.1520  178.3360  141.1890 S   0  0  0  0  0  0  0  0  0  0  0  0
  187.8920  177.9400  146.3950 C   0  0  0  0  0  3  0  0  0  0  0  0
  185.4260  178.4980  146.4200 C   0  0  0  0  0  2  0  0  0  0  0  0
  189.6000  178.1070  140.2470 C   0  0  0  0  0  0  0  0  0  0  0  0
  189.7430  177.8650  144.5400 C   0  0  0  0  0  0  0  0  0  0  0  0
  186.4880  177.4030  146.2930 C   0  0  1  0  0  3  0  0  0  0  0  0
  184.5760  179.7020  144.4940 O   0  0  0  0  0  0  0  0  0  0  0  0
  189.3100  177.7180  138.9230 N   0  0  0  0  0  2  0  0  0  0  0  0
  183.4870  178.8420  142.3960 C   0  0  0  0  0  0  0  0  0  0  0  0
  184.6360  179.0770  143.2400 C   0  0  0  0  0  0  0  0  0  0  0  0
  187.9260  177.7510  138.6910 N   0  0  0  0  0  2  0  0  0  0  0  0
  185.2880  177.8940  141.3300 C   0  0  1  0  0  3  0  0  0  0  0  0
  188.7930  177.8780  145.4450 C   0  0  0  0  0  0  0  0  0  0  0  0
  191.6640  176.3470  144.8670 C   0  0  0  0  0  1  0  0  0  0  0  0
  191.1570  177.7680  145.0120 C   0  0  0  0  0  3  0  0  0  0  0  0
  192.0500  178.7150  144.2310 C   0  0  0  0  0  1  0  0  0  0  0  0
  2 27  1  0  0  0  0
  2 24  2  0  0  0  0
  4 16  1  0  0  0  0
  4  2  1  0  0  0  0
  5  3  1  6  0  0  0
  5  9  1  0  0  0  0
  6  7  1  0  0  0  0
  6 25  2  0  0  0  0
  9 19  1  6  0  0  0
  9 15  1  0  0  0  0
 10  8  2  0  0  0  0
 12 20  1  0  0  0  0
 13 18  1  0  0  0  0
 15 14  1  1  0  0  0
 15  7  1  0  0  0  0
 15 12  1  0  0  0  0
 16 10  1  0  0  0  0
 19 11  2  0  0  0  0
 20 30  1  0  0  0  0
 20 28  2  0  0  0  0
 21  1  1  6  0  0  0
 21 17  1  0  0  0  0
 21 18  1  0  0  0  0
 22 13  1  0  0  0  0
 23 19  1  0  0  0  0
 24 10  1  0  0  0  0
 24 25  1  0  0  0  0
 25 22  1  0  0  0  0
 26 23  1  0  0  0  0
 26  5  1  0  0  0  0
 27  3  1  6  0  0  0
 27  6  1  0  0  0  0
 28 17  2  0  0  0  0
 29 30  1  0  0  0  0
 31 30  1  0  0  0  0
M  END
>  <MODEL>
5

>  <REMARK>
 VINA RESULT:      -7.1      2.751      5.736
  Name = 
  1 active torsions:
  status: ('A' for Active; 'I' for Inactive)
    1  A    between atoms: C_21  and  C_30
                            x       y       z     vdW  Elec       q    Type
                         _______ _______ _______ _____ _____    ______ ____

>  <TORSDO>
F 1

$$$$
=
 OpenBabel10222420263D

 31 35  0  0  1  0  0  0  0  0999 V2000
  184.9580  179.7850  139.1890 C   0  0  0  0  0  1  0  0  0  0  0  0
  181.5530  179.0170  142.4950 C   0  0  0  0  0  0  0  0  0  0  0  0
  183.3360  178.5830  144.1810 C   0  0  0  0  0  2  0  0  0  0  0  0
  180.4170  179.8120  143.0470 C   0  0  0  0  0  2  0  0  0  0  0  0
  184.7570  179.0070  144.4800 C   0  0  2  0  0  3  0  0  0  0  0  0
  183.5430  178.1450  141.7000 C   0  0  0  0  0  0  0  0  0  0  0  0
  184.9670  177.6750  141.5350 C   0  0  0  0  0  2  0  0  0  0  0  0
  179.5540  177.8480  139.8950 O   0  0  0  0  0  0  0  0  0  0  0  0
  185.7870  178.0640  143.8540 C   0  0  1  0  0  3  0  0  0  0  0  0
  179.9590  178.3830  140.9590 C   0  0  0  0  0  0  0  0  0  0  0  0
  188.0760  177.8640  144.6640 O   0  0  0  0  0  0  0  0  0  0  0  0
  187.3580  177.8730  141.9680 N   0  0  0  0  0  2  0  0  0  0  0  0
  183.8220  176.7430  139.0190 C   0  0  0  0  0  2  0  0  0  0  0  0
  186.0110  179.7620  142.1330 O   0  0  0  0  0  1  0  0  0  0  0  0
  186.0450  178.3830  142.3650 C   0  0  1  0  0  0  0  0  0  0  0  0
  178.9310  179.3770  142.0350 S   0  0  0  0  0  0  0  0  0  0  0  0
  186.5240  177.9050  138.4480 C   0  0  0  0  0  3  0  0  0  0  0  0
  184.0530  177.7840  137.9260 C   0  0  0  0  0  2  0  0  0  0  0  0
  186.8920  178.2670  144.8100 C   0  0  0  0  0  0  0  0  0  0  0  0
  187.9420  177.9060  140.6530 C   0  0  0  0  0  0  0  0  0  0  0  0
  185.2630  178.6860  138.1840 C   0  0  1  0  0  3  0  0  0  0  0  0
  182.6120  177.0120  139.7180 O   0  0  0  0  0  0  0  0  0  0  0  0
  186.4240  178.8730  145.9930 N   0  0  0  0  0  2  0  0  0  0  0  0
  181.3150  178.3190  141.4310 C   0  0  0  0  0  0  0  0  0  0  0  0
  182.5400  177.7790  140.8900 C   0  0  0  0  0  0  0  0  0  0  0  0
  185.0430  179.1100  145.9140 N   0  0  0  0  0  2  0  0  0  0  0  0
  183.0150  179.0750  142.7780 C   0  0  1  0  0  3  0  0  0  0  0  0
  187.2100  177.9370  139.5650 C   0  0  0  0  0  0  0  0  0  0  0  0
  189.9600  176.9360  141.6950 C   0  0  0  0  0  1  0  0  0  0  0  0
  189.4120  177.6930  140.5010 C   0  0  0  0  0  3  0  0  0  0  0  0
  189.7160  176.9310  139.2250 C   0  0  0  0  0  1  0  0  0  0  0  0
  2 27  1  0  0  0  0
  2  4  1  0  0  0  0
  5  3  1  1  0  0  0
  5 26  1  0  0  0  0
  6 27  1  0  0  0  0
  7  6  1  0  0  0  0
  7 15  1  0  0  0  0
  8 10  2  0  0  0  0
  9  5  1  0  0  0  0
  9 19  1  1  0  0  0
 10 24  1  0  0  0  0
 10 16  1  0  0  0  0
 11 19  2  0  0  0  0
 12 15  1  0  0  0  0
 13 22  1  0  0  0  0
 15 14  1  6  0  0  0
 15  9  1  0  0  0  0
 16  4  1  0  0  0  0
 17 28  2  0  0  0  0
 18 21  1  0  0  0  0
 18 13  1  0  0  0  0
 19 23  1  0  0  0  0
 20 12  1  0  0  0  0
 21 17  1  0  0  0  0
 21  1  1  1  0  0  0
 22 25  1  0  0  0  0
 24  2  2  0  0  0  0
 25 24  1  0  0  0  0
 25  6  2  0  0  0  0
 26 23  1  0  0  0  0
 27  3  1  1  0  0  0
 28 20  2  0  0  0  0
 30 20  1  0  0  0  0
 30 29  1  0  0  0  0
 31 30  1  0  0  0  0
M  END
>  <MODEL>
6

>  <REMARK>
 VINA RESULT:      -6.8      3.476      7.105
  Name = 
  1 active torsions:
  status: ('A' for Active; 'I' for Inactive)
    1  A    between atoms: C_21  and  C_30
                            x       y       z     vdW  Elec       q    Type
                         _______ _______ _______ _____ _____    ______ ____

>  <TORSDO>
F 1

$$$$
=
 OpenBabel10222420263D

 31 35  0  0  1  0  0  0  0  0999 V2000
  185.9630  176.6940  143.9360 C   0  0  0  0  0  1  0  0  0  0  0  0
  185.8980  178.2390  139.3840 C   0  0  0  0  0  0  0  0  0  0  0  0
  188.3870  178.1460  139.3530 C   0  0  0  0  0  2  0  0  0  0  0  0
  185.2850  177.7550  138.1120 C   0  0  0  0  0  2  0  0  0  0  0  0
  189.5120  177.3570  139.9870 C   0  0  2  0  0  3  0  0  0  0  0  0
  186.9740  178.5800  141.4030 C   0  0  0  0  0  0  0  0  0  0  0  0
  187.9800  178.6650  142.5230 C   0  0  0  0  0  2  0  0  0  0  0  0
  182.9840  179.9590  140.2050 O   0  0  0  0  0  0  0  0  0  0  0  0
  190.0300  178.0130  141.2680 C   0  0  1  0  0  3  0  0  0  0  0  0
  183.8690  179.3080  139.5920 C   0  0  0  0  0  0  0  0  0  0  0  0
  192.2480  177.5860  142.1810 O   0  0  0  0  0  0  0  0  0  0  0  0
  189.9360  177.8370  143.7220 N   0  0  0  0  0  2  0  0  0  0  0  0
  185.6830  179.9310  143.8000 C   0  0  0  0  0  2  0  0  0  0  0  0
  188.6820  176.3620  142.4310 O   0  0  0  0  0  1  0  0  0  0  0  0
  189.1540  177.6780  142.4950 C   0  0  1  0  0  0  0  0  0  0  0  0
  183.6420  178.5900  137.9690 S   0  0  0  0  0  0  0  0  0  0  0  0
  186.9860  178.1170  145.7970 C   0  0  0  0  0  3  0  0  0  0  0  0
  184.8980  178.8950  144.6010 C   0  0  0  0  0  2  0  0  0  0  0  0
  191.4140  177.5030  141.2420 C   0  0  0  0  0  0  0  0  0  0  0  0
  189.4690  177.6870  145.0750 C   0  0  0  0  0  0  0  0  0  0  0  0
  185.7430  177.7010  145.0540 C   0  0  1  0  0  3  0  0  0  0  0  0
  185.2280  179.9690  142.4520 O   0  0  0  0  0  0  0  0  0  0  0  0
  191.7400  177.0100  139.9620 N   0  0  0  0  0  2  0  0  0  0  0  0
  185.1660  179.0030  140.1310 C   0  0  0  0  0  0  0  0  0  0  0  0
  185.7950  179.2170  141.4130 C   0  0  0  0  0  0  0  0  0  0  0  0
  190.6500  177.1440  139.0880 N   0  0  0  0  0  2  0  0  0  0  0  0
  187.1180  177.7920  140.1130 C   0  0  1  0  0  3  0  0  0  0  0  0
  188.2140  177.8780  145.4050 C   0  0  0  0  0  0  0  0  0  0  0  0
  189.8330  176.7750  147.3410 C   0  0  0  0  0  1  0  0  0  0  0  0
  190.4630  177.5110  146.1750 C   0  0  0  0  0  3  0  0  0  0  0  0
  191.6800  176.7500  145.6830 C   0  0  0  0  0  1  0  0  0  0  0  0
  2 27  1  0  0  0  0
  2 24  2  0  0  0  0
  4  2  1  0  0  0  0
  5  3  1  6  0  0  0
  5  9  1  0  0  0  0
  6 25  2  0  0  0  0
  6  7  1  0  0  0  0
  9 19  1  1  0  0  0
  9 15  1  0  0  0  0
 10 24  1  0  0  0  0
 10  8  2  0  0  0  0
 12 20  1  0  0  0  0
 13 18  1  0  0  0  0
 15 14  1  6  0  0  0
 15  7  1  0  0  0  0
 15 12  1  0  0  0  0
 16  4  1  0  0  0  0
 16 10  1  0  0  0  0
 18 21  1  0  0  0  0
 19 11  2  0  0  0  0
 20 28  2  0  0  0  0
 20 30  1  0  0  0  0
 21  1  1  6  0  0  0
 21 17  1  0  0  0  0
 22 13  1  0  0  0  0
 23 19  1  0  0  0  0
 24 25  1  0  0  0  0
 25 22  1  0  0  0  0
 26 23  1  0  0  0  0
 26  5  1  0  0  0  0
 27  3  1  6  0  0  0
 27  6  1  0  0  0  0
 28 17  2  0  0  0  0
 30 29  1  0  0  0  0
 31 30  1  0  0  0  0
M  END
>  <MODEL>
7

>  <REMARK>
 VINA RESULT:      -6.7      2.801      5.244
  Name = 
  1 active torsions:
  status: ('A' for Active; 'I' for Inactive)
    1  A    between atoms: C_21  and  C_30
                            x       y       z     vdW  Elec       q    Type
                         _______ _______ _______ _____ _____    ______ ____

>  <TORSDO>
F 1

$$$$
=
 OpenBabel10222420263D

 31 35  0  0  1  0  0  0  0  0999 V2000
  183.7610  176.1270  138.7410 C   0  0  0  0  0  1  0  0  0  0  0  0
  185.3810  178.1550  142.7870 C   0  0  0  0  0  0  0  0  0  0  0  0
  183.1500  179.2160  143.1090 C   0  0  0  0  0  2  0  0  0  0  0  0
  185.9690  177.6480  144.0620 C   0  0  0  0  0  2  0  0  0  0  0  0
  181.6950  178.9410  142.7970 C   0  0  2  0  0  3  0  0  0  0  0  0
  184.1750  178.6330  140.8720 C   0  0  0  0  0  0  0  0  0  0  0  0
  183.0990  178.9940  139.8790 C   0  0  0  0  0  2  0  0  0  0  0  0
  188.5220  178.2030  141.2860 O   0  0  0  0  0  0  0  0  0  0  0  0
  181.2620  179.5550  141.4640 C   0  0  1  0  0  3  0  0  0  0  0  0
  187.5850  178.1320  142.1230 C   0  0  0  0  0  0  0  0  0  0  0  0
  178.9400  180.0520  140.9180 O   0  0  0  0  0  0  0  0  0  0  0  0
  180.7820  178.9770  139.1190 N   0  0  0  0  0  2  0  0  0  0  0  0
  185.4120  178.8560  138.1060 C   0  0  0  0  0  2  0  0  0  0  0  0
  181.5180  177.3120  140.5690 O   0  0  0  0  0  1  0  0  0  0  0  0
  181.6490  178.6700  140.2580 C   0  0  1  0  0  0  0  0  0  0  0  0
  187.8040  177.6510  143.8320 S   0  0  0  0  0  0  0  0  0  0  0  0
  183.0930  177.5530  136.7280 C   0  0  0  0  0  3  0  0  0  0  0  0
  185.5050  177.4660  137.4820 C   0  0  0  0  0  2  0  0  0  0  0  0
  179.8280  179.7440  141.7560 C   0  0  0  0  0  0  0  0  0  0  0  0
  180.8610  178.4230  137.7940 C   0  0  0  0  0  0  0  0  0  0  0  0
  184.1610  176.7360  137.4060 C   0  0  1  0  0  3  0  0  0  0  0  0
  186.0980  178.8900  139.3530 O   0  0  0  0  0  0  0  0  0  0  0  0
  179.5850  179.6590  143.1420 N   0  0  0  0  0  2  0  0  0  0  0  0
  186.2030  178.3740  141.8120 C   0  0  0  0  0  0  0  0  0  0  0  0
  185.4840  178.6510  140.5910 C   0  0  0  0  0  0  0  0  0  0  0  0
  180.7780  179.4140  143.8380 N   0  0  0  0  0  2  0  0  0  0  0  0
  183.9690  178.2090  142.3160 C   0  0  1  0  0  3  0  0  0  0  0  0
  181.9840  177.9650  137.2940 C   0  0  0  0  0  0  0  0  0  0  0  0
  180.0130  179.5060  135.7430 C   0  0  0  0  0  1  0  0  0  0  0  0
  179.6890  178.5530  136.8770 C   0  0  0  0  0  3  0  0  0  0  0  0
  179.2930  177.2000  136.3150 C   0  0  0  0  0  1  0  0  0  0  0  0
  2  4  1  0  0  0  0
  5  3  1  1  0  0  0
  5 26  1  0  0  0  0
  6 27  1  0  0  0  0
  7 15  1  0  0  0  0
  7  6  1  0  0  0  0
  8 10  2  0  0  0  0
  9 19  1  1  0  0  0
  9  5  1  0  0  0  0
 10 16  1  0  0  0  0
 11 19  2  0  0  0  0
 12 15  1  0  0  0  0
 13 22  1  0  0  0  0
 15 14  1  1  0  0  0
 15  9  1  0  0  0  0
 16  4  1  0  0  0  0
 17 28  2  0  0  0  0
 17 21  1  0  0  0  0
 18 13  1  0  0  0  0
 19 23  1  0  0  0  0
 20 12  1  0  0  0  0
 21 18  1  0  0  0  0
 21  1  1  1  0  0  0
 22 25  1  0  0  0  0
 23 26  1  0  0  0  0
 24 10  1  0  0  0  0
 24  2  2  0  0  0  0
 25  6  2  0  0  0  0
 25 24  1  0  0  0  0
 27  2  1  0  0  0  0
 27  3  1  1  0  0  0
 28 20  2  0  0  0  0
 29 30  1  0  0  0  0
 30 20  1  0  0  0  0
 31 30  1  0  0  0  0
M  END
>  <MODEL>
8

>  <REMARK>
 VINA RESULT:      -6.4      4.337      7.769
  Name = 
  1 active torsions:
  status: ('A' for Active; 'I' for Inactive)
    1  A    between atoms: C_21  and  C_30
                            x       y       z     vdW  Elec       q    Type
                         _______ _______ _______ _____ _____    ______ ____

>  <TORSDO>
F 1

$$$$
=
 OpenBabel10222420263D

 31 35  0  0  1  0  0  0  0  0999 V2000
  186.0560  180.2510  144.0990 C   0  0  0  0  0  1  0  0  0  0  0  0
  189.8660  177.4820  145.0620 C   0  0  0  0  0  0  0  0  0  0  0  0
  190.1050  177.0220  142.6250 C   0  0  0  0  0  2  0  0  0  0  0  0
  191.1790  177.6890  145.7420 C   0  0  0  0  0  2  0  0  0  0  0  0
  189.8370  177.7010  141.3000 C   0  0  2  0  0  3  0  0  0  0  0  0
  187.9260  177.5290  143.8030 C   0  0  0  0  0  0  0  0  0  0  0  0
  186.9130  177.5630  142.6870 C   0  0  0  0  0  2  0  0  0  0  0  0
  188.3360  176.7530  148.1030 O   0  0  0  0  0  0  0  0  0  0  0  0
  188.4540  177.3560  140.7420 C   0  0  1  0  0  3  0  0  0  0  0  0
  189.1850  176.9870  147.2050 C   0  0  0  0  0  0  0  0  0  0  0  0
  187.8860  177.5450  138.3800 O   0  0  0  0  0  0  0  0  0  0  0  0
  186.1830  178.2660  140.4690 N   0  0  0  0  0  2  0  0  0  0  0  0
  185.1390  177.2580  144.9830 C   0  0  0  0  0  2  0  0  0  0  0  0
  187.7810  179.5280  141.5950 O   0  0  0  0  0  1  0  0  0  0  0  0
  187.3370  178.2200  141.3680 C   0  0  1  0  0  0  0  0  0  0  0  0
  190.9310  177.2250  147.5150 S   0  0  0  0  0  0  0  0  0  0  0  0
  183.9190  179.2550  143.1120 C   0  0  0  0  0  3  0  0  0  0  0  0
  184.6530  178.6280  145.4490 C   0  0  0  0  0  2  0  0  0  0  0  0
  188.7400  177.5250  139.3040 C   0  0  0  0  0  0  0  0  0  0  0  0
  184.9170  178.9060  140.7130 C   0  0  0  0  0  0  0  0  0  0  0  0
  184.6640  179.6910  144.3470 C   0  0  1  0  0  3  0  0  0  0  0  0
  186.3690  176.9230  145.6150 O   0  0  0  0  0  0  0  0  0  0  0  0
  190.1310  177.5350  139.0700 N   0  0  0  0  0  2  0  0  0  0  0  0
  188.8660  177.1500  145.8130 C   0  0  0  0  0  0  0  0  0  0  0  0
  187.6310  177.1930  145.0660 C   0  0  0  0  0  0  0  0  0  0  0  0
  190.8360  177.3870  140.2740 N   0  0  0  0  0  2  0  0  0  0  0  0
  189.4070  177.8500  143.6930 C   0  0  1  0  0  3  0  0  0  0  0  0
  184.4540  179.0970  141.9250 C   0  0  0  0  0  0  0  0  0  0  0  0
  184.4450  178.3950  138.3430 C   0  0  0  0  0  1  0  0  0  0  0  0
  184.0040  179.1800  139.5630 C   0  0  0  0  0  3  0  0  0  0  0  0
  182.5730  178.8200  139.9170 C   0  0  0  0  0  1  0  0  0  0  0  0
  2  4  1  0  0  0  0
  2 24  2  0  0  0  0
  4 16  1  0  0  0  0
  5  3  1  1  0  0  0
  6 25  2  0  0  0  0
  7  6  1  0  0  0  0
  9 19  1  6  0  0  0
  9  5  1  0  0  0  0
  9 15  1  0  0  0  0
 10 16  1  0  0  0  0
 10  8  2  0  0  0  0
 11 19  2  0  0  0  0
 12 20  1  0  0  0  0
 12 15  1  0  0  0  0
 13 18  1  0  0  0  0
 13 22  1  0  0  0  0
 15 14  1  1  0  0  0
 15  7  1  0  0  0  0
 17 21  1  0  0  0  0
 20 28  2  0  0  0  0
 21  1  1  6  0  0  0
 21 18  1  0  0  0  0
 23 19  1  0  0  0  0
 23 26  1  0  0  0  0
 24 10  1  0  0  0  0
 25 22  1  0  0  0  0
 25 24  1  0  0  0  0
 26  5  1  0  0  0  0
 27  3  1  6  0  0  0
 27  6  1  0  0  0  0
 27  2  1  0  0  0  0
 28 17  2  0  0  0  0
 29 30  1  0  0  0  0
 30 31  1  0  0  0  0
 30 20  1  0  0  0  0
M  END
>  <MODEL>
9

>  <REMARK>
 VINA RESULT:      -6.4      3.188      6.482
  Name = 
  1 active torsions:
  status: ('A' for Active; 'I' for Inactive)
    1  A    between atoms: C_21  and  C_30
                            x       y       z     vdW  Elec       q    Type
                         _______ _______ _______ _____ _____    ______ ____

>  <TORSDO>
F 1

$$$$
