=
 OpenBabel10222418103D

 45 50  0  0  1  0  0  0  0  0999 V2000
  180.1730  176.8480  138.0860 C   0  0  0  0  0  3  0  0  0  0  0  0
  180.2460  177.5050  140.3920 C   0  0  0  0  0  0  0  0  0  0  0  0
  181.0620  178.5550  140.0760 C   0  0  0  0  0  0  0  0  0  0  0  0
  181.4920  178.7930  138.7630 C   0  0  0  0  0  0  0  0  0  0  0  0
  184.1540  178.5380  144.8500 C   0  0  1  0  0  3  0  0  0  0  0  0
  180.9520  178.8210  143.6080 C   0  0  0  0  0  2  0  0  0  0  0  0
  179.7680  176.6170  139.4130 C   0  0  0  0  0  0  0  0  0  0  0  0
  182.6640  178.7910  145.0160 C   0  0  0  0  0  2  0  0  0  0  0  0
  182.4480  179.8950  138.3950 C   0  0  2  0  0  3  0  0  0  0  0  0
  184.2180  178.6800  139.9120 C   0  0  1  0  0  3  0  0  0  0  0  0
  180.0530  177.4620  141.7210 N   0  0  0  0  0  0  0  0  0  0  0  0
  181.4130  179.2170  141.1890 N   0  0  0  0  0  2  0  0  0  0  0  0
  181.9490  177.9910  144.1230 O   0  0  0  0  0  0  0  0  0  0  0  0
  184.7360  179.3880  141.1650 C   0  0  2  0  0  3  0  0  0  0  0  0
  184.6900  179.3190  143.6600 C   0  0  0  0  0  2  0  0  0  0  0  0
  181.0290  177.9210  137.7640 C   0  0  0  0  0  3  0  0  0  0  0  0
  184.7780  180.2460  138.2320 O   0  0  0  0  0  0  0  0  0  0  0  0
  186.0930  179.7080  141.0490 O   0  0  0  0  0  1  0  0  0  0  0  0
  184.4940  178.5170  142.3850 C   0  0  0  0  0  2  0  0  0  0  0  0
  180.7700  178.5240  142.1610 C   0  0  0  0  0  0  0  0  0  0  0  0
  183.8820  179.6400  138.8010 C   0  0  0  0  0  0  0  0  0  0  0  0
  184.6200  177.0070  138.2170 O   0  0  0  0  0  1  0  0  0  0  0  0
  185.0510  177.4830  139.4560 C   0  0  0  0  0  2  0  0  0  0  0  0
  178.9310  175.5260  139.6840 O   0  0  0  0  0  0  0  0  0  0  0  0
  179.3280  174.1700  139.5530 C   0  0  0  0  0  1  0  0  0  0  0  0
  184.8840  178.9640  146.1180 C   0  0  0  0  0  2  0  0  0  0  0  0
  186.2860  178.5640  146.0490 N   0  0  0  0  0  0  0  0  0  0  0  0
  186.8470  178.5700  147.3940 C   0  0  0  0  0  1  0  0  0  0  0  0
  186.4270  177.2510  145.3910 C   0  0  0  0  0  2  0  0  0  0  0  0
  187.6690  176.7320  143.2110 C   0  0  0  0  0  2  0  0  0  0  0  0
  188.8870  177.9300  144.9560 C   0  0  0  0  0  2  0  0  0  0  0  0
  188.9400  177.3170  142.6130 C   0  0  0  0  0  2  0  0  0  0  0  0
  189.8150  177.7640  143.7720 C   0  0  0  0  0  2  0  0  0  0  0  0
  187.7760  176.9310  144.7120 C   0  0  0  0  0  3  0  0  0  0  0  0
  181.9500  181.2620  138.8570 C   0  0  0  0  0  2  0  0  0  0  0  0
  179.6280  184.3790  134.6990 C   0  0  0  0  0  2  0  0  0  0  0  0
  179.5880  185.6090  135.3980 O   0  0  0  0  0  0  0  0  0  0  0  0
  179.8910  183.8360  136.9020 C   0  0  2  0  0  3  0  0  0  0  0  0
  180.8260  181.1420  136.5130 C   0  0  0  0  0  2  0  0  0  0  0  0
  178.9370  185.9800  137.6790 C   0  0  0  0  0  1  0  0  0  0  0  0
  181.1180  181.9150  137.8000 C   0  0  0  0  0  0  0  0  0  0  0  0
  180.3620  183.4040  135.5750 C   0  0  1  0  0  3  0  0  0  0  0  0
  179.9360  185.3270  136.7430 C   0  0  2  0  0  3  0  0  0  0  0  0
  180.7520  183.2080  137.9520 C   0  0  0  0  0  3  0  0  0  0  0  0
  180.0230  181.9300  135.4470 C   0  0  0  0  0  2  0  0  0  0  0  0
  1  7  1  0  0  0  0
  2 11  1  0  0  0  0
  3  2  1  0  0  0  0
  3 12  1  0  0  0  0
  4  3  2  0  0  0  0
  5  8  1  0  0  0  0
  5 26  1  1  0  0  0
  6 13  1  0  0  0  0
  7 24  1  0  0  0  0
  7  2  2  0  0  0  0
  9  4  1  0  0  0  0
  9 21  1  0  0  0  0
  9 35  1  1  0  0  0
 10 23  1  6  0  0  0
 10 14  1  0  0  0  0
 11 20  2  0  0  0  0
 12 20  1  0  0  0  0
 13  8  1  0  0  0  0
 14 18  1  6  0  0  0
 14 19  1  0  0  0  0
 15  5  1  0  0  0  0
 16  1  2  0  0  0  0
 16  4  1  0  0  0  0
 17 21  2  0  0  0  0
 19 15  1  0  0  0  0
 20  6  1  0  0  0  0
 21 10  1  0  0  0  0
 22 23  1  0  0  0  0
 25 24  1  0  0  0  0
 27 26  1  0  0  0  0
 27 28  1  0  0  0  0
 29 27  1  0  0  0  0
 30 34  1  0  0  0  0
 32 30  1  0  0  0  0
 32 33  1  0  0  0  0
 33 31  1  0  0  0  0
 34 31  1  0  0  0  0
 34 29  1  0  0  0  0
 36 37  1  0  0  0  0
 37 43  1  0  0  0  0
 38 44  1  1  0  0  0
 39 41  1  0  0  0  0
 41 44  2  0  0  0  0
 41 35  1  0  0  0  0
 42 36  1  6  0  0  0
 42 38  1  0  0  0  0
 43 38  1  0  0  0  0
 43 40  1  1  0  0  0
 45 42  1  0  0  0  0
 45 39  1  0  0  0  0
M  END
>  <MODEL>
1

>  <REMARK>
 VINA RESULT:      -7.1      0.000      0.000
  Name = 
  8 active torsions:
  status: ('A' for Active; 'I' for Inactive)
    1  A    between atoms: C_7  and  C_11
    2  A    between atoms: C_7  and  N_18
    3  A    between atoms: C_13  and  O_34
    4  A    between atoms: N_18  and  C_22
    5  A    between atoms: C_21  and  C_44
    6  A    between atoms: C_22  and  C_26
    7  A    between atoms: C_23  and  C_44
    8  A    between atoms: C_24  and  C_42
                            x       y       z     vdW  Elec       q    Type
                         _______ _______ _______ _____ _____    ______ ____

>  <TORSDO>
F 8

$$$$
=
 OpenBabel10222418103D

 45 50  0  0  1  0  0  0  0  0999 V2000
  183.3410  178.3860  143.0690 C   0  0  0  0  0  3  0  0  0  0  0  0
  185.3920  178.4920  141.8290 C   0  0  0  0  0  0  0  0  0  0  0  0
  184.6970  178.7700  140.6860 C   0  0  0  0  0  0  0  0  0  0  0  0
  183.2980  178.8490  140.6670 C   0  0  0  0  0  0  0  0  0  0  0  0
  188.1240  176.0310  137.0650 C   0  0  1  0  0  3  0  0  0  0  0  0
  188.0020  178.5360  139.4290 C   0  0  0  0  0  2  0  0  0  0  0  0
  184.7440  178.2950  143.0610 C   0  0  0  0  0  0  0  0  0  0  0  0
  188.7470  177.1800  137.8420 C   0  0  0  0  0  2  0  0  0  0  0  0
  182.5000  179.0800  139.4120 C   0  0  2  0  0  3  0  0  0  0  0  0
  183.4710  176.7980  138.5390 C   0  0  1  0  0  3  0  0  0  0  0  0
  186.7030  178.3990  141.5530 N   0  0  0  0  0  0  0  0  0  0  0  0
  185.5400  178.8670  139.6460 N   0  0  0  0  0  2  0  0  0  0  0  0
  188.2490  177.1910  139.1460 O   0  0  0  0  0  0  0  0  0  0  0  0
  184.3820  176.7980  137.3110 C   0  0  2  0  0  3  0  0  0  0  0  0
  186.7370  176.4210  136.5730 C   0  0  0  0  0  2  0  0  0  0  0  0
  182.6240  178.6550  141.8850 C   0  0  0  0  0  3  0  0  0  0  0  0
  181.5250  177.8200  137.6690 O   0  0  0  0  0  0  0  0  0  0  0  0
  183.7810  176.1520  136.2260 O   0  0  0  0  0  1  0  0  0  0  0  0
  185.7080  176.1420  137.6550 C   0  0  0  0  0  2  0  0  0  0  0  0
  186.7470  178.6430  140.2210 C   0  0  0  0  0  0  0  0  0  0  0  0
  182.4300  177.8860  138.4880 C   0  0  0  0  0  0  0  0  0  0  0  0
  181.8750  175.5510  139.8560 O   0  0  0  0  0  1  0  0  0  0  0  0
  182.9090  175.4310  138.9260 C   0  0  0  0  0  2  0  0  0  0  0  0
  185.4100  178.0070  144.2600 O   0  0  0  0  0  0  0  0  0  0  0  0
  185.1790  178.6930  145.4800 C   0  0  0  0  0  1  0  0  0  0  0  0
  189.0120  175.6810  135.8770 C   0  0  0  0  0  2  0  0  0  0  0  0
  190.2600  175.0820  136.3410 N   0  0  0  0  0  0  0  0  0  0  0  0
  190.0400  173.6650  136.5930 C   0  0  0  0  0  1  0  0  0  0  0  0
  191.3470  175.3150  135.3710 C   0  0  0  0  0  2  0  0  0  0  0  0
  192.7840  176.0980  137.3430 C   0  0  0  0  0  2  0  0  0  0  0  0
  193.6870  174.3440  135.9030 C   0  0  0  0  0  2  0  0  0  0  0  0
  193.9770  175.4560  138.0350 C   0  0  0  0  0  2  0  0  0  0  0  0
  194.6980  174.6150  136.9960 C   0  0  0  0  0  2  0  0  0  0  0  0
  192.7680  175.5470  135.9290 C   0  0  0  0  0  3  0  0  0  0  0  0
  182.9340  180.3500  138.6850 C   0  0  0  0  0  2  0  0  0  0  0  0
  178.9310  183.5170  136.1690 C   0  0  0  0  0  2  0  0  0  0  0  0
  179.7100  184.6860  135.9940 O   0  0  0  0  0  0  0  0  0  0  0  0
  180.7190  183.2700  137.5670 C   0  0  2  0  0  3  0  0  0  0  0  0
  180.4060  180.4570  138.0830 C   0  0  0  0  0  2  0  0  0  0  0  0
  181.2200  185.6910  137.5660 C   0  0  0  0  0  1  0  0  0  0  0  0
  181.7500  181.1620  138.2690 C   0  0  0  0  0  0  0  0  0  0  0  0
  179.8510  182.4550  136.7010 C   0  0  1  0  0  3  0  0  0  0  0  0
  180.9200  184.4810  136.7040 C   0  0  2  0  0  3  0  0  0  0  0  0
  181.9210  182.4640  137.9480 C   0  0  0  0  0  3  0  0  0  0  0  0
  179.2580  181.3660  137.5750 C   0  0  0  0  0  2  0  0  0  0  0  0
  2  7  2  0  0  0  0
  3  2  1  0  0  0  0
  4  3  2  0  0  0  0
  4 16  1  0  0  0  0
  5 26  1  6  0  0  0
  5  8  1  0  0  0  0
  6 20  1  0  0  0  0
  7  1  1  0  0  0  0
  7 24  1  0  0  0  0
  8 13  1  0  0  0  0
  9 35  1  6  0  0  0
  9  4  1  0  0  0  0
 10 23  1  6  0  0  0
 11  2  1  0  0  0  0
 12 20  1  0  0  0  0
 12  3  1  0  0  0  0
 13  6  1  0  0  0  0
 14 18  1  6  0  0  0
 14 19  1  0  0  0  0
 14 10  1  0  0  0  0
 15  5  1  0  0  0  0
 15 19  1  0  0  0  0
 16  1  2  0  0  0  0
 17 21  2  0  0  0  0
 20 11  2  0  0  0  0
 21 10  1  0  0  0  0
 21  9  1  0  0  0  0
 23 22  1  0  0  0  0
 24 25  1  0  0  0  0
 26 27  1  0  0  0  0
 27 28  1  0  0  0  0
 29 34  1  0  0  0  0
 29 27  1  0  0  0  0
 30 32  1  0  0  0  0
 31 34  1  0  0  0  0
 31 33  1  0  0  0  0
 33 32  1  0  0  0  0
 34 30  1  0  0  0  0
 37 36  1  0  0  0  0
 37 43  1  0  0  0  0
 38 44  1  6  0  0  0
 39 41  1  0  0  0  0
 41 35  1  0  0  0  0
 42 36  1  1  0  0  0
 42 38  1  0  0  0  0
 42 45  1  0  0  0  0
 43 40  1  1  0  0  0
 43 38  1  0  0  0  0
 44 41  2  0  0  0  0
 45 39  1  0  0  0  0
M  END
>  <MODEL>
2

>  <REMARK>
 VINA RESULT:      -6.3      4.134      6.496
  Name = 
  8 active torsions:
  status: ('A' for Active; 'I' for Inactive)
    1  A    between atoms: C_7  and  C_11
    2  A    between atoms: C_7  and  N_18
    3  A    between atoms: C_13  and  O_34
    4  A    between atoms: N_18  and  C_22
    5  A    between atoms: C_21  and  C_44
    6  A    between atoms: C_22  and  C_26
    7  A    between atoms: C_23  and  C_44
    8  A    between atoms: C_24  and  C_42
                            x       y       z     vdW  Elec       q    Type
                         _______ _______ _______ _____ _____    ______ ____

>  <TORSDO>
F 8

$$$$
=
 OpenBabel10222418103D

 45 50  0  0  1  0  0  0  0  0999 V2000
  179.7000  178.5950  136.3650 C   0  0  0  0  0  3  0  0  0  0  0  0
  182.0030  178.3190  136.9780 C   0  0  0  0  0  0  0  0  0  0  0  0
  181.6360  177.5430  138.0400 C   0  0  0  0  0  0  0  0  0  0  0  0
  180.2930  177.2710  138.3340 C   0  0  0  0  0  0  0  0  0  0  0  0
  185.7610  179.1820  141.5970 C   0  0  1  0  0  3  0  0  0  0  0  0
  185.1410  177.7460  138.5270 C   0  0  0  0  0  2  0  0  0  0  0  0
  181.0530  178.8700  136.0990 C   0  0  0  0  0  0  0  0  0  0  0  0
  186.2120  178.5030  140.3130 C   0  0  0  0  0  2  0  0  0  0  0  0
  179.8540  176.4820  139.5380 C   0  0  2  0  0  3  0  0  0  0  0  0
  180.9220  178.3860  141.0040 C   0  0  1  0  0  3  0  0  0  0  0  0
  183.3360  178.4830  136.9720 N   0  0  0  0  0  0  0  0  0  0  0  0
  182.7210  177.1840  138.7450 N   0  0  0  0  0  2  0  0  0  0  0  0
  185.3960  178.9090  139.2560 O   0  0  0  0  0  0  0  0  0  0  0  0
  182.1170  178.0550  141.8990 C   0  0  2  0  0  3  0  0  0  0  0  0
  184.5650  178.4510  142.1870 C   0  0  0  0  0  2  0  0  0  0  0  0
  179.3220  177.8090  137.4730 C   0  0  0  0  0  3  0  0  0  0  0  0
  179.3070  176.8570  141.8060 O   0  0  0  0  0  0  0  0  0  0  0  0
  181.7880  178.1620  143.2540 O   0  0  0  0  0  1  0  0  0  0  0  0
  183.2820  178.9680  141.5580 C   0  0  0  0  0  2  0  0  0  0  0  0
  183.7300  177.7690  138.0540 C   0  0  0  0  0  0  0  0  0  0  0  0
  179.9740  177.2250  140.8500 C   0  0  0  0  0  0  0  0  0  0  0  0
  180.5500  180.6920  140.3870 O   0  0  0  0  0  1  0  0  0  0  0  0
  180.2240  179.7080  141.3210 C   0  0  0  0  0  2  0  0  0  0  0  0
  181.3770  179.6710  134.9970 O   0  0  0  0  0  0  0  0  0  0  0  0
  180.9840  181.0280  134.8600 C   0  0  0  0  0  1  0  0  0  0  0  0
  186.9090  179.1850  142.5990 C   0  0  0  0  0  2  0  0  0  0  0  0
  187.7970  178.0520  142.3510 N   0  0  0  0  0  0  0  0  0  0  0  0
  189.1340  178.5520  142.0630 C   0  0  0  0  0  1  0  0  0  0  0  0
  187.7850  177.1150  143.4910 C   0  0  0  0  0  2  0  0  0  0  0  0
  187.1210  177.7200  145.8900 C   0  0  0  0  0  2  0  0  0  0  0  0
  189.3950  176.9160  145.5070 C   0  0  0  0  0  2  0  0  0  0  0  0
  187.7500  177.3620  147.2280 C   0  0  0  0  0  2  0  0  0  0  0  0
  189.2400  177.1830  146.9890 C   0  0  0  0  0  2  0  0  0  0  0  0
  188.2380  177.6520  144.8660 C   0  0  0  0  0  3  0  0  0  0  0  0
  180.5120  175.1060  139.5900 C   0  0  0  0  0  2  0  0  0  0  0  0
  180.5750  171.6430  135.0740 C   0  0  0  0  0  2  0  0  0  0  0  0
  181.9780  171.6140  134.8900 O   0  0  0  0  0  0  0  0  0  0  0  0
  181.3810  173.4200  136.2610 C   0  0  2  0  0  3  0  0  0  0  0  0
  179.0140  173.9400  137.8120 C   0  0  0  0  0  2  0  0  0  0  0  0
  183.5120  173.4560  135.0080 C   0  0  0  0  0  1  0  0  0  0  0  0
  180.3950  174.4050  138.2750 C   0  0  0  0  0  0  0  0  0  0  0  0
  180.3180  172.4040  136.3430 C   0  0  1  0  0  3  0  0  0  0  0  0
  182.5260  172.5870  135.7630 C   0  0  2  0  0  3  0  0  0  0  0  0
  181.5180  174.0910  137.5910 C   0  0  0  0  0  3  0  0  0  0  0  0
  179.0050  173.1550  136.4750 C   0  0  0  0  0  2  0  0  0  0  0  0
  1 16  1  0  0  0  0
  2  3  2  0  0  0  0
  3  4  1  0  0  0  0
  3 12  1  0  0  0  0
  4  9  1  0  0  0  0
  5 15  1  0  0  0  0
  5 26  1  1  0  0  0
  6 13  1  0  0  0  0
  7  1  2  0  0  0  0
  7  2  1  0  0  0  0
  8  5  1  0  0  0  0
  9 35  1  1  0  0  0
  9 21  1  0  0  0  0
 10 23  1  1  0  0  0
 10 14  1  0  0  0  0
 11  2  1  0  0  0  0
 11 20  2  0  0  0  0
 13  8  1  0  0  0  0
 14 18  1  1  0  0  0
 16  4  2  0  0  0  0
 19 14  1  0  0  0  0
 19 15  1  0  0  0  0
 20  6  1  0  0  0  0
 20 12  1  0  0  0  0
 21 10  1  0  0  0  0
 21 17  2  0  0  0  0
 22 23  1  0  0  0  0
 24  7  1  0  0  0  0
 25 24  1  0  0  0  0
 27 26  1  0  0  0  0
 27 29  1  0  0  0  0
 28 27  1  0  0  0  0
 29 34  1  0  0  0  0
 30 32  1  0  0  0  0
 31 33  1  0  0  0  0
 33 32  1  0  0  0  0
 34 31  1  0  0  0  0
 34 30  1  0  0  0  0
 37 36  1  0  0  0  0
 37 43  1  0  0  0  0
 38 42  1  0  0  0  0
 38 44  1  1  0  0  0
 39 41  1  0  0  0  0
 41 35  1  0  0  0  0
 42 36  1  6  0  0  0
 42 45  1  0  0  0  0
 43 40  1  6  0  0  0
 43 38  1  0  0  0  0
 44 41  2  0  0  0  0
 45 39  1  0  0  0  0
M  END
>  <MODEL>
3

>  <REMARK>
 VINA RESULT:      -6.1      2.780      6.625
  Name = 
  8 active torsions:
  status: ('A' for Active; 'I' for Inactive)
    1  A    between atoms: C_7  and  C_11
    2  A    between atoms: C_7  and  N_18
    3  A    between atoms: C_13  and  O_34
    4  A    between atoms: N_18  and  C_22
    5  A    between atoms: C_21  and  C_44
    6  A    between atoms: C_22  and  C_26
    7  A    between atoms: C_23  and  C_44
    8  A    between atoms: C_24  and  C_42
                            x       y       z     vdW  Elec       q    Type
                         _______ _______ _______ _____ _____    ______ ____

>  <TORSDO>
F 8

$$$$
=
 OpenBabel10222418103D

 45 50  0  0  1  0  0  0  0  0999 V2000
  183.1480  178.8170  142.7250 C   0  0  0  0  0  3  0  0  0  0  0  0
  185.0640  178.6470  141.2910 C   0  0  0  0  0  0  0  0  0  0  0  0
  184.2950  178.9760  140.2100 C   0  0  0  0  0  0  0  0  0  0  0  0
  182.9200  179.2190  140.3230 C   0  0  0  0  0  0  0  0  0  0  0  0
  187.0060  175.7570  136.3830 C   0  0  1  0  0  3  0  0  0  0  0  0
  187.4100  178.3190  138.6530 C   0  0  0  0  0  2  0  0  0  0  0  0
  184.5240  178.5600  142.5860 C   0  0  0  0  0  0  0  0  0  0  0  0
  187.8320  176.8430  137.0540 C   0  0  0  0  0  2  0  0  0  0  0  0
  182.0330  179.5100  139.1420 C   0  0  2  0  0  3  0  0  0  0  0  0
  182.6430  177.1070  138.2660 C   0  0  1  0  0  3  0  0  0  0  0  0
  186.3220  178.3920  140.8950 N   0  0  0  0  0  0  0  0  0  0  0  0
  185.0360  178.9450  139.0920 N   0  0  0  0  0  2  0  0  0  0  0  0
  187.4700  176.9480  138.3980 O   0  0  0  0  0  0  0  0  0  0  0  0
  183.4210  176.9670  136.9570 C   0  0  2  0  0  3  0  0  0  0  0  0
  185.6320  176.2950  136.0130 C   0  0  0  0  0  2  0  0  0  0  0  0
  182.3530  179.1390  141.6060 C   0  0  0  0  0  3  0  0  0  0  0  0
  180.7500  178.3290  137.5490 O   0  0  0  0  0  0  0  0  0  0  0  0
  182.6450  176.3680  135.9600 O   0  0  0  0  0  1  0  0  0  0  0  0
  184.6900  176.1680  137.1980 C   0  0  0  0  0  2  0  0  0  0  0  0
  186.2610  178.5950  139.5560 C   0  0  0  0  0  0  0  0  0  0  0  0
  181.7340  178.3090  138.2740 C   0  0  0  0  0  0  0  0  0  0  0  0
  181.5810  175.9360  140.0930 O   0  0  0  0  0  1  0  0  0  0  0  0
  181.9680  175.8270  138.7570 C   0  0  0  0  0  2  0  0  0  0  0  0
  185.2680  178.2270  143.7260 O   0  0  0  0  0  0  0  0  0  0  0  0
  184.9060  178.6000  145.0460 C   0  0  0  0  0  1  0  0  0  0  0  0
  187.7250  175.2730  135.1300 C   0  0  0  0  0  2  0  0  0  0  0  0
  188.2670  173.9350  135.3460 N   0  0  0  0  0  0  0  0  0  0  0  0
  189.6720  174.0450  135.7130 C   0  0  0  0  0  1  0  0  0  0  0  0
  187.4810  173.2070  136.3610 C   0  0  0  0  0  2  0  0  0  0  0  0
  186.0040  171.5990  135.0200 C   0  0  0  0  0  2  0  0  0  0  0  0
  185.1370  172.4360  137.1440 C   0  0  0  0  0  2  0  0  0  0  0  0
  184.8030  170.7600  135.4270 C   0  0  0  0  0  2  0  0  0  0  0  0
  184.1050  171.4970  136.5570 C   0  0  0  0  0  2  0  0  0  0  0  0
  186.0490  172.7710  135.9820 C   0  0  0  0  0  3  0  0  0  0  0  0
  182.5360  180.7000  138.3300 C   0  0  0  0  0  2  0  0  0  0  0  0
  178.9340  184.2470  135.7160 C   0  0  0  0  0  2  0  0  0  0  0  0
  178.9770  185.2870  136.6760 O   0  0  0  0  0  0  0  0  0  0  0  0
  179.8200  183.3020  137.5970 C   0  0  2  0  0  3  0  0  0  0  0  0
  180.8420  180.9090  136.3670 C   0  0  0  0  0  2  0  0  0  0  0  0
  178.9310  185.0790  139.0670 C   0  0  0  0  0  1  0  0  0  0  0  0
  181.4010  181.4320  137.6910 C   0  0  0  0  0  0  0  0  0  0  0  0
  179.9550  183.2270  136.1320 C   0  0  1  0  0  3  0  0  0  0  0  0
  179.6950  184.7850  137.7910 C   0  0  2  0  0  3  0  0  0  0  0  0
  180.9810  182.6000  138.2280 C   0  0  0  0  0  3  0  0  0  0  0  0
  179.7200  181.7790  135.7440 C   0  0  0  0  0  2  0  0  0  0  0  0
  2  7  2  0  0  0  0
  3  4  2  0  0  0  0
  3  2  1  0  0  0  0
  4 16  1  0  0  0  0
  5 26  1  6  0  0  0
  5  8  1  0  0  0  0
  6 20  1  0  0  0  0
  7  1  1  0  0  0  0
  7 24  1  0  0  0  0
  8 13  1  0  0  0  0
  9 35  1  6  0  0  0
  9  4  1  0  0  0  0
 10 21  1  0  0  0  0
 10 23  1  6  0  0  0
 11  2  1  0  0  0  0
 12 20  1  0  0  0  0
 12  3  1  0  0  0  0
 13  6  1  0  0  0  0
 14 18  1  6  0  0  0
 14 19  1  0  0  0  0
 14 10  1  0  0  0  0
 15  5  1  0  0  0  0
 15 19  1  0  0  0  0
 16  1  2  0  0  0  0
 17 21  2  0  0  0  0
 20 11  2  0  0  0  0
 21  9  1  0  0  0  0
 23 22  1  0  0  0  0
 24 25  1  0  0  0  0
 26 27  1  0  0  0  0
 27 28  1  0  0  0  0
 27 29  1  0  0  0  0
 30 32  1  0  0  0  0
 30 34  1  0  0  0  0
 32 33  1  0  0  0  0
 33 31  1  0  0  0  0
 34 29  1  0  0  0  0
 34 31  1  0  0  0  0
 36 37  1  0  0  0  0
 37 43  1  0  0  0  0
 38 43  1  0  0  0  0
 38 44  1  1  0  0  0
 39 41  1  0  0  0  0
 41 44  2  0  0  0  0
 41 35  1  0  0  0  0
 42 36  1  6  0  0  0
 42 38  1  0  0  0  0
 43 40  1  1  0  0  0
 45 42  1  0  0  0  0
 45 39  1  0  0  0  0
M  END
>  <MODEL>
4

>  <REMARK>
 VINA RESULT:      -6.0      3.741      6.684
  Name = 
  8 active torsions:
  status: ('A' for Active; 'I' for Inactive)
    1  A    between atoms: C_7  and  C_11
    2  A    between atoms: C_7  and  N_18
    3  A    between atoms: C_13  and  O_34
    4  A    between atoms: N_18  and  C_22
    5  A    between atoms: C_21  and  C_44
    6  A    between atoms: C_22  and  C_26
    7  A    between atoms: C_23  and  C_44
    8  A    between atoms: C_24  and  C_42
                            x       y       z     vdW  Elec       q    Type
                         _______ _______ _______ _____ _____    ______ ____

>  <TORSDO>
F 8

$$$$
=
 OpenBabel10222418103D

 45 50  0  0  1  0  0  0  0  0999 V2000
  181.8340  181.4210  138.3340 C   0  0  0  0  0  3  0  0  0  0  0  0
  180.4580  179.4950  138.7260 C   0  0  0  0  0  0  0  0  0  0  0  0
  181.5550  178.7800  139.1160 C   0  0  0  0  0  0  0  0  0  0  0  0
  182.8430  179.3340  139.1150 C   0  0  0  0  0  0  0  0  0  0  0  0
  179.8870  173.7300  137.0980 C   0  0  1  0  0  3  0  0  0  0  0  0
  179.0390  176.2870  139.2470 C   0  0  0  0  0  2  0  0  0  0  0  0
  180.5540  180.8390  138.3260 C   0  0  0  0  0  0  0  0  0  0  0  0
  179.0010  174.3530  138.1650 C   0  0  0  0  0  2  0  0  0  0  0  0
  184.0790  178.5510  139.4680 C   0  0  2  0  0  3  0  0  0  0  0  0
  183.5470  177.0360  137.3860 C   0  0  1  0  0  3  0  0  0  0  0  0
  179.3700  178.7070  138.7480 N   0  0  0  0  0  0  0  0  0  0  0  0
  181.2040  177.5160  139.4020 N   0  0  0  0  0  2  0  0  0  0  0  0
  178.9310  175.7340  137.9700 O   0  0  0  0  0  0  0  0  0  0  0  0
  183.2100  175.5610  137.6050 C   0  0  2  0  0  3  0  0  0  0  0  0
  181.3530  173.8970  137.4700 C   0  0  0  0  0  2  0  0  0  0  0  0
  182.9680  180.6760  138.7190 C   0  0  0  0  0  3  0  0  0  0  0  0
  185.6770  177.1780  138.4010 O   0  0  0  0  0  0  0  0  0  0  0  0
  184.1990  174.7240  137.0790 O   0  0  0  0  0  1  0  0  0  0  0  0
  181.8580  175.2460  136.9870 C   0  0  0  0  0  2  0  0  0  0  0  0
  179.8680  177.5210  139.1730 C   0  0  0  0  0  0  0  0  0  0  0  0
  184.5190  177.5660  138.4080 C   0  0  0  0  0  0  0  0  0  0  0  0
  182.8420  178.0430  135.3060 O   0  0  0  0  0  1  0  0  0  0  0  0
  183.9070  177.4090  135.9480 C   0  0  0  0  0  2  0  0  0  0  0  0
  179.4610  181.6150  137.9170 O   0  0  0  0  0  0  0  0  0  0  0  0
  179.2160  182.9390  138.3660 C   0  0  0  0  0  1  0  0  0  0  0  0
  179.5550  172.2490  136.9650 C   0  0  0  0  0  2  0  0  0  0  0  0
  179.0870  171.9580  135.6130 N   0  0  0  0  0  0  0  0  0  0  0  0
  178.9320  173.2100  134.8850 C   0  0  0  0  0  1  0  0  0  0  0  0
  180.0030  171.0240  134.9290 C   0  0  0  0  0  2  0  0  0  0  0  0
  182.1350  169.6310  135.2060 C   0  0  0  0  0  2  0  0  0  0  0  0
  182.3870  172.0270  134.8130 C   0  0  0  0  0  2  0  0  0  0  0  0
  183.5820  169.9210  134.8370 C   0  0  0  0  0  2  0  0  0  0  0  0
  183.7710  171.4250  134.9200 C   0  0  0  0  0  2  0  0  0  0  0  0
  181.4700  170.9790  135.4090 C   0  0  0  0  0  3  0  0  0  0  0  0
  183.9730  177.9070  140.8470 C   0  0  0  0  0  2  0  0  0  0  0  0
  188.6080  177.9030  144.1510 C   0  0  0  0  0  2  0  0  0  0  0  0
  187.9680  177.5310  145.3580 O   0  0  0  0  0  0  0  0  0  0  0  0
  186.3830  178.2850  143.8030 C   0  0  2  0  0  3  0  0  0  0  0  0
  186.4930  178.5480  140.9390 C   0  0  0  0  0  2  0  0  0  0  0  0
  185.8820  178.3430  146.2220 C   0  0  0  0  0  1  0  0  0  0  0  0
  185.1960  178.1800  141.6620 C   0  0  0  0  0  0  0  0  0  0  0  0
  187.5720  177.8230  143.0660 C   0  0  1  0  0  3  0  0  0  0  0  0
  186.5730  177.5770  145.1120 C   0  0  2  0  0  3  0  0  0  0  0  0
  185.1610  177.9740  142.9980 C   0  0  0  0  0  3  0  0  0  0  0  0
  187.7240  178.7360  141.8620 C   0  0  0  0  0  2  0  0  0  0  0  0
  1 16  1  0  0  0  0
  2 11  1  0  0  0  0
  2  3  2  0  0  0  0
  3 12  1  0  0  0  0
  4  3  1  0  0  0  0
  4  9  1  0  0  0  0
  5 26  1  1  0  0  0
  5 15  1  0  0  0  0
  5  8  1  0  0  0  0
  7  1  2  0  0  0  0
  7  2  1  0  0  0  0
  9 35  1  1  0  0  0
 10 23  1  6  0  0  0
 10 14  1  0  0  0  0
 10 21  1  0  0  0  0
 11 20  2  0  0  0  0
 13  8  1  0  0  0  0
 13  6  1  0  0  0  0
 14 18  1  6  0  0  0
 16  4  2  0  0  0  0
 17 21  2  0  0  0  0
 19 15  1  0  0  0  0
 19 14  1  0  0  0  0
 20  6  1  0  0  0  0
 20 12  1  0  0  0  0
 21  9  1  0  0  0  0
 22 23  1  0  0  0  0
 24  7  1  0  0  0  0
 24 25  1  0  0  0  0
 27 26  1  0  0  0  0
 28 27  1  0  0  0  0
 29 34  1  0  0  0  0
 29 27  1  0  0  0  0
 30 34  1  0  0  0  0
 31 33  1  0  0  0  0
 31 34  1  0  0  0  0
 32 33  1  0  0  0  0
 32 30  1  0  0  0  0
 35 41  1  0  0  0  0
 36 37  1  0  0  0  0
 38 44  1  6  0  0  0
 38 43  1  0  0  0  0
 39 41  1  0  0  0  0
 39 45  1  0  0  0  0
 41 44  2  0  0  0  0
 42 45  1  6  0  0  0
 42 38  1  0  0  0  0
 42 36  1  0  0  0  0
 43 37  1  0  0  0  0
 43 40  1  1  0  0  0
M  END
>  <MODEL>
5

>  <REMARK>
 VINA RESULT:      -5.7      3.428      9.046
  Name = 
  8 active torsions:
  status: ('A' for Active; 'I' for Inactive)
    1  A    between atoms: C_7  and  C_11
    2  A    between atoms: C_7  and  N_18
    3  A    between atoms: C_13  and  O_34
    4  A    between atoms: N_18  and  C_22
    5  A    between atoms: C_21  and  C_44
    6  A    between atoms: C_22  and  C_26
    7  A    between atoms: C_23  and  C_44
    8  A    between atoms: C_24  and  C_42
                            x       y       z     vdW  Elec       q    Type
                         _______ _______ _______ _____ _____    ______ ____

>  <TORSDO>
F 8

$$$$
=
 OpenBabel10222418103D

 45 50  0  0  1  0  0  0  0  0999 V2000
  192.8950  175.2920  134.8960 C   0  0  0  0  0  3  0  0  0  0  0  0
  192.3740  175.8430  137.1720 C   0  0  0  0  0  0  0  0  0  0  0  0
  191.1650  175.2170  137.0560 C   0  0  0  0  0  0  0  0  0  0  0  0
  190.7490  174.6190  135.8590 C   0  0  0  0  0  0  0  0  0  0  0  0
  188.2210  178.6800  140.4760 C   0  0  1  0  0  3  0  0  0  0  0  0
  190.9270  176.5510  140.3310 C   0  0  0  0  0  2  0  0  0  0  0  0
  193.2840  175.9010  136.1020 C   0  0  0  0  0  0  0  0  0  0  0  0
  189.3780  177.9290  141.1160 C   0  0  0  0  0  2  0  0  0  0  0  0
  189.3950  173.9870  135.6790 C   0  0  2  0  0  3  0  0  0  0  0  0
  188.3760  176.3710  136.1120 C   0  0  1  0  0  3  0  0  0  0  0  0
  192.4870  176.3940  138.3920 N   0  0  0  0  0  0  0  0  0  0  0  0
  190.4690  175.3450  138.1970 N   0  0  0  0  0  2  0  0  0  0  0  0
  190.4450  177.8570  140.2180 O   0  0  0  0  0  0  0  0  0  0  0  0
  187.5050  176.5960  137.3480 C   0  0  2  0  0  3  0  0  0  0  0  0
  187.4370  177.7540  139.5580 C   0  0  0  0  0  2  0  0  0  0  0  0
  191.6390  174.6620  134.7730 C   0  0  0  0  0  3  0  0  0  0  0  0
  187.2110  174.6170  135.0370 O   0  0  0  0  0  0  0  0  0  0  0  0
  186.1770  176.8620  136.9990 O   0  0  0  0  0  1  0  0  0  0  0  0
  188.0770  177.7300  138.1810 C   0  0  0  0  0  2  0  0  0  0  0  0
  191.3140  176.0580  138.9820 C   0  0  0  0  0  0  0  0  0  0  0  0
  188.2550  174.9730  135.5630 C   0  0  0  0  0  0  0  0  0  0  0  0
  189.5310  177.9530  134.6970 O   0  0  0  0  0  1  0  0  0  0  0  0
  188.2730  177.4590  135.0430 C   0  0  0  0  0  2  0  0  0  0  0  0
  194.5340  176.5310  136.1690 O   0  0  0  0  0  0  0  0  0  0  0  0
  195.1570  177.1760  135.0690 C   0  0  0  0  0  1  0  0  0  0  0  0
  187.3040  179.2220  141.5660 C   0  0  0  0  0  2  0  0  0  0  0  0
  186.3630  178.1910  141.9920 N   0  0  0  0  0  0  0  0  0  0  0  0
  186.8750  177.5500  143.1960 C   0  0  0  0  0  1  0  0  0  0  0  0
  185.0160  178.7580  142.1910 C   0  0  0  0  0  2  0  0  0  0  0  0
  182.5090  178.6560  141.6730 C   0  0  0  0  0  2  0  0  0  0  0  0
  184.0460  178.9590  139.8000 C   0  0  0  0  0  2  0  0  0  0  0  0
  181.7160  179.0910  140.4490 C   0  0  0  0  0  2  0  0  0  0  0  0
  182.6360  178.9540  139.2480 C   0  0  0  0  0  2  0  0  0  0  0  0
  183.9150  178.3610  141.1840 C   0  0  0  0  0  3  0  0  0  0  0  0
  189.1240  172.9090  136.7240 C   0  0  0  0  0  2  0  0  0  0  0  0
  184.4510  170.4530  134.5980 C   0  0  0  0  0  2  0  0  0  0  0  0
  183.5030  171.3010  135.2190 O   0  0  0  0  0  0  0  0  0  0  0  0
  185.5860  171.5060  136.2770 C   0  0  2  0  0  3  0  0  0  0  0  0
  188.2470  170.8500  135.3970 C   0  0  0  0  0  2  0  0  0  0  0  0
  183.5120  172.1010  137.4820 C   0  0  0  0  0  1  0  0  0  0  0  0
  187.9760  172.0430  136.3160 C   0  0  0  0  0  0  0  0  0  0  0  0
  185.8090  171.0170  134.9050 C   0  0  1  0  0  3  0  0  0  0  0  0
  184.2180  172.1070  136.1410 C   0  0  2  0  0  3  0  0  0  0  0  0
  186.7200  172.4020  136.6630 C   0  0  0  0  0  3  0  0  0  0  0  0
  186.9850  170.0590  134.9670 C   0  0  0  0  0  2  0  0  0  0  0  0
  1  7  1  0  0  0  0
  2 11  1  0  0  0  0
  3  2  1  0  0  0  0
  3 12  1  0  0  0  0
  4  3  2  0  0  0  0
  5  8  1  0  0  0  0
  5 26  1  1  0  0  0
  7 24  1  0  0  0  0
  7  2  2  0  0  0  0
  9  4  1  0  0  0  0
  9 35  1  1  0  0  0
 10 23  1  6  0  0  0
 10 14  1  0  0  0  0
 11 20  2  0  0  0  0
 12 20  1  0  0  0  0
 13  6  1  0  0  0  0
 13  8  1  0  0  0  0
 14 18  1  6  0  0  0
 14 19  1  0  0  0  0
 15  5  1  0  0  0  0
 16  1  2  0  0  0  0
 16  4  1  0  0  0  0
 17 21  2  0  0  0  0
 19 15  1  0  0  0  0
 20  6  1  0  0  0  0
 21  9  1  0  0  0  0
 21 10  1  0  0  0  0
 22 23  1  0  0  0  0
 25 24  1  0  0  0  0
 26 27  1  0  0  0  0
 27 29  1  0  0  0  0
 27 28  1  0  0  0  0
 31 34  1  0  0  0  0
 32 30  1  0  0  0  0
 33 31  1  0  0  0  0
 33 32  1  0  0  0  0
 34 30  1  0  0  0  0
 34 29  1  0  0  0  0
 36 37  1  0  0  0  0
 37 43  1  0  0  0  0
 38 44  1  6  0  0  0
 39 41  1  0  0  0  0
 41 44  2  0  0  0  0
 41 35  1  0  0  0  0
 42 36  1  1  0  0  0
 42 45  1  0  0  0  0
 42 38  1  0  0  0  0
 43 38  1  0  0  0  0
 43 40  1  1  0  0  0
 45 39  1  0  0  0  0
M  END
>  <MODEL>
6

>  <REMARK>
 VINA RESULT:      -5.7      6.004     10.383
  Name = 
  8 active torsions:
  status: ('A' for Active; 'I' for Inactive)
    1  A    between atoms: C_7  and  C_11
    2  A    between atoms: C_7  and  N_18
    3  A    between atoms: C_13  and  O_34
    4  A    between atoms: N_18  and  C_22
    5  A    between atoms: C_21  and  C_44
    6  A    between atoms: C_22  and  C_26
    7  A    between atoms: C_23  and  C_44
    8  A    between atoms: C_24  and  C_42
                            x       y       z     vdW  Elec       q    Type
                         _______ _______ _______ _____ _____    ______ ____

>  <TORSDO>
F 8

$$$$
=
 OpenBabel10222418103D

 45 50  0  0  1  0  0  0  0  0999 V2000
  190.6230  176.2110  134.5940 C   0  0  0  0  0  3  0  0  0  0  0  0
  191.2900  176.1270  136.8960 C   0  0  0  0  0  0  0  0  0  0  0  0
  190.0100  175.8250  137.2660 C   0  0  0  0  0  0  0  0  0  0  0  0
  188.9710  175.7220  136.3310 C   0  0  0  0  0  0  0  0  0  0  0  0
  190.0160  178.5840  142.2400 C   0  0  1  0  0  3  0  0  0  0  0  0
  191.5810  176.1030  140.4300 C   0  0  0  0  0  2  0  0  0  0  0  0
  191.6460  176.3270  135.5510 C   0  0  0  0  0  0  0  0  0  0  0  0
  191.0240  177.4550  142.0970 C   0  0  0  0  0  2  0  0  0  0  0  0
  187.5390  175.4630  136.7130 C   0  0  2  0  0  3  0  0  0  0  0  0
  187.6130  177.7520  138.0040 C   0  0  1  0  0  3  0  0  0  0  0  0
  192.0640  176.2400  137.9880 N   0  0  0  0  0  0  0  0  0  0  0  0
  189.9260  175.7320  138.6020 N   0  0  0  0  0  2  0  0  0  0  0  0
  191.5430  177.4490  140.8010 O   0  0  0  0  0  0  0  0  0  0  0  0
  187.4500  177.7550  139.5250 C   0  0  2  0  0  3  0  0  0  0  0  0
  188.6720  178.1650  141.6630 C   0  0  0  0  0  2  0  0  0  0  0  0
  189.2980  175.9170  134.9780 C   0  0  0  0  0  3  0  0  0  0  0  0
  185.6140  176.6880  137.3270 O   0  0  0  0  0  0  0  0  0  0  0  0
  186.2600  178.3790  139.9110 O   0  0  0  0  0  1  0  0  0  0  0  0
  188.6440  178.4380  140.1680 C   0  0  0  0  0  2  0  0  0  0  0  0
  191.1980  175.9820  138.9980 C   0  0  0  0  0  0  0  0  0  0  0  0
  186.8360  176.6460  137.3390 C   0  0  0  0  0  0  0  0  0  0  0  0
  188.6680  179.6810  137.0020 O   0  0  0  0  0  1  0  0  0  0  0  0
  187.4360  179.1140  137.3330 C   0  0  0  0  0  2  0  0  0  0  0  0
  192.9420  176.6390  135.1210 O   0  0  0  0  0  0  0  0  0  0  0  0
  194.0540  175.7680  135.2550 C   0  0  0  0  0  1  0  0  0  0  0  0
  189.8560  178.9360  143.7140 C   0  0  0  0  0  2  0  0  0  0  0  0
  189.3820  177.7750  144.4610 N   0  0  0  0  0  0  0  0  0  0  0  0
  190.5300  177.0460  144.9820 C   0  0  0  0  0  1  0  0  0  0  0  0
  188.4480  178.1820  145.5280 C   0  0  0  0  0  2  0  0  0  0  0  0
  186.0420  178.9220  146.0060 C   0  0  0  0  0  2  0  0  0  0  0  0
  186.5010  177.8680  143.8520 C   0  0  0  0  0  2  0  0  0  0  0  0
  184.8600  179.1600  145.0790 C   0  0  0  0  0  2  0  0  0  0  0  0
  185.0320  178.2330  143.8880 C   0  0  0  0  0  2  0  0  0  0  0  0
  186.9420  177.9270  145.2990 C   0  0  0  0  0  3  0  0  0  0  0  0
  187.3900  174.1940  137.5460 C   0  0  0  0  0  2  0  0  0  0  0  0
  183.3490  171.4830  134.5940 C   0  0  0  0  0  2  0  0  0  0  0  0
  182.2550  172.2750  135.0170 O   0  0  0  0  0  0  0  0  0  0  0  0
  184.0850  172.5940  136.4480 C   0  0  2  0  0  3  0  0  0  0  0  0
  186.8960  172.0920  136.0950 C   0  0  0  0  0  2  0  0  0  0  0  0
  181.7900  173.0690  137.2340 C   0  0  0  0  0  1  0  0  0  0  0  0
  186.3900  173.2650  136.9360 C   0  0  0  0  0  0  0  0  0  0  0  0
  184.5900  172.1220  135.1480 C   0  0  1  0  0  3  0  0  0  0  0  0
  182.7360  173.1180  136.0500 C   0  0  2  0  0  3  0  0  0  0  0  0
  185.0730  173.5530  137.0350 C   0  0  0  0  0  3  0  0  0  0  0  0
  185.7850  171.2320  135.4400 C   0  0  0  0  0  2  0  0  0  0  0  0
  1 16  2  0  0  0  0
  1  7  1  0  0  0  0
  2  3  1  0  0  0  0
  2 11  1  0  0  0  0
  3 12  1  0  0  0  0
  4  9  1  0  0  0  0
  4  3  2  0  0  0  0
  5 26  1  1  0  0  0
  6 13  1  0  0  0  0
  7  2  2  0  0  0  0
  8  5  1  0  0  0  0
  9 21  1  0  0  0  0
  9 35  1  1  0  0  0
 10 23  1  6  0  0  0
 10 14  1  0  0  0  0
 11 20  2  0  0  0  0
 12 20  1  0  0  0  0
 13  8  1  0  0  0  0
 14 18  1  6  0  0  0
 14 19  1  0  0  0  0
 15  5  1  0  0  0  0
 16  4  1  0  0  0  0
 17 21  2  0  0  0  0
 19 15  1  0  0  0  0
 20  6  1  0  0  0  0
 21 10  1  0  0  0  0
 22 23  1  0  0  0  0
 24 25  1  0  0  0  0
 24  7  1  0  0  0  0
 26 27  1  0  0  0  0
 27 28  1  0  0  0  0
 27 29  1  0  0  0  0
 31 33  1  0  0  0  0
 31 34  1  0  0  0  0
 32 30  1  0  0  0  0
 33 32  1  0  0  0  0
 34 29  1  0  0  0  0
 34 30  1  0  0  0  0
 36 37  1  0  0  0  0
 37 43  1  0  0  0  0
 38 44  1  6  0  0  0
 39 41  1  0  0  0  0
 41 44  2  0  0  0  0
 41 35  1  0  0  0  0
 42 36  1  1  0  0  0
 42 45  1  0  0  0  0
 42 38  1  0  0  0  0
 43 38  1  0  0  0  0
 43 40  1  1  0  0  0
 45 39  1  0  0  0  0
M  END
>  <MODEL>
7

>  <REMARK>
 VINA RESULT:      -5.5      5.618      9.114
  Name = 
  8 active torsions:
  status: ('A' for Active; 'I' for Inactive)
    1  A    between atoms: C_7  and  C_11
    2  A    between atoms: C_7  and  N_18
    3  A    between atoms: C_13  and  O_34
    4  A    between atoms: N_18  and  C_22
    5  A    between atoms: C_21  and  C_44
    6  A    between atoms: C_22  and  C_26
    7  A    between atoms: C_23  and  C_44
    8  A    between atoms: C_24  and  C_42
                            x       y       z     vdW  Elec       q    Type
                         _______ _______ _______ _____ _____    ______ ____

>  <TORSDO>
F 8

$$$$
=
 OpenBabel10222418103D

 45 50  0  0  1  0  0  0  0  0999 V2000
  183.1020  177.9780  140.6170 C   0  0  0  0  0  3  0  0  0  0  0  0
  185.0990  178.3370  139.3380 C   0  0  0  0  0  0  0  0  0  0  0  0
  184.4680  177.8950  138.2110 C   0  0  0  0  0  0  0  0  0  0  0  0
  183.1380  177.4530  138.2280 C   0  0  0  0  0  0  0  0  0  0  0  0
  188.9740  175.4210  135.7750 C   0  0  1  0  0  3  0  0  0  0  0  0
  187.7550  178.4070  136.9900 C   0  0  0  0  0  2  0  0  0  0  0  0
  184.4420  178.4000  140.5800 C   0  0  0  0  0  0  0  0  0  0  0  0
  189.0790  176.9190  136.0180 C   0  0  0  0  0  2  0  0  0  0  0  0
  182.4380  176.8910  137.0200 C   0  0  2  0  0  3  0  0  0  0  0  0
  184.2240  174.9620  137.0530 C   0  0  1  0  0  3  0  0  0  0  0  0
  186.3820  178.6240  139.0590 N   0  0  0  0  0  0  0  0  0  0  0  0
  185.3230  177.8880  137.1760 N   0  0  0  0  0  2  0  0  0  0  0  0
  188.4810  177.2410  137.2370 O   0  0  0  0  0  0  0  0  0  0  0  0
  185.1950  174.8260  135.8790 C   0  0  2  0  0  3  0  0  0  0  0  0
  187.5950  175.0720  135.2360 C   0  0  0  0  0  2  0  0  0  0  0  0
  182.4570  177.5040  139.4560 C   0  0  0  0  0  3  0  0  0  0  0  0
  182.1400  174.8080  135.9470 O   0  0  0  0  0  0  0  0  0  0  0  0
  184.9670  173.6500  135.1580 O   0  0  0  0  0  1  0  0  0  0  0  0
  186.6250  174.8720  136.3890 C   0  0  0  0  0  2  0  0  0  0  0  0
  186.4690  178.3470  137.7360 C   0  0  0  0  0  0  0  0  0  0  0  0
  182.8800  175.4980  136.6340 C   0  0  0  0  0  0  0  0  0  0  0  0
  183.6070  172.6380  137.2900 O   0  0  0  0  0  1  0  0  0  0  0  0
  184.1380  173.7380  137.9650 C   0  0  0  0  0  2  0  0  0  0  0  0
  185.0450  178.8450  141.7640 O   0  0  0  0  0  0  0  0  0  0  0  0
  184.5760  178.5190  143.0630 C   0  0  0  0  0  1  0  0  0  0  0  0
  190.0420  174.9930  134.7750 C   0  0  0  0  0  2  0  0  0  0  0  0
  190.9910  174.0850  135.4110 N   0  0  0  0  0  0  0  0  0  0  0  0
  190.5390  172.7140  135.2150 C   0  0  0  0  0  1  0  0  0  0  0  0
  192.3550  174.3030  134.8910 C   0  0  0  0  0  2  0  0  0  0  0  0
  192.8810  175.9970  136.7390 C   0  0  0  0  0  2  0  0  0  0  0  0
  194.0810  173.8710  136.7720 C   0  0  0  0  0  2  0  0  0  0  0  0
  193.5580  175.8340  138.0910 C   0  0  0  0  0  2  0  0  0  0  0  0
  194.5420  174.6840  137.9630 C   0  0  0  0  0  2  0  0  0  0  0  0
  193.4090  174.8780  135.8620 C   0  0  0  0  0  3  0  0  0  0  0  0
  182.4730  177.8570  135.8390 C   0  0  0  0  0  2  0  0  0  0  0  0
  179.0650  182.4050  136.1540 C   0  0  0  0  0  2  0  0  0  0  0  0
  179.5320  182.8940  137.3970 O   0  0  0  0  0  0  0  0  0  0  0  0
  180.1910  180.6620  137.1080 C   0  0  2  0  0  3  0  0  0  0  0  0
  180.4220  179.0300  134.7490 C   0  0  0  0  0  2  0  0  0  0  0  0
  180.0290  181.6300  139.3760 C   0  0  0  0  0  1  0  0  0  0  0  0
  181.3720  178.8640  135.9360 C   0  0  0  0  0  0  0  0  0  0  0  0
  179.9500  181.2500  135.7790 C   0  0  1  0  0  3  0  0  0  0  0  0
  180.3930  181.9010  137.9300 C   0  0  2  0  0  3  0  0  0  0  0  0
  181.3190  179.6840  137.0100 C   0  0  0  0  0  3  0  0  0  0  0  0
  179.3630  180.1500  134.9130 C   0  0  0  0  0  2  0  0  0  0  0  0
  2  7  2  0  0  0  0
  3  4  2  0  0  0  0
  3  2  1  0  0  0  0
  4 16  1  0  0  0  0
  5 26  1  6  0  0  0
  5  8  1  0  0  0  0
  6 13  1  0  0  0  0
  6 20  1  0  0  0  0
  7  1  1  0  0  0  0
  7 24  1  0  0  0  0
  8 13  1  0  0  0  0
  9 35  1  6  0  0  0
  9  4  1  0  0  0  0
 10 23  1  6  0  0  0
 11  2  1  0  0  0  0
 12 20  1  0  0  0  0
 12  3  1  0  0  0  0
 14 18  1  1  0  0  0
 14 19  1  0  0  0  0
 14 10  1  0  0  0  0
 15  5  1  0  0  0  0
 15 19  1  0  0  0  0
 16  1  2  0  0  0  0
 17 21  2  0  0  0  0
 20 11  2  0  0  0  0
 21  9  1  0  0  0  0
 21 10  1  0  0  0  0
 22 23  1  0  0  0  0
 24 25  1  0  0  0  0
 26 27  1  0  0  0  0
 28 27  1  0  0  0  0
 29 27  1  0  0  0  0
 29 34  1  0  0  0  0
 30 32  1  0  0  0  0
 31 33  1  0  0  0  0
 33 32  1  0  0  0  0
 34 30  1  0  0  0  0
 34 31  1  0  0  0  0
 35 41  1  0  0  0  0
 36 37  1  0  0  0  0
 37 43  1  0  0  0  0
 38 44  1  6  0  0  0
 38 43  1  0  0  0  0
 39 45  1  0  0  0  0
 39 41  1  0  0  0  0
 41 44  2  0  0  0  0
 42 45  1  6  0  0  0
 42 36  1  0  0  0  0
 42 38  1  0  0  0  0
 43 40  1  1  0  0  0
M  END
>  <MODEL>
8

>  <REMARK>
 VINA RESULT:      -5.4      4.821      7.269
  Name = 
  8 active torsions:
  status: ('A' for Active; 'I' for Inactive)
    1  A    between atoms: C_7  and  C_11
    2  A    between atoms: C_7  and  N_18
    3  A    between atoms: C_13  and  O_34
    4  A    between atoms: N_18  and  C_22
    5  A    between atoms: C_21  and  C_44
    6  A    between atoms: C_22  and  C_26
    7  A    between atoms: C_23  and  C_44
    8  A    between atoms: C_24  and  C_42
                            x       y       z     vdW  Elec       q    Type
                         _______ _______ _______ _____ _____    ______ ____

>  <TORSDO>
F 8

$$$$
=
 OpenBabel10222418103D

 45 50  0  0  1  0  0  0  0  0999 V2000
  179.5790  180.6440  138.1370 C   0  0  0  0  0  3  0  0  0  0  0  0
  181.8710  180.0560  138.5320 C   0  0  0  0  0  0  0  0  0  0  0  0
  181.4770  179.0080  139.3150 C   0  0  0  0  0  0  0  0  0  0  0  0
  180.1260  178.7370  139.5690 C   0  0  0  0  0  0  0  0  0  0  0  0
  185.7890  179.2070  143.0200 C   0  0  1  0  0  3  0  0  0  0  0  0
  184.9980  178.8450  139.6850 C   0  0  0  0  0  2  0  0  0  0  0  0
  180.9410  180.9080  137.9110 C   0  0  0  0  0  0  0  0  0  0  0  0
  186.1610  178.9400  141.5700 C   0  0  0  0  0  2  0  0  0  0  0  0
  179.6620  177.6370  140.4860 C   0  0  2  0  0  3  0  0  0  0  0  0
  180.8930  178.9200  142.4230 C   0  0  1  0  0  3  0  0  0  0  0  0
  183.2120  180.1350  138.5180 N   0  0  0  0  0  0  0  0  0  0  0  0
  182.5510  178.3840  139.8240 N   0  0  0  0  0  2  0  0  0  0  0  0
  185.3510  179.7030  140.7280 O   0  0  0  0  0  0  0  0  0  0  0  0
  182.0830  178.2560  143.1170 C   0  0  2  0  0  3  0  0  0  0  0  0
  184.5590  178.3990  143.4050 C   0  0  0  0  0  2  0  0  0  0  0  0
  179.1740  179.5730  138.9610 C   0  0  0  0  0  3  0  0  0  0  0  0
  179.1960  177.3140  142.7790 O   0  0  0  0  0  0  0  0  0  0  0  0
  181.7950  177.9520  144.4510 O   0  0  0  0  0  1  0  0  0  0  0  0
  183.3010  179.1600  143.0260 C   0  0  0  0  0  2  0  0  0  0  0  0
  183.5810  179.0960  139.3060 C   0  0  0  0  0  0  0  0  0  0  0  0
  179.8640  177.9230  141.9570 C   0  0  0  0  0  0  0  0  0  0  0  0
  179.1860  179.7390  143.9230 O   0  0  0  0  0  1  0  0  0  0  0  0
  180.2970  180.1140  143.1660 C   0  0  0  0  0  2  0  0  0  0  0  0
  181.2930  181.9950  137.1000 O   0  0  0  0  0  0  0  0  0  0  0  0
  180.6040  183.2350  137.0910 C   0  0  0  0  0  1  0  0  0  0  0  0
  186.9580  178.8280  143.9210 C   0  0  0  0  0  2  0  0  0  0  0  0
  187.1350  177.3800  143.9340 N   0  0  0  0  0  0  0  0  0  0  0  0
  188.0760  177.0070  142.8870 C   0  0  0  0  0  1  0  0  0  0  0  0
  187.5680  176.9150  145.2660 C   0  0  0  0  0  2  0  0  0  0  0  0
  188.9070  177.6540  147.3210 C   0  0  0  0  0  2  0  0  0  0  0  0
  190.1370  176.6590  145.4610 C   0  0  0  0  0  2  0  0  0  0  0  0
  190.3080  177.2930  147.7920 C   0  0  0  0  0  2  0  0  0  0  0  0
  191.1320  176.9880  146.5530 C   0  0  0  0  0  2  0  0  0  0  0  0
  188.9030  177.4620  145.8170 C   0  0  0  0  0  3  0  0  0  0  0  0
  180.2240  176.2790  140.0780 C   0  0  0  0  0  2  0  0  0  0  0  0
  180.5230  174.6970  134.6190 C   0  0  0  0  0  2  0  0  0  0  0  0
  181.8950  174.3480  134.6080 O   0  0  0  0  0  0  0  0  0  0  0  0
  181.4120  175.6650  136.4870 C   0  0  2  0  0  3  0  0  0  0  0  0
  178.9310  176.2520  137.8210 C   0  0  0  0  0  2  0  0  0  0  0  0
  183.7200  175.5400  135.6120 C   0  0  0  0  0  1  0  0  0  0  0  0
  180.2470  176.1310  138.5910 C   0  0  0  0  0  0  0  0  0  0  0  0
  180.1660  175.0170  136.0430 C   0  0  1  0  0  3  0  0  0  0  0  0
  182.4350  174.7720  135.8480 C   0  0  2  0  0  3  0  0  0  0  0  0
  181.3980  175.7740  137.9790 C   0  0  0  0  0  3  0  0  0  0  0  0
  179.0440  176.0070  136.2950 C   0  0  0  0  0  2  0  0  0  0  0  0
  1 16  1  0  0  0  0
  2  3  2  0  0  0  0
  3  4  1  0  0  0  0
  3 12  1  0  0  0  0
  4  9  1  0  0  0  0
  5 15  1  0  0  0  0
  5 26  1  1  0  0  0
  6 13  1  0  0  0  0
  7  1  2  0  0  0  0
  7  2  1  0  0  0  0
  8  5  1  0  0  0  0
  9 35  1  6  0  0  0
  9 21  1  0  0  0  0
 10 14  1  0  0  0  0
 10 23  1  1  0  0  0
 11  2  1  0  0  0  0
 11 20  2  0  0  0  0
 13  8  1  0  0  0  0
 14 18  1  1  0  0  0
 16  4  2  0  0  0  0
 19 14  1  0  0  0  0
 19 15  1  0  0  0  0
 20  6  1  0  0  0  0
 20 12  1  0  0  0  0
 21 10  1  0  0  0  0
 21 17  2  0  0  0  0
 23 22  1  0  0  0  0
 24  7  1  0  0  0  0
 25 24  1  0  0  0  0
 26 27  1  0  0  0  0
 27 29  1  0  0  0  0
 28 27  1  0  0  0  0
 29 34  1  0  0  0  0
 30 32  1  0  0  0  0
 31 34  1  0  0  0  0
 31 33  1  0  0  0  0
 33 32  1  0  0  0  0
 34 30  1  0  0  0  0
 37 36  1  0  0  0  0
 37 43  1  0  0  0  0
 38 44  1  1  0  0  0
 39 41  1  0  0  0  0
 41 35  1  0  0  0  0
 42 36  1  6  0  0  0
 42 45  1  0  0  0  0
 42 38  1  0  0  0  0
 43 40  1  6  0  0  0
 43 38  1  0  0  0  0
 44 41  2  0  0  0  0
 45 39  1  0  0  0  0
M  END
>  <MODEL>
9

>  <REMARK>
 VINA RESULT:      -5.2      2.223      5.848
  Name = 
  8 active torsions:
  status: ('A' for Active; 'I' for Inactive)
    1  A    between atoms: C_7  and  C_11
    2  A    between atoms: C_7  and  N_18
    3  A    between atoms: C_13  and  O_34
    4  A    between atoms: N_18  and  C_22
    5  A    between atoms: C_21  and  C_44
    6  A    between atoms: C_22  and  C_26
    7  A    between atoms: C_23  and  C_44
    8  A    between atoms: C_24  and  C_42
                            x       y       z     vdW  Elec       q    Type
                         _______ _______ _______ _____ _____    ______ ____

>  <TORSDO>
F 8

$$$$
