=
 OpenBabel10222416233D

 38 43  0  0  1  0  0  0  0  0999 V2000
  189.0600  179.1390  138.3250 C   0  0  0  0  0  1  0  0  0  0  0  0
  184.3820  178.9920  141.5760 C   0  0  1  0  0  3  0  0  0  0  0  0
  181.8010  176.1140  137.1090 C   0  0  0  0  0  2  0  0  0  0  0  0
  184.9650  179.3920  140.1980 C   0  0  1  0  0  3  0  0  0  0  0  0
  187.7410  177.6430  142.9900 C   0  0  0  0  0  0  0  0  0  0  0  0
  186.7540  178.0400  142.0580 C   0  0  0  0  0  0  0  0  0  0  0  0
  182.6080  176.0640  138.4100 C   0  0  0  0  0  2  0  0  0  0  0  0
  183.0060  178.3210  141.5070 C   0  0  0  0  0  2  0  0  0  0  0  0
  186.0120  178.4030  139.6630 C   0  0  0  0  0  2  0  0  0  0  0  0
  188.3730  177.7940  140.2810 C   0  0  0  0  0  0  0  0  0  0  0  0
  185.3170  178.2070  142.5150 C   0  0  1  0  0  3  0  0  0  0  0  0
  187.4820  177.6810  144.4720 C   0  0  0  0  0  2  0  0  0  0  0  0
  190.3310  177.2580  139.1970 N   0  0  0  0  0  0  0  0  0  0  0  0
  187.0660  178.1130  140.6800 C   0  0  0  0  0  0  0  0  0  0  0  0
  183.0440  177.1100  140.5830 C   0  0  0  0  0  2  0  0  0  0  0  0
  188.9790  177.7410  138.9140 C   0  0  2  0  0  3  0  0  0  0  0  0
  182.5490  177.4010  139.1550 C   0  0  0  0  0  0  0  0  0  0  0  0
  189.3160  177.4250  141.1900 C   0  0  0  0  0  0  0  0  0  0  0  0
  180.4620  176.4340  137.3910 O   0  0  0  0  0  0  0  0  0  0  0  0
  181.0920  177.9120  139.1860 C   0  0  0  0  0  2  0  0  0  0  0  0
  183.8710  179.6680  139.1450 C   0  0  0  0  0  2  0  0  0  0  0  0
  180.4590  177.7900  137.7940 C   0  0  0  0  0  2  0  0  0  0  0  0
  183.4440  178.4000  138.3890 C   0  0  0  0  0  2  0  0  0  0  0  0
  189.0390  177.3440  142.5480 C   0  0  0  0  0  3  0  0  0  0  0  0
  190.5180  177.0930  140.4690 C   0  0  0  0  0  3  0  0  0  0  0  0
  186.0040  177.8010  144.8590 C   0  0  2  0  0  3  0  0  0  0  0  0
  185.2470  178.7520  143.9340 C   0  0  0  0  0  2  0  0  0  0  0  0
  185.8720  178.2020  146.3280 C   0  0  2  0  0  3  0  0  0  0  0  0
  184.9780  179.2670  146.4540 O   0  0  0  0  0  1  0  0  0  0  0  0
  187.2140  178.5500  146.9470 C   0  0  0  0  0  2  0  0  0  0  0  0
  187.6300  177.5170  147.9790 C   0  0  0  0  0  2  0  0  0  0  0  0
  190.1620  177.3760  147.6970 C   0  0  0  0  0  0  0  0  0  0  0  0
  188.9910  177.7390  148.4430 N   0  0  0  0  0  2  0  0  0  0  0  0
  191.2990  177.7210  148.1260 O   0  0  0  0  0  0  0  0  0  0  0  0
  190.0640  176.5770  146.4320 C   0  0  0  0  0  2  0  0  0  0  0  0
  191.3210  176.6920  145.6360 C   0  0  0  0  0  0  0  0  0  0  0  0
  192.1180  175.7220  145.5980 O   0  0  0  0  0  1  0  0  0  0  0  0
  191.6080  177.8430  144.9140 O   0  0  0  0  0  0  0  0  0  0  0  0
  2  8  1  6  0  0  0
  2 11  1  0  0  0  0
  3 19  1  0  0  0  0
  3  7  1  0  0  0  0
  4 21  1  6  0  0  0
  4  2  1  0  0  0  0
  5 12  1  0  0  0  0
  6 11  1  0  0  0  0
  6  5  2  0  0  0  0
  7 17  1  0  0  0  0
  9  4  1  0  0  0  0
  9 14  1  0  0  0  0
 10 14  2  0  0  0  0
 10 18  1  0  0  0  0
 11 27  1  1  0  0  0
 12 26  1  0  0  0  0
 13 25  2  0  0  0  0
 14  6  1  0  0  0  0
 15  8  1  0  0  0  0
 16  1  1  1  0  0  0
 16 13  1  0  0  0  0
 16 10  1  0  0  0  0
 17 20  1  0  0  0  0
 17 15  1  0  0  0  0
 18 24  2  0  0  0  0
 19 22  1  0  0  0  0
 22 20  1  0  0  0  0
 23 21  1  0  0  0  0
 23 17  1  0  0  0  0
 24  5  1  0  0  0  0
 25 18  1  0  0  0  0
 26 28  1  1  0  0  0
 27 26  1  0  0  0  0
 28 29  1  6  0  0  0
 28 30  1  0  0  0  0
 30 31  1  0  0  0  0
 31 33  1  0  0  0  0
 32 34  2  0  0  0  0
 32 33  1  0  0  0  0
 35 32  1  0  0  0  0
 36 35  1  0  0  0  0
 37 36  1  0  0  0  0
 38 36  2  0  0  0  0
M  END
>  <MODEL>
1

>  <REMARK>
 VINA RESULT:      -9.2      0.000      0.000
  Name = 
  6 active torsions:
  status: ('A' for Active; 'I' for Inactive)
    1  A    between atoms: C_3  and  C_8
    2  A    between atoms: C_3  and  C_22
    3  A    between atoms: C_19  and  C_23
    4  A    between atoms: C_19  and  C_30
    5  A    between atoms: C_23  and  N_32
    6  A    between atoms: C_30  and  C_36
                            x       y       z     vdW  Elec       q    Type
                         _______ _______ _______ _____ _____    ______ ____

>  <TORSDO>
F 6

$$$$
=
 OpenBabel10222416233D

 38 43  0  0  1  0  0  0  0  0999 V2000
  187.8610  179.4610  137.1070 C   0  0  0  0  0  1  0  0  0  0  0  0
  183.3050  178.6840  140.4390 C   0  0  1  0  0  3  0  0  0  0  0  0
  181.3210  175.0090  136.2610 C   0  0  0  0  0  2  0  0  0  0  0  0
  183.7980  179.0740  139.0240 C   0  0  1  0  0  3  0  0  0  0  0  0
  186.8630  178.1250  141.8980 C   0  0  0  0  0  0  0  0  0  0  0  0
  185.8170  178.2480  140.9550 C   0  0  0  0  0  0  0  0  0  0  0  0
  182.1240  175.2210  137.5480 C   0  0  0  0  0  2  0  0  0  0  0  0
  182.0840  177.7580  140.4480 C   0  0  0  0  0  2  0  0  0  0  0  0
  185.0150  178.2640  138.5520 C   0  0  0  0  0  2  0  0  0  0  0  0
  187.4500  178.1730  139.1750 C   0  0  0  0  0  0  0  0  0  0  0  0
  184.3750  178.1720  141.4210 C   0  0  1  0  0  3  0  0  0  0  0  0
  186.6040  178.2340  143.3770 C   0  0  0  0  0  2  0  0  0  0  0  0
  189.4730  177.9370  138.1030 N   0  0  0  0  0  0  0  0  0  0  0  0
  186.1070  178.2660  139.5700 C   0  0  0  0  0  0  0  0  0  0  0  0
  182.3530  176.5050  139.6230 C   0  0  0  0  0  2  0  0  0  0  0  0
  188.0530  178.1250  137.8070 C   0  0  2  0  0  3  0  0  0  0  0  0
  181.8100  176.5780  138.1850 C   0  0  0  0  0  0  0  0  0  0  0  0
  188.4480  178.0680  140.0950 C   0  0  0  0  0  0  0  0  0  0  0  0
  179.9450  175.0870  136.5400 O   0  0  0  0  0  0  0  0  0  0  0  0
  180.2810  176.8000  138.2000 C   0  0  0  0  0  2  0  0  0  0  0  0
  182.6690  179.0490  137.9710 C   0  0  0  0  0  2  0  0  0  0  0  0
  179.6820  176.4460  136.8330 C   0  0  0  0  0  2  0  0  0  0  0  0
  182.4940  177.6650  137.3260 C   0  0  0  0  0  2  0  0  0  0  0  0
  188.1940  178.0460  141.4590 C   0  0  0  0  0  3  0  0  0  0  0  0
  189.6900  177.9150  139.3820 C   0  0  0  0  0  3  0  0  0  0  0  0
  185.1320  178.0990  143.7790 C   0  0  2  0  0  3  0  0  0  0  0  0
  184.2040  178.8080  142.7930 C   0  0  0  0  0  2  0  0  0  0  0  0
  184.9270  178.5850  145.2120 C   0  0  2  0  0  3  0  0  0  0  0  0
  184.1300  179.7320  145.2180 O   0  0  0  0  0  1  0  0  0  0  0  0
  186.2450  178.8420  145.9210 C   0  0  0  0  0  2  0  0  0  0  0  0
  186.5230  177.7790  146.9700 C   0  0  0  0  0  2  0  0  0  0  0  0
  188.8750  177.8830  147.9530 C   0  0  0  0  0  0  0  0  0  0  0  0
  187.4840  178.2390  147.9600 N   0  0  0  0  0  2  0  0  0  0  0  0
  189.6570  178.4310  148.7810 O   0  0  0  0  0  0  0  0  0  0  0  0
  189.4130  176.8570  147.0000 C   0  0  0  0  0  2  0  0  0  0  0  0
  190.3130  177.4930  145.9940 C   0  0  0  0  0  0  0  0  0  0  0  0
  191.5410  177.2320  146.0120 O   0  0  0  0  0  1  0  0  0  0  0  0
  189.8080  178.3440  145.0200 O   0  0  0  0  0  0  0  0  0  0  0  0
  2  8  1  6  0  0  0
  2 11  1  0  0  0  0
  3 19  1  0  0  0  0
  3  7  1  0  0  0  0
  4 21  1  6  0  0  0
  4  2  1  0  0  0  0
  5 12  1  0  0  0  0
  6 11  1  0  0  0  0
  6  5  2  0  0  0  0
  7 17  1  0  0  0  0
  9  4  1  0  0  0  0
  9 14  1  0  0  0  0
 10 14  2  0  0  0  0
 10 18  1  0  0  0  0
 11 27  1  1  0  0  0
 12 26  1  0  0  0  0
 13 25  2  0  0  0  0
 14  6  1  0  0  0  0
 15  8  1  0  0  0  0
 16  1  1  1  0  0  0
 16 13  1  0  0  0  0
 16 10  1  0  0  0  0
 17 20  1  0  0  0  0
 17 15  1  0  0  0  0
 18 24  2  0  0  0  0
 19 22  1  0  0  0  0
 22 20  1  0  0  0  0
 23 21  1  0  0  0  0
 23 17  1  0  0  0  0
 24  5  1  0  0  0  0
 25 18  1  0  0  0  0
 26 28  1  1  0  0  0
 27 26  1  0  0  0  0
 28 29  1  6  0  0  0
 28 30  1  0  0  0  0
 30 31  1  0  0  0  0
 31 33  1  0  0  0  0
 32 33  1  0  0  0  0
 32 34  2  0  0  0  0
 35 32  1  0  0  0  0
 36 37  1  0  0  0  0
 36 35  1  0  0  0  0
 38 36  2  0  0  0  0
M  END
>  <MODEL>
2

>  <REMARK>
 VINA RESULT:      -8.3      1.269      1.550
  Name = 
  6 active torsions:
  status: ('A' for Active; 'I' for Inactive)
    1  A    between atoms: C_3  and  C_8
    2  A    between atoms: C_3  and  C_22
    3  A    between atoms: C_19  and  C_23
    4  A    between atoms: C_19  and  C_30
    5  A    between atoms: C_23  and  N_32
    6  A    between atoms: C_30  and  C_36
                            x       y       z     vdW  Elec       q    Type
                         _______ _______ _______ _____ _____    ______ ____

>  <TORSDO>
F 6

$$$$
=
 OpenBabel10222416233D

 38 43  0  0  1  0  0  0  0  0999 V2000
  186.7940  178.2590  134.9730 C   0  0  0  0  0  1  0  0  0  0  0  0
  185.7950  179.0680  140.5240 C   0  0  1  0  0  3  0  0  0  0  0  0
  180.4790  176.6840  139.5500 C   0  0  0  0  0  2  0  0  0  0  0  0
  185.2850  179.3270  139.0850 C   0  0  1  0  0  3  0  0  0  0  0  0
  188.9640  177.1120  139.4120 C   0  0  0  0  0  0  0  0  0  0  0  0
  187.6700  177.6800  139.3720 C   0  0  0  0  0  0  0  0  0  0  0  0
  181.9530  176.4960  139.9260 C   0  0  0  0  0  2  0  0  0  0  0  0
  184.7000  178.6750  141.5210 C   0  0  0  0  0  2  0  0  0  0  0  0
  185.5120  178.1470  138.1300 C   0  0  0  0  0  2  0  0  0  0  0  0
  187.5190  177.1000  137.0310 C   0  0  0  0  0  0  0  0  0  0  0  0
  187.0090  178.1290  140.6620 C   0  0  1  0  0  3  0  0  0  0  0  0
  189.8320  177.2200  140.6370 C   0  0  0  0  0  2  0  0  0  0  0  0
  188.0540  176.1800  134.9910 N   0  0  0  0  0  0  0  0  0  0  0  0
  186.9280  177.6720  138.1680 C   0  0  0  0  0  0  0  0  0  0  0  0
  183.9200  177.4670  141.0160 C   0  0  0  0  0  2  0  0  0  0  0  0
  186.9730  176.9110  135.6520 C   0  0  2  0  0  3  0  0  0  0  0  0
  182.6070  177.8290  140.3000 C   0  0  0  0  0  0  0  0  0  0  0  0
  188.7710  176.5680  137.0810 C   0  0  0  0  0  0  0  0  0  0  0  0
  179.7830  177.2610  140.6260 O   0  0  0  0  0  0  0  0  0  0  0  0
  181.6760  178.6130  141.2510 C   0  0  0  0  0  2  0  0  0  0  0  0
  183.8140  179.7970  139.0510 C   0  0  0  0  0  2  0  0  0  0  0  0
  180.2390  178.5970  140.7160 C   0  0  0  0  0  2  0  0  0  0  0  0
  182.8210  178.6250  138.9930 C   0  0  0  0  0  2  0  0  0  0  0  0
  189.5220  176.5610  138.2480 C   0  0  0  0  0  3  0  0  0  0  0  0
  189.0600  175.9990  135.7900 C   0  0  0  0  0  3  0  0  0  0  0  0
  189.0880  177.6300  141.9130 C   0  0  2  0  0  3  0  0  0  0  0  0
  188.0290  178.6970  141.6380 C   0  0  0  0  0  2  0  0  0  0  0  0
  190.0800  178.0690  142.9880 C   0  0  2  0  0  3  0  0  0  0  0  0
  191.0310  177.0680  143.1970 O   0  0  0  0  0  1  0  0  0  0  0  0
  189.3870  178.4330  144.2890 C   0  0  0  0  0  2  0  0  0  0  0  0
  189.0980  177.1990  145.1240 C   0  0  0  0  0  2  0  0  0  0  0  0
  187.7780  177.5560  147.2790 C   0  0  0  0  0  0  0  0  0  0  0  0
  189.0090  177.5170  146.5410 N   0  0  0  0  0  2  0  0  0  0  0  0
  187.8150  177.7190  148.5310 O   0  0  0  0  0  0  0  0  0  0  0  0
  186.4520  177.4290  146.5910 C   0  0  0  0  0  2  0  0  0  0  0  0
  185.8840  178.7750  146.2900 C   0  0  0  0  0  0  0  0  0  0  0  0
  185.6260  179.0850  145.1010 O   0  0  0  0  0  0  0  0  0  0  0  0
  185.6060  179.6780  147.3090 O   0  0  0  0  0  1  0  0  0  0  0  0
  2 11  1  0  0  0  0
  2  8  1  1  0  0  0
  3  7  1  0  0  0  0
  3 19  1  0  0  0  0
  4  9  1  6  0  0  0
  4  2  1  0  0  0  0
  5 12  1  0  0  0  0
  6  5  1  0  0  0  0
  6 11  1  0  0  0  0
  7 17  1  0  0  0  0
  9 14  1  0  0  0  0
 10 18  2  0  0  0  0
 10 14  1  0  0  0  0
 11 27  1  1  0  0  0
 12 26  1  0  0  0  0
 13 16  1  0  0  0  0
 13 25  2  0  0  0  0
 14  6  2  0  0  0  0
 15  8  1  0  0  0  0
 16  1  1  6  0  0  0
 16 10  1  0  0  0  0
 17 15  1  0  0  0  0
 17 20  1  0  0  0  0
 18 24  1  0  0  0  0
 19 22  1  0  0  0  0
 21  4  1  0  0  0  0
 22 20  1  0  0  0  0
 23 21  1  0  0  0  0
 23 17  1  0  0  0  0
 24  5  2  0  0  0  0
 25 18  1  0  0  0  0
 26 28  1  1  0  0  0
 27 26  1  0  0  0  0
 28 29  1  1  0  0  0
 28 30  1  0  0  0  0
 30 31  1  0  0  0  0
 31 33  1  0  0  0  0
 32 34  2  0  0  0  0
 33 32  1  0  0  0  0
 35 32  1  0  0  0  0
 36 35  1  0  0  0  0
 36 38  1  0  0  0  0
 37 36  2  0  0  0  0
M  END
>  <MODEL>
3

>  <REMARK>
 VINA RESULT:      -8.0      2.014      3.771
  Name = 
  6 active torsions:
  status: ('A' for Active; 'I' for Inactive)
    1  A    between atoms: C_3  and  C_8
    2  A    between atoms: C_3  and  C_22
    3  A    between atoms: C_19  and  C_23
    4  A    between atoms: C_19  and  C_30
    5  A    between atoms: C_23  and  N_32
    6  A    between atoms: C_30  and  C_36
                            x       y       z     vdW  Elec       q    Type
                         _______ _______ _______ _____ _____    ______ ____

>  <TORSDO>
F 6

$$$$
=
 OpenBabel10222416233D

 38 43  0  0  1  0  0  0  0  0999 V2000
  190.8120  178.4000  143.2450 C   0  0  0  0  0  1  0  0  0  0  0  0
  187.2440  178.5050  138.8030 C   0  0  1  0  0  3  0  0  0  0  0  0
  190.5610  174.1950  136.4950 C   0  0  0  0  0  2  0  0  0  0  0  0
  188.7240  178.5900  139.2530 C   0  0  1  0  0  3  0  0  0  0  0  0
  185.8220  178.0640  142.3920 C   0  0  0  0  0  0  0  0  0  0  0  0
  186.7360  178.0540  141.3140 C   0  0  0  0  0  0  0  0  0  0  0  0
  189.3660  174.6120  137.3590 C   0  0  0  0  0  2  0  0  0  0  0  0
  187.0160  177.6580  137.5460 C   0  0  0  0  0  2  0  0  0  0  0  0
  189.0690  177.6460  140.4140 C   0  0  0  0  0  2  0  0  0  0  0  0
  188.5200  177.5570  142.8670 C   0  0  0  0  0  0  0  0  0  0  0  0
  186.2170  178.1400  139.8910 C   0  0  1  0  0  3  0  0  0  0  0  0
  184.3850  178.4680  142.2000 C   0  0  0  0  0  2  0  0  0  0  0  0
  189.5910  177.0200  144.8310 N   0  0  0  0  0  0  0  0  0  0  0  0
  188.1070  177.7910  141.5470 C   0  0  0  0  0  0  0  0  0  0  0  0
  187.5900  176.2590  137.7280 C   0  0  0  0  0  2  0  0  0  0  0  0
  189.8720  177.2170  143.4090 C   0  0  2  0  0  3  0  0  0  0  0  0
  188.9960  176.0800  137.1280 C   0  0  0  0  0  0  0  0  0  0  0  0
  187.6310  177.5820  143.8970 C   0  0  0  0  0  0  0  0  0  0  0  0
  190.2570  174.3930  135.1360 O   0  0  0  0  0  0  0  0  0  0  0  0
  188.9730  176.3760  135.6120 C   0  0  0  0  0  2  0  0  0  0  0  0
  189.7140  178.4180  138.0810 C   0  0  0  0  0  2  0  0  0  0  0  0
  190.2250  175.7940  134.9430 C   0  0  0  0  0  2  0  0  0  0  0  0
  190.0710  176.9450  137.8210 C   0  0  0  0  0  2  0  0  0  0  0  0
  186.2810  177.8360  143.6990 C   0  0  0  0  0  3  0  0  0  0  0  0
  188.3410  177.2340  145.1010 C   0  0  0  0  0  3  0  0  0  0  0  0
  183.9170  178.4860  140.7410 C   0  0  2  0  0  3  0  0  0  0  0  0
  184.9900  179.0360  139.8040 C   0  0  0  0  0  2  0  0  0  0  0  0
  182.5990  179.2490  140.6170 C   0  0  2  0  0  3  0  0  0  0  0  0
  181.6450  178.6970  141.4750 O   0  0  0  0  0  1  0  0  0  0  0  0
  182.0870  179.2730  139.1880 C   0  0  0  0  0  2  0  0  0  0  0  0
  181.5060  180.6310  138.8330 C   0  0  0  0  0  2  0  0  0  0  0  0
  180.8180  181.9510  136.7600 C   0  0  0  0  0  0  0  0  0  0  0  0
  181.2020  180.7310  137.4140 N   0  0  0  0  0  2  0  0  0  0  0  0
  180.6940  181.9640  135.5030 O   0  0  0  0  0  0  0  0  0  0  0  0
  180.5390  183.2000  137.5420 C   0  0  0  0  0  2  0  0  0  0  0  0
  181.3840  184.3280  137.0510 C   0  0  0  0  0  0  0  0  0  0  0  0
  182.4500  184.6080  137.6530 O   0  0  0  0  0  1  0  0  0  0  0  0
  181.0250  185.0520  135.9220 O   0  0  0  0  0  0  0  0  0  0  0  0
  2  8  1  6  0  0  0
  2  4  1  0  0  0  0
  2 11  1  0  0  0  0
  3  7  1  0  0  0  0
  4 21  1  6  0  0  0
  4  9  1  0  0  0  0
  5 24  1  0  0  0  0
  6 14  1  0  0  0  0
  6  5  2  0  0  0  0
  8 15  1  0  0  0  0
  9 14  1  0  0  0  0
 10 16  1  0  0  0  0
 10 18  1  0  0  0  0
 11 27  1  1  0  0  0
 11  6  1  0  0  0  0
 12  5  1  0  0  0  0
 13 25  2  0  0  0  0
 14 10  2  0  0  0  0
 16  1  1  1  0  0  0
 16 13  1  0  0  0  0
 17  7  1  0  0  0  0
 17 15  1  0  0  0  0
 17 23  1  0  0  0  0
 18 25  1  0  0  0  0
 19  3  1  0  0  0  0
 20 17  1  0  0  0  0
 22 19  1  0  0  0  0
 22 20  1  0  0  0  0
 23 21  1  0  0  0  0
 24 18  2  0  0  0  0
 26 28  1  1  0  0  0
 26 12  1  0  0  0  0
 27 26  1  0  0  0  0
 28 29  1  1  0  0  0
 30 28  1  0  0  0  0
 31 30  1  0  0  0  0
 32 33  1  0  0  0  0
 32 35  1  0  0  0  0
 33 31  1  0  0  0  0
 34 32  2  0  0  0  0
 36 35  1  0  0  0  0
 36 37  1  0  0  0  0
 38 36  2  0  0  0  0
M  END
>  <MODEL>
4

>  <REMARK>
 VINA RESULT:      -7.9      4.031      8.567
  Name = 
  6 active torsions:
  status: ('A' for Active; 'I' for Inactive)
    1  A    between atoms: C_3  and  C_8
    2  A    between atoms: C_3  and  C_22
    3  A    between atoms: C_19  and  C_23
    4  A    between atoms: C_19  and  C_30
    5  A    between atoms: C_23  and  N_32
    6  A    between atoms: C_30  and  C_36
                            x       y       z     vdW  Elec       q    Type
                         _______ _______ _______ _____ _____    ______ ____

>  <TORSDO>
F 6

$$$$
=
 OpenBabel10222416233D

 38 43  0  0  1  0  0  0  0  0999 V2000
  191.3670  178.3350  143.0950 C   0  0  0  0  0  1  0  0  0  0  0  0
  187.1710  178.5710  139.2480 C   0  0  1  0  0  3  0  0  0  0  0  0
  190.2290  174.5460  136.1910 C   0  0  0  0  0  2  0  0  0  0  0  0
  188.6980  178.6870  139.4780 C   0  0  1  0  0  3  0  0  0  0  0  0
  186.3190  177.8540  142.9710 C   0  0  0  0  0  0  0  0  0  0  0  0
  187.0600  177.9470  141.7710 C   0  0  0  0  0  0  0  0  0  0  0  0
  189.1660  174.8610  137.2490 C   0  0  0  0  0  2  0  0  0  0  0  0
  186.7810  177.7950  137.9850 C   0  0  0  0  0  2  0  0  0  0  0  0
  189.2420  177.6880  140.5090 C   0  0  0  0  0  2  0  0  0  0  0  0
  189.0710  177.4260  143.0060 C   0  0  0  0  0  0  0  0  0  0  0  0
  186.3300  178.1000  140.4490 C   0  0  1  0  0  3  0  0  0  0  0  0
  184.8580  178.2120  143.0220 C   0  0  0  0  0  2  0  0  0  0  0  0
  190.4410  176.8120  144.7490 N   0  0  0  0  0  0  0  0  0  0  0  0
  188.4570  177.7240  141.7800 C   0  0  0  0  0  0  0  0  0  0  0  0
  187.4170  176.4110  137.9860 C   0  0  0  0  0  2  0  0  0  0  0  0
  190.4990  177.1080  143.3170 C   0  0  2  0  0  3  0  0  0  0  0  0
  188.7210  176.3250  137.1740 C   0  0  0  0  0  0  0  0  0  0  0  0
  188.3470  177.3530  144.1550 C   0  0  0  0  0  0  0  0  0  0  0  0
  189.7180  174.8160  134.9090 O   0  0  0  0  0  0  0  0  0  0  0  0
  188.4620  176.7120  135.7010 C   0  0  0  0  0  2  0  0  0  0  0  0
  189.5050  178.6260  138.1630 C   0  0  0  0  0  2  0  0  0  0  0  0
  189.6160  176.2230  134.8160 C   0  0  0  0  0  2  0  0  0  0  0  0
  189.8630  177.1880  137.7560 C   0  0  0  0  0  2  0  0  0  0  0  0
  186.9760  177.5650  144.1770 C   0  0  0  0  0  3  0  0  0  0  0  0
  189.2400  176.9600  145.2140 C   0  0  0  0  0  3  0  0  0  0  0  0
  184.1740  178.3010  141.6530 C   0  0  2  0  0  3  0  0  0  0  0  0
  185.0780  178.9500  140.6050 C   0  0  0  0  0  2  0  0  0  0  0  0
  182.8310  179.0180  141.7760 C   0  0  2  0  0  3  0  0  0  0  0  0
  182.3850  178.9710  143.0990 O   0  0  0  0  0  1  0  0  0  0  0  0
  181.7880  178.4390  140.8370 C   0  0  0  0  0  2  0  0  0  0  0  0
  181.5520  179.3500  139.6450 C   0  0  0  0  0  2  0  0  0  0  0  0
  181.5060  177.7830  137.6320 C   0  0  0  0  0  0  0  0  0  0  0  0
  180.8600  178.6590  138.5680 N   0  0  0  0  0  2  0  0  0  0  0  0
  180.8010  177.1320  136.8100 O   0  0  0  0  0  0  0  0  0  0  0  0
  182.9980  177.6430  137.5970 C   0  0  0  0  0  2  0  0  0  0  0  0
  183.4030  176.2380  137.8920 C   0  0  0  0  0  0  0  0  0  0  0  0
  184.0930  175.6050  137.0550 O   0  0  0  0  0  0  0  0  0  0  0  0
  183.0560  175.6300  139.0920 O   0  0  0  0  0  1  0  0  0  0  0  0
  2  8  1  6  0  0  0
  2  4  1  0  0  0  0
  2 11  1  0  0  0  0
  3  7  1  0  0  0  0
  4 21  1  6  0  0  0
  4  9  1  0  0  0  0
  5 12  1  0  0  0  0
  5 24  1  0  0  0  0
  6 14  1  0  0  0  0
  6  5  2  0  0  0  0
  8 15  1  0  0  0  0
  9 14  1  0  0  0  0
 10 16  1  0  0  0  0
 10 18  1  0  0  0  0
 11 27  1  1  0  0  0
 11  6  1  0  0  0  0
 13 25  2  0  0  0  0
 14 10  2  0  0  0  0
 16  1  1  1  0  0  0
 16 13  1  0  0  0  0
 17  7  1  0  0  0  0
 17 23  1  0  0  0  0
 17 15  1  0  0  0  0
 18 24  2  0  0  0  0
 18 25  1  0  0  0  0
 19  3  1  0  0  0  0
 20 17  1  0  0  0  0
 22 19  1  0  0  0  0
 22 20  1  0  0  0  0
 23 21  1  0  0  0  0
 26 28  1  1  0  0  0
 26 12  1  0  0  0  0
 27 26  1  0  0  0  0
 28 29  1  1  0  0  0
 30 28  1  0  0  0  0
 31 30  1  0  0  0  0
 32 33  1  0  0  0  0
 33 31  1  0  0  0  0
 34 32  2  0  0  0  0
 35 32  1  0  0  0  0
 35 36  1  0  0  0  0
 36 38  1  0  0  0  0
 37 36  2  0  0  0  0
M  END
>  <MODEL>
5

>  <REMARK>
 VINA RESULT:      -7.8      3.429      7.386
  Name = 
  6 active torsions:
  status: ('A' for Active; 'I' for Inactive)
    1  A    between atoms: C_3  and  C_8
    2  A    between atoms: C_3  and  C_22
    3  A    between atoms: C_19  and  C_23
    4  A    between atoms: C_19  and  C_30
    5  A    between atoms: C_23  and  N_32
    6  A    between atoms: C_30  and  C_36
                            x       y       z     vdW  Elec       q    Type
                         _______ _______ _______ _____ _____    ______ ____

>  <TORSDO>
F 6

$$$$
=
 OpenBabel10222416233D

 38 43  0  0  1  0  0  0  0  0999 V2000
  191.8510  177.9630  142.7010 C   0  0  0  0  0  1  0  0  0  0  0  0
  187.1670  178.6520  139.5300 C   0  0  1  0  0  3  0  0  0  0  0  0
  189.4880  174.6390  135.8680 C   0  0  0  0  0  2  0  0  0  0  0  0
  188.7150  178.6690  139.5380 C   0  0  1  0  0  3  0  0  0  0  0  0
  186.8170  177.7770  143.3000 C   0  0  0  0  0  0  0  0  0  0  0  0
  187.3810  177.8950  142.0090 C   0  0  0  0  0  0  0  0  0  0  0  0
  188.6110  174.9540  137.0850 C   0  0  0  0  0  2  0  0  0  0  0  0
  186.5500  177.9720  138.3030 C   0  0  0  0  0  2  0  0  0  0  0  0
  189.3370  177.5840  140.4290 C   0  0  0  0  0  2  0  0  0  0  0  0
  189.5120  177.1930  142.9080 C   0  0  0  0  0  0  0  0  0  0  0  0
  186.4800  178.1630  140.8180 C   0  0  1  0  0  3  0  0  0  0  0  0
  185.4040  178.2140  143.5820 C   0  0  0  0  0  2  0  0  0  0  0  0
  191.0770  176.4050  144.3990 N   0  0  0  0  0  0  0  0  0  0  0  0
  188.7480  177.5930  141.8010 C   0  0  0  0  0  0  0  0  0  0  0  0
  187.0900  176.5560  138.1450 C   0  0  0  0  0  2  0  0  0  0  0  0
  190.9460  176.7770  142.9910 C   0  0  2  0  0  3  0  0  0  0  0  0
  188.2550  176.4420  137.1460 C   0  0  0  0  0  0  0  0  0  0  0  0
  188.9580  177.0960  144.1470 C   0  0  0  0  0  0  0  0  0  0  0  0
  188.8160  175.0080  134.6900 O   0  0  0  0  0  0  0  0  0  0  0  0
  187.8120  176.9260  135.7480 C   0  0  0  0  0  2  0  0  0  0  0  0
  189.3190  178.6360  138.1170 C   0  0  0  0  0  2  0  0  0  0  0  0
  188.7920  176.4220  134.6800 C   0  0  0  0  0  2  0  0  0  0  0  0
  189.5210  177.2050  137.5930 C   0  0  0  0  0  2  0  0  0  0  0  0
  187.6210  177.3840  144.3810 C   0  0  0  0  0  3  0  0  0  0  0  0
  189.9670  176.5940  145.0430 C   0  0  0  0  0  3  0  0  0  0  0  0
  184.5380  178.4180  142.3340 C   0  0  2  0  0  3  0  0  0  0  0  0
  185.3210  179.0730  141.1970 C   0  0  0  0  0  2  0  0  0  0  0  0
  183.2750  179.2010  142.6880 C   0  0  2  0  0  3  0  0  0  0  0  0
  183.2990  179.5620  144.0370 O   0  0  0  0  0  1  0  0  0  0  0  0
  182.0120  178.4240  142.3620 C   0  0  0  0  0  2  0  0  0  0  0  0
  181.3510  178.9510  141.1000 C   0  0  0  0  0  2  0  0  0  0  0  0
  182.4960  178.8100  138.8230 C   0  0  0  0  0  0  0  0  0  0  0  0
  181.7850  178.2170  139.9210 N   0  0  0  0  0  2  0  0  0  0  0  0
  182.9390  178.0680  137.9010 O   0  0  0  0  0  0  0  0  0  0  0  0
  182.7020  180.2930  138.7390 C   0  0  0  0  0  2  0  0  0  0  0  0
  181.4910  180.9630  138.1810 C   0  0  0  0  0  0  0  0  0  0  0  0
  181.1920  180.7930  136.9740 O   0  0  0  0  0  0  0  0  0  0  0  0
  180.6730  181.7460  138.9850 O   0  0  0  0  0  1  0  0  0  0  0  0
  2  8  1  6  0  0  0
  2  4  1  0  0  0  0
  2 11  1  0  0  0  0
  3  7  1  0  0  0  0
  4 21  1  6  0  0  0
  4  9  1  0  0  0  0
  5 12  1  0  0  0  0
  5 24  1  0  0  0  0
  6  5  2  0  0  0  0
  7 17  1  0  0  0  0
  9 14  1  0  0  0  0
 10 16  1  0  0  0  0
 10 18  1  0  0  0  0
 11 27  1  1  0  0  0
 11  6  1  0  0  0  0
 13 25  2  0  0  0  0
 14  6  1  0  0  0  0
 14 10  2  0  0  0  0
 15  8  1  0  0  0  0
 16  1  1  1  0  0  0
 16 13  1  0  0  0  0
 17 23  1  0  0  0  0
 17 15  1  0  0  0  0
 18 24  2  0  0  0  0
 18 25  1  0  0  0  0
 19  3  1  0  0  0  0
 20 17  1  0  0  0  0
 22 19  1  0  0  0  0
 22 20  1  0  0  0  0
 23 21  1  0  0  0  0
 26 28  1  1  0  0  0
 26 12  1  0  0  0  0
 27 26  1  0  0  0  0
 28 29  1  1  0  0  0
 30 28  1  0  0  0  0
 31 30  1  0  0  0  0
 32 33  1  0  0  0  0
 33 31  1  0  0  0  0
 34 32  2  0  0  0  0
 35 32  1  0  0  0  0
 36 35  1  0  0  0  0
 36 38  1  0  0  0  0
 37 36  2  0  0  0  0
M  END
>  <MODEL>
6

>  <REMARK>
 VINA RESULT:      -7.8      3.306      7.182
  Name = 
  6 active torsions:
  status: ('A' for Active; 'I' for Inactive)
    1  A    between atoms: C_3  and  C_8
    2  A    between atoms: C_3  and  C_22
    3  A    between atoms: C_19  and  C_23
    4  A    between atoms: C_19  and  C_30
    5  A    between atoms: C_23  and  N_32
    6  A    between atoms: C_30  and  C_36
                            x       y       z     vdW  Elec       q    Type
                         _______ _______ _______ _____ _____    ______ ____

>  <TORSDO>
F 6

$$$$
=
 OpenBabel10222416233D

 38 43  0  0  1  0  0  0  0  0999 V2000
  185.8710  177.5210  136.6770 C   0  0  0  0  0  1  0  0  0  0  0  0
  190.7730  177.5530  139.5820 C   0  0  1  0  0  3  0  0  0  0  0  0
  187.5080  176.5670  144.4050 C   0  0  0  0  0  2  0  0  0  0  0  0
  189.3530  178.1600  139.4700 C   0  0  1  0  0  3  0  0  0  0  0  0
  190.3730  175.1870  136.5250 C   0  0  0  0  0  0  0  0  0  0  0  0
  190.0320  176.0170  137.6180 C   0  0  0  0  0  0  0  0  0  0  0  0
  188.3070  176.0060  143.2240 C   0  0  0  0  0  2  0  0  0  0  0  0
  191.2130  177.2380  141.0160 C   0  0  0  0  0  2  0  0  0  0  0  0
  188.2790  177.1420  139.0600 C   0  0  0  0  0  2  0  0  0  0  0  0
  187.7130  175.8960  136.9500 C   0  0  0  0  0  0  0  0  0  0  0  0
  191.0870  176.3670  138.6510 C   0  0  1  0  0  3  0  0  0  0  0  0
  191.8080  174.8940  136.1790 C   0  0  0  0  0  2  0  0  0  0  0  0
  185.8200  175.2490  135.8120 N   0  0  0  0  0  0  0  0  0  0  0  0
  188.6820  176.3750  137.8430 C   0  0  0  0  0  0  0  0  0  0  0  0
  190.2000  176.3310  141.7020 C   0  0  0  0  0  2  0  0  0  0  0  0
  186.2270  176.0690  136.9530 C   0  0  2  0  0  3  0  0  0  0  0  0
  189.1880  177.0830  142.5850 C   0  0  0  0  0  0  0  0  0  0  0  0
  188.0570  175.1080  135.8950 C   0  0  0  0  0  0  0  0  0  0  0  0
  188.3880  177.0850  145.3710 O   0  0  0  0  0  0  0  0  0  0  0  0
  189.9240  177.8720  143.6900 C   0  0  0  0  0  2  0  0  0  0  0  0
  188.9340  178.9320  140.7400 C   0  0  0  0  0  2  0  0  0  0  0  0
  188.9440  178.2560  144.8060 C   0  0  0  0  0  2  0  0  0  0  0  0
  188.2630  178.0280  141.7860 C   0  0  0  0  0  2  0  0  0  0  0  0
  189.3720  174.7380  135.6500 C   0  0  0  0  0  3  0  0  0  0  0  0
  186.8460  174.7220  135.2190 C   0  0  0  0  0  3  0  0  0  0  0  0
  192.8130  175.2270  137.2880 C   0  0  2  0  0  3  0  0  0  0  0  0
  192.4570  176.5270  138.0080 C   0  0  0  0  0  2  0  0  0  0  0  0
  194.2330  175.2500  136.7260 C   0  0  2  0  0  3  0  0  0  0  0  0
  194.6250  176.5670  136.4730 O   0  0  0  0  0  1  0  0  0  0  0  0
  194.3660  174.4000  135.4760 C   0  0  0  0  0  2  0  0  0  0  0  0
  195.6890  173.6530  135.4550 C   0  0  0  0  0  2  0  0  0  0  0  0
  197.9430  174.4990  136.2980 C   0  0  0  0  0  0  0  0  0  0  0  0
  196.8200  174.5650  135.4060 N   0  0  0  0  0  2  0  0  0  0  0  0
  198.9350  175.2560  136.0990 O   0  0  0  0  0  0  0  0  0  0  0  0
  197.9510  173.5670  137.4730 C   0  0  0  0  0  2  0  0  0  0  0  0
  197.1710  174.1420  138.6080 C   0  0  0  0  0  0  0  0  0  0  0  0
  197.5340  175.2300  139.1180 O   0  0  0  0  0  1  0  0  0  0  0  0
  196.0320  173.5080  139.0870 O   0  0  0  0  0  0  0  0  0  0  0  0
  2  8  1  1  0  0  0
  3 19  1  0  0  0  0
  4  9  1  1  0  0  0
  4  2  1  0  0  0  0
  4 21  1  0  0  0  0
  5  6  1  0  0  0  0
  6 14  2  0  0  0  0
  6 11  1  0  0  0  0
  7  3  1  0  0  0  0
  8 15  1  0  0  0  0
 10 16  1  0  0  0  0
 10 14  1  0  0  0  0
 11 27  1  6  0  0  0
 11  2  1  0  0  0  0
 12  5  1  0  0  0  0
 12 26  1  0  0  0  0
 13 16  1  0  0  0  0
 14  9  1  0  0  0  0
 15 17  1  0  0  0  0
 16  1  1  6  0  0  0
 17  7  1  0  0  0  0
 17 20  1  0  0  0  0
 18 10  2  0  0  0  0
 20 22  1  0  0  0  0
 21 23  1  0  0  0  0
 22 19  1  0  0  0  0
 23 17  1  0  0  0  0
 24 18  1  0  0  0  0
 24  5  2  0  0  0  0
 25 13  2  0  0  0  0
 25 18  1  0  0  0  0
 26 28  1  6  0  0  0
 26 27  1  0  0  0  0
 28 29  1  6  0  0  0
 30 28  1  0  0  0  0
 31 30  1  0  0  0  0
 32 35  1  0  0  0  0
 33 31  1  0  0  0  0
 33 32  1  0  0  0  0
 34 32  2  0  0  0  0
 35 36  1  0  0  0  0
 36 38  2  0  0  0  0
 36 37  1  0  0  0  0
M  END
>  <MODEL>
7

>  <REMARK>
 VINA RESULT:      -7.5      5.159      9.342
  Name = 
  6 active torsions:
  status: ('A' for Active; 'I' for Inactive)
    1  A    between atoms: C_3  and  C_8
    2  A    between atoms: C_3  and  C_22
    3  A    between atoms: C_19  and  C_23
    4  A    between atoms: C_19  and  C_30
    5  A    between atoms: C_23  and  N_32
    6  A    between atoms: C_30  and  C_36
                            x       y       z     vdW  Elec       q    Type
                         _______ _______ _______ _____ _____    ______ ____

>  <TORSDO>
F 6

$$$$
=
 OpenBabel10222416233D

 38 43  0  0  1  0  0  0  0  0999 V2000
  187.4920  179.2880  136.5200 C   0  0  0  0  0  1  0  0  0  0  0  0
  182.9290  178.2460  139.7700 C   0  0  1  0  0  3  0  0  0  0  0  0
  181.6830  173.8750  135.9970 C   0  0  0  0  0  2  0  0  0  0  0  0
  183.4330  178.5410  138.3360 C   0  0  1  0  0  3  0  0  0  0  0  0
  186.4550  178.3730  141.4010 C   0  0  0  0  0  0  0  0  0  0  0  0
  185.4490  178.2370  140.4160 C   0  0  0  0  0  0  0  0  0  0  0  0
  182.3850  174.3450  137.2750 C   0  0  0  0  0  2  0  0  0  0  0  0
  181.8500  177.1610  139.8490 C   0  0  0  0  0  2  0  0  0  0  0  0
  184.7720  177.8660  138.0030 C   0  0  0  0  0  2  0  0  0  0  0  0
  187.1630  178.1970  138.7130 C   0  0  0  0  0  0  0  0  0  0  0  0
  184.0110  178.0080  140.8410 C   0  0  1  0  0  3  0  0  0  0  0  0
  186.1110  178.6100  142.8470 C   0  0  0  0  0  2  0  0  0  0  0  0
  189.2490  178.1340  137.7430 N   0  0  0  0  0  0  0  0  0  0  0  0
  185.8020  178.1400  139.0500 C   0  0  0  0  0  0  0  0  0  0  0  0
  182.3310  175.8750  139.1890 C   0  0  0  0  0  2  0  0  0  0  0  0
  187.8320  178.0820  137.3800 C   0  0  2  0  0  3  0  0  0  0  0  0
  181.8540  175.7060  137.7360 C   0  0  0  0  0  0  0  0  0  0  0  0
  188.1190  178.3410  139.6700 C   0  0  0  0  0  0  0  0  0  0  0  0
  180.2980  173.7860  136.2200 O   0  0  0  0  0  0  0  0  0  0  0  0
  180.3100  175.7070  137.6750 C   0  0  0  0  0  2  0  0  0  0  0  0
  182.3710  178.2340  137.2570 C   0  0  0  0  0  2  0  0  0  0  0  0
  179.8340  175.1170  136.3400 C   0  0  0  0  0  2  0  0  0  0  0  0
  182.4220  176.7750  136.7760 C   0  0  0  0  0  2  0  0  0  0  0  0
  187.8030  178.4370  141.0180 C   0  0  0  0  0  3  0  0  0  0  0  0
  189.4040  178.2880  139.0210 C   0  0  0  0  0  3  0  0  0  0  0  0
  184.6530  178.3120  143.2140 C   0  0  2  0  0  3  0  0  0  0  0  0
  183.6850  178.7640  142.1210 C   0  0  0  0  0  2  0  0  0  0  0  0
  184.3130  178.9220  144.5720 C   0  0  2  0  0  3  0  0  0  0  0  0
  183.5620  180.0870  144.3970 O   0  0  0  0  0  1  0  0  0  0  0  0
  185.5550  179.2020  145.3990 C   0  0  0  0  0  2  0  0  0  0  0  0
  186.0370  177.9500  146.1110 C   0  0  0  0  0  2  0  0  0  0  0  0
  188.3620  177.2040  145.3700 C   0  0  0  0  0  0  0  0  0  0  0  0
  186.9300  177.1660  145.2730 N   0  0  0  0  0  2  0  0  0  0  0  0
  189.0490  176.3960  144.6850 O   0  0  0  0  0  0  0  0  0  0  0  0
  189.0560  178.2000  146.2500 C   0  0  0  0  0  2  0  0  0  0  0  0
  189.4170  177.5850  147.5610 C   0  0  0  0  0  0  0  0  0  0  0  0
  190.3970  176.8020  147.6270 O   0  0  0  0  0  0  0  0  0  0  0  0
  188.7040  177.8880  148.7140 O   0  0  0  0  0  1  0  0  0  0  0  0
  2  8  1  6  0  0  0
  2 11  1  0  0  0  0
  3 19  1  0  0  0  0
  3  7  1  0  0  0  0
  4 21  1  6  0  0  0
  4  2  1  0  0  0  0
  5 12  1  0  0  0  0
  6 11  1  0  0  0  0
  6  5  2  0  0  0  0
  7 17  1  0  0  0  0
  9  4  1  0  0  0  0
  9 14  1  0  0  0  0
 10 14  2  0  0  0  0
 10 18  1  0  0  0  0
 11 27  1  1  0  0  0
 12 26  1  0  0  0  0
 13 25  2  0  0  0  0
 14  6  1  0  0  0  0
 15  8  1  0  0  0  0
 16  1  1  6  0  0  0
 16 13  1  0  0  0  0
 16 10  1  0  0  0  0
 17 15  1  0  0  0  0
 18 24  2  0  0  0  0
 19 22  1  0  0  0  0
 20 17  1  0  0  0  0
 22 20  1  0  0  0  0
 23 21  1  0  0  0  0
 23 17  1  0  0  0  0
 24  5  1  0  0  0  0
 25 18  1  0  0  0  0
 26 28  1  1  0  0  0
 27 26  1  0  0  0  0
 28 29  1  6  0  0  0
 28 30  1  0  0  0  0
 30 31  1  0  0  0  0
 32 35  1  0  0  0  0
 33 32  1  0  0  0  0
 33 31  1  0  0  0  0
 34 32  2  0  0  0  0
 35 36  1  0  0  0  0
 36 37  2  0  0  0  0
 36 38  1  0  0  0  0
M  END
>  <MODEL>
8

>  <REMARK>
 VINA RESULT:      -7.4      1.716      2.605
  Name = 
  6 active torsions:
  status: ('A' for Active; 'I' for Inactive)
    1  A    between atoms: C_3  and  C_8
    2  A    between atoms: C_3  and  C_22
    3  A    between atoms: C_19  and  C_23
    4  A    between atoms: C_19  and  C_30
    5  A    between atoms: C_23  and  N_32
    6  A    between atoms: C_30  and  C_36
                            x       y       z     vdW  Elec       q    Type
                         _______ _______ _______ _____ _____    ______ ____

>  <TORSDO>
F 6

$$$$
=
 OpenBabel10222416233D

 38 43  0  0  1  0  0  0  0  0999 V2000
  186.3980  178.2140  134.6540 C   0  0  0  0  0  1  0  0  0  0  0  0
  185.6800  179.1000  140.2370 C   0  0  1  0  0  3  0  0  0  0  0  0
  180.3340  176.6770  139.5720 C   0  0  0  0  0  2  0  0  0  0  0  0
  185.0950  179.3360  138.8230 C   0  0  1  0  0  3  0  0  0  0  0  0
  188.7990  177.1430  138.9930 C   0  0  0  0  0  0  0  0  0  0  0  0
  187.5010  177.7040  139.0110 C   0  0  0  0  0  0  0  0  0  0  0  0
  181.8260  176.5010  139.8750 C   0  0  0  0  0  2  0  0  0  0  0  0
  184.6390  178.7170  141.2950 C   0  0  0  0  0  2  0  0  0  0  0  0
  185.2800  178.1420  137.8740 C   0  0  0  0  0  2  0  0  0  0  0  0
  187.2330  177.0880  136.6900 C   0  0  0  0  0  0  0  0  0  0  0  0
  186.9040  178.1690  140.3260 C   0  0  1  0  0  3  0  0  0  0  0  0
  189.7280  177.2740  140.1700 C   0  0  0  0  0  2  0  0  0  0  0  0
  187.6680  176.1410  134.6390 N   0  0  0  0  0  0  0  0  0  0  0  0
  186.6980  177.6740  137.8470 C   0  0  0  0  0  0  0  0  0  0  0  0
  183.8420  177.4980  140.8480 C   0  0  0  0  0  2  0  0  0  0  0  0
  186.6180  176.8760  135.3430 C   0  0  2  0  0  3  0  0  0  0  0  0
  182.4920  177.8430  140.1950 C   0  0  0  0  0  0  0  0  0  0  0  0
  188.4890  176.5630  136.6830 C   0  0  0  0  0  0  0  0  0  0  0  0
  179.6910  177.2670  140.6740 O   0  0  0  0  0  0  0  0  0  0  0  0
  181.6060  178.6370  141.1810 C   0  0  0  0  0  2  0  0  0  0  0  0
  183.6220  179.7970  138.8570 C   0  0  0  0  0  2  0  0  0  0  0  0
  180.1430  178.6060  140.7200 C   0  0  0  0  0  2  0  0  0  0  0  0
  182.6340  178.6200  138.8680 C   0  0  0  0  0  2  0  0  0  0  0  0
  189.2990  176.5770  137.8100 C   0  0  0  0  0  3  0  0  0  0  0  0
  188.7140  175.9760  135.3880 C   0  0  0  0  0  3  0  0  0  0  0  0
  189.0470  177.6990  141.4760 C   0  0  2  0  0  3  0  0  0  0  0  0
  187.9700  178.7570  141.2400 C   0  0  0  0  0  2  0  0  0  0  0  0
  190.0910  178.1580  142.4920 C   0  0  2  0  0  3  0  0  0  0  0  0
  191.3730  177.8480  142.0330 O   0  0  0  0  0  1  0  0  0  0  0  0
  189.8520  177.5580  143.8660 C   0  0  0  0  0  2  0  0  0  0  0  0
  190.9240  177.9910  144.8520 C   0  0  0  0  0  2  0  0  0  0  0  0
  190.8360  176.7300  147.0680 C   0  0  0  0  0  0  0  0  0  0  0  0
  191.3210  176.8990  145.7270 N   0  0  0  0  0  2  0  0  0  0  0  0
  191.1420  175.6840  147.7070 O   0  0  0  0  0  0  0  0  0  0  0  0
  189.9950  177.7790  147.7310 C   0  0  0  0  0  2  0  0  0  0  0  0
  188.5530  177.3960  147.7000 C   0  0  0  0  0  0  0  0  0  0  0  0
  187.9870  177.0330  148.7600 O   0  0  0  0  0  1  0  0  0  0  0  0
  187.8200  177.4660  146.5220 O   0  0  0  0  0  0  0  0  0  0  0  0
  2 11  1  0  0  0  0
  2  8  1  1  0  0  0
  3  7  1  0  0  0  0
  3 19  1  0  0  0  0
  4  9  1  6  0  0  0
  4 21  1  0  0  0  0
  4  2  1  0  0  0  0
  5  6  1  0  0  0  0
  5 12  1  0  0  0  0
  6 11  1  0  0  0  0
  7 17  1  0  0  0  0
 10 14  1  0  0  0  0
 11 27  1  6  0  0  0
 12 26  1  0  0  0  0
 13 16  1  0  0  0  0
 13 25  2  0  0  0  0
 14  9  1  0  0  0  0
 14  6  2  0  0  0  0
 15  8  1  0  0  0  0
 16  1  1  6  0  0  0
 16 10  1  0  0  0  0
 17 15  1  0  0  0  0
 17 20  1  0  0  0  0
 18 10  2  0  0  0  0
 18 24  1  0  0  0  0
 19 22  1  0  0  0  0
 21 23  1  0  0  0  0
 22 20  1  0  0  0  0
 23 17  1  0  0  0  0
 24  5  2  0  0  0  0
 25 18  1  0  0  0  0
 26 28  1  1  0  0  0
 27 26  1  0  0  0  0
 28 29  1  6  0  0  0
 28 30  1  0  0  0  0
 30 31  1  0  0  0  0
 31 33  1  0  0  0  0
 32 34  2  0  0  0  0
 32 35  1  0  0  0  0
 33 32  1  0  0  0  0
 36 35  1  0  0  0  0
 36 37  1  0  0  0  0
 38 36  2  0  0  0  0
M  END
>  <MODEL>
9

>  <REMARK>
 VINA RESULT:      -7.4      2.305      3.729
  Name = 
  6 active torsions:
  status: ('A' for Active; 'I' for Inactive)
    1  A    between atoms: C_3  and  C_8
    2  A    between atoms: C_3  and  C_22
    3  A    between atoms: C_19  and  C_23
    4  A    between atoms: C_19  and  C_30
    5  A    between atoms: C_23  and  N_32
    6  A    between atoms: C_30  and  C_36
                            x       y       z     vdW  Elec       q    Type
                         _______ _______ _______ _____ _____    ______ ____

>  <TORSDO>
F 6

$$$$
