=
 OpenBabel10222415333D

 54 59  0  0  1  0  0  0  0  0999 V2000
  189.0460  177.8280  143.8350 C   0  0  1  0  0  3  0  0  0  0  0  0
  188.6830  177.1860  142.5060 C   0  0  1  0  0  3  0  0  0  0  0  0
  187.6570  177.5070  144.3700 C   0  0  2  0  0  3  0  0  0  0  0  0
  187.3030  176.8540  143.0450 C   0  0  0  0  0  2  0  0  0  0  0  0
  189.0210  177.9040  140.0720 N   0  0  0  0  0  0  0  0  0  0  0  0
  189.2740  178.2890  138.6530 C   0  0  0  0  0  2  0  0  0  0  0  0
  189.4870  176.9700  139.0010 C   0  0  1  0  0  3  0  0  0  0  0  0
  188.6590  178.2200  141.4160 C   0  0  0  0  0  0  0  0  0  0  0  0
  188.3040  179.3940  141.6970 O   0  0  0  0  0  0  0  0  0  0  0  0
  191.6640  177.3690  139.8770 O   0  0  0  0  0  0  0  0  0  0  0  0
  190.9540  176.6830  139.1530 C   0  0  0  0  0  0  0  0  0  0  0  0
  191.5400  175.5040  138.4520 C   0  0  0  0  0  2  0  0  0  0  0  0
  192.7330  175.9040  137.7280 N   0  0  0  0  0  2  0  0  0  0  0  0
  193.3680  174.7220  137.3140 N   0  0  0  0  0  2  0  0  0  0  0  0
  194.6450  176.2870  134.9170 O   0  0  0  0  0  1  0  0  0  0  0  0
  197.4980  176.4620  135.9520 O   0  0  0  0  0  1  0  0  0  0  0  0
  194.9430  175.0250  135.4290 C   0  0  1  0  0  3  0  0  0  0  0  0
  196.3480  174.5980  134.9820 C   0  0  0  0  0  2  0  0  0  0  0  0
  195.7520  174.1150  137.6770 C   0  0  2  0  0  3  0  0  0  0  0  0
  197.4330  175.0650  135.9530 C   0  0  2  0  0  3  0  0  0  0  0  0
  195.5100  174.1010  139.0540 O   0  0  0  0  0  1  0  0  0  0  0  0
  197.7080  175.3980  138.3390 O   0  0  0  0  0  1  0  0  0  0  0  0
  197.2110  174.5110  137.3780 C   0  0  1  0  0  3  0  0  0  0  0  0
  194.7540  175.0310  136.9570 C   0  0  2  0  0  3  0  0  0  0  0  0
  186.9260  178.6990  144.5170 O   0  0  0  0  0  0  0  0  0  0  0  0
  185.6500  178.4150  145.0630 C   0  0  1  0  0  3  0  0  0  0  0  0
  186.6350  178.7820  147.3460 C   0  0  0  0  0  1  0  0  0  0  0  0
  184.3990  178.0110  147.0920 F   0  0  0  0  0  0  0  0  0  0  0  0
  185.6610  177.9600  146.5270 C   0  0  1  0  0  3  0  0  0  0  0  0
  184.5970  179.4870  144.7770 C   0  0  0  0  0  2  0  0  0  0  0  0
  182.7800  178.2620  141.7640 C   0  0  0  0  0  0  0  0  0  0  0  0
  181.8070  178.7330  142.4690 N   0  0  0  0  0  0  0  0  0  0  0  0
  185.0050  179.1760  141.6040 N   0  0  0  0  0  0  0  0  0  0  0  0
  183.7310  178.5640  139.6340 C   0  0  0  0  0  0  0  0  0  0  0  0
  184.8820  179.2220  140.3070 C   0  0  0  0  0  3  0  0  0  0  0  0
  182.3650  179.2010  143.6890 C   0  0  0  0  0  3  0  0  0  0  0  0
  182.7070  178.1680  140.3410 N   0  0  0  0  0  0  0  0  0  0  0  0
  183.6840  179.0550  143.6780 C   0  0  0  0  0  0  0  0  0  0  0  0
  184.1050  178.3680  142.4310 C   0  0  1  0  0  3  0  0  0  0  0  0
  183.6880  178.5190  138.1340 C   0  0  1  0  0  3  0  0  0  0  0  0
  184.5120  177.4290  137.6230 N   0  0  0  0  0  2  0  0  0  0  0  0
  185.8630  177.6020  137.1880 C   0  0  0  0  0  0  0  0  0  0  0  0
  186.5750  176.4890  136.6680 N   0  0  0  0  0  1  0  0  0  0  0  0
  186.4310  178.7220  137.2810 O   0  0  0  0  0  0  0  0  0  0  0  0
  182.2420  177.7560  136.2380 C   0  0  0  0  0  1  0  0  0  0  0  0
  182.2610  178.3420  137.6390 C   0  0  0  0  0  2  0  0  0  0  0  0
  190.1140  176.9860  144.5330 C   0  0  2  0  0  3  0  0  0  0  0  0
  191.8380  176.3670  143.0060 O   0  0  0  0  0  0  0  0  0  0  0  0
  191.9580  175.4200  144.0380 C   0  0  0  0  0  2  0  0  0  0  0  0
  190.6390  175.9130  143.5890 C   0  0  1  0  0  3  0  0  0  0  0  0
  189.5620  176.3760  145.6640 O   0  0  0  0  0  0  0  0  0  0  0  0
  189.9960  177.1510  146.7410 C   0  0  0  0  0  2  0  0  0  0  0  0
  191.7440  175.6140  147.6150 C   0  0  0  0  0  1  0  0  0  0  0  0
  191.4850  176.9520  146.9540 C   0  0  0  0  0  2  0  0  0  0  0  0
  1  3  1  0  0  0  0
  1 47  1  1  0  0  0
  2  8  1  6  0  0  0
  2  4  1  0  0  0  0
  2  1  1  0  0  0  0
  3 25  1  6  0  0  0
  4  3  1  0  0  0  0
  5  8  1  0  0  0  0
  6  7  1  0  0  0  0
  6  5  1  0  0  0  0
  7 11  1  1  0  0  0
  7  5  1  0  0  0  0
  8  9  2  0  0  0  0
 11 10  2  0  0  0  0
 12 11  1  0  0  0  0
 13 12  1  0  0  0  0
 14 13  1  0  0  0  0
 17 15  1  1  0  0  0
 17 24  1  0  0  0  0
 18 17  1  0  0  0  0
 18 20  1  0  0  0  0
 19 21  1  1  0  0  0
 20 16  1  1  0  0  0
 20 23  1  0  0  0  0
 23 19  1  0  0  0  0
 23 22  1  1  0  0  0
 24 14  1  6  0  0  0
 24 19  1  0  0  0  0
 25 26  1  0  0  0  0
 26 30  1  1  0  0  0
 26 29  1  0  0  0  0
 29 28  1  0  0  0  0
 29 27  1  1  0  0  0
 31 39  1  0  0  0  0
 31 32  2  0  0  0  0
 32 36  1  0  0  0  0
 34 35  1  0  0  0  0
 34 37  2  0  0  0  0
 35 33  2  0  0  0  0
 37 31  1  0  0  0  0
 38 36  2  0  0  0  0
 38 30  1  0  0  0  0
 39 33  1  6  0  0  0
 39 38  1  0  0  0  0
 40 46  1  1  0  0  0
 40 34  1  0  0  0  0
 41 40  1  0  0  0  0
 42 44  2  0  0  0  0
 42 41  1  0  0  0  0
 43 42  1  0  0  0  0
 45 46  1  0  0  0  0
 47 51  1  1  0  0  0
 48 50  1  0  0  0  0
 48 49  1  0  0  0  0
 50 49  1  0  0  0  0
 50 47  1  1  0  0  0
 51 52  1  0  0  0  0
 52 54  1  0  0  0  0
 54 53  1  0  0  0  0
M  END
>  <MODEL>
1

>  <REMARK>
 VINA RESULT:      -8.0      0.000      0.000
  Name = 
  19 active torsions:
  status: ('A' for Active; 'I' for Inactive)
    1  A    between atoms: C_2  and  C_7
    2  A    between atoms: C_2  and  C_39
    3  A    between atoms: C_3  and  C_24
    4  A    between atoms: C_3  and  O_26
    5  A    between atoms: N_4  and  C_21
    6  A    between atoms: C_5  and  C_15
    7  A    between atoms: C_5  and  O_26
    8  A    between atoms: C_5  and  C_45
    9  A    between atoms: C_7  and  N_16
   10  A    between atoms: N_8  and  N_16
   11  A    between atoms: N_8  and  C_46
   12  A    between atoms: C_21  and  C_25
   13  A    between atoms: C_21  and  C_36
   14  A    between atoms: C_22  and  C_41
   15  A    between atoms: O_23  and  C_42
   16  A    between atoms: O_23  and  C_47
   17  A    between atoms: C_33  and  C_42
   18  A    between atoms: C_33  and  C_51
   19  A    between atoms: C_42  and  C_53
                            x       y       z     vdW  Elec       q    Type
                         _______ _______ _______ _____ _____    ______ ____

>  <TORSDO>
F 19

$$$$
=
 OpenBabel10222415333D

 54 59  0  0  1  0  0  0  0  0999 V2000
  189.3650  177.4960  143.4020 C   0  0  1  0  0  3  0  0  0  0  0  0
  188.6900  176.9310  142.1620 C   0  0  1  0  0  3  0  0  0  0  0  0
  188.0950  177.2510  144.2050 C   0  0  2  0  0  3  0  0  0  0  0  0
  187.4280  176.6760  142.9670 C   0  0  0  0  0  2  0  0  0  0  0  0
  188.3980  177.6970  139.7360 N   0  0  0  0  0  0  0  0  0  0  0  0
  188.2750  178.1000  138.3060 C   0  0  0  0  0  2  0  0  0  0  0  0
  188.3460  176.7500  138.5800 C   0  0  1  0  0  3  0  0  0  0  0  0
  188.5220  178.0050  141.1240 C   0  0  0  0  0  0  0  0  0  0  0  0
  188.4830  179.2070  141.4930 O   0  0  0  0  0  0  0  0  0  0  0  0
  190.4260  175.7500  139.1630 O   0  0  0  0  0  0  0  0  0  0  0  0
  189.7150  176.2080  138.2790 C   0  0  0  0  0  0  0  0  0  0  0  0
  190.1900  176.1800  136.8650 C   0  0  0  0  0  2  0  0  0  0  0  0
  191.5610  176.6520  136.7970 N   0  0  0  0  0  2  0  0  0  0  0  0
  192.1710  175.9630  135.7360 N   0  0  0  0  0  2  0  0  0  0  0  0
  194.9740  177.3370  136.0150 O   0  0  0  0  0  1  0  0  0  0  0  0
  196.4140  175.1370  137.5410 O   0  0  0  0  0  1  0  0  0  0  0  0
  194.6150  176.1440  135.3910 C   0  0  1  0  0  3  0  0  0  0  0  0
  195.8530  175.2530  135.2150 C   0  0  0  0  0  2  0  0  0  0  0  0
  193.5590  173.9410  136.1450 C   0  0  2  0  0  3  0  0  0  0  0  0
  196.0980  174.3530  136.4270 C   0  0  2  0  0  3  0  0  0  0  0  0
  192.4770  173.3690  136.8200 O   0  0  0  0  0  1  0  0  0  0  0  0
  194.7980  173.1430  138.0780 O   0  0  0  0  0  1  0  0  0  0  0  0
  194.8970  173.4260  136.7110 C   0  0  1  0  0  3  0  0  0  0  0  0
  193.4770  175.4720  136.1810 C   0  0  2  0  0  3  0  0  0  0  0  0
  187.5010  178.4850  144.5270 O   0  0  0  0  0  0  0  0  0  0  0  0
  186.1690  178.2770  144.9630 C   0  0  1  0  0  3  0  0  0  0  0  0
  187.1350  178.2280  147.2830 C   0  0  0  0  0  1  0  0  0  0  0  0
  184.7960  177.9810  146.9300 F   0  0  0  0  0  0  0  0  0  0  0  0
  186.0350  177.7080  146.3800 C   0  0  1  0  0  3  0  0  0  0  0  0
  185.2360  179.4600  144.7030 C   0  0  0  0  0  2  0  0  0  0  0  0
  182.9200  178.3540  142.0010 C   0  0  0  0  0  0  0  0  0  0  0  0
  182.0900  178.8390  142.8610 N   0  0  0  0  0  0  0  0  0  0  0  0
  185.1210  179.2040  141.5000 N   0  0  0  0  0  0  0  0  0  0  0  0
  183.5280  178.6730  139.7520 C   0  0  0  0  0  0  0  0  0  0  0  0
  184.7930  179.2820  140.2410 C   0  0  0  0  0  3  0  0  0  0  0  0
  182.8500  179.2640  143.9830 C   0  0  0  0  0  3  0  0  0  0  0  0
  182.6180  178.2930  140.6070 N   0  0  0  0  0  0  0  0  0  0  0  0
  184.1450  179.0790  143.7580 C   0  0  0  0  0  0  0  0  0  0  0  0
  184.3380  178.4060  142.4490 C   0  0  1  0  0  3  0  0  0  0  0  0
  183.2440  178.6610  138.2770 C   0  0  1  0  0  3  0  0  0  0  0  0
  183.2370  177.2970  137.7610 N   0  0  0  0  0  2  0  0  0  0  0  0
  184.2700  176.7670  136.9260 C   0  0  0  0  0  0  0  0  0  0  0  0
  184.1580  175.4380  136.4380 N   0  0  0  0  0  1  0  0  0  0  0  0
  185.2850  177.4560  136.6400 O   0  0  0  0  0  0  0  0  0  0  0  0
  180.9520  178.3300  137.3260 C   0  0  0  0  0  1  0  0  0  0  0  0
  181.9040  179.3160  137.9790 C   0  0  0  0  0  2  0  0  0  0  0  0
  190.4860  176.5560  143.8440 C   0  0  2  0  0  3  0  0  0  0  0  0
  190.7720  177.3240  146.0830 O   0  0  0  0  0  0  0  0  0  0  0  0
  191.7820  176.3570  145.9370 C   0  0  0  0  0  2  0  0  0  0  0  0
  191.4080  177.2610  144.8290 C   0  0  1  0  0  3  0  0  0  0  0  0
  191.2250  176.1540  142.7270 O   0  0  0  0  0  0  0  0  0  0  0  0
  192.1180  177.2000  142.4880 C   0  0  0  0  0  2  0  0  0  0  0  0
  193.3500  177.3640  140.3340 C   0  0  0  0  0  1  0  0  0  0  0  0
  192.0330  177.6310  141.0350 C   0  0  0  0  0  2  0  0  0  0  0  0
  1 47  1  1  0  0  0
  1  3  1  0  0  0  0
  2  8  1  6  0  0  0
  2  4  1  0  0  0  0
  2  1  1  0  0  0  0
  3 25  1  6  0  0  0
  4  3  1  0  0  0  0
  5  8  1  0  0  0  0
  6  7  1  0  0  0  0
  6  5  1  0  0  0  0
  7 11  1  6  0  0  0
  7  5  1  0  0  0  0
  8  9  2  0  0  0  0
 11 10  2  0  0  0  0
 12 11  1  0  0  0  0
 13 12  1  0  0  0  0
 14 13  1  0  0  0  0
 17 15  1  1  0  0  0
 17 24  1  0  0  0  0
 18 17  1  0  0  0  0
 18 20  1  0  0  0  0
 19 24  1  0  0  0  0
 19 23  1  0  0  0  0
 19 21  1  1  0  0  0
 20 23  1  0  0  0  0
 20 16  1  1  0  0  0
 23 22  1  1  0  0  0
 24 14  1  6  0  0  0
 25 26  1  0  0  0  0
 26 30  1  1  0  0  0
 26 29  1  0  0  0  0
 29 28  1  0  0  0  0
 29 27  1  1  0  0  0
 31 39  1  0  0  0  0
 31 32  2  0  0  0  0
 32 36  1  0  0  0  0
 34 35  1  0  0  0  0
 34 37  2  0  0  0  0
 35 33  2  0  0  0  0
 37 31  1  0  0  0  0
 38 36  2  0  0  0  0
 38 30  1  0  0  0  0
 39 33  1  6  0  0  0
 39 38  1  0  0  0  0
 40 46  1  1  0  0  0
 40 34  1  0  0  0  0
 41 40  1  0  0  0  0
 42 41  1  0  0  0  0
 43 42  1  0  0  0  0
 44 42  2  0  0  0  0
 45 46  1  0  0  0  0
 47 51  1  6  0  0  0
 49 48  1  0  0  0  0
 50 47  1  6  0  0  0
 50 49  1  0  0  0  0
 50 48  1  0  0  0  0
 52 51  1  0  0  0  0
 53 54  1  0  0  0  0
 54 52  1  0  0  0  0
M  END
>  <MODEL>
2

>  <REMARK>
 VINA RESULT:      -7.7      1.368      2.171
  Name = 
  19 active torsions:
  status: ('A' for Active; 'I' for Inactive)
    1  A    between atoms: C_2  and  C_7
    2  A    between atoms: C_2  and  C_39
    3  A    between atoms: C_3  and  C_24
    4  A    between atoms: C_3  and  O_26
    5  A    between atoms: N_4  and  C_21
    6  A    between atoms: C_5  and  C_15
    7  A    between atoms: C_5  and  O_26
    8  A    between atoms: C_5  and  C_45
    9  A    between atoms: C_7  and  N_16
   10  A    between atoms: N_8  and  N_16
   11  A    between atoms: N_8  and  C_46
   12  A    between atoms: C_21  and  C_25
   13  A    between atoms: C_21  and  C_36
   14  A    between atoms: C_22  and  C_41
   15  A    between atoms: O_23  and  C_42
   16  A    between atoms: O_23  and  C_47
   17  A    between atoms: C_33  and  C_42
   18  A    between atoms: C_33  and  C_51
   19  A    between atoms: C_42  and  C_53
                            x       y       z     vdW  Elec       q    Type
                         _______ _______ _______ _____ _____    ______ ____

>  <TORSDO>
F 19

$$$$
=
 OpenBabel10222415333D

 54 59  0  0  1  0  0  0  0  0999 V2000
  188.5870  178.3440  143.6580 C   0  0  1  0  0  3  0  0  0  0  0  0
  188.5220  177.4230  142.4500 C   0  0  1  0  0  3  0  0  0  0  0  0
  187.2320  177.8280  144.1240 C   0  0  2  0  0  3  0  0  0  0  0  0
  187.1780  176.8990  142.9230 C   0  0  0  0  0  2  0  0  0  0  0  0
  188.9580  177.7450  139.9480 N   0  0  0  0  0  0  0  0  0  0  0  0
  189.2720  177.9100  138.4990 C   0  0  0  0  0  2  0  0  0  0  0  0
  189.6600  176.7310  139.1030 C   0  0  1  0  0  3  0  0  0  0  0  0
  188.4320  178.2270  141.1840 C   0  0  0  0  0  0  0  0  0  0  0  0
  187.8710  179.3520  141.2170 O   0  0  0  0  0  0  0  0  0  0  0  0
  191.5570  176.8220  140.5380 O   0  0  0  0  0  0  0  0  0  0  0  0
  191.1350  176.7340  139.3920 C   0  0  0  0  0  0  0  0  0  0  0  0
  192.0970  176.5690  138.2650 C   0  0  0  0  0  2  0  0  0  0  0  0
  193.4290  176.3190  138.7860 N   0  0  0  0  0  2  0  0  0  0  0  0
  194.2550  176.0680  137.6770 N   0  0  0  0  0  2  0  0  0  0  0  0
  195.9460  174.3020  139.6380 O   0  0  0  0  0  1  0  0  0  0  0  0
  195.2760  171.5690  138.4860 O   0  0  0  0  0  1  0  0  0  0  0  0
  196.0280  174.4410  138.2530 C   0  0  1  0  0  3  0  0  0  0  0  0
  196.7730  173.2420  137.6500 C   0  0  0  0  0  2  0  0  0  0  0  0
  194.4540  174.0190  136.2830 C   0  0  2  0  0  3  0  0  0  0  0  0
  195.8320  172.0850  137.3110 C   0  0  2  0  0  3  0  0  0  0  0  0
  193.1830  174.2820  135.7650 O   0  0  0  0  0  1  0  0  0  0  0  0
  193.5670  171.7670  136.5070 O   0  0  0  0  0  1  0  0  0  0  0  0
  194.7390  172.5040  136.3050 C   0  0  1  0  0  3  0  0  0  0  0  0
  194.6180  174.6500  137.6710 C   0  0  2  0  0  3  0  0  0  0  0  0
  186.2700  178.8430  143.9770 O   0  0  0  0  0  0  0  0  0  0  0  0
  185.1310  178.5420  144.7630 C   0  0  1  0  0  3  0  0  0  0  0  0
  185.9820  179.5340  146.9100 C   0  0  0  0  0  1  0  0  0  0  0  0
  184.2930  177.8590  146.9250 F   0  0  0  0  0  0  0  0  0  0  0  0
  185.4180  178.2930  146.2480 C   0  0  1  0  0  3  0  0  0  0  0  0
  183.9480  179.4830  144.5320 C   0  0  0  0  0  2  0  0  0  0  0  0
  182.2750  178.1260  141.4910 C   0  0  0  0  0  0  0  0  0  0  0  0
  181.2620  178.5570  142.1640 N   0  0  0  0  0  0  0  0  0  0  0  0
  184.4560  179.1490  141.3750 N   0  0  0  0  0  0  0  0  0  0  0  0
  183.2670  178.4460  139.3830 C   0  0  0  0  0  0  0  0  0  0  0  0
  184.3650  179.1710  140.0750 C   0  0  0  0  0  3  0  0  0  0  0  0
  181.7620  179.0700  143.3900 C   0  0  0  0  0  3  0  0  0  0  0  0
  182.2460  178.0090  140.0690 N   0  0  0  0  0  0  0  0  0  0  0  0
  183.0870  178.9910  143.4170 C   0  0  0  0  0  0  0  0  0  0  0  0
  183.5750  178.3080  142.1920 C   0  0  1  0  0  3  0  0  0  0  0  0
  183.2670  178.3780  137.8830 C   0  0  1  0  0  3  0  0  0  0  0  0
  183.8460  177.1220  137.4190 N   0  0  0  0  0  2  0  0  0  0  0  0
  185.2150  176.9860  137.0290 C   0  0  0  0  0  0  0  0  0  0  0  0
  185.6810  175.7310  136.5530 N   0  0  0  0  0  1  0  0  0  0  0  0
  186.0120  177.9560  137.1230 O   0  0  0  0  0  0  0  0  0  0  0  0
  181.3670  179.9450  137.4280 C   0  0  0  0  0  1  0  0  0  0  0  0
  181.8530  178.5090  137.3360 C   0  0  0  0  0  2  0  0  0  0  0  0
  189.7040  177.8810  144.5920 C   0  0  2  0  0  3  0  0  0  0  0  0
  191.2940  178.9400  143.1640 O   0  0  0  0  0  0  0  0  0  0  0  0
  192.0310  178.6650  144.3280 C   0  0  0  0  0  2  0  0  0  0  0  0
  191.0080  177.7280  143.8200 C   0  0  1  0  0  3  0  0  0  0  0  0
  189.3580  176.6510  145.1610 O   0  0  0  0  0  0  0  0  0  0  0  0
  189.8540  176.7040  146.4650 C   0  0  0  0  0  2  0  0  0  0  0  0
  188.5100  177.5330  148.3870 C   0  0  0  0  0  1  0  0  0  0  0  0
  189.3210  177.9370  147.1720 C   0  0  0  0  0  2  0  0  0  0  0  0
  1  3  1  0  0  0  0
  1 47  1  1  0  0  0
  2  8  1  6  0  0  0
  2  4  1  0  0  0  0
  2  1  1  0  0  0  0
  3 25  1  6  0  0  0
  4  3  1  0  0  0  0
  5  8  1  0  0  0  0
  6  7  1  0  0  0  0
  6  5  1  0  0  0  0
  7 11  1  1  0  0  0
  7  5  1  0  0  0  0
  8  9  2  0  0  0  0
 11 10  2  0  0  0  0
 12 13  1  0  0  0  0
 12 11  1  0  0  0  0
 14 13  1  0  0  0  0
 17 15  1  1  0  0  0
 18 17  1  0  0  0  0
 19 21  1  1  0  0  0
 19 23  1  0  0  0  0
 19 24  1  0  0  0  0
 20 18  1  0  0  0  0
 20 16  1  1  0  0  0
 23 22  1  1  0  0  0
 23 20  1  0  0  0  0
 24 14  1  6  0  0  0
 24 17  1  0  0  0  0
 25 26  1  0  0  0  0
 26 30  1  1  0  0  0
 26 29  1  0  0  0  0
 29 27  1  1  0  0  0
 29 28  1  0  0  0  0
 31 32  2  0  0  0  0
 31 39  1  0  0  0  0
 32 36  1  0  0  0  0
 34 37  2  0  0  0  0
 34 35  1  0  0  0  0
 35 33  2  0  0  0  0
 36 38  2  0  0  0  0
 37 31  1  0  0  0  0
 38 30  1  0  0  0  0
 39 33  1  6  0  0  0
 39 38  1  0  0  0  0
 40 46  1  1  0  0  0
 40 34  1  0  0  0  0
 41 40  1  0  0  0  0
 42 44  2  0  0  0  0
 42 41  1  0  0  0  0
 43 42  1  0  0  0  0
 46 45  1  0  0  0  0
 47 51  1  6  0  0  0
 48 50  1  0  0  0  0
 48 49  1  0  0  0  0
 50 49  1  0  0  0  0
 50 47  1  1  0  0  0
 51 52  1  0  0  0  0
 52 54  1  0  0  0  0
 54 53  1  0  0  0  0
M  END
>  <MODEL>
3

>  <REMARK>
 VINA RESULT:      -7.6      1.356      2.063
  Name = 
  19 active torsions:
  status: ('A' for Active; 'I' for Inactive)
    1  A    between atoms: C_2  and  C_7
    2  A    between atoms: C_2  and  C_39
    3  A    between atoms: C_3  and  C_24
    4  A    between atoms: C_3  and  O_26
    5  A    between atoms: N_4  and  C_21
    6  A    between atoms: C_5  and  C_15
    7  A    between atoms: C_5  and  O_26
    8  A    between atoms: C_5  and  C_45
    9  A    between atoms: C_7  and  N_16
   10  A    between atoms: N_8  and  N_16
   11  A    between atoms: N_8  and  C_46
   12  A    between atoms: C_21  and  C_25
   13  A    between atoms: C_21  and  C_36
   14  A    between atoms: C_22  and  C_41
   15  A    between atoms: O_23  and  C_42
   16  A    between atoms: O_23  and  C_47
   17  A    between atoms: C_33  and  C_42
   18  A    between atoms: C_33  and  C_51
   19  A    between atoms: C_42  and  C_53
                            x       y       z     vdW  Elec       q    Type
                         _______ _______ _______ _____ _____    ______ ____

>  <TORSDO>
F 19

$$$$
=
 OpenBabel10222415333D

 54 59  0  0  1  0  0  0  0  0999 V2000
  181.4810  177.6610  138.8940 C   0  0  1  0  0  3  0  0  0  0  0  0
  182.6210  177.0480  138.0970 C   0  0  1  0  0  3  0  0  0  0  0  0
  182.4850  178.4540  139.7190 C   0  0  2  0  0  3  0  0  0  0  0  0
  183.6200  177.8490  138.9120 C   0  0  0  0  0  2  0  0  0  0  0  0
  183.7170  174.7580  137.7670 N   0  0  0  0  0  0  0  0  0  0  0  0
  184.3610  173.4370  137.5120 C   0  0  0  0  0  2  0  0  0  0  0  0
  184.9210  174.5430  136.9050 C   0  0  1  0  0  3  0  0  0  0  0  0
  182.6990  175.5690  138.3520 C   0  0  0  0  0  0  0  0  0  0  0  0
  181.8460  175.0360  139.1080 O   0  0  0  0  0  0  0  0  0  0  0  0
  184.0040  173.6650  134.8920 O   0  0  0  0  0  0  0  0  0  0  0  0
  184.5460  174.6090  135.4510 C   0  0  0  0  0  0  0  0  0  0  0  0
  184.7920  175.8710  134.6940 C   0  0  0  0  0  2  0  0  0  0  0  0
  185.2470  176.9090  135.6020 N   0  0  0  0  0  2  0  0  0  0  0  0
  186.4850  177.3570  135.1120 N   0  0  0  0  0  2  0  0  0  0  0  0
  186.7190  178.9320  137.8110 O   0  0  0  0  0  1  0  0  0  0  0  0
  188.9480  177.3110  139.0960 O   0  0  0  0  0  1  0  0  0  0  0  0
  187.6640  178.7200  136.8080 C   0  0  1  0  0  3  0  0  0  0  0  0
  189.0760  178.9570  137.3600 C   0  0  0  0  0  2  0  0  0  0  0  0
  188.7850  176.6730  135.7640 C   0  0  2  0  0  3  0  0  0  0  0  0
  189.6820  177.6920  137.9680 C   0  0  2  0  0  3  0  0  0  0  0  0
  188.5560  175.4310  135.1640 O   0  0  0  0  0  1  0  0  0  0  0  0
  189.6570  175.3000  137.5710 O   0  0  0  0  0  1  0  0  0  0  0  0
  189.7730  176.5430  136.9400 C   0  0  1  0  0  3  0  0  0  0  0  0
  187.4640  177.3190  136.2000 C   0  0  2  0  0  3  0  0  0  0  0  0
  182.5170  177.9450  141.0300 O   0  0  0  0  0  0  0  0  0  0  0  0
  182.1180  178.9510  141.9450 C   0  0  1  0  0  3  0  0  0  0  0  0
  179.8980  180.0940  141.6590 C   0  0  0  0  0  1  0  0  0  0  0  0
  180.0260  177.7400  141.9720 F   0  0  0  0  0  0  0  0  0  0  0  0
  180.6290  178.9380  142.3100 C   0  0  1  0  0  3  0  0  0  0  0  0
  183.0320  179.0830  143.1640 C   0  0  0  0  0  2  0  0  0  0  0  0
  186.5640  177.9920  142.6980 C   0  0  0  0  0  0  0  0  0  0  0  0
  186.4520  178.8800  141.7690 N   0  0  0  0  0  0  0  0  0  0  0  0
  185.5510  178.0710  144.8850 N   0  0  0  0  0  0  0  0  0  0  0  0
  187.9030  177.5610  144.5830 C   0  0  0  0  0  0  0  0  0  0  0  0
  186.7280  177.9140  145.4240 C   0  0  0  0  0  3  0  0  0  0  0  0
  185.1140  179.3550  141.8060 C   0  0  0  0  0  3  0  0  0  0  0  0
  187.8240  177.6650  143.2840 N   0  0  0  0  0  0  0  0  0  0  0  0
  184.4480  178.7820  142.8010 C   0  0  0  0  0  0  0  0  0  0  0  0
  185.3110  177.7750  143.4690 C   0  0  1  0  0  3  0  0  0  0  0  0
  189.2130  177.2550  145.2490 C   0  0  1  0  0  3  0  0  0  0  0  0
  190.1700  178.3360  145.0360 N   0  0  0  0  0  2  0  0  0  0  0  0
  191.3510  178.1940  144.2430 C   0  0  0  0  0  0  0  0  0  0  0  0
  192.2450  179.2910  144.1240 N   0  0  0  0  0  1  0  0  0  0  0  0
  191.5940  177.1190  143.6340 O   0  0  0  0  0  0  0  0  0  0  0  0
  190.3330  176.6490  147.4050 C   0  0  0  0  0  1  0  0  0  0  0  0
  189.0240  177.0430  146.7430 C   0  0  0  0  0  2  0  0  0  0  0  0
  180.6630  178.5810  137.9880 C   0  0  2  0  0  3  0  0  0  0  0  0
  179.4590  176.8390  136.8920 O   0  0  0  0  0  0  0  0  0  0  0  0
  178.9340  178.0100  136.3190 C   0  0  0  0  0  2  0  0  0  0  0  0
  180.3670  177.8900  136.6640 C   0  0  1  0  0  3  0  0  0  0  0  0
  181.3820  179.7560  137.7440 O   0  0  0  0  0  0  0  0  0  0  0  0
  180.4640  180.7890  137.9400 C   0  0  0  0  0  2  0  0  0  0  0  0
  180.6140  181.4910  135.5590 C   0  0  0  0  0  1  0  0  0  0  0  0
  180.7700  181.9390  136.9980 C   0  0  0  0  0  2  0  0  0  0  0  0
  1 47  1  6  0  0  0
  1  3  1  0  0  0  0
  2  8  1  1  0  0  0
  2  1  1  0  0  0  0
  2  4  1  0  0  0  0
  3 25  1  1  0  0  0
  4  3  1  0  0  0  0
  5  8  1  0  0  0  0
  6  5  1  0  0  0  0
  7 11  1  6  0  0  0
  7  6  1  0  0  0  0
  7  5  1  0  0  0  0
  8  9  2  0  0  0  0
 10 11  2  0  0  0  0
 12 11  1  0  0  0  0
 12 13  1  0  0  0  0
 14 13  1  0  0  0  0
 17 18  1  0  0  0  0
 17 15  1  1  0  0  0
 18 20  1  0  0  0  0
 19 21  1  1  0  0  0
 19 24  1  0  0  0  0
 19 23  1  0  0  0  0
 20 16  1  1  0  0  0
 23 22  1  1  0  0  0
 23 20  1  0  0  0  0
 24 14  1  6  0  0  0
 24 17  1  0  0  0  0
 25 26  1  0  0  0  0
 26 29  1  0  0  0  0
 26 30  1  1  0  0  0
 28 29  1  0  0  0  0
 29 27  1  6  0  0  0
 31 37  1  0  0  0  0
 32 36  1  0  0  0  0
 32 31  2  0  0  0  0
 33 35  2  0  0  0  0
 34 40  1  0  0  0  0
 34 35  1  0  0  0  0
 36 38  2  0  0  0  0
 37 34  2  0  0  0  0
 38 30  1  0  0  0  0
 38 39  1  0  0  0  0
 39 31  1  6  0  0  0
 39 33  1  0  0  0  0
 40 46  1  1  0  0  0
 41 40  1  0  0  0  0
 42 41  1  0  0  0  0
 43 42  1  0  0  0  0
 44 42  2  0  0  0  0
 46 45  1  0  0  0  0
 47 51  1  6  0  0  0
 49 50  1  0  0  0  0
 49 48  1  0  0  0  0
 50 48  1  0  0  0  0
 50 47  1  1  0  0  0
 51 52  1  0  0  0  0
 53 54  1  0  0  0  0
 54 52  1  0  0  0  0
M  END
>  <MODEL>
4

>  <REMARK>
 VINA RESULT:      -7.5      3.893      8.830
  Name = 
  19 active torsions:
  status: ('A' for Active; 'I' for Inactive)
    1  A    between atoms: C_2  and  C_7
    2  A    between atoms: C_2  and  C_39
    3  A    between atoms: C_3  and  C_24
    4  A    between atoms: C_3  and  O_26
    5  A    between atoms: N_4  and  C_21
    6  A    between atoms: C_5  and  C_15
    7  A    between atoms: C_5  and  O_26
    8  A    between atoms: C_5  and  C_45
    9  A    between atoms: C_7  and  N_16
   10  A    between atoms: N_8  and  N_16
   11  A    between atoms: N_8  and  C_46
   12  A    between atoms: C_21  and  C_25
   13  A    between atoms: C_21  and  C_36
   14  A    between atoms: C_22  and  C_41
   15  A    between atoms: O_23  and  C_42
   16  A    between atoms: O_23  and  C_47
   17  A    between atoms: C_33  and  C_42
   18  A    between atoms: C_33  and  C_51
   19  A    between atoms: C_42  and  C_53
                            x       y       z     vdW  Elec       q    Type
                         _______ _______ _______ _____ _____    ______ ____

>  <TORSDO>
F 19

$$$$
=
 OpenBabel10222415333D

 54 59  0  0  1  0  0  0  0  0999 V2000
  188.8170  178.0310  143.5040 C   0  0  1  0  0  3  0  0  0  0  0  0
  189.2880  177.1230  142.3790 C   0  0  1  0  0  3  0  0  0  0  0  0
  187.7360  177.0230  143.8660 C   0  0  2  0  0  3  0  0  0  0  0  0
  188.2180  176.1120  142.7500 C   0  0  0  0  0  2  0  0  0  0  0  0
  189.6990  177.3200  139.8610 N   0  0  0  0  0  0  0  0  0  0  0  0
  190.0020  177.4280  138.4040 C   0  0  0  0  0  2  0  0  0  0  0  0
  190.6300  176.4220  139.1100 C   0  0  1  0  0  3  0  0  0  0  0  0
  189.0510  177.7760  141.0470 C   0  0  0  0  0  0  0  0  0  0  0  0
  188.2520  178.7450  140.9780 O   0  0  0  0  0  0  0  0  0  0  0  0
  192.3660  177.3880  140.4210 O   0  0  0  0  0  0  0  0  0  0  0  0
  192.0600  176.7800  139.4040 C   0  0  0  0  0  0  0  0  0  0  0  0
  193.1280  176.3340  138.4630 C   0  0  0  0  0  2  0  0  0  0  0  0
  192.6670  175.1850  137.7040 N   0  0  0  0  0  2  0  0  0  0  0  0
  193.0580  175.4010  136.3720 N   0  0  0  0  0  2  0  0  0  0  0  0
  195.1780  177.6600  135.8970 O   0  0  0  0  0  1  0  0  0  0  0  0
  197.6880  176.0830  136.5780 O   0  0  0  0  0  1  0  0  0  0  0  0
  195.0290  176.4200  135.2770 C   0  0  1  0  0  3  0  0  0  0  0  0
  196.3440  176.0160  134.5960 C   0  0  0  0  0  2  0  0  0  0  0  0
  195.0740  173.9820  136.0450 C   0  0  2  0  0  3  0  0  0  0  0  0
  197.2730  175.2480  135.5360 C   0  0  2  0  0  3  0  0  0  0  0  0
  194.5420  173.0660  136.9570 O   0  0  0  0  0  1  0  0  0  0  0  0
  197.0970  173.6490  137.3510 O   0  0  0  0  0  1  0  0  0  0  0  0
  196.6150  173.9590  136.0740 C   0  0  1  0  0  3  0  0  0  0  0  0
  194.5200  175.3890  136.3020 C   0  0  2  0  0  3  0  0  0  0  0  0
  186.4760  177.5500  143.5310 O   0  0  0  0  0  0  0  0  0  0  0  0
  185.7720  177.8980  144.7110 C   0  0  1  0  0  3  0  0  0  0  0  0
  186.1620  178.8460  147.0050 C   0  0  0  0  0  1  0  0  0  0  0  0
  186.4950  176.5320  146.5690 F   0  0  0  0  0  0  0  0  0  0  0  0
  186.5870  177.7910  146.0040 C   0  0  1  0  0  3  0  0  0  0  0  0
  184.9860  179.2050  144.6050 C   0  0  0  0  0  2  0  0  0  0  0  0
  182.1640  178.5210  142.2690 C   0  0  0  0  0  0  0  0  0  0  0  0
  181.5420  179.0580  143.2630 N   0  0  0  0  0  0  0  0  0  0  0  0
  184.3520  179.1240  141.4540 N   0  0  0  0  0  0  0  0  0  0  0  0
  182.4570  178.8760  139.9630 C   0  0  0  0  0  0  0  0  0  0  0  0
  183.8480  179.3030  140.2650 C   0  0  0  0  0  3  0  0  0  0  0  0
  182.5120  179.3330  144.2640 C   0  0  0  0  0  3  0  0  0  0  0  0
  181.6480  178.5660  140.9390 N   0  0  0  0  0  0  0  0  0  0  0  0
  183.7240  179.0050  143.8330 C   0  0  0  0  0  0  0  0  0  0  0  0
  183.6280  178.3800  142.4890 C   0  0  1  0  0  3  0  0  0  0  0  0
  181.9520  178.9720  138.5510 C   0  0  1  0  0  3  0  0  0  0  0  0
  182.0410  180.3420  138.0600 N   0  0  0  0  0  2  0  0  0  0  0  0
  181.0900  181.3580  138.3880 C   0  0  0  0  0  0  0  0  0  0  0  0
  181.2370  182.6560  137.8300 N   0  0  0  0  0  1  0  0  0  0  0  0
  180.1410  181.1210  139.1820 O   0  0  0  0  0  0  0  0  0  0  0  0
  181.8190  177.2290  136.7590 C   0  0  0  0  0  1  0  0  0  0  0  0
  182.7460  178.0570  137.6310 C   0  0  0  0  0  2  0  0  0  0  0  0
  189.8920  178.0980  144.5880 C   0  0  2  0  0  3  0  0  0  0  0  0
  191.0740  179.7190  143.2990 O   0  0  0  0  0  0  0  0  0  0  0  0
  191.7060  179.7740  144.5530 C   0  0  0  0  0  2  0  0  0  0  0  0
  191.2310  178.4980  143.9800 C   0  0  1  0  0  3  0  0  0  0  0  0
  190.0180  176.8460  145.1990 O   0  0  0  0  0  0  0  0  0  0  0  0
  190.5340  177.1140  146.4690 C   0  0  0  0  0  2  0  0  0  0  0  0
  189.4380  178.1850  148.4280 C   0  0  0  0  0  1  0  0  0  0  0  0
  189.4400  176.9780  147.5110 C   0  0  0  0  0  2  0  0  0  0  0  0
  1  3  1  0  0  0  0
  1 47  1  1  0  0  0
  2  8  1  6  0  0  0
  2  4  1  0  0  0  0
  2  1  1  0  0  0  0
  3 25  1  6  0  0  0
  4  3  1  0  0  0  0
  5  8  1  0  0  0  0
  6  7  1  0  0  0  0
  6  5  1  0  0  0  0
  7 11  1  1  0  0  0
  7  5  1  0  0  0  0
  9  8  2  0  0  0  0
 11 10  2  0  0  0  0
 12 11  1  0  0  0  0
 13 12  1  0  0  0  0
 14 13  1  0  0  0  0
 17 15  1  1  0  0  0
 17 24  1  0  0  0  0
 18 17  1  0  0  0  0
 18 20  1  0  0  0  0
 19 23  1  0  0  0  0
 19 24  1  0  0  0  0
 19 21  1  1  0  0  0
 20 23  1  0  0  0  0
 20 16  1  1  0  0  0
 23 22  1  1  0  0  0
 24 14  1  6  0  0  0
 25 26  1  0  0  0  0
 26 30  1  6  0  0  0
 26 29  1  0  0  0  0
 29 28  1  0  0  0  0
 29 27  1  1  0  0  0
 31 39  1  0  0  0  0
 31 32  2  0  0  0  0
 32 36  1  0  0  0  0
 34 35  1  0  0  0  0
 34 37  2  0  0  0  0
 35 33  2  0  0  0  0
 37 31  1  0  0  0  0
 38 36  2  0  0  0  0
 38 30  1  0  0  0  0
 39 33  1  6  0  0  0
 39 38  1  0  0  0  0
 40 46  1  6  0  0  0
 40 34  1  0  0  0  0
 41 42  1  0  0  0  0
 41 40  1  0  0  0  0
 42 44  2  0  0  0  0
 43 42  1  0  0  0  0
 45 46  1  0  0  0  0
 47 51  1  6  0  0  0
 48 50  1  0  0  0  0
 48 49  1  0  0  0  0
 50 49  1  0  0  0  0
 50 47  1  1  0  0  0
 51 52  1  0  0  0  0
 52 54  1  0  0  0  0
 54 53  1  0  0  0  0
M  END
>  <MODEL>
5

>  <REMARK>
 VINA RESULT:      -7.3      1.863      2.321
  Name = 
  19 active torsions:
  status: ('A' for Active; 'I' for Inactive)
    1  A    between atoms: C_2  and  C_7
    2  A    between atoms: C_2  and  C_39
    3  A    between atoms: C_3  and  C_24
    4  A    between atoms: C_3  and  O_26
    5  A    between atoms: N_4  and  C_21
    6  A    between atoms: C_5  and  C_15
    7  A    between atoms: C_5  and  O_26
    8  A    between atoms: C_5  and  C_45
    9  A    between atoms: C_7  and  N_16
   10  A    between atoms: N_8  and  N_16
   11  A    between atoms: N_8  and  C_46
   12  A    between atoms: C_21  and  C_25
   13  A    between atoms: C_21  and  C_36
   14  A    between atoms: C_22  and  C_41
   15  A    between atoms: O_23  and  C_42
   16  A    between atoms: O_23  and  C_47
   17  A    between atoms: C_33  and  C_42
   18  A    between atoms: C_33  and  C_51
   19  A    between atoms: C_42  and  C_53
                            x       y       z     vdW  Elec       q    Type
                         _______ _______ _______ _____ _____    ______ ____

>  <TORSDO>
F 19

$$$$
=
 OpenBabel10222415333D

 54 59  0  0  1  0  0  0  0  0999 V2000
  189.1300  177.9970  143.9650 C   0  0  1  0  0  3  0  0  0  0  0  0
  189.4200  177.0790  142.7890 C   0  0  1  0  0  3  0  0  0  0  0  0
  188.0430  177.0440  144.4410 C   0  0  2  0  0  3  0  0  0  0  0  0
  188.3450  176.1220  143.2720 C   0  0  0  0  0  2  0  0  0  0  0  0
  189.6460  177.3580  140.2540 N   0  0  0  0  0  0  0  0  0  0  0  0
  189.8420  177.5150  138.7830 C   0  0  0  0  0  2  0  0  0  0  0  0
  190.5490  176.5120  139.4150 C   0  0  1  0  0  3  0  0  0  0  0  0
  189.0690  177.7600  141.4960 C   0  0  0  0  0  0  0  0  0  0  0  0
  188.2370  178.7030  141.5110 O   0  0  0  0  0  0  0  0  0  0  0  0
  192.4280  177.1360  140.7370 O   0  0  0  0  0  0  0  0  0  0  0  0
  191.9840  176.9090  139.6190 C   0  0  0  0  0  0  0  0  0  0  0  0
  192.8950  176.9720  138.4390 C   0  0  0  0  0  2  0  0  0  0  0  0
  193.8080  175.8440  138.4610 N   0  0  0  0  0  2  0  0  0  0  0  0
  194.6020  175.9460  137.3060 N   0  0  0  0  0  2  0  0  0  0  0  0
  193.3140  173.1410  136.7620 O   0  0  0  0  0  1  0  0  0  0  0  0
  195.8020  171.6710  135.8170 O   0  0  0  0  0  1  0  0  0  0  0  0
  194.3310  173.5090  137.6410 C   0  0  1  0  0  3  0  0  0  0  0  0
  195.1490  172.2730  138.0410 C   0  0  0  0  0  2  0  0  0  0  0  0
  196.6550  174.5480  137.4050 C   0  0  2  0  0  3  0  0  0  0  0  0
  196.3060  172.0050  137.0780 C   0  0  2  0  0  3  0  0  0  0  0  0
  197.3750  175.6170  136.8630 O   0  0  0  0  0  1  0  0  0  0  0  0
  197.8760  173.2730  135.7340 O   0  0  0  0  0  1  0  0  0  0  0  0
  197.2810  173.1990  136.9980 C   0  0  1  0  0  3  0  0  0  0  0  0
  195.1760  174.6320  137.0110 C   0  0  2  0  0  3  0  0  0  0  0  0
  186.7830  177.6410  144.2550 O   0  0  0  0  0  0  0  0  0  0  0  0
  186.1230  177.7670  145.5030 C   0  0  1  0  0  3  0  0  0  0  0  0
  186.2590  179.0520  147.6590 C   0  0  0  0  0  1  0  0  0  0  0  0
  187.5850  177.1080  147.3110 F   0  0  0  0  0  0  0  0  0  0  0  0
  187.0220  178.1950  146.6680 C   0  0  1  0  0  3  0  0  0  0  0  0
  184.8130  178.5520  145.4370 C   0  0  0  0  0  2  0  0  0  0  0  0
  183.1190  179.0140  142.1500 C   0  0  0  0  0  0  0  0  0  0  0  0
  184.1450  178.3120  141.8070 N   0  0  0  0  0  0  0  0  0  0  0  0
  181.8580  178.8030  144.1950 N   0  0  0  0  0  0  0  0  0  0  0  0
  180.7730  178.8980  142.0290 C   0  0  0  0  0  0  0  0  0  0  0  0
  180.7690  178.6520  143.4950 C   0  0  0  0  0  3  0  0  0  0  0  0
  184.9160  178.0980  142.9810 C   0  0  0  0  0  3  0  0  0  0  0  0
  181.9090  179.0060  141.3940 N   0  0  0  0  0  0  0  0  0  0  0  0
  184.3100  178.6320  144.0340 C   0  0  0  0  0  0  0  0  0  0  0  0
  183.0830  179.3460  143.6000 C   0  0  1  0  0  3  0  0  0  0  0  0
  179.4760  178.8490  141.2740 C   0  0  1  0  0  3  0  0  0  0  0  0
  179.6440  179.3570  139.9180 N   0  0  0  0  0  2  0  0  0  0  0  0
  179.3370  180.7020  139.5390 C   0  0  0  0  0  0  0  0  0  0  0  0
  179.4950  181.0960  138.1840 N   0  0  0  0  0  1  0  0  0  0  0  0
  178.9510  181.5400  140.3950 O   0  0  0  0  0  0  0  0  0  0  0  0
  179.9790  176.4810  140.6340 C   0  0  0  0  0  1  0  0  0  0  0  0
  178.9410  177.4260  141.2130 C   0  0  0  0  0  2  0  0  0  0  0  0
  190.3230  177.9950  144.9200 C   0  0  2  0  0  3  0  0  0  0  0  0
  191.1850  179.4730  143.2590 O   0  0  0  0  0  0  0  0  0  0  0  0
  191.7500  179.9550  144.4520 C   0  0  0  0  0  2  0  0  0  0  0  0
  191.5680  178.5090  144.2100 C   0  0  1  0  0  3  0  0  0  0  0  0
  190.5550  176.6930  145.3740 O   0  0  0  0  0  0  0  0  0  0  0  0
  190.6770  176.8090  146.7600 C   0  0  0  0  0  2  0  0  0  0  0  0
  192.6000  175.9710  148.0950 C   0  0  0  0  0  1  0  0  0  0  0  0
  191.3570  175.5750  147.3250 C   0  0  0  0  0  2  0  0  0  0  0  0
  1  3  1  0  0  0  0
  1 47  1  1  0  0  0
  2  8  1  6  0  0  0
  2  4  1  0  0  0  0
  2  1  1  0  0  0  0
  3 25  1  6  0  0  0
  4  3  1  0  0  0  0
  5  8  1  0  0  0  0
  6  7  1  0  0  0  0
  6  5  1  0  0  0  0
  7 11  1  1  0  0  0
  7  5  1  0  0  0  0
  8  9  2  0  0  0  0
 11 10  2  0  0  0  0
 12 13  1  0  0  0  0
 12 11  1  0  0  0  0
 14 13  1  0  0  0  0
 17 15  1  6  0  0  0
 17 18  1  0  0  0  0
 19 21  1  6  0  0  0
 20 16  1  6  0  0  0
 20 18  1  0  0  0  0
 23 22  1  6  0  0  0
 23 20  1  0  0  0  0
 23 19  1  0  0  0  0
 24 14  1  1  0  0  0
 24 19  1  0  0  0  0
 24 17  1  0  0  0  0
 25 26  1  0  0  0  0
 26 30  1  6  0  0  0
 26 29  1  0  0  0  0
 29 28  1  0  0  0  0
 29 27  1  1  0  0  0
 32 31  2  0  0  0  0
 32 36  1  0  0  0  0
 34 35  1  0  0  0  0
 35 33  2  0  0  0  0
 36 38  2  0  0  0  0
 37 34  2  0  0  0  0
 37 31  1  0  0  0  0
 38 30  1  0  0  0  0
 39 31  1  6  0  0  0
 39 38  1  0  0  0  0
 39 33  1  0  0  0  0
 40 46  1  6  0  0  0
 40 34  1  0  0  0  0
 41 40  1  0  0  0  0
 42 41  1  0  0  0  0
 42 44  2  0  0  0  0
 43 42  1  0  0  0  0
 45 46  1  0  0  0  0
 47 51  1  6  0  0  0
 48 50  1  0  0  0  0
 48 49  1  0  0  0  0
 50 49  1  0  0  0  0
 50 47  1  1  0  0  0
 51 52  1  0  0  0  0
 52 54  1  0  0  0  0
 54 53  1  0  0  0  0
M  END
>  <MODEL>
6

>  <REMARK>
 VINA RESULT:      -6.8      2.345      3.272
  Name = 
  19 active torsions:
  status: ('A' for Active; 'I' for Inactive)
    1  A    between atoms: C_2  and  C_7
    2  A    between atoms: C_2  and  C_39
    3  A    between atoms: C_3  and  C_24
    4  A    between atoms: C_3  and  O_26
    5  A    between atoms: N_4  and  C_21
    6  A    between atoms: C_5  and  C_15
    7  A    between atoms: C_5  and  O_26
    8  A    between atoms: C_5  and  C_45
    9  A    between atoms: C_7  and  N_16
   10  A    between atoms: N_8  and  N_16
   11  A    between atoms: N_8  and  C_46
   12  A    between atoms: C_21  and  C_25
   13  A    between atoms: C_21  and  C_36
   14  A    between atoms: C_22  and  C_41
   15  A    between atoms: O_23  and  C_42
   16  A    between atoms: O_23  and  C_47
   17  A    between atoms: C_33  and  C_42
   18  A    between atoms: C_33  and  C_51
   19  A    between atoms: C_42  and  C_53
                            x       y       z     vdW  Elec       q    Type
                         _______ _______ _______ _____ _____    ______ ____

>  <TORSDO>
F 19

$$$$
=
 OpenBabel10222415333D

 54 59  0  0  1  0  0  0  0  0999 V2000
  181.9010  178.1310  139.4270 C   0  0  1  0  0  3  0  0  0  0  0  0
  183.0520  177.6510  140.2970 C   0  0  1  0  0  3  0  0  0  0  0  0
  182.3370  177.1780  138.3230 C   0  0  2  0  0  3  0  0  0  0  0  0
  183.4780  176.6920  139.2000 C   0  0  0  0  0  2  0  0  0  0  0  0
  184.8560  178.8180  141.6890 N   0  0  0  0  0  0  0  0  0  0  0  0
  185.8710  179.4870  142.5530 C   0  0  0  0  0  2  0  0  0  0  0  0
  185.3370  178.2980  143.0060 C   0  0  1  0  0  3  0  0  0  0  0  0
  184.0350  178.7650  140.5230 C   0  0  0  0  0  0  0  0  0  0  0  0
  184.1390  179.6710  139.6560 O   0  0  0  0  0  0  0  0  0  0  0  0
  183.1320  178.2530  143.9030 O   0  0  0  0  0  0  0  0  0  0  0  0
  184.3090  178.5400  144.0760 C   0  0  0  0  0  0  0  0  0  0  0  0
  184.7460  179.0900  145.3920 C   0  0  0  0  0  2  0  0  0  0  0  0
  186.1750  178.8950  145.5570 N   0  0  0  0  0  2  0  0  0  0  0  0
  186.3800  177.5100  145.6810 N   0  0  0  0  0  2  0  0  0  0  0  0
  187.6710  176.7300  148.4280 O   0  0  0  0  0  1  0  0  0  0  0  0
  190.4870  176.1220  147.4550 O   0  0  0  0  0  1  0  0  0  0  0  0
  187.9960  177.7530  147.5400 C   0  0  1  0  0  3  0  0  0  0  0  0
  189.4270  178.2410  147.8050 C   0  0  0  0  0  2  0  0  0  0  0  0
  188.7710  177.8740  145.1060 C   0  0  2  0  0  3  0  0  0  0  0  0
  190.4680  177.4490  147.0140 C   0  0  2  0  0  3  0  0  0  0  0  0
  188.4910  177.4640  143.8000 O   0  0  0  0  0  1  0  0  0  0  0  0
  190.6640  176.3700  144.8510 O   0  0  0  0  0  1  0  0  0  0  0  0
  190.2250  177.5340  145.4910 C   0  0  1  0  0  3  0  0  0  0  0  0
  187.7650  177.2730  146.0940 C   0  0  2  0  0  3  0  0  0  0  0  0
  182.8560  177.9180  137.2460 O   0  0  0  0  0  0  0  0  0  0  0  0
  182.7010  177.1860  136.0420 C   0  0  1  0  0  3  0  0  0  0  0  0
  180.3540  176.5300  135.4290 C   0  0  0  0  0  1  0  0  0  0  0  0
  180.9990  178.8180  135.5140 F   0  0  0  0  0  0  0  0  0  0  0  0
  181.4580  177.5470  135.2210 C   0  0  1  0  0  3  0  0  0  0  0  0
  183.9730  177.1000  135.1970 C   0  0  0  0  0  2  0  0  0  0  0  0
  186.7870  175.5740  137.1050 C   0  0  0  0  0  0  0  0  0  0  0  0
  186.2630  174.5320  136.5540 N   0  0  0  0  0  0  0  0  0  0  0  0
  186.9780  177.7690  136.1230 N   0  0  0  0  0  0  0  0  0  0  0  0
  188.8630  176.6770  137.1890 C   0  0  0  0  0  0  0  0  0  0  0  0
  188.2620  177.7450  136.3470 C   0  0  0  0  0  3  0  0  0  0  0  0
  185.1310  174.9730  135.8190 C   0  0  0  0  0  3  0  0  0  0  0  0
  188.1610  175.6180  137.4890 N   0  0  0  0  0  0  0  0  0  0  0  0
  185.0190  176.2930  135.8920 C   0  0  0  0  0  0  0  0  0  0  0  0
  186.0660  176.8380  136.7940 C   0  0  1  0  0  3  0  0  0  0  0  0
  190.3210  176.7540  137.5400 C   0  0  1  0  0  3  0  0  0  0  0  0
  190.5610  176.2300  138.8800 N   0  0  0  0  0  2  0  0  0  0  0  0
  190.2480  176.9520  140.0740 C   0  0  0  0  0  0  0  0  0  0  0  0
  190.5560  176.3770  141.3350 N   0  0  0  0  0  1  0  0  0  0  0  0
  189.6860  178.0780  140.0180 O   0  0  0  0  0  0  0  0  0  0  0  0
  192.6350  176.0580  136.8870 C   0  0  0  0  0  1  0  0  0  0  0  0
  191.1590  175.9740  136.5390 C   0  0  0  0  0  2  0  0  0  0  0  0
  180.5760  177.6880  140.0460 C   0  0  2  0  0  3  0  0  0  0  0  0
  180.2330  175.3330  139.8940 O   0  0  0  0  0  0  0  0  0  0  0  0
  178.9310  175.8470  140.0170 C   0  0  0  0  0  2  0  0  0  0  0  0
  179.9700  176.5500  139.2370 C   0  0  1  0  0  3  0  0  0  0  0  0
  179.6860  178.7670  140.0640 O   0  0  0  0  0  0  0  0  0  0  0  0
  180.4060  179.8390  139.5370 C   0  0  0  0  0  2  0  0  0  0  0  0
  179.8010  181.8080  138.1420 C   0  0  0  0  0  1  0  0  0  0  0  0
  179.7750  180.2960  138.2340 C   0  0  0  0  0  2  0  0  0  0  0  0
  1 47  1  1  0  0  0
  1  2  1  0  0  0  0
  2  8  1  6  0  0  0
  3 25  1  6  0  0  0
  3  4  1  0  0  0  0
  3  1  1  0  0  0  0
  4  2  1  0  0  0  0
  5  6  1  0  0  0  0
  5  7  1  0  0  0  0
  6  7  1  0  0  0  0
  7 11  1  1  0  0  0
  8  5  1  0  0  0  0
  9  8  2  0  0  0  0
 10 11  2  0  0  0  0
 11 12  1  0  0  0  0
 12 13  1  0  0  0  0
 13 14  1  0  0  0  0
 17 18  1  0  0  0  0
 17 15  1  1  0  0  0
 19 21  1  6  0  0  0
 19 23  1  0  0  0  0
 19 24  1  0  0  0  0
 20 16  1  1  0  0  0
 20 18  1  0  0  0  0
 23 22  1  6  0  0  0
 23 20  1  0  0  0  0
 24 14  1  6  0  0  0
 24 17  1  0  0  0  0
 26 30  1  6  0  0  0
 26 25  1  0  0  0  0
 29 27  1  1  0  0  0
 29 28  1  0  0  0  0
 29 26  1  0  0  0  0
 30 38  1  0  0  0  0
 31 37  1  0  0  0  0
 32 31  2  0  0  0  0
 33 35  2  0  0  0  0
 33 39  1  0  0  0  0
 34 37  2  0  0  0  0
 34 40  1  0  0  0  0
 35 34  1  0  0  0  0
 36 38  2  0  0  0  0
 36 32  1  0  0  0  0
 39 38  1  6  0  0  0
 39 31  1  0  0  0  0
 40 46  1  6  0  0  0
 40 41  1  0  0  0  0
 41 42  1  0  0  0  0
 42 43  1  0  0  0  0
 44 42  2  0  0  0  0
 46 45  1  0  0  0  0
 47 51  1  6  0  0  0
 48 49  1  0  0  0  0
 50 48  1  0  0  0  0
 50 49  1  0  0  0  0
 50 47  1  1  0  0  0
 52 51  1  0  0  0  0
 53 54  1  0  0  0  0
 54 52  1  0  0  0  0
M  END
>  <MODEL>
7

>  <REMARK>
 VINA RESULT:      -6.4      3.531      9.938
  Name = 
  19 active torsions:
  status: ('A' for Active; 'I' for Inactive)
    1  A    between atoms: C_2  and  C_7
    2  A    between atoms: C_2  and  C_39
    3  A    between atoms: C_3  and  C_24
    4  A    between atoms: C_3  and  O_26
    5  A    between atoms: N_4  and  C_21
    6  A    between atoms: C_5  and  C_15
    7  A    between atoms: C_5  and  O_26
    8  A    between atoms: C_5  and  C_45
    9  A    between atoms: C_7  and  N_16
   10  A    between atoms: N_8  and  N_16
   11  A    between atoms: N_8  and  C_46
   12  A    between atoms: C_21  and  C_25
   13  A    between atoms: C_21  and  C_36
   14  A    between atoms: C_22  and  C_41
   15  A    between atoms: O_23  and  C_42
   16  A    between atoms: O_23  and  C_47
   17  A    between atoms: C_33  and  C_42
   18  A    between atoms: C_33  and  C_51
   19  A    between atoms: C_42  and  C_53
                            x       y       z     vdW  Elec       q    Type
                         _______ _______ _______ _____ _____    ______ ____

>  <TORSDO>
F 19

$$$$
=
 OpenBabel10222415333D

 54 59  0  0  1  0  0  0  0  0999 V2000
  184.8540  176.6940  137.5420 C   0  0  1  0  0  3  0  0  0  0  0  0
  184.7180  175.9680  136.2130 C   0  0  1  0  0  3  0  0  0  0  0  0
  186.2040  177.2440  137.1040 C   0  0  2  0  0  3  0  0  0  0  0  0
  186.0580  176.5290  135.7720 C   0  0  0  0  0  2  0  0  0  0  0  0
  185.9360  173.7910  136.7870 N   0  0  0  0  0  0  0  0  0  0  0  0
  186.6940  172.5400  137.0830 C   0  0  0  0  0  2  0  0  0  0  0  0
  187.3950  173.7290  137.1070 C   0  0  1  0  0  3  0  0  0  0  0  0
  184.7400  174.4810  136.4250 C   0  0  0  0  0  0  0  0  0  0  0  0
  183.6720  173.8310  136.2880 O   0  0  0  0  0  0  0  0  0  0  0  0
  187.9260  173.3140  134.8240 O   0  0  0  0  0  0  0  0  0  0  0  0
  188.2170  173.8970  135.8600 C   0  0  0  0  0  0  0  0  0  0  0  0
  189.3750  174.8370  135.8740 C   0  0  0  0  0  2  0  0  0  0  0  0
  190.6140  174.0950  135.7310 N   0  0  0  0  0  2  0  0  0  0  0  0
  191.1660  173.9820  137.0180 N   0  0  0  0  0  2  0  0  0  0  0  0
  192.8760  176.4230  137.9850 O   0  0  0  0  0  1  0  0  0  0  0  0
  195.6450  175.2400  137.5610 O   0  0  0  0  0  1  0  0  0  0  0  0
  192.8340  175.7890  136.7440 C   0  0  1  0  0  3  0  0  0  0  0  0
  194.1050  176.1140  135.9480 C   0  0  0  0  0  2  0  0  0  0  0  0
  193.3110  173.4280  135.8880 C   0  0  2  0  0  3  0  0  0  0  0  0
  195.2360  175.1240  136.2290 C   0  0  2  0  0  3  0  0  0  0  0  0
  193.0230  172.0720  136.0670 O   0  0  0  0  0  1  0  0  0  0  0  0
  195.4980  172.7630  136.7150 O   0  0  0  0  0  1  0  0  0  0  0  0
  194.8330  173.6730  135.8870 C   0  0  1  0  0  3  0  0  0  0  0  0
  192.5970  174.2810  136.9440 C   0  0  2  0  0  3  0  0  0  0  0  0
  187.2240  176.6340  137.8560 O   0  0  0  0  0  0  0  0  0  0  0  0
  188.2410  177.5780  138.1410 C   0  0  1  0  0  3  0  0  0  0  0  0
  189.0890  179.8890  137.6320 C   0  0  0  0  0  1  0  0  0  0  0  0
  189.2380  178.1510  136.0150 F   0  0  0  0  0  0  0  0  0  0  0  0
  188.4640  178.6350  137.0540 C   0  0  1  0  0  3  0  0  0  0  0  0
  188.1630  178.1730  139.5470 C   0  0  0  0  0  2  0  0  0  0  0  0
  190.4130  176.6860  142.1190 C   0  0  0  0  0  0  0  0  0  0  0  0
  191.2550  176.9730  141.1840 N   0  0  0  0  0  0  0  0  0  0  0  0
  188.4720  177.9740  142.7410 N   0  0  0  0  0  0  0  0  0  0  0  0
  190.0570  177.1740  144.3920 C   0  0  0  0  0  0  0  0  0  0  0  0
  188.9050  178.0140  143.9700 C   0  0  0  0  0  3  0  0  0  0  0  0
  190.5100  177.5160  140.1030 C   0  0  0  0  0  3  0  0  0  0  0  0
  190.8040  176.5980  143.4890 N   0  0  0  0  0  0  0  0  0  0  0  0
  189.2260  177.6020  140.4260 C   0  0  0  0  0  0  0  0  0  0  0  0
  189.0040  177.0130  141.7710 C   0  0  1  0  0  3  0  0  0  0  0  0
  190.4460  177.1400  145.8420 C   0  0  1  0  0  3  0  0  0  0  0  0
  189.2770  176.9280  146.6880 N   0  0  0  0  0  2  0  0  0  0  0  0
  189.0740  177.6040  147.9320 C   0  0  0  0  0  0  0  0  0  0  0  0
  187.9240  177.3030  148.7080 N   0  0  0  0  0  1  0  0  0  0  0  0
  189.8910  178.4740  148.3320 O   0  0  0  0  0  0  0  0  0  0  0  0
  192.0290  176.1450  147.5070 C   0  0  0  0  0  1  0  0  0  0  0  0
  191.4600  176.0360  146.1030 C   0  0  0  0  0  2  0  0  0  0  0  0
  183.8070  177.8040  137.6260 C   0  0  2  0  0  3  0  0  0  0  0  0
  184.5810  178.4610  139.7840 O   0  0  0  0  0  0  0  0  0  0  0  0
  183.6730  179.4760  139.4380 C   0  0  0  0  0  2  0  0  0  0  0  0
  183.4300  178.0640  139.0780 C   0  0  1  0  0  3  0  0  0  0  0  0
  182.6660  177.4230  136.9130 O   0  0  0  0  0  0  0  0  0  0  0  0
  181.5940  177.7430  137.7490 C   0  0  0  0  0  2  0  0  0  0  0  0
  180.9760  179.7730  136.4520 C   0  0  0  0  0  1  0  0  0  0  0  0
  180.4990  178.4240  136.9490 C   0  0  0  0  0  2  0  0  0  0  0  0
  1 47  1  6  0  0  0
  2  8  1  1  0  0  0
  2  1  1  0  0  0  0
  3  1  1  0  0  0  0
  3 25  1  1  0  0  0
  4  2  1  0  0  0  0
  4  3  1  0  0  0  0
  5  6  1  0  0  0  0
  5  7  1  0  0  0  0
  6  7  1  0  0  0  0
  7 11  1  6  0  0  0
  8  5  1  0  0  0  0
  9  8  2  0  0  0  0
 10 11  2  0  0  0  0
 11 12  1  0  0  0  0
 13 12  1  0  0  0  0
 13 14  1  0  0  0  0
 17 24  1  0  0  0  0
 17 15  1  1  0  0  0
 18 20  1  0  0  0  0
 18 17  1  0  0  0  0
 19 21  1  1  0  0  0
 19 24  1  0  0  0  0
 20 16  1  1  0  0  0
 23 19  1  0  0  0  0
 23 20  1  0  0  0  0
 23 22  1  1  0  0  0
 24 14  1  6  0  0  0
 25 26  1  0  0  0  0
 26 30  1  1  0  0  0
 28 29  1  0  0  0  0
 29 27  1  1  0  0  0
 29 26  1  0  0  0  0
 30 38  1  0  0  0  0
 31 37  1  0  0  0  0
 32 31  2  0  0  0  0
 33 35  2  0  0  0  0
 34 40  1  0  0  0  0
 35 34  1  0  0  0  0
 36 38  2  0  0  0  0
 36 32  1  0  0  0  0
 37 34  2  0  0  0  0
 39 38  1  6  0  0  0
 39 31  1  0  0  0  0
 39 33  1  0  0  0  0
 40 46  1  6  0  0  0
 40 41  1  0  0  0  0
 41 42  1  0  0  0  0
 42 44  2  0  0  0  0
 42 43  1  0  0  0  0
 46 45  1  0  0  0  0
 47 51  1  6  0  0  0
 49 48  1  0  0  0  0
 50 47  1  6  0  0  0
 50 49  1  0  0  0  0
 50 48  1  0  0  0  0
 51 52  1  0  0  0  0
 53 54  1  0  0  0  0
 54 52  1  0  0  0  0
M  END
>  <MODEL>
8

>  <REMARK>
 VINA RESULT:      -6.3      3.359      8.340
  Name = 
  19 active torsions:
  status: ('A' for Active; 'I' for Inactive)
    1  A    between atoms: C_2  and  C_7
    2  A    between atoms: C_2  and  C_39
    3  A    between atoms: C_3  and  C_24
    4  A    between atoms: C_3  and  O_26
    5  A    between atoms: N_4  and  C_21
    6  A    between atoms: C_5  and  C_15
    7  A    between atoms: C_5  and  O_26
    8  A    between atoms: C_5  and  C_45
    9  A    between atoms: C_7  and  N_16
   10  A    between atoms: N_8  and  N_16
   11  A    between atoms: N_8  and  C_46
   12  A    between atoms: C_21  and  C_25
   13  A    between atoms: C_21  and  C_36
   14  A    between atoms: C_22  and  C_41
   15  A    between atoms: O_23  and  C_42
   16  A    between atoms: O_23  and  C_47
   17  A    between atoms: C_33  and  C_42
   18  A    between atoms: C_33  and  C_51
   19  A    between atoms: C_42  and  C_53
                            x       y       z     vdW  Elec       q    Type
                         _______ _______ _______ _____ _____    ______ ____

>  <TORSDO>
F 19

$$$$
=
 OpenBabel10222415333D

 54 59  0  0  1  0  0  0  0  0999 V2000
  182.3500  176.6130  137.5360 C   0  0  1  0  0  3  0  0  0  0  0  0
  182.3690  175.7470  136.2870 C   0  0  1  0  0  3  0  0  0  0  0  0
  183.6670  177.2510  137.1150 C   0  0  2  0  0  3  0  0  0  0  0  0
  183.6750  176.3940  135.8610 C   0  0  0  0  0  2  0  0  0  0  0  0
  183.7710  173.7540  137.0710 N   0  0  0  0  0  0  0  0  0  0  0  0
  184.6350  172.6110  137.4860 C   0  0  0  0  0  2  0  0  0  0  0  0
  185.2330  173.8500  137.3710 C   0  0  1  0  0  3  0  0  0  0  0  0
  182.5180  174.2990  136.6580 C   0  0  0  0  0  0  0  0  0  0  0  0
  181.5080  173.5510  136.6090 O   0  0  0  0  0  0  0  0  0  0  0  0
  185.8360  173.1780  135.1680 O   0  0  0  0  0  0  0  0  0  0  0  0
  186.0280  173.9500  136.0990 C   0  0  0  0  0  0  0  0  0  0  0  0
  187.0280  175.0460  135.9510 C   0  0  0  0  0  2  0  0  0  0  0  0
  188.3310  174.4860  135.6440 N   0  0  0  0  0  2  0  0  0  0  0  0
  188.7850  173.8570  136.8150 N   0  0  0  0  0  2  0  0  0  0  0  0
  190.6240  175.5530  138.7040 O   0  0  0  0  0  1  0  0  0  0  0  0
  193.3080  174.3530  137.9280 O   0  0  0  0  0  1  0  0  0  0  0  0
  190.6090  175.4540  137.3140 C   0  0  1  0  0  3  0  0  0  0  0  0
  191.9510  175.9310  136.7420 C   0  0  0  0  0  2  0  0  0  0  0  0
  190.9450  173.5700  135.6180 C   0  0  2  0  0  3  0  0  0  0  0  0
  192.9770  174.8010  136.6460 C   0  0  2  0  0  3  0  0  0  0  0  0
  190.5370  172.2860  135.2470 O   0  0  0  0  0  1  0  0  0  0  0  0
  193.0130  172.4220  136.1800 O   0  0  0  0  0  1  0  0  0  0  0  0
  192.4790  173.6430  135.7540 C   0  0  1  0  0  3  0  0  0  0  0  0
  190.2380  174.0160  136.9030 C   0  0  2  0  0  3  0  0  0  0  0  0
  184.6890  176.8250  137.9820 O   0  0  0  0  0  0  0  0  0  0  0  0
  185.4460  177.9430  138.4160 C   0  0  1  0  0  3  0  0  0  0  0  0
  187.8610  178.1530  137.7560 C   0  0  0  0  0  1  0  0  0  0  0  0
  186.1510  178.0420  136.1060 F   0  0  0  0  0  0  0  0  0  0  0  0
  186.4330  178.4950  137.3820 C   0  0  1  0  0  3  0  0  0  0  0  0
  184.6140  179.0330  139.0920 C   0  0  0  0  0  2  0  0  0  0  0  0
  185.0400  178.6700  142.7760 C   0  0  0  0  0  0  0  0  0  0  0  0
  183.8260  178.2610  142.6220 N   0  0  0  0  0  0  0  0  0  0  0  0
  186.8770  178.3050  141.2570 N   0  0  0  0  0  0  0  0  0  0  0  0
  187.0810  177.8750  143.6340 C   0  0  0  0  0  0  0  0  0  0  0  0
  187.5660  177.7820  142.2320 C   0  0  0  0  0  3  0  0  0  0  0  0
  183.5130  178.3920  141.2430 C   0  0  0  0  0  3  0  0  0  0  0  0
  185.8510  178.2420  143.8710 N   0  0  0  0  0  0  0  0  0  0  0  0
  184.5700  178.8290  140.5700 C   0  0  0  0  0  0  0  0  0  0  0  0
  185.6830  179.1160  141.5110 C   0  0  1  0  0  3  0  0  0  0  0  0
  187.9610  177.3830  144.7470 C   0  0  1  0  0  3  0  0  0  0  0  0
  189.2650  178.0360  144.7060 N   0  0  0  0  0  2  0  0  0  0  0  0
  190.4470  177.3990  144.2140 C   0  0  0  0  0  0  0  0  0  0  0  0
  191.6810  178.1010  144.2500 N   0  0  0  0  0  1  0  0  0  0  0  0
  190.4000  176.2370  143.7320 O   0  0  0  0  0  0  0  0  0  0  0  0
  188.3560  177.6440  147.2060 C   0  0  0  0  0  1  0  0  0  0  0  0
  187.3150  177.6390  146.1000 C   0  0  0  0  0  2  0  0  0  0  0  0
  181.1990  177.6140  137.4450 C   0  0  2  0  0  3  0  0  0  0  0  0
  180.6140  179.7570  136.5780 O   0  0  0  0  0  0  0  0  0  0  0  0
  181.1980  180.0550  137.8220 C   0  0  0  0  0  2  0  0  0  0  0  0
  181.7110  178.9650  136.9650 C   0  0  1  0  0  3  0  0  0  0  0  0
  180.6100  177.7650  138.7050 O   0  0  0  0  0  0  0  0  0  0  0  0
  180.2460  176.4730  139.0900 C   0  0  0  0  0  2  0  0  0  0  0  0
  179.9280  177.8320  141.1490 C   0  0  0  0  0  1  0  0  0  0  0  0
  180.0180  176.4260  140.5900 C   0  0  0  0  0  2  0  0  0  0  0  0
  1 47  1  6  0  0  0
  2  8  1  1  0  0  0
  2  1  1  0  0  0  0
  3  1  1  0  0  0  0
  3 25  1  1  0  0  0
  4  2  1  0  0  0  0
  4  3  1  0  0  0  0
  5  7  1  0  0  0  0
  5  6  1  0  0  0  0
  7 11  1  6  0  0  0
  7  6  1  0  0  0  0
  8  5  1  0  0  0  0
  9  8  2  0  0  0  0
 10 11  2  0  0  0  0
 12 11  1  0  0  0  0
 13 12  1  0  0  0  0
 13 14  1  0  0  0  0
 17 15  1  1  0  0  0
 18 17  1  0  0  0  0
 19 21  1  1  0  0  0
 19 23  1  0  0  0  0
 19 24  1  0  0  0  0
 20 18  1  0  0  0  0
 20 16  1  1  0  0  0
 23 22  1  1  0  0  0
 23 20  1  0  0  0  0
 24 14  1  6  0  0  0
 24 17  1  0  0  0  0
 25 26  1  0  0  0  0
 26 30  1  6  0  0  0
 28 29  1  0  0  0  0
 29 27  1  1  0  0  0
 29 26  1  0  0  0  0
 30 38  1  0  0  0  0
 31 37  1  0  0  0  0
 32 31  2  0  0  0  0
 33 39  1  0  0  0  0
 33 35  2  0  0  0  0
 34 37  2  0  0  0  0
 34 40  1  0  0  0  0
 35 34  1  0  0  0  0
 36 32  1  0  0  0  0
 38 36  2  0  0  0  0
 39 38  1  6  0  0  0
 39 31  1  0  0  0  0
 40 46  1  1  0  0  0
 41 40  1  0  0  0  0
 42 43  1  0  0  0  0
 42 41  1  0  0  0  0
 44 42  2  0  0  0  0
 46 45  1  0  0  0  0
 47 51  1  1  0  0  0
 48 50  1  0  0  0  0
 48 49  1  0  0  0  0
 50 47  1  1  0  0  0
 50 49  1  0  0  0  0
 51 52  1  0  0  0  0
 52 54  1  0  0  0  0
 54 53  1  0  0  0  0
M  END
>  <MODEL>
9

>  <REMARK>
 VINA RESULT:      -6.3      3.428      8.041
  Name = 
  19 active torsions:
  status: ('A' for Active; 'I' for Inactive)
    1  A    between atoms: C_2  and  C_7
    2  A    between atoms: C_2  and  C_39
    3  A    between atoms: C_3  and  C_24
    4  A    between atoms: C_3  and  O_26
    5  A    between atoms: N_4  and  C_21
    6  A    between atoms: C_5  and  C_15
    7  A    between atoms: C_5  and  O_26
    8  A    between atoms: C_5  and  C_45
    9  A    between atoms: C_7  and  N_16
   10  A    between atoms: N_8  and  N_16
   11  A    between atoms: N_8  and  C_46
   12  A    between atoms: C_21  and  C_25
   13  A    between atoms: C_21  and  C_36
   14  A    between atoms: C_22  and  C_41
   15  A    between atoms: O_23  and  C_42
   16  A    between atoms: O_23  and  C_47
   17  A    between atoms: C_33  and  C_42
   18  A    between atoms: C_33  and  C_51
   19  A    between atoms: C_42  and  C_53
                            x       y       z     vdW  Elec       q    Type
                         _______ _______ _______ _____ _____    ______ ____

>  <TORSDO>
F 19

$$$$
