=
 OpenBabel10222416443D

 45 47  0  0  1  0  0  0  0  0999 V2000
  188.9120  176.6020  140.6960 C   0  0  0  0  0  3  0  0  0  0  0  0
  188.4680  178.8160  140.3900 N   0  0  0  0  0  0  0  0  0  0  0  0
  189.3180  176.9480  139.3010 C   0  0  1  0  0  3  0  0  0  0  0  0
  188.9790  178.4020  139.2800 C   0  0  0  0  0  0  0  0  0  0  0  0
  188.4380  177.7020  141.2730 C   0  0  0  0  0  0  0  0  0  0  0  0
  187.0680  177.9430  145.3110 C   0  0  0  0  0  3  0  0  0  0  0  0
  188.4190  177.7030  145.0450 C   0  0  0  0  0  0  0  0  0  0  0  0
  188.8350  177.6300  143.7120 C   0  0  0  0  0  3  0  0  0  0  0  0
  186.1870  178.1030  144.2900 N   0  0  0  0  0  0  0  0  0  0  0  0
  187.9250  177.7980  142.6620 C   0  0  0  0  0  0  0  0  0  0  0  0
  185.5780  178.2020  141.9760 N   0  0  0  0  0  1  0  0  0  0  0  0
  186.5690  178.0400  142.9870 C   0  0  0  0  0  0  0  0  0  0  0  0
  190.6680  176.9590  145.8860 N   0  0  0  0  0  2  0  0  0  0  0  0
  189.3830  177.5300  146.1450 C   0  0  0  0  0  0  0  0  0  0  0  0
  189.0740  177.8840  147.3160 O   0  0  0  0  0  0  0  0  0  0  0  0
  191.6490  176.7620  146.9400 C   0  0  0  0  0  2  0  0  0  0  0  0
  192.1810  175.3450  146.8730 C   0  0  0  0  0  1  0  0  0  0  0  0
  190.7860  176.7190  139.1050 C   0  0  0  0  0  0  0  0  0  0  0  0
  191.2190  175.8690  138.0450 N   0  0  0  0  0  2  0  0  0  0  0  0
  191.6300  177.2550  139.8750 O   0  0  0  0  0  0  0  0  0  0  0  0
  192.4500  176.0560  135.5670 O   0  0  0  0  0  0  0  0  0  0  0  0
  194.7810  174.0220  138.2370 O   0  0  0  0  0  0  0  0  0  0  0  0
  193.1630  175.6880  136.5420 C   0  0  0  0  0  0  0  0  0  0  0  0
  194.5510  175.3680  136.3350 N   0  0  0  0  0  0  0  0  0  0  0  0
  196.7760  174.8630  137.3820 N   0  0  0  0  0  0  0  0  0  0  0  0
  192.5800  175.6000  137.8440 N   0  0  0  0  0  2  0  0  0  0  0  0
  195.1250  175.5860  135.0130 C   0  0  0  0  0  1  0  0  0  0  0  0
  197.3890  175.8220  136.6410 O   0  0  0  0  0  1  0  0  0  0  0  0
  195.3440  174.7310  137.3580 C   0  0  0  0  0  0  0  0  0  0  0  0
  198.6070  174.7700  138.8050 C   0  0  0  0  0  1  0  0  0  0  0  0
  198.1520  173.0020  137.3300 C   0  0  0  0  0  1  0  0  0  0  0  0
  197.5370  173.9970  138.1920 N   0  0  0  0  0  0  0  0  0  0  0  0
  189.1350  179.2860  138.0880 C   0  0  0  0  0  2  0  0  0  0  0  0
  188.9240  178.4860  136.8130 C   0  0  0  0  0  2  0  0  0  0  0  0
  187.4490  178.4620  136.4410 C   0  0  0  0  0  2  0  0  0  0  0  0
  186.4930  176.5000  137.1640 N   0  0  0  0  0  2  0  0  0  0  0  0
  186.8210  175.0800  137.0730 C   0  0  2  0  0  3  0  0  0  0  0  0
  188.0390  174.9750  136.1850 C   0  0  0  0  0  2  0  0  0  0  0  0
  187.0500  177.1240  136.0330 N   0  0  0  0  0  0  0  0  0  0  0  0
  188.2600  176.3840  135.7100 C   0  0  0  0  0  2  0  0  0  0  0  0
  185.6480  174.2970  136.4710 C   0  0  1  0  0  3  0  0  0  0  0  0
  186.1460  173.1400  135.6170 C   0  0  0  0  0  1  0  0  0  0  0  0
  184.7290  173.7770  137.5330 C   0  0  0  0  0  0  0  0  0  0  0  0
  183.7180  174.5920  138.0240 O   0  0  0  0  0  1  0  0  0  0  0  0
  184.8670  172.6100  137.9880 O   0  0  0  0  0  0  0  0  0  0  0  0
  1  5  2  0  0  0  0
  2  5  1  0  0  0  0
  3 18  1  1  0  0  0
  3  1  1  0  0  0  0
  4  3  1  0  0  0  0
  4  2  2  0  0  0  0
  5 10  1  0  0  0  0
  7  6  1  0  0  0  0
  7 14  1  0  0  0  0
  8  7  2  0  0  0  0
  9  6  2  0  0  0  0
 10 12  2  0  0  0  0
 10  8  1  0  0  0  0
 11 12  1  0  0  0  0
 12  9  1  0  0  0  0
 13 14  1  0  0  0  0
 13 16  1  0  0  0  0
 14 15  2  0  0  0  0
 17 16  1  0  0  0  0
 18 20  2  0  0  0  0
 19 18  1  0  0  0  0
 21 23  2  0  0  0  0
 23 26  1  0  0  0  0
 24 23  1  0  0  0  0
 24 29  1  0  0  0  0
 25 32  1  0  0  0  0
 26 19  1  0  0  0  0
 27 24  1  0  0  0  0
 28 25  1  0  0  0  0
 29 25  1  0  0  0  0
 29 22  2  0  0  0  0
 31 32  1  0  0  0  0
 32 30  1  0  0  0  0
 33  4  1  0  0  0  0
 34 33  1  0  0  0  0
 35 34  1  0  0  0  0
 37 41  1  6  0  0  0
 37 36  1  0  0  0  0
 38 37  1  0  0  0  0
 39 35  1  0  0  0  0
 39 36  1  0  0  0  0
 40 39  1  0  0  0  0
 40 38  1  0  0  0  0
 41 42  1  1  0  0  0
 41 43  1  0  0  0  0
 43 45  2  0  0  0  0
 43 44  1  0  0  0  0
M  END
>  <MODEL>
1

>  <REMARK>
 VINA RESULT:      -7.8      0.000      0.000
  Name = 
  12 active torsions:
  status: ('A' for Active; 'I' for Inactive)
    1  A    between atoms: C_4  and  C_30
    2  A    between atoms: C_8  and  C_33
    3  A    between atoms: C_9  and  C_20
    4  A    between atoms: N_11  and  N_25
    5  A    between atoms: N_12  and  C_29
    6  A    between atoms: N_15  and  N_22
    7  A    between atoms: C_16  and  C_34
    8  A    between atoms: C_16  and  C_35
    9  A    between atoms: C_20  and  C_23
   10  A    between atoms: C_24  and  C_37
   11  A    between atoms: C_34  and  C_38
   12  A    between atoms: C_38  and  N_43
                            x       y       z     vdW  Elec       q    Type
                         _______ _______ _______ _____ _____    ______ ____

>  <TORSDO>
F 12

$$$$
=
 OpenBabel10222416443D

 45 47  0  0  1  0  0  0  0  0999 V2000
  189.4920  176.3300  141.1960 C   0  0  0  0  0  3  0  0  0  0  0  0
  188.8150  178.4890  140.9180 N   0  0  0  0  0  0  0  0  0  0  0  0
  189.6390  176.6590  139.7460 C   0  0  1  0  0  3  0  0  0  0  0  0
  189.1770  178.0800  139.7490 C   0  0  0  0  0  0  0  0  0  0  0  0
  189.0220  177.4080  141.8180 C   0  0  0  0  0  0  0  0  0  0  0  0
  188.0710  177.7380  145.9680 C   0  0  0  0  0  3  0  0  0  0  0  0
  187.0700  177.9030  145.0070 C   0  0  0  0  0  0  0  0  0  0  0  0
  187.4150  177.7890  143.6570 C   0  0  0  0  0  3  0  0  0  0  0  0
  189.3480  177.4690  145.5890 N   0  0  0  0  0  0  0  0  0  0  0  0
  188.7300  177.5100  143.2690 C   0  0  0  0  0  0  0  0  0  0  0  0
  191.0680  177.0830  143.9690 N   0  0  0  0  0  1  0  0  0  0  0  0
  189.7040  177.3500  144.2820 C   0  0  0  0  0  0  0  0  0  0  0  0
  184.7360  178.6390  144.4350 N   0  0  0  0  0  2  0  0  0  0  0  0
  185.6830  178.1930  145.4080 C   0  0  0  0  0  0  0  0  0  0  0  0
  185.3310  178.0500  146.6120 O   0  0  0  0  0  0  0  0  0  0  0  0
  183.3580  178.9450  144.7850 C   0  0  0  0  0  2  0  0  0  0  0  0
  182.5150  178.9760  143.5270 C   0  0  0  0  0  1  0  0  0  0  0  0
  191.0720  176.5440  139.3210 C   0  0  0  0  0  0  0  0  0  0  0  0
  191.4270  175.5760  138.3360 N   0  0  0  0  0  2  0  0  0  0  0  0
  191.9590  177.2800  139.8370 O   0  0  0  0  0  0  0  0  0  0  0  0
  192.2970  176.0740  135.7500 O   0  0  0  0  0  0  0  0  0  0  0  0
  195.0640  173.9380  137.8660 O   0  0  0  0  0  0  0  0  0  0  0  0
  193.1530  175.6580  136.5790 C   0  0  0  0  0  0  0  0  0  0  0  0
  194.5130  175.4440  136.1610 N   0  0  0  0  0  0  0  0  0  0  0  0
  196.8820  174.9760  136.8480 N   0  0  0  0  0  0  0  0  0  0  0  0
  192.7580  175.4110  137.9310 N   0  0  0  0  0  2  0  0  0  0  0  0
  194.8900  175.8220  134.8040 C   0  0  0  0  0  1  0  0  0  0  0  0
  197.3410  176.0380  136.1350 O   0  0  0  0  0  1  0  0  0  0  0  0
  195.4680  174.7610  136.9980 C   0  0  0  0  0  0  0  0  0  0  0  0
  198.3210  174.7240  138.6520 C   0  0  0  0  0  1  0  0  0  0  0  0
  198.8930  173.8720  136.5400 C   0  0  0  0  0  1  0  0  0  0  0  0
  197.7860  174.0850  137.4570 N   0  0  0  0  0  0  0  0  0  0  0  0
  189.0650  178.9310  138.5280 C   0  0  0  0  0  2  0  0  0  0  0  0
  187.9200  178.4440  137.6560 C   0  0  0  0  0  2  0  0  0  0  0  0
  188.4510  177.9170  136.3310 C   0  0  0  0  0  2  0  0  0  0  0  0
  187.0160  176.2880  137.0880 N   0  0  0  0  0  2  0  0  0  0  0  0
  187.0120  174.8280  137.1180 C   0  0  2  0  0  3  0  0  0  0  0  0
  188.2340  174.3780  136.3520 C   0  0  0  0  0  2  0  0  0  0  0  0
  187.7830  176.6750  135.9750 N   0  0  0  0  0  0  0  0  0  0  0  0
  188.8100  175.6570  135.8100 C   0  0  0  0  0  2  0  0  0  0  0  0
  185.7360  174.2830  136.4640 C   0  0  1  0  0  3  0  0  0  0  0  0
  186.0620  173.1740  135.4740 C   0  0  0  0  0  1  0  0  0  0  0  0
  184.7660  173.7740  137.4850 C   0  0  0  0  0  0  0  0  0  0  0  0
  183.7670  174.6140  137.9590 O   0  0  0  0  0  1  0  0  0  0  0  0
  184.8510  172.5950  137.9210 O   0  0  0  0  0  0  0  0  0  0  0  0
  1  5  2  0  0  0  0
  2  5  1  0  0  0  0
  3 18  1  1  0  0  0
  3  4  1  0  0  0  0
  3  1  1  0  0  0  0
  4  2  2  0  0  0  0
  5 10  1  0  0  0  0
  7 14  1  0  0  0  0
  7  6  2  0  0  0  0
  8  7  1  0  0  0  0
  9  6  1  0  0  0  0
 10  8  2  0  0  0  0
 10 12  1  0  0  0  0
 11 12  1  0  0  0  0
 12  9  2  0  0  0  0
 13 16  1  0  0  0  0
 13 14  1  0  0  0  0
 14 15  2  0  0  0  0
 17 16  1  0  0  0  0
 18 20  2  0  0  0  0
 19 18  1  0  0  0  0
 21 23  2  0  0  0  0
 23 26  1  0  0  0  0
 24 23  1  0  0  0  0
 24 29  1  0  0  0  0
 25 29  1  0  0  0  0
 25 32  1  0  0  0  0
 26 19  1  0  0  0  0
 27 24  1  0  0  0  0
 28 25  1  0  0  0  0
 29 22  2  0  0  0  0
 31 32  1  0  0  0  0
 32 30  1  0  0  0  0
 33  4  1  0  0  0  0
 34 33  1  0  0  0  0
 35 34  1  0  0  0  0
 36 37  1  0  0  0  0
 37 41  1  6  0  0  0
 38 37  1  0  0  0  0
 39 35  1  0  0  0  0
 39 36  1  0  0  0  0
 40 39  1  0  0  0  0
 40 38  1  0  0  0  0
 41 42  1  6  0  0  0
 41 43  1  0  0  0  0
 43 45  2  0  0  0  0
 43 44  1  0  0  0  0
M  END
>  <MODEL>
2

>  <REMARK>
 VINA RESULT:      -7.7      1.273      2.765
  Name = 
  12 active torsions:
  status: ('A' for Active; 'I' for Inactive)
    1  A    between atoms: C_4  and  C_30
    2  A    between atoms: C_8  and  C_33
    3  A    between atoms: C_9  and  C_20
    4  A    between atoms: N_11  and  N_25
    5  A    between atoms: N_12  and  C_29
    6  A    between atoms: N_15  and  N_22
    7  A    between atoms: C_16  and  C_34
    8  A    between atoms: C_16  and  C_35
    9  A    between atoms: C_20  and  C_23
   10  A    between atoms: C_24  and  C_37
   11  A    between atoms: C_34  and  C_38
   12  A    between atoms: C_38  and  N_43
                            x       y       z     vdW  Elec       q    Type
                         _______ _______ _______ _____ _____    ______ ____

>  <TORSDO>
F 12

$$$$
=
 OpenBabel10222416443D

 45 47  0  0  1  0  0  0  0  0999 V2000
  189.7970  176.2860  141.3250 C   0  0  0  0  0  3  0  0  0  0  0  0
  189.0320  178.4050  140.9780 N   0  0  0  0  0  0  0  0  0  0  0  0
  189.8850  176.5560  139.8590 C   0  0  1  0  0  3  0  0  0  0  0  0
  189.3710  177.9580  139.8160 C   0  0  0  0  0  0  0  0  0  0  0  0
  189.3090  177.3720  141.9160 C   0  0  0  0  0  0  0  0  0  0  0  0
  188.4820  177.8500  146.0790 C   0  0  0  0  0  3  0  0  0  0  0  0
  187.4420  177.9170  145.1480 C   0  0  0  0  0  0  0  0  0  0  0  0
  187.7460  177.7570  143.7930 C   0  0  0  0  0  3  0  0  0  0  0  0
  189.7570  177.6300  145.6660 N   0  0  0  0  0  0  0  0  0  0  0  0
  189.0610  177.5280  143.3710 C   0  0  0  0  0  0  0  0  0  0  0  0
  191.4400  177.2570  144.0050 N   0  0  0  0  0  1  0  0  0  0  0  0
  190.0750  177.4670  144.3550 C   0  0  0  0  0  0  0  0  0  0  0  0
  185.1160  178.7560  144.6910 N   0  0  0  0  0  2  0  0  0  0  0  0
  186.0550  178.1540  145.5860 C   0  0  0  0  0  0  0  0  0  0  0  0
  185.6970  177.8270  146.7510 O   0  0  0  0  0  0  0  0  0  0  0  0
  183.7400  179.0150  145.0800 C   0  0  0  0  0  2  0  0  0  0  0  0
  182.8400  178.8790  143.8690 C   0  0  0  0  0  1  0  0  0  0  0  0
  191.3060  176.4730  139.3900 C   0  0  0  0  0  0  0  0  0  0  0  0
  191.6630  175.4770  138.4340 N   0  0  0  0  0  2  0  0  0  0  0  0
  192.1820  177.2600  139.8450 O   0  0  0  0  0  0  0  0  0  0  0  0
  192.4810  176.1590  135.8740 O   0  0  0  0  0  0  0  0  0  0  0  0
  195.2880  173.8770  137.7730 O   0  0  0  0  0  0  0  0  0  0  0  0
  193.3530  175.6840  136.6530 C   0  0  0  0  0  0  0  0  0  0  0  0
  194.7050  175.5020  136.1920 N   0  0  0  0  0  0  0  0  0  0  0  0
  197.0860  174.9860  136.7960 N   0  0  0  0  0  0  0  0  0  0  0  0
  192.9860  175.3410  137.9910 N   0  0  0  0  0  2  0  0  0  0  0  0
  195.0540  175.9750  134.8590 C   0  0  0  0  0  1  0  0  0  0  0  0
  197.5320  176.0960  136.1510 O   0  0  0  0  0  1  0  0  0  0  0  0
  195.6750  174.7600  136.9590 C   0  0  0  0  0  0  0  0  0  0  0  0
  198.6360  174.6450  138.4890 C   0  0  0  0  0  1  0  0  0  0  0  0
  199.0360  173.8300  136.3250 C   0  0  0  0  0  1  0  0  0  0  0  0
  198.0010  174.0530  137.3200 N   0  0  0  0  0  0  0  0  0  0  0  0
  189.1880  178.7490  138.5650 C   0  0  0  0  0  2  0  0  0  0  0  0
  188.7420  177.8400  137.4320 C   0  0  0  0  0  2  0  0  0  0  0  0
  187.9680  178.6330  136.3900 C   0  0  0  0  0  2  0  0  0  0  0  0
  186.1810  178.7350  137.8320 N   0  0  0  0  0  2  0  0  0  0  0  0
  185.1110  177.8290  138.2390 C   0  0  2  0  0  3  0  0  0  0  0  0
  185.2360  176.5970  137.3730 C   0  0  0  0  0  2  0  0  0  0  0  0
  186.5410  178.3830  136.5190 N   0  0  0  0  0  0  0  0  0  0  0  0
  186.3350  176.9470  136.4080 C   0  0  0  0  0  2  0  0  0  0  0  0
  183.7420  178.4910  138.0380 C   0  0  1  0  0  3  0  0  0  0  0  0
  182.6440  177.4450  137.9120 C   0  0  0  0  0  1  0  0  0  0  0  0
  183.4130  179.4310  139.1560 C   0  0  0  0  0  0  0  0  0  0  0  0
  182.2480  180.1840  139.0970 O   0  0  0  0  0  0  0  0  0  0  0  0
  184.1840  179.5480  140.1450 O   0  0  0  0  0  1  0  0  0  0  0  0
  1  5  2  0  0  0  0
  2  5  1  0  0  0  0
  3 18  1  1  0  0  0
  3  1  1  0  0  0  0
  4  3  1  0  0  0  0
  4  2  2  0  0  0  0
  5 10  1  0  0  0  0
  7 14  1  0  0  0  0
  7  6  2  0  0  0  0
  8  7  1  0  0  0  0
  9  6  1  0  0  0  0
 10  8  2  0  0  0  0
 10 12  1  0  0  0  0
 11 12  1  0  0  0  0
 12  9  2  0  0  0  0
 13 16  1  0  0  0  0
 13 14  1  0  0  0  0
 14 15  2  0  0  0  0
 17 16  1  0  0  0  0
 18 20  2  0  0  0  0
 19 18  1  0  0  0  0
 21 23  2  0  0  0  0
 23 26  1  0  0  0  0
 24 23  1  0  0  0  0
 24 29  1  0  0  0  0
 25 29  1  0  0  0  0
 25 32  1  0  0  0  0
 26 19  1  0  0  0  0
 27 24  1  0  0  0  0
 28 25  1  0  0  0  0
 29 22  2  0  0  0  0
 31 32  1  0  0  0  0
 32 30  1  0  0  0  0
 33  4  1  0  0  0  0
 34 33  1  0  0  0  0
 35 39  1  0  0  0  0
 35 34  1  0  0  0  0
 36 37  1  0  0  0  0
 37 41  1  6  0  0  0
 38 37  1  0  0  0  0
 39 36  1  0  0  0  0
 40 39  1  0  0  0  0
 40 38  1  0  0  0  0
 41 42  1  1  0  0  0
 41 43  1  0  0  0  0
 43 45  1  0  0  0  0
 44 43  2  0  0  0  0
M  END
>  <MODEL>
3

>  <REMARK>
 VINA RESULT:      -7.5      2.179      3.488
  Name = 
  12 active torsions:
  status: ('A' for Active; 'I' for Inactive)
    1  A    between atoms: C_4  and  C_30
    2  A    between atoms: C_8  and  C_33
    3  A    between atoms: C_9  and  C_20
    4  A    between atoms: N_11  and  N_25
    5  A    between atoms: N_12  and  C_29
    6  A    between atoms: N_15  and  N_22
    7  A    between atoms: C_16  and  C_34
    8  A    between atoms: C_16  and  C_35
    9  A    between atoms: C_20  and  C_23
   10  A    between atoms: C_24  and  C_37
   11  A    between atoms: C_34  and  C_38
   12  A    between atoms: C_38  and  N_43
                            x       y       z     vdW  Elec       q    Type
                         _______ _______ _______ _____ _____    ______ ____

>  <TORSDO>
F 12

$$$$
=
 OpenBabel10222416443D

 45 47  0  0  1  0  0  0  0  0999 V2000
  189.8120  177.3500  137.6410 C   0  0  0  0  0  3  0  0  0  0  0  0
  189.0940  177.1200  139.7920 N   0  0  0  0  0  0  0  0  0  0  0  0
  191.0220  177.3510  138.5160 C   0  0  1  0  0  3  0  0  0  0  0  0
  190.3810  177.1800  139.8540 C   0  0  0  0  0  0  0  0  0  0  0  0
  188.7410  177.2130  138.4170 C   0  0  0  0  0  0  0  0  0  0  0  0
  184.6630  177.1520  137.1520 C   0  0  0  0  0  3  0  0  0  0  0  0
  185.0870  178.0920  138.0950 C   0  0  0  0  0  0  0  0  0  0  0  0
  186.4290  178.0850  138.4880 C   0  0  0  0  0  3  0  0  0  0  0  0
  185.5420  176.2570  136.6320 N   0  0  0  0  0  0  0  0  0  0  0  0
  187.3340  177.1630  137.9490 C   0  0  0  0  0  0  0  0  0  0  0  0
  187.7050  175.2530  136.4160 N   0  0  0  0  0  1  0  0  0  0  0  0
  186.8520  176.2350  136.9970 C   0  0  0  0  0  0  0  0  0  0  0  0
  182.7480  178.7520  138.7380 N   0  0  0  0  0  2  0  0  0  0  0  0
  184.1410  179.0670  138.6630 C   0  0  0  0  0  0  0  0  0  0  0  0
  184.5590  180.1820  139.0820 O   0  0  0  0  0  0  0  0  0  0  0  0
  181.7760  179.6860  139.2830 C   0  0  0  0  0  2  0  0  0  0  0  0
  180.8940  180.2020  138.1660 C   0  0  0  0  0  1  0  0  0  0  0  0
  191.9190  176.1980  138.1810 C   0  0  0  0  0  0  0  0  0  0  0  0
  193.3030  176.4420  137.9450 N   0  0  0  0  0  2  0  0  0  0  0  0
  191.4550  175.0270  138.0910 O   0  0  0  0  0  0  0  0  0  0  0  0
  195.0810  176.5960  135.8220 O   0  0  0  0  0  0  0  0  0  0  0  0
  194.6400  172.7450  137.1170 O   0  0  0  0  0  0  0  0  0  0  0  0
  195.0550  175.5170  136.4780 C   0  0  0  0  0  0  0  0  0  0  0  0
  195.9140  174.4260  136.1010 N   0  0  0  0  0  0  0  0  0  0  0  0
  196.8610  172.1820  136.7080 N   0  0  0  0  0  0  0  0  0  0  0  0
  194.1720  175.3990  137.5970 N   0  0  0  0  0  2  0  0  0  0  0  0
  196.8770  174.6390  135.0280 C   0  0  0  0  0  1  0  0  0  0  0  0
  198.1310  172.6160  136.4980 O   0  0  0  0  0  1  0  0  0  0  0  0
  195.7620  173.1080  136.6680 C   0  0  0  0  0  0  0  0  0  0  0  0
  197.8360  170.2280  137.4940 C   0  0  0  0  0  1  0  0  0  0  0  0
  196.2960  170.1640  135.7230 C   0  0  0  0  0  1  0  0  0  0  0  0
  196.6100  170.8230  136.9800 N   0  0  0  0  0  0  0  0  0  0  0  0
  191.1250  177.1570  141.1470 C   0  0  0  0  0  2  0  0  0  0  0  0
  190.1740  177.4250  142.3020 C   0  0  0  0  0  2  0  0  0  0  0  0
  189.7670  176.1190  142.9670 C   0  0  0  0  0  2  0  0  0  0  0  0
  188.1100  177.2860  144.0510 N   0  0  0  0  0  2  0  0  0  0  0  0
  188.0300  178.1320  145.2380 C   0  0  2  0  0  3  0  0  0  0  0  0
  189.3890  178.0800  145.8960 C   0  0  0  0  0  2  0  0  0  0  0  0
  189.1610  176.3760  144.2630 N   0  0  0  0  0  0  0  0  0  0  0  0
  190.1460  177.0710  145.0780 C   0  0  0  0  0  2  0  0  0  0  0  0
  186.9490  177.6140  146.1940 C   0  0  1  0  0  3  0  0  0  0  0  0
  187.4190  177.6880  147.6390 C   0  0  0  0  0  1  0  0  0  0  0  0
  185.6680  178.3750  146.0440 C   0  0  0  0  0  0  0  0  0  0  0  0
  185.4390  179.1100  144.8890 O   0  0  0  0  0  0  0  0  0  0  0  0
  184.8000  178.3580  146.9570 O   0  0  0  0  0  1  0  0  0  0  0  0
  1  5  2  0  0  0  0
  1  3  1  0  0  0  0
  2  4  2  0  0  0  0
  3 18  1  6  0  0  0
  3  4  1  0  0  0  0
  4 33  1  0  0  0  0
  5  2  1  0  0  0  0
  6  7  1  0  0  0  0
  7  8  2  0  0  0  0
  7 14  1  0  0  0  0
  9 12  1  0  0  0  0
  9  6  2  0  0  0  0
 10  5  1  0  0  0  0
 10  8  1  0  0  0  0
 11 12  1  0  0  0  0
 12 10  2  0  0  0  0
 13 16  1  0  0  0  0
 14 13  1  0  0  0  0
 14 15  2  0  0  0  0
 17 16  1  0  0  0  0
 19 18  1  0  0  0  0
 20 18  2  0  0  0  0
 21 23  2  0  0  0  0
 23 26  1  0  0  0  0
 24 23  1  0  0  0  0
 24 29  1  0  0  0  0
 25 32  1  0  0  0  0
 26 19  1  0  0  0  0
 27 24  1  0  0  0  0
 28 25  1  0  0  0  0
 29 25  1  0  0  0  0
 29 22  2  0  0  0  0
 31 32  1  0  0  0  0
 32 30  1  0  0  0  0
 33 34  1  0  0  0  0
 34 35  1  0  0  0  0
 35 39  1  0  0  0  0
 36 39  1  0  0  0  0
 36 37  1  0  0  0  0
 37 38  1  0  0  0  0
 37 41  1  1  0  0  0
 39 40  1  0  0  0  0
 40 38  1  0  0  0  0
 41 42  1  1  0  0  0
 43 41  1  0  0  0  0
 43 45  1  0  0  0  0
 44 43  2  0  0  0  0
M  END
>  <MODEL>
4

>  <REMARK>
 VINA RESULT:      -7.4      2.817      7.020
  Name = 
  12 active torsions:
  status: ('A' for Active; 'I' for Inactive)
    1  A    between atoms: C_4  and  C_30
    2  A    between atoms: C_8  and  C_33
    3  A    between atoms: C_9  and  C_20
    4  A    between atoms: N_11  and  N_25
    5  A    between atoms: N_12  and  C_29
    6  A    between atoms: N_15  and  N_22
    7  A    between atoms: C_16  and  C_34
    8  A    between atoms: C_16  and  C_35
    9  A    between atoms: C_20  and  C_23
   10  A    between atoms: C_24  and  C_37
   11  A    between atoms: C_34  and  C_38
   12  A    between atoms: C_38  and  N_43
                            x       y       z     vdW  Elec       q    Type
                         _______ _______ _______ _____ _____    ______ ____

>  <TORSDO>
F 12

$$$$
=
 OpenBabel10222416443D

 45 47  0  0  1  0  0  0  0  0999 V2000
  190.6850  177.1270  137.8200 C   0  0  0  0  0  3  0  0  0  0  0  0
  189.5050  175.2870  137.1750 N   0  0  0  0  0  0  0  0  0  0  0  0
  189.2390  177.4260  138.0430 C   0  0  1  0  0  3  0  0  0  0  0  0
  188.6300  176.1390  137.5920 C   0  0  0  0  0  0  0  0  0  0  0  0
  190.7810  175.8950  137.3280 C   0  0  0  0  0  0  0  0  0  0  0  0
  194.4570  173.9340  136.3900 C   0  0  0  0  0  3  0  0  0  0  0  0
  194.2230  174.3960  137.6880 C   0  0  0  0  0  0  0  0  0  0  0  0
  193.0100  175.0340  137.9620 C   0  0  0  0  0  3  0  0  0  0  0  0
  193.5180  174.1040  135.4230 N   0  0  0  0  0  0  0  0  0  0  0  0
  192.0430  175.2050  136.9650 C   0  0  0  0  0  0  0  0  0  0  0  0
  191.4060  174.8690  134.5940 N   0  0  0  0  0  1  0  0  0  0  0  0
  192.3300  174.7170  135.6680 C   0  0  0  0  0  0  0  0  0  0  0  0
  195.7510  175.3530  139.4410 N   0  0  0  0  0  2  0  0  0  0  0  0
  195.2350  174.2160  138.7440 C   0  0  0  0  0  0  0  0  0  0  0  0
  195.6470  173.0580  139.0310 O   0  0  0  0  0  0  0  0  0  0  0  0
  196.7550  175.2250  140.4850 C   0  0  0  0  0  2  0  0  0  0  0  0
  198.1340  175.2440  139.8600 C   0  0  0  0  0  1  0  0  0  0  0  0
  188.9700  177.6870  139.4940 C   0  0  0  0  0  0  0  0  0  0  0  0
  189.6040  176.8710  140.4750 N   0  0  0  0  0  2  0  0  0  0  0  0
  188.1790  178.6060  139.8470 O   0  0  0  0  0  0  0  0  0  0  0  0
  191.5920  176.7440  142.4040 O   0  0  0  0  0  0  0  0  0  0  0  0
  187.8730  176.5580  144.0860 O   0  0  0  0  0  0  0  0  0  0  0  0
  190.4130  176.9590  142.8010 C   0  0  0  0  0  0  0  0  0  0  0  0
  190.1450  177.1100  144.2070 N   0  0  0  0  0  0  0  0  0  0  0  0
  188.4910  177.7630  145.9790 N   0  0  0  0  0  0  0  0  0  0  0  0
  189.3580  177.0580  141.8410 N   0  0  0  0  0  2  0  0  0  0  0  0
  191.2710  177.1170  145.1320 C   0  0  0  0  0  1  0  0  0  0  0  0
  189.3820  178.6130  146.5530 O   0  0  0  0  0  1  0  0  0  0  0  0
  188.7990  177.1280  144.7260 C   0  0  0  0  0  0  0  0  0  0  0  0
  186.2970  178.5010  146.1380 C   0  0  0  0  0  1  0  0  0  0  0  0
  187.4210  177.6870  148.0310 C   0  0  0  0  0  1  0  0  0  0  0  0
  187.2530  177.5050  146.5990 N   0  0  0  0  0  0  0  0  0  0  0  0
  187.1630  175.8720  137.5470 C   0  0  0  0  0  2  0  0  0  0  0  0
  186.4690  176.9090  136.6790 C   0  0  0  0  0  2  0  0  0  0  0  0
  185.0440  177.1330  137.1580 C   0  0  0  0  0  2  0  0  0  0  0  0
  183.8100  177.3880  139.0810 N   0  0  0  0  0  2  0  0  0  0  0  0
  183.4360  178.5040  139.9450 C   0  0  2  0  0  3  0  0  0  0  0  0
  184.1680  179.7170  139.4220 C   0  0  0  0  0  2  0  0  0  0  0  0
  185.0420  177.7210  138.4880 N   0  0  0  0  0  0  0  0  0  0  0  0
  185.0420  179.1670  138.3290 C   0  0  0  0  0  2  0  0  0  0  0  0
  183.8380  178.2170  141.3960 C   0  0  1  0  0  3  0  0  0  0  0  0
  185.1370  178.9250  141.7530 C   0  0  0  0  0  1  0  0  0  0  0  0
  182.7650  178.6250  142.3580 C   0  0  0  0  0  0  0  0  0  0  0  0
  181.4400  178.6280  141.9450 O   0  0  0  0  0  0  0  0  0  0  0  0
  183.0540  178.9700  143.5350 O   0  0  0  0  0  1  0  0  0  0  0  0
  1  3  1  0  0  0  0
  2  5  1  0  0  0  0
  2  4  2  0  0  0  0
  3 18  1  1  0  0  0
  4  3  1  0  0  0  0
  5  1  2  0  0  0  0
  6  7  1  0  0  0  0
  7  8  2  0  0  0  0
  7 14  1  0  0  0  0
  9 12  1  0  0  0  0
  9  6  2  0  0  0  0
 10  5  1  0  0  0  0
 10  8  1  0  0  0  0
 11 12  1  0  0  0  0
 12 10  2  0  0  0  0
 13 16  1  0  0  0  0
 14 15  2  0  0  0  0
 14 13  1  0  0  0  0
 17 16  1  0  0  0  0
 18 20  2  0  0  0  0
 18 19  1  0  0  0  0
 19 26  1  0  0  0  0
 21 23  2  0  0  0  0
 22 29  2  0  0  0  0
 23 24  1  0  0  0  0
 24 29  1  0  0  0  0
 24 27  1  0  0  0  0
 25 28  1  0  0  0  0
 25 32  1  0  0  0  0
 26 23  1  0  0  0  0
 29 25  1  0  0  0  0
 30 32  1  0  0  0  0
 32 31  1  0  0  0  0
 33  4  1  0  0  0  0
 34 35  1  0  0  0  0
 34 33  1  0  0  0  0
 35 39  1  0  0  0  0
 36 37  1  0  0  0  0
 37 41  1  1  0  0  0
 38 37  1  0  0  0  0
 39 36  1  0  0  0  0
 40 39  1  0  0  0  0
 40 38  1  0  0  0  0
 41 42  1  1  0  0  0
 41 43  1  0  0  0  0
 43 45  1  0  0  0  0
 44 43  2  0  0  0  0
M  END
>  <MODEL>
5

>  <REMARK>
 VINA RESULT:      -7.1      2.726      8.435
  Name = 
  12 active torsions:
  status: ('A' for Active; 'I' for Inactive)
    1  A    between atoms: C_4  and  C_30
    2  A    between atoms: C_8  and  C_33
    3  A    between atoms: C_9  and  C_20
    4  A    between atoms: N_11  and  N_25
    5  A    between atoms: N_12  and  C_29
    6  A    between atoms: N_15  and  N_22
    7  A    between atoms: C_16  and  C_34
    8  A    between atoms: C_16  and  C_35
    9  A    between atoms: C_20  and  C_23
   10  A    between atoms: C_24  and  C_37
   11  A    between atoms: C_34  and  C_38
   12  A    between atoms: C_38  and  N_43
                            x       y       z     vdW  Elec       q    Type
                         _______ _______ _______ _____ _____    ______ ____

>  <TORSDO>
F 12

$$$$
=
 OpenBabel10222416443D

 45 47  0  0  1  0  0  0  0  0999 V2000
  189.3640  178.6280  140.7870 C   0  0  0  0  0  3  0  0  0  0  0  0
  188.3630  176.9100  141.9010 N   0  0  0  0  0  0  0  0  0  0  0  0
  190.4120  177.9690  141.6230 C   0  0  1  0  0  3  0  0  0  0  0  0
  189.6030  176.8850  142.2560 C   0  0  0  0  0  0  0  0  0  0  0  0
  188.2170  177.9840  140.9800 C   0  0  0  0  0  0  0  0  0  0  0  0
  184.5290  178.8970  139.0310 C   0  0  0  0  0  3  0  0  0  0  0  0
  185.5330  178.2140  138.3400 C   0  0  0  0  0  0  0  0  0  0  0  0
  186.7280  177.9300  139.0070 C   0  0  0  0  0  3  0  0  0  0  0  0
  184.7180  179.2710  140.3230 N   0  0  0  0  0  0  0  0  0  0  0  0
  186.9210  178.3140  140.3390 C   0  0  0  0  0  0  0  0  0  0  0  0
  185.9950  179.4450  142.3400 N   0  0  0  0  0  1  0  0  0  0  0  0
  185.8710  179.0030  140.9920 C   0  0  0  0  0  0  0  0  0  0  0  0
  184.0340  177.4330  136.4790 N   0  0  0  0  0  2  0  0  0  0  0  0
  185.3360  177.8020  136.9390 C   0  0  0  0  0  0  0  0  0  0  0  0
  186.3170  177.7730  136.1460 O   0  0  0  0  0  0  0  0  0  0  0  0
  183.7920  177.0130  135.1090 C   0  0  0  0  0  2  0  0  0  0  0  0
  182.8990  175.7900  135.1070 C   0  0  0  0  0  1  0  0  0  0  0  0
  191.5040  177.4140  140.7600 C   0  0  0  0  0  0  0  0  0  0  0  0
  191.1610  176.7630  139.5400 N   0  0  0  0  0  2  0  0  0  0  0  0
  192.7130  177.5030  141.1140 O   0  0  0  0  0  0  0  0  0  0  0  0
  190.7240  174.5200  137.9680 O   0  0  0  0  0  0  0  0  0  0  0  0
  194.7130  175.3340  138.3240 O   0  0  0  0  0  0  0  0  0  0  0  0
  191.8790  175.0280  137.9440 C   0  0  0  0  0  0  0  0  0  0  0  0
  192.9090  174.4320  137.1340 N   0  0  0  0  0  0  0  0  0  0  0  0
  195.2110  174.6460  136.1560 N   0  0  0  0  0  0  0  0  0  0  0  0
  192.1460  176.2000  138.7170 N   0  0  0  0  0  2  0  0  0  0  0  0
  192.5550  173.3090  136.2750 C   0  0  0  0  0  1  0  0  0  0  0  0
  194.7500  174.3750  134.9080 O   0  0  0  0  0  1  0  0  0  0  0  0
  194.2900  174.8320  137.2450 C   0  0  0  0  0  0  0  0  0  0  0  0
  197.1550  175.6640  135.3990 C   0  0  0  0  0  1  0  0  0  0  0  0
  197.1950  173.4520  136.1860 C   0  0  0  0  0  1  0  0  0  0  0  0
  196.5950  174.7590  136.3940 N   0  0  0  0  0  0  0  0  0  0  0  0
  190.1350  175.9120  143.2540 C   0  0  0  0  0  2  0  0  0  0  0  0
  191.4200  176.4430  143.8670 C   0  0  0  0  0  2  0  0  0  0  0  0
  191.1680  176.9330  145.2850 C   0  0  0  0  0  2  0  0  0  0  0  0
  189.3200  178.2530  145.6390 N   0  0  0  0  0  2  0  0  0  0  0  0
  188.2610  178.3240  146.6410 C   0  0  2  0  0  3  0  0  0  0  0  0
  188.4590  177.1430  147.5620 C   0  0  0  0  0  2  0  0  0  0  0  0
  189.7450  176.9130  145.5830 N   0  0  0  0  0  0  0  0  0  0  0  0
  189.5860  176.3770  146.9260 C   0  0  0  0  0  2  0  0  0  0  0  0
  186.8830  178.2590  145.9710 C   0  0  1  0  0  3  0  0  0  0  0  0
  186.5200  176.8270  145.6090 C   0  0  0  0  0  1  0  0  0  0  0  0
  185.8160  178.8410  146.8450 C   0  0  0  0  0  0  0  0  0  0  0  0
  184.5580  178.2540  146.8740 O   0  0  0  0  0  0  0  0  0  0  0  0
  186.0460  179.8610  147.5490 O   0  0  0  0  0  1  0  0  0  0  0  0
  1  5  2  0  0  0  0
  1  3  1  0  0  0  0
  2  4  2  0  0  0  0
  3 18  1  6  0  0  0
  3  4  1  0  0  0  0
  4 33  1  0  0  0  0
  5  2  1  0  0  0  0
  6  9  1  0  0  0  0
  7  8  1  0  0  0  0
  7  6  2  0  0  0  0
  8 10  2  0  0  0  0
  9 12  2  0  0  0  0
 10  5  1  0  0  0  0
 10 12  1  0  0  0  0
 12 11  1  0  0  0  0
 13 14  1  0  0  0  0
 14  7  1  0  0  0  0
 15 14  2  0  0  0  0
 16 13  1  0  0  0  0
 17 16  1  0  0  0  0
 18 20  2  0  0  0  0
 19 18  1  0  0  0  0
 23 21  2  0  0  0  0
 23 26  1  0  0  0  0
 24 29  1  0  0  0  0
 24 23  1  0  0  0  0
 25 32  1  0  0  0  0
 25 29  1  0  0  0  0
 26 19  1  0  0  0  0
 27 24  1  0  0  0  0
 28 25  1  0  0  0  0
 29 22  2  0  0  0  0
 30 32  1  0  0  0  0
 31 32  1  0  0  0  0
 33 34  1  0  0  0  0
 34 35  1  0  0  0  0
 35 39  1  0  0  0  0
 36 37  1  0  0  0  0
 37 41  1  6  0  0  0
 37 38  1  0  0  0  0
 39 36  1  0  0  0  0
 39 40  1  0  0  0  0
 40 38  1  0  0  0  0
 41 42  1  1  0  0  0
 41 43  1  0  0  0  0
 43 44  2  0  0  0  0
 43 45  1  0  0  0  0
M  END
>  <MODEL>
6

>  <REMARK>
 VINA RESULT:      -6.9      2.555      7.273
  Name = 
  12 active torsions:
  status: ('A' for Active; 'I' for Inactive)
    1  A    between atoms: C_4  and  C_30
    2  A    between atoms: C_8  and  C_33
    3  A    between atoms: C_9  and  C_20
    4  A    between atoms: N_11  and  N_25
    5  A    between atoms: N_12  and  C_29
    6  A    between atoms: N_15  and  N_22
    7  A    between atoms: C_16  and  C_34
    8  A    between atoms: C_16  and  C_35
    9  A    between atoms: C_20  and  C_23
   10  A    between atoms: C_24  and  C_37
   11  A    between atoms: C_34  and  C_38
   12  A    between atoms: C_38  and  N_43
                            x       y       z     vdW  Elec       q    Type
                         _______ _______ _______ _____ _____    ______ ____

>  <TORSDO>
F 12

$$$$
=
 OpenBabel10222416443D

 45 47  0  0  1  0  0  0  0  0999 V2000
  189.3100  178.5060  141.2200 C   0  0  0  0  0  3  0  0  0  0  0  0
  188.4340  176.7150  142.3230 N   0  0  0  0  0  0  0  0  0  0  0  0
  190.4550  177.7160  141.7650 C   0  0  1  0  0  3  0  0  0  0  0  0
  189.7150  176.6000  142.4260 C   0  0  0  0  0  0  0  0  0  0  0  0
  188.1830  177.8910  141.5630 C   0  0  0  0  0  0  0  0  0  0  0  0
  184.2050  179.1800  140.6970 C   0  0  0  0  0  3  0  0  0  0  0  0
  184.5920  178.9490  142.0200 C   0  0  0  0  0  0  0  0  0  0  0  0
  185.9010  178.5280  142.2700 C   0  0  0  0  0  3  0  0  0  0  0  0
  185.0900  178.9990  139.6830 N   0  0  0  0  0  0  0  0  0  0  0  0
  186.8120  178.3440  141.2230 C   0  0  0  0  0  0  0  0  0  0  0  0
  187.2290  178.4120  138.7820 N   0  0  0  0  0  1  0  0  0  0  0  0
  186.3690  178.5940  139.9030 C   0  0  0  0  0  0  0  0  0  0  0  0
  182.2510  178.8630  142.9330 N   0  0  0  0  0  2  0  0  0  0  0  0
  183.6390  179.1440  143.1270 C   0  0  0  0  0  0  0  0  0  0  0  0
  184.0490  179.5610  144.2460 O   0  0  0  0  0  0  0  0  0  0  0  0
  181.2730  179.0480  143.9930 C   0  0  0  0  0  2  0  0  0  0  0  0
  180.0740  178.1600  143.7310 C   0  0  0  0  0  1  0  0  0  0  0  0
  191.3300  177.2180  140.6540 C   0  0  0  0  0  0  0  0  0  0  0  0
  190.7630  176.3900  139.6420 N   0  0  0  0  0  2  0  0  0  0  0  0
  192.5580  177.5110  140.6210 O   0  0  0  0  0  0  0  0  0  0  0  0
  190.2420  176.8790  136.9630 O   0  0  0  0  0  0  0  0  0  0  0  0
  192.8780  173.7910  137.4270 O   0  0  0  0  0  0  0  0  0  0  0  0
  191.2250  176.1360  137.2350 C   0  0  0  0  0  0  0  0  0  0  0  0
  192.0130  175.5690  136.1720 N   0  0  0  0  0  0  0  0  0  0  0  0
  194.1010  174.3360  135.5230 N   0  0  0  0  0  0  0  0  0  0  0  0
  191.5490  175.8760  138.6030 N   0  0  0  0  0  2  0  0  0  0  0  0
  191.7130  175.9590  134.8010 C   0  0  0  0  0  1  0  0  0  0  0  0
  194.4190  175.2800  134.5990 O   0  0  0  0  0  1  0  0  0  0  0  0
  192.9960  174.5430  136.4200 C   0  0  0  0  0  0  0  0  0  0  0  0
  196.2130  173.4410  135.1680 C   0  0  0  0  0  1  0  0  0  0  0  0
  194.2880  172.1790  134.7030 C   0  0  0  0  0  1  0  0  0  0  0  0
  194.8580  173.1530  135.6190 N   0  0  0  0  0  0  0  0  0  0  0  0
  190.3640  175.5000  143.1960 C   0  0  0  0  0  2  0  0  0  0  0  0
  191.6760  175.9830  143.7930 C   0  0  0  0  0  2  0  0  0  0  0  0
  191.4240  177.1020  144.7910 C   0  0  0  0  0  2  0  0  0  0  0  0
  189.5830  178.3340  145.4030 N   0  0  0  0  0  2  0  0  0  0  0  0
  188.6960  178.3860  146.5620 C   0  0  2  0  0  3  0  0  0  0  0  0
  189.1080  177.2520  147.4710 C   0  0  0  0  0  2  0  0  0  0  0  0
  190.0710  177.0180  145.3170 N   0  0  0  0  0  0  0  0  0  0  0  0
  190.1610  176.5240  146.6830 C   0  0  0  0  0  2  0  0  0  0  0  0
  187.2350  178.2240  146.1270 C   0  0  1  0  0  3  0  0  0  0  0  0
  186.9940  176.8450  145.5300 C   0  0  0  0  0  1  0  0  0  0  0  0
  186.2900  178.4470  147.2670 C   0  0  0  0  0  0  0  0  0  0  0  0
  184.9310  178.5730  147.0170 O   0  0  0  0  0  0  0  0  0  0  0  0
  186.7180  178.5270  148.4500 O   0  0  0  0  0  1  0  0  0  0  0  0
  1  5  2  0  0  0  0
  1  3  1  0  0  0  0
  2  4  2  0  0  0  0
  3 18  1  6  0  0  0
  3  4  1  0  0  0  0
  4 33  1  0  0  0  0
  5  2  1  0  0  0  0
  6  7  1  0  0  0  0
  7  8  2  0  0  0  0
  7 14  1  0  0  0  0
  9 12  1  0  0  0  0
  9  6  2  0  0  0  0
 10  5  1  0  0  0  0
 10  8  1  0  0  0  0
 11 12  1  0  0  0  0
 12 10  2  0  0  0  0
 13 14  1  0  0  0  0
 13 16  1  0  0  0  0
 14 15  2  0  0  0  0
 17 16  1  0  0  0  0
 19 18  1  0  0  0  0
 20 18  2  0  0  0  0
 21 23  2  0  0  0  0
 23 26  1  0  0  0  0
 24 29  1  0  0  0  0
 24 23  1  0  0  0  0
 25 32  1  0  0  0  0
 25 29  1  0  0  0  0
 26 19  1  0  0  0  0
 27 24  1  0  0  0  0
 28 25  1  0  0  0  0
 29 22  2  0  0  0  0
 30 32  1  0  0  0  0
 31 32  1  0  0  0  0
 33 34  1  0  0  0  0
 34 35  1  0  0  0  0
 35 39  1  0  0  0  0
 36 37  1  0  0  0  0
 37 41  1  6  0  0  0
 37 38  1  0  0  0  0
 39 36  1  0  0  0  0
 39 40  1  0  0  0  0
 40 38  1  0  0  0  0
 41 42  1  1  0  0  0
 41 43  1  0  0  0  0
 43 45  1  0  0  0  0
 44 43  2  0  0  0  0
M  END
>  <MODEL>
7

>  <REMARK>
 VINA RESULT:      -6.8      3.167      6.756
  Name = 
  12 active torsions:
  status: ('A' for Active; 'I' for Inactive)
    1  A    between atoms: C_4  and  C_30
    2  A    between atoms: C_8  and  C_33
    3  A    between atoms: C_9  and  C_20
    4  A    between atoms: N_11  and  N_25
    5  A    between atoms: N_12  and  C_29
    6  A    between atoms: N_15  and  N_22
    7  A    between atoms: C_16  and  C_34
    8  A    between atoms: C_16  and  C_35
    9  A    between atoms: C_20  and  C_23
   10  A    between atoms: C_24  and  C_37
   11  A    between atoms: C_34  and  C_38
   12  A    between atoms: C_38  and  N_43
                            x       y       z     vdW  Elec       q    Type
                         _______ _______ _______ _____ _____    ______ ____

>  <TORSDO>
F 12

$$$$
=
 OpenBabel10222416443D

 45 47  0  0  1  0  0  0  0  0999 V2000
  189.6580  176.1630  142.1800 C   0  0  0  0  0  3  0  0  0  0  0  0
  188.8930  178.3100  142.1420 N   0  0  0  0  0  0  0  0  0  0  0  0
  189.5110  176.5570  140.7470 C   0  0  1  0  0  3  0  0  0  0  0  0
  189.0270  177.9610  140.9070 C   0  0  0  0  0  0  0  0  0  0  0  0
  189.2960  177.1980  142.9320 C   0  0  0  0  0  0  0  0  0  0  0  0
  189.3890  177.2320  147.2020 C   0  0  0  0  0  3  0  0  0  0  0  0
  190.4950  176.7700  146.4830 C   0  0  0  0  0  0  0  0  0  0  0  0
  190.4320  176.7720  145.0860 C   0  0  0  0  0  3  0  0  0  0  0  0
  188.2830  177.6740  146.5490 N   0  0  0  0  0  0  0  0  0  0  0  0
  189.2920  177.2300  144.4150 C   0  0  0  0  0  0  0  0  0  0  0  0
  186.9990  178.1520  144.5860 N   0  0  0  0  0  1  0  0  0  0  0  0
  188.2020  177.6880  145.1920 C   0  0  0  0  0  0  0  0  0  0  0  0
  192.0320  176.8100  148.4720 N   0  0  0  0  0  2  0  0  0  0  0  0
  191.7000  176.2900  147.1820 C   0  0  0  0  0  0  0  0  0  0  0  0
  192.4400  175.4230  146.6410 O   0  0  0  0  0  0  0  0  0  0  0  0
  193.2140  176.3730  149.1970 C   0  0  0  0  0  2  0  0  0  0  0  0
  193.6880  177.4880  150.1040 C   0  0  0  0  0  1  0  0  0  0  0  0
  190.8340  176.5040  140.0450 C   0  0  0  0  0  0  0  0  0  0  0  0
  190.9890  175.6390  138.9230 N   0  0  0  0  0  2  0  0  0  0  0  0
  191.8060  177.2010  140.4490 O   0  0  0  0  0  0  0  0  0  0  0  0
  191.3710  176.4770  136.3070 O   0  0  0  0  0  0  0  0  0  0  0  0
  194.4370  174.0870  137.5650 O   0  0  0  0  0  0  0  0  0  0  0  0
  192.3570  175.9560  136.8980 C   0  0  0  0  0  0  0  0  0  0  0  0
  193.6100  175.8040  136.2060 N   0  0  0  0  0  0  0  0  0  0  0  0
  196.0550  175.2560  136.3670 N   0  0  0  0  0  0  0  0  0  0  0  0
  192.2170  175.5320  138.2560 N   0  0  0  0  0  2  0  0  0  0  0  0
  193.7340  176.3590  134.8640 C   0  0  0  0  0  1  0  0  0  0  0  0
  196.3960  176.4040  135.7250 O   0  0  0  0  0  1  0  0  0  0  0  0
  194.6890  175.0190  136.7520 C   0  0  0  0  0  0  0  0  0  0  0  0
  197.7160  174.7090  137.8920 C   0  0  0  0  0  1  0  0  0  0  0  0
  198.0170  174.2970  135.6010 C   0  0  0  0  0  1  0  0  0  0  0  0
  197.0360  174.2940  136.6730 N   0  0  0  0  0  0  0  0  0  0  0  0
  188.6600  178.8590  139.7730 C   0  0  0  0  0  2  0  0  0  0  0  0
  187.6890  178.1530  138.8420 C   0  0  0  0  0  2  0  0  0  0  0  0
  188.3040  177.9900  137.4600 C   0  0  0  0  0  2  0  0  0  0  0  0
  188.1050  175.7190  137.1680 N   0  0  0  0  0  2  0  0  0  0  0  0
  188.0920  174.8080  136.0280 C   0  0  2  0  0  3  0  0  0  0  0  0
  188.1180  175.6690  134.7870 C   0  0  0  0  0  2  0  0  0  0  0  0
  187.6090  176.9540  136.7130 N   0  0  0  0  0  0  0  0  0  0  0  0
  188.0150  177.0710  135.3210 C   0  0  0  0  0  2  0  0  0  0  0  0
  186.8300  173.9360  136.0520 C   0  0  1  0  0  3  0  0  0  0  0  0
  186.1100  173.9840  134.7120 C   0  0  0  0  0  1  0  0  0  0  0  0
  187.1470  172.5150  136.4000 C   0  0  0  0  0  0  0  0  0  0  0  0
  187.9160  172.2390  137.5230 O   0  0  0  0  0  1  0  0  0  0  0  0
  186.7270  171.5680  135.6830 O   0  0  0  0  0  0  0  0  0  0  0  0
  1  5  2  0  0  0  0
  2  5  1  0  0  0  0
  3 18  1  6  0  0  0
  3  4  1  0  0  0  0
  3  1  1  0  0  0  0
  4  2  2  0  0  0  0
  5 10  1  0  0  0  0
  7 14  1  0  0  0  0
  7  6  2  0  0  0  0
  8  7  1  0  0  0  0
  9  6  1  0  0  0  0
 10  8  2  0  0  0  0
 10 12  1  0  0  0  0
 11 12  1  0  0  0  0
 12  9  2  0  0  0  0
 13 16  1  0  0  0  0
 14 13  1  0  0  0  0
 15 14  2  0  0  0  0
 16 17  1  0  0  0  0
 18 20  2  0  0  0  0
 19 18  1  0  0  0  0
 21 23  2  0  0  0  0
 23 26  1  0  0  0  0
 24 29  1  0  0  0  0
 24 23  1  0  0  0  0
 25 32  1  0  0  0  0
 25 29  1  0  0  0  0
 26 19  1  0  0  0  0
 27 24  1  0  0  0  0
 28 25  1  0  0  0  0
 29 22  2  0  0  0  0
 31 32  1  0  0  0  0
 32 30  1  0  0  0  0
 33  4  1  0  0  0  0
 34 33  1  0  0  0  0
 35 34  1  0  0  0  0
 37 41  1  6  0  0  0
 37 36  1  0  0  0  0
 38 40  1  0  0  0  0
 38 37  1  0  0  0  0
 39 36  1  0  0  0  0
 39 35  1  0  0  0  0
 40 39  1  0  0  0  0
 41 42  1  6  0  0  0
 41 43  1  0  0  0  0
 43 44  1  0  0  0  0
 45 43  2  0  0  0  0
M  END
>  <MODEL>
8

>  <REMARK>
 VINA RESULT:      -6.8      1.709      2.198
  Name = 
  12 active torsions:
  status: ('A' for Active; 'I' for Inactive)
    1  A    between atoms: C_4  and  C_30
    2  A    between atoms: C_8  and  C_33
    3  A    between atoms: C_9  and  C_20
    4  A    between atoms: N_11  and  N_25
    5  A    between atoms: N_12  and  C_29
    6  A    between atoms: N_15  and  N_22
    7  A    between atoms: C_16  and  C_34
    8  A    between atoms: C_16  and  C_35
    9  A    between atoms: C_20  and  C_23
   10  A    between atoms: C_24  and  C_37
   11  A    between atoms: C_34  and  C_38
   12  A    between atoms: C_38  and  N_43
                            x       y       z     vdW  Elec       q    Type
                         _______ _______ _______ _____ _____    ______ ____

>  <TORSDO>
F 12

$$$$
=
 OpenBabel10222416443D

 45 47  0  0  1  0  0  0  0  0999 V2000
  189.2400  176.1950  142.7550 C   0  0  0  0  0  3  0  0  0  0  0  0
  188.1410  178.1900  142.8410 N   0  0  0  0  0  0  0  0  0  0  0  0
  188.7980  176.5190  141.3660 C   0  0  1  0  0  3  0  0  0  0  0  0
  188.1260  177.8320  141.6010 C   0  0  0  0  0  0  0  0  0  0  0  0
  188.8430  177.1800  143.5550 C   0  0  0  0  0  0  0  0  0  0  0  0
  189.6160  177.3280  147.7520 C   0  0  0  0  0  3  0  0  0  0  0  0
  190.5700  176.7880  146.8850 C   0  0  0  0  0  0  0  0  0  0  0  0
  190.2860  176.7550  145.5170 C   0  0  0  0  0  3  0  0  0  0  0  0
  188.4430  177.8090  147.2660 N   0  0  0  0  0  0  0  0  0  0  0  0
  189.0770  177.2530  145.0180 C   0  0  0  0  0  0  0  0  0  0  0  0
  186.8860  178.2990  145.5140 N   0  0  0  0  0  1  0  0  0  0  0  0
  188.1470  177.7900  145.9390 C   0  0  0  0  0  0  0  0  0  0  0  0
  192.4270  176.8330  148.5790 N   0  0  0  0  0  2  0  0  0  0  0  0
  191.8470  176.2650  147.4020 C   0  0  0  0  0  0  0  0  0  0  0  0
  192.4290  175.3180  146.8050 O   0  0  0  0  0  0  0  0  0  0  0  0
  193.6880  176.3560  149.1230 C   0  0  0  0  0  2  0  0  0  0  0  0
  194.0160  177.1280  150.3840 C   0  0  0  0  0  1  0  0  0  0  0  0
  189.9800  176.6570  140.4540 C   0  0  0  0  0  0  0  0  0  0  0  0
  189.9730  175.9770  139.2020 N   0  0  0  0  0  2  0  0  0  0  0  0
  190.9780  177.3530  140.7930 O   0  0  0  0  0  0  0  0  0  0  0  0
  189.7300  175.8270  136.4430 O   0  0  0  0  0  0  0  0  0  0  0  0
  193.6060  175.3080  137.6250 O   0  0  0  0  0  0  0  0  0  0  0  0
  190.8940  175.9450  136.9160 C   0  0  0  0  0  0  0  0  0  0  0  0
  192.0290  175.9790  136.0310 N   0  0  0  0  0  0  0  0  0  0  0  0
  194.4890  176.4080  135.7730 N   0  0  0  0  0  0  0  0  0  0  0  0
  191.0680  176.0510  138.3310 N   0  0  0  0  0  2  0  0  0  0  0  0
  191.7890  175.9850  134.5940 C   0  0  0  0  0  1  0  0  0  0  0  0
  194.2720  177.2650  134.7410 O   0  0  0  0  0  1  0  0  0  0  0  0
  193.3810  175.8830  136.5250 C   0  0  0  0  0  0  0  0  0  0  0  0
  196.7280  176.8540  135.3550 C   0  0  0  0  0  1  0  0  0  0  0  0
  195.9980  174.6530  135.7220 C   0  0  0  0  0  1  0  0  0  0  0  0
  195.8010  176.0360  136.1240 N   0  0  0  0  0  0  0  0  0  0  0  0
  187.4380  178.6270  140.5430 C   0  0  0  0  0  2  0  0  0  0  0  0
  186.1100  179.1510  141.0650 C   0  0  0  0  0  2  0  0  0  0  0  0
  184.9530  178.4660  140.3540 C   0  0  0  0  0  2  0  0  0  0  0  0
  182.8300  179.0020  141.0520 N   0  0  0  0  0  2  0  0  0  0  0  0
  182.1850  179.2640  142.3350 C   0  0  2  0  0  3  0  0  0  0  0  0
  183.2190  178.9900  143.4020 C   0  0  0  0  0  2  0  0  0  0  0  0
  183.9030  178.1280  141.3010 N   0  0  0  0  0  0  0  0  0  0  0  0
  184.3940  178.4500  142.6330 C   0  0  0  0  0  2  0  0  0  0  0  0
  180.9680  178.3490  142.5200 C   0  0  1  0  0  3  0  0  0  0  0  0
  180.5030  178.3460  143.9680 C   0  0  0  0  0  1  0  0  0  0  0  0
  179.8330  178.7540  141.6300 C   0  0  0  0  0  0  0  0  0  0  0  0
  179.0400  177.7770  141.0440 O   0  0  0  0  0  0  0  0  0  0  0  0
  179.5950  179.9710  141.4050 O   0  0  0  0  0  1  0  0  0  0  0  0
  1  5  2  0  0  0  0
  2  5  1  0  0  0  0
  3 18  1  6  0  0  0
  3  4  1  0  0  0  0
  3  1  1  0  0  0  0
  4  2  2  0  0  0  0
  5 10  1  0  0  0  0
  7 14  1  0  0  0  0
  7  6  2  0  0  0  0
  8  7  1  0  0  0  0
  9  6  1  0  0  0  0
 10  8  2  0  0  0  0
 10 12  1  0  0  0  0
 11 12  1  0  0  0  0
 12  9  2  0  0  0  0
 13 16  1  0  0  0  0
 14 13  1  0  0  0  0
 15 14  2  0  0  0  0
 16 17  1  0  0  0  0
 18 20  2  0  0  0  0
 19 18  1  0  0  0  0
 21 23  2  0  0  0  0
 23 26  1  0  0  0  0
 24 29  1  0  0  0  0
 24 23  1  0  0  0  0
 25 32  1  0  0  0  0
 25 29  1  0  0  0  0
 26 19  1  0  0  0  0
 27 24  1  0  0  0  0
 28 25  1  0  0  0  0
 29 22  2  0  0  0  0
 30 32  1  0  0  0  0
 31 32  1  0  0  0  0
 33 34  1  0  0  0  0
 33  4  1  0  0  0  0
 35 34  1  0  0  0  0
 35 39  1  0  0  0  0
 36 39  1  0  0  0  0
 36 37  1  0  0  0  0
 37 41  1  1  0  0  0
 37 38  1  0  0  0  0
 39 40  1  0  0  0  0
 40 38  1  0  0  0  0
 41 42  1  1  0  0  0
 43 41  1  0  0  0  0
 44 43  2  0  0  0  0
 45 43  1  0  0  0  0
M  END
>  <MODEL>
9

>  <REMARK>
 VINA RESULT:      -6.7      3.029      4.820
  Name = 
  12 active torsions:
  status: ('A' for Active; 'I' for Inactive)
    1  A    between atoms: C_4  and  C_30
    2  A    between atoms: C_8  and  C_33
    3  A    between atoms: C_9  and  C_20
    4  A    between atoms: N_11  and  N_25
    5  A    between atoms: N_12  and  C_29
    6  A    between atoms: N_15  and  N_22
    7  A    between atoms: C_16  and  C_34
    8  A    between atoms: C_16  and  C_35
    9  A    between atoms: C_20  and  C_23
   10  A    between atoms: C_24  and  C_37
   11  A    between atoms: C_34  and  C_38
   12  A    between atoms: C_38  and  N_43
                            x       y       z     vdW  Elec       q    Type
                         _______ _______ _______ _____ _____    ______ ____

>  <TORSDO>
F 12

$$$$
