=
 OpenBabel10222417153D

 56 60  0  0  1  0  0  0  0  0999 V2000
  189.3590  176.7760  139.6400 C   0  0  2  0  0  3  0  0  0  0  0  0
  190.3620  177.2560  137.3680 N   0  0  0  0  0  2  0  0  0  0  0  0
  191.2190  175.5710  138.7320 O   0  0  0  0  0  0  0  0  0  0  0  0
  190.3680  176.4840  138.5720 C   0  0  0  0  0  0  0  0  0  0  0  0
  189.4650  178.4020  137.2430 C   0  0  0  0  0  2  0  0  0  0  0  0
  188.1160  177.3780  139.0300 C   0  0  0  0  0  3  0  0  0  0  0  0
  188.1460  178.1220  137.9170 C   0  0  0  0  0  0  0  0  0  0  0  0
  186.9220  178.7150  137.4610 N   0  0  0  0  0  2  0  0  0  0  0  0
  185.4230  177.1950  136.3530 C   0  0  0  0  0  2  0  0  0  0  0  0
  185.6410  178.0800  137.3220 C   0  0  0  0  0  0  0  0  0  0  0  0
  184.6380  178.1830  138.4490 C   0  0  1  0  0  3  0  0  0  0  0  0
  185.0090  179.0690  140.5430 C   0  0  0  0  0  1  0  0  0  0  0  0
  184.7430  179.3820  139.1970 O   0  0  0  0  0  0  0  0  0  0  0  0
  183.1980  177.8490  138.0380 C   0  0  0  0  0  2  0  0  0  0  0  0
  182.6650  176.6830  138.8530 C   0  0  0  0  0  2  0  0  0  0  0  0
  180.9580  174.9250  138.3690 C   0  0  0  0  0  2  0  0  0  0  0  0
  180.8080  177.2390  137.2690 C   0  0  0  0  0  2  0  0  0  0  0  0
  181.2060  176.4320  138.5160 C   0  0  2  0  0  3  0  0  0  0  0  0
  179.6080  176.6120  136.5670 C   0  0  0  0  0  2  0  0  0  0  0  0
  179.9270  175.1940  136.0750 C   0  0  0  0  0  2  0  0  0  0  0  0
  181.0030  174.4800  136.9050 C   0  0  2  0  0  3  0  0  0  0  0  0
  180.8110  172.9780  136.7970 C   0  0  0  0  0  2  0  0  0  0  0  0
  184.1530  172.2700  135.7950 C   0  0  1  0  0  3  0  0  0  0  0  0
  181.7560  172.4140  135.8450 N   0  0  0  0  0  0  0  0  0  0  0  0
  183.5880  170.8850  135.9970 C   0  0  0  0  0  2  0  0  0  0  0  0
  182.9690  173.2110  135.9290 C   0  0  0  0  0  2  0  0  0  0  0  0
  182.1290  171.0970  136.3320 C   0  0  0  0  0  2  0  0  0  0  0  0
  185.1850  172.5620  136.8690 C   0  0  0  0  0  2  0  0  0  0  0  0
  184.7450  173.7370  137.7220 C   0  0  0  0  0  1  0  0  0  0  0  0
  189.9590  177.7220  140.6720 C   0  0  0  0  0  2  0  0  0  0  0  0
  189.9960  178.3430  143.3500 S   0  0  0  0  0  0  0  0  0  0  0  0
  189.3510  177.0860  144.4850 C   0  0  2  0  0  3  0  0  0  0  0  0
  189.9980  177.0810  142.0490 C   0  0  1  0  0  3  0  0  0  0  0  0
  188.7780  176.2000  142.2430 C   0  0  0  0  0  2  0  0  0  0  0  0
  188.3410  176.2670  143.6980 C   0  0  0  0  0  2  0  0  0  0  0  0
  188.7160  177.7320  145.7270 C   0  0  1  0  0  3  0  0  0  0  0  0
  187.2610  178.0730  145.5600 C   0  0  0  0  0  0  0  0  0  0  0  0
  185.0750  178.5890  146.4780 C   0  0  0  0  0  3  0  0  0  0  0  0
  186.7470  178.2300  144.2670 C   0  0  0  0  0  3  0  0  0  0  0  0
  186.4200  178.2630  146.6660 C   0  0  0  0  0  3  0  0  0  0  0  0
  184.5650  178.7540  145.1810 C   0  0  0  0  0  0  0  0  0  0  0  0
  185.4040  178.5640  144.0800 C   0  0  0  0  0  3  0  0  0  0  0  0
  183.1170  179.0490  144.9490 C   0  0  0  0  0  2  0  0  0  0  0  0
  181.3550  178.6620  143.1830 C   0  0  0  0  0  0  0  0  0  0  0  0
  182.7270  178.7460  143.5790 N   0  0  0  0  0  2  0  0  0  0  0  0
  180.4370  178.8050  144.0330 O   0  0  0  0  0  0  0  0  0  0  0  0
  179.6110  178.3050  141.6320 O   0  0  0  0  0  1  0  0  0  0  0  0
  180.9970  178.4090  141.7550 C   0  0  1  0  0  3  0  0  0  0  0  0
  180.7170  180.0300  139.8210 C   0  0  0  0  0  0  0  0  0  0  0  0
  181.4800  179.4840  140.8980 N   0  0  0  0  0  2  0  0  0  0  0  0
  179.5730  179.5700  139.5520 O   0  0  0  0  0  0  0  0  0  0  0  0
  180.4390  181.9320  138.3650 N   0  0  0  0  0  1  0  0  0  0  0  0
  181.2530  181.0690  139.0670 O   0  0  0  0  0  0  0  0  0  0  0  0
  188.9630  176.9340  147.0100 C   0  0  0  0  0  2  0  0  0  0  0  0
  191.3940  176.5990  147.3620 C   0  0  0  0  0  1  0  0  0  0  0  0
  190.1860  177.4160  147.7770 C   0  0  0  0  0  2  0  0  0  0  0  0
  1 30  1  1  0  0  0
  2  4  1  0  0  0  0
  4  3  2  0  0  0  0
  4  1  1  0  0  0  0
  5  2  1  0  0  0  0
  5  7  1  0  0  0  0
  6  1  1  0  0  0  0
  7  6  2  0  0  0  0
  8  7  1  0  0  0  0
  9 10  2  0  0  0  0
 10  8  1  0  0  0  0
 10 11  1  0  0  0  0
 11 14  1  6  0  0  0
 11 13  1  0  0  0  0
 13 12  1  0  0  0  0
 14 15  1  0  0  0  0
 16 18  1  0  0  0  0
 17 18  1  0  0  0  0
 18 15  1  6  0  0  0
 19 17  1  0  0  0  0
 20 19  1  0  0  0  0
 20 21  1  0  0  0  0
 21 22  1  1  0  0  0
 21 16  1  0  0  0  0
 23 26  1  0  0  0  0
 23 25  1  0  0  0  0
 23 28  1  1  0  0  0
 24 26  1  0  0  0  0
 24 27  1  0  0  0  0
 24 22  1  0  0  0  0
 25 27  1  0  0  0  0
 28 29  1  0  0  0  0
 31 32  1  0  0  0  0
 32 36  1  1  0  0  0
 33 30  1  6  0  0  0
 33 34  1  0  0  0  0
 33 31  1  0  0  0  0
 34 35  1  0  0  0  0
 35 32  1  0  0  0  0
 36 54  1  1  0  0  0
 37 36  1  0  0  0  0
 37 40  1  0  0  0  0
 38 40  2  0  0  0  0
 39 37  2  0  0  0  0
 41 38  1  0  0  0  0
 42 39  1  0  0  0  0
 42 41  2  0  0  0  0
 43 41  1  0  0  0  0
 44 45  1  0  0  0  0
 44 46  2  0  0  0  0
 45 43  1  0  0  0  0
 48 47  1  1  0  0  0
 48 44  1  0  0  0  0
 49 50  1  0  0  0  0
 50 48  1  0  0  0  0
 51 49  2  0  0  0  0
 52 53  1  0  0  0  0
 53 49  1  0  0  0  0
 54 56  1  0  0  0  0
 55 56  1  0  0  0  0
M  END
>  <MODEL>
1

>  <REMARK>
 VINA RESULT:      -7.8      0.000      0.000
  Name = 
  21 active torsions:
  status: ('A' for Active; 'I' for Inactive)
    1  A    between atoms: C_1  and  C_11
    2  A    between atoms: C_2  and  N_19
    3  A    between atoms: C_2  and  C_54
    4  A    between atoms: C_4  and  C_14
    5  A    between atoms: C_7  and  C_11
    6  A    between atoms: C_8  and  C_10
    7  A    between atoms: C_11  and  C_17
    8  A    between atoms: C_14  and  C_47
    9  A    between atoms: N_15  and  C_30
   10  A    between atoms: N_15  and  C_42
   11  A    between atoms: C_17  and  C_25
   12  A    between atoms: C_20  and  O_41
   13  A    between atoms: C_24  and  N_27
   14  A    between atoms: C_24  and  C_33
   15  A    between atoms: C_26  and  C_50
   16  A    between atoms: N_34  and  C_39
   17  A    between atoms: C_35  and  C_50
   18  A    between atoms: C_35  and  C_56
   19  A    between atoms: C_39  and  C_43
   20  A    between atoms: C_42  and  C_56
   21  A    between atoms: O_55  and  C_56
                            x       y       z     vdW  Elec       q    Type
                         _______ _______ _______ _____ _____    ______ ____

>  <TORSDO>
F 21

$$$$
=
 OpenBabel10222417153D

 56 60  0  0  1  0  0  0  0  0999 V2000
  189.5530  176.9060  139.8690 C   0  0  2  0  0  3  0  0  0  0  0  0
  190.2500  177.2520  137.4620 N   0  0  0  0  0  2  0  0  0  0  0  0
  191.2560  175.6180  138.7850 O   0  0  0  0  0  0  0  0  0  0  0  0
  190.4060  176.5400  138.6930 C   0  0  0  0  0  0  0  0  0  0  0  0
  189.3610  178.4090  137.3990 C   0  0  0  0  0  2  0  0  0  0  0  0
  188.2490  177.5040  139.4010 C   0  0  0  0  0  3  0  0  0  0  0  0
  188.1400  178.1910  138.2570 C   0  0  0  0  0  0  0  0  0  0  0  0
  186.8750  178.7880  137.9380 N   0  0  0  0  0  2  0  0  0  0  0  0
  185.4020  177.2020  136.8890 C   0  0  0  0  0  2  0  0  0  0  0  0
  185.6030  178.1300  137.8200 C   0  0  0  0  0  0  0  0  0  0  0  0
  184.5930  178.2660  138.9370 C   0  0  1  0  0  3  0  0  0  0  0  0
  183.5470  180.3190  138.9060 C   0  0  0  0  0  1  0  0  0  0  0  0
  184.5590  179.5580  139.5200 O   0  0  0  0  0  0  0  0  0  0  0  0
  183.2010  177.7200  138.5930 C   0  0  0  0  0  2  0  0  0  0  0  0
  182.7590  176.6950  139.6220 C   0  0  0  0  0  2  0  0  0  0  0  0
  180.8180  175.1400  139.3820 C   0  0  0  0  0  2  0  0  0  0  0  0
  180.6360  177.5910  138.6420 C   0  0  0  0  0  2  0  0  0  0  0  0
  181.2440  176.5920  139.6410 C   0  0  2  0  0  3  0  0  0  0  0  0
  179.2450  177.1500  138.2000 C   0  0  0  0  0  2  0  0  0  0  0  0
  179.2910  175.7980  137.4770 C   0  0  0  0  0  2  0  0  0  0  0  0
  180.4600  174.9040  137.9140 C   0  0  2  0  0  3  0  0  0  0  0  0
  180.0980  173.4480  137.6790 C   0  0  0  0  0  2  0  0  0  0  0  0
  183.1590  172.3550  136.2280 C   0  0  1  0  0  3  0  0  0  0  0  0
  180.8460  172.9160  136.5500 N   0  0  0  0  0  0  0  0  0  0  0  0
  182.3480  171.0820  136.2430 C   0  0  0  0  0  2  0  0  0  0  0  0
  182.1950  173.4500  136.6470 C   0  0  0  0  0  2  0  0  0  0  0  0
  180.9860  171.4850  136.7580 C   0  0  0  0  0  2  0  0  0  0  0  0
  184.2990  172.2450  137.2230 C   0  0  0  0  0  2  0  0  0  0  0  0
  184.7800  173.6240  137.6330 C   0  0  0  0  0  1  0  0  0  0  0  0
  190.3000  177.8880  140.7620 C   0  0  0  0  0  2  0  0  0  0  0  0
  191.2300  178.2690  143.3210 S   0  0  0  0  0  0  0  0  0  0  0  0
  191.3720  176.7930  144.3630 C   0  0  2  0  0  3  0  0  0  0  0  0
  191.0110  177.1690  141.8970 C   0  0  1  0  0  3  0  0  0  0  0  0
  190.1900  175.9740  142.3450 C   0  0  0  0  0  2  0  0  0  0  0  0
  190.3470  175.7970  143.8480 C   0  0  0  0  0  2  0  0  0  0  0  0
  191.1400  177.1340  145.8430 C   0  0  1  0  0  3  0  0  0  0  0  0
  189.7170  177.4980  146.1700 C   0  0  0  0  0  0  0  0  0  0  0  0
  187.9800  178.0890  147.7570 C   0  0  0  0  0  3  0  0  0  0  0  0
  188.7950  177.6220  145.1240 C   0  0  0  0  0  3  0  0  0  0  0  0
  189.3060  177.7420  147.4880 C   0  0  0  0  0  3  0  0  0  0  0  0
  187.0590  178.2200  146.7060 C   0  0  0  0  0  0  0  0  0  0  0  0
  187.4710  177.9760  145.3930 C   0  0  0  0  0  3  0  0  0  0  0  0
  185.6220  178.5360  146.9700 C   0  0  0  0  0  2  0  0  0  0  0  0
  184.5140  178.7610  144.7130 C   0  0  0  0  0  0  0  0  0  0  0  0
  185.0520  179.3460  145.9010 N   0  0  0  0  0  2  0  0  0  0  0  0
  184.5610  177.5140  144.5380 O   0  0  0  0  0  0  0  0  0  0  0  0
  184.8650  180.0860  142.7890 O   0  0  0  0  0  1  0  0  0  0  0  0
  183.8840  179.6220  143.6670 C   0  0  1  0  0  3  0  0  0  0  0  0
  181.4960  179.2540  142.8850 C   0  0  0  0  0  0  0  0  0  0  0  0
  182.8760  178.8820  142.9200 N   0  0  0  0  0  2  0  0  0  0  0  0
  181.0870  180.2520  143.5390 O   0  0  0  0  0  0  0  0  0  0  0  0
  179.5430  177.8500  142.7180 N   0  0  0  0  0  1  0  0  0  0  0  0
  180.6070  178.4960  142.1280 O   0  0  0  0  0  0  0  0  0  0  0  0
  191.6790  176.0630  146.7970 C   0  0  0  0  0  2  0  0  0  0  0  0
  193.1480  175.5990  148.7390 C   0  0  0  0  0  1  0  0  0  0  0  0
  192.3020  176.6540  148.0530 C   0  0  0  0  0  2  0  0  0  0  0  0
  1 30  1  1  0  0  0
  2  4  1  0  0  0  0
  4  3  2  0  0  0  0
  4  1  1  0  0  0  0
  5  2  1  0  0  0  0
  5  7  1  0  0  0  0
  6  1  1  0  0  0  0
  7  6  2  0  0  0  0
  8  7  1  0  0  0  0
  9 10  2  0  0  0  0
 10  8  1  0  0  0  0
 10 11  1  0  0  0  0
 11 14  1  6  0  0  0
 11 13  1  0  0  0  0
 12 13  1  0  0  0  0
 14 15  1  0  0  0  0
 16 18  1  0  0  0  0
 17 18  1  0  0  0  0
 18 15  1  6  0  0  0
 19 17  1  0  0  0  0
 20 21  1  0  0  0  0
 20 19  1  0  0  0  0
 21 22  1  1  0  0  0
 21 16  1  0  0  0  0
 23 25  1  0  0  0  0
 23 26  1  0  0  0  0
 23 28  1  1  0  0  0
 24 26  1  0  0  0  0
 24 27  1  0  0  0  0
 24 22  1  0  0  0  0
 25 27  1  0  0  0  0
 28 29  1  0  0  0  0
 31 32  1  0  0  0  0
 32 36  1  1  0  0  0
 33 30  1  6  0  0  0
 33 34  1  0  0  0  0
 33 31  1  0  0  0  0
 34 35  1  0  0  0  0
 35 32  1  0  0  0  0
 36 37  1  0  0  0  0
 36 54  1  1  0  0  0
 37 40  1  0  0  0  0
 39 42  1  0  0  0  0
 39 37  2  0  0  0  0
 40 38  2  0  0  0  0
 41 43  1  0  0  0  0
 41 38  1  0  0  0  0
 42 41  2  0  0  0  0
 44 45  1  0  0  0  0
 45 43  1  0  0  0  0
 46 44  2  0  0  0  0
 48 47  1  6  0  0  0
 48 44  1  0  0  0  0
 49 50  1  0  0  0  0
 49 51  2  0  0  0  0
 50 48  1  0  0  0  0
 53 52  1  0  0  0  0
 53 49  1  0  0  0  0
 54 56  1  0  0  0  0
 56 55  1  0  0  0  0
M  END
>  <MODEL>
2

>  <REMARK>
 VINA RESULT:      -7.3      1.476      2.327
  Name = 
  21 active torsions:
  status: ('A' for Active; 'I' for Inactive)
    1  A    between atoms: C_1  and  C_11
    2  A    between atoms: C_2  and  N_19
    3  A    between atoms: C_2  and  C_54
    4  A    between atoms: C_4  and  C_14
    5  A    between atoms: C_7  and  C_11
    6  A    between atoms: C_8  and  C_10
    7  A    between atoms: C_11  and  C_17
    8  A    between atoms: C_14  and  C_47
    9  A    between atoms: N_15  and  C_30
   10  A    between atoms: N_15  and  C_42
   11  A    between atoms: C_17  and  C_25
   12  A    between atoms: C_20  and  O_41
   13  A    between atoms: C_24  and  N_27
   14  A    between atoms: C_24  and  C_33
   15  A    between atoms: C_26  and  C_50
   16  A    between atoms: N_34  and  C_39
   17  A    between atoms: C_35  and  C_50
   18  A    between atoms: C_35  and  C_56
   19  A    between atoms: C_39  and  C_43
   20  A    between atoms: C_42  and  C_56
   21  A    between atoms: O_55  and  C_56
                            x       y       z     vdW  Elec       q    Type
                         _______ _______ _______ _____ _____    ______ ____

>  <TORSDO>
F 21

$$$$
=
 OpenBabel10222417153D

 56 60  0  0  1  0  0  0  0  0999 V2000
  184.7800  179.1590  139.1780 C   0  0  2  0  0  3  0  0  0  0  0  0
  183.4280  178.5550  141.2290 N   0  0  0  0  0  2  0  0  0  0  0  0
  185.5320  179.5390  141.4190 O   0  0  0  0  0  0  0  0  0  0  0  0
  184.6220  179.1060  140.6670 C   0  0  0  0  0  0  0  0  0  0  0  0
  182.4350  177.9300  140.3580 C   0  0  0  0  0  2  0  0  0  0  0  0
  183.4270  179.2250  138.5130 C   0  0  0  0  0  3  0  0  0  0  0  0
  182.3310  178.6730  139.0490 C   0  0  0  0  0  0  0  0  0  0  0  0
  181.1080  178.7210  138.3030 N   0  0  0  0  0  2  0  0  0  0  0  0
  180.8210  180.1100  136.3600 C   0  0  0  0  0  2  0  0  0  0  0  0
  180.9550  178.8950  136.8850 C   0  0  0  0  0  0  0  0  0  0  0  0
  181.2510  177.7360  135.9600 C   0  0  1  0  0  3  0  0  0  0  0  0
  183.3800  177.1790  135.2770 C   0  0  0  0  0  1  0  0  0  0  0  0
  182.2730  178.0070  135.0160 O   0  0  0  0  0  0  0  0  0  0  0  0
  181.4320  176.3920  136.6790 C   0  0  0  0  0  2  0  0  0  0  0  0
  180.1400  175.5930  136.6540 C   0  0  0  0  0  2  0  0  0  0  0  0
  181.7660  173.8180  137.3210 C   0  0  0  0  0  2  0  0  0  0  0  0
  179.2920  173.2550  136.9340 C   0  0  0  0  0  2  0  0  0  0  0  0
  180.3110  174.2970  137.4250 C   0  0  2  0  0  3  0  0  0  0  0  0
  179.7710  171.8360  137.2230 C   0  0  0  0  0  2  0  0  0  0  0  0
  181.0820  171.5290  136.4890 C   0  0  0  0  0  2  0  0  0  0  0  0
  181.9440  172.7700  136.2200 C   0  0  2  0  0  3  0  0  0  0  0  0
  183.4010  172.3590  136.1040 C   0  0  0  0  0  2  0  0  0  0  0  0
  186.5610  173.5360  137.2470 C   0  0  1  0  0  3  0  0  0  0  0  0
  184.2700  173.4460  136.5320 N   0  0  0  0  0  0  0  0  0  0  0  0
  186.4460  174.2080  135.9000 C   0  0  0  0  0  2  0  0  0  0  0  0
  185.2110  172.8840  137.4870 C   0  0  0  0  0  2  0  0  0  0  0  0
  185.0740  173.8350  135.3870 C   0  0  0  0  0  2  0  0  0  0  0  0
  187.6540  172.4850  137.2000 C   0  0  0  0  0  2  0  0  0  0  0  0
  188.7620  172.9130  136.2560 C   0  0  0  0  0  1  0  0  0  0  0  0
  185.5510  177.9360  138.6980 C   0  0  0  0  0  2  0  0  0  0  0  0
  188.1210  178.0740  139.6630 S   0  0  0  0  0  0  0  0  0  0  0  0
  189.4570  177.9460  138.4440 C   0  0  2  0  0  3  0  0  0  0  0  0
  186.9670  178.3050  138.2860 C   0  0  1  0  0  3  0  0  0  0  0  0
  187.4170  177.4210  137.1370 C   0  0  0  0  0  2  0  0  0  0  0  0
  188.9050  177.1400  137.2800 C   0  0  0  0  0  2  0  0  0  0  0  0
  190.7030  177.2860  139.0530 C   0  0  1  0  0  3  0  0  0  0  0  0
  190.6610  177.1710  140.5530 C   0  0  0  0  0  0  0  0  0  0  0  0
  191.5040  177.7350  142.7580 C   0  0  0  0  0  3  0  0  0  0  0  0
  189.6660  176.3830  141.1420 C   0  0  0  0  0  3  0  0  0  0  0  0
  191.5750  177.8540  141.3680 C   0  0  0  0  0  3  0  0  0  0  0  0
  190.5000  176.9500  143.3460 C   0  0  0  0  0  0  0  0  0  0  0  0
  189.5900  176.2690  142.5320 C   0  0  0  0  0  3  0  0  0  0  0  0
  190.4330  176.7600  144.8280 C   0  0  0  0  0  2  0  0  0  0  0  0
  188.8900  177.3180  146.7470 C   0  0  0  0  0  0  0  0  0  0  0  0
  189.1210  177.1190  145.3500 N   0  0  0  0  0  2  0  0  0  0  0  0
  189.8200  177.1400  147.5780 O   0  0  0  0  0  0  0  0  0  0  0  0
  187.6940  178.6120  148.3180 O   0  0  0  0  0  1  0  0  0  0  0  0
  187.5450  177.7440  147.2350 C   0  0  1  0  0  3  0  0  0  0  0  0
  185.3950  178.6880  146.2670 C   0  0  0  0  0  0  0  0  0  0  0  0
  186.7940  178.4120  146.1790 N   0  0  0  0  0  2  0  0  0  0  0  0
  184.7360  178.3300  147.2820 O   0  0  0  0  0  0  0  0  0  0  0  0
  183.7130  178.7680  144.5410 N   0  0  0  0  0  1  0  0  0  0  0  0
  184.7650  179.3470  145.2150 O   0  0  0  0  0  0  0  0  0  0  0  0
  191.0560  175.9490  138.3960 C   0  0  0  0  0  2  0  0  0  0  0  0
  193.4180  175.4100  137.8710 C   0  0  0  0  0  1  0  0  0  0  0  0
  192.1580  176.0770  137.3550 C   0  0  0  0  0  2  0  0  0  0  0  0
  1 30  1  6  0  0  0
  1  4  1  0  0  0  0
  4  2  1  0  0  0  0
  4  3  2  0  0  0  0
  5  2  1  0  0  0  0
  6  7  2  0  0  0  0
  6  1  1  0  0  0  0
  7  5  1  0  0  0  0
  8  7  1  0  0  0  0
  9 10  2  0  0  0  0
 10  8  1  0  0  0  0
 11 14  1  1  0  0  0
 11 10  1  0  0  0  0
 13 12  1  0  0  0  0
 13 11  1  0  0  0  0
 15 14  1  0  0  0  0
 16 18  1  0  0  0  0
 17 19  1  0  0  0  0
 17 18  1  0  0  0  0
 18 15  1  6  0  0  0
 20 19  1  0  0  0  0
 21 22  1  1  0  0  0
 21 20  1  0  0  0  0
 21 16  1  0  0  0  0
 22 24  1  0  0  0  0
 23 28  1  6  0  0  0
 23 26  1  0  0  0  0
 24 26  1  0  0  0  0
 25 23  1  0  0  0  0
 27 25  1  0  0  0  0
 27 24  1  0  0  0  0
 29 28  1  0  0  0  0
 32 36  1  1  0  0  0
 32 31  1  0  0  0  0
 33 30  1  1  0  0  0
 33 31  1  0  0  0  0
 34 35  1  0  0  0  0
 34 33  1  0  0  0  0
 35 32  1  0  0  0  0
 36 54  1  6  0  0  0
 36 37  1  0  0  0  0
 37 39  2  0  0  0  0
 37 40  1  0  0  0  0
 38 41  1  0  0  0  0
 39 42  1  0  0  0  0
 40 38  2  0  0  0  0
 41 43  1  0  0  0  0
 42 41  2  0  0  0  0
 43 45  1  0  0  0  0
 44 48  1  0  0  0  0
 44 46  2  0  0  0  0
 45 44  1  0  0  0  0
 48 47  1  1  0  0  0
 49 51  2  0  0  0  0
 50 49  1  0  0  0  0
 50 48  1  0  0  0  0
 52 53  1  0  0  0  0
 53 49  1  0  0  0  0
 56 55  1  0  0  0  0
 56 54  1  0  0  0  0
M  END
>  <MODEL>
3

>  <REMARK>
 VINA RESULT:      -7.0      2.858      6.261
  Name = 
  21 active torsions:
  status: ('A' for Active; 'I' for Inactive)
    1  A    between atoms: C_1  and  C_11
    2  A    between atoms: C_2  and  N_19
    3  A    between atoms: C_2  and  C_54
    4  A    between atoms: C_4  and  C_14
    5  A    between atoms: C_7  and  C_11
    6  A    between atoms: C_8  and  C_10
    7  A    between atoms: C_11  and  C_17
    8  A    between atoms: C_14  and  C_47
    9  A    between atoms: N_15  and  C_30
   10  A    between atoms: N_15  and  C_42
   11  A    between atoms: C_17  and  C_25
   12  A    between atoms: C_20  and  O_41
   13  A    between atoms: C_24  and  N_27
   14  A    between atoms: C_24  and  C_33
   15  A    between atoms: C_26  and  C_50
   16  A    between atoms: N_34  and  C_39
   17  A    between atoms: C_35  and  C_50
   18  A    between atoms: C_35  and  C_56
   19  A    between atoms: C_39  and  C_43
   20  A    between atoms: C_42  and  C_56
   21  A    between atoms: O_55  and  C_56
                            x       y       z     vdW  Elec       q    Type
                         _______ _______ _______ _____ _____    ______ ____

>  <TORSDO>
F 21

$$$$
=
 OpenBabel10222417153D

 56 60  0  0  1  0  0  0  0  0999 V2000
  190.8230  177.6500  145.2810 C   0  0  2  0  0  3  0  0  0  0  0  0
  189.6240  176.5480  147.2170 N   0  0  0  0  0  2  0  0  0  0  0  0
  191.9510  176.6720  147.1530 O   0  0  0  0  0  0  0  0  0  0  0  0
  190.8540  176.9350  146.5970 C   0  0  0  0  0  0  0  0  0  0  0  0
  188.3620  176.7320  146.5060 C   0  0  0  0  0  2  0  0  0  0  0  0
  189.5280  178.4110  145.1320 C   0  0  0  0  0  3  0  0  0  0  0  0
  188.3850  178.0080  145.7010 C   0  0  0  0  0  0  0  0  0  0  0  0
  187.1900  178.7560  145.4350 N   0  0  0  0  0  2  0  0  0  0  0  0
  185.3870  178.3110  146.9640 C   0  0  0  0  0  2  0  0  0  0  0  0
  185.8350  178.3670  145.7130 C   0  0  0  0  0  0  0  0  0  0  0  0
  184.8330  178.3180  144.5820 C   0  0  1  0  0  3  0  0  0  0  0  0
  182.7770  179.1090  143.9060 C   0  0  0  0  0  1  0  0  0  0  0  0
  183.5010  178.5780  144.9900 O   0  0  0  0  0  0  0  0  0  0  0  0
  185.2520  179.1140  143.3390 C   0  0  0  0  0  2  0  0  0  0  0  0
  185.6420  178.1770  142.2090 C   0  0  0  0  0  2  0  0  0  0  0  0
  184.1830  179.2620  140.4960 C   0  0  0  0  0  2  0  0  0  0  0  0
  186.3670  178.0980  139.8140 C   0  0  0  0  0  2  0  0  0  0  0  0
  185.6280  178.9190  140.8840 C   0  0  2  0  0  3  0  0  0  0  0  0
  185.9010  178.4760  138.4110 C   0  0  0  0  0  2  0  0  0  0  0  0
  184.4080  178.1820  138.2200 C   0  0  0  0  0  2  0  0  0  0  0  0
  183.5960  178.2390  139.5220 C   0  0  2  0  0  3  0  0  0  0  0  0
  182.1500  178.5740  139.2020 C   0  0  0  0  0  2  0  0  0  0  0  0
  180.7070  181.7410  138.4570 C   0  0  1  0  0  3  0  0  0  0  0  0
  181.8550  179.9500  139.5710 N   0  0  0  0  0  0  0  0  0  0  0  0
  179.8750  181.2880  139.6330 C   0  0  0  0  0  2  0  0  0  0  0  0
  181.8250  180.7220  138.3390 C   0  0  0  0  0  2  0  0  0  0  0  0
  180.4940  179.9820  140.0760 C   0  0  0  0  0  2  0  0  0  0  0  0
  179.8560  181.7420  137.2010 C   0  0  0  0  0  2  0  0  0  0  0  0
  180.0790  180.4680  136.4090 C   0  0  0  0  0  1  0  0  0  0  0  0
  190.9860  176.6480  144.1450 C   0  0  0  0  0  2  0  0  0  0  0  0
  191.8440  176.7920  141.5370 S   0  0  0  0  0  0  0  0  0  0  0  0
  190.5860  177.1640  140.2870 C   0  0  2  0  0  3  0  0  0  0  0  0
  190.6410  177.2740  142.8040 C   0  0  1  0  0  3  0  0  0  0  0  0
  189.2680  176.8080  142.3550 C   0  0  0  0  0  2  0  0  0  0  0  0
  189.2610  176.6650  140.8410 C   0  0  0  0  0  2  0  0  0  0  0  0
  190.9260  176.5020  138.9430 C   0  0  1  0  0  3  0  0  0  0  0  0
  189.8670  176.6810  137.8890 C   0  0  0  0  0  0  0  0  0  0  0  0
  188.6150  178.0690  136.3410 C   0  0  0  0  0  3  0  0  0  0  0  0
  189.1580  175.5590  137.4460 C   0  0  0  0  0  3  0  0  0  0  0  0
  189.5970  177.9370  137.3260 C   0  0  0  0  0  3  0  0  0  0  0  0
  187.9100  176.9410  135.8940 C   0  0  0  0  0  0  0  0  0  0  0  0
  188.1800  175.6910  136.4570 C   0  0  0  0  0  3  0  0  0  0  0  0
  186.8160  177.0610  134.8820 C   0  0  0  0  0  2  0  0  0  0  0  0
  184.5060  176.0430  134.8980 C   0  0  0  0  0  0  0  0  0  0  0  0
  185.9290  175.9060  134.9190 N   0  0  0  0  0  2  0  0  0  0  0  0
  183.9760  177.1860  134.8910 O   0  0  0  0  0  0  0  0  0  0  0  0
  184.3380  173.7370  135.3780 O   0  0  0  0  0  1  0  0  0  0  0  0
  183.6320  174.8320  134.8770 C   0  0  1  0  0  3  0  0  0  0  0  0
  182.4190  174.9770  137.1020 C   0  0  0  0  0  0  0  0  0  0  0  0
  182.4310  175.0410  135.6750 N   0  0  0  0  0  2  0  0  0  0  0  0
  183.4740  174.7050  137.7390 O   0  0  0  0  0  0  0  0  0  0  0  0
  181.1980  175.2920  139.1580 N   0  0  0  0  0  1  0  0  0  0  0  0
  181.2270  175.2090  137.7830 O   0  0  0  0  0  0  0  0  0  0  0  0
  192.3120  176.8880  138.4180 C   0  0  0  0  0  2  0  0  0  0  0  0
  193.8530  176.1130  136.6380 C   0  0  0  0  0  1  0  0  0  0  0  0
  193.0890  175.6960  137.8790 C   0  0  0  0  0  2  0  0  0  0  0  0
  1 30  1  6  0  0  0
  1  4  1  0  0  0  0
  4  3  2  0  0  0  0
  4  2  1  0  0  0  0
  5  2  1  0  0  0  0
  6  1  1  0  0  0  0
  6  7  2  0  0  0  0
  7  5  1  0  0  0  0
  8  7  1  0  0  0  0
  8 10  1  0  0  0  0
 10  9  2  0  0  0  0
 11 14  1  6  0  0  0
 11 13  1  0  0  0  0
 11 10  1  0  0  0  0
 12 13  1  0  0  0  0
 15 14  1  0  0  0  0
 16 18  1  0  0  0  0
 17 18  1  0  0  0  0
 18 15  1  1  0  0  0
 19 17  1  0  0  0  0
 20 19  1  0  0  0  0
 20 21  1  0  0  0  0
 21 22  1  6  0  0  0
 21 16  1  0  0  0  0
 22 24  1  0  0  0  0
 23 28  1  6  0  0  0
 23 25  1  0  0  0  0
 24 27  1  0  0  0  0
 25 27  1  0  0  0  0
 26 23  1  0  0  0  0
 26 24  1  0  0  0  0
 29 28  1  0  0  0  0
 31 33  1  0  0  0  0
 32 36  1  6  0  0  0
 32 35  1  0  0  0  0
 32 31  1  0  0  0  0
 33 30  1  1  0  0  0
 34 33  1  0  0  0  0
 35 34  1  0  0  0  0
 36 54  1  6  0  0  0
 37 36  1  0  0  0  0
 38 40  1  0  0  0  0
 39 37  1  0  0  0  0
 40 37  2  0  0  0  0
 41 38  2  0  0  0  0
 41 42  1  0  0  0  0
 42 39  2  0  0  0  0
 43 45  1  0  0  0  0
 43 41  1  0  0  0  0
 44 45  1  0  0  0  0
 46 44  2  0  0  0  0
 48 44  1  0  0  0  0
 48 47  1  1  0  0  0
 48 50  1  0  0  0  0
 49 51  2  0  0  0  0
 49 53  1  0  0  0  0
 50 49  1  0  0  0  0
 53 52  1  0  0  0  0
 55 56  1  0  0  0  0
 56 54  1  0  0  0  0
M  END
>  <MODEL>
4

>  <REMARK>
 VINA RESULT:      -6.9      2.916      7.849
  Name = 
  21 active torsions:
  status: ('A' for Active; 'I' for Inactive)
    1  A    between atoms: C_1  and  C_11
    2  A    between atoms: C_2  and  N_19
    3  A    between atoms: C_2  and  C_54
    4  A    between atoms: C_4  and  C_14
    5  A    between atoms: C_7  and  C_11
    6  A    between atoms: C_8  and  C_10
    7  A    between atoms: C_11  and  C_17
    8  A    between atoms: C_14  and  C_47
    9  A    between atoms: N_15  and  C_30
   10  A    between atoms: N_15  and  C_42
   11  A    between atoms: C_17  and  C_25
   12  A    between atoms: C_20  and  O_41
   13  A    between atoms: C_24  and  N_27
   14  A    between atoms: C_24  and  C_33
   15  A    between atoms: C_26  and  C_50
   16  A    between atoms: N_34  and  C_39
   17  A    between atoms: C_35  and  C_50
   18  A    between atoms: C_35  and  C_56
   19  A    between atoms: C_39  and  C_43
   20  A    between atoms: C_42  and  C_56
   21  A    between atoms: O_55  and  C_56
                            x       y       z     vdW  Elec       q    Type
                         _______ _______ _______ _____ _____    ______ ____

>  <TORSDO>
F 21

$$$$
=
 OpenBabel10222417153D

 56 60  0  0  1  0  0  0  0  0999 V2000
  188.5820  177.3670  139.4440 C   0  0  2  0  0  3  0  0  0  0  0  0
  189.8960  178.6190  137.6810 N   0  0  0  0  0  2  0  0  0  0  0  0
  190.9630  177.6190  139.4970 O   0  0  0  0  0  0  0  0  0  0  0  0
  189.8860  177.8620  138.8950 C   0  0  0  0  0  0  0  0  0  0  0  0
  188.6350  179.0150  137.0600 C   0  0  0  0  0  2  0  0  0  0  0  0
  187.5830  177.1840  138.3270 C   0  0  0  0  0  3  0  0  0  0  0  0
  187.6000  177.9280  137.2150 C   0  0  0  0  0  0  0  0  0  0  0  0
  186.5600  177.7320  136.2470 N   0  0  0  0  0  2  0  0  0  0  0  0
  187.0280  175.5130  135.4440 C   0  0  0  0  0  2  0  0  0  0  0  0
  186.1520  176.4940  135.6410 C   0  0  0  0  0  0  0  0  0  0  0  0
  184.6780  176.1870  135.5080 C   0  0  1  0  0  3  0  0  0  0  0  0
  182.7560  177.4060  135.1470 C   0  0  0  0  0  1  0  0  0  0  0  0
  183.9990  177.0370  134.5990 O   0  0  0  0  0  0  0  0  0  0  0  0
  184.3640  174.7000  135.2970 C   0  0  0  0  0  2  0  0  0  0  0  0
  183.7030  174.1110  136.5300 C   0  0  0  0  0  2  0  0  0  0  0  0
  181.2480  174.3270  136.1260 C   0  0  0  0  0  2  0  0  0  0  0  0
  182.2360  172.1570  137.0750 C   0  0  0  0  0  2  0  0  0  0  0  0
  182.4410  173.3620  136.1420 C   0  0  2  0  0  3  0  0  0  0  0  0
  180.7700  171.7400  137.1220 C   0  0  0  0  0  2  0  0  0  0  0  0
  179.8870  172.8650  137.6770 C   0  0  0  0  0  2  0  0  0  0  0  0
  180.4520  174.2710  137.4320 C   0  0  2  0  0  3  0  0  0  0  0  0
  179.3140  175.2760  137.4080 C   0  0  0  0  0  2  0  0  0  0  0  0
  181.3090  176.8330  139.9120 C   0  0  1  0  0  3  0  0  0  0  0  0
  179.4700  176.2450  138.4820 N   0  0  0  0  0  0  0  0  0  0  0  0
  181.0410  177.9800  138.9680 C   0  0  0  0  0  2  0  0  0  0  0  0
  180.4420  175.6910  139.4130 C   0  0  0  0  0  2  0  0  0  0  0  0
  180.1090  177.4200  137.9180 C   0  0  0  0  0  2  0  0  0  0  0  0
  182.7760  176.4490  139.8460 C   0  0  0  0  0  2  0  0  0  0  0  0
  183.4620  177.1720  138.7020 C   0  0  0  0  0  1  0  0  0  0  0  0
  188.0520  178.3510  140.4780 C   0  0  0  0  0  2  0  0  0  0  0  0
  186.6670  177.6880  142.7590 S   0  0  0  0  0  0  0  0  0  0  0  0
  184.8770  177.9770  142.7360 C   0  0  2  0  0  3  0  0  0  0  0  0
  186.6700  177.9470  140.9650 C   0  0  1  0  0  3  0  0  0  0  0  0
  185.6690  179.0410  140.6430 C   0  0  0  0  0  2  0  0  0  0  0  0
  184.6330  179.1110  141.7540 C   0  0  0  0  0  2  0  0  0  0  0  0
  184.3520  178.3170  144.1400 C   0  0  1  0  0  3  0  0  0  0  0  0
  185.4030  178.2540  145.2160 C   0  0  0  0  0  0  0  0  0  0  0  0
  186.3250  178.9860  147.3370 C   0  0  0  0  0  3  0  0  0  0  0  0
  186.4480  177.3330  145.0860 C   0  0  0  0  0  3  0  0  0  0  0  0
  185.3410  179.0760  146.3510 C   0  0  0  0  0  3  0  0  0  0  0  0
  187.3680  178.0560  147.2080 C   0  0  0  0  0  0  0  0  0  0  0  0
  187.4290  177.2390  146.0770 C   0  0  0  0  0  3  0  0  0  0  0  0
  188.4660  177.9760  148.2210 C   0  0  0  0  0  2  0  0  0  0  0  0
  190.4880  176.7340  147.3600 C   0  0  0  0  0  0  0  0  0  0  0  0
  189.7750  177.9530  147.5840 N   0  0  0  0  0  2  0  0  0  0  0  0
  190.0120  175.6360  147.7550 O   0  0  0  0  0  0  0  0  0  0  0  0
  192.7290  175.9910  147.3660 O   0  0  0  0  0  1  0  0  0  0  0  0
  191.8010  176.7480  146.6490 C   0  0  1  0  0  3  0  0  0  0  0  0
  191.4560  177.0210  144.1480 C   0  0  0  0  0  0  0  0  0  0  0  0
  191.6710  176.2060  145.3030 N   0  0  0  0  0  2  0  0  0  0  0  0
  191.3450  178.2730  144.2620 O   0  0  0  0  0  0  0  0  0  0  0  0
  190.1860  175.8350  142.4770 N   0  0  0  0  0  1  0  0  0  0  0  0
  191.3620  176.4160  142.8980 O   0  0  0  0  0  0  0  0  0  0  0  0
  183.5780  179.6380  144.1870 C   0  0  0  0  0  2  0  0  0  0  0  0
  181.4110  179.0310  143.1480 C   0  0  0  0  0  1  0  0  0  0  0  0
  182.0910  179.4390  144.4400 C   0  0  0  0  0  2  0  0  0  0  0  0
  1 30  1  1  0  0  0
  2  4  1  0  0  0  0
  4  1  1  0  0  0  0
  4  3  2  0  0  0  0
  5  7  1  0  0  0  0
  5  2  1  0  0  0  0
  6  1  1  0  0  0  0
  7  6  2  0  0  0  0
  8  7  1  0  0  0  0
  9 10  2  0  0  0  0
 10  8  1  0  0  0  0
 11 14  1  6  0  0  0
 11 10  1  0  0  0  0
 13 12  1  0  0  0  0
 13 11  1  0  0  0  0
 14 15  1  0  0  0  0
 16 18  1  0  0  0  0
 16 21  1  0  0  0  0
 17 19  1  0  0  0  0
 18 15  1  1  0  0  0
 18 17  1  0  0  0  0
 19 20  1  0  0  0  0
 21 22  1  6  0  0  0
 21 20  1  0  0  0  0
 22 24  1  0  0  0  0
 23 28  1  6  0  0  0
 24 26  1  0  0  0  0
 25 23  1  0  0  0  0
 26 23  1  0  0  0  0
 27 24  1  0  0  0  0
 27 25  1  0  0  0  0
 29 28  1  0  0  0  0
 32 31  1  0  0  0  0
 32 36  1  1  0  0  0
 33 30  1  1  0  0  0
 33 31  1  0  0  0  0
 34 33  1  0  0  0  0
 34 35  1  0  0  0  0
 35 32  1  0  0  0  0
 36 54  1  6  0  0  0
 36 37  1  0  0  0  0
 37 40  1  0  0  0  0
 39 37  2  0  0  0  0
 39 42  1  0  0  0  0
 40 38  2  0  0  0  0
 41 38  1  0  0  0  0
 41 43  1  0  0  0  0
 42 41  2  0  0  0  0
 44 45  1  0  0  0  0
 44 46  2  0  0  0  0
 45 43  1  0  0  0  0
 48 44  1  0  0  0  0
 48 47  1  1  0  0  0
 49 51  2  0  0  0  0
 49 50  1  0  0  0  0
 50 48  1  0  0  0  0
 52 53  1  0  0  0  0
 53 49  1  0  0  0  0
 54 56  1  0  0  0  0
 55 56  1  0  0  0  0
M  END
>  <MODEL>
5

>  <REMARK>
 VINA RESULT:      -6.8      3.096      6.395
  Name = 
  21 active torsions:
  status: ('A' for Active; 'I' for Inactive)
    1  A    between atoms: C_1  and  C_11
    2  A    between atoms: C_2  and  N_19
    3  A    between atoms: C_2  and  C_54
    4  A    between atoms: C_4  and  C_14
    5  A    between atoms: C_7  and  C_11
    6  A    between atoms: C_8  and  C_10
    7  A    between atoms: C_11  and  C_17
    8  A    between atoms: C_14  and  C_47
    9  A    between atoms: N_15  and  C_30
   10  A    between atoms: N_15  and  C_42
   11  A    between atoms: C_17  and  C_25
   12  A    between atoms: C_20  and  O_41
   13  A    between atoms: C_24  and  N_27
   14  A    between atoms: C_24  and  C_33
   15  A    between atoms: C_26  and  C_50
   16  A    between atoms: N_34  and  C_39
   17  A    between atoms: C_35  and  C_50
   18  A    between atoms: C_35  and  C_56
   19  A    between atoms: C_39  and  C_43
   20  A    between atoms: C_42  and  C_56
   21  A    between atoms: O_55  and  C_56
                            x       y       z     vdW  Elec       q    Type
                         _______ _______ _______ _____ _____    ______ ____

>  <TORSDO>
F 21

$$$$
=
 OpenBabel10222417153D

 56 60  0  0  1  0  0  0  0  0999 V2000
  181.1560  172.7290  135.4750 C   0  0  2  0  0  3  0  0  0  0  0  0
  182.1320  170.4120  135.7520 N   0  0  0  0  0  2  0  0  0  0  0  0
  179.9300  170.7160  135.0500 O   0  0  0  0  0  0  0  0  0  0  0  0
  181.0180  171.2390  135.4060 C   0  0  0  0  0  0  0  0  0  0  0  0
  183.3460  171.0170  136.2950 C   0  0  0  0  0  2  0  0  0  0  0  0
  182.5970  173.1290  135.2720 C   0  0  0  0  0  3  0  0  0  0  0  0
  183.6210  172.3450  135.6340 C   0  0  0  0  0  0  0  0  0  0  0  0
  184.9540  172.8470  135.4730 N   0  0  0  0  0  2  0  0  0  0  0  0
  185.9780  173.0910  137.6350 C   0  0  0  0  0  2  0  0  0  0  0  0
  185.7310  173.5890  136.4270 C   0  0  0  0  0  0  0  0  0  0  0  0
  186.5240  174.7900  135.9620 C   0  0  1  0  0  3  0  0  0  0  0  0
  184.7200  176.1740  136.3330 C   0  0  0  0  0  1  0  0  0  0  0  0
  185.7230  175.8210  135.4110 O   0  0  0  0  0  0  0  0  0  0  0  0
  187.5480  175.2980  136.9860 C   0  0  0  0  0  2  0  0  0  0  0  0
  188.9490  175.2710  136.4000 C   0  0  0  0  0  2  0  0  0  0  0  0
  190.4880  176.5800  137.8690 C   0  0  0  0  0  2  0  0  0  0  0  0
  188.5740  177.7380  136.6100 C   0  0  0  0  0  2  0  0  0  0  0  0
  189.6260  176.6150  136.6000 C   0  0  2  0  0  3  0  0  0  0  0  0
  189.0850  178.9650  137.3580 C   0  0  0  0  0  2  0  0  0  0  0  0
  189.3790  178.6410  138.8290 C   0  0  0  0  0  2  0  0  0  0  0  0
  189.7540  177.1730  139.0740 C   0  0  2  0  0  3  0  0  0  0  0  0
  190.6100  177.0710  140.3240 C   0  0  0  0  0  2  0  0  0  0  0  0
  190.2420  176.9270  143.8620 C   0  0  1  0  0  3  0  0  0  0  0  0
  189.7690  176.9680  141.5070 N   0  0  0  0  0  0  0  0  0  0  0  0
  189.5480  178.2250  143.5280 C   0  0  0  0  0  2  0  0  0  0  0  0
  190.5510  176.2810  142.5230 C   0  0  0  0  0  2  0  0  0  0  0  0
  189.5740  178.3130  142.0200 C   0  0  0  0  0  2  0  0  0  0  0  0
  191.5250  177.2140  144.6190 C   0  0  0  0  0  2  0  0  0  0  0  0
  191.7380  176.1830  145.7120 C   0  0  0  0  0  1  0  0  0  0  0  0
  180.6470  173.2320  136.8200 C   0  0  0  0  0  2  0  0  0  0  0  0
  180.0210  175.8360  137.4410 S   0  0  0  0  0  0  0  0  0  0  0  0
  181.2250  176.7440  138.4480 C   0  0  2  0  0  3  0  0  0  0  0  0
  181.2850  174.5620  137.1880 C   0  0  1  0  0  3  0  0  0  0  0  0
  182.0760  174.4160  138.4750 C   0  0  0  0  0  2  0  0  0  0  0  0
  181.9720  175.7080  139.2710 C   0  0  0  0  0  2  0  0  0  0  0  0
  180.5310  177.7860  139.3380 C   0  0  1  0  0  3  0  0  0  0  0  0
  181.3440  178.2080  140.5320 C   0  0  0  0  0  0  0  0  0  0  0  0
  181.5180  178.9830  142.8250 C   0  0  0  0  0  3  0  0  0  0  0  0
  182.7400  178.1710  140.4450 C   0  0  0  0  0  3  0  0  0  0  0  0
  180.7360  178.6070  141.7300 C   0  0  0  0  0  3  0  0  0  0  0  0
  182.9180  178.9380  142.7370 C   0  0  0  0  0  0  0  0  0  0  0  0
  183.5230  178.5400  141.5420 C   0  0  0  0  0  3  0  0  0  0  0  0
  183.7810  179.3860  143.8730 C   0  0  0  0  0  2  0  0  0  0  0  0
  185.3980  178.2000  145.4070 C   0  0  0  0  0  0  0  0  0  0  0  0
  184.8840  178.4620  144.0990 N   0  0  0  0  0  2  0  0  0  0  0  0
  184.9310  178.8060  146.4080 O   0  0  0  0  0  0  0  0  0  0  0  0
  186.7700  176.5700  144.3880 O   0  0  0  0  0  1  0  0  0  0  0  0
  186.4900  177.2000  145.6020 C   0  0  1  0  0  3  0  0  0  0  0  0
  188.3900  177.3970  147.2750 C   0  0  0  0  0  0  0  0  0  0  0  0
  187.6990  177.8390  146.1050 N   0  0  0  0  0  2  0  0  0  0  0  0
  187.9500  176.4230  147.9470 O   0  0  0  0  0  0  0  0  0  0  0  0
  189.6920  178.5330  148.9570 N   0  0  0  0  0  1  0  0  0  0  0  0
  189.5480  178.0590  147.6710 O   0  0  0  0  0  0  0  0  0  0  0  0
  180.0150  178.9970  138.5540 C   0  0  0  0  0  2  0  0  0  0  0  0
  181.5560  180.9250  138.3350 C   0  0  0  0  0  1  0  0  0  0  0  0
  181.0880  179.6370  137.6870 C   0  0  0  0  0  2  0  0  0  0  0  0
  1 30  1  1  0  0  0
  2  5  1  0  0  0  0
  3  4  2  0  0  0  0
  4  1  1  0  0  0  0
  4  2  1  0  0  0  0
  6  1  1  0  0  0  0
  6  7  2  0  0  0  0
  7  5  1  0  0  0  0
  8  7  1  0  0  0  0
  8 10  1  0  0  0  0
 10  9  2  0  0  0  0
 11 10  1  0  0  0  0
 11 14  1  1  0  0  0
 13 11  1  0  0  0  0
 13 12  1  0  0  0  0
 15 14  1  0  0  0  0
 16 21  1  0  0  0  0
 17 19  1  0  0  0  0
 18 15  1  1  0  0  0
 18 17  1  0  0  0  0
 18 16  1  0  0  0  0
 19 20  1  0  0  0  0
 20 21  1  0  0  0  0
 21 22  1  1  0  0  0
 22 24  1  0  0  0  0
 23 28  1  6  0  0  0
 24 27  1  0  0  0  0
 24 26  1  0  0  0  0
 25 23  1  0  0  0  0
 26 23  1  0  0  0  0
 27 25  1  0  0  0  0
 28 29  1  0  0  0  0
 31 32  1  0  0  0  0
 32 35  1  0  0  0  0
 32 36  1  1  0  0  0
 33 30  1  1  0  0  0
 33 31  1  0  0  0  0
 33 34  1  0  0  0  0
 34 35  1  0  0  0  0
 36 54  1  6  0  0  0
 36 37  1  0  0  0  0
 37 40  1  0  0  0  0
 39 37  2  0  0  0  0
 39 42  1  0  0  0  0
 40 38  2  0  0  0  0
 41 38  1  0  0  0  0
 41 43  1  0  0  0  0
 42 41  2  0  0  0  0
 43 45  1  0  0  0  0
 44 48  1  0  0  0  0
 44 46  2  0  0  0  0
 45 44  1  0  0  0  0
 48 47  1  6  0  0  0
 48 50  1  0  0  0  0
 49 53  1  0  0  0  0
 49 51  2  0  0  0  0
 50 49  1  0  0  0  0
 53 52  1  0  0  0  0
 56 55  1  0  0  0  0
 56 54  1  0  0  0  0
M  END
>  <MODEL>
6

>  <REMARK>
 VINA RESULT:      -6.5      3.633      9.239
  Name = 
  21 active torsions:
  status: ('A' for Active; 'I' for Inactive)
    1  A    between atoms: C_1  and  C_11
    2  A    between atoms: C_2  and  N_19
    3  A    between atoms: C_2  and  C_54
    4  A    between atoms: C_4  and  C_14
    5  A    between atoms: C_7  and  C_11
    6  A    between atoms: C_8  and  C_10
    7  A    between atoms: C_11  and  C_17
    8  A    between atoms: C_14  and  C_47
    9  A    between atoms: N_15  and  C_30
   10  A    between atoms: N_15  and  C_42
   11  A    between atoms: C_17  and  C_25
   12  A    between atoms: C_20  and  O_41
   13  A    between atoms: C_24  and  N_27
   14  A    between atoms: C_24  and  C_33
   15  A    between atoms: C_26  and  C_50
   16  A    between atoms: N_34  and  C_39
   17  A    between atoms: C_35  and  C_50
   18  A    between atoms: C_35  and  C_56
   19  A    between atoms: C_39  and  C_43
   20  A    between atoms: C_42  and  C_56
   21  A    between atoms: O_55  and  C_56
                            x       y       z     vdW  Elec       q    Type
                         _______ _______ _______ _____ _____    ______ ____

>  <TORSDO>
F 21

$$$$
=
 OpenBabel10222417153D

 56 60  0  0  1  0  0  0  0  0999 V2000
  190.7780  177.6730  145.4530 C   0  0  2  0  0  3  0  0  0  0  0  0
  189.5170  176.5690  147.3480 N   0  0  0  0  0  2  0  0  0  0  0  0
  191.8430  176.7210  147.3760 O   0  0  0  0  0  0  0  0  0  0  0  0
  190.7650  176.9670  146.7750 C   0  0  0  0  0  0  0  0  0  0  0  0
  188.2810  176.7330  146.5860 C   0  0  0  0  0  2  0  0  0  0  0  0
  189.4810  178.4170  145.2480 C   0  0  0  0  0  3  0  0  0  0  0  0
  188.3210  178.0040  145.7730 C   0  0  0  0  0  0  0  0  0  0  0  0
  187.1300  178.7350  145.4550 N   0  0  0  0  0  2  0  0  0  0  0  0
  185.3990  178.3170  147.0730 C   0  0  0  0  0  2  0  0  0  0  0  0
  185.7770  178.3960  145.8000 C   0  0  0  0  0  0  0  0  0  0  0  0
  184.7100  178.4280  144.7290 C   0  0  1  0  0  3  0  0  0  0  0  0
  182.5390  178.9170  144.1350 C   0  0  0  0  0  1  0  0  0  0  0  0
  183.4220  178.7600  145.2190 O   0  0  0  0  0  0  0  0  0  0  0  0
  185.1040  179.2200  143.4760 C   0  0  0  0  0  2  0  0  0  0  0  0
  185.6380  178.2910  142.4000 C   0  0  0  0  0  2  0  0  0  0  0  0
  184.2280  179.1250  140.5140 C   0  0  0  0  0  2  0  0  0  0  0  0
  186.6140  178.2750  140.0950 C   0  0  0  0  0  2  0  0  0  0  0  0
  185.6580  179.0000  141.0580 C   0  0  2  0  0  3  0  0  0  0  0  0
  186.2500  178.5580  138.6410 C   0  0  0  0  0  2  0  0  0  0  0  0
  184.8410  178.0490  138.3080 C   0  0  0  0  0  2  0  0  0  0  0  0
  183.8970  178.0110  139.5180 C   0  0  2  0  0  3  0  0  0  0  0  0
  182.4600  178.1300  139.0430 C   0  0  0  0  0  2  0  0  0  0  0  0
  181.0990  177.3560  135.8460 C   0  0  1  0  0  3  0  0  0  0  0  0
  182.4180  178.3280  137.6020 N   0  0  0  0  0  0  0  0  0  0  0  0
  180.6900  178.7990  136.0180 C   0  0  0  0  0  2  0  0  0  0  0  0
  182.0250  177.0590  137.0110 C   0  0  0  0  0  2  0  0  0  0  0  0
  181.3200  179.2360  137.3200 C   0  0  0  0  0  2  0  0  0  0  0  0
  179.8700  176.4670  135.9070 C   0  0  0  0  0  2  0  0  0  0  0  0
  179.9760  175.4950  137.0670 C   0  0  0  0  0  1  0  0  0  0  0  0
  190.9980  176.6650  144.3330 C   0  0  0  0  0  2  0  0  0  0  0  0
  192.0460  176.8160  141.7950 S   0  0  0  0  0  0  0  0  0  0  0  0
  190.8830  177.1880  140.4560 C   0  0  2  0  0  3  0  0  0  0  0  0
  190.7510  177.2930  142.9710 C   0  0  1  0  0  3  0  0  0  0  0  0
  189.4170  176.8240  142.4210 C   0  0  0  0  0  2  0  0  0  0  0  0
  189.5220  176.6850  140.9100 C   0  0  0  0  0  2  0  0  0  0  0  0
  191.3230  176.5300  139.1390 C   0  0  1  0  0  3  0  0  0  0  0  0
  190.2600  176.5240  138.0750 C   0  0  0  0  0  0  0  0  0  0  0  0
  188.7370  177.6790  136.5790 C   0  0  0  0  0  3  0  0  0  0  0  0
  189.8290  175.2980  137.5560 C   0  0  0  0  0  3  0  0  0  0  0  0
  189.7150  177.7170  137.5750 C   0  0  0  0  0  3  0  0  0  0  0  0
  188.3120  176.4480  136.0560 C   0  0  0  0  0  0  0  0  0  0  0  0
  188.8550  175.2610  136.5550 C   0  0  0  0  0  3  0  0  0  0  0  0
  187.2280  176.3750  135.0280 C   0  0  0  0  0  2  0  0  0  0  0  0
  185.7300  174.4330  135.6260 C   0  0  0  0  0  0  0  0  0  0  0  0
  186.7730  175.0050  134.8330 N   0  0  0  0  0  2  0  0  0  0  0  0
  185.2010  175.0960  136.5580 O   0  0  0  0  0  0  0  0  0  0  0  0
  185.9010  172.1500  136.2060 O   0  0  0  0  0  1  0  0  0  0  0  0
  185.2510  173.0440  135.3540 C   0  0  1  0  0  3  0  0  0  0  0  0
  183.0910  171.7130  135.4390 C   0  0  0  0  0  0  0  0  0  0  0  0
  183.8110  172.9420  135.5510 N   0  0  0  0  0  2  0  0  0  0  0  0
  183.6920  170.6460  135.1340 O   0  0  0  0  0  0  0  0  0  0  0  0
  181.1970  172.0090  136.9020 N   0  0  0  0  0  1  0  0  0  0  0  0
  181.7170  171.7070  135.6620 O   0  0  0  0  0  0  0  0  0  0  0  0
  192.6490  177.0810  138.6070 C   0  0  0  0  0  2  0  0  0  0  0  0
  193.7990  175.0760  137.7120 C   0  0  0  0  0  1  0  0  0  0  0  0
  193.1130  176.3760  137.3420 C   0  0  0  0  0  2  0  0  0  0  0  0
  1 30  1  6  0  0  0
  1  4  1  0  0  0  0
  4  2  1  0  0  0  0
  4  3  2  0  0  0  0
  5  2  1  0  0  0  0
  6  1  1  0  0  0  0
  6  7  2  0  0  0  0
  7  5  1  0  0  0  0
  8  7  1  0  0  0  0
  8 10  1  0  0  0  0
 10  9  2  0  0  0  0
 11 14  1  6  0  0  0
 11 13  1  0  0  0  0
 11 10  1  0  0  0  0
 12 13  1  0  0  0  0
 15 14  1  0  0  0  0
 16 18  1  0  0  0  0
 17 18  1  0  0  0  0
 18 15  1  1  0  0  0
 19 17  1  0  0  0  0
 20 19  1  0  0  0  0
 20 21  1  0  0  0  0
 21 22  1  6  0  0  0
 21 16  1  0  0  0  0
 23 28  1  1  0  0  0
 23 25  1  0  0  0  0
 23 26  1  0  0  0  0
 24 22  1  0  0  0  0
 25 27  1  0  0  0  0
 26 24  1  0  0  0  0
 27 24  1  0  0  0  0
 28 29  1  0  0  0  0
 31 33  1  0  0  0  0
 32 36  1  6  0  0  0
 32 35  1  0  0  0  0
 32 31  1  0  0  0  0
 33 30  1  1  0  0  0
 34 33  1  0  0  0  0
 35 34  1  0  0  0  0
 36 54  1  6  0  0  0
 37 36  1  0  0  0  0
 38 40  2  0  0  0  0
 39 37  2  0  0  0  0
 40 37  1  0  0  0  0
 41 42  2  0  0  0  0
 41 38  1  0  0  0  0
 42 39  1  0  0  0  0
 43 41  1  0  0  0  0
 44 46  2  0  0  0  0
 45 43  1  0  0  0  0
 45 44  1  0  0  0  0
 48 50  1  0  0  0  0
 48 44  1  0  0  0  0
 48 47  1  1  0  0  0
 49 50  1  0  0  0  0
 49 53  1  0  0  0  0
 51 49  2  0  0  0  0
 53 52  1  0  0  0  0
 56 55  1  0  0  0  0
 56 54  1  0  0  0  0
M  END
>  <MODEL>
7

>  <REMARK>
 VINA RESULT:      -6.4      3.214      7.874
  Name = 
  21 active torsions:
  status: ('A' for Active; 'I' for Inactive)
    1  A    between atoms: C_1  and  C_11
    2  A    between atoms: C_2  and  N_19
    3  A    between atoms: C_2  and  C_54
    4  A    between atoms: C_4  and  C_14
    5  A    between atoms: C_7  and  C_11
    6  A    between atoms: C_8  and  C_10
    7  A    between atoms: C_11  and  C_17
    8  A    between atoms: C_14  and  C_47
    9  A    between atoms: N_15  and  C_30
   10  A    between atoms: N_15  and  C_42
   11  A    between atoms: C_17  and  C_25
   12  A    between atoms: C_20  and  O_41
   13  A    between atoms: C_24  and  N_27
   14  A    between atoms: C_24  and  C_33
   15  A    between atoms: C_26  and  C_50
   16  A    between atoms: N_34  and  C_39
   17  A    between atoms: C_35  and  C_50
   18  A    between atoms: C_35  and  C_56
   19  A    between atoms: C_39  and  C_43
   20  A    between atoms: C_42  and  C_56
   21  A    between atoms: O_55  and  C_56
                            x       y       z     vdW  Elec       q    Type
                         _______ _______ _______ _____ _____    ______ ____

>  <TORSDO>
F 21

$$$$
=
 OpenBabel10222417153D

 56 60  0  0  1  0  0  0  0  0999 V2000
  185.0960  178.0300  144.4150 C   0  0  2  0  0  3  0  0  0  0  0  0
  184.4790  179.6320  142.5570 N   0  0  0  0  0  2  0  0  0  0  0  0
  186.5150  178.4980  142.5450 O   0  0  0  0  0  0  0  0  0  0  0  0
  185.4210  178.7170  143.1250 C   0  0  0  0  0  0  0  0  0  0  0  0
  183.2730  179.9870  143.3000 C   0  0  0  0  0  2  0  0  0  0  0  0
  183.6000  177.9070  144.5770 C   0  0  0  0  0  3  0  0  0  0  0  0
  182.7430  178.7960  144.0590 C   0  0  0  0  0  0  0  0  0  0  0  0
  181.3450  178.6360  144.3350 N   0  0  0  0  0  2  0  0  0  0  0  0
  179.5430  180.1260  143.7700 C   0  0  0  0  0  2  0  0  0  0  0  0
  180.2400  179.0250  143.5040 C   0  0  0  0  0  0  0  0  0  0  0  0
  180.0560  178.3600  142.1580 C   0  0  1  0  0  3  0  0  0  0  0  0
  179.3940  176.5190  140.9410 C   0  0  0  0  0  1  0  0  0  0  0  0
  179.5350  177.0440  142.2390 O   0  0  0  0  0  0  0  0  0  0  0  0
  179.3380  179.2330  141.1210 C   0  0  0  0  0  2  0  0  0  0  0  0
  180.3430  179.9320  140.2210 C   0  0  0  0  0  2  0  0  0  0  0  0
  179.7380  179.3100  137.8790 C   0  0  0  0  0  2  0  0  0  0  0  0
  180.2790  181.7430  138.4930 C   0  0  0  0  0  2  0  0  0  0  0  0
  179.6650  180.4080  138.9490 C   0  0  2  0  0  3  0  0  0  0  0  0
  180.0760  181.9600  136.9970 C   0  0  0  0  0  2  0  0  0  0  0  0
  180.7700  180.8670  136.1750 C   0  0  0  0  0  2  0  0  0  0  0  0
  180.9060  179.5300  136.9150 C   0  0  2  0  0  3  0  0  0  0  0  0
  180.9850  178.3980  135.9050 C   0  0  0  0  0  2  0  0  0  0  0  0
  183.2760  177.0850  138.2920 C   0  0  1  0  0  3  0  0  0  0  0  0
  181.7480  177.2860  136.4500 N   0  0  0  0  0  0  0  0  0  0  0  0
  182.0120  176.3310  138.6250 C   0  0  0  0  0  2  0  0  0  0  0  0
  182.9660  177.8440  137.0150 C   0  0  0  0  0  2  0  0  0  0  0  0
  181.0060  176.7630  137.5830 C   0  0  0  0  0  2  0  0  0  0  0  0
  183.6050  178.0510  139.4150 C   0  0  0  0  0  2  0  0  0  0  0  0
  183.7810  179.4560  138.8710 C   0  0  0  0  0  1  0  0  0  0  0  0
  185.6970  178.8060  145.5790 C   0  0  0  0  0  2  0  0  0  0  0  0
  187.7140  176.9470  145.4080 S   0  0  0  0  0  0  0  0  0  0  0  0
  188.7890  176.7770  146.8580 C   0  0  2  0  0  3  0  0  0  0  0  0
  186.5800  177.9160  146.4370 C   0  0  1  0  0  3  0  0  0  0  0  0
  187.4080  178.7670  147.3820 C   0  0  0  0  0  2  0  0  0  0  0  0
  188.7710  178.1180  147.5720 C   0  0  0  0  0  2  0  0  0  0  0  0
  190.2130  176.3690  146.4490 C   0  0  1  0  0  3  0  0  0  0  0  0
  190.5860  176.7770  145.0500 C   0  0  0  0  0  0  0  0  0  0  0  0
  191.2270  178.4580  143.4210 C   0  0  0  0  0  3  0  0  0  0  0  0
  190.6740  175.7930  144.0590 C   0  0  0  0  0  3  0  0  0  0  0  0
  190.8730  178.1120  144.7270 C   0  0  0  0  0  3  0  0  0  0  0  0
  191.3210  177.4670  142.4310 C   0  0  0  0  0  0  0  0  0  0  0  0
  191.0350  176.1380  142.7540 C   0  0  0  0  0  3  0  0  0  0  0  0
  191.6440  177.8160  141.0130 C   0  0  0  0  0  2  0  0  0  0  0  0
  189.3010  178.0120  140.0950 C   0  0  0  0  0  0  0  0  0  0  0  0
  190.5870  177.3880  140.1070 N   0  0  0  0  0  2  0  0  0  0  0  0
  189.0320  178.9330  140.9110 O   0  0  0  0  0  0  0  0  0  0  0  0
  187.1580  178.4300  139.1950 O   0  0  0  0  0  1  0  0  0  0  0  0
  188.2650  177.5840  139.1080 C   0  0  1  0  0  3  0  0  0  0  0  0
  189.0770  176.4360  136.9940 C   0  0  0  0  0  0  0  0  0  0  0  0
  188.7930  177.6140  137.7500 N   0  0  0  0  0  2  0  0  0  0  0  0
  188.8980  175.2940  137.5000 O   0  0  0  0  0  0  0  0  0  0  0  0
  188.7380  176.9530  134.6630 N   0  0  0  0  0  1  0  0  0  0  0  0
  189.5630  176.5630  135.6960 O   0  0  0  0  0  0  0  0  0  0  0  0
  191.2760  176.8010  147.4630 C   0  0  0  0  0  2  0  0  0  0  0  0
  193.1920  176.0830  148.8610 C   0  0  0  0  0  1  0  0  0  0  0  0
  192.4040  175.7900  147.6000 C   0  0  0  0  0  2  0  0  0  0  0  0
  1  6  1  0  0  0  0
  1 30  1  1  0  0  0
  2  4  1  0  0  0  0
  2  5  1  0  0  0  0
  3  4  2  0  0  0  0
  4  1  1  0  0  0  0
  5  7  1  0  0  0  0
  7  8  1  0  0  0  0
  7  6  2  0  0  0  0
 10  9  2  0  0  0  0
 10  8  1  0  0  0  0
 11 14  1  6  0  0  0
 11 13  1  0  0  0  0
 11 10  1  0  0  0  0
 12 13  1  0  0  0  0
 15 14  1  0  0  0  0
 16 18  1  0  0  0  0
 17 18  1  0  0  0  0
 18 15  1  1  0  0  0
 19 17  1  0  0  0  0
 20 21  1  0  0  0  0
 20 19  1  0  0  0  0
 21 22  1  6  0  0  0
 21 16  1  0  0  0  0
 22 24  1  0  0  0  0
 23 25  1  0  0  0  0
 23 28  1  1  0  0  0
 24 26  1  0  0  0  0
 24 27  1  0  0  0  0
 26 23  1  0  0  0  0
 27 25  1  0  0  0  0
 29 28  1  0  0  0  0
 31 33  1  0  0  0  0
 31 32  1  0  0  0  0
 32 36  1  6  0  0  0
 32 35  1  0  0  0  0
 33 30  1  6  0  0  0
 33 34  1  0  0  0  0
 34 35  1  0  0  0  0
 36 54  1  1  0  0  0
 37 36  1  0  0  0  0
 38 40  2  0  0  0  0
 39 37  2  0  0  0  0
 40 37  1  0  0  0  0
 41 42  2  0  0  0  0
 41 38  1  0  0  0  0
 42 39  1  0  0  0  0
 43 41  1  0  0  0  0
 44 45  1  0  0  0  0
 44 46  2  0  0  0  0
 45 43  1  0  0  0  0
 48 47  1  6  0  0  0
 48 44  1  0  0  0  0
 49 51  2  0  0  0  0
 49 50  1  0  0  0  0
 50 48  1  0  0  0  0
 52 53  1  0  0  0  0
 53 49  1  0  0  0  0
 54 56  1  0  0  0  0
 56 55  1  0  0  0  0
M  END
>  <MODEL>
8

>  <REMARK>
 VINA RESULT:      -6.3      2.695      6.680
  Name = 
  21 active torsions:
  status: ('A' for Active; 'I' for Inactive)
    1  A    between atoms: C_1  and  C_11
    2  A    between atoms: C_2  and  N_19
    3  A    between atoms: C_2  and  C_54
    4  A    between atoms: C_4  and  C_14
    5  A    between atoms: C_7  and  C_11
    6  A    between atoms: C_8  and  C_10
    7  A    between atoms: C_11  and  C_17
    8  A    between atoms: C_14  and  C_47
    9  A    between atoms: N_15  and  C_30
   10  A    between atoms: N_15  and  C_42
   11  A    between atoms: C_17  and  C_25
   12  A    between atoms: C_20  and  O_41
   13  A    between atoms: C_24  and  N_27
   14  A    between atoms: C_24  and  C_33
   15  A    between atoms: C_26  and  C_50
   16  A    between atoms: N_34  and  C_39
   17  A    between atoms: C_35  and  C_50
   18  A    between atoms: C_35  and  C_56
   19  A    between atoms: C_39  and  C_43
   20  A    between atoms: C_42  and  C_56
   21  A    between atoms: O_55  and  C_56
                            x       y       z     vdW  Elec       q    Type
                         _______ _______ _______ _____ _____    ______ ____

>  <TORSDO>
F 21

$$$$
=
 OpenBabel10222417153D

 56 60  0  0  1  0  0  0  0  0999 V2000
  190.3700  178.1430  141.4500 C   0  0  2  0  0  3  0  0  0  0  0  0
  192.1950  176.8110  142.5890 N   0  0  0  0  0  2  0  0  0  0  0  0
  192.4270  177.5340  140.3850 O   0  0  0  0  0  0  0  0  0  0  0  0
  191.7190  177.4900  141.4230 C   0  0  0  0  0  0  0  0  0  0  0  0
  191.3170  176.6450  143.7440 C   0  0  0  0  0  2  0  0  0  0  0  0
  190.0110  178.5380  142.8620 C   0  0  0  0  0  3  0  0  0  0  0  0
  190.4480  177.8640  143.9330 C   0  0  0  0  0  0  0  0  0  0  0  0
  189.9870  178.2700  145.2290 N   0  0  0  0  0  2  0  0  0  0  0  0
  190.8150  176.8940  147.0200 C   0  0  0  0  0  2  0  0  0  0  0  0
  189.7830  177.4400  146.3840 C   0  0  0  0  0  0  0  0  0  0  0  0
  188.4300  177.4330  147.0590 C   0  0  1  0  0  3  0  0  0  0  0  0
  188.1360  178.2180  149.2060 C   0  0  0  0  0  1  0  0  0  0  0  0
  188.1820  178.5850  147.8480 O   0  0  0  0  0  0  0  0  0  0  0  0
  187.2660  177.0750  146.1270 C   0  0  0  0  0  2  0  0  0  0  0  0
  186.5230  178.3260  145.6920 C   0  0  0  0  0  2  0  0  0  0  0  0
  185.4000  177.8300  143.5160 C   0  0  0  0  0  2  0  0  0  0  0  0
  184.1160  178.9620  145.4290 C   0  0  0  0  0  2  0  0  0  0  0  0
  185.2070  177.9520  145.0340 C   0  0  2  0  0  3  0  0  0  0  0  0
  182.9940  178.9920  144.3960 C   0  0  0  0  0  2  0  0  0  0  0  0
  183.5110  179.4370  143.0230 C   0  0  0  0  0  2  0  0  0  0  0  0
  184.9910  179.1100  142.7850 C   0  0  2  0  0  3  0  0  0  0  0  0
  185.2470  178.9780  141.2940 C   0  0  0  0  0  2  0  0  0  0  0  0
  183.3530  178.4720  138.3230 C   0  0  1  0  0  3  0  0  0  0  0  0
  183.9980  179.0830  140.5540 N   0  0  0  0  0  0  0  0  0  0  0  0
  182.6540  177.5570  139.2980 C   0  0  0  0  0  2  0  0  0  0  0  0
  184.3500  179.2590  139.1540 C   0  0  0  0  0  2  0  0  0  0  0  0
  183.3430  177.7890  140.6230 C   0  0  0  0  0  2  0  0  0  0  0  0
  184.0740  177.6450  137.2750 C   0  0  0  0  0  2  0  0  0  0  0  0
  183.3700  176.3170  137.0700 C   0  0  0  0  0  1  0  0  0  0  0  0
  189.3260  177.1920  140.8790 C   0  0  0  0  0  2  0  0  0  0  0  0
  190.0800  175.9370  138.5530 S   0  0  0  0  0  0  0  0  0  0  0  0
  189.0580  176.2540  137.0890 C   0  0  2  0  0  3  0  0  0  0  0  0
  189.2350  177.3180  139.3680 C   0  0  1  0  0  3  0  0  0  0  0  0
  187.7810  177.3040  138.9350 C   0  0  0  0  0  2  0  0  0  0  0  0
  187.6660  176.5900  137.5970 C   0  0  0  0  0  2  0  0  0  0  0  0
  189.0430  175.0380  136.1490 C   0  0  1  0  0  3  0  0  0  0  0  0
  187.7750  174.2320  136.2150 C   0  0  0  0  0  0  0  0  0  0  0  0
  186.5190  172.2940  136.9590 C   0  0  0  0  0  3  0  0  0  0  0  0
  186.6250  174.7290  135.5910 C   0  0  0  0  0  3  0  0  0  0  0  0
  187.7140  173.0140  136.9080 C   0  0  0  0  0  3  0  0  0  0  0  0
  185.3650  172.7990  136.3390 C   0  0  0  0  0  0  0  0  0  0  0  0
  185.4270  174.0120  135.6490 C   0  0  0  0  0  3  0  0  0  0  0  0
  184.0870  172.0230  136.3310 C   0  0  0  0  0  2  0  0  0  0  0  0
  181.6070  172.4760  136.1880 C   0  0  0  0  0  0  0  0  0  0  0  0
  182.9610  172.8590  135.9350 N   0  0  0  0  0  2  0  0  0  0  0  0
  181.3480  171.3680  136.7280 O   0  0  0  0  0  0  0  0  0  0  0  0
  179.3150  172.6480  135.6470 O   0  0  0  0  0  1  0  0  0  0  0  0
  180.4840  173.3900  135.8190 C   0  0  1  0  0  3  0  0  0  0  0  0
  179.8840  175.7420  136.5640 C   0  0  0  0  0  0  0  0  0  0  0  0
  180.2720  174.3970  136.8510 N   0  0  0  0  0  2  0  0  0  0  0  0
  179.7310  176.1220  135.3700 O   0  0  0  0  0  0  0  0  0  0  0  0
  179.2480  176.1900  138.8460 N   0  0  0  0  0  1  0  0  0  0  0  0
  179.6860  176.6310  137.6160 O   0  0  0  0  0  0  0  0  0  0  0  0
  189.4100  175.3930  134.7050 C   0  0  0  0  0  2  0  0  0  0  0  0
  189.3690  177.8690  134.6020 C   0  0  0  0  0  1  0  0  0  0  0  0
  190.2660  176.6460  134.6060 C   0  0  0  0  0  2  0  0  0  0  0  0
  1 30  1  1  0  0  0
  1  6  1  0  0  0  0
  2  5  1  0  0  0  0
  3  4  2  0  0  0  0
  4  1  1  0  0  0  0
  4  2  1  0  0  0  0
  5  7  1  0  0  0  0
  6  7  2  0  0  0  0
  7  8  1  0  0  0  0
  8 10  1  0  0  0  0
 10  9  2  0  0  0  0
 10 11  1  0  0  0  0
 11 14  1  6  0  0  0
 11 13  1  0  0  0  0
 13 12  1  0  0  0  0
 15 14  1  0  0  0  0
 16 18  1  0  0  0  0
 18 17  1  0  0  0  0
 18 15  1  1  0  0  0
 19 17  1  0  0  0  0
 20 19  1  0  0  0  0
 21 22  1  6  0  0  0
 21 20  1  0  0  0  0
 21 16  1  0  0  0  0
 23 28  1  6  0  0  0
 23 26  1  0  0  0  0
 23 25  1  0  0  0  0
 24 27  1  0  0  0  0
 24 22  1  0  0  0  0
 25 27  1  0  0  0  0
 26 24  1  0  0  0  0
 29 28  1  0  0  0  0
 31 33  1  0  0  0  0
 32 36  1  6  0  0  0
 32 35  1  0  0  0  0
 32 31  1  0  0  0  0
 33 30  1  1  0  0  0
 34 33  1  0  0  0  0
 35 34  1  0  0  0  0
 36 54  1  6  0  0  0
 36 37  1  0  0  0  0
 37 40  1  0  0  0  0
 39 42  1  0  0  0  0
 39 37  2  0  0  0  0
 40 38  2  0  0  0  0
 41 38  1  0  0  0  0
 42 41  2  0  0  0  0
 43 41  1  0  0  0  0
 44 46  2  0  0  0  0
 45 44  1  0  0  0  0
 45 43  1  0  0  0  0
 48 47  1  1  0  0  0
 48 44  1  0  0  0  0
 48 50  1  0  0  0  0
 49 50  1  0  0  0  0
 49 53  1  0  0  0  0
 51 49  2  0  0  0  0
 53 52  1  0  0  0  0
 55 56  1  0  0  0  0
 56 54  1  0  0  0  0
M  END
>  <MODEL>
9

>  <REMARK>
 VINA RESULT:      -6.1      3.121      8.247
  Name = 
  21 active torsions:
  status: ('A' for Active; 'I' for Inactive)
    1  A    between atoms: C_1  and  C_11
    2  A    between atoms: C_2  and  N_19
    3  A    between atoms: C_2  and  C_54
    4  A    between atoms: C_4  and  C_14
    5  A    between atoms: C_7  and  C_11
    6  A    between atoms: C_8  and  C_10
    7  A    between atoms: C_11  and  C_17
    8  A    between atoms: C_14  and  C_47
    9  A    between atoms: N_15  and  C_30
   10  A    between atoms: N_15  and  C_42
   11  A    between atoms: C_17  and  C_25
   12  A    between atoms: C_20  and  O_41
   13  A    between atoms: C_24  and  N_27
   14  A    between atoms: C_24  and  C_33
   15  A    between atoms: C_26  and  C_50
   16  A    between atoms: N_34  and  C_39
   17  A    between atoms: C_35  and  C_50
   18  A    between atoms: C_35  and  C_56
   19  A    between atoms: C_39  and  C_43
   20  A    between atoms: C_42  and  C_56
   21  A    between atoms: O_55  and  C_56
                            x       y       z     vdW  Elec       q    Type
                         _______ _______ _______ _____ _____    ______ ____

>  <TORSDO>
F 21

$$$$
