=
 OpenBabel10222420023D

 54 57  0  0  1  0  0  0  0  0999 V2000
  190.4510  177.6030  143.8760 C   0  0  0  0  0  0  0  0  0  0  0  0
  188.2630  178.2610  140.8580 C   0  0  0  0  0  0  0  0  0  0  0  0
  188.0900  177.7890  139.6600 N   0  0  0  0  0  0  0  0  0  0  0  0
  188.6330  176.2870  137.9730 O   0  0  0  0  0  0  0  0  0  0  0  0
  188.9360  176.7850  139.0880 C   0  0  0  0  0  0  0  0  0  0  0  0
  190.2350  176.7720  141.2240 C   0  0  0  0  0  0  0  0  0  0  0  0
  191.3190  176.6460  143.3390 C   0  0  0  0  0  3  0  0  0  0  0  0
  190.1930  176.3360  139.7850 C   0  0  2  0  0  3  0  0  0  0  0  0
  189.4530  178.1340  143.0590 C   0  0  0  0  0  3  0  0  0  0  0  0
  191.1980  176.2620  142.0400 N   0  0  0  0  0  0  0  0  0  0  0  0
  189.3350  177.7270  141.7260 C   0  0  0  0  0  0  0  0  0  0  0  0
  193.2800  176.6560  137.5560 N   0  0  0  0  0  2  0  0  0  0  0  0
  191.3630  176.8550  139.0900 N   0  0  0  0  0  2  0  0  0  0  0  0
  192.1640  176.0560  138.2180 C   0  0  0  0  0  0  0  0  0  0  0  0
  191.8920  174.8370  138.0470 O   0  0  0  0  0  0  0  0  0  0  0  0
  195.0010  175.0410  136.9660 C   0  0  0  0  0  0  0  0  0  0  0  0
  194.2910  176.3030  135.1790 C   0  0  0  0  0  2  0  0  0  0  0  0
  194.1500  175.9930  136.6320 C   0  0  0  0  0  0  0  0  0  0  0  0
  195.3530  175.4000  134.7510 N   0  0  0  0  0  0  0  0  0  0  0  0
  195.7420  174.6970  135.7570 C   0  0  0  0  0  0  0  0  0  0  0  0
  196.6610  172.6240  134.7660 C   0  0  0  0  0  1  0  0  0  0  0  0
  196.7540  173.7420  135.6320 O   0  0  0  0  0  0  0  0  0  0  0  0
  195.2180  173.0080  138.3480 C   0  0  0  0  0  1  0  0  0  0  0  0
  195.2200  174.5260  138.3510 C   0  0  0  0  0  2  0  0  0  0  0  0
  190.5230  178.0470  145.3080 C   0  0  0  0  0  2  0  0  0  0  0  0
  190.1670  176.9770  146.2320 N   0  0  0  0  0  0  0  0  0  0  0  0
  191.6050  177.1680  148.0530 O   0  0  0  0  0  1  0  0  0  0  0  0
  191.4050  176.5120  146.8360 C   0  0  0  0  0  2  0  0  0  0  0  0
  189.3860  177.5950  147.2880 C   0  0  0  0  0  2  0  0  0  0  0  0
  187.9230  177.2320  147.1320 C   0  0  0  0  0  2  0  0  0  0  0  0
  187.3070  178.1060  146.2360 O   0  0  0  0  0  0  0  0  0  0  0  0
  185.6920  178.2910  146.8470 P   0  0  1  0  0  0  0  0  0  0  0  0
  186.0150  179.7870  147.6690 O   0  0  0  0  0  1  0  0  0  0  0  0
  185.0120  179.0820  145.3090 C   0  0  0  0  0  1  0  0  0  0  0  0
  187.3040  179.2830  141.3730 C   0  0  0  0  0  2  0  0  0  0  0  0
  186.0830  178.5990  141.9510 C   0  0  0  0  0  2  0  0  0  0  0  0
  184.8730  179.0090  141.1910 C   0  0  0  0  0  3  0  0  0  0  0  0
  183.6940  178.4930  141.5090 C   0  0  0  0  0  3  0  0  0  0  0  0
  182.5260  178.8970  140.8020 N   0  0  0  0  0  2  0  0  0  0  0  0
  181.1550  178.0740  139.0990 O   0  0  0  0  0  0  0  0  0  0  0  0
  178.9470  176.1920  140.1670 C   0  0  0  0  0  2  0  0  0  0  0  0
  181.3500  176.6170  137.1670 C   0  0  2  0  0  3  0  0  0  0  0  0
  179.9650  176.0350  137.4320 C   0  0  0  0  0  2  0  0  0  0  0  0
  180.2840  178.0440  141.3360 C   0  0  0  0  0  0  0  0  0  0  0  0
  180.2230  178.9670  142.1950 O   0  0  0  0  0  0  0  0  0  0  0  0
  179.2110  177.0940  141.2790 N   0  0  0  0  0  2  0  0  0  0  0  0
  180.2710  174.9490  139.9990 S   0  0  0  0  0  0  0  0  0  0  0  0
  182.0050  177.1870  138.4210 C   0  0  0  0  0  2  0  0  0  0  0  0
  181.5000  177.9250  140.4460 C   0  0  2  0  0  3  0  0  0  0  0  0
  180.0050  174.7180  138.2050 C   0  0  0  0  0  2  0  0  0  0  0  0
  181.2470  177.8870  135.8710 P   0  0  0  0  0  0  0  0  0  0  0  0
  179.9490  177.7450  135.1090 O   0  0  0  0  0  1  0  0  0  0  0  0
  181.3190  179.4240  136.5750 O   0  0  0  0  0  1  0  0  0  0  0  0
  182.5440  177.7030  134.8030 O   0  0  0  0  0  0  0  0  0  0  0  0
  1 25  1  0  0  0  0
  2 35  1  0  0  0  0
  2 11  1  0  0  0  0
  3  2  2  0  0  0  0
  4  5  2  0  0  0  0
  5  3  1  0  0  0  0
  5  8  1  0  0  0  0
  6 11  2  0  0  0  0
  6 10  1  0  0  0  0
  7  1  1  0  0  0  0
  8 13  1  6  0  0  0
  8  6  1  0  0  0  0
  9  1  2  0  0  0  0
 10  7  2  0  0  0  0
 11  9  1  0  0  0  0
 12 14  1  0  0  0  0
 14 13  1  0  0  0  0
 15 14  2  0  0  0  0
 16 24  1  0  0  0  0
 17 18  1  0  0  0  0
 18 16  2  0  0  0  0
 18 12  1  0  0  0  0
 19 17  1  0  0  0  0
 19 20  2  0  0  0  0
 20 16  1  0  0  0  0
 21 22  1  0  0  0  0
 22 20  1  0  0  0  0
 23 24  1  0  0  0  0
 25 26  1  0  0  0  0
 26 28  1  0  0  0  0
 26 29  1  0  0  0  0
 28 27  1  0  0  0  0
 30 29  1  0  0  0  0
 31 32  1  0  0  0  0
 31 30  1  0  0  0  0
 32 34  1  6  0  0  0
 32 33  1  0  0  0  0
 35 36  1  0  0  0  0
 37 38  2  0  0  0  0
 37 36  1  0  0  0  0
 39 38  1  0  0  0  0
 40 49  1  0  0  0  0
 41 46  1  0  0  0  0
 42 51  1  6  0  0  0
 42 43  1  0  0  0  0
 42 48  1  0  0  0  0
 43 50  1  0  0  0  0
 44 45  2  0  0  0  0
 46 44  1  0  0  0  0
 47 41  1  0  0  0  0
 48 40  1  0  0  0  0
 49 39  1  1  0  0  0
 49 44  1  0  0  0  0
 50 47  1  0  0  0  0
 51 53  1  0  0  0  0
 52 51  1  0  0  0  0
 54 51  2  0  0  0  0
M  END
>  <MODEL>
1

>  <REMARK>
 VINA RESULT:      -7.3      0.000      0.000
  Name = 
  17 active torsions:
  status: ('A' for Active; 'I' for Inactive)
    1  A    between atoms: C_1  and  C_13
    2  A    between atoms: C_2  and  C_9
    3  A    between atoms: P_3  and  C_35
    4  A    between atoms: C_4  and  C_27
    5  A    between atoms: C_4  and  N_36
    6  A    between atoms: C_9  and  C_49
    7  A    between atoms: N_10  and  C_25
    8  A    between atoms: C_11  and  C_14
    9  A    between atoms: C_13  and  N_36
   10  A    between atoms: N_15  and  C_30
   11  A    between atoms: C_20  and  C_49
   12  A    between atoms: C_21  and  N_24
   13  A    between atoms: N_24  and  C_50
   14  A    between atoms: C_27  and  O_54
   15  A    between atoms: P_28  and  O_54
   16  A    between atoms: O_33  and  C_51
   17  A    between atoms: N_36  and  C_42
                            x       y       z     vdW  Elec       q    Type
                         _______ _______ _______ _____ _____    ______ ____

>  <TORSDO>
F 17

$$$$
=
 OpenBabel10222420023D

 54 57  0  0  1  0  0  0  0  0999 V2000
  189.4600  177.6480  140.8180 C   0  0  0  0  0  0  0  0  0  0  0  0
  189.0240  177.7290  137.0590 C   0  0  0  0  0  0  0  0  0  0  0  0
  189.4090  177.0510  136.0190 N   0  0  0  0  0  0  0  0  0  0  0  0
  190.5820  175.2850  135.0700 O   0  0  0  0  0  0  0  0  0  0  0  0
  190.3530  175.9770  136.0960 C   0  0  0  0  0  0  0  0  0  0  0  0
  190.4740  176.3610  138.5630 C   0  0  0  0  0  0  0  0  0  0  0  0
  190.4100  176.6270  140.9270 C   0  0  0  0  0  3  0  0  0  0  0  0
  191.0920  175.6780  137.3740 C   0  0  2  0  0  3  0  0  0  0  0  0
  189.0110  178.0110  139.5490 C   0  0  0  0  0  3  0  0  0  0  0  0
  190.8940  176.0180  139.8120 N   0  0  0  0  0  0  0  0  0  0  0  0
  189.5140  177.3740  138.4080 C   0  0  0  0  0  0  0  0  0  0  0  0
  194.8730  175.6630  136.8250 N   0  0  0  0  0  2  0  0  0  0  0  0
  192.4850  176.0860  137.2530 N   0  0  0  0  0  2  0  0  0  0  0  0
  193.5370  175.1700  136.9500 C   0  0  0  0  0  0  0  0  0  0  0  0
  193.2880  173.9420  136.8080 O   0  0  0  0  0  0  0  0  0  0  0  0
  196.5770  173.9940  137.3060 C   0  0  0  0  0  0  0  0  0  0  0  0
  196.8090  174.9540  135.2290 C   0  0  0  0  0  2  0  0  0  0  0  0
  196.0210  174.8730  136.4940 C   0  0  0  0  0  0  0  0  0  0  0  0
  197.8940  174.0070  135.4560 N   0  0  0  0  0  0  0  0  0  0  0  0
  197.7540  173.4730  136.6200 C   0  0  0  0  0  0  0  0  0  0  0  0
  198.3900  171.1300  137.0980 C   0  0  0  0  0  1  0  0  0  0  0  0
  198.6580  172.5220  137.1000 O   0  0  0  0  0  0  0  0  0  0  0  0
  196.7030  174.7320  139.6580 C   0  0  0  0  0  1  0  0  0  0  0  0
  196.1280  173.7040  138.7020 C   0  0  0  0  0  2  0  0  0  0  0  0
  188.8730  178.3380  142.0150 C   0  0  0  0  0  2  0  0  0  0  0  0
  189.3290  177.7460  143.2660 N   0  0  0  0  0  0  0  0  0  0  0  0
  191.5070  178.2970  143.8770 O   0  0  0  0  0  1  0  0  0  0  0  0
  190.1790  178.7310  143.9140 C   0  0  0  0  0  2  0  0  0  0  0  0
  188.1470  177.5930  144.0970 C   0  0  0  0  0  2  0  0  0  0  0  0
  188.5480  177.1790  145.4990 C   0  0  0  0  0  2  0  0  0  0  0  0
  187.7310  177.8130  146.4350 O   0  0  0  0  0  0  0  0  0  0  0  0
  188.7760  178.1210  147.7870 P   0  0  1  0  0  0  0  0  0  0  0  0
  187.8530  177.1700  148.9090 O   0  0  0  0  0  1  0  0  0  0  0  0
  189.9920  176.7760  147.3800 C   0  0  0  0  0  1  0  0  0  0  0  0
  188.0100  178.8100  136.8760 C   0  0  0  0  0  2  0  0  0  0  0  0
  186.7260  178.2250  136.3250 C   0  0  0  0  0  2  0  0  0  0  0  0
  185.7560  178.0150  137.4310 C   0  0  0  0  0  3  0  0  0  0  0  0
  184.7980  177.1090  137.2980 C   0  0  0  0  0  3  0  0  0  0  0  0
  183.8790  176.8840  138.3620 N   0  0  0  0  0  2  0  0  0  0  0  0
  181.8420  177.4100  139.3780 O   0  0  0  0  0  0  0  0  0  0  0  0
  179.4230  176.8420  137.5390 C   0  0  0  0  0  2  0  0  0  0  0  0
  180.6740  179.3850  140.1700 C   0  0  2  0  0  3  0  0  0  0  0  0
  179.3400  178.8250  139.6840 C   0  0  0  0  0  2  0  0  0  0  0  0
  181.7980  175.8690  137.5380 C   0  0  0  0  0  0  0  0  0  0  0  0
  182.4780  174.8250  137.3370 O   0  0  0  0  0  0  0  0  0  0  0  0
  180.4310  175.8860  137.1030 N   0  0  0  0  0  2  0  0  0  0  0  0
  179.8040  178.5200  136.9360 S   0  0  0  0  0  0  0  0  0  0  0  0
  181.8700  178.8120  139.4160 C   0  0  0  0  0  2  0  0  0  0  0  0
  182.4480  177.0830  138.1620 C   0  0  2  0  0  3  0  0  0  0  0  0
  178.9320  179.3530  138.3100 C   0  0  0  0  0  2  0  0  0  0  0  0
  180.8500  179.0940  141.9560 P   0  0  0  0  0  0  0  0  0  0  0  0
  182.2930  178.7950  142.2920 O   0  0  0  0  0  0  0  0  0  0  0  0
  180.3480  180.4680  142.8060 O   0  0  0  0  0  1  0  0  0  0  0  0
  179.8870  177.7790  142.4050 O   0  0  0  0  0  1  0  0  0  0  0  0
  1  7  1  0  0  0  0
  1 25  1  0  0  0  0
  2 11  1  0  0  0  0
  3  5  1  0  0  0  0
  3  2  2  0  0  0  0
  4  5  2  0  0  0  0
  5  8  1  0  0  0  0
  6 10  1  0  0  0  0
  8 13  1  6  0  0  0
  8  6  1  0  0  0  0
  9  1  2  0  0  0  0
 10  7  2  0  0  0  0
 11  6  2  0  0  0  0
 11  9  1  0  0  0  0
 12 14  1  0  0  0  0
 14 13  1  0  0  0  0
 15 14  2  0  0  0  0
 16 24  1  0  0  0  0
 17 19  1  0  0  0  0
 17 18  1  0  0  0  0
 18 12  1  0  0  0  0
 18 16  2  0  0  0  0
 19 20  2  0  0  0  0
 20 22  1  0  0  0  0
 20 16  1  0  0  0  0
 21 22  1  0  0  0  0
 24 23  1  0  0  0  0
 25 26  1  0  0  0  0
 26 28  1  0  0  0  0
 26 29  1  0  0  0  0
 27 28  1  0  0  0  0
 29 30  1  0  0  0  0
 30 31  1  0  0  0  0
 31 32  1  0  0  0  0
 32 34  1  6  0  0  0
 32 33  1  0  0  0  0
 35  2  1  0  0  0  0
 36 35  1  0  0  0  0
 36 37  1  0  0  0  0
 38 37  2  0  0  0  0
 38 39  1  0  0  0  0
 40 48  1  0  0  0  0
 42 51  1  1  0  0  0
 43 42  1  0  0  0  0
 44 49  1  0  0  0  0
 45 44  2  0  0  0  0
 46 44  1  0  0  0  0
 46 41  1  0  0  0  0
 47 41  1  0  0  0  0
 47 50  1  0  0  0  0
 48 42  1  0  0  0  0
 49 39  1  1  0  0  0
 49 40  1  0  0  0  0
 50 43  1  0  0  0  0
 51 52  2  0  0  0  0
 51 54  1  0  0  0  0
 51 53  1  0  0  0  0
M  END
>  <MODEL>
2

>  <REMARK>
 VINA RESULT:      -7.2      2.519      3.867
  Name = 
  17 active torsions:
  status: ('A' for Active; 'I' for Inactive)
    1  A    between atoms: C_1  and  C_13
    2  A    between atoms: C_2  and  C_9
    3  A    between atoms: P_3  and  C_35
    4  A    between atoms: C_4  and  C_27
    5  A    between atoms: C_4  and  N_36
    6  A    between atoms: C_9  and  C_49
    7  A    between atoms: N_10  and  C_25
    8  A    between atoms: C_11  and  C_14
    9  A    between atoms: C_13  and  N_36
   10  A    between atoms: N_15  and  C_30
   11  A    between atoms: C_20  and  C_49
   12  A    between atoms: C_21  and  N_24
   13  A    between atoms: N_24  and  C_50
   14  A    between atoms: C_27  and  O_54
   15  A    between atoms: P_28  and  O_54
   16  A    between atoms: O_33  and  C_51
   17  A    between atoms: N_36  and  C_42
                            x       y       z     vdW  Elec       q    Type
                         _______ _______ _______ _____ _____    ______ ____

>  <TORSDO>
F 17

$$$$
=
 OpenBabel10222420023D

 54 57  0  0  1  0  0  0  0  0999 V2000
  189.4020  177.6520  140.4510 C   0  0  0  0  0  0  0  0  0  0  0  0
  188.9750  177.7030  136.6900 C   0  0  0  0  0  0  0  0  0  0  0  0
  189.4020  177.0480  135.6530 N   0  0  0  0  0  0  0  0  0  0  0  0
  190.6780  175.3510  134.7090 O   0  0  0  0  0  0  0  0  0  0  0  0
  190.4060  176.0290  135.7340 C   0  0  0  0  0  0  0  0  0  0  0  0
  190.4970  176.4230  138.2010 C   0  0  0  0  0  0  0  0  0  0  0  0
  190.4090  176.6870  140.5650 C   0  0  0  0  0  3  0  0  0  0  0  0
  191.1570  175.7750  137.0150 C   0  0  2  0  0  3  0  0  0  0  0  0
  188.9380  177.9870  139.1800 C   0  0  0  0  0  3  0  0  0  0  0  0
  190.9320  176.1060  139.4520 N   0  0  0  0  0  0  0  0  0  0  0  0
  189.4800  177.3790  138.0420 C   0  0  0  0  0  0  0  0  0  0  0  0
  194.9180  176.0000  136.3810 N   0  0  0  0  0  2  0  0  0  0  0  0
  192.5240  176.2630  136.8980 N   0  0  0  0  0  2  0  0  0  0  0  0
  193.6120  175.4300  136.4930 C   0  0  0  0  0  0  0  0  0  0  0  0
  193.4190  174.2080  136.2520 O   0  0  0  0  0  0  0  0  0  0  0  0
  196.8340  174.5470  136.7480 C   0  0  0  0  0  0  0  0  0  0  0  0
  196.7090  175.3570  134.5990 C   0  0  0  0  0  2  0  0  0  0  0  0
  196.0940  175.3010  135.9570 C   0  0  0  0  0  0  0  0  0  0  0  0
  197.9070  174.5400  134.7460 N   0  0  0  0  0  0  0  0  0  0  0  0
  197.9670  174.0890  135.9510 C   0  0  0  0  0  0  0  0  0  0  0  0
  198.9910  171.8570  136.2590 C   0  0  0  0  0  1  0  0  0  0  0  0
  199.0180  173.2700  136.3720 O   0  0  0  0  0  0  0  0  0  0  0  0
  195.8520  173.0170  138.4170 C   0  0  0  0  0  1  0  0  0  0  0  0
  196.5920  174.3250  138.2050 C   0  0  0  0  0  2  0  0  0  0  0  0
  188.7730  178.3080  141.6450 C   0  0  0  0  0  2  0  0  0  0  0  0
  188.4990  177.3540  142.7130 N   0  0  0  0  0  0  0  0  0  0  0  0
  190.2680  176.5970  144.0240 O   0  0  0  0  0  1  0  0  0  0  0  0
  189.4030  177.6730  143.8060 C   0  0  0  0  0  2  0  0  0  0  0  0
  187.1530  177.6410  143.1780 C   0  0  0  0  0  2  0  0  0  0  0  0
  187.0330  177.3150  144.6530 C   0  0  0  0  0  2  0  0  0  0  0  0
  186.8420  178.4870  145.3860 O   0  0  0  0  0  0  0  0  0  0  0  0
  185.3570  178.2260  146.2470 P   0  0  1  0  0  0  0  0  0  0  0  0
  185.5580  179.5860  147.3070 O   0  0  0  0  0  1  0  0  0  0  0  0
  184.2840  179.1190  145.0200 C   0  0  0  0  0  1  0  0  0  0  0  0
  187.9010  178.7240  136.5030 C   0  0  0  0  0  2  0  0  0  0  0  0
  186.5410  178.0650  136.6030 C   0  0  0  0  0  2  0  0  0  0  0  0
  185.8610  178.5090  137.8480 C   0  0  0  0  0  3  0  0  0  0  0  0
  184.8620  177.7900  138.3400 C   0  0  0  0  0  3  0  0  0  0  0  0
  184.2200  178.1940  139.5440 N   0  0  0  0  0  2  0  0  0  0  0  0
  182.1810  177.3500  138.7770 O   0  0  0  0  0  0  0  0  0  0  0  0
  179.7970  179.1800  139.5000 C   0  0  0  0  0  2  0  0  0  0  0  0
  180.7410  175.4420  139.1990 C   0  0  2  0  0  3  0  0  0  0  0  0
  179.4970  176.3110  139.0370 C   0  0  0  0  0  2  0  0  0  0  0  0
  182.2980  179.6990  139.2550 C   0  0  0  0  0  0  0  0  0  0  0  0
  183.1330  180.5640  138.8720 O   0  0  0  0  0  0  0  0  0  0  0  0
  180.9270  180.0940  139.4020 N   0  0  0  0  0  2  0  0  0  0  0  0
  179.8560  178.2260  141.0530 S   0  0  0  0  0  0  0  0  0  0  0  0
  181.9740  176.2410  139.6110 C   0  0  0  0  0  2  0  0  0  0  0  0
  182.7670  178.3070  139.6100 C   0  0  2  0  0  3  0  0  0  0  0  0
  178.9310  176.8050  140.3670 C   0  0  0  0  0  2  0  0  0  0  0  0
  181.0590  174.5280  137.6610 P   0  0  0  0  0  0  0  0  0  0  0  0
  180.4900  175.2840  136.4820 O   0  0  0  0  0  0  0  0  0  0  0  0
  182.7260  174.3340  137.4510 O   0  0  0  0  0  1  0  0  0  0  0  0
  180.3290  173.0060  137.7540 O   0  0  0  0  0  1  0  0  0  0  0  0
  1  7  1  0  0  0  0
  1 25  1  0  0  0  0
  2 11  1  0  0  0  0
  3  5  1  0  0  0  0
  3  2  2  0  0  0  0
  4  5  2  0  0  0  0
  5  8  1  0  0  0  0
  6 10  1  0  0  0  0
  8 13  1  6  0  0  0
  8  6  1  0  0  0  0
  9  1  2  0  0  0  0
 10  7  2  0  0  0  0
 11  6  2  0  0  0  0
 11  9  1  0  0  0  0
 12 14  1  0  0  0  0
 14 13  1  0  0  0  0
 15 14  2  0  0  0  0
 16 24  1  0  0  0  0
 17 19  1  0  0  0  0
 17 18  1  0  0  0  0
 18 12  1  0  0  0  0
 18 16  2  0  0  0  0
 19 20  2  0  0  0  0
 20 22  1  0  0  0  0
 20 16  1  0  0  0  0
 21 22  1  0  0  0  0
 24 23  1  0  0  0  0
 25 26  1  0  0  0  0
 26 29  1  0  0  0  0
 26 28  1  0  0  0  0
 28 27  1  0  0  0  0
 29 30  1  0  0  0  0
 30 31  1  0  0  0  0
 31 32  1  0  0  0  0
 32 34  1  6  0  0  0
 32 33  1  0  0  0  0
 35 36  1  0  0  0  0
 35  2  1  0  0  0  0
 36 37  1  0  0  0  0
 37 38  2  0  0  0  0
 38 39  1  0  0  0  0
 40 49  1  0  0  0  0
 40 48  1  0  0  0  0
 41 47  1  0  0  0  0
 42 51  1  6  0  0  0
 42 48  1  0  0  0  0
 43 42  1  0  0  0  0
 43 50  1  0  0  0  0
 44 46  1  0  0  0  0
 44 49  1  0  0  0  0
 45 44  2  0  0  0  0
 46 41  1  0  0  0  0
 49 39  1  6  0  0  0
 50 47  1  0  0  0  0
 51 54  1  0  0  0  0
 52 51  2  0  0  0  0
 53 51  1  0  0  0  0
M  END
>  <MODEL>
3

>  <REMARK>
 VINA RESULT:      -7.1      2.393      3.251
  Name = 
  17 active torsions:
  status: ('A' for Active; 'I' for Inactive)
    1  A    between atoms: C_1  and  C_13
    2  A    between atoms: C_2  and  C_9
    3  A    between atoms: P_3  and  C_35
    4  A    between atoms: C_4  and  C_27
    5  A    between atoms: C_4  and  N_36
    6  A    between atoms: C_9  and  C_49
    7  A    between atoms: N_10  and  C_25
    8  A    between atoms: C_11  and  C_14
    9  A    between atoms: C_13  and  N_36
   10  A    between atoms: N_15  and  C_30
   11  A    between atoms: C_20  and  C_49
   12  A    between atoms: C_21  and  N_24
   13  A    between atoms: N_24  and  C_50
   14  A    between atoms: C_27  and  O_54
   15  A    between atoms: P_28  and  O_54
   16  A    between atoms: O_33  and  C_51
   17  A    between atoms: N_36  and  C_42
                            x       y       z     vdW  Elec       q    Type
                         _______ _______ _______ _____ _____    ______ ____

>  <TORSDO>
F 17

$$$$
=
 OpenBabel10222420023D

 54 57  0  0  1  0  0  0  0  0999 V2000
  190.2390  177.5350  143.8320 C   0  0  0  0  0  0  0  0  0  0  0  0
  188.2220  178.1480  140.6870 C   0  0  0  0  0  0  0  0  0  0  0  0
  188.1220  177.6640  139.4860 N   0  0  0  0  0  0  0  0  0  0  0  0
  188.7730  176.1520  137.8460 O   0  0  0  0  0  0  0  0  0  0  0  0
  189.0080  176.6630  138.9720 C   0  0  0  0  0  0  0  0  0  0  0  0
  190.1830  176.6800  141.1790 C   0  0  0  0  0  0  0  0  0  0  0  0
  191.1450  176.5820  143.3540 C   0  0  0  0  0  3  0  0  0  0  0  0
  190.2270  176.2310  139.7450 C   0  0  2  0  0  3  0  0  0  0  0  0
  189.2860  178.0500  142.9540 C   0  0  0  0  0  3  0  0  0  0  0  0
  191.1010  176.1850  142.0540 N   0  0  0  0  0  0  0  0  0  0  0  0
  189.2480  177.6310  141.6200 C   0  0  0  0  0  0  0  0  0  0  0  0
  193.3670  176.6000  137.5980 N   0  0  0  0  0  2  0  0  0  0  0  0
  191.4310  176.7540  139.1130 N   0  0  0  0  0  2  0  0  0  0  0  0
  192.2140  175.9960  138.1900 C   0  0  0  0  0  0  0  0  0  0  0  0
  191.8950  174.8080  137.9140 O   0  0  0  0  0  0  0  0  0  0  0  0
  195.0080  174.9470  136.8960 C   0  0  0  0  0  0  0  0  0  0  0  0
  194.4310  176.4180  135.2240 C   0  0  0  0  0  2  0  0  0  0  0  0
  194.2260  175.9770  136.6350 C   0  0  0  0  0  0  0  0  0  0  0  0
  195.4510  175.4980  134.7370 N   0  0  0  0  0  0  0  0  0  0  0  0
  195.7660  174.6770  135.6780 C   0  0  0  0  0  0  0  0  0  0  0  0
  197.8180  173.8180  134.5940 C   0  0  0  0  0  1  0  0  0  0  0  0
  196.7240  173.6790  135.4860 O   0  0  0  0  0  0  0  0  0  0  0  0
  196.5680  174.4610  138.7460 C   0  0  0  0  0  1  0  0  0  0  0  0
  195.1520  174.2860  138.2280 C   0  0  0  0  0  2  0  0  0  0  0  0
  190.2260  177.9920  145.2620 C   0  0  0  0  0  2  0  0  0  0  0  0
  190.2340  176.8720  146.1940 N   0  0  0  0  0  0  0  0  0  0  0  0
  191.8850  176.8930  147.8360 O   0  0  0  0  0  1  0  0  0  0  0  0
  191.6260  176.5860  146.4970 C   0  0  0  0  0  2  0  0  0  0  0  0
  189.6240  177.3590  147.4190 C   0  0  0  0  0  2  0  0  0  0  0  0
  188.1260  177.1350  147.3790 C   0  0  0  0  0  2  0  0  0  0  0  0
  187.4580  178.3530  147.5060 O   0  0  0  0  0  0  0  0  0  0  0  0
  185.8820  178.0570  146.8390 P   0  0  1  0  0  0  0  0  0  0  0  0
  185.5720  179.7200  146.4460 O   0  0  0  0  0  1  0  0  0  0  0  0
  186.4920  177.5900  145.1470 C   0  0  0  0  0  1  0  0  0  0  0  0
  187.2270  179.1660  141.1370 C   0  0  0  0  0  2  0  0  0  0  0  0
  185.9610  178.4780  141.6040 C   0  0  0  0  0  2  0  0  0  0  0  0
  184.7750  179.2260  141.1140 C   0  0  0  0  0  3  0  0  0  0  0  0
  183.7940  178.5740  140.5070 C   0  0  0  0  0  3  0  0  0  0  0  0
  182.6420  179.2790  140.0550 N   0  0  0  0  0  2  0  0  0  0  0  0
  182.9970  178.2740  137.9750 O   0  0  0  0  0  0  0  0  0  0  0  0
  180.9410  179.1890  135.8560 C   0  0  0  0  0  2  0  0  0  0  0  0
  182.8930  176.0540  137.0000 C   0  0  2  0  0  3  0  0  0  0  0  0
  182.3250  176.6200  135.7030 C   0  0  0  0  0  2  0  0  0  0  0  0
  181.7360  180.3170  138.0200 C   0  0  0  0  0  0  0  0  0  0  0  0
  182.0070  181.4250  138.5580 O   0  0  0  0  0  0  0  0  0  0  0  0
  181.0360  180.3210  136.7680 N   0  0  0  0  0  2  0  0  0  0  0  0
  179.9590  177.8370  136.5850 S   0  0  0  0  0  0  0  0  0  0  0  0
  182.6180  176.9440  138.2080 C   0  0  0  0  0  2  0  0  0  0  0  0
  182.0920  179.0300  138.7280 C   0  0  2  0  0  3  0  0  0  0  0  0
  180.8020  176.5310  135.6240 C   0  0  0  0  0  2  0  0  0  0  0  0
  184.6790  175.7650  136.8160 P   0  0  0  0  0  0  0  0  0  0  0  0
  185.0610  174.4540  137.4630 O   0  0  0  0  0  1  0  0  0  0  0  0
  185.0800  175.7190  135.1740 O   0  0  0  0  0  0  0  0  0  0  0  0
  185.5270  177.0240  137.5620 O   0  0  0  0  0  1  0  0  0  0  0  0
  1 25  1  0  0  0  0
  2 35  1  0  0  0  0
  2 11  1  0  0  0  0
  3  2  2  0  0  0  0
  4  5  2  0  0  0  0
  5  3  1  0  0  0  0
  5  8  1  0  0  0  0
  6 11  2  0  0  0  0
  6 10  1  0  0  0  0
  7  1  1  0  0  0  0
  8 13  1  6  0  0  0
  8  6  1  0  0  0  0
  9  1  2  0  0  0  0
 10  7  2  0  0  0  0
 11  9  1  0  0  0  0
 12 14  1  0  0  0  0
 14 13  1  0  0  0  0
 15 14  2  0  0  0  0
 16 24  1  0  0  0  0
 17 18  1  0  0  0  0
 18 16  2  0  0  0  0
 18 12  1  0  0  0  0
 19 17  1  0  0  0  0
 19 20  2  0  0  0  0
 20 16  1  0  0  0  0
 21 22  1  0  0  0  0
 22 20  1  0  0  0  0
 24 23  1  0  0  0  0
 25 26  1  0  0  0  0
 26 28  1  0  0  0  0
 26 29  1  0  0  0  0
 28 27  1  0  0  0  0
 30 29  1  0  0  0  0
 30 31  1  0  0  0  0
 32 34  1  6  0  0  0
 32 31  1  0  0  0  0
 33 32  1  0  0  0  0
 35 36  1  0  0  0  0
 37 36  1  0  0  0  0
 38 37  2  0  0  0  0
 39 38  1  0  0  0  0
 40 48  1  0  0  0  0
 40 49  1  0  0  0  0
 41 47  1  0  0  0  0
 41 46  1  0  0  0  0
 42 51  1  6  0  0  0
 42 48  1  0  0  0  0
 43 42  1  0  0  0  0
 44 45  2  0  0  0  0
 44 49  1  0  0  0  0
 46 44  1  0  0  0  0
 49 39  1  1  0  0  0
 50 43  1  0  0  0  0
 50 47  1  0  0  0  0
 51 52  1  0  0  0  0
 51 54  1  0  0  0  0
 53 51  2  0  0  0  0
M  END
>  <MODEL>
4

>  <REMARK>
 VINA RESULT:      -6.8      1.846      2.289
  Name = 
  17 active torsions:
  status: ('A' for Active; 'I' for Inactive)
    1  A    between atoms: C_1  and  C_13
    2  A    between atoms: C_2  and  C_9
    3  A    between atoms: P_3  and  C_35
    4  A    between atoms: C_4  and  C_27
    5  A    between atoms: C_4  and  N_36
    6  A    between atoms: C_9  and  C_49
    7  A    between atoms: N_10  and  C_25
    8  A    between atoms: C_11  and  C_14
    9  A    between atoms: C_13  and  N_36
   10  A    between atoms: N_15  and  C_30
   11  A    between atoms: C_20  and  C_49
   12  A    between atoms: C_21  and  N_24
   13  A    between atoms: N_24  and  C_50
   14  A    between atoms: C_27  and  O_54
   15  A    between atoms: P_28  and  O_54
   16  A    between atoms: O_33  and  C_51
   17  A    between atoms: N_36  and  C_42
                            x       y       z     vdW  Elec       q    Type
                         _______ _______ _______ _____ _____    ______ ____

>  <TORSDO>
F 17

$$$$
=
 OpenBabel10222420023D

 54 57  0  0  1  0  0  0  0  0999 V2000
  189.4050  177.5020  140.9530 C   0  0  0  0  0  0  0  0  0  0  0  0
  188.5470  176.7660  137.3400 C   0  0  0  0  0  0  0  0  0  0  0  0
  188.9590  175.9940  136.3800 N   0  0  0  0  0  0  0  0  0  0  0  0
  190.3920  174.3560  135.5660 O   0  0  0  0  0  0  0  0  0  0  0  0
  190.1250  175.1710  136.4880 C   0  0  0  0  0  0  0  0  0  0  0  0
  190.4300  176.0400  138.8120 C   0  0  0  0  0  0  0  0  0  0  0  0
  190.5690  176.7380  141.0830 C   0  0  0  0  0  3  0  0  0  0  0  0
  191.0510  175.2820  137.6710 C   0  0  2  0  0  3  0  0  0  0  0  0
  188.7470  177.5140  139.7230 C   0  0  0  0  0  3  0  0  0  0  0  0
  191.0530  176.0380  140.0220 N   0  0  0  0  0  0  0  0  0  0  0  0
  189.2520  176.7860  138.6400 C   0  0  0  0  0  0  0  0  0  0  0  0
  194.6180  175.9370  136.4690 N   0  0  0  0  0  2  0  0  0  0  0  0
  192.2910  175.9350  137.2770 N   0  0  0  0  0  2  0  0  0  0  0  0
  193.4510  175.2120  136.8650 C   0  0  0  0  0  0  0  0  0  0  0  0
  193.4450  173.9510  136.8630 O   0  0  0  0  0  0  0  0  0  0  0  0
  196.7350  174.7810  136.7870 C   0  0  0  0  0  0  0  0  0  0  0  0
  196.3310  175.3460  134.5940 C   0  0  0  0  0  2  0  0  0  0  0  0
  195.8400  175.3510  136.0030 C   0  0  0  0  0  0  0  0  0  0  0  0
  197.6360  174.7060  134.7030 N   0  0  0  0  0  0  0  0  0  0  0  0
  197.8520  174.3910  135.9330 C   0  0  0  0  0  0  0  0  0  0  0  0
  199.1030  172.3780  136.6460 C   0  0  0  0  0  1  0  0  0  0  0  0
  199.0340  173.7580  136.3270 O   0  0  0  0  0  0  0  0  0  0  0  0
  196.1100  173.3160  138.6720 C   0  0  0  0  0  1  0  0  0  0  0  0
  196.6420  174.6800  138.2750 C   0  0  0  0  0  2  0  0  0  0  0  0
  188.8130  178.2750  142.0950 C   0  0  0  0  0  2  0  0  0  0  0  0
  189.1650  177.6990  143.3870 N   0  0  0  0  0  0  0  0  0  0  0  0
  190.7460  177.8860  145.0850 O   0  0  0  0  0  1  0  0  0  0  0  0
  190.2880  178.4660  143.8990 C   0  0  0  0  0  2  0  0  0  0  0  0
  188.0380  177.9560  144.2670 C   0  0  0  0  0  2  0  0  0  0  0  0
  187.2000  176.7030  144.4180 C   0  0  0  0  0  2  0  0  0  0  0  0
  186.3850  176.8070  145.5460 O   0  0  0  0  0  0  0  0  0  0  0  0
  186.5260  178.4680  146.0330 P   0  0  1  0  0  0  0  0  0  0  0  0
  184.8950  178.5900  146.6180 O   0  0  0  0  0  1  0  0  0  0  0  0
  187.2780  178.1000  147.6930 C   0  0  0  0  0  1  0  0  0  0  0  0
  187.2990  177.5600  137.1380 C   0  0  0  0  0  2  0  0  0  0  0  0
  186.3870  176.8480  136.1600 C   0  0  0  0  0  2  0  0  0  0  0  0
  185.0410  177.4770  136.1820 C   0  0  0  0  0  3  0  0  0  0  0  0
  184.0280  176.8350  136.7470 C   0  0  0  0  0  3  0  0  0  0  0  0
  182.7400  177.4400  136.7940 N   0  0  0  0  0  2  0  0  0  0  0  0
  182.8340  177.6060  139.1230 O   0  0  0  0  0  0  0  0  0  0  0  0
  180.1570  176.8470  140.4700 C   0  0  0  0  0  2  0  0  0  0  0  0
  183.0950  179.3390  140.8020 C   0  0  2  0  0  3  0  0  0  0  0  0
  182.0980  178.6380  141.7200 C   0  0  0  0  0  2  0  0  0  0  0  0
  181.1220  176.2120  138.1790 C   0  0  0  0  0  0  0  0  0  0  0  0
  181.2090  175.2890  137.3230 O   0  0  0  0  0  0  0  0  0  0  0  0
  180.1640  176.0730  139.2370 N   0  0  0  0  0  2  0  0  0  0  0  0
  179.7800  178.6010  140.1430 S   0  0  0  0  0  0  0  0  0  0  0  0
  182.8930  178.9920  139.3300 C   0  0  0  0  0  2  0  0  0  0  0  0
  181.9710  177.4540  138.0330 C   0  0  2  0  0  3  0  0  0  0  0  0
  180.6830  179.2040  141.6140 C   0  0  0  0  0  2  0  0  0  0  0  0
  184.7920  178.9460  141.3210 P   0  0  0  0  0  0  0  0  0  0  0  0
  185.3110  180.0190  142.2510 O   0  0  0  0  0  1  0  0  0  0  0  0
  184.8110  177.4550  142.1190 O   0  0  0  0  0  1  0  0  0  0  0  0
  185.7880  178.8610  139.9570 O   0  0  0  0  0  0  0  0  0  0  0  0
  1  7  1  0  0  0  0
  1 25  1  0  0  0  0
  2 11  1  0  0  0  0
  3  5  1  0  0  0  0
  3  2  2  0  0  0  0
  4  5  2  0  0  0  0
  5  8  1  0  0  0  0
  6 10  1  0  0  0  0
  8 13  1  6  0  0  0
  8  6  1  0  0  0  0
  9  1  2  0  0  0  0
 10  7  2  0  0  0  0
 11  6  2  0  0  0  0
 11  9  1  0  0  0  0
 12 14  1  0  0  0  0
 14 13  1  0  0  0  0
 15 14  2  0  0  0  0
 16 24  1  0  0  0  0
 17 19  1  0  0  0  0
 17 18  1  0  0  0  0
 18 12  1  0  0  0  0
 18 16  2  0  0  0  0
 19 20  2  0  0  0  0
 20 22  1  0  0  0  0
 20 16  1  0  0  0  0
 22 21  1  0  0  0  0
 24 23  1  0  0  0  0
 25 26  1  0  0  0  0
 26 28  1  0  0  0  0
 26 29  1  0  0  0  0
 28 27  1  0  0  0  0
 29 30  1  0  0  0  0
 30 31  1  0  0  0  0
 31 32  1  0  0  0  0
 32 33  1  0  0  0  0
 32 34  1  1  0  0  0
 35  2  1  0  0  0  0
 36 37  1  0  0  0  0
 36 35  1  0  0  0  0
 37 38  2  0  0  0  0
 38 39  1  0  0  0  0
 40 48  1  0  0  0  0
 42 51  1  1  0  0  0
 42 43  1  0  0  0  0
 44 46  1  0  0  0  0
 45 44  2  0  0  0  0
 46 41  1  0  0  0  0
 47 41  1  0  0  0  0
 47 50  1  0  0  0  0
 48 42  1  0  0  0  0
 49 39  1  6  0  0  0
 49 44  1  0  0  0  0
 49 40  1  0  0  0  0
 50 43  1  0  0  0  0
 51 53  1  0  0  0  0
 51 52  1  0  0  0  0
 54 51  2  0  0  0  0
M  END
>  <MODEL>
5

>  <REMARK>
 VINA RESULT:      -6.4      2.476      3.770
  Name = 
  17 active torsions:
  status: ('A' for Active; 'I' for Inactive)
    1  A    between atoms: C_1  and  C_13
    2  A    between atoms: C_2  and  C_9
    3  A    between atoms: P_3  and  C_35
    4  A    between atoms: C_4  and  C_27
    5  A    between atoms: C_4  and  N_36
    6  A    between atoms: C_9  and  C_49
    7  A    between atoms: N_10  and  C_25
    8  A    between atoms: C_11  and  C_14
    9  A    between atoms: C_13  and  N_36
   10  A    between atoms: N_15  and  C_30
   11  A    between atoms: C_20  and  C_49
   12  A    between atoms: C_21  and  N_24
   13  A    between atoms: N_24  and  C_50
   14  A    between atoms: C_27  and  O_54
   15  A    between atoms: P_28  and  O_54
   16  A    between atoms: O_33  and  C_51
   17  A    between atoms: N_36  and  C_42
                            x       y       z     vdW  Elec       q    Type
                         _______ _______ _______ _____ _____    ______ ____

>  <TORSDO>
F 17

$$$$
=
 OpenBabel10222420023D

 54 57  0  0  1  0  0  0  0  0999 V2000
  186.3470  173.5700  137.0570 C   0  0  0  0  0  0  0  0  0  0  0  0
  188.6010  176.5600  136.4970 C   0  0  0  0  0  0  0  0  0  0  0  0
  189.7150  176.8380  135.8910 N   0  0  0  0  0  0  0  0  0  0  0  0
  191.5350  176.2000  134.5940 O   0  0  0  0  0  0  0  0  0  0  0  0
  190.5350  175.8410  135.2700 C   0  0  0  0  0  0  0  0  0  0  0  0
  188.8550  174.1300  135.9770 C   0  0  0  0  0  0  0  0  0  0  0  0
  187.1390  172.5640  136.4920 C   0  0  0  0  0  3  0  0  0  0  0  0
  190.2370  174.3740  135.4350 C   0  0  2  0  0  3  0  0  0  0  0  0
  186.8310  174.8780  137.0620 C   0  0  0  0  0  3  0  0  0  0  0  0
  188.3610  172.8610  135.9760 N   0  0  0  0  0  0  0  0  0  0  0  0
  188.0890  175.1720  136.5250 C   0  0  0  0  0  0  0  0  0  0  0  0
  193.3480  172.6170  136.7890 N   0  0  0  0  0  2  0  0  0  0  0  0
  191.2170  173.7600  136.3200 N   0  0  0  0  0  2  0  0  0  0  0  0
  192.4300  173.1740  135.8450 C   0  0  0  0  0  0  0  0  0  0  0  0
  192.6760  173.1400  134.6090 O   0  0  0  0  0  0  0  0  0  0  0  0
  195.7610  172.6760  136.4890 C   0  0  0  0  0  0  0  0  0  0  0  0
  194.8360  170.6290  135.9930 C   0  0  0  0  0  2  0  0  0  0  0  0
  194.6130  172.0270  136.4660 C   0  0  0  0  0  0  0  0  0  0  0  0
  196.2710  170.5930  135.7390 N   0  0  0  0  0  0  0  0  0  0  0  0
  196.7810  171.7420  136.0220 C   0  0  0  0  0  0  0  0  0  0  0  0
  198.9920  172.3450  136.9560 C   0  0  0  0  0  1  0  0  0  0  0  0
  198.1480  171.9900  135.8730 O   0  0  0  0  0  0  0  0  0  0  0  0
  195.8540  174.9580  135.5550 C   0  0  0  0  0  1  0  0  0  0  0  0
  195.9300  174.1230  136.8190 C   0  0  0  0  0  2  0  0  0  0  0  0
  184.9810  173.3040  137.6180 C   0  0  0  0  0  2  0  0  0  0  0  0
  183.9260  173.6190  136.6630 N   0  0  0  0  0  0  0  0  0  0  0  0
  183.3880  171.4290  137.2420 O   0  0  0  0  0  1  0  0  0  0  0  0
  183.3900  172.3520  136.1930 C   0  0  0  0  0  2  0  0  0  0  0  0
  182.8720  174.2710  137.4210 C   0  0  0  0  0  2  0  0  0  0  0  0
  183.3970  175.5440  138.0520 C   0  0  0  0  0  2  0  0  0  0  0  0
  182.8330  175.7180  139.3160 O   0  0  0  0  0  0  0  0  0  0  0  0
  181.3300  176.5330  139.0140 P   0  0  1  0  0  0  0  0  0  0  0  0
  181.3210  177.3940  140.5220 O   0  0  0  0  0  1  0  0  0  0  0  0
  182.0760  177.9200  138.0270 C   0  0  0  0  0  1  0  0  0  0  0  0
  187.8030  177.6770  137.0840 C   0  0  0  0  0  2  0  0  0  0  0  0
  188.5910  178.3470  138.1900 C   0  0  0  0  0  2  0  0  0  0  0  0
  188.8410  177.3750  139.2860 C   0  0  0  0  0  3  0  0  0  0  0  0
  188.8430  177.7930  140.5440 C   0  0  0  0  0  3  0  0  0  0  0  0
  189.0580  176.8650  141.6020 N   0  0  0  0  0  2  0  0  0  0  0  0
  187.8260  178.0230  143.2150 O   0  0  0  0  0  0  0  0  0  0  0  0
  189.4590  178.5620  145.7840 C   0  0  0  0  0  2  0  0  0  0  0  0
  185.8860  177.6440  144.6240 C   0  0  2  0  0  3  0  0  0  0  0  0
  186.5410  178.3990  145.7760 C   0  0  0  0  0  2  0  0  0  0  0  0
  190.2200  178.1060  143.3770 C   0  0  0  0  0  0  0  0  0  0  0  0
  191.0820  178.3950  142.5020 O   0  0  0  0  0  0  0  0  0  0  0  0
  190.4640  178.5060  144.7320 N   0  0  0  0  0  2  0  0  0  0  0  0
  188.8640  176.8930  146.2150 S   0  0  0  0  0  0  0  0  0  0  0  0
  186.8990  177.0610  143.6430 C   0  0  0  0  0  2  0  0  0  0  0  0
  189.0010  177.2980  142.9930 C   0  0  2  0  0  3  0  0  0  0  0  0
  187.2290  177.4800  146.7840 C   0  0  0  0  0  2  0  0  0  0  0  0
  184.7170  178.7330  143.7580 P   0  0  0  0  0  0  0  0  0  0  0  0
  185.2250  180.1570  143.7770 O   0  0  0  0  0  1  0  0  0  0  0  0
  184.5450  178.2210  142.1550 O   0  0  0  0  0  0  0  0  0  0  0  0
  183.2140  178.6660  144.5290 O   0  0  0  0  0  1  0  0  0  0  0  0
  1  9  1  0  0  0  0
  1 25  1  0  0  0  0
  2 11  1  0  0  0  0
  2 35  1  0  0  0  0
  3  2  2  0  0  0  0
  4  5  2  0  0  0  0
  5  8  1  0  0  0  0
  5  3  1  0  0  0  0
  6 11  1  0  0  0  0
  7  1  2  0  0  0  0
  8  6  1  0  0  0  0
  8 13  1  1  0  0  0
 10  6  2  0  0  0  0
 10  7  1  0  0  0  0
 11  9  2  0  0  0  0
 14 13  1  0  0  0  0
 14 12  1  0  0  0  0
 15 14  2  0  0  0  0
 16 24  1  0  0  0  0
 17 18  1  0  0  0  0
 18 16  2  0  0  0  0
 18 12  1  0  0  0  0
 19 17  1  0  0  0  0
 19 20  2  0  0  0  0
 20 16  1  0  0  0  0
 22 20  1  0  0  0  0
 22 21  1  0  0  0  0
 23 24  1  0  0  0  0
 26 29  1  0  0  0  0
 26 25  1  0  0  0  0
 28 26  1  0  0  0  0
 28 27  1  0  0  0  0
 29 30  1  0  0  0  0
 30 31  1  0  0  0  0
 32 34  1  6  0  0  0
 32 31  1  0  0  0  0
 32 33  1  0  0  0  0
 35 36  1  0  0  0  0
 36 37  1  0  0  0  0
 37 38  2  0  0  0  0
 38 39  1  0  0  0  0
 40 48  1  0  0  0  0
 41 47  1  0  0  0  0
 42 51  1  6  0  0  0
 42 43  1  0  0  0  0
 43 50  1  0  0  0  0
 44 46  1  0  0  0  0
 45 44  2  0  0  0  0
 46 41  1  0  0  0  0
 47 50  1  0  0  0  0
 48 42  1  0  0  0  0
 49 39  1  6  0  0  0
 49 40  1  0  0  0  0
 49 44  1  0  0  0  0
 51 52  1  0  0  0  0
 51 54  1  0  0  0  0
 53 51  2  0  0  0  0
M  END
>  <MODEL>
6

>  <REMARK>
 VINA RESULT:      -6.4      3.653      7.983
  Name = 
  17 active torsions:
  status: ('A' for Active; 'I' for Inactive)
    1  A    between atoms: C_1  and  C_13
    2  A    between atoms: C_2  and  C_9
    3  A    between atoms: P_3  and  C_35
    4  A    between atoms: C_4  and  C_27
    5  A    between atoms: C_4  and  N_36
    6  A    between atoms: C_9  and  C_49
    7  A    between atoms: N_10  and  C_25
    8  A    between atoms: C_11  and  C_14
    9  A    between atoms: C_13  and  N_36
   10  A    between atoms: N_15  and  C_30
   11  A    between atoms: C_20  and  C_49
   12  A    between atoms: C_21  and  N_24
   13  A    between atoms: N_24  and  C_50
   14  A    between atoms: C_27  and  O_54
   15  A    between atoms: P_28  and  O_54
   16  A    between atoms: O_33  and  C_51
   17  A    between atoms: N_36  and  C_42
                            x       y       z     vdW  Elec       q    Type
                         _______ _______ _______ _____ _____    ______ ____

>  <TORSDO>
F 17

$$$$
=
 OpenBabel10222420023D

 54 57  0  0  1  0  0  0  0  0999 V2000
  185.6970  177.9700  145.7410 C   0  0  0  0  0  0  0  0  0  0  0  0
  187.1130  177.9330  142.2300 C   0  0  0  0  0  0  0  0  0  0  0  0
  186.7940  178.3630  141.0470 N   0  0  0  0  0  0  0  0  0  0  0  0
  185.3410  179.4820  139.6190 O   0  0  0  0  0  0  0  0  0  0  0  0
  185.5320  178.9760  140.7560 C   0  0  0  0  0  0  0  0  0  0  0  0
  184.9120  178.6640  143.1580 C   0  0  0  0  0  0  0  0  0  0  0  0
  184.4410  178.5320  145.4870 C   0  0  0  0  0  3  0  0  0  0  0  0
  184.4240  179.0020  141.7760 C   0  0  2  0  0  3  0  0  0  0  0  0
  186.5690  177.7700  144.6710 C   0  0  0  0  0  3  0  0  0  0  0  0
  184.0790  178.8570  144.2170 N   0  0  0  0  0  0  0  0  0  0  0  0
  186.1870  178.1120  143.3690 C   0  0  0  0  0  0  0  0  0  0  0  0
  181.4980  177.3210  139.9820 N   0  0  0  0  0  2  0  0  0  0  0  0
  183.3720  178.0690  141.3960 N   0  0  0  0  0  2  0  0  0  0  0  0
  182.4860  178.3050  140.3010 C   0  0  0  0  0  0  0  0  0  0  0  0
  182.5700  179.3730  139.6350 O   0  0  0  0  0  0  0  0  0  0  0  0
  180.4950  176.5290  137.9120 C   0  0  0  0  0  0  0  0  0  0  0  0
  179.5840  178.5030  138.6640 C   0  0  0  0  0  2  0  0  0  0  0  0
  180.5660  177.4040  138.8980 C   0  0  0  0  0  0  0  0  0  0  0  0
  178.9650  178.1270  137.3990 N   0  0  0  0  0  0  0  0  0  0  0  0
  179.4790  177.0200  136.9880 C   0  0  0  0  0  0  0  0  0  0  0  0
  179.9680  175.8270  134.8750 C   0  0  0  0  0  1  0  0  0  0  0  0
  179.0670  176.4240  135.7930 O   0  0  0  0  0  0  0  0  0  0  0  0
  180.5750  174.0630  137.8670 C   0  0  0  0  0  1  0  0  0  0  0  0
  181.3850  175.3400  137.7470 C   0  0  0  0  0  2  0  0  0  0  0  0
  186.1590  177.6140  147.1240 C   0  0  0  0  0  2  0  0  0  0  0  0
  187.4990  178.1160  147.4000 N   0  0  0  0  0  0  0  0  0  0  0  0
  186.4180  180.0900  147.9940 O   0  0  0  0  0  1  0  0  0  0  0  0
  187.3630  179.1490  148.4120 C   0  0  0  0  0  2  0  0  0  0  0  0
  188.2270  177.0170  148.0100 C   0  0  0  0  0  2  0  0  0  0  0  0
  189.5590  176.8260  147.3130 C   0  0  0  0  0  2  0  0  0  0  0  0
  189.5270  177.4220  146.0520 O   0  0  0  0  0  0  0  0  0  0  0  0
  190.8900  176.7450  145.2160 P   0  0  1  0  0  0  0  0  0  0  0  0
  191.6160  178.2790  144.8470 O   0  0  0  0  0  1  0  0  0  0  0  0
  191.9000  176.4380  146.7450 C   0  0  0  0  0  1  0  0  0  0  0  0
  188.4680  177.3390  142.4370 C   0  0  0  0  0  2  0  0  0  0  0  0
  189.5220  178.2320  141.8170 C   0  0  0  0  0  2  0  0  0  0  0  0
  190.1990  177.5120  140.7070 C   0  0  0  0  0  3  0  0  0  0  0  0
  189.6680  176.3940  140.2330 C   0  0  0  0  0  3  0  0  0  0  0  0
  190.2970  175.7100  139.1530 N   0  0  0  0  0  2  0  0  0  0  0  0
  189.0980  174.9990  137.2780 O   0  0  0  0  0  0  0  0  0  0  0  0
  189.8360  176.5890  134.7320 C   0  0  0  0  0  2  0  0  0  0  0  0
  186.7970  174.9820  136.5040 C   0  0  2  0  0  3  0  0  0  0  0  0
  187.2470  175.2780  135.0760 C   0  0  0  0  0  2  0  0  0  0  0  0
  191.1510  176.1830  136.8980 C   0  0  0  0  0  0  0  0  0  0  0  0
  192.3020  175.9860  137.3770 O   0  0  0  0  0  0  0  0  0  0  0  0
  191.0460  176.6340  135.5400 N   0  0  0  0  0  2  0  0  0  0  0  0
  188.5700  177.7310  135.3780 S   0  0  0  0  0  0  0  0  0  0  0  0
  187.8000  175.4550  137.5520 C   0  0  0  0  0  2  0  0  0  0  0  0
  189.9320  176.0060  137.7730 C   0  0  2  0  0  3  0  0  0  0  0  0
  187.1690  176.7610  134.7160 C   0  0  0  0  0  2  0  0  0  0  0  0
  186.4710  173.2040  136.6910 P   0  0  0  0  0  0  0  0  0  0  0  0
  187.7630  172.4670  136.9610 O   0  0  0  0  0  1  0  0  0  0  0  0
  185.4030  172.9560  137.9790 O   0  0  0  0  0  1  0  0  0  0  0  0
  185.7760  172.6110  135.2690 O   0  0  0  0  0  0  0  0  0  0  0  0
  1 25  1  0  0  0  0
  2 35  1  0  0  0  0
  2 11  1  0  0  0  0
  3  2  2  0  0  0  0
  4  5  2  0  0  0  0
  5  3  1  0  0  0  0
  5  8  1  0  0  0  0
  6 11  2  0  0  0  0
  6 10  1  0  0  0  0
  7  1  1  0  0  0  0
  8 13  1  6  0  0  0
  8  6  1  0  0  0  0
  9  1  2  0  0  0  0
 10  7  2  0  0  0  0
 11  9  1  0  0  0  0
 12 14  1  0  0  0  0
 14 13  1  0  0  0  0
 15 14  2  0  0  0  0
 16 18  2  0  0  0  0
 17 18  1  0  0  0  0
 18 12  1  0  0  0  0
 19 17  1  0  0  0  0
 20 19  2  0  0  0  0
 20 16  1  0  0  0  0
 21 22  1  0  0  0  0
 22 20  1  0  0  0  0
 24 23  1  0  0  0  0
 24 16  1  0  0  0  0
 25 26  1  0  0  0  0
 26 29  1  0  0  0  0
 26 28  1  0  0  0  0
 27 28  1  0  0  0  0
 30 29  1  0  0  0  0
 31 30  1  0  0  0  0
 32 31  1  0  0  0  0
 32 34  1  1  0  0  0
 33 32  1  0  0  0  0
 36 35  1  0  0  0  0
 37 36  1  0  0  0  0
 38 37  2  0  0  0  0
 39 38  1  0  0  0  0
 40 48  1  0  0  0  0
 40 49  1  0  0  0  0
 41 47  1  0  0  0  0
 41 46  1  0  0  0  0
 42 51  1  6  0  0  0
 42 48  1  0  0  0  0
 43 42  1  0  0  0  0
 44 45  2  0  0  0  0
 44 49  1  0  0  0  0
 46 44  1  0  0  0  0
 49 39  1  1  0  0  0
 50 43  1  0  0  0  0
 50 47  1  0  0  0  0
 51 52  1  0  0  0  0
 51 53  1  0  0  0  0
 54 51  2  0  0  0  0
M  END
>  <MODEL>
7

>  <REMARK>
 VINA RESULT:      -6.1      3.198      9.297
  Name = 
  17 active torsions:
  status: ('A' for Active; 'I' for Inactive)
    1  A    between atoms: C_1  and  C_13
    2  A    between atoms: C_2  and  C_9
    3  A    between atoms: P_3  and  C_35
    4  A    between atoms: C_4  and  C_27
    5  A    between atoms: C_4  and  N_36
    6  A    between atoms: C_9  and  C_49
    7  A    between atoms: N_10  and  C_25
    8  A    between atoms: C_11  and  C_14
    9  A    between atoms: C_13  and  N_36
   10  A    between atoms: N_15  and  C_30
   11  A    between atoms: C_20  and  C_49
   12  A    between atoms: C_21  and  N_24
   13  A    between atoms: N_24  and  C_50
   14  A    between atoms: C_27  and  O_54
   15  A    between atoms: P_28  and  O_54
   16  A    between atoms: O_33  and  C_51
   17  A    between atoms: N_36  and  C_42
                            x       y       z     vdW  Elec       q    Type
                         _______ _______ _______ _____ _____    ______ ____

>  <TORSDO>
F 17

$$$$
=
 OpenBabel10222420023D

 54 57  0  0  1  0  0  0  0  0999 V2000
  188.7500  177.9090  142.1290 C   0  0  0  0  0  0  0  0  0  0  0  0
  190.2220  176.9200  138.7850 C   0  0  0  0  0  0  0  0  0  0  0  0
  189.9990  177.1310  137.5230 N   0  0  0  0  0  0  0  0  0  0  0  0
  188.7720  178.1230  135.8170 O   0  0  0  0  0  0  0  0  0  0  0  0
  188.8560  177.8480  137.0420 C   0  0  0  0  0  0  0  0  0  0  0  0
  188.1410  178.1480  139.4190 C   0  0  0  0  0  0  0  0  0  0  0  0
  187.6030  178.5840  141.6960 C   0  0  0  0  0  3  0  0  0  0  0  0
  187.7430  178.2530  137.9730 C   0  0  2  0  0  3  0  0  0  0  0  0
  189.6040  177.3600  141.1730 C   0  0  0  0  0  3  0  0  0  0  0  0
  187.3250  178.6820  140.3690 N   0  0  0  0  0  0  0  0  0  0  0  0
  189.3090  177.4710  139.8100 C   0  0  0  0  0  0  0  0  0  0  0  0
  184.1380  177.0290  137.6470 N   0  0  0  0  0  2  0  0  0  0  0  0
  186.5670  177.4270  137.7360 N   0  0  0  0  0  2  0  0  0  0  0  0
  185.2340  177.9020  137.9300 C   0  0  0  0  0  0  0  0  0  0  0  0
  185.0340  179.0720  138.3560 O   0  0  0  0  0  0  0  0  0  0  0  0
  182.0590  177.2960  138.8820 C   0  0  0  0  0  0  0  0  0  0  0  0
  181.8590  177.8070  136.6480 C   0  0  0  0  0  2  0  0  0  0  0  0
  182.7520  177.3750  137.7620 C   0  0  0  0  0  0  0  0  0  0  0  0
  180.5620  177.9440  137.3010 N   0  0  0  0  0  0  0  0  0  0  0  0
  180.6850  177.6590  138.5510 C   0  0  0  0  0  0  0  0  0  0  0  0
  178.9400  176.5500  139.9120 C   0  0  0  0  0  1  0  0  0  0  0  0
  179.5930  177.7090  139.4220 O   0  0  0  0  0  0  0  0  0  0  0  0
  182.9830  177.9870  141.0630 C   0  0  0  0  0  1  0  0  0  0  0  0
  182.5860  176.8100  140.1920 C   0  0  0  0  0  2  0  0  0  0  0  0
  189.1190  177.7910  143.5790 C   0  0  0  0  0  2  0  0  0  0  0  0
  190.4760  177.2900  143.7590 N   0  0  0  0  0  0  0  0  0  0  0  0
  192.1150  178.9070  144.1040 O   0  0  0  0  0  1  0  0  0  0  0  0
  191.3670  178.2470  143.1250 C   0  0  0  0  0  2  0  0  0  0  0  0
  190.7430  177.3410  145.1860 C   0  0  0  0  0  2  0  0  0  0  0  0
  189.4990  177.7810  145.9310 C   0  0  0  0  0  2  0  0  0  0  0  0
  189.6250  177.4810  147.2880 O   0  0  0  0  0  0  0  0  0  0  0  0
  188.1850  178.1280  148.0120 P   0  0  1  0  0  0  0  0  0  0  0  0
  187.2440  178.0660  146.5540 O   0  0  0  0  0  1  0  0  0  0  0  0
  187.5790  176.5030  148.6790 C   0  0  0  0  0  1  0  0  0  0  0  0
  191.4620  176.1890  139.1830 C   0  0  0  0  0  2  0  0  0  0  0  0
  192.6830  176.9650  138.7360 C   0  0  0  0  0  2  0  0  0  0  0  0
  193.4340  176.1770  137.7240 C   0  0  0  0  0  3  0  0  0  0  0  0
  194.4150  175.3750  138.1150 C   0  0  0  0  0  3  0  0  0  0  0  0
  195.1240  174.5980  137.1560 N   0  0  0  0  0  2  0  0  0  0  0  0
  193.3610  173.1180  136.7550 O   0  0  0  0  0  0  0  0  0  0  0  0
  194.2300  170.1590  136.9760 C   0  0  0  0  0  2  0  0  0  0  0  0
  191.9260  172.4750  134.9050 C   0  0  2  0  0  3  0  0  0  0  0  0
  191.9550  171.0170  135.3540 C   0  0  0  0  0  2  0  0  0  0  0  0
  195.2480  172.2870  137.9860 C   0  0  0  0  0  0  0  0  0  0  0  0
  195.8290  172.7650  138.9990 O   0  0  0  0  0  0  0  0  0  0  0  0
  195.1370  170.8620  137.8720 N   0  0  0  0  0  2  0  0  0  0  0  0
  194.6920  170.4230  135.2320 S   0  0  0  0  0  0  0  0  0  0  0  0
  193.1430  173.2660  135.3770 C   0  0  0  0  0  2  0  0  0  0  0  0
  194.7490  173.2120  136.8990 C   0  0  2  0  0  3  0  0  0  0  0  0
  192.9910  170.1780  134.6080 C   0  0  0  0  0  2  0  0  0  0  0  0
  190.3930  173.2660  135.4760 P   0  0  0  0  0  0  0  0  0  0  0  0
  189.1970  172.4450  135.0500 O   0  0  0  0  0  1  0  0  0  0  0  0
  190.4150  173.3930  137.1630 O   0  0  0  0  0  1  0  0  0  0  0  0
  190.2770  174.8120  134.8030 O   0  0  0  0  0  0  0  0  0  0  0  0
  1 25  1  0  0  0  0
  2 35  1  0  0  0  0
  2 11  1  0  0  0  0
  3  2  2  0  0  0  0
  4  5  2  0  0  0  0
  5  3  1  0  0  0  0
  5  8  1  0  0  0  0
  6 11  2  0  0  0  0
  6 10  1  0  0  0  0
  7  1  1  0  0  0  0
  8 13  1  1  0  0  0
  8  6  1  0  0  0  0
  9  1  2  0  0  0  0
 10  7  2  0  0  0  0
 11  9  1  0  0  0  0
 12 18  1  0  0  0  0
 12 14  1  0  0  0  0
 13 14  1  0  0  0  0
 14 15  2  0  0  0  0
 16 24  1  0  0  0  0
 17 19  1  0  0  0  0
 17 18  1  0  0  0  0
 18 16  2  0  0  0  0
 19 20  2  0  0  0  0
 20 16  1  0  0  0  0
 20 22  1  0  0  0  0
 22 21  1  0  0  0  0
 24 23  1  0  0  0  0
 25 26  1  0  0  0  0
 26 29  1  0  0  0  0
 28 26  1  0  0  0  0
 28 27  1  0  0  0  0
 29 30  1  0  0  0  0
 30 31  1  0  0  0  0
 31 32  1  0  0  0  0
 32 34  1  1  0  0  0
 33 32  1  0  0  0  0
 36 35  1  0  0  0  0
 37 38  2  0  0  0  0
 37 36  1  0  0  0  0
 39 38  1  0  0  0  0
 40 49  1  0  0  0  0
 41 46  1  0  0  0  0
 42 43  1  0  0  0  0
 42 48  1  0  0  0  0
 42 51  1  1  0  0  0
 44 45  2  0  0  0  0
 46 44  1  0  0  0  0
 47 41  1  0  0  0  0
 48 40  1  0  0  0  0
 49 39  1  1  0  0  0
 49 44  1  0  0  0  0
 50 47  1  0  0  0  0
 50 43  1  0  0  0  0
 51 53  1  0  0  0  0
 52 51  1  0  0  0  0
 54 51  2  0  0  0  0
M  END
>  <MODEL>
8

>  <REMARK>
 VINA RESULT:      -5.9      3.595     10.339
  Name = 
  17 active torsions:
  status: ('A' for Active; 'I' for Inactive)
    1  A    between atoms: C_1  and  C_13
    2  A    between atoms: C_2  and  C_9
    3  A    between atoms: P_3  and  C_35
    4  A    between atoms: C_4  and  C_27
    5  A    between atoms: C_4  and  N_36
    6  A    between atoms: C_9  and  C_49
    7  A    between atoms: N_10  and  C_25
    8  A    between atoms: C_11  and  C_14
    9  A    between atoms: C_13  and  N_36
   10  A    between atoms: N_15  and  C_30
   11  A    between atoms: C_20  and  C_49
   12  A    between atoms: C_21  and  N_24
   13  A    between atoms: N_24  and  C_50
   14  A    between atoms: C_27  and  O_54
   15  A    between atoms: P_28  and  O_54
   16  A    between atoms: O_33  and  C_51
   17  A    between atoms: N_36  and  C_42
                            x       y       z     vdW  Elec       q    Type
                         _______ _______ _______ _____ _____    ______ ____

>  <TORSDO>
F 17

$$$$
=
 OpenBabel10222420023D

 54 57  0  0  1  0  0  0  0  0999 V2000
  183.3220  176.5540  135.7790 C   0  0  0  0  0  0  0  0  0  0  0  0
  185.2800  178.2570  138.5350 C   0  0  0  0  0  0  0  0  0  0  0  0
  186.5070  178.5980  138.7900 N   0  0  0  0  0  0  0  0  0  0  0  0
  188.7500  178.7020  138.1900 O   0  0  0  0  0  0  0  0  0  0  0  0
  187.6080  178.2310  137.9500 C   0  0  0  0  0  0  0  0  0  0  0  0
  185.9780  177.0680  136.4520 C   0  0  0  0  0  0  0  0  0  0  0  0
  184.3760  176.1480  134.9530 C   0  0  0  0  0  3  0  0  0  0  0  0
  187.4260  177.2730  136.8020 C   0  0  2  0  0  3  0  0  0  0  0  0
  183.6220  177.2410  136.9550 C   0  0  0  0  0  3  0  0  0  0  0  0
  185.6630  176.4050  135.3060 N   0  0  0  0  0  0  0  0  0  0  0  0
  184.9500  177.5030  137.3060 C   0  0  0  0  0  0  0  0  0  0  0  0
  189.8150  174.2950  136.9760 N   0  0  0  0  0  2  0  0  0  0  0  0
  188.0310  175.9870  137.1230 N   0  0  0  0  0  2  0  0  0  0  0  0
  189.2840  175.5630  136.5850 C   0  0  0  0  0  0  0  0  0  0  0  0
  189.9030  176.2960  135.7670 O   0  0  0  0  0  0  0  0  0  0  0  0
  192.2420  174.1420  137.0070 C   0  0  0  0  0  0  0  0  0  0  0  0
  191.2640  172.7280  135.4800 C   0  0  0  0  0  2  0  0  0  0  0  0
  191.0690  173.7530  136.5460 C   0  0  0  0  0  0  0  0  0  0  0  0
  192.7160  172.6110  135.3980 N   0  0  0  0  0  0  0  0  0  0  0  0
  193.2540  173.4040  136.2580 C   0  0  0  0  0  0  0  0  0  0  0  0
  195.5410  173.3360  135.3150 C   0  0  0  0  0  1  0  0  0  0  0  0
  194.6410  173.4950  136.3990 O   0  0  0  0  0  0  0  0  0  0  0  0
  193.2120  176.3800  137.3890 C   0  0  0  0  0  1  0  0  0  0  0  0
  192.4580  175.2220  138.0170 C   0  0  0  0  0  2  0  0  0  0  0  0
  181.8820  176.3190  135.4280 C   0  0  0  0  0  2  0  0  0  0  0  0
  181.2980  175.2360  136.2100 N   0  0  0  0  0  0  0  0  0  0  0  0
  179.0580  175.5510  136.7590 O   0  0  0  0  0  1  0  0  0  0  0  0
  180.3680  175.8460  137.1460 C   0  0  0  0  0  2  0  0  0  0  0  0
  180.5100  174.4440  135.2830 C   0  0  0  0  0  2  0  0  0  0  0  0
  181.0610  173.0350  135.2040 C   0  0  0  0  0  2  0  0  0  0  0  0
  181.8320  172.7610  136.3350 O   0  0  0  0  0  0  0  0  0  0  0  0
  183.3560  172.2210  135.7030 P   0  0  1  0  0  0  0  0  0  0  0  0
  184.1830  172.2880  137.2290 O   0  0  0  0  0  1  0  0  0  0  0  0
  182.9570  170.4090  135.8020 C   0  0  0  0  0  1  0  0  0  0  0  0
  184.2010  178.7190  139.4580 C   0  0  0  0  0  2  0  0  0  0  0  0
  184.8120  179.3470  140.6930 C   0  0  0  0  0  2  0  0  0  0  0  0
  185.3330  178.2830  141.5900 C   0  0  0  0  0  3  0  0  0  0  0  0
  186.5410  178.4080  142.1200 C   0  0  0  0  0  3  0  0  0  0  0  0
  187.0390  177.4060  143.0010 N   0  0  0  0  0  2  0  0  0  0  0  0
  188.5010  177.9060  144.7540 O   0  0  0  0  0  0  0  0  0  0  0  0
  191.4590  177.9230  143.8570 C   0  0  0  0  0  2  0  0  0  0  0  0
  189.2240  176.9070  146.8450 C   0  0  2  0  0  3  0  0  0  0  0  0
  190.6510  177.3940  146.6150 C   0  0  0  0  0  2  0  0  0  0  0  0
  189.2960  178.2500  142.5150 C   0  0  0  0  0  0  0  0  0  0  0  0
  188.7700  178.8770  141.5550 O   0  0  0  0  0  0  0  0  0  0  0  0
  190.7230  178.2890  142.6550 N   0  0  0  0  0  2  0  0  0  0  0  0
  191.3150  176.1380  144.1980 S   0  0  0  0  0  0  0  0  0  0  0  0
  188.4330  176.7520  145.5490 C   0  0  0  0  0  2  0  0  0  0  0  0
  188.4290  177.4290  143.4410 C   0  0  2  0  0  3  0  0  0  0  0  0
  191.5580  176.3290  146.0000 C   0  0  0  0  0  2  0  0  0  0  0  0
  188.3640  178.0330  147.9830 P   0  0  0  0  0  0  0  0  0  0  0  0
  189.3560  178.9740  148.6280 O   0  0  0  0  0  1  0  0  0  0  0  0
  187.2120  178.9300  147.1310 O   0  0  0  0  0  0  0  0  0  0  0  0
  187.5900  177.1290  149.1840 O   0  0  0  0  0  1  0  0  0  0  0  0
  1  9  1  0  0  0  0
  2  3  2  0  0  0  0
  2 35  1  0  0  0  0
  5  4  2  0  0  0  0
  5  3  1  0  0  0  0
  6  8  1  0  0  0  0
  6 11  1  0  0  0  0
  7 10  1  0  0  0  0
  7  1  2  0  0  0  0
  8 13  1  1  0  0  0
  8  5  1  0  0  0  0
  9 11  2  0  0  0  0
 10  6  2  0  0  0  0
 11  2  1  0  0  0  0
 14 12  1  0  0  0  0
 14 13  1  0  0  0  0
 15 14  2  0  0  0  0
 16 24  1  0  0  0  0
 17 18  1  0  0  0  0
 18 12  1  0  0  0  0
 18 16  2  0  0  0  0
 19 17  1  0  0  0  0
 19 20  2  0  0  0  0
 20 22  1  0  0  0  0
 20 16  1  0  0  0  0
 21 22  1  0  0  0  0
 23 24  1  0  0  0  0
 25  1  1  0  0  0  0
 25 26  1  0  0  0  0
 26 28  1  0  0  0  0
 27 28  1  0  0  0  0
 29 26  1  0  0  0  0
 30 29  1  0  0  0  0
 30 31  1  0  0  0  0
 32 34  1  1  0  0  0
 32 31  1  0  0  0  0
 32 33  1  0  0  0  0
 35 36  1  0  0  0  0
 36 37  1  0  0  0  0
 37 38  2  0  0  0  0
 38 39  1  0  0  0  0
 40 48  1  0  0  0  0
 41 47  1  0  0  0  0
 42 51  1  1  0  0  0
 43 42  1  0  0  0  0
 44 46  1  0  0  0  0
 44 49  1  0  0  0  0
 45 44  2  0  0  0  0
 46 41  1  0  0  0  0
 47 50  1  0  0  0  0
 48 42  1  0  0  0  0
 49 39  1  6  0  0  0
 49 40  1  0  0  0  0
 50 43  1  0  0  0  0
 51 52  1  0  0  0  0
 51 54  1  0  0  0  0
 53 51  2  0  0  0  0
M  END
>  <MODEL>
9

>  <REMARK>
 VINA RESULT:      -5.6      3.424      9.552
  Name = 
  17 active torsions:
  status: ('A' for Active; 'I' for Inactive)
    1  A    between atoms: C_1  and  C_13
    2  A    between atoms: C_2  and  C_9
    3  A    between atoms: P_3  and  C_35
    4  A    between atoms: C_4  and  C_27
    5  A    between atoms: C_4  and  N_36
    6  A    between atoms: C_9  and  C_49
    7  A    between atoms: N_10  and  C_25
    8  A    between atoms: C_11  and  C_14
    9  A    between atoms: C_13  and  N_36
   10  A    between atoms: N_15  and  C_30
   11  A    between atoms: C_20  and  C_49
   12  A    between atoms: C_21  and  N_24
   13  A    between atoms: N_24  and  C_50
   14  A    between atoms: C_27  and  O_54
   15  A    between atoms: P_28  and  O_54
   16  A    between atoms: O_33  and  C_51
   17  A    between atoms: N_36  and  C_42
                            x       y       z     vdW  Elec       q    Type
                         _______ _______ _______ _____ _____    ______ ____

>  <TORSDO>
F 17

$$$$
