=
 OpenBabel10222418023D

 58 66  0  0  1  0  0  0  0  0999 V2000
  181.6450  176.0080  137.7220 C   0  0  1  0  0  3  0  0  0  0  0  0
  185.7090  174.6980  136.3510 C   0  0  1  0  0  3  0  0  0  0  0  0
  186.7330  174.8480  137.4930 C   0  0  1  0  0  3  0  0  0  0  0  0
  187.6260  173.6310  137.5310 C   0  0  0  0  0  3  0  0  0  0  0  0
  187.1050  172.4250  137.2640 C   0  0  0  0  0  3  0  0  0  0  0  0
  185.7200  172.3100  136.8850 N   0  0  0  0  0  0  0  0  0  0  0  0
  180.6860  175.2470  138.5970 C   0  0  0  0  0  0  0  0  0  0  0  0
  178.9310  175.9040  136.9470 C   0  0  0  0  0  2  0  0  0  0  0  0
  179.5060  177.3140  137.0480 C   0  0  0  0  0  2  0  0  0  0  0  0
  181.5600  178.5380  137.9810 C   0  0  2  0  0  3  0  0  0  0  0  0
  181.0950  174.6860  139.6000 O   0  0  0  0  0  0  0  0  0  0  0  0
  179.2320  175.1330  138.2280 C   0  0  0  0  0  2  0  0  0  0  0  0
  185.0780  173.3560  136.4530 C   0  0  0  0  0  0  0  0  0  0  0  0
  183.8410  178.6420  136.7600 C   0  0  0  0  0  2  0  0  0  0  0  0
  184.6160  176.8370  135.7070 C   0  0  0  0  0  2  0  0  0  0  0  0
  183.6700  173.4470  136.4630 N   0  0  0  0  0  0  0  0  0  0  0  0
  183.1070  178.5070  138.0970 C   0  0  1  0  0  3  0  0  0  0  0  0
  183.4080  174.7130  136.4710 C   0  0  0  0  0  0  0  0  0  0  0  0
  183.4670  177.6040  135.8980 O   0  0  0  0  0  0  0  0  0  0  0  0
  182.0630  175.1700  136.6050 N   0  0  0  0  0  2  0  0  0  0  0  0
  181.0400  177.3220  137.1910 C   0  0  1  0  0  3  0  0  0  0  0  0
  184.5590  175.5840  136.4590 N   0  0  0  0  0  0  0  0  0  0  0  0
  189.0170  176.7100  135.5080 C   0  0  2  0  0  3  0  0  0  0  0  0
  187.5680  176.1310  137.4350 C   0  0  2  0  0  3  0  0  0  0  0  0
  188.8400  177.8930  138.8720 C   0  0  0  0  0  2  0  0  0  0  0  0
  188.9200  175.8510  136.7720 C   0  0  2  0  0  3  0  0  0  0  0  0
  190.0830  176.1870  134.5940 C   0  0  0  0  0  2  0  0  0  0  0  0
  187.6850  176.8810  138.7890 C   0  0  1  0  0  3  0  0  0  0  0  0
  191.1740  176.8550  136.5790 O   0  0  0  0  0  0  0  0  0  0  0  0
  189.8000  177.0910  136.7320 C   0  0  1  0  0  0  0  0  0  0  0  0
  189.3400  178.3240  137.4990 C   0  0  0  0  0  2  0  0  0  0  0  0
  191.3710  176.6950  135.1990 C   0  0  0  0  0  2  0  0  0  0  0  0
  186.3610  177.5160  139.2120 C   0  0  0  0  0  2  0  0  0  0  0  0
  186.5220  178.3970  140.4410 C   0  0  0  0  0  2  0  0  0  0  0  0
  188.8430  179.3060  141.7840 O   0  0  0  0  0  0  0  0  0  0  0  0
  186.7740  177.5620  141.6070 N   0  0  0  0  0  0  0  0  0  0  0  0
  188.3250  177.9790  142.3010 P   0  0  1  0  0  0  0  0  0  0  0  0
  185.7170  179.2020  143.2050 C   0  0  0  0  0  2  0  0  0  0  0  0
  189.4630  176.7510  142.0500 O   0  0  0  0  0  1  0  0  0  0  0  0
  186.3080  178.0660  144.0240 C   0  0  1  0  0  3  0  0  0  0  0  0
  185.7240  177.7860  142.6250 C   0  0  2  0  0  3  0  0  0  0  0  0
  187.8390  178.1240  144.0140 C   0  0  1  0  0  3  0  0  0  0  0  0
  188.3630  176.9850  144.7510 N   0  0  0  0  0  2  0  0  0  0  0  0
  188.8970  176.7940  147.1050 C   0  0  0  0  0  1  0  0  0  0  0  0
  189.2360  177.4900  145.7990 C   0  0  1  0  0  3  0  0  0  0  0  0
  191.0710  175.8970  144.5490 O   0  0  0  0  0  1  0  0  0  0  0  0
  191.8920  176.9860  146.7780 O   0  0  0  0  0  1  0  0  0  0  0  0
  190.9740  177.1640  145.3670 P   0  0  0  0  0  0  0  0  0  0  0  0
  191.5900  178.4540  144.4630 O   0  0  0  0  0  0  0  0  0  0  0  0
  183.6190  179.4910  139.0940 C   0  0  0  0  0  0  0  0  0  0  0  0
  183.3360  179.3410  140.4420 O   0  0  0  0  0  1  0  0  0  0  0  0
  184.3500  180.4440  138.7180 O   0  0  0  0  0  0  0  0  0  0  0  0
  181.0670  179.8610  137.3730 C   0  0  0  0  0  2  0  0  0  0  0  0
  180.2530  180.7140  138.3530 C   0  0  2  0  0  3  0  0  0  0  0  0
  180.8860  182.0670  138.6120 C   0  0  0  0  0  1  0  0  0  0  0  0
  179.9930  180.0000  139.6710 C   0  0  0  0  0  2  0  0  0  0  0  0
  179.9970  180.9610  140.7650 N   0  0  0  0  0  2  0  0  0  0  0  0
  179.8270  180.2070  142.0000 C   0  0  0  0  0  1  0  0  0  0  0  0
  1 20  1  6  0  0  0
  1  7  1  0  0  0  0
  2 13  1  1  0  0  0
  2 22  1  0  0  0  0
  2  3  1  0  0  0  0
  3  4  1  6  0  0  0
  5  4  2  0  0  0  0
  6  5  1  0  0  0  0
  7 11  2  0  0  0  0
  8  9  1  0  0  0  0
  8 12  1  0  0  0  0
 10 53  1  6  0  0  0
 10 17  1  0  0  0  0
 12  7  1  0  0  0  0
 13 16  1  0  0  0  0
 13  6  2  0  0  0  0
 14 17  1  0  0  0  0
 15 19  1  0  0  0  0
 15 22  1  0  0  0  0
 16 18  2  0  0  0  0
 17 50  1  1  0  0  0
 18 20  1  0  0  0  0
 19 14  1  0  0  0  0
 21  9  1  1  0  0  0
 21  1  1  0  0  0  0
 21 10  1  0  0  0  0
 22 18  1  0  0  0  0
 23 27  1  6  0  0  0
 23 30  1  0  0  0  0
 23 26  1  0  0  0  0
 24  3  1  1  0  0  0
 24 28  1  0  0  0  0
 26 24  1  0  0  0  0
 27 32  1  0  0  0  0
 28 25  1  0  0  0  0
 28 33  1  0  0  0  0
 29 30  1  0  0  0  0
 30 26  1  0  0  0  0
 30 31  1  0  0  0  0
 31 25  1  0  0  0  0
 32 29  1  0  0  0  0
 33 34  1  0  0  0  0
 34 36  1  0  0  0  0
 35 37  2  0  0  0  0
 36 37  1  0  0  0  0
 36 41  1  0  0  0  0
 37 42  1  0  0  0  0
 38 40  1  0  0  0  0
 39 37  1  0  0  0  0
 41 38  1  0  0  0  0
 41 40  1  0  0  0  0
 42 40  1  0  0  0  0
 42 43  1  0  0  0  0
 43 45  1  0  0  0  0
 45 44  1  0  0  0  0
 46 48  1  0  0  0  0
 48 45  1  0  0  0  0
 48 47  1  0  0  0  0
 49 48  2  0  0  0  0
 50 51  1  0  0  0  0
 52 50  2  0  0  0  0
 53 54  1  0  0  0  0
 54 55  1  0  0  0  0
 54 56  1  0  0  0  0
 56 57  1  0  0  0  0
 57 58  1  0  0  0  0
M  END
>  <MODEL>
1

>  <REMARK>
 VINA RESULT:      -4.5      0.000      0.000
  Name = 
  12 active torsions:
  status: ('A' for Active; 'I' for Inactive)
    1  A    between atoms: C_4  and  C_17
    2  A    between atoms: C_4  and  C_35
    3  A    between atoms: N_6  and  C_29
    4  A    between atoms: N_7  and  C_17
    5  A    between atoms: C_10  and  C_12
    6  A    between atoms: C_16  and  C_44
    7  A    between atoms: C_22  and  C_42
    8  A    between atoms: C_28  and  N_32
    9  A    between atoms: C_28  and  P_34
   10  A    between atoms: C_29  and  C_42
   11  A    between atoms: C_30  and  C_35
   12  A    between atoms: N_32  and  C_53
                            x       y       z     vdW  Elec       q    Type
                         _______ _______ _______ _____ _____    ______ ____

>  <TORSDO>
F 12

$$$$
=
 OpenBabel10222418023D

 58 66  0  0  1  0  0  0  0  0999 V2000
  181.8120  176.0600  137.8520 C   0  0  1  0  0  3  0  0  0  0  0  0
  185.8380  174.7100  136.4100 C   0  0  1  0  0  3  0  0  0  0  0  0
  186.8810  174.8370  137.5380 C   0  0  1  0  0  3  0  0  0  0  0  0
  187.7590  173.6080  137.5530 C   0  0  0  0  0  3  0  0  0  0  0  0
  187.2180  172.4110  137.2830 C   0  0  0  0  0  3  0  0  0  0  0  0
  185.8260  172.3170  136.9240 N   0  0  0  0  0  0  0  0  0  0  0  0
  180.8570  175.3040  138.7340 C   0  0  0  0  0  0  0  0  0  0  0  0
  179.0860  175.9970  137.1150 C   0  0  0  0  0  2  0  0  0  0  0  0
  179.6810  177.3990  137.2200 C   0  0  0  0  0  2  0  0  0  0  0  0
  181.7640  178.5880  138.1330 C   0  0  2  0  0  3  0  0  0  0  0  0
  181.2720  174.7300  139.7260 O   0  0  0  0  0  0  0  0  0  0  0  0
  179.3960  175.2120  138.3850 C   0  0  0  0  0  2  0  0  0  0  0  0
  185.1920  173.3750  136.5100 C   0  0  0  0  0  0  0  0  0  0  0  0
  184.0280  178.6740  136.8800 C   0  0  0  0  0  2  0  0  0  0  0  0
  184.7640  176.8690  135.8000 C   0  0  0  0  0  2  0  0  0  0  0  0
  183.7850  173.4850  136.5410 N   0  0  0  0  0  0  0  0  0  0  0  0
  183.3110  178.5370  138.2260 C   0  0  1  0  0  3  0  0  0  0  0  0
  183.5400  174.7530  136.5640 C   0  0  0  0  0  0  0  0  0  0  0  0
  183.6290  177.6480  136.0140 O   0  0  0  0  0  0  0  0  0  0  0  0
  182.2020  175.2270  136.7210 N   0  0  0  0  0  2  0  0  0  0  0  0
  181.2170  177.3860  137.3410 C   0  0  1  0  0  3  0  0  0  0  0  0
  184.7020  175.6100  136.5420 N   0  0  0  0  0  0  0  0  0  0  0  0
  189.1530  176.6910  135.5330 C   0  0  2  0  0  3  0  0  0  0  0  0
  187.7320  176.1100  137.4790 C   0  0  2  0  0  3  0  0  0  0  0  0
  189.0520  177.8390  138.9120 C   0  0  0  0  0  2  0  0  0  0  0  0
  189.0670  175.8190  136.7890 C   0  0  2  0  0  3  0  0  0  0  0  0
  190.1960  176.1630  134.5940 C   0  0  0  0  0  2  0  0  0  0  0  0
  187.8820  176.8430  138.8380 C   0  0  1  0  0  3  0  0  0  0  0  0
  191.3310  176.7950  136.5650 O   0  0  0  0  0  0  0  0  0  0  0  0
  189.9630  177.0480  136.7460 C   0  0  1  0  0  0  0  0  0  0  0  0
  189.5330  178.2780  137.5340 C   0  0  0  0  0  2  0  0  0  0  0  0
  191.5010  176.6480  135.1810 C   0  0  0  0  0  2  0  0  0  0  0  0
  186.5750  177.4910  139.2920 C   0  0  0  0  0  2  0  0  0  0  0  0
  186.7730  178.3710  140.5160 C   0  0  0  0  0  2  0  0  0  0  0  0
  189.0360  178.9480  142.1170 O   0  0  0  0  0  0  0  0  0  0  0  0
  186.7500  177.5450  141.7160 N   0  0  0  0  0  0  0  0  0  0  0  0
  188.2550  177.7370  142.5860 P   0  0  1  0  0  0  0  0  0  0  0  0
  185.7880  179.3830  143.1510 C   0  0  0  0  0  2  0  0  0  0  0  0
  189.2030  176.3380  142.4930 O   0  0  0  0  0  1  0  0  0  0  0  0
  186.0900  178.1970  144.0510 C   0  0  1  0  0  3  0  0  0  0  0  0
  185.6370  177.9660  142.5960 C   0  0  2  0  0  3  0  0  0  0  0  0
  187.6010  178.0130  144.2250 C   0  0  1  0  0  3  0  0  0  0  0  0
  187.8460  176.8310  145.0370 N   0  0  0  0  0  2  0  0  0  0  0  0
  189.7320  178.2990  145.4250 C   0  0  0  0  0  1  0  0  0  0  0  0
  188.9170  177.1410  145.9710 C   0  0  1  0  0  3  0  0  0  0  0  0
  188.0030  176.3570  148.4250 O   0  0  0  0  0  1  0  0  0  0  0  0
  186.7310  178.3800  147.3680 O   0  0  0  0  0  0  0  0  0  0  0  0
  188.2160  177.5970  147.5870 P   0  0  0  0  0  0  0  0  0  0  0  0
  189.2770  178.6360  148.3980 O   0  0  0  0  0  1  0  0  0  0  0  0
  183.8510  179.5060  139.2240 C   0  0  0  0  0  0  0  0  0  0  0  0
  183.6760  179.2900  140.5810 O   0  0  0  0  0  1  0  0  0  0  0  0
  184.5080  180.5060  138.8360 O   0  0  0  0  0  0  0  0  0  0  0  0
  181.2790  179.9230  137.5430 C   0  0  0  0  0  2  0  0  0  0  0  0
  180.7430  180.8950  138.6010 C   0  0  2  0  0  3  0  0  0  0  0  0
  180.1750  180.1820  139.8130 C   0  0  0  0  0  1  0  0  0  0  0  0
  179.7150  181.8630  138.0370 C   0  0  0  0  0  2  0  0  0  0  0  0
  180.3750  183.0760  137.5770 N   0  0  0  0  0  2  0  0  0  0  0  0
  179.4090  183.8120  136.7720 C   0  0  0  0  0  1  0  0  0  0  0  0
  1 20  1  6  0  0  0
  1  7  1  0  0  0  0
  2 13  1  1  0  0  0
  2 22  1  0  0  0  0
  2  3  1  0  0  0  0
  3  4  1  6  0  0  0
  5  4  2  0  0  0  0
  6  5  1  0  0  0  0
  7 11  2  0  0  0  0
  8  9  1  0  0  0  0
  8 12  1  0  0  0  0
 10 53  1  6  0  0  0
 10 17  1  0  0  0  0
 12  7  1  0  0  0  0
 13 16  1  0  0  0  0
 13  6  2  0  0  0  0
 14 17  1  0  0  0  0
 15 19  1  0  0  0  0
 15 22  1  0  0  0  0
 16 18  2  0  0  0  0
 17 50  1  1  0  0  0
 18 20  1  0  0  0  0
 19 14  1  0  0  0  0
 21  9  1  1  0  0  0
 21  1  1  0  0  0  0
 21 10  1  0  0  0  0
 22 18  1  0  0  0  0
 23 27  1  6  0  0  0
 23 30  1  0  0  0  0
 23 26  1  0  0  0  0
 24  3  1  1  0  0  0
 24 28  1  0  0  0  0
 26 24  1  0  0  0  0
 27 32  1  0  0  0  0
 28 25  1  0  0  0  0
 28 33  1  0  0  0  0
 29 30  1  0  0  0  0
 30 26  1  0  0  0  0
 30 31  1  0  0  0  0
 31 25  1  0  0  0  0
 32 29  1  0  0  0  0
 33 34  1  0  0  0  0
 34 36  1  0  0  0  0
 35 37  2  0  0  0  0
 36 37  1  0  0  0  0
 36 41  1  0  0  0  0
 37 42  1  0  0  0  0
 38 40  1  0  0  0  0
 39 37  1  0  0  0  0
 40 42  1  0  0  0  0
 41 38  1  0  0  0  0
 41 40  1  0  0  0  0
 42 43  1  0  0  0  0
 43 45  1  0  0  0  0
 44 45  1  0  0  0  0
 45 48  1  0  0  0  0
 47 48  2  0  0  0  0
 48 49  1  0  0  0  0
 48 46  1  0  0  0  0
 50 51  1  0  0  0  0
 52 50  2  0  0  0  0
 53 54  1  0  0  0  0
 54 55  1  0  0  0  0
 56 54  1  0  0  0  0
 57 56  1  0  0  0  0
 58 57  1  0  0  0  0
M  END
>  <MODEL>
2

>  <REMARK>
 VINA RESULT:      -4.0      1.326      1.680
  Name = 
  12 active torsions:
  status: ('A' for Active; 'I' for Inactive)
    1  A    between atoms: C_4  and  C_17
    2  A    between atoms: C_4  and  C_35
    3  A    between atoms: N_6  and  C_29
    4  A    between atoms: N_7  and  C_17
    5  A    between atoms: C_10  and  C_12
    6  A    between atoms: C_16  and  C_44
    7  A    between atoms: C_22  and  C_42
    8  A    between atoms: C_28  and  N_32
    9  A    between atoms: C_28  and  P_34
   10  A    between atoms: C_29  and  C_42
   11  A    between atoms: C_30  and  C_35
   12  A    between atoms: N_32  and  C_53
                            x       y       z     vdW  Elec       q    Type
                         _______ _______ _______ _____ _____    ______ ____

>  <TORSDO>
F 12

$$$$
=
 OpenBabel10222418023D

 58 66  0  0  1  0  0  0  0  0999 V2000
  186.6900  177.9750  141.4680 C   0  0  1  0  0  3  0  0  0  0  0  0
  182.3580  179.1310  141.5630 C   0  0  1  0  0  3  0  0  0  0  0  0
  181.4760  177.9360  141.1520 C   0  0  1  0  0  3  0  0  0  0  0  0
  180.2800  177.8540  142.0700 C   0  0  0  0  0  3  0  0  0  0  0  0
  180.4270  178.1510  143.3690 C   0  0  0  0  0  3  0  0  0  0  0  0
  181.7040  178.6030  143.8610 N   0  0  0  0  0  0  0  0  0  0  0  0
  187.4390  177.1530  142.4820 C   0  0  0  0  0  0  0  0  0  0  0  0
  189.2230  178.8930  142.3160 C   0  0  0  0  0  2  0  0  0  0  0  0
  189.0720  178.7590  140.8030 C   0  0  0  0  0  2  0  0  0  0  0  0
  187.4940  177.7150  139.0690 C   0  0  2  0  0  3  0  0  0  0  0  0
  186.9400  176.1320  142.9230 O   0  0  0  0  0  0  0  0  0  0  0  0
  188.7820  177.6000  142.9930 C   0  0  0  0  0  2  0  0  0  0  0  0
  182.5910  179.0660  143.0300 C   0  0  0  0  0  0  0  0  0  0  0  0
  185.2760  178.8130  138.3080 C   0  0  0  0  0  2  0  0  0  0  0  0
  183.9740  179.8280  139.8050 C   0  0  0  0  0  2  0  0  0  0  0  0
  183.9670  179.1300  143.3370 N   0  0  0  0  0  0  0  0  0  0  0  0
  186.0100  177.5180  138.6660 C   0  0  1  0  0  3  0  0  0  0  0  0
  184.5730  179.1340  142.1960 C   0  0  0  0  0  0  0  0  0  0  0  0
  185.3000  179.6960  139.3950 O   0  0  0  0  0  0  0  0  0  0  0  0
  185.9980  179.0700  142.1360 N   0  0  0  0  0  2  0  0  0  0  0  0
  187.6120  178.5340  140.3680 C   0  0  1  0  0  3  0  0  0  0  0  0
  183.7150  179.0820  141.0370 N   0  0  0  0  0  0  0  0  0  0  0  0
  181.3540  179.9020  138.1940 C   0  0  2  0  0  3  0  0  0  0  0  0
  181.0330  177.9470  139.6850 C   0  0  2  0  0  3  0  0  0  0  0  0
  179.2980  176.9900  137.9930 C   0  0  0  0  0  2  0  0  0  0  0  0
  180.4800  179.3250  139.3120 C   0  0  2  0  0  3  0  0  0  0  0  0
  181.1570  181.3830  138.0800 C   0  0  0  0  0  2  0  0  0  0  0  0
  180.0960  176.7740  139.2900 C   0  0  1  0  0  3  0  0  0  0  0  0
  179.0750  180.3900  137.5750 O   0  0  0  0  0  0  0  0  0  0  0  0
  179.9880  179.3690  137.8730 C   0  0  1  0  0  0  0  0  0  0  0  0
  179.9150  178.0590  137.0980 C   0  0  0  0  0  2  0  0  0  0  0  0
  179.8590  181.5250  137.3190 C   0  0  0  0  0  2  0  0  0  0  0  0
  180.8250  175.4320  139.2750 C   0  0  0  0  0  2  0  0  0  0  0  0
  180.2870  174.5060  138.1970 C   0  0  0  0  0  2  0  0  0  0  0  0
  179.6390  173.6210  135.5870 O   0  0  0  0  0  0  0  0  0  0  0  0
  181.3730  173.6910  137.6710 N   0  0  0  0  0  0  0  0  0  0  0  0
  180.8770  172.9610  136.1600 P   0  0  1  0  0  0  0  0  0  0  0  0
  182.3570  175.5870  136.3300 C   0  0  0  0  0  2  0  0  0  0  0  0
  180.6450  171.2930  136.3290 O   0  0  0  0  0  1  0  0  0  0  0  0
  183.1460  174.3290  136.0090 C   0  0  1  0  0  3  0  0  0  0  0  0
  182.5630  174.5340  137.4210 C   0  0  2  0  0  3  0  0  0  0  0  0
  182.3100  173.3570  135.1700 C   0  0  1  0  0  3  0  0  0  0  0  0
  183.0780  172.1430  134.9430 N   0  0  0  0  0  2  0  0  0  0  0  0
  183.6920  170.6380  136.7380 C   0  0  0  0  0  1  0  0  0  0  0  0
  183.9850  171.9670  136.0670 C   0  0  1  0  0  3  0  0  0  0  0  0
  185.9360  173.1910  134.5940 O   0  0  0  0  0  0  0  0  0  0  0  0
  186.0280  170.5800  134.5940 O   0  0  0  0  0  1  0  0  0  0  0  0
  185.7080  171.9870  135.4780 P   0  0  0  0  0  0  0  0  0  0  0  0
  186.7620  172.0630  136.7990 O   0  0  0  0  0  1  0  0  0  0  0  0
  185.8450  176.4920  137.5950 C   0  0  0  0  0  0  0  0  0  0  0  0
  186.1620  175.1650  137.8360 O   0  0  0  0  0  1  0  0  0  0  0  0
  185.3740  176.8230  136.4760 O   0  0  0  0  0  0  0  0  0  0  0  0
  188.3080  178.3450  137.9270 C   0  0  0  0  0  2  0  0  0  0  0  0
  189.4580  177.4560  137.4370 C   0  0  2  0  0  3  0  0  0  0  0  0
  189.3010  177.0490  135.9840 C   0  0  0  0  0  1  0  0  0  0  0  0
  189.6520  176.2230  138.3050 C   0  0  0  0  0  2  0  0  0  0  0  0
  190.8970  175.5570  137.9490 N   0  0  0  0  0  2  0  0  0  0  0  0
  191.9870  176.4240  138.3770 C   0  0  0  0  0  1  0  0  0  0  0  0
  1 20  1  1  0  0  0
  1  7  1  0  0  0  0
  2 13  1  1  0  0  0
  3  2  1  0  0  0  0
  3  4  1  1  0  0  0
  4  5  2  0  0  0  0
  5  6  1  0  0  0  0
  7 11  2  0  0  0  0
  7 12  1  0  0  0  0
  8 12  1  0  0  0  0
  9  8  1  0  0  0  0
 10 53  1  6  0  0  0
 10 21  1  0  0  0  0
 13 16  1  0  0  0  0
 13  6  2  0  0  0  0
 14 17  1  0  0  0  0
 14 19  1  0  0  0  0
 15 22  1  0  0  0  0
 17 50  1  6  0  0  0
 17 10  1  0  0  0  0
 18 16  2  0  0  0  0
 19 15  1  0  0  0  0
 20 18  1  0  0  0  0
 21  9  1  1  0  0  0
 21  1  1  0  0  0  0
 22  2  1  0  0  0  0
 22 18  1  0  0  0  0
 23 27  1  1  0  0  0
 23 26  1  0  0  0  0
 24  3  1  1  0  0  0
 25 28  1  0  0  0  0
 26 24  1  0  0  0  0
 28 24  1  0  0  0  0
 29 30  1  0  0  0  0
 30 23  1  0  0  0  0
 30 26  1  0  0  0  0
 31 30  1  0  0  0  0
 31 25  1  0  0  0  0
 32 29  1  0  0  0  0
 32 27  1  0  0  0  0
 33 28  1  0  0  0  0
 34 33  1  0  0  0  0
 35 37  2  0  0  0  0
 36 34  1  0  0  0  0
 37 39  1  0  0  0  0
 37 36  1  0  0  0  0
 38 41  1  0  0  0  0
 40 38  1  0  0  0  0
 40 41  1  0  0  0  0
 41 36  1  0  0  0  0
 42 40  1  0  0  0  0
 42 37  1  0  0  0  0
 43 42  1  0  0  0  0
 43 45  1  0  0  0  0
 45 44  1  0  0  0  0
 46 48  2  0  0  0  0
 47 48  1  0  0  0  0
 48 45  1  0  0  0  0
 48 49  1  0  0  0  0
 50 51  1  0  0  0  0
 52 50  2  0  0  0  0
 54 53  1  0  0  0  0
 54 56  1  0  0  0  0
 55 54  1  0  0  0  0
 57 56  1  0  0  0  0
 57 58  1  0  0  0  0
M  END
>  <MODEL>
3

>  <REMARK>
 VINA RESULT:      -3.7      3.328      9.452
  Name = 
  12 active torsions:
  status: ('A' for Active; 'I' for Inactive)
    1  A    between atoms: C_4  and  C_17
    2  A    between atoms: C_4  and  C_35
    3  A    between atoms: N_6  and  C_29
    4  A    between atoms: N_7  and  C_17
    5  A    between atoms: C_10  and  C_12
    6  A    between atoms: C_16  and  C_44
    7  A    between atoms: C_22  and  C_42
    8  A    between atoms: C_28  and  N_32
    9  A    between atoms: C_28  and  P_34
   10  A    between atoms: C_29  and  C_42
   11  A    between atoms: C_30  and  C_35
   12  A    between atoms: N_32  and  C_53
                            x       y       z     vdW  Elec       q    Type
                         _______ _______ _______ _____ _____    ______ ____

>  <TORSDO>
F 12

$$$$
=
 OpenBabel10222418023D

 58 66  0  0  1  0  0  0  0  0999 V2000
  184.0430  176.0170  137.3830 C   0  0  1  0  0  3  0  0  0  0  0  0
  188.0530  174.7110  135.8570 C   0  0  1  0  0  3  0  0  0  0  0  0
  188.9870  174.3670  137.0340 C   0  0  1  0  0  3  0  0  0  0  0  0
  189.7440  173.0980  136.7200 C   0  0  0  0  0  3  0  0  0  0  0  0
  189.1270  172.1120  136.0550 C   0  0  0  0  0  3  0  0  0  0  0  0
  187.7740  172.2940  135.5940 N   0  0  0  0  0  0  0  0  0  0  0  0
  182.9410  175.1450  137.9200 C   0  0  0  0  0  0  0  0  0  0  0  0
  181.4070  176.4990  136.4870 C   0  0  0  0  0  2  0  0  0  0  0  0
  182.1140  177.7230  137.0640 C   0  0  0  0  0  2  0  0  0  0  0  0
  184.1960  178.3270  138.4370 C   0  0  2  0  0  3  0  0  0  0  0  0
  183.2040  174.2520  138.7070 O   0  0  0  0  0  0  0  0  0  0  0  0
  181.5190  175.3340  137.4640 C   0  0  0  0  0  2  0  0  0  0  0  0
  187.2810  173.4940  135.4920 C   0  0  0  0  0  0  0  0  0  0  0  0
  186.5700  178.5270  137.4240 C   0  0  0  0  0  2  0  0  0  0  0  0
  187.2420  177.0630  135.8840 C   0  0  0  0  0  2  0  0  0  0  0  0
  185.8940  173.7520  135.4640 N   0  0  0  0  0  0  0  0  0  0  0  0
  185.7160  178.0710  138.6100 C   0  0  1  0  0  3  0  0  0  0  0  0
  185.7630  174.9720  135.8660 C   0  0  0  0  0  0  0  0  0  0  0  0
  186.1670  177.8670  136.2570 O   0  0  0  0  0  0  0  0  0  0  0  0
  184.4650  175.5280  136.0760 N   0  0  0  0  0  2  0  0  0  0  0  0
  183.6230  177.4960  137.2750 C   0  0  1  0  0  3  0  0  0  0  0  0
  186.9940  175.6540  136.1900 N   0  0  0  0  0  0  0  0  0  0  0  0
  191.4550  176.6100  135.8120 C   0  0  2  0  0  3  0  0  0  0  0  0
  189.9510  175.4890  137.4320 C   0  0  2  0  0  3  0  0  0  0  0  0
  191.3960  176.4450  139.3770 C   0  0  0  0  0  2  0  0  0  0  0  0
  191.2670  175.3500  136.6620 C   0  0  2  0  0  3  0  0  0  0  0  0
  192.4630  176.3700  134.7280 C   0  0  0  0  0  2  0  0  0  0  0  0
  190.1410  175.6570  138.9620 C   0  0  1  0  0  3  0  0  0  0  0  0
  193.6140  176.1290  136.7760 O   0  0  0  0  0  0  0  0  0  0  0  0
  192.2720  176.4220  137.0580 C   0  0  1  0  0  0  0  0  0  0  0  0
  191.9400  177.3130  138.2490 C   0  0  0  0  0  2  0  0  0  0  0  0
  193.7960  176.4840  135.4310 C   0  0  0  0  0  2  0  0  0  0  0  0
  188.8900  176.2100  139.6430 C   0  0  0  0  0  2  0  0  0  0  0  0
  189.2340  177.1820  140.7590 C   0  0  0  0  0  2  0  0  0  0  0  0
  191.0960  178.3960  142.5140 O   0  0  0  0  0  0  0  0  0  0  0  0
  189.2420  176.4760  142.0330 N   0  0  0  0  0  0  0  0  0  0  0  0
  190.5470  177.0800  143.0280 P   0  0  1  0  0  0  0  0  0  0  0  0
  187.7280  178.1550  143.1520 C   0  0  0  0  0  2  0  0  0  0  0  0
  191.7830  175.9350  143.1860 O   0  0  0  0  0  1  0  0  0  0  0  0
  188.1680  177.1490  144.2030 C   0  0  1  0  0  3  0  0  0  0  0  0
  187.9630  176.7000  142.7420 C   0  0  2  0  0  3  0  0  0  0  0  0
  189.6480  177.3330  144.5510 C   0  0  1  0  0  3  0  0  0  0  0  0
  190.0420  176.3100  145.5080 N   0  0  0  0  0  2  0  0  0  0  0  0
  189.6890  177.4110  147.6350 C   0  0  0  0  0  1  0  0  0  0  0  0
  190.7200  176.9670  146.6150 C   0  0  1  0  0  3  0  0  0  0  0  0
  191.1330  174.7340  148.1370 O   0  0  0  0  0  1  0  0  0  0  0  0
  192.8800  176.6460  148.4850 O   0  0  0  0  0  1  0  0  0  0  0  0
  191.8910  175.8110  147.3950 P   0  0  0  0  0  0  0  0  0  0  0  0
  192.8580  175.0900  146.2090 O   0  0  0  0  0  0  0  0  0  0  0  0
  186.2400  178.6200  139.8940 C   0  0  0  0  0  0  0  0  0  0  0  0
  185.4440  178.6420  141.0290 O   0  0  0  0  0  1  0  0  0  0  0  0
  187.4280  179.0290  139.9640 O   0  0  0  0  0  0  0  0  0  0  0  0
  183.8940  179.8250  138.2640 C   0  0  0  0  0  2  0  0  0  0  0  0
  182.4510  180.1990  138.6270 C   0  0  2  0  0  3  0  0  0  0  0  0
  182.1950  181.6910  138.5290 C   0  0  0  0  0  1  0  0  0  0  0  0
  182.0440  179.6900  140.0000 C   0  0  0  0  0  2  0  0  0  0  0  0
  180.9520  180.4980  140.5250 N   0  0  0  0  0  2  0  0  0  0  0  0
  180.2250  179.6700  141.4790 C   0  0  0  0  0  1  0  0  0  0  0  0
  1 20  1  6  0  0  0
  1  7  1  0  0  0  0
  2 13  1  1  0  0  0
  2 22  1  0  0  0  0
  2  3  1  0  0  0  0
  3  4  1  6  0  0  0
  5  4  2  0  0  0  0
  6  5  1  0  0  0  0
  7 11  2  0  0  0  0
  8  9  1  0  0  0  0
  8 12  1  0  0  0  0
 10 53  1  6  0  0  0
 10 17  1  0  0  0  0
 12  7  1  0  0  0  0
 13  6  2  0  0  0  0
 14 17  1  0  0  0  0
 15 22  1  0  0  0  0
 15 19  1  0  0  0  0
 16 13  1  0  0  0  0
 16 18  2  0  0  0  0
 17 50  1  1  0  0  0
 18 20  1  0  0  0  0
 18 22  1  0  0  0  0
 19 14  1  0  0  0  0
 21  9  1  1  0  0  0
 21  1  1  0  0  0  0
 21 10  1  0  0  0  0
 23 27  1  6  0  0  0
 23 26  1  0  0  0  0
 23 30  1  0  0  0  0
 24  3  1  1  0  0  0
 24 28  1  0  0  0  0
 26 30  1  0  0  0  0
 26 24  1  0  0  0  0
 27 32  1  0  0  0  0
 28 25  1  0  0  0  0
 28 33  1  0  0  0  0
 29 30  1  0  0  0  0
 30 31  1  0  0  0  0
 31 25  1  0  0  0  0
 32 29  1  0  0  0  0
 33 34  1  0  0  0  0
 34 36  1  0  0  0  0
 35 37  2  0  0  0  0
 36 41  1  0  0  0  0
 36 37  1  0  0  0  0
 37 39  1  0  0  0  0
 37 42  1  0  0  0  0
 38 40  1  0  0  0  0
 40 42  1  0  0  0  0
 41 38  1  0  0  0  0
 41 40  1  0  0  0  0
 42 43  1  0  0  0  0
 43 45  1  0  0  0  0
 45 48  1  0  0  0  0
 45 44  1  0  0  0  0
 48 46  1  0  0  0  0
 48 47  1  0  0  0  0
 49 48  2  0  0  0  0
 50 52  2  0  0  0  0
 50 51  1  0  0  0  0
 53 54  1  0  0  0  0
 54 56  1  0  0  0  0
 55 54  1  0  0  0  0
 56 57  1  0  0  0  0
 57 58  1  0  0  0  0
M  END
>  <MODEL>
4

>  <REMARK>
 VINA RESULT:      -3.1      1.877      2.520
  Name = 
  12 active torsions:
  status: ('A' for Active; 'I' for Inactive)
    1  A    between atoms: C_4  and  C_17
    2  A    between atoms: C_4  and  C_35
    3  A    between atoms: N_6  and  C_29
    4  A    between atoms: N_7  and  C_17
    5  A    between atoms: C_10  and  C_12
    6  A    between atoms: C_16  and  C_44
    7  A    between atoms: C_22  and  C_42
    8  A    between atoms: C_28  and  N_32
    9  A    between atoms: C_28  and  P_34
   10  A    between atoms: C_29  and  C_42
   11  A    between atoms: C_30  and  C_35
   12  A    between atoms: N_32  and  C_53
                            x       y       z     vdW  Elec       q    Type
                         _______ _______ _______ _____ _____    ______ ____

>  <TORSDO>
F 12

$$$$
=
 OpenBabel10222418023D

 58 66  0  0  1  0  0  0  0  0999 V2000
  185.0320  175.8100  137.0920 C   0  0  1  0  0  3  0  0  0  0  0  0
  189.1230  174.7540  135.5910 C   0  0  1  0  0  3  0  0  0  0  0  0
  190.0620  174.4360  136.7720 C   0  0  1  0  0  3  0  0  0  0  0  0
  190.8900  173.2170  136.4420 C   0  0  0  0  0  3  0  0  0  0  0  0
  190.3350  172.2130  135.7490 C   0  0  0  0  0  3  0  0  0  0  0  0
  188.9790  172.3310  135.2750 N   0  0  0  0  0  0  0  0  0  0  0  0
  183.9730  174.8690  137.5980 C   0  0  0  0  0  0  0  0  0  0  0  0
  182.3840  176.1680  136.1740 C   0  0  0  0  0  2  0  0  0  0  0  0
  183.0170  177.4160  136.7840 C   0  0  0  0  0  2  0  0  0  0  0  0
  185.0480  178.1030  138.1950 C   0  0  2  0  0  3  0  0  0  0  0  0
  184.2750  173.9750  138.3700 O   0  0  0  0  0  0  0  0  0  0  0  0
  182.5480  174.9900  137.1290 C   0  0  0  0  0  2  0  0  0  0  0  0
  188.4230  173.5050  135.1910 C   0  0  0  0  0  0  0  0  0  0  0  0
  187.4190  178.4510  137.2160 C   0  0  0  0  0  2  0  0  0  0  0  0
  188.1870  177.0570  135.6550 C   0  0  0  0  0  2  0  0  0  0  0  0
  187.0240  173.6880  135.1510 N   0  0  0  0  0  0  0  0  0  0  0  0
  186.5770  177.9250  138.3810 C   0  0  1  0  0  3  0  0  0  0  0  0
  186.8230  174.8910  135.5760 C   0  0  0  0  0  0  0  0  0  0  0  0
  187.0650  177.7940  136.0310 O   0  0  0  0  0  0  0  0  0  0  0  0
  185.4950  175.3710  135.7810 N   0  0  0  0  0  2  0  0  0  0  0  0
  184.5340  177.2660  137.0090 C   0  0  1  0  0  3  0  0  0  0  0  0
  188.0120  175.6310  135.9290 N   0  0  0  0  0  0  0  0  0  0  0  0
  192.4940  176.7680  135.6470 C   0  0  2  0  0  3  0  0  0  0  0  0
  190.9590  175.6000  137.2040 C   0  0  2  0  0  3  0  0  0  0  0  0
  192.2670  176.6310  139.2070 C   0  0  0  0  0  2  0  0  0  0  0  0
  192.3150  175.5090  136.5000 C   0  0  2  0  0  3  0  0  0  0  0  0
  193.5630  176.5600  134.6160 C   0  0  0  0  0  2  0  0  0  0  0  0
  191.0670  175.7890  138.7400 C   0  0  1  0  0  3  0  0  0  0  0  0
  194.6210  176.3840  136.7190 O   0  0  0  0  0  0  0  0  0  0  0  0
  193.2560  176.6240  136.9330 C   0  0  1  0  0  0  0  0  0  0  0  0
  192.8310  177.5100  138.0970 C   0  0  0  0  0  2  0  0  0  0  0  0
  194.8540  176.7350  135.3820 C   0  0  0  0  0  2  0  0  0  0  0  0
  189.7630  176.2960  139.3530 C   0  0  0  0  0  2  0  0  0  0  0  0
  189.5850  175.8150  140.7840 C   0  0  0  0  0  2  0  0  0  0  0  0
  188.5130  174.8680  143.2280 O   0  0  0  0  0  1  0  0  0  0  0  0
  189.2260  176.9420  141.6330 N   0  0  0  0  0  0  0  0  0  0  0  0
  188.3590  176.3630  143.0380 P   0  0  1  0  0  0  0  0  0  0  0  0
  191.3470  176.7970  142.9910 C   0  0  0  0  0  2  0  0  0  0  0  0
  186.7240  176.7960  142.9750 O   0  0  0  0  0  0  0  0  0  0  0  0
  190.4680  177.8700  143.6120 C   0  0  1  0  0  3  0  0  0  0  0  0
  190.4480  177.6430  142.0870 C   0  0  2  0  0  3  0  0  0  0  0  0
  189.2530  177.2480  144.3070 C   0  0  1  0  0  3  0  0  0  0  0  0
  188.4060  178.3110  144.8270 N   0  0  0  0  0  2  0  0  0  0  0  0
  188.4440  177.9170  147.2160 C   0  0  0  0  0  1  0  0  0  0  0  0
  187.6380  177.7710  145.9380 C   0  0  1  0  0  3  0  0  0  0  0  0
  184.9710  177.7330  146.5360 O   0  0  0  0  0  1  0  0  0  0  0  0
  185.6470  179.3700  144.6140 O   0  0  0  0  0  0  0  0  0  0  0  0
  186.0680  178.6780  146.1010 P   0  0  0  0  0  0  0  0  0  0  0  0
  186.2320  179.9030  147.2560 O   0  0  0  0  0  1  0  0  0  0  0  0
  187.0560  178.4750  139.6830 C   0  0  0  0  0  0  0  0  0  0  0  0
  188.3030  179.0720  139.7800 O   0  0  0  0  0  0  0  0  0  0  0  0
  186.3080  178.4370  140.6940 O   0  0  0  0  0  1  0  0  0  0  0  0
  184.6670  179.5850  138.0490 C   0  0  0  0  0  2  0  0  0  0  0  0
  183.6420  180.0540  139.0880 C   0  0  2  0  0  3  0  0  0  0  0  0
  183.4200  179.0340  140.1880 C   0  0  0  0  0  1  0  0  0  0  0  0
  182.3120  180.4440  138.4630 C   0  0  0  0  0  2  0  0  0  0  0  0
  181.2150  180.0010  139.3120 N   0  0  0  0  0  2  0  0  0  0  0  0
  180.2610  181.0980  139.3890 C   0  0  0  0  0  1  0  0  0  0  0  0
  1 20  1  6  0  0  0
  1  7  1  0  0  0  0
  2 13  1  1  0  0  0
  2 22  1  0  0  0  0
  2  3  1  0  0  0  0
  3  4  1  6  0  0  0
  5  4  2  0  0  0  0
  6  5  1  0  0  0  0
  7 11  2  0  0  0  0
  8  9  1  0  0  0  0
  8 12  1  0  0  0  0
 10 53  1  6  0  0  0
 10 17  1  0  0  0  0
 12  7  1  0  0  0  0
 13  6  2  0  0  0  0
 14 17  1  0  0  0  0
 15 22  1  0  0  0  0
 15 19  1  0  0  0  0
 16 13  1  0  0  0  0
 16 18  2  0  0  0  0
 17 50  1  1  0  0  0
 18 20  1  0  0  0  0
 18 22  1  0  0  0  0
 19 14  1  0  0  0  0
 21  9  1  1  0  0  0
 21  1  1  0  0  0  0
 21 10  1  0  0  0  0
 23 27  1  6  0  0  0
 23 26  1  0  0  0  0
 23 30  1  0  0  0  0
 24  3  1  1  0  0  0
 24 28  1  0  0  0  0
 26 30  1  0  0  0  0
 26 24  1  0  0  0  0
 27 32  1  0  0  0  0
 28 25  1  0  0  0  0
 28 33  1  0  0  0  0
 29 30  1  0  0  0  0
 30 31  1  0  0  0  0
 31 25  1  0  0  0  0
 32 29  1  0  0  0  0
 33 34  1  0  0  0  0
 34 36  1  0  0  0  0
 36 41  1  0  0  0  0
 36 37  1  0  0  0  0
 37 35  1  0  0  0  0
 37 42  1  0  0  0  0
 38 40  1  0  0  0  0
 39 37  2  0  0  0  0
 40 42  1  0  0  0  0
 41 38  1  0  0  0  0
 41 40  1  0  0  0  0
 42 43  1  0  0  0  0
 43 45  1  0  0  0  0
 45 48  1  0  0  0  0
 45 44  1  0  0  0  0
 47 48  2  0  0  0  0
 48 46  1  0  0  0  0
 48 49  1  0  0  0  0
 50 51  2  0  0  0  0
 50 52  1  0  0  0  0
 53 54  1  0  0  0  0
 54 55  1  0  0  0  0
 56 54  1  0  0  0  0
 56 57  1  0  0  0  0
 57 58  1  0  0  0  0
M  END
>  <MODEL>
5

>  <REMARK>
 VINA RESULT:      -2.9      2.655      3.774
  Name = 
  12 active torsions:
  status: ('A' for Active; 'I' for Inactive)
    1  A    between atoms: C_4  and  C_17
    2  A    between atoms: C_4  and  C_35
    3  A    between atoms: N_6  and  C_29
    4  A    between atoms: N_7  and  C_17
    5  A    between atoms: C_10  and  C_12
    6  A    between atoms: C_16  and  C_44
    7  A    between atoms: C_22  and  C_42
    8  A    between atoms: C_28  and  N_32
    9  A    between atoms: C_28  and  P_34
   10  A    between atoms: C_29  and  C_42
   11  A    between atoms: C_30  and  C_35
   12  A    between atoms: N_32  and  C_53
                            x       y       z     vdW  Elec       q    Type
                         _______ _______ _______ _____ _____    ______ ____

>  <TORSDO>
F 12

$$$$
=
 OpenBabel10222418023D

 58 66  0  0  1  0  0  0  0  0999 V2000
  183.5010  174.4990  137.0810 C   0  0  1  0  0  3  0  0  0  0  0  0
  184.1200  178.5230  138.9610 C   0  0  1  0  0  3  0  0  0  0  0  0
  184.0730  178.4090  140.4970 C   0  0  1  0  0  3  0  0  0  0  0  0
  185.1790  179.2430  141.0980 C   0  0  0  0  0  3  0  0  0  0  0  0
  186.3650  179.3090  140.4750 C   0  0  0  0  0  3  0  0  0  0  0  0
  186.5510  178.6370  139.2150 N   0  0  0  0  0  0  0  0  0  0  0  0
  184.5010  173.3800  136.9650 C   0  0  0  0  0  0  0  0  0  0  0  0
  183.7430  173.1800  134.5940 C   0  0  0  0  0  2  0  0  0  0  0  0
  182.3220  173.2260  135.1510 C   0  0  0  0  0  2  0  0  0  0  0  0
  181.0810  173.7550  137.3350 C   0  0  2  0  0  3  0  0  0  0  0  0
  185.1870  173.0790  137.9270 O   0  0  0  0  0  0  0  0  0  0  0  0
  184.6960  172.6540  135.6620 C   0  0  0  0  0  2  0  0  0  0  0  0
  185.5160  178.2840  138.5100 C   0  0  0  0  0  0  0  0  0  0  0  0
  180.5260  176.1590  138.1190 C   0  0  0  0  0  2  0  0  0  0  0  0
  182.0240  177.7860  137.8430 C   0  0  0  0  0  2  0  0  0  0  0  0
  185.5730  177.2840  137.5150 N   0  0  0  0  0  0  0  0  0  0  0  0
  180.9730  174.7500  138.5190 C   0  0  1  0  0  3  0  0  0  0  0  0
  184.3630  176.8450  137.4000 C   0  0  0  0  0  0  0  0  0  0  0  0
  181.4250  176.7060  137.1960 O   0  0  0  0  0  0  0  0  0  0  0  0
  184.0780  175.7300  136.5560 N   0  0  0  0  0  2  0  0  0  0  0  0
  182.1830  174.1860  136.3480 C   0  0  1  0  0  3  0  0  0  0  0  0
  183.3900  177.4750  138.2610 N   0  0  0  0  0  0  0  0  0  0  0  0
  180.6470  179.0250  139.7890 C   0  0  2  0  0  3  0  0  0  0  0  0
  182.7210  178.7700  141.1220 C   0  0  2  0  0  3  0  0  0  0  0  0
  181.5710  180.0380  143.0850 C   0  0  0  0  0  2  0  0  0  0  0  0
  181.9510  179.7170  140.1980 C   0  0  2  0  0  3  0  0  0  0  0  0
  180.0600  179.6790  138.5740 C   0  0  0  0  0  2  0  0  0  0  0  0
  182.8070  179.2680  142.5890 C   0  0  1  0  0  3  0  0  0  0  0  0
  180.0610  181.3140  140.2780 O   0  0  0  0  0  0  0  0  0  0  0  0
  180.6180  180.1360  140.7990 C   0  0  1  0  0  0  0  0  0  0  0  0
  180.3310  179.7560  142.2460 C   0  0  0  0  0  2  0  0  0  0  0  0
  179.3880  180.9220  139.1120 C   0  0  0  0  0  2  0  0  0  0  0  0
  183.1870  178.1490  143.5570 C   0  0  0  0  0  2  0  0  0  0  0  0
  183.5950  178.6900  144.9170 C   0  0  0  0  0  2  0  0  0  0  0  0
  184.9050  177.6830  147.2170 O   0  0  0  0  0  0  0  0  0  0  0  0
  185.0010  179.0680  144.8870 N   0  0  0  0  0  0  0  0  0  0  0  0
  185.7530  178.6440  146.4090 P   0  0  1  0  0  0  0  0  0  0  0  0
  185.7470  176.8290  143.9960 C   0  0  0  0  0  2  0  0  0  0  0  0
  186.1270  180.0230  147.3160 O   0  0  0  0  0  1  0  0  0  0  0  0
  186.9900  177.6570  144.2780 C   0  0  1  0  0  3  0  0  0  0  0  0
  185.6960  178.3450  143.7990 C   0  0  2  0  0  3  0  0  0  0  0  0
  187.2100  177.8190  145.7850 C   0  0  1  0  0  3  0  0  0  0  0  0
  188.3670  178.6710  146.0080 N   0  0  0  0  0  2  0  0  0  0  0  0
  188.6810  176.7100  147.3930 C   0  0  0  0  0  1  0  0  0  0  0  0
  189.3610  177.8980  146.7380 C   0  0  1  0  0  3  0  0  0  0  0  0
  190.0650  176.2840  144.6470 O   0  0  0  0  0  0  0  0  0  0  0  0
  191.9130  176.6020  146.4670 O   0  0  0  0  0  1  0  0  0  0  0  0
  190.6480  177.3090  145.5930 P   0  0  0  0  0  0  0  0  0  0  0  0
  191.2530  178.6090  144.6950 O   0  0  0  0  0  1  0  0  0  0  0  0
  180.1370  174.2160  139.6330 C   0  0  0  0  0  0  0  0  0  0  0  0
  179.6600  175.0590  140.6230 O   0  0  0  0  0  1  0  0  0  0  0  0
  179.8240  172.9970  139.6540 O   0  0  0  0  0  0  0  0  0  0  0  0
  179.7280  173.5720  136.6280 C   0  0  0  0  0  2  0  0  0  0  0  0
  179.3060  172.1030  136.4950 C   0  0  2  0  0  3  0  0  0  0  0  0
  180.1190  171.1810  137.3850 C   0  0  0  0  0  1  0  0  0  0  0  0
  179.3500  171.6110  135.0580 C   0  0  0  0  0  2  0  0  0  0  0  0
  179.4370  170.1580  135.0330 N   0  0  0  0  0  2  0  0  0  0  0  0
  180.7990  169.8150  134.6440 C   0  0  0  0  0  1  0  0  0  0  0  0
  1 20  1  6  0  0  0
  2 13  1  6  0  0  0
  2  3  1  0  0  0  0
  3  4  1  1  0  0  0
  5  4  2  0  0  0  0
  6  5  1  0  0  0  0
  7  1  1  0  0  0  0
  7 11  2  0  0  0  0
  8  9  1  0  0  0  0
  8 12  1  0  0  0  0
 10 53  1  6  0  0  0
 10 17  1  0  0  0  0
 12  7  1  0  0  0  0
 13  6  2  0  0  0  0
 14 17  1  0  0  0  0
 15 22  1  0  0  0  0
 16 13  1  0  0  0  0
 17 50  1  1  0  0  0
 18 16  2  0  0  0  0
 18 22  1  0  0  0  0
 19 15  1  0  0  0  0
 19 14  1  0  0  0  0
 20 18  1  0  0  0  0
 21  9  1  6  0  0  0
 21  1  1  0  0  0  0
 21 10  1  0  0  0  0
 22  2  1  0  0  0  0
 23 27  1  6  0  0  0
 23 26  1  0  0  0  0
 23 30  1  0  0  0  0
 24  3  1  6  0  0  0
 24 28  1  0  0  0  0
 26 30  1  0  0  0  0
 26 24  1  0  0  0  0
 27 32  1  0  0  0  0
 28 25  1  0  0  0  0
 28 33  1  0  0  0  0
 29 30  1  0  0  0  0
 30 31  1  0  0  0  0
 31 25  1  0  0  0  0
 32 29  1  0  0  0  0
 33 34  1  0  0  0  0
 36 34  1  0  0  0  0
 36 37  1  0  0  0  0
 37 35  2  0  0  0  0
 37 39  1  0  0  0  0
 38 40  1  0  0  0  0
 40 42  1  0  0  0  0
 41 38  1  0  0  0  0
 41 40  1  0  0  0  0
 41 36  1  0  0  0  0
 42 43  1  0  0  0  0
 42 37  1  0  0  0  0
 43 45  1  0  0  0  0
 45 44  1  0  0  0  0
 46 48  2  0  0  0  0
 48 47  1  0  0  0  0
 48 45  1  0  0  0  0
 49 48  1  0  0  0  0
 50 52  2  0  0  0  0
 50 51  1  0  0  0  0
 54 53  1  0  0  0  0
 54 55  1  0  0  0  0
 56 54  1  0  0  0  0
 57 56  1  0  0  0  0
 58 57  1  0  0  0  0
M  END
>  <MODEL>
6

>  <REMARK>
 VINA RESULT:      -2.0      2.861      6.621
  Name = 
  12 active torsions:
  status: ('A' for Active; 'I' for Inactive)
    1  A    between atoms: C_4  and  C_17
    2  A    between atoms: C_4  and  C_35
    3  A    between atoms: N_6  and  C_29
    4  A    between atoms: N_7  and  C_17
    5  A    between atoms: C_10  and  C_12
    6  A    between atoms: C_16  and  C_44
    7  A    between atoms: C_22  and  C_42
    8  A    between atoms: C_28  and  N_32
    9  A    between atoms: C_28  and  P_34
   10  A    between atoms: C_29  and  C_42
   11  A    between atoms: C_30  and  C_35
   12  A    between atoms: N_32  and  C_53
                            x       y       z     vdW  Elec       q    Type
                         _______ _______ _______ _____ _____    ______ ____

>  <TORSDO>
F 12

$$$$
