=
 OpenBabel10222418083D

 25 28  0  0  1  0  0  0  0  0999 V2000
  187.1270  177.8700  145.3760 C   0  0  0  0  0  0  0  0  0  0  0  0
  188.4000  177.4250  144.9580 C   0  0  0  0  0  0  0  0  0  0  0  0
  187.8300  177.8380  147.7120 C   0  0  0  0  0  3  0  0  0  0  0  0
  185.9980  178.1650  144.5850 C   0  0  0  0  0  0  0  0  0  0  0  0
  190.5250  176.8690  141.9620 C   0  0  0  0  0  0  0  0  0  0  0  0
  183.5760  178.8410  143.3620 C   0  0  0  0  0  3  0  0  0  0  0  0
  189.0940  177.3960  147.3090 C   0  0  0  0  0  3  0  0  0  0  0  0
  184.9030  178.5800  145.3410 C   0  0  0  0  0  0  0  0  0  0  0  0
  183.6860  178.9230  144.7580 C   0  0  0  0  0  3  0  0  0  0  0  0
  190.7490  176.7390  145.5570 C   0  0  0  0  0  0  0  0  0  0  0  0
  191.9640  176.3630  146.7700 Cl  0  0  0  0  0  0  0  0  0  0  0  0
  190.9080  176.8020  140.7170 C   0  0  0  0  0  3  0  0  0  0  0  0
  188.6820  177.1460  143.5020 C   0  0  0  0  0  2  0  0  0  0  0  0
  184.6710  178.4260  142.5840 C   0  0  0  0  0  3  0  0  0  0  0  0
  186.8720  178.0680  146.7340 C   0  0  0  0  0  0  0  0  0  0  0  0
  185.2890  178.5960  146.9790 S   0  0  0  0  0  0  0  0  0  0  0  0
  191.0940  176.6410  144.2750 C   0  0  0  0  0  3  0  0  0  0  0  0
  185.8890  178.0850  143.1930 C   0  0  0  0  0  3  0  0  0  0  0  0
  190.1360  176.9390  143.2040 C   0  0  0  0  0  0  0  0  0  0  0  0
  189.3910  177.1850  145.9480 C   0  0  0  0  0  0  0  0  0  0  0  0
  190.1310  177.4860  139.6430 C   0  0  2  0  0  3  0  0  0  0  0  0
  188.7820  177.5660  139.9990 O   0  0  0  0  0  1  0  0  0  0  0  0
  190.2760  176.7510  138.3540 C   0  0  0  0  0  0  0  0  0  0  0  0
  190.5460  175.3900  138.3650 O   0  0  0  0  0  1  0  0  0  0  0  0
  190.1360  177.3510  137.2550 O   0  0  0  0  0  0  0  0  0  0  0  0
  1 15  1  0  0  0  0
  2  1  2  0  0  0  0
  2 20  1  0  0  0  0
  4  8  1  0  0  0  0
  4  1  1  0  0  0  0
  5 19  2  0  0  0  0
  6  9  1  0  0  0  0
  7  3  1  0  0  0  0
  8 16  1  0  0  0  0
  9  8  2  0  0  0  0
 10 20  1  0  0  0  0
 10 11  1  0  0  0  0
 12  5  2  0  0  0  0
 13  2  1  0  0  0  0
 14 18  1  0  0  0  0
 14  6  2  0  0  0  0
 15 16  1  0  0  0  0
 15  3  2  0  0  0  0
 17 10  2  0  0  0  0
 18  4  2  0  0  0  0
 19 13  1  0  0  0  0
 19 17  1  0  0  0  0
 20  7  2  0  0  0  0
 21 22  1  1  0  0  0
 21 12  1  0  0  0  0
 23 24  1  0  0  0  0
 23 21  1  0  0  0  0
 25 23  2  0  0  0  0
M  END
>  <MODEL>
1

>  <REMARK>
 VINA RESULT:     -11.3      0.000      0.000
  Name = 
  2 active torsions:
  status: ('A' for Active; 'I' for Inactive)
    1  A    between atoms: C_2  and  C_21
    2  A    between atoms: C_15  and  C_21
                            x       y       z     vdW  Elec       q    Type
                         _______ _______ _______ _____ _____    ______ ____

>  <TORSDO>
F 2

$$$$
=
 OpenBabel10222418083D

 25 28  0  0  1  0  0  0  0  0999 V2000
  187.6830  177.7990  145.6340 C   0  0  0  0  0  0  0  0  0  0  0  0
  186.9170  178.1820  144.5110 C   0  0  0  0  0  0  0  0  0  0  0  0
  185.7600  178.0920  147.1060 C   0  0  0  0  0  3  0  0  0  0  0  0
  189.0420  177.4270  145.6820 C   0  0  0  0  0  0  0  0  0  0  0  0
  186.9590  178.3700  140.8010 C   0  0  0  0  0  0  0  0  0  0  0  0
  191.6800  176.6390  146.1730 C   0  0  0  0  0  3  0  0  0  0  0  0
  184.9920  178.4720  146.0010 C   0  0  0  0  0  3  0  0  0  0  0  0
  189.4690  177.1130  146.9710 C   0  0  0  0  0  0  0  0  0  0  0  0
  190.7770  176.7170  147.2440 C   0  0  0  0  0  3  0  0  0  0  0  0
  184.7010  178.9080  143.5580 C   0  0  0  0  0  0  0  0  0  0  0  0
  183.0330  179.4090  143.7920 Cl  0  0  0  0  0  0  0  0  0  0  0  0
  187.3740  178.2910  139.5670 C   0  0  0  0  0  3  0  0  0  0  0  0
  187.5480  178.2900  143.1450 C   0  0  0  0  0  2  0  0  0  0  0  0
  191.2650  176.9530  144.8670 C   0  0  0  0  0  3  0  0  0  0  0  0
  187.0920  177.7610  146.8970 C   0  0  0  0  0  0  0  0  0  0  0  0
  188.2050  177.2800  148.0690 S   0  0  0  0  0  0  0  0  0  0  0  0
  185.1700  178.8560  142.3130 C   0  0  0  0  0  3  0  0  0  0  0  0
  189.9430  177.3490  144.6150 C   0  0  0  0  0  3  0  0  0  0  0  0
  186.5520  178.4470  142.0360 C   0  0  0  0  0  0  0  0  0  0  0  0
  185.5520  178.5230  144.7080 C   0  0  0  0  0  0  0  0  0  0  0  0
  188.5880  177.4970  139.2210 C   0  0  2  0  0  3  0  0  0  0  0  0
  189.4460  177.4220  140.3210 O   0  0  0  0  0  1  0  0  0  0  0  0
  189.2950  178.1140  138.0630 C   0  0  0  0  0  0  0  0  0  0  0  0
  189.0080  179.4220  137.7000 O   0  0  0  0  0  1  0  0  0  0  0  0
  190.1660  177.4650  137.4230 O   0  0  0  0  0  0  0  0  0  0  0  0
  1  4  1  0  0  0  0
  1 15  2  0  0  0  0
  2 20  2  0  0  0  0
  2  1  1  0  0  0  0
  4  8  1  0  0  0  0
  5 19  2  0  0  0  0
  6  9  1  0  0  0  0
  7  3  2  0  0  0  0
  8  9  2  0  0  0  0
  8 16  1  0  0  0  0
 10 11  1  0  0  0  0
 10 20  1  0  0  0  0
 12  5  2  0  0  0  0
 13  2  1  0  0  0  0
 14  6  2  0  0  0  0
 15  3  1  0  0  0  0
 15 16  1  0  0  0  0
 17 10  2  0  0  0  0
 18 14  1  0  0  0  0
 18  4  2  0  0  0  0
 19 17  1  0  0  0  0
 19 13  1  0  0  0  0
 20  7  1  0  0  0  0
 21 12  1  0  0  0  0
 21 22  1  1  0  0  0
 23 21  1  0  0  0  0
 24 23  1  0  0  0  0
 25 23  2  0  0  0  0
M  END
>  <MODEL>
2

>  <REMARK>
 VINA RESULT:     -10.6      2.477      4.764
  Name = 
  2 active torsions:
  status: ('A' for Active; 'I' for Inactive)
    1  A    between atoms: C_2  and  C_21
    2  A    between atoms: C_15  and  C_21
                            x       y       z     vdW  Elec       q    Type
                         _______ _______ _______ _____ _____    ______ ____

>  <TORSDO>
F 2

$$$$
=
 OpenBabel10222418083D

 25 28  0  0  1  0  0  0  0  0999 V2000
  189.3050  177.4680  143.9990 C   0  0  0  0  0  0  0  0  0  0  0  0
  188.3040  177.7900  144.9410 C   0  0  0  0  0  0  0  0  0  0  0  0
  190.8700  176.9030  145.7830 C   0  0  0  0  0  3  0  0  0  0  0  0
  189.2350  177.5230  142.5920 C   0  0  0  0  0  0  0  0  0  0  0  0
  184.7010  178.6280  145.2900 C   0  0  0  0  0  0  0  0  0  0  0  0
  189.4750  177.4990  139.8050 C   0  0  0  0  0  3  0  0  0  0  0  0
  189.8850  177.2190  146.7250 C   0  0  0  0  0  3  0  0  0  0  0  0
  190.4230  177.1330  141.9770 C   0  0  0  0  0  0  0  0  0  0  0  0
  190.5700  177.1110  140.5920 C   0  0  0  0  0  3  0  0  0  0  0  0
  187.5850  177.9660  147.3490 C   0  0  0  0  0  0  0  0  0  0  0  0
  187.9670  177.8880  149.0620 Cl  0  0  0  0  0  0  0  0  0  0  0  0
  183.4620  178.8950  144.9830 C   0  0  0  0  0  3  0  0  0  0  0  0
  186.9640  178.3220  144.4950 C   0  0  0  0  0  2  0  0  0  0  0  0
  188.2690  177.8950  140.4090 C   0  0  0  0  0  3  0  0  0  0  0  0
  190.5560  177.0330  144.4360 C   0  0  0  0  0  0  0  0  0  0  0  0
  191.5750  176.7150  143.1310 S   0  0  0  0  0  0  0  0  0  0  0  0
  186.3380  178.2760  146.9990 C   0  0  0  0  0  3  0  0  0  0  0  0
  188.1430  177.9090  141.8070 C   0  0  0  0  0  3  0  0  0  0  0  0
  185.9410  178.3600  145.5890 C   0  0  0  0  0  0  0  0  0  0  0  0
  188.6090  177.6620  146.3230 C   0  0  0  0  0  0  0  0  0  0  0  0
  182.9280  178.5790  143.6270 C   0  0  2  0  0  3  0  0  0  0  0  0
  183.6750  179.2390  142.6480 O   0  0  0  0  0  1  0  0  0  0  0  0
  181.4950  178.9780  143.5310 C   0  0  0  0  0  0  0  0  0  0  0  0
  181.1320  180.0550  142.7350 O   0  0  0  0  0  0  0  0  0  0  0  0
  180.6080  178.3330  144.1520 O   0  0  0  0  0  1  0  0  0  0  0  0
  1 15  1  0  0  0  0
  1  2  2  0  0  0  0
  2 20  1  0  0  0  0
  3  7  1  0  0  0  0
  4  1  1  0  0  0  0
  5 19  2  0  0  0  0
  6 14  2  0  0  0  0
  6  9  1  0  0  0  0
  8  4  1  0  0  0  0
  8 16  1  0  0  0  0
  9  8  2  0  0  0  0
 10 11  1  0  0  0  0
 12  5  2  0  0  0  0
 13  2  1  0  0  0  0
 13 19  1  0  0  0  0
 14 18  1  0  0  0  0
 15  3  2  0  0  0  0
 16 15  1  0  0  0  0
 17 10  2  0  0  0  0
 18  4  2  0  0  0  0
 19 17  1  0  0  0  0
 20  7  2  0  0  0  0
 20 10  1  0  0  0  0
 21 22  1  6  0  0  0
 21 12  1  0  0  0  0
 23 21  1  0  0  0  0
 23 25  1  0  0  0  0
 24 23  2  0  0  0  0
M  END
>  <MODEL>
3

>  <REMARK>
 VINA RESULT:     -10.5      3.436      6.362
  Name = 
  2 active torsions:
  status: ('A' for Active; 'I' for Inactive)
    1  A    between atoms: C_2  and  C_21
    2  A    between atoms: C_15  and  C_21
                            x       y       z     vdW  Elec       q    Type
                         _______ _______ _______ _____ _____    ______ ____

>  <TORSDO>
F 2

$$$$
=
 OpenBabel10222418083D

 25 28  0  0  1  0  0  0  0  0999 V2000
  186.2940  178.0830  144.7920 C   0  0  0  0  0  0  0  0  0  0  0  0
  187.6280  177.6730  144.5770 C   0  0  0  0  0  0  0  0  0  0  0  0
  186.6650  178.1910  147.2010 C   0  0  0  0  0  3  0  0  0  0  0  0
  185.2770  178.2910  143.8380 C   0  0  0  0  0  0  0  0  0  0  0  0
  190.1690  177.0680  141.9350 C   0  0  0  0  0  0  0  0  0  0  0  0
  183.0260  178.8050  142.2590 C   0  0  0  0  0  3  0  0  0  0  0  0
  187.9880  177.7850  146.9990 C   0  0  0  0  0  3  0  0  0  0  0  0
  184.0730  178.6940  144.4140 C   0  0  0  0  0  0  0  0  0  0  0  0
  182.9370  178.9570  143.6510 C   0  0  0  0  0  3  0  0  0  0  0  0
  189.8940  177.1180  145.5290 C   0  0  0  0  0  0  0  0  0  0  0  0
  190.9390  176.8520  146.9160 Cl  0  0  0  0  0  0  0  0  0  0  0  0
  190.7240  176.9580  140.7600 C   0  0  0  0  0  3  0  0  0  0  0  0
  188.1210  177.3370  143.1910 C   0  0  0  0  0  2  0  0  0  0  0  0
  184.2330  178.4000  141.6630 C   0  0  0  0  0  3  0  0  0  0  0  0
  185.8450  178.3330  146.0890 C   0  0  0  0  0  0  0  0  0  0  0  0
  184.2260  178.8040  146.0860 S   0  0  0  0  0  0  0  0  0  0  0  0
  190.4170  176.9740  144.3130 C   0  0  0  0  0  3  0  0  0  0  0  0
  185.3660  178.1410  142.4500 C   0  0  0  0  0  3  0  0  0  0  0  0
  189.6090  177.1790  143.1060 C   0  0  0  0  0  0  0  0  0  0  0  0
  188.4790  177.5230  145.7050 C   0  0  0  0  0  0  0  0  0  0  0  0
  190.0800  177.5560  139.5550 C   0  0  2  0  0  3  0  0  0  0  0  0
  188.9640  178.3090  139.9270 O   0  0  0  0  0  1  0  0  0  0  0  0
  189.6780  176.4840  138.6000 C   0  0  0  0  0  0  0  0  0  0  0  0
  190.4510  175.3370  138.4890 O   0  0  0  0  0  1  0  0  0  0  0  0
  188.6310  176.6020  137.9090 O   0  0  0  0  0  0  0  0  0  0  0  0
  1 15  1  0  0  0  0
  2  1  2  0  0  0  0
  2 20  1  0  0  0  0
  4  8  1  0  0  0  0
  4  1  1  0  0  0  0
  5 19  2  0  0  0  0
  6  9  1  0  0  0  0
  7  3  1  0  0  0  0
  8 16  1  0  0  0  0
  9  8  2  0  0  0  0
 10 20  1  0  0  0  0
 10 11  1  0  0  0  0
 12  5  2  0  0  0  0
 13  2  1  0  0  0  0
 14  6  2  0  0  0  0
 14 18  1  0  0  0  0
 15  3  2  0  0  0  0
 16 15  1  0  0  0  0
 17 10  2  0  0  0  0
 18  4  2  0  0  0  0
 19 13  1  0  0  0  0
 19 17  1  0  0  0  0
 20  7  2  0  0  0  0
 21 22  1  1  0  0  0
 21 12  1  0  0  0  0
 23 21  1  0  0  0  0
 24 23  1  0  0  0  0
 25 23  2  0  0  0  0
M  END
>  <MODEL>
4

>  <REMARK>
 VINA RESULT:     -10.4      0.856      1.012
  Name = 
  2 active torsions:
  status: ('A' for Active; 'I' for Inactive)
    1  A    between atoms: C_2  and  C_21
    2  A    between atoms: C_15  and  C_21
                            x       y       z     vdW  Elec       q    Type
                         _______ _______ _______ _____ _____    ______ ____

>  <TORSDO>
F 2

$$$$
=
 OpenBabel10222418083D

 25 28  0  0  1  0  0  0  0  0999 V2000
  188.4950  177.6180  143.1330 C   0  0  0  0  0  0  0  0  0  0  0  0
  187.1640  177.9410  143.4780 C   0  0  0  0  0  0  0  0  0  0  0  0
  189.0710  177.2790  145.4790 C   0  0  0  0  0  3  0  0  0  0  0  0
  189.0810  177.5690  141.8520 C   0  0  0  0  0  0  0  0  0  0  0  0
  183.7900  178.5720  142.0590 C   0  0  0  0  0  0  0  0  0  0  0  0
  190.5820  177.3640  139.5010 C   0  0  0  0  0  3  0  0  0  0  0  0
  187.7560  177.5980  145.8320 C   0  0  0  0  0  3  0  0  0  0  0  0
  190.4290  177.2120  141.8880 C   0  0  0  0  0  0  0  0  0  0  0  0
  191.1990  177.1020  140.7330 C   0  0  0  0  0  3  0  0  0  0  0  0
  185.4110  178.2400  145.2610 C   0  0  0  0  0  0  0  0  0  0  0  0
  184.9600  178.3070  146.9580 Cl  0  0  0  0  0  0  0  0  0  0  0  0
  182.8260  178.7370  141.1950 C   0  0  0  0  0  3  0  0  0  0  0  0
  186.1700  178.3540  142.4200 C   0  0  0  0  0  2  0  0  0  0  0  0
  189.2240  177.7240  139.4460 C   0  0  0  0  0  3  0  0  0  0  0  0
  189.4130  177.2940  144.1330 C   0  0  0  0  0  0  0  0  0  0  0  0
  190.9270  176.9500  143.4740 S   0  0  0  0  0  0  0  0  0  0  0  0
  184.4600  178.4460  144.3520 C   0  0  0  0  0  3  0  0  0  0  0  0
  188.4670  177.8290  140.6220 C   0  0  0  0  0  3  0  0  0  0  0  0
  184.7560  178.4050  142.9160 C   0  0  0  0  0  0  0  0  0  0  0  0
  186.8000  177.9310  144.8510 C   0  0  0  0  0  0  0  0  0  0  0  0
  182.9870  178.2940  139.7800 C   0  0  2  0  0  3  0  0  0  0  0  0
  183.0870  176.9020  139.7180 O   0  0  0  0  0  1  0  0  0  0  0  0
  184.1990  178.9210  139.1790 C   0  0  0  0  0  0  0  0  0  0  0  0
  184.2760  180.3020  139.0700 O   0  0  0  0  0  1  0  0  0  0  0  0
  185.1610  178.2080  138.7870 O   0  0  0  0  0  0  0  0  0  0  0  0
  1  2  2  0  0  0  0
  1 15  1  0  0  0  0
  2 20  1  0  0  0  0
  3  7  1  0  0  0  0
  4  8  1  0  0  0  0
  4  1  1  0  0  0  0
  5 19  2  0  0  0  0
  6  9  1  0  0  0  0
  8 16  1  0  0  0  0
  9  8  2  0  0  0  0
 10 11  1  0  0  0  0
 12  5  2  0  0  0  0
 13 19  1  0  0  0  0
 13  2  1  0  0  0  0
 14  6  2  0  0  0  0
 14 18  1  0  0  0  0
 15  3  2  0  0  0  0
 16 15  1  0  0  0  0
 17 10  2  0  0  0  0
 18  4  2  0  0  0  0
 19 17  1  0  0  0  0
 20 10  1  0  0  0  0
 20  7  2  0  0  0  0
 21 22  1  1  0  0  0
 21 12  1  0  0  0  0
 23 21  1  0  0  0  0
 24 23  1  0  0  0  0
 25 23  2  0  0  0  0
M  END
>  <MODEL>
5

>  <REMARK>
 VINA RESULT:     -10.2      2.966      5.819
  Name = 
  2 active torsions:
  status: ('A' for Active; 'I' for Inactive)
    1  A    between atoms: C_2  and  C_21
    2  A    between atoms: C_15  and  C_21
                            x       y       z     vdW  Elec       q    Type
                         _______ _______ _______ _____ _____    ______ ____

>  <TORSDO>
F 2

$$$$
=
 OpenBabel10222418083D

 25 28  0  0  1  0  0  0  0  0999 V2000
  188.2300  177.5340  145.3110 C   0  0  0  0  0  0  0  0  0  0  0  0
  187.7780  177.8240  144.0050 C   0  0  0  0  0  0  0  0  0  0  0  0
  186.0330  178.0460  146.2380 C   0  0  0  0  0  3  0  0  0  0  0  0
  189.5140  177.1210  145.7230 C   0  0  0  0  0  0  0  0  0  0  0  0
  188.7150  177.6250  140.4160 C   0  0  0  0  0  0  0  0  0  0  0  0
  191.9080  176.2960  146.9110 C   0  0  0  0  0  3  0  0  0  0  0  0
  185.5740  178.3360  144.9490 C   0  0  0  0  0  3  0  0  0  0  0  0
  189.6030  176.9270  147.1000 C   0  0  0  0  0  0  0  0  0  0  0  0
  190.7820  176.5160  147.7170 C   0  0  0  0  0  3  0  0  0  0  0  0
  185.9000  178.5260  142.4800 C   0  0  0  0  0  0  0  0  0  0  0  0
  184.2570  179.1060  142.2540 Cl  0  0  0  0  0  0  0  0  0  0  0  0
  189.4060  177.4030  139.3320 C   0  0  0  0  0  3  0  0  0  0  0  0
  188.7220  177.7680  142.8290 C   0  0  0  0  0  2  0  0  0  0  0  0
  191.8360  176.4860  145.5200 C   0  0  0  0  0  3  0  0  0  0  0  0
  187.3540  177.6480  146.3910 C   0  0  0  0  0  0  0  0  0  0  0  0
  188.1250  177.2520  147.8380 S   0  0  0  0  0  0  0  0  0  0  0  0
  186.6490  178.3270  141.3960 C   0  0  0  0  0  3  0  0  0  0  0  0
  190.6370  176.9000  144.9180 C   0  0  0  0  0  3  0  0  0  0  0  0
  188.0300  177.8440  141.5020 C   0  0  0  0  0  0  0  0  0  0  0  0
  186.4280  178.2330  143.8330 C   0  0  0  0  0  0  0  0  0  0  0  0
  190.6180  176.5340  139.3670 C   0  0  2  0  0  3  0  0  0  0  0  0
  191.7410  177.2860  139.7230 O   0  0  0  0  0  1  0  0  0  0  0  0
  190.8320  175.8950  138.0370 C   0  0  0  0  0  0  0  0  0  0  0  0
  190.9300  174.5140  137.9450 O   0  0  0  0  0  1  0  0  0  0  0  0
  190.9040  176.5980  136.9930 O   0  0  0  0  0  0  0  0  0  0  0  0
  1  4  1  0  0  0  0
  1 15  2  0  0  0  0
  2  1  1  0  0  0  0
  3 15  1  0  0  0  0
  4  8  1  0  0  0  0
  5 19  2  0  0  0  0
  6  9  1  0  0  0  0
  7  3  2  0  0  0  0
  8  9  2  0  0  0  0
  8 16  1  0  0  0  0
 10 20  1  0  0  0  0
 11 10  1  0  0  0  0
 12 21  1  0  0  0  0
 12  5  2  0  0  0  0
 13  2  1  0  0  0  0
 14  6  2  0  0  0  0
 15 16  1  0  0  0  0
 17 19  1  0  0  0  0
 17 10  2  0  0  0  0
 18 14  1  0  0  0  0
 18  4  2  0  0  0  0
 19 13  1  0  0  0  0
 20  2  2  0  0  0  0
 20  7  1  0  0  0  0
 21 22  1  6  0  0  0
 23 21  1  0  0  0  0
 24 23  1  0  0  0  0
 25 23  2  0  0  0  0
M  END
>  <MODEL>
6

>  <REMARK>
 VINA RESULT:     -10.1      2.370      4.591
  Name = 
  2 active torsions:
  status: ('A' for Active; 'I' for Inactive)
    1  A    between atoms: C_2  and  C_21
    2  A    between atoms: C_15  and  C_21
                            x       y       z     vdW  Elec       q    Type
                         _______ _______ _______ _____ _____    ______ ____

>  <TORSDO>
F 2

$$$$
=
 OpenBabel10222418083D

 25 28  0  0  1  0  0  0  0  0999 V2000
  187.2510  178.0560  142.0660 C   0  0  0  0  0  0  0  0  0  0  0  0
  187.1550  177.9020  143.4660 C   0  0  0  0  0  0  0  0  0  0  0  0
  184.9560  178.8770  141.9510 C   0  0  0  0  0  3  0  0  0  0  0  0
  188.3490  177.7780  141.2270 C   0  0  0  0  0  0  0  0  0  0  0  0
  189.1350  177.1810  146.5250 C   0  0  0  0  0  0  0  0  0  0  0  0
  190.2920  177.3540  139.2610 C   0  0  0  0  0  3  0  0  0  0  0  0
  184.8510  178.7290  143.3380 C   0  0  0  0  0  3  0  0  0  0  0  0
  188.0840  178.0480  139.8850 C   0  0  0  0  0  0  0  0  0  0  0  0
  189.0340  177.8470  138.8860 C   0  0  0  0  0  3  0  0  0  0  0  0
  185.7890  178.1230  145.5720 C   0  0  0  0  0  0  0  0  0  0  0  0
  184.2610  178.4680  146.3660 Cl  0  0  0  0  0  0  0  0  0  0  0  0
  190.1400  176.8860  147.3030 C   0  0  0  0  0  3  0  0  0  0  0  0
  188.3000  177.3250  144.2610 C   0  0  0  0  0  2  0  0  0  0  0  0
  190.5760  177.0760  140.6090 C   0  0  0  0  0  3  0  0  0  0  0  0
  186.1580  178.5380  141.3440 C   0  0  0  0  0  0  0  0  0  0  0  0
  186.5160  178.6290  139.6980 S   0  0  0  0  0  0  0  0  0  0  0  0
  186.8270  177.7780  146.3320 C   0  0  0  0  0  3  0  0  0  0  0  0
  189.6040  177.2870  141.6000 C   0  0  0  0  0  3  0  0  0  0  0  0
  188.1360  177.4760  145.7430 C   0  0  0  0  0  0  0  0  0  0  0  0
  185.9310  178.2450  144.1020 C   0  0  0  0  0  0  0  0  0  0  0  0
  191.5430  176.9880  146.8060 C   0  0  2  0  0  3  0  0  0  0  0  0
  191.5530  177.1960  145.4250 O   0  0  0  0  0  1  0  0  0  0  0  0
  192.3000  175.7490  147.1420 C   0  0  0  0  0  0  0  0  0  0  0  0
  192.8390  175.5950  148.4110 O   0  0  0  0  0  1  0  0  0  0  0  0
  192.4370  174.8310  146.2890 O   0  0  0  0  0  0  0  0  0  0  0  0
  1  2  2  0  0  0  0
  2 20  1  0  0  0  0
  2 13  1  0  0  0  0
  3  7  1  0  0  0  0
  4 18  1  0  0  0  0
  4  1  1  0  0  0  0
  5 12  2  0  0  0  0
  6 14  1  0  0  0  0
  7 20  2  0  0  0  0
  8  4  2  0  0  0  0
  9  6  2  0  0  0  0
  9  8  1  0  0  0  0
 10 17  2  0  0  0  0
 10 11  1  0  0  0  0
 13 19  1  0  0  0  0
 14 18  2  0  0  0  0
 15  3  2  0  0  0  0
 15  1  1  0  0  0  0
 16  8  1  0  0  0  0
 16 15  1  0  0  0  0
 19 17  1  0  0  0  0
 19  5  2  0  0  0  0
 20 10  1  0  0  0  0
 21 22  1  6  0  0  0
 21 23  1  0  0  0  0
 21 12  1  0  0  0  0
 23 24  1  0  0  0  0
 25 23  2  0  0  0  0
M  END
>  <MODEL>
7

>  <REMARK>
 VINA RESULT:     -10.0      3.706      6.331
  Name = 
  2 active torsions:
  status: ('A' for Active; 'I' for Inactive)
    1  A    between atoms: C_2  and  C_21
    2  A    between atoms: C_15  and  C_21
                            x       y       z     vdW  Elec       q    Type
                         _______ _______ _______ _____ _____    ______ ____

>  <TORSDO>
F 2

$$$$
=
 OpenBabel10222418083D

 25 28  0  0  1  0  0  0  0  0999 V2000
  186.3890  178.2480  144.3710 C   0  0  0  0  0  0  0  0  0  0  0  0
  186.4410  178.4030  142.9680 C   0  0  0  0  0  0  0  0  0  0  0  0
  184.0070  178.7780  144.3890 C   0  0  0  0  0  3  0  0  0  0  0  0
  187.4340  177.9140  145.2550 C   0  0  0  0  0  0  0  0  0  0  0  0
  188.6110  177.9000  139.9950 C   0  0  0  0  0  0  0  0  0  0  0  0
  189.2310  177.2740  147.3010 C   0  0  0  0  0  3  0  0  0  0  0  0
  184.0480  178.9340  142.9990 C   0  0  0  0  0  3  0  0  0  0  0  0
  187.0170  177.8510  146.5840 C   0  0  0  0  0  0  0  0  0  0  0  0
  187.8910  177.5340  147.6220 C   0  0  0  0  0  3  0  0  0  0  0  0
  185.2460  178.9040  140.8080 C   0  0  0  0  0  0  0  0  0  0  0  0
  183.7990  179.4120  139.9500 Cl  0  0  0  0  0  0  0  0  0  0  0  0
  189.6470  177.6000  139.2610 C   0  0  0  0  0  3  0  0  0  0  0  0
  187.7460  178.2660  142.2230 C   0  0  0  0  0  2  0  0  0  0  0  0
  189.6680  177.3320  145.9660 C   0  0  0  0  0  3  0  0  0  0  0  0
  185.1820  178.4360  145.0460 C   0  0  0  0  0  0  0  0  0  0  0  0
  185.3750  178.1990  146.7040 S   0  0  0  0  0  0  0  0  0  0  0  0
  186.3350  178.6290  140.0920 C   0  0  0  0  0  3  0  0  0  0  0  0
  188.7710  177.6530  144.9360 C   0  0  0  0  0  3  0  0  0  0  0  0
  187.5810  178.1980  140.7350 C   0  0  0  0  0  0  0  0  0  0  0  0
  185.2470  178.7530  142.2820 C   0  0  0  0  0  0  0  0  0  0  0  0
  190.7590  176.7750  139.8140 C   0  0  2  0  0  3  0  0  0  0  0  0
  191.6950  177.5920  140.4530 O   0  0  0  0  0  1  0  0  0  0  0  0
  191.4180  176.0000  138.7240 C   0  0  0  0  0  0  0  0  0  0  0  0
  192.5890  176.4760  138.1520 O   0  0  0  0  0  0  0  0  0  0  0  0
  190.9300  174.9060  138.3320 O   0  0  0  0  0  1  0  0  0  0  0  0
  1 15  2  0  0  0  0
  1  4  1  0  0  0  0
  2  1  1  0  0  0  0
  3 15  1  0  0  0  0
  4  8  1  0  0  0  0
  5 19  2  0  0  0  0
  6  9  1  0  0  0  0
  7  3  2  0  0  0  0
  8 16  1  0  0  0  0
  8  9  2  0  0  0  0
 10 20  1  0  0  0  0
 11 10  1  0  0  0  0
 12 21  1  0  0  0  0
 12  5  2  0  0  0  0
 13  2  1  0  0  0  0
 14  6  2  0  0  0  0
 15 16  1  0  0  0  0
 17 19  1  0  0  0  0
 17 10  2  0  0  0  0
 18  4  2  0  0  0  0
 18 14  1  0  0  0  0
 19 13  1  0  0  0  0
 20  2  2  0  0  0  0
 20  7  1  0  0  0  0
 21 22  1  6  0  0  0
 23 21  1  0  0  0  0
 24 23  2  0  0  0  0
 25 23  1  0  0  0  0
M  END
>  <MODEL>
8

>  <REMARK>
 VINA RESULT:      -9.9      2.610      4.641
  Name = 
  2 active torsions:
  status: ('A' for Active; 'I' for Inactive)
    1  A    between atoms: C_2  and  C_21
    2  A    between atoms: C_15  and  C_21
                            x       y       z     vdW  Elec       q    Type
                         _______ _______ _______ _____ _____    ______ ____

>  <TORSDO>
F 2

$$$$
=
 OpenBabel10222418083D

 25 28  0  0  1  0  0  0  0  0999 V2000
  185.9670  178.3590  141.9570 C   0  0  0  0  0  0  0  0  0  0  0  0
  186.3810  178.1340  143.2880 C   0  0  0  0  0  0  0  0  0  0  0  0
  183.7250  178.9630  142.7060 C   0  0  0  0  0  3  0  0  0  0  0  0
  186.7170  178.2250  140.7710 C   0  0  0  0  0  0  0  0  0  0  0  0
  189.3570  177.4670  145.4090 C   0  0  0  0  0  0  0  0  0  0  0  0
  187.8710  178.0760  138.2280 C   0  0  0  0  0  3  0  0  0  0  0  0
  184.1250  178.7430  144.0280 C   0  0  0  0  0  3  0  0  0  0  0  0
  185.9790  178.5290  139.6290 C   0  0  0  0  0  0  0  0  0  0  0  0
  186.5290  178.4650  138.3510 C   0  0  0  0  0  3  0  0  0  0  0  0
  185.8300  178.1290  145.7470 C   0  0  0  0  0  0  0  0  0  0  0  0
  184.6580  178.2910  147.0450 Cl  0  0  0  0  0  0  0  0  0  0  0  0
  190.5900  177.2340  145.7660 C   0  0  0  0  0  3  0  0  0  0  0  0
  187.7720  177.6330  143.5920 C   0  0  0  0  0  2  0  0  0  0  0  0
  188.6300  177.7670  139.3700 C   0  0  0  0  0  3  0  0  0  0  0  0
  184.6580  178.7670  141.6970 C   0  0  0  0  0  0  0  0  0  0  0  0
  184.4070  178.9660  140.0410 S   0  0  0  0  0  0  0  0  0  0  0  0
  187.0910  177.8510  146.0720 C   0  0  0  0  0  3  0  0  0  0  0  0
  188.0560  177.8390  140.6490 C   0  0  0  0  0  3  0  0  0  0  0  0
  188.1280  177.7010  145.0460 C   0  0  0  0  0  0  0  0  0  0  0  0
  185.4370  178.3300  144.3320 C   0  0  0  0  0  0  0  0  0  0  0  0
  191.7180  177.4920  144.8230 C   0  0  2  0  0  3  0  0  0  0  0  0
  191.6180  178.7800  144.2920 O   0  0  0  0  0  1  0  0  0  0  0  0
  191.7110  176.4840  143.7250 C   0  0  0  0  0  0  0  0  0  0  0  0
  192.0090  175.1580  144.0060 O   0  0  0  0  0  1  0  0  0  0  0  0
  191.4170  176.8220  142.5470 O   0  0  0  0  0  0  0  0  0  0  0  0
  1  2  2  0  0  0  0
  2 13  1  0  0  0  0
  2 20  1  0  0  0  0
  3  7  1  0  0  0  0
  4  1  1  0  0  0  0
  5 12  2  0  0  0  0
  6  9  2  0  0  0  0
  6 14  1  0  0  0  0
  7 20  2  0  0  0  0
  8 16  1  0  0  0  0
  8  4  2  0  0  0  0
  9  8  1  0  0  0  0
 10 17  2  0  0  0  0
 10 11  1  0  0  0  0
 13 19  1  0  0  0  0
 14 18  2  0  0  0  0
 15  1  1  0  0  0  0
 15  3  2  0  0  0  0
 16 15  1  0  0  0  0
 18  4  1  0  0  0  0
 19  5  2  0  0  0  0
 19 17  1  0  0  0  0
 20 10  1  0  0  0  0
 21 22  1  6  0  0  0
 21 12  1  0  0  0  0
 23 24  1  0  0  0  0
 23 21  1  0  0  0  0
 25 23  2  0  0  0  0
M  END
>  <MODEL>
9

>  <REMARK>
 VINA RESULT:      -9.6      3.089      5.240
  Name = 
  2 active torsions:
  status: ('A' for Active; 'I' for Inactive)
    1  A    between atoms: C_2  and  C_21
    2  A    between atoms: C_15  and  C_21
                            x       y       z     vdW  Elec       q    Type
                         _______ _______ _______ _____ _____    ______ ____

>  <TORSDO>
F 2

$$$$
