=
 OpenBabel10222420043D

 59 62  0  0  1  0  0  0  0  0999 V2000
  192.6930  174.2240  137.4500 C   0  0  0  0  0  2  0  0  0  0  0  0
  189.2760  177.8230  137.6690 O   0  0  0  0  0  0  0  0  0  0  0  0
  190.5460  173.1770  136.7170 C   0  0  0  0  0  3  0  0  0  0  0  0
  188.5430  171.9930  135.9620 C   0  0  0  0  0  1  0  0  0  0  0  0
  187.2470  176.9380  137.1190 N   0  0  0  0  0  0  0  0  0  0  0  0
  191.2340  174.3050  137.1520 C   0  0  0  0  0  0  0  0  0  0  0  0
  186.4950  175.8700  136.7470 C   0  0  0  0  0  3  0  0  0  0  0  0
  188.5950  176.8230  137.3080 C   0  0  0  0  0  0  0  0  0  0  0  0
  189.2300  175.5870  137.1100 C   0  0  0  0  0  0  0  0  0  0  0  0
  188.4740  174.4580  136.6970 C   0  0  0  0  0  0  0  0  0  0  0  0
  190.5700  175.4740  137.3270 N   0  0  0  0  0  0  0  0  0  0  0  0
  187.0700  174.6160  136.5320 C   0  0  0  0  0  0  0  0  0  0  0  0
  189.1750  173.2410  136.4770 C   0  0  0  0  0  0  0  0  0  0  0  0
  186.4850  178.9740  136.0040 C   0  0  0  0  0  1  0  0  0  0  0  0
  186.5720  178.2170  137.3190 C   0  0  0  0  0  2  0  0  0  0  0  0
  186.1430  173.4890  136.2020 C   0  0  0  0  0  2  0  0  0  0  0  0
  185.3570  173.0750  137.4330 C   0  0  0  0  0  2  0  0  0  0  0  0
  184.0040  172.5220  137.0280 C   0  0  0  0  0  2  0  0  0  0  0  0
  183.0050  173.4340  137.3760 O   0  0  0  0  0  0  0  0  0  0  0  0
  182.3320  173.7000  136.1820 C   0  0  0  0  0  2  0  0  0  0  0  0
  181.7980  175.8870  135.4000 O   0  0  0  0  0  1  0  0  0  0  0  0
  181.4510  174.9230  136.3520 C   0  0  2  0  0  3  0  0  0  0  0  0
  181.6320  175.4650  137.6910 N   0  0  0  0  0  2  0  0  0  0  0  0
  181.6190  176.9180  137.5980 C   0  0  0  0  0  2  0  0  0  0  0  0
  184.3970  178.7800  140.2930 C   0  0  0  0  0  2  0  0  0  0  0  0
  182.6650  179.0430  138.4150 C   0  0  0  0  0  2  0  0  0  0  0  0
  182.7560  177.5180  138.4100 C   0  0  0  0  0  3  0  0  0  0  0  0
  183.8430  179.6710  139.1730 C   0  0  0  0  0  2  0  0  0  0  0  0
  183.3040  177.9000  140.8920 C   0  0  0  0  0  2  0  0  0  0  0  0
  182.7120  176.9540  139.8370 C   0  0  0  0  0  2  0  0  0  0  0  0
  193.2810  175.5560  137.5510 N   0  0  0  0  0  0  0  0  0  0  0  0
  193.6310  176.0370  136.2090 C   0  0  0  0  0  2  0  0  0  0  0  0
  194.9440  176.5240  136.1590 O   0  0  0  0  0  0  0  0  0  0  0  0
  195.5420  175.8130  135.1150 C   0  0  0  0  0  2  0  0  0  0  0  0
  196.9630  176.3010  134.8890 C   0  0  0  0  0  2  0  0  0  0  0  0
  197.8840  175.4980  136.9390 O   0  0  0  0  0  1  0  0  0  0  0  0
  197.9680  175.3790  135.5520 C   0  0  0  0  0  2  0  0  0  0  0  0
  194.4990  175.4290  138.3400 C   0  0  0  0  0  2  0  0  0  0  0  0
  194.3880  176.2470  139.6130 C   0  0  0  0  0  2  0  0  0  0  0  0
  193.4940  177.3700  139.3880 N   0  0  0  0  0  2  0  0  0  0  0  0
  192.5260  177.3560  140.4670 C   0  0  0  0  0  2  0  0  0  0  0  0
  191.1860  177.3850  139.9100 N   0  0  0  0  0  2  0  0  0  0  0  0
  190.3320  176.8380  140.8740 N   0  0  0  0  0  2  0  0  0  0  0  0
  190.9770  177.0300  142.1600 C   0  0  0  0  0  2  0  0  0  0  0  0
  191.3430  175.7980  144.1850 O   0  0  0  0  0  1  0  0  0  0  0  0
  190.4030  176.0590  143.1810 C   0  0  1  0  0  3  0  0  0  0  0  0
  189.1070  176.6170  143.7690 C   0  0  2  0  0  3  0  0  0  0  0  0
  188.2200  177.2840  142.7290 C   0  0  0  0  0  1  0  0  0  0  0  0
  189.3600  177.5300  144.9290 C   0  0  0  0  0  0  0  0  0  0  0  0
  189.9980  178.5550  144.7470 O   0  0  0  0  0  0  0  0  0  0  0  0
  189.6180  177.9000  147.4100 C   0  0  0  0  0  2  0  0  0  0  0  0
  187.2980  177.4940  148.0910 C   0  0  0  0  0  2  0  0  0  0  0  0
  187.3870  177.3810  146.5790 C   0  0  2  0  0  3  0  0  0  0  0  0
  188.8750  177.1720  146.3120 C   0  0  1  0  0  3  0  0  0  0  0  0
  188.6710  177.9210  148.5950 C   0  0  0  0  0  2  0  0  0  0  0  0
  186.8330  178.6570  145.9430 C   0  0  0  0  0  2  0  0  0  0  0  0
  185.4600  178.4270  145.4130 C   0  0  0  0  0  0  0  0  0  0  0  0
  185.2990  178.0480  144.2240 O   0  0  0  0  0  0  0  0  0  0  0  0
  184.3570  178.6070  146.2350 O   0  0  0  0  0  1  0  0  0  0  0  0
  1 31  1  0  0  0  0
  3  6  1  0  0  0  0
  4 13  1  0  0  0  0
  5  8  1  0  0  0  0
  5 15  1  0  0  0  0
  6 11  2  0  0  0  0
  6  1  1  0  0  0  0
  7  5  1  0  0  0  0
  8  2  2  0  0  0  0
  9  8  1  0  0  0  0
  9 11  1  0  0  0  0
 10  9  2  0  0  0  0
 12 10  1  0  0  0  0
 12  7  2  0  0  0  0
 13 10  1  0  0  0  0
 13  3  2  0  0  0  0
 14 15  1  0  0  0  0
 16 12  1  0  0  0  0
 16 17  1  0  0  0  0
 18 19  1  0  0  0  0
 18 17  1  0  0  0  0
 20 22  1  0  0  0  0
 20 19  1  0  0  0  0
 22 21  1  6  0  0  0
 22 23  1  0  0  0  0
 24 23  1  0  0  0  0
 24 27  1  0  0  0  0
 25 29  1  0  0  0  0
 26 28  1  0  0  0  0
 27 26  1  0  0  0  0
 27 30  1  0  0  0  0
 28 25  1  0  0  0  0
 30 29  1  0  0  0  0
 31 38  1  0  0  0  0
 32 31  1  0  0  0  0
 33 32  1  0  0  0  0
 34 33  1  0  0  0  0
 35 34  1  0  0  0  0
 35 37  1  0  0  0  0
 37 36  1  0  0  0  0
 38 39  1  0  0  0  0
 40 39  1  0  0  0  0
 40 41  1  0  0  0  0
 42 41  1  0  0  0  0
 42 43  1  0  0  0  0
 43 44  1  0  0  0  0
 44 46  1  0  0  0  0
 46 47  1  0  0  0  0
 46 45  1  1  0  0  0
 47 48  1  6  0  0  0
 47 49  1  0  0  0  0
 50 49  2  0  0  0  0
 51 55  1  0  0  0  0
 52 55  1  0  0  0  0
 53 56  1  6  0  0  0
 53 52  1  0  0  0  0
 54 49  1  6  0  0  0
 54 53  1  0  0  0  0
 54 51  1  0  0  0  0
 57 56  1  0  0  0  0
 57 59  1  0  0  0  0
 58 57  2  0  0  0  0
M  END
>  <MODEL>
1

>  <REMARK>
 VINA RESULT:      -5.9      0.000      0.000
  Name = 
  30 active torsions:
  status: ('A' for Active; 'I' for Inactive)
    1  A    between atoms: N_1  and  C_16
    2  A    between atoms: N_1  and  C_25
    3  A    between atoms: N_1  and  C_29
    4  A    between atoms: C_4  and  C_17
    5  A    between atoms: C_6  and  C_19
    6  A    between atoms: C_6  and  C_35
    7  A    between atoms: N_9  and  C_37
    8  A    between atoms: N_9  and  C_43
    9  A    between atoms: C_12  and  C_46
   10  A    between atoms: C_12  and  C_54
   11  A    between atoms: N_14  and  N_55
   12  A    between atoms: N_14  and  C_59
   13  A    between atoms: C_16  and  C_31
   14  A    between atoms: C_17  and  C_18
   15  A    between atoms: C_21  and  N_30
   16  A    between atoms: C_21  and  N_55
   17  A    between atoms: C_23  and  C_41
   18  A    between atoms: C_23  and  C_49
   19  A    between atoms: N_24  and  C_58
   20  A    between atoms: C_25  and  O_48
   21  A    between atoms: C_26  and  C_29
   22  A    between atoms: C_28  and  C_43
   23  A    between atoms: C_28  and  O_47
   24  A    between atoms: N_30  and  C_31
   25  A    between atoms: C_32  and  C_37
   26  A    between atoms: C_35  and  C_57
   27  A    between atoms: C_41  and  O_47
   28  A    between atoms: C_46  and  O_48
   29  A    between atoms: C_49  and  C_50
   30  A    between atoms: C_57  and  C_59
                            x       y       z     vdW  Elec       q    Type
                         _______ _______ _______ _____ _____    ______ ____

>  <TORSDO>
F 30

$$$$
=
 OpenBabel10222420043D

 59 62  0  0  1  0  0  0  0  0999 V2000
  187.6760  178.3600  136.3240 C   0  0  0  0  0  2  0  0  0  0  0  0
  184.7470  179.6690  140.1180 O   0  0  0  0  0  0  0  0  0  0  0  0
  185.5090  177.1710  135.9600 C   0  0  0  0  0  3  0  0  0  0  0  0
  183.4580  175.9440  135.4380 C   0  0  0  0  0  1  0  0  0  0  0  0
  182.7710  178.5460  139.9350 N   0  0  0  0  0  0  0  0  0  0  0  0
  186.2770  178.0380  136.7300 C   0  0  0  0  0  0  0  0  0  0  0  0
  181.9790  177.6650  139.2710 C   0  0  0  0  0  3  0  0  0  0  0  0
  184.0190  178.8590  139.4780 C   0  0  0  0  0  0  0  0  0  0  0  0
  184.5030  178.2760  138.2960 C   0  0  0  0  0  0  0  0  0  0  0  0
  183.6890  177.3700  137.5670 C   0  0  0  0  0  0  0  0  0  0  0  0
  185.7590  178.5740  137.8620 N   0  0  0  0  0  0  0  0  0  0  0  0
  182.4040  177.0540  138.0880 C   0  0  0  0  0  0  0  0  0  0  0  0
  184.2160  176.8370  136.3580 C   0  0  0  0  0  0  0  0  0  0  0  0
  182.8210  178.4290  142.3750 C   0  0  0  0  0  1  0  0  0  0  0  0
  182.2520  179.1450  141.1610 C   0  0  0  0  0  2  0  0  0  0  0  0
  181.4880  176.0410  137.4780 C   0  0  0  0  0  2  0  0  0  0  0  0
  181.2410  174.9010  138.4490 C   0  0  0  0  0  2  0  0  0  0  0  0
  179.8240  174.3840  138.2990 C   0  0  0  0  0  2  0  0  0  0  0  0
  179.7110  173.6750  137.1010 O   0  0  0  0  0  0  0  0  0  0  0  0
  179.9760  172.3470  137.4450 C   0  0  0  0  0  2  0  0  0  0  0  0
  179.9810  170.4420  136.0140 O   0  0  0  0  0  1  0  0  0  0  0  0
  180.6480  171.6410  136.2820 C   0  0  2  0  0  3  0  0  0  0  0  0
  182.0370  171.3690  136.6210 N   0  0  0  0  0  2  0  0  0  0  0  0
  182.7960  172.5980  136.4410 C   0  0  0  0  0  2  0  0  0  0  0  0
  187.0710  172.4710  136.8380 C   0  0  0  0  0  2  0  0  0  0  0  0
  185.0190  172.4370  135.2940 C   0  0  0  0  0  2  0  0  0  0  0  0
  184.2840  172.3430  136.6300 C   0  0  0  0  0  3  0  0  0  0  0  0
  186.5110  172.1160  135.4540 C   0  0  0  0  0  2  0  0  0  0  0  0
  186.3350  173.6610  137.4440 C   0  0  0  0  0  2  0  0  0  0  0  0
  184.8450  173.3480  137.6450 C   0  0  0  0  0  2  0  0  0  0  0  0
  188.5430  177.1960  136.4650 N   0  0  0  0  0  0  0  0  0  0  0  0
  188.1440  176.1710  135.4930 C   0  0  0  0  0  2  0  0  0  0  0  0
  189.1220  175.1760  135.3570 O   0  0  0  0  0  0  0  0  0  0  0  0
  190.2910  175.8740  135.0430 C   0  0  0  0  0  2  0  0  0  0  0  0
  191.4470  175.3820  135.8980 C   0  0  0  0  0  2  0  0  0  0  0  0
  191.0010  174.4080  138.0310 O   0  0  0  0  0  1  0  0  0  0  0  0
  191.0630  174.1310  136.6650 C   0  0  0  0  0  2  0  0  0  0  0  0
  188.3440  176.6720  137.8100 C   0  0  0  0  0  2  0  0  0  0  0  0
  189.3750  177.2560  138.7590 C   0  0  0  0  0  2  0  0  0  0  0  0
  188.9660  178.5940  139.1500 N   0  0  0  0  0  2  0  0  0  0  0  0
  188.0480  178.4410  140.2630 C   0  0  0  0  0  2  0  0  0  0  0  0
  188.7150  178.8330  141.4910 N   0  0  0  0  0  2  0  0  0  0  0  0
  188.9270  177.6640  142.2310 N   0  0  0  0  0  2  0  0  0  0  0  0
  190.3500  177.6000  142.5120 C   0  0  0  0  0  2  0  0  0  0  0  0
  191.9030  175.9980  143.3900 O   0  0  0  0  0  1  0  0  0  0  0  0
  190.6250  176.5400  143.5680 C   0  0  1  0  0  3  0  0  0  0  0  0
  190.4670  177.1350  144.9670 C   0  0  2  0  0  3  0  0  0  0  0  0
  191.5610  176.6940  145.9280 C   0  0  0  0  0  1  0  0  0  0  0  0
  189.1080  176.8780  145.5410 C   0  0  0  0  0  0  0  0  0  0  0  0
  188.1920  176.5930  144.7860 O   0  0  0  0  0  0  0  0  0  0  0  0
  189.8840  177.8740  147.7230 C   0  0  0  0  0  2  0  0  0  0  0  0
  187.7080  178.0870  148.8320 C   0  0  0  0  0  2  0  0  0  0  0  0
  187.4890  177.5430  147.4310 C   0  0  2  0  0  3  0  0  0  0  0  0
  188.8590  177.0100  147.0230 C   0  0  1  0  0  3  0  0  0  0  0  0
  189.1950  178.3890  148.9710 C   0  0  0  0  0  2  0  0  0  0  0  0
  186.9840  178.6670  146.5250 C   0  0  0  0  0  2  0  0  0  0  0  0
  185.5750  178.4160  146.1110 C   0  0  0  0  0  0  0  0  0  0  0  0
  185.3200  178.0520  144.9330 O   0  0  0  0  0  0  0  0  0  0  0  0
  184.5430  178.5590  147.0270 O   0  0  0  0  0  1  0  0  0  0  0  0
  1 31  1  0  0  0  0
  1  6  1  0  0  0  0
  3 13  2  0  0  0  0
  3  6  1  0  0  0  0
  4 13  1  0  0  0  0
  5 15  1  0  0  0  0
  6 11  2  0  0  0  0
  7  5  1  0  0  0  0
  8  5  1  0  0  0  0
  8  2  2  0  0  0  0
  9  8  1  0  0  0  0
 10 12  1  0  0  0  0
 10  9  2  0  0  0  0
 11  9  1  0  0  0  0
 12  7  2  0  0  0  0
 13 10  1  0  0  0  0
 15 14  1  0  0  0  0
 16 12  1  0  0  0  0
 16 17  1  0  0  0  0
 18 17  1  0  0  0  0
 19 20  1  0  0  0  0
 19 18  1  0  0  0  0
 22 21  1  1  0  0  0
 22 23  1  0  0  0  0
 22 20  1  0  0  0  0
 24 23  1  0  0  0  0
 24 27  1  0  0  0  0
 25 29  1  0  0  0  0
 26 28  1  0  0  0  0
 26 27  1  0  0  0  0
 27 30  1  0  0  0  0
 28 25  1  0  0  0  0
 29 30  1  0  0  0  0
 31 38  1  0  0  0  0
 32 31  1  0  0  0  0
 33 32  1  0  0  0  0
 34 33  1  0  0  0  0
 34 35  1  0  0  0  0
 35 37  1  0  0  0  0
 37 36  1  0  0  0  0
 38 39  1  0  0  0  0
 39 40  1  0  0  0  0
 40 41  1  0  0  0  0
 41 42  1  0  0  0  0
 42 43  1  0  0  0  0
 43 44  1  0  0  0  0
 44 46  1  0  0  0  0
 46 45  1  1  0  0  0
 46 47  1  0  0  0  0
 47 49  1  0  0  0  0
 47 48  1  1  0  0  0
 50 49  2  0  0  0  0
 51 55  1  0  0  0  0
 52 55  1  0  0  0  0
 53 56  1  6  0  0  0
 53 52  1  0  0  0  0
 54 49  1  6  0  0  0
 54 53  1  0  0  0  0
 54 51  1  0  0  0  0
 57 56  1  0  0  0  0
 57 59  1  0  0  0  0
 58 57  2  0  0  0  0
M  END
>  <MODEL>
2

>  <REMARK>
 VINA RESULT:      -5.9      2.619      4.915
  Name = 
  30 active torsions:
  status: ('A' for Active; 'I' for Inactive)
    1  A    between atoms: N_1  and  C_16
    2  A    between atoms: N_1  and  C_25
    3  A    between atoms: N_1  and  C_29
    4  A    between atoms: C_4  and  C_17
    5  A    between atoms: C_6  and  C_19
    6  A    between atoms: C_6  and  C_35
    7  A    between atoms: N_9  and  C_37
    8  A    between atoms: N_9  and  C_43
    9  A    between atoms: C_12  and  C_46
   10  A    between atoms: C_12  and  C_54
   11  A    between atoms: N_14  and  N_55
   12  A    between atoms: N_14  and  C_59
   13  A    between atoms: C_16  and  C_31
   14  A    between atoms: C_17  and  C_18
   15  A    between atoms: C_21  and  N_30
   16  A    between atoms: C_21  and  N_55
   17  A    between atoms: C_23  and  C_41
   18  A    between atoms: C_23  and  C_49
   19  A    between atoms: N_24  and  C_58
   20  A    between atoms: C_25  and  O_48
   21  A    between atoms: C_26  and  C_29
   22  A    between atoms: C_28  and  C_43
   23  A    between atoms: C_28  and  O_47
   24  A    between atoms: N_30  and  C_31
   25  A    between atoms: C_32  and  C_37
   26  A    between atoms: C_35  and  C_57
   27  A    between atoms: C_41  and  O_47
   28  A    between atoms: C_46  and  O_48
   29  A    between atoms: C_49  and  C_50
   30  A    between atoms: C_57  and  C_59
                            x       y       z     vdW  Elec       q    Type
                         _______ _______ _______ _____ _____    ______ ____

>  <TORSDO>
F 30

$$$$
=
 OpenBabel10222420043D

 59 62  0  0  1  0  0  0  0  0999 V2000
  189.5600  176.0930  143.1850 C   0  0  0  0  0  2  0  0  0  0  0  0
  186.9820  178.2060  139.5010 O   0  0  0  0  0  0  0  0  0  0  0  0
  187.4530  176.9450  144.2230 C   0  0  0  0  0  3  0  0  0  0  0  0
  185.4470  177.6990  145.4030 C   0  0  0  0  0  1  0  0  0  0  0  0
  185.0790  179.1150  140.3700 N   0  0  0  0  0  0  0  0  0  0  0  0
  188.2390  176.7800  143.0880 C   0  0  0  0  0  0  0  0  0  0  0  0
  184.2820  179.3680  141.4400 C   0  0  0  0  0  3  0  0  0  0  0  0
  186.2460  178.4170  140.5050 C   0  0  0  0  0  0  0  0  0  0  0  0
  186.6360  177.9360  141.7650 C   0  0  0  0  0  0  0  0  0  0  0  0
  185.8110  178.1630  142.8980 C   0  0  0  0  0  0  0  0  0  0  0  0
  187.8140  177.2640  141.8950 N   0  0  0  0  0  0  0  0  0  0  0  0
  184.6160  178.9130  142.7180 C   0  0  0  0  0  0  0  0  0  0  0  0
  186.2380  177.6230  144.1420 C   0  0  0  0  0  0  0  0  0  0  0  0
  183.2390  179.1700  138.7650 C   0  0  0  0  0  1  0  0  0  0  0  0
  184.6590  179.6200  139.0670 C   0  0  0  0  0  2  0  0  0  0  0  0
  183.7110  179.3110  143.8400 C   0  0  0  0  0  2  0  0  0  0  0  0
  182.6150  178.2770  144.0270 C   0  0  0  0  0  2  0  0  0  0  0  0
  181.2530  178.9310  143.9040 C   0  0  0  0  0  2  0  0  0  0  0  0
  181.2800  179.8730  142.8730 O   0  0  0  0  0  0  0  0  0  0  0  0
  180.0010  180.4340  142.8690 C   0  0  0  0  0  2  0  0  0  0  0  0
  179.9600  179.1600  140.8550 O   0  0  0  0  0  1  0  0  0  0  0  0
  179.3610  180.2420  141.5060 C   0  0  2  0  0  3  0  0  0  0  0  0
  179.5370  181.4530  140.7170 N   0  0  0  0  0  2  0  0  0  0  0  0
  180.4630  181.1560  139.6330 C   0  0  0  0  0  2  0  0  0  0  0  0
  179.6470  182.7660  135.7360 C   0  0  0  0  0  2  0  0  0  0  0  0
  181.1870  182.6920  137.7900 C   0  0  0  0  0  2  0  0  0  0  0  0
  180.0370  181.8600  138.3550 C   0  0  0  0  0  3  0  0  0  0  0  0
  180.7560  183.4640  136.5360 C   0  0  0  0  0  2  0  0  0  0  0  0
  179.7350  181.2500  135.8760 C   0  0  0  0  0  2  0  0  0  0  0  0
  179.5540  180.8160  137.3380 C   0  0  0  0  0  2  0  0  0  0  0  0
  190.4880  176.8570  144.0120 N   0  0  0  0  0  0  0  0  0  0  0  0
  189.8200  178.0680  144.5020 C   0  0  0  0  0  2  0  0  0  0  0  0
  190.1020  178.3060  145.8530 O   0  0  0  0  0  0  0  0  0  0  0  0
  189.2670  177.4260  146.5470 C   0  0  0  0  0  2  0  0  0  0  0  0
  190.0890  176.5040  147.4320 C   0  0  0  0  0  2  0  0  0  0  0  0
  192.2610  175.5840  147.0730 O   0  0  0  0  0  1  0  0  0  0  0  0
  191.5720  176.7790  147.2780 C   0  0  0  0  0  2  0  0  0  0  0  0
  191.6030  177.2450  143.1600 C   0  0  0  0  0  2  0  0  0  0  0  0
  191.0930  177.9260  141.9030 C   0  0  0  0  0  2  0  0  0  0  0  0
  191.8290  177.4290  140.7530 N   0  0  0  0  0  2  0  0  0  0  0  0
  190.8440  177.0690  139.7510 C   0  0  0  0  0  2  0  0  0  0  0  0
  191.0600  175.6940  139.3380 N   0  0  0  0  0  2  0  0  0  0  0  0
  190.2870  175.4880  138.1890 N   0  0  0  0  0  2  0  0  0  0  0  0
  191.0170  174.5490  137.3580 C   0  0  0  0  0  2  0  0  0  0  0  0
  191.2530  176.6090  136.1540 O   0  0  0  0  0  1  0  0  0  0  0  0
  191.4600  175.2270  136.0710 C   0  0  1  0  0  3  0  0  0  0  0  0
  192.9260  174.9050  135.7820 C   0  0  2  0  0  3  0  0  0  0  0  0
  193.1090  173.6080  135.0070 C   0  0  0  0  0  1  0  0  0  0  0  0
  193.7630  174.9140  137.0240 C   0  0  0  0  0  0  0  0  0  0  0  0
  193.9910  175.9800  137.5750 O   0  0  0  0  0  0  0  0  0  0  0  0
  193.8320  172.3980  136.8700 C   0  0  0  0  0  2  0  0  0  0  0  0
  196.1470  172.0440  137.5930 C   0  0  0  0  0  2  0  0  0  0  0  0
  195.8760  173.5370  137.5490 C   0  0  2  0  0  3  0  0  0  0  0  0
  194.3530  173.6360  137.5660 C   0  0  1  0  0  3  0  0  0  0  0  0
  194.9010  171.3420  137.0680 C   0  0  0  0  0  2  0  0  0  0  0  0
  196.5050  174.1290  136.2870 C   0  0  0  0  0  2  0  0  0  0  0  0
  197.3250  175.3270  136.6200 C   0  0  0  0  0  0  0  0  0  0  0  0
  198.1380  175.2890  137.5800 O   0  0  0  0  0  1  0  0  0  0  0  0
  197.2130  176.4820  135.8580 O   0  0  0  0  0  0  0  0  0  0  0  0
  1 31  1  0  0  0  0
  2  8  2  0  0  0  0
  5  8  1  0  0  0  0
  5  7  1  0  0  0  0
  6  1  1  0  0  0  0
  6  3  2  0  0  0  0
  7 12  2  0  0  0  0
  8  9  1  0  0  0  0
  9 11  2  0  0  0  0
  9 10  1  0  0  0  0
 10 13  2  0  0  0  0
 11  6  1  0  0  0  0
 12 10  1  0  0  0  0
 12 16  1  0  0  0  0
 13  3  1  0  0  0  0
 13  4  1  0  0  0  0
 14 15  1  0  0  0  0
 15  5  1  0  0  0  0
 16 17  1  0  0  0  0
 18 17  1  0  0  0  0
 19 18  1  0  0  0  0
 20 19  1  0  0  0  0
 22 21  1  6  0  0  0
 22 20  1  0  0  0  0
 23 22  1  0  0  0  0
 24 23  1  0  0  0  0
 25 29  1  0  0  0  0
 25 28  1  0  0  0  0
 26 27  1  0  0  0  0
 27 24  1  0  0  0  0
 28 26  1  0  0  0  0
 29 30  1  0  0  0  0
 30 27  1  0  0  0  0
 31 32  1  0  0  0  0
 32 33  1  0  0  0  0
 33 34  1  0  0  0  0
 34 35  1  0  0  0  0
 36 37  1  0  0  0  0
 37 35  1  0  0  0  0
 38 31  1  0  0  0  0
 39 38  1  0  0  0  0
 40 39  1  0  0  0  0
 41 40  1  0  0  0  0
 42 41  1  0  0  0  0
 43 42  1  0  0  0  0
 44 43  1  0  0  0  0
 46 45  1  1  0  0  0
 46 44  1  0  0  0  0
 47 48  1  1  0  0  0
 47 46  1  0  0  0  0
 47 49  1  0  0  0  0
 49 50  2  0  0  0  0
 51 55  1  0  0  0  0
 51 54  1  0  0  0  0
 53 56  1  6  0  0  0
 53 54  1  0  0  0  0
 53 52  1  0  0  0  0
 54 49  1  6  0  0  0
 55 52  1  0  0  0  0
 56 57  1  0  0  0  0
 57 58  1  0  0  0  0
 59 57  2  0  0  0  0
M  END
>  <MODEL>
3

>  <REMARK>
 VINA RESULT:      -4.9      3.105      9.065
  Name = 
  30 active torsions:
  status: ('A' for Active; 'I' for Inactive)
    1  A    between atoms: N_1  and  C_16
    2  A    between atoms: N_1  and  C_25
    3  A    between atoms: N_1  and  C_29
    4  A    between atoms: C_4  and  C_17
    5  A    between atoms: C_6  and  C_19
    6  A    between atoms: C_6  and  C_35
    7  A    between atoms: N_9  and  C_37
    8  A    between atoms: N_9  and  C_43
    9  A    between atoms: C_12  and  C_46
   10  A    between atoms: C_12  and  C_54
   11  A    between atoms: N_14  and  N_55
   12  A    between atoms: N_14  and  C_59
   13  A    between atoms: C_16  and  C_31
   14  A    between atoms: C_17  and  C_18
   15  A    between atoms: C_21  and  N_30
   16  A    between atoms: C_21  and  N_55
   17  A    between atoms: C_23  and  C_41
   18  A    between atoms: C_23  and  C_49
   19  A    between atoms: N_24  and  C_58
   20  A    between atoms: C_25  and  O_48
   21  A    between atoms: C_26  and  C_29
   22  A    between atoms: C_28  and  C_43
   23  A    between atoms: C_28  and  O_47
   24  A    between atoms: N_30  and  C_31
   25  A    between atoms: C_32  and  C_37
   26  A    between atoms: C_35  and  C_57
   27  A    between atoms: C_41  and  O_47
   28  A    between atoms: C_46  and  O_48
   29  A    between atoms: C_49  and  C_50
   30  A    between atoms: C_57  and  C_59
                            x       y       z     vdW  Elec       q    Type
                         _______ _______ _______ _____ _____    ______ ____

>  <TORSDO>
F 30

$$$$
=
 OpenBabel10222420043D

 59 62  0  0  1  0  0  0  0  0999 V2000
  188.0220  176.9230  144.8190 C   0  0  0  0  0  2  0  0  0  0  0  0
  192.1140  176.6270  142.0190 O   0  0  0  0  0  0  0  0  0  0  0  0
  187.3350  177.6320  142.5240 C   0  0  0  0  0  3  0  0  0  0  0  0
  186.4840  178.3370  140.3420 C   0  0  0  0  0  1  0  0  0  0  0  0
  191.6160  177.3600  139.9180 N   0  0  0  0  0  0  0  0  0  0  0  0
  188.3320  177.1840  143.3840 C   0  0  0  0  0  0  0  0  0  0  0  0
  190.7140  177.8540  139.0310 C   0  0  0  0  0  3  0  0  0  0  0  0
  191.2580  177.0710  141.2040 C   0  0  0  0  0  0  0  0  0  0  0  0
  189.9350  177.2720  141.6290 C   0  0  0  0  0  0  0  0  0  0  0  0
  188.9640  177.7640  140.7170 C   0  0  0  0  0  0  0  0  0  0  0  0
  189.5930  177.0060  142.9210 N   0  0  0  0  0  0  0  0  0  0  0  0
  189.3820  178.0730  139.3940 C   0  0  0  0  0  0  0  0  0  0  0  0
  187.6320  177.9150  141.1930 C   0  0  0  0  0  0  0  0  0  0  0  0
  193.0020  176.2280  138.2550 C   0  0  0  0  0  1  0  0  0  0  0  0
  192.9860  177.1540  139.4600 C   0  0  0  0  0  2  0  0  0  0  0  0
  188.4900  178.6930  138.3660 C   0  0  0  0  0  2  0  0  0  0  0  0
  189.1810  178.7220  137.0150 C   0  0  0  0  0  2  0  0  0  0  0  0
  189.4820  177.3100  136.5510 C   0  0  0  0  0  2  0  0  0  0  0  0
  188.5760  176.9440  135.5530 O   0  0  0  0  0  0  0  0  0  0  0  0
  189.2310  175.9490  134.8240 C   0  0  0  0  0  2  0  0  0  0  0  0
  188.6400  174.5720  136.6760 O   0  0  0  0  0  1  0  0  0  0  0  0
  188.7590  174.5830  135.2830 C   0  0  2  0  0  3  0  0  0  0  0  0
  189.7200  173.5740  134.8620 N   0  0  0  0  0  2  0  0  0  0  0  0
  191.0150  173.9150  135.4340 C   0  0  0  0  0  2  0  0  0  0  0  0
  193.6290  170.5790  136.1320 C   0  0  0  0  0  2  0  0  0  0  0  0
  191.9090  171.7250  134.6070 C   0  0  0  0  0  2  0  0  0  0  0  0
  191.7840  172.6580  135.8100 C   0  0  0  0  0  3  0  0  0  0  0  0
  192.6230  170.4200  134.9840 C   0  0  0  0  0  2  0  0  0  0  0  0
  194.2400  171.9770  136.1420 C   0  0  0  0  0  2  0  0  0  0  0  0
  193.1630  173.0510  136.3550 C   0  0  0  0  0  2  0  0  0  0  0  0
  187.6450  178.1540  145.5060 N   0  0  0  0  0  0  0  0  0  0  0  0
  188.4830  178.3230  146.6990 C   0  0  0  0  0  2  0  0  0  0  0  0
  188.5030  177.1650  147.4870 O   0  0  0  0  0  0  0  0  0  0  0  0
  189.7850  177.1400  148.0430 C   0  0  0  0  0  2  0  0  0  0  0  0
  190.7600  176.4690  147.0900 C   0  0  0  0  0  2  0  0  0  0  0  0
  192.8140  175.2550  147.0490 O   0  0  0  0  0  1  0  0  0  0  0  0
  192.0910  176.2060  147.7680 C   0  0  0  0  0  2  0  0  0  0  0  0
  186.2570  178.0070  145.9210 C   0  0  0  0  0  2  0  0  0  0  0  0
  185.3250  178.4410  144.8040 C   0  0  0  0  0  2  0  0  0  0  0  0
  184.2070  179.1760  145.3690 N   0  0  0  0  0  2  0  0  0  0  0  0
  183.0640  178.9190  144.5130 C   0  0  0  0  0  2  0  0  0  0  0  0
  183.3860  179.3090  143.1530 N   0  0  0  0  0  2  0  0  0  0  0  0
  183.1280  178.1990  142.3390 N   0  0  0  0  0  2  0  0  0  0  0  0
  183.0460  178.6900  140.9760 C   0  0  0  0  0  2  0  0  0  0  0  0
  180.8160  179.5110  140.6530 O   0  0  0  0  0  1  0  0  0  0  0  0
  181.6620  178.4220  140.4080 C   0  0  1  0  0  3  0  0  0  0  0  0
  181.7540  178.1200  138.9120 C   0  0  2  0  0  3  0  0  0  0  0  0
  181.4860  179.3390  138.0420 C   0  0  0  0  0  1  0  0  0  0  0  0
  180.8830  176.9690  138.5140 C   0  0  0  0  0  0  0  0  0  0  0  0
  179.7100  177.1800  138.2460 O   0  0  0  0  0  0  0  0  0  0  0  0
  180.6240  174.6300  137.6070 C   0  0  0  0  0  2  0  0  0  0  0  0
  182.9860  173.9750  137.5850 C   0  0  0  0  0  2  0  0  0  0  0  0
  182.8860  175.4150  138.0560 C   0  0  2  0  0  3  0  0  0  0  0  0
  181.4290  175.5630  138.4840 C   0  0  1  0  0  3  0  0  0  0  0  0
  181.5800  173.5240  137.2070 C   0  0  0  0  0  2  0  0  0  0  0  0
  183.2770  176.3500  136.9110 C   0  0  0  0  0  2  0  0  0  0  0  0
  184.6540  176.8810  137.1110 C   0  0  0  0  0  0  0  0  0  0  0  0
  185.6510  176.1400  136.9130 O   0  0  0  0  0  0  0  0  0  0  0  0
  184.8420  178.2020  137.4950 O   0  0  0  0  0  1  0  0  0  0  0  0
  1 31  1  0  0  0  0
  3  6  1  0  0  0  0
  4 13  1  0  0  0  0
  5  8  1  0  0  0  0
  6  1  1  0  0  0  0
  7 12  2  0  0  0  0
  7  5  1  0  0  0  0
  8  9  1  0  0  0  0
  8  2  2  0  0  0  0
  9 11  1  0  0  0  0
 10 13  1  0  0  0  0
 10  9  2  0  0  0  0
 11  6  2  0  0  0  0
 12 10  1  0  0  0  0
 13  3  2  0  0  0  0
 14 15  1  0  0  0  0
 15  5  1  0  0  0  0
 16 12  1  0  0  0  0
 17 16  1  0  0  0  0
 18 17  1  0  0  0  0
 19 18  1  0  0  0  0
 20 22  1  0  0  0  0
 20 19  1  0  0  0  0
 22 21  1  1  0  0  0
 23 22  1  0  0  0  0
 23 24  1  0  0  0  0
 24 27  1  0  0  0  0
 25 29  1  0  0  0  0
 26 28  1  0  0  0  0
 26 27  1  0  0  0  0
 27 30  1  0  0  0  0
 28 25  1  0  0  0  0
 29 30  1  0  0  0  0
 31 38  1  0  0  0  0
 31 32  1  0  0  0  0
 32 33  1  0  0  0  0
 33 34  1  0  0  0  0
 35 37  1  0  0  0  0
 35 34  1  0  0  0  0
 36 37  1  0  0  0  0
 39 40  1  0  0  0  0
 39 38  1  0  0  0  0
 41 40  1  0  0  0  0
 42 41  1  0  0  0  0
 43 42  1  0  0  0  0
 44 43  1  0  0  0  0
 46 45  1  6  0  0  0
 46 44  1  0  0  0  0
 47 48  1  6  0  0  0
 47 46  1  0  0  0  0
 49 47  1  0  0  0  0
 50 49  2  0  0  0  0
 51 54  1  0  0  0  0
 52 53  1  0  0  0  0
 53 56  1  6  0  0  0
 53 54  1  0  0  0  0
 54 49  1  6  0  0  0
 55 52  1  0  0  0  0
 55 51  1  0  0  0  0
 56 57  1  0  0  0  0
 57 59  1  0  0  0  0
 58 57  2  0  0  0  0
M  END
>  <MODEL>
4

>  <REMARK>
 VINA RESULT:      -4.6      2.847      9.714
  Name = 
  30 active torsions:
  status: ('A' for Active; 'I' for Inactive)
    1  A    between atoms: N_1  and  C_16
    2  A    between atoms: N_1  and  C_25
    3  A    between atoms: N_1  and  C_29
    4  A    between atoms: C_4  and  C_17
    5  A    between atoms: C_6  and  C_19
    6  A    between atoms: C_6  and  C_35
    7  A    between atoms: N_9  and  C_37
    8  A    between atoms: N_9  and  C_43
    9  A    between atoms: C_12  and  C_46
   10  A    between atoms: C_12  and  C_54
   11  A    between atoms: N_14  and  N_55
   12  A    between atoms: N_14  and  C_59
   13  A    between atoms: C_16  and  C_31
   14  A    between atoms: C_17  and  C_18
   15  A    between atoms: C_21  and  N_30
   16  A    between atoms: C_21  and  N_55
   17  A    between atoms: C_23  and  C_41
   18  A    between atoms: C_23  and  C_49
   19  A    between atoms: N_24  and  C_58
   20  A    between atoms: C_25  and  O_48
   21  A    between atoms: C_26  and  C_29
   22  A    between atoms: C_28  and  C_43
   23  A    between atoms: C_28  and  O_47
   24  A    between atoms: N_30  and  C_31
   25  A    between atoms: C_32  and  C_37
   26  A    between atoms: C_35  and  C_57
   27  A    between atoms: C_41  and  O_47
   28  A    between atoms: C_46  and  O_48
   29  A    between atoms: C_49  and  C_50
   30  A    between atoms: C_57  and  C_59
                            x       y       z     vdW  Elec       q    Type
                         _______ _______ _______ _____ _____    ______ ____

>  <TORSDO>
F 30

$$$$
=
 OpenBabel10222420043D

 59 62  0  0  1  0  0  0  0  0999 V2000
  184.8620  177.9640  142.5880 C   0  0  0  0  0  2  0  0  0  0  0  0
  188.9420  176.4500  144.9840 O   0  0  0  0  0  0  0  0  0  0  0  0
  186.7070  178.0250  140.9060 C   0  0  0  0  0  3  0  0  0  0  0  0
  188.3840  178.1320  139.1270 C   0  0  0  0  0  1  0  0  0  0  0  0
  190.7150  176.5730  143.5550 N   0  0  0  0  0  0  0  0  0  0  0  0
  186.2880  177.7560  142.2040 C   0  0  0  0  0  0  0  0  0  0  0  0
  191.2140  176.8690  142.3270 C   0  0  0  0  0  3  0  0  0  0  0  0
  189.3850  176.7140  143.8310 C   0  0  0  0  0  0  0  0  0  0  0  0
  188.5030  177.1620  142.8350 C   0  0  0  0  0  0  0  0  0  0  0  0
  188.9910  177.4550  141.5340 C   0  0  0  0  0  0  0  0  0  0  0  0
  187.1820  177.3250  143.1270 N   0  0  0  0  0  0  0  0  0  0  0  0
  190.3860  177.3160  141.2950 C   0  0  0  0  0  0  0  0  0  0  0  0
  188.0470  177.8710  140.5550 C   0  0  0  0  0  0  0  0  0  0  0  0
  191.6950  177.0980  145.7310 C   0  0  0  0  0  1  0  0  0  0  0  0
  191.6450  176.1070  144.5790 C   0  0  0  0  0  2  0  0  0  0  0  0
  191.0460  177.6880  140.0050 C   0  0  0  0  0  2  0  0  0  0  0  0
  191.2060  176.4640  139.1210 C   0  0  0  0  0  2  0  0  0  0  0  0
  192.4510  176.5950  138.2670 C   0  0  0  0  0  2  0  0  0  0  0  0
  192.6540  175.4100  137.5550 O   0  0  0  0  0  0  0  0  0  0  0  0
  193.1670  175.8190  136.3210 C   0  0  0  0  0  2  0  0  0  0  0  0
  194.9150  177.1110  135.3470 O   0  0  0  0  0  1  0  0  0  0  0  0
  194.5310  176.4520  136.5180 C   0  0  2  0  0  3  0  0  0  0  0  0
  195.5010  175.4150  136.8410 N   0  0  0  0  0  2  0  0  0  0  0  0
  195.9370  174.7980  135.5970 C   0  0  0  0  0  2  0  0  0  0  0  0
  197.5320  171.0370  136.9230 C   0  0  0  0  0  2  0  0  0  0  0  0
  197.7930  173.5880  136.7670 C   0  0  0  0  0  2  0  0  0  0  0  0
  196.5710  173.4420  135.8620 C   0  0  0  0  0  3  0  0  0  0  0  0
  198.4870  172.2370  136.9920 C   0  0  0  0  0  2  0  0  0  0  0  0
  196.1290  171.4190  137.3850 C   0  0  0  0  0  2  0  0  0  0  0  0
  195.5250  172.5070  136.4860 C   0  0  0  0  0  2  0  0  0  0  0  0
  184.4790  179.3630  142.4400 N   0  0  0  0  0  0  0  0  0  0  0  0
  184.3370  179.9730  143.7680 C   0  0  0  0  0  2  0  0  0  0  0  0
  184.3220  179.0080  144.7830 O   0  0  0  0  0  0  0  0  0  0  0  0
  185.5010  179.2330  145.5000 C   0  0  0  0  0  2  0  0  0  0  0  0
  185.4660  178.4860  146.8220 C   0  0  0  0  0  2  0  0  0  0  0  0
  187.6190  178.2230  147.8180 O   0  0  0  0  0  1  0  0  0  0  0  0
  186.4930  179.0440  147.7900 C   0  0  0  0  0  2  0  0  0  0  0  0
  183.1850  179.3860  141.7700 C   0  0  0  0  0  2  0  0  0  0  0  0
  183.3270  178.9030  140.3380 C   0  0  0  0  0  2  0  0  0  0  0  0
  182.6420  177.6300  140.1910 N   0  0  0  0  0  2  0  0  0  0  0  0
  181.6290  177.8170  139.1700 C   0  0  0  0  0  2  0  0  0  0  0  0
  182.2620  177.8230  137.8630 N   0  0  0  0  0  2  0  0  0  0  0  0
  183.0840  176.6910  137.8040 N   0  0  0  0  0  2  0  0  0  0  0  0
  182.4730  175.7800  136.8530 C   0  0  0  0  0  2  0  0  0  0  0  0
  182.3490  173.3970  136.6130 O   0  0  0  0  0  1  0  0  0  0  0  0
  183.2310  174.4620  136.8330 C   0  0  1  0  0  3  0  0  0  0  0  0
  184.3270  174.5000  135.7690 C   0  0  2  0  0  3  0  0  0  0  0  0
  184.5130  173.1670  135.0590 C   0  0  0  0  0  1  0  0  0  0  0  0
  185.6270  175.0070  136.3130 C   0  0  0  0  0  0  0  0  0  0  0  0
  186.0350  174.5660  137.3760 O   0  0  0  0  0  0  0  0  0  0  0  0
  186.1620  177.4660  136.1430 C   0  0  0  0  0  2  0  0  0  0  0  0
  188.4470  177.2910  135.2740 C   0  0  0  0  0  2  0  0  0  0  0  0
  187.9130  175.8910  135.5210 C   0  0  2  0  0  3  0  0  0  0  0  0
  186.4000  176.0800  135.5870 C   0  0  1  0  0  3  0  0  0  0  0  0
  187.3890  178.2720  135.7630 C   0  0  0  0  0  2  0  0  0  0  0  0
  188.5110  175.3430  136.8170 C   0  0  0  0  0  2  0  0  0  0  0  0
  189.4080  174.1870  136.5360 C   0  0  0  0  0  0  0  0  0  0  0  0
  189.8860  173.5140  137.4860 O   0  0  0  0  0  1  0  0  0  0  0  0
  189.7000  173.8350  135.2260 O   0  0  0  0  0  0  0  0  0  0  0  0
  3  6  1  0  0  0  0
  4 13  1  0  0  0  0
  5  8  1  0  0  0  0
  5 15  1  0  0  0  0
  6  1  1  0  0  0  0
  6 11  2  0  0  0  0
  7  5  1  0  0  0  0
  8  2  2  0  0  0  0
  9 11  1  0  0  0  0
  9  8  1  0  0  0  0
 10  9  2  0  0  0  0
 12 10  1  0  0  0  0
 12  7  2  0  0  0  0
 13  3  2  0  0  0  0
 13 10  1  0  0  0  0
 15 14  1  0  0  0  0
 16 12  1  0  0  0  0
 17 16  1  0  0  0  0
 18 17  1  0  0  0  0
 19 18  1  0  0  0  0
 20 22  1  0  0  0  0
 20 19  1  0  0  0  0
 22 21  1  6  0  0  0
 22 23  1  0  0  0  0
 24 27  1  0  0  0  0
 24 23  1  0  0  0  0
 25 28  1  0  0  0  0
 25 29  1  0  0  0  0
 26 28  1  0  0  0  0
 27 30  1  0  0  0  0
 27 26  1  0  0  0  0
 30 29  1  0  0  0  0
 31  1  1  0  0  0  0
 31 32  1  0  0  0  0
 32 33  1  0  0  0  0
 33 34  1  0  0  0  0
 34 35  1  0  0  0  0
 35 37  1  0  0  0  0
 37 36  1  0  0  0  0
 38 31  1  0  0  0  0
 39 38  1  0  0  0  0
 40 39  1  0  0  0  0
 41 40  1  0  0  0  0
 42 41  1  0  0  0  0
 43 42  1  0  0  0  0
 44 43  1  0  0  0  0
 46 45  1  6  0  0  0
 46 44  1  0  0  0  0
 47 48  1  1  0  0  0
 47 49  1  0  0  0  0
 47 46  1  0  0  0  0
 49 50  2  0  0  0  0
 52 53  1  0  0  0  0
 52 55  1  0  0  0  0
 53 54  1  0  0  0  0
 53 56  1  1  0  0  0
 54 51  1  0  0  0  0
 54 49  1  1  0  0  0
 55 51  1  0  0  0  0
 57 56  1  0  0  0  0
 57 58  1  0  0  0  0
 59 57  2  0  0  0  0
M  END
>  <MODEL>
5

>  <REMARK>
 VINA RESULT:      -4.6      2.438     11.280
  Name = 
  30 active torsions:
  status: ('A' for Active; 'I' for Inactive)
    1  A    between atoms: N_1  and  C_16
    2  A    between atoms: N_1  and  C_25
    3  A    between atoms: N_1  and  C_29
    4  A    between atoms: C_4  and  C_17
    5  A    between atoms: C_6  and  C_19
    6  A    between atoms: C_6  and  C_35
    7  A    between atoms: N_9  and  C_37
    8  A    between atoms: N_9  and  C_43
    9  A    between atoms: C_12  and  C_46
   10  A    between atoms: C_12  and  C_54
   11  A    between atoms: N_14  and  N_55
   12  A    between atoms: N_14  and  C_59
   13  A    between atoms: C_16  and  C_31
   14  A    between atoms: C_17  and  C_18
   15  A    between atoms: C_21  and  N_30
   16  A    between atoms: C_21  and  N_55
   17  A    between atoms: C_23  and  C_41
   18  A    between atoms: C_23  and  C_49
   19  A    between atoms: N_24  and  C_58
   20  A    between atoms: C_25  and  O_48
   21  A    between atoms: C_26  and  C_29
   22  A    between atoms: C_28  and  C_43
   23  A    between atoms: C_28  and  O_47
   24  A    between atoms: N_30  and  C_31
   25  A    between atoms: C_32  and  C_37
   26  A    between atoms: C_35  and  C_57
   27  A    between atoms: C_41  and  O_47
   28  A    between atoms: C_46  and  O_48
   29  A    between atoms: C_49  and  C_50
   30  A    between atoms: C_57  and  C_59
                            x       y       z     vdW  Elec       q    Type
                         _______ _______ _______ _____ _____    ______ ____

>  <TORSDO>
F 30

$$$$
=
 OpenBabel10222420043D

 59 62  0  0  1  0  0  0  0  0999 V2000
  192.4300  173.3730  136.6830 C   0  0  0  0  0  2  0  0  0  0  0  0
  189.4460  177.1420  137.9390 O   0  0  0  0  0  0  0  0  0  0  0  0
  190.1210  172.6630  136.0440 C   0  0  0  0  0  3  0  0  0  0  0  0
  187.9380  171.8100  135.3430 C   0  0  0  0  0  1  0  0  0  0  0  0
  187.2900  176.5460  137.4930 N   0  0  0  0  0  0  0  0  0  0  0  0
  190.9640  173.6290  136.5830 C   0  0  0  0  0  0  0  0  0  0  0  0
  186.3970  175.6320  137.0340 C   0  0  0  0  0  3  0  0  0  0  0  0
  188.6310  176.2850  137.4940 C   0  0  0  0  0  0  0  0  0  0  0  0
  189.1110  175.0590  137.0080 C   0  0  0  0  0  0  0  0  0  0  0  0
  188.2020  174.0930  136.4990 C   0  0  0  0  0  0  0  0  0  0  0  0
  190.4470  174.7970  137.0380 N   0  0  0  0  0  0  0  0  0  0  0  0
  186.8130  174.3950  136.5360 C   0  0  0  0  0  0  0  0  0  0  0  0
  188.7470  172.8830  135.9870 C   0  0  0  0  0  0  0  0  0  0  0  0
  185.2590  177.8370  137.9100 C   0  0  0  0  0  1  0  0  0  0  0  0
  186.7760  177.8170  137.9930 C   0  0  0  0  0  2  0  0  0  0  0  0
  185.7450  173.4300  136.1290 C   0  0  0  0  0  2  0  0  0  0  0  0
  184.9460  172.9860  137.3410 C   0  0  0  0  0  2  0  0  0  0  0  0
  183.4810  173.3270  137.1560 C   0  0  0  0  0  2  0  0  0  0  0  0
  183.3080  173.9970  135.9430 O   0  0  0  0  0  0  0  0  0  0  0  0
  182.1410  174.7460  136.1120 C   0  0  0  0  0  2  0  0  0  0  0  0
  180.6620  174.1490  137.8820 O   0  0  0  0  0  1  0  0  0  0  0  0
  181.8220  174.8720  137.5900 C   0  0  2  0  0  3  0  0  0  0  0  0
  181.6270  176.2750  137.9230 N   0  0  0  0  0  2  0  0  0  0  0  0
  180.3650  176.7080  137.3410 C   0  0  0  0  0  2  0  0  0  0  0  0
  180.5250  180.9720  136.8530 C   0  0  0  0  0  2  0  0  0  0  0  0
  179.1060  178.8740  137.2800 C   0  0  0  0  0  2  0  0  0  0  0  0
  180.4270  178.1780  136.9550 C   0  0  0  0  0  3  0  0  0  0  0  0
  179.1250  180.3430  136.8350 C   0  0  0  0  0  2  0  0  0  0  0  0
  181.3990  180.3460  137.9350 C   0  0  0  0  0  2  0  0  0  0  0  0
  181.6010  178.8440  137.6850 C   0  0  0  0  0  2  0  0  0  0  0  0
  193.1890  174.4000  135.9780 N   0  0  0  0  0  0  0  0  0  0  0  0
  193.8450  173.8030  134.8080 C   0  0  0  0  0  2  0  0  0  0  0  0
  194.1200  172.4440  135.0040 O   0  0  0  0  0  0  0  0  0  0  0  0
  195.5120  172.3510  134.9110 C   0  0  0  0  0  2  0  0  0  0  0  0
  196.0050  171.0950  135.6090 C   0  0  0  0  0  2  0  0  0  0  0  0
  195.4100  170.9040  137.9120 O   0  0  0  0  0  1  0  0  0  0  0  0
  194.9890  170.5970  136.6190 C   0  0  0  0  0  2  0  0  0  0  0  0
  194.2110  174.8840  136.8950 C   0  0  0  0  0  2  0  0  0  0  0  0
  194.0690  176.3820  137.0980 C   0  0  0  0  0  2  0  0  0  0  0  0
  192.7360  176.6760  137.5960 N   0  0  0  0  0  2  0  0  0  0  0  0
  192.9060  177.3500  138.8690 C   0  0  0  0  0  2  0  0  0  0  0  0
  192.0860  176.6950  139.8710 N   0  0  0  0  0  2  0  0  0  0  0  0
  192.2130  177.4390  141.0510 N   0  0  0  0  0  2  0  0  0  0  0  0
  191.1880  176.9600  141.9600 C   0  0  0  0  0  2  0  0  0  0  0  0
  188.9640  176.4790  141.2050 O   0  0  0  0  0  1  0  0  0  0  0  0
  189.8330  177.5190  141.5570 C   0  0  1  0  0  3  0  0  0  0  0  0
  189.2520  178.3630  142.6910 C   0  0  2  0  0  3  0  0  0  0  0  0
  190.2980  178.7940  143.7080 C   0  0  0  0  0  1  0  0  0  0  0  0
  188.0930  177.6910  143.3600 C   0  0  0  0  0  0  0  0  0  0  0  0
  186.9970  177.7260  142.8210 O   0  0  0  0  0  0  0  0  0  0  0  0
  189.6100  177.2750  145.3310 C   0  0  0  0  0  2  0  0  0  0  0  0
  187.9020  177.0280  147.0710 C   0  0  0  0  0  2  0  0  0  0  0  0
  187.2130  177.3520  145.7570 C   0  0  2  0  0  3  0  0  0  0  0  0
  188.2600  177.0170  144.6990 C   0  0  1  0  0  3  0  0  0  0  0  0
  189.4040  177.0850  146.8200 C   0  0  0  0  0  2  0  0  0  0  0  0
  186.7990  178.8240  145.7530 C   0  0  0  0  0  2  0  0  0  0  0  0
  185.6500  179.0500  146.6730 C   0  0  0  0  0  0  0  0  0  0  0  0
  184.5270  178.5430  146.4170 O   0  0  0  0  0  0  0  0  0  0  0  0
  185.8190  179.8000  147.8280 O   0  0  0  0  0  1  0  0  0  0  0  0
  3  6  1  0  0  0  0
  4 13  1  0  0  0  0
  5  8  1  0  0  0  0
  5 15  1  0  0  0  0
  6  1  1  0  0  0  0
  6 11  2  0  0  0  0
  7  5  1  0  0  0  0
  8  2  2  0  0  0  0
  9 11  1  0  0  0  0
  9  8  1  0  0  0  0
 10 12  1  0  0  0  0
 10  9  2  0  0  0  0
 12  7  2  0  0  0  0
 13  3  2  0  0  0  0
 13 10  1  0  0  0  0
 14 15  1  0  0  0  0
 16 12  1  0  0  0  0
 16 17  1  0  0  0  0
 18 17  1  0  0  0  0
 19 20  1  0  0  0  0
 19 18  1  0  0  0  0
 20 22  1  0  0  0  0
 22 21  1  6  0  0  0
 22 23  1  0  0  0  0
 24 23  1  0  0  0  0
 25 29  1  0  0  0  0
 27 26  1  0  0  0  0
 27 24  1  0  0  0  0
 27 30  1  0  0  0  0
 28 25  1  0  0  0  0
 28 26  1  0  0  0  0
 30 29  1  0  0  0  0
 31  1  1  0  0  0  0
 31 38  1  0  0  0  0
 32 33  1  0  0  0  0
 32 31  1  0  0  0  0
 34 33  1  0  0  0  0
 34 35  1  0  0  0  0
 35 37  1  0  0  0  0
 37 36  1  0  0  0  0
 38 39  1  0  0  0  0
 39 40  1  0  0  0  0
 40 41  1  0  0  0  0
 41 42  1  0  0  0  0
 42 43  1  0  0  0  0
 43 44  1  0  0  0  0
 46 45  1  1  0  0  0
 46 44  1  0  0  0  0
 46 47  1  0  0  0  0
 47 49  1  0  0  0  0
 47 48  1  1  0  0  0
 50 49  2  0  0  0  0
 51 55  1  0  0  0  0
 53 56  1  1  0  0  0
 53 52  1  0  0  0  0
 54 49  1  6  0  0  0
 54 51  1  0  0  0  0
 54 53  1  0  0  0  0
 55 52  1  0  0  0  0
 56 57  1  0  0  0  0
 57 59  1  0  0  0  0
 58 57  2  0  0  0  0
M  END
>  <MODEL>
6

>  <REMARK>
 VINA RESULT:      -4.3      1.986      2.514
  Name = 
  30 active torsions:
  status: ('A' for Active; 'I' for Inactive)
    1  A    between atoms: N_1  and  C_16
    2  A    between atoms: N_1  and  C_25
    3  A    between atoms: N_1  and  C_29
    4  A    between atoms: C_4  and  C_17
    5  A    between atoms: C_6  and  C_19
    6  A    between atoms: C_6  and  C_35
    7  A    between atoms: N_9  and  C_37
    8  A    between atoms: N_9  and  C_43
    9  A    between atoms: C_12  and  C_46
   10  A    between atoms: C_12  and  C_54
   11  A    between atoms: N_14  and  N_55
   12  A    between atoms: N_14  and  C_59
   13  A    between atoms: C_16  and  C_31
   14  A    between atoms: C_17  and  C_18
   15  A    between atoms: C_21  and  N_30
   16  A    between atoms: C_21  and  N_55
   17  A    between atoms: C_23  and  C_41
   18  A    between atoms: C_23  and  C_49
   19  A    between atoms: N_24  and  C_58
   20  A    between atoms: C_25  and  O_48
   21  A    between atoms: C_26  and  C_29
   22  A    between atoms: C_28  and  C_43
   23  A    between atoms: C_28  and  O_47
   24  A    between atoms: N_30  and  C_31
   25  A    between atoms: C_32  and  C_37
   26  A    between atoms: C_35  and  C_57
   27  A    between atoms: C_41  and  O_47
   28  A    between atoms: C_46  and  O_48
   29  A    between atoms: C_49  and  C_50
   30  A    between atoms: C_57  and  C_59
                            x       y       z     vdW  Elec       q    Type
                         _______ _______ _______ _____ _____    ______ ____

>  <TORSDO>
F 30

$$$$
=
 OpenBabel10222420043D

 59 62  0  0  1  0  0  0  0  0999 V2000
  188.6390  178.8390  136.9290 C   0  0  0  0  0  2  0  0  0  0  0  0
  184.4580  179.7430  139.4550 O   0  0  0  0  0  0  0  0  0  0  0  0
  186.8660  177.4620  135.8350 C   0  0  0  0  0  3  0  0  0  0  0  0
  185.2580  176.0620  134.6330 C   0  0  0  0  0  1  0  0  0  0  0  0
  182.7910  178.4440  138.5970 N   0  0  0  0  0  0  0  0  0  0  0  0
  187.2260  178.3730  136.8210 C   0  0  0  0  0  0  0  0  0  0  0  0
  182.3730  177.5130  137.7010 C   0  0  0  0  0  3  0  0  0  0  0  0
  184.0830  178.8880  138.6040 C   0  0  0  0  0  0  0  0  0  0  0  0
  185.0040  178.3920  137.6680 C   0  0  0  0  0  0  0  0  0  0  0  0
  184.5890  177.4360  136.7030 C   0  0  0  0  0  0  0  0  0  0  0  0
  186.2960  178.8210  137.6990 N   0  0  0  0  0  0  0  0  0  0  0  0
  183.2420  176.9830  136.7440 C   0  0  0  0  0  0  0  0  0  0  0  0
  185.5550  176.9940  135.7570 C   0  0  0  0  0  0  0  0  0  0  0  0
  181.0490  177.8000  140.1840 C   0  0  0  0  0  1  0  0  0  0  0  0
  181.8220  178.9520  139.5620 C   0  0  0  0  0  2  0  0  0  0  0  0
  182.7020  175.9070  135.8560 C   0  0  0  0  0  2  0  0  0  0  0  0
  183.1570  174.5430  136.3430 C   0  0  0  0  0  2  0  0  0  0  0  0
  181.9860  173.7820  136.9350 C   0  0  0  0  0  2  0  0  0  0  0  0
  181.2680  173.1620  135.9100 O   0  0  0  0  0  0  0  0  0  0  0  0
  181.2800  171.8040  136.2370 C   0  0  0  0  0  2  0  0  0  0  0  0
  181.0780  170.0880  134.5960 O   0  0  0  0  0  1  0  0  0  0  0  0
  181.9700  171.0190  135.1370 C   0  0  2  0  0  3  0  0  0  0  0  0
  183.1280  170.3300  135.6900 N   0  0  0  0  0  2  0  0  0  0  0  0
  183.9460  171.3100  136.3900 C   0  0  0  0  0  2  0  0  0  0  0  0
  187.8400  171.6750  134.6160 C   0  0  0  0  0  2  0  0  0  0  0  0
  186.2290  172.3370  136.5040 C   0  0  0  0  0  2  0  0  0  0  0  0
  185.2320  171.5810  135.6260 C   0  0  0  0  0  3  0  0  0  0  0  0
  187.5090  172.6790  135.7280 C   0  0  0  0  0  2  0  0  0  0  0  0
  187.3470  170.2750  134.9690 C   0  0  0  0  0  2  0  0  0  0  0  0
  185.8200  170.2510  135.1360 C   0  0  0  0  0  2  0  0  0  0  0  0
  189.5520  177.7110  137.0800 N   0  0  0  0  0  0  0  0  0  0  0  0
  189.2460  176.6970  136.0640 C   0  0  0  0  0  2  0  0  0  0  0  0
  189.6380  175.4160  136.4760 O   0  0  0  0  0  0  0  0  0  0  0  0
  190.8360  175.1800  135.7960 C   0  0  0  0  0  2  0  0  0  0  0  0
  191.3780  173.8030  136.1410 C   0  0  0  0  0  2  0  0  0  0  0  0
  193.0830  173.9970  137.7990 O   0  0  0  0  0  1  0  0  0  0  0  0
  192.8660  173.8590  136.4280 C   0  0  0  0  0  2  0  0  0  0  0  0
  189.3180  177.1430  138.4000 C   0  0  0  0  0  2  0  0  0  0  0  0
  189.3740  178.2290  139.4590 C   0  0  0  0  0  2  0  0  0  0  0  0
  188.0220  178.6020  139.8380 N   0  0  0  0  0  2  0  0  0  0  0  0
  187.9190  178.3930  141.2700 C   0  0  0  0  0  2  0  0  0  0  0  0
  186.5870  178.7630  141.7130 N   0  0  0  0  0  2  0  0  0  0  0  0
  186.6140  178.7800  143.1130 N   0  0  0  0  0  2  0  0  0  0  0  0
  185.2410  178.6330  143.5590 C   0  0  0  0  0  2  0  0  0  0  0  0
  183.7870  179.6030  145.2010 O   0  0  0  0  0  1  0  0  0  0  0  0
  185.0950  179.1560  144.9790 C   0  0  1  0  0  3  0  0  0  0  0  0
  185.4860  178.0730  145.9840 C   0  0  2  0  0  3  0  0  0  0  0  0
  185.5400  178.5820  147.4170 C   0  0  0  0  0  1  0  0  0  0  0  0
  186.7610  177.3850  145.6060 C   0  0  0  0  0  0  0  0  0  0  0  0
  186.7200  176.4570  144.8130 O   0  0  0  0  0  0  0  0  0  0  0  0
  188.4700  176.9400  147.4070 C   0  0  0  0  0  2  0  0  0  0  0  0
  190.4710  177.7170  146.2230 C   0  0  0  0  0  2  0  0  0  0  0  0
  189.2780  177.8360  145.2910 C   0  0  2  0  0  3  0  0  0  0  0  0
  188.0730  177.7980  146.2260 C   0  0  1  0  0  3  0  0  0  0  0  0
  189.9780  177.0600  147.5060 C   0  0  0  0  0  2  0  0  0  0  0  0
  189.3020  176.6800  144.2890 C   0  0  0  0  0  2  0  0  0  0  0  0
  190.5890  176.6600  143.5400 C   0  0  0  0  0  0  0  0  0  0  0  0
  191.2630  175.6000  143.4720 O   0  0  0  0  0  1  0  0  0  0  0  0
  191.0370  177.8030  142.8930 O   0  0  0  0  0  0  0  0  0  0  0  0
  1 31  1  0  0  0  0
  3  6  1  0  0  0  0
  4 13  1  0  0  0  0
  5  8  1  0  0  0  0
  5 15  1  0  0  0  0
  6  1  1  0  0  0  0
  6 11  2  0  0  0  0
  7  5  1  0  0  0  0
  8  2  2  0  0  0  0
  9 11  1  0  0  0  0
  9  8  1  0  0  0  0
 10 12  1  0  0  0  0
 10  9  2  0  0  0  0
 12  7  2  0  0  0  0
 13  3  2  0  0  0  0
 13 10  1  0  0  0  0
 15 14  1  0  0  0  0
 16 17  1  0  0  0  0
 16 12  1  0  0  0  0
 17 18  1  0  0  0  0
 19 20  1  0  0  0  0
 19 18  1  0  0  0  0
 22 21  1  1  0  0  0
 22 23  1  0  0  0  0
 22 20  1  0  0  0  0
 23 24  1  0  0  0  0
 25 29  1  0  0  0  0
 25 28  1  0  0  0  0
 27 24  1  0  0  0  0
 27 26  1  0  0  0  0
 28 26  1  0  0  0  0
 29 30  1  0  0  0  0
 30 27  1  0  0  0  0
 31 38  1  0  0  0  0
 32 33  1  0  0  0  0
 32 31  1  0  0  0  0
 34 35  1  0  0  0  0
 34 33  1  0  0  0  0
 35 37  1  0  0  0  0
 37 36  1  0  0  0  0
 38 39  1  0  0  0  0
 39 40  1  0  0  0  0
 40 41  1  0  0  0  0
 41 42  1  0  0  0  0
 42 43  1  0  0  0  0
 43 44  1  0  0  0  0
 44 46  1  0  0  0  0
 46 45  1  1  0  0  0
 46 47  1  0  0  0  0
 47 48  1  1  0  0  0
 49 47  1  0  0  0  0
 50 49  2  0  0  0  0
 51 55  1  0  0  0  0
 52 55  1  0  0  0  0
 53 56  1  6  0  0  0
 53 52  1  0  0  0  0
 53 54  1  0  0  0  0
 54 49  1  6  0  0  0
 54 51  1  0  0  0  0
 57 56  1  0  0  0  0
 58 57  1  0  0  0  0
 59 57  2  0  0  0  0
M  END
>  <MODEL>
7

>  <REMARK>
 VINA RESULT:      -4.2      2.379      5.538
  Name = 
  30 active torsions:
  status: ('A' for Active; 'I' for Inactive)
    1  A    between atoms: N_1  and  C_16
    2  A    between atoms: N_1  and  C_25
    3  A    between atoms: N_1  and  C_29
    4  A    between atoms: C_4  and  C_17
    5  A    between atoms: C_6  and  C_19
    6  A    between atoms: C_6  and  C_35
    7  A    between atoms: N_9  and  C_37
    8  A    between atoms: N_9  and  C_43
    9  A    between atoms: C_12  and  C_46
   10  A    between atoms: C_12  and  C_54
   11  A    between atoms: N_14  and  N_55
   12  A    between atoms: N_14  and  C_59
   13  A    between atoms: C_16  and  C_31
   14  A    between atoms: C_17  and  C_18
   15  A    between atoms: C_21  and  N_30
   16  A    between atoms: C_21  and  N_55
   17  A    between atoms: C_23  and  C_41
   18  A    between atoms: C_23  and  C_49
   19  A    between atoms: N_24  and  C_58
   20  A    between atoms: C_25  and  O_48
   21  A    between atoms: C_26  and  C_29
   22  A    between atoms: C_28  and  C_43
   23  A    between atoms: C_28  and  O_47
   24  A    between atoms: N_30  and  C_31
   25  A    between atoms: C_32  and  C_37
   26  A    between atoms: C_35  and  C_57
   27  A    between atoms: C_41  and  O_47
   28  A    between atoms: C_46  and  O_48
   29  A    between atoms: C_49  and  C_50
   30  A    between atoms: C_57  and  C_59
                            x       y       z     vdW  Elec       q    Type
                         _______ _______ _______ _____ _____    ______ ____

>  <TORSDO>
F 30

$$$$
=
 OpenBabel10222420043D

 59 62  0  0  1  0  0  0  0  0999 V2000
  185.0280  180.1060  143.9030 C   0  0  0  0  0  2  0  0  0  0  0  0
  189.1920  177.4900  144.6060 O   0  0  0  0  0  0  0  0  0  0  0  0
  185.7290  179.3110  141.6410 C   0  0  0  0  0  3  0  0  0  0  0  0
  186.2550  178.6100  139.3570 C   0  0  0  0  0  1  0  0  0  0  0  0
  189.9770  176.8060  142.5770 N   0  0  0  0  0  0  0  0  0  0  0  0
  185.9590  179.3560  143.0110 C   0  0  0  0  0  0  0  0  0  0  0  0
  189.8540  176.7660  141.2250 C   0  0  0  0  0  3  0  0  0  0  0  0
  189.0530  177.4480  143.3520 C   0  0  0  0  0  0  0  0  0  0  0  0
  187.9460  178.0730  142.7560 C   0  0  0  0  0  0  0  0  0  0  0  0
  187.7780  178.0260  141.3470 C   0  0  0  0  0  0  0  0  0  0  0  0
  187.0440  178.7340  143.5340 N   0  0  0  0  0  0  0  0  0  0  0  0
  188.7730  177.3670  140.5750 C   0  0  0  0  0  0  0  0  0  0  0  0
  186.6200  178.6460  140.8010 C   0  0  0  0  0  0  0  0  0  0  0  0
  191.6540  176.9770  144.3450 C   0  0  0  0  0  1  0  0  0  0  0  0
  191.1320  176.1500  143.1810 C   0  0  0  0  0  2  0  0  0  0  0  0
  188.7740  177.3320  139.0790 C   0  0  0  0  0  2  0  0  0  0  0  0
  190.1810  177.1080  138.5570 C   0  0  0  0  0  2  0  0  0  0  0  0
  190.4280  175.6280  138.3370 C   0  0  0  0  0  2  0  0  0  0  0  0
  190.5070  175.3680  136.9670 O   0  0  0  0  0  0  0  0  0  0  0  0
  191.6180  176.0920  136.5290 C   0  0  0  0  0  2  0  0  0  0  0  0
  193.4030  177.0410  137.7900 O   0  0  0  0  0  1  0  0  0  0  0  0
  192.7960  175.8290  137.4480 C   0  0  2  0  0  3  0  0  0  0  0  0
  193.7550  174.9700  136.7690 N   0  0  0  0  0  2  0  0  0  0  0  0
  194.1030  173.8800  137.6690 C   0  0  0  0  0  2  0  0  0  0  0  0
  196.2550  170.6490  135.8310 C   0  0  0  0  0  2  0  0  0  0  0  0
  195.5770  171.8780  137.9820 C   0  0  0  0  0  2  0  0  0  0  0  0
  195.0190  172.8830  136.9760 C   0  0  0  0  0  3  0  0  0  0  0  0
  196.5580  170.9040  137.3140 C   0  0  0  0  0  2  0  0  0  0  0  0
  194.7610  170.7640  135.5440 C   0  0  0  0  0  2  0  0  0  0  0  0
  194.2440  172.1760  135.8560 C   0  0  0  0  0  2  0  0  0  0  0  0
  184.1110  179.1980  144.5840 N   0  0  0  0  0  0  0  0  0  0  0  0
  184.8590  178.3860  145.5520 C   0  0  0  0  0  2  0  0  0  0  0  0
  184.5470  178.7340  146.8720 O   0  0  0  0  0  0  0  0  0  0  0  0
  185.6660  178.3400  147.6130 C   0  0  0  0  0  2  0  0  0  0  0  0
  186.8790  178.2070  146.7080 C   0  0  0  0  0  2  0  0  0  0  0  0
  188.6490  178.3620  148.3000 O   0  0  0  0  0  1  0  0  0  0  0  0
  188.0120  177.4910  147.4170 C   0  0  0  0  0  2  0  0  0  0  0  0
  183.5430  178.3200  143.5710 C   0  0  0  0  0  2  0  0  0  0  0  0
  182.3230  178.9670  142.9400 C   0  0  0  0  0  2  0  0  0  0  0  0
  182.2010  178.5240  141.5620 N   0  0  0  0  0  2  0  0  0  0  0  0
  180.8180  178.7320  141.1770 C   0  0  0  0  0  2  0  0  0  0  0  0
  180.0720  177.5050  141.3910 N   0  0  0  0  0  2  0  0  0  0  0  0
  179.2190  177.3520  140.2910 N   0  0  0  0  0  2  0  0  0  0  0  0
  180.0190  176.7930  139.2160 C   0  0  0  0  0  2  0  0  0  0  0  0
  179.8330  174.4180  139.4920 O   0  0  0  0  0  1  0  0  0  0  0  0
  180.6900  175.5090  139.6800 C   0  0  1  0  0  3  0  0  0  0  0  0
  182.0110  175.3070  138.9380 C   0  0  2  0  0  3  0  0  0  0  0  0
  182.8650  176.5660  138.8890 C   0  0  0  0  0  1  0  0  0  0  0  0
  181.8090  174.7370  137.5680 C   0  0  0  0  0  0  0  0  0  0  0  0
  181.6740  175.5000  136.6240 O   0  0  0  0  0  0  0  0  0  0  0  0
  180.8240  172.8550  136.2100 C   0  0  0  0  0  2  0  0  0  0  0  0
  182.6580  171.2420  136.4220 C   0  0  0  0  0  2  0  0  0  0  0  0
  183.0540  172.5240  137.1350 C   0  0  2  0  0  3  0  0  0  0  0  0
  181.7280  173.2460  137.3580 C   0  0  1  0  0  3  0  0  0  0  0  0
  181.3100  171.4910  135.7580 C   0  0  0  0  0  2  0  0  0  0  0  0
  184.0290  173.3100  136.2570 C   0  0  0  0  0  2  0  0  0  0  0  0
  185.4160  173.2090  136.7910 C   0  0  0  0  0  0  0  0  0  0  0  0
  186.3940  173.5410  136.0730 O   0  0  0  0  0  0  0  0  0  0  0  0
  185.6330  172.7710  138.0900 O   0  0  0  0  0  1  0  0  0  0  0  0
  1 31  1  0  0  0  0
  3  6  1  0  0  0  0
  4 13  1  0  0  0  0
  5 15  1  0  0  0  0
  5  8  1  0  0  0  0
  6 11  2  0  0  0  0
  6  1  1  0  0  0  0
  7  5  1  0  0  0  0
  8  2  2  0  0  0  0
  9  8  1  0  0  0  0
  9 11  1  0  0  0  0
 10  9  2  0  0  0  0
 12  7  2  0  0  0  0
 12 10  1  0  0  0  0
 13 10  1  0  0  0  0
 13  3  2  0  0  0  0
 15 14  1  0  0  0  0
 16 12  1  0  0  0  0
 17 16  1  0  0  0  0
 18 17  1  0  0  0  0
 19 18  1  0  0  0  0
 20 19  1  0  0  0  0
 20 22  1  0  0  0  0
 22 21  1  6  0  0  0
 23 22  1  0  0  0  0
 23 24  1  0  0  0  0
 25 28  1  0  0  0  0
 27 24  1  0  0  0  0
 27 26  1  0  0  0  0
 28 26  1  0  0  0  0
 29 25  1  0  0  0  0
 29 30  1  0  0  0  0
 30 27  1  0  0  0  0
 31 32  1  0  0  0  0
 32 33  1  0  0  0  0
 33 34  1  0  0  0  0
 35 37  1  0  0  0  0
 35 34  1  0  0  0  0
 37 36  1  0  0  0  0
 38 31  1  0  0  0  0
 39 38  1  0  0  0  0
 40 39  1  0  0  0  0
 41 42  1  0  0  0  0
 41 40  1  0  0  0  0
 43 42  1  0  0  0  0
 44 46  1  0  0  0  0
 44 43  1  0  0  0  0
 46 45  1  6  0  0  0
 47 48  1  6  0  0  0
 47 46  1  0  0  0  0
 49 47  1  0  0  0  0
 50 49  2  0  0  0  0
 51 54  1  0  0  0  0
 52 53  1  0  0  0  0
 53 56  1  6  0  0  0
 53 54  1  0  0  0  0
 54 49  1  6  0  0  0
 55 51  1  0  0  0  0
 55 52  1  0  0  0  0
 56 57  1  0  0  0  0
 57 59  1  0  0  0  0
 58 57  2  0  0  0  0
M  END
>  <MODEL>
8

>  <REMARK>
 VINA RESULT:      -3.9      2.717     11.293
  Name = 
  30 active torsions:
  status: ('A' for Active; 'I' for Inactive)
    1  A    between atoms: N_1  and  C_16
    2  A    between atoms: N_1  and  C_25
    3  A    between atoms: N_1  and  C_29
    4  A    between atoms: C_4  and  C_17
    5  A    between atoms: C_6  and  C_19
    6  A    between atoms: C_6  and  C_35
    7  A    between atoms: N_9  and  C_37
    8  A    between atoms: N_9  and  C_43
    9  A    between atoms: C_12  and  C_46
   10  A    between atoms: C_12  and  C_54
   11  A    between atoms: N_14  and  N_55
   12  A    between atoms: N_14  and  C_59
   13  A    between atoms: C_16  and  C_31
   14  A    between atoms: C_17  and  C_18
   15  A    between atoms: C_21  and  N_30
   16  A    between atoms: C_21  and  N_55
   17  A    between atoms: C_23  and  C_41
   18  A    between atoms: C_23  and  C_49
   19  A    between atoms: N_24  and  C_58
   20  A    between atoms: C_25  and  O_48
   21  A    between atoms: C_26  and  C_29
   22  A    between atoms: C_28  and  C_43
   23  A    between atoms: C_28  and  O_47
   24  A    between atoms: N_30  and  C_31
   25  A    between atoms: C_32  and  C_37
   26  A    between atoms: C_35  and  C_57
   27  A    between atoms: C_41  and  O_47
   28  A    between atoms: C_46  and  O_48
   29  A    between atoms: C_49  and  C_50
   30  A    between atoms: C_57  and  C_59
                            x       y       z     vdW  Elec       q    Type
                         _______ _______ _______ _____ _____    ______ ____

>  <TORSDO>
F 30

$$$$
=
 OpenBabel10222420043D

 59 62  0  0  1  0  0  0  0  0999 V2000
  188.8040  176.8310  144.9340 C   0  0  0  0  0  2  0  0  0  0  0  0
  192.2980  176.2970  141.4440 O   0  0  0  0  0  0  0  0  0  0  0  0
  187.7670  177.6120  142.8000 C   0  0  0  0  0  3  0  0  0  0  0  0
  186.5870  178.3990  140.8070 C   0  0  0  0  0  1  0  0  0  0  0  0
  191.4820  177.0880  139.4660 N   0  0  0  0  0  0  0  0  0  0  0  0
  188.8690  177.0880  143.4660 C   0  0  0  0  0  0  0  0  0  0  0  0
  190.4710  177.6510  138.7560 C   0  0  0  0  0  3  0  0  0  0  0  0
  191.3410  176.8070  140.7960 C   0  0  0  0  0  0  0  0  0  0  0  0
  190.1340  177.0910  141.4520 C   0  0  0  0  0  0  0  0  0  0  0  0
  189.0500  177.6580  140.7300 C   0  0  0  0  0  0  0  0  0  0  0  0
  190.0120  176.8320  142.7840 N   0  0  0  0  0  0  0  0  0  0  0  0
  189.2440  177.9550  139.3530 C   0  0  0  0  0  0  0  0  0  0  0  0
  187.8380  177.8920  141.4370 C   0  0  0  0  0  0  0  0  0  0  0  0
  192.4490  176.4360  137.3200 C   0  0  0  0  0  1  0  0  0  0  0  0
  192.7300  176.7960  138.7690 C   0  0  0  0  0  2  0  0  0  0  0  0
  188.2260  178.6450  138.5020 C   0  0  0  0  0  2  0  0  0  0  0  0
  188.7450  178.8090  137.0850 C   0  0  0  0  0  2  0  0  0  0  0  0
  188.5700  177.5160  136.3120 C   0  0  0  0  0  2  0  0  0  0  0  0
  187.7400  177.7410  135.2110 O   0  0  0  0  0  0  0  0  0  0  0  0
  187.1080  176.5160  134.9850 C   0  0  0  0  0  2  0  0  0  0  0  0
  188.9270  174.9910  135.1930 O   0  0  0  0  0  1  0  0  0  0  0  0
  187.7640  175.4380  135.8270 C   0  0  2  0  0  3  0  0  0  0  0  0
  186.8370  174.3290  135.9970 N   0  0  0  0  0  2  0  0  0  0  0  0
  185.5080  174.7870  135.6170 C   0  0  0  0  0  2  0  0  0  0  0  0
  182.5690  171.7730  136.4670 C   0  0  0  0  0  2  0  0  0  0  0  0
  185.0030  172.5670  136.6650 C   0  0  0  0  0  2  0  0  0  0  0  0
  184.5000  173.6520  135.7150 C   0  0  0  0  0  3  0  0  0  0  0  0
  184.0300  171.3810  136.7240 C   0  0  0  0  0  2  0  0  0  0  0  0
  182.2860  173.1960  136.9380 C   0  0  0  0  0  2  0  0  0  0  0  0
  183.1480  174.2130  136.1770 C   0  0  0  0  0  2  0  0  0  0  0  0
  188.4740  178.0490  145.6650 N   0  0  0  0  0  0  0  0  0  0  0  0
  189.4670  178.2660  146.7250 C   0  0  0  0  0  2  0  0  0  0  0  0
  190.0580  177.0650  147.1360 O   0  0  0  0  0  0  0  0  0  0  0  0
  191.4200  177.3620  147.2440 C   0  0  0  0  0  2  0  0  0  0  0  0
  192.0140  176.6840  148.4670 C   0  0  0  0  0  2  0  0  0  0  0  0
  192.4360  174.9830  146.8470 O   0  0  0  0  0  1  0  0  0  0  0  0
  192.8670  175.4950  148.0700 C   0  0  0  0  0  2  0  0  0  0  0  0
  187.1690  177.8430  146.2770 C   0  0  0  0  0  2  0  0  0  0  0  0
  186.0840  178.4860  145.4310 C   0  0  0  0  0  2  0  0  0  0  0  0
  184.8230  178.4420  146.1510 N   0  0  0  0  0  2  0  0  0  0  0  0
  183.7920  178.1680  145.1690 C   0  0  0  0  0  2  0  0  0  0  0  0
  183.0690  179.3930  144.8780 N   0  0  0  0  0  2  0  0  0  0  0  0
  182.5420  179.2580  143.5880 N   0  0  0  0  0  2  0  0  0  0  0  0
  181.1440  179.6390  143.6660 C   0  0  0  0  0  2  0  0  0  0  0  0
  179.0400  178.6490  143.0780 O   0  0  0  0  0  1  0  0  0  0  0  0
  180.3400  178.8890  142.6160 C   0  0  1  0  0  3  0  0  0  0  0  0
  180.3230  179.6740  141.3040 C   0  0  2  0  0  3  0  0  0  0  0  0
  178.9440  180.2130  140.9510 C   0  0  0  0  0  1  0  0  0  0  0  0
  180.9030  178.8880  140.1680 C   0  0  0  0  0  0  0  0  0  0  0  0
  181.4050  179.4880  139.2310 O   0  0  0  0  0  0  0  0  0  0  0  0
  179.4290  176.8510  140.3550 C   0  0  0  0  0  2  0  0  0  0  0  0
  180.7060  175.3330  138.9150 C   0  0  0  0  0  2  0  0  0  0  0  0
  181.3880  176.6900  138.9160 C   0  0  2  0  0  3  0  0  0  0  0  0
  180.8310  177.3820  140.1570 C   0  0  1  0  0  3  0  0  0  0  0  0
  179.4270  175.4690  139.7310 C   0  0  0  0  0  2  0  0  0  0  0  0
  181.0570  177.4240  137.6160 C   0  0  0  0  0  2  0  0  0  0  0  0
  182.2980  177.7200  136.8480 C   0  0  0  0  0  0  0  0  0  0  0  0
  183.4260  177.5240  137.3710 O   0  0  0  0  0  1  0  0  0  0  0  0
  182.2160  178.1910  135.5450 O   0  0  0  0  0  0  0  0  0  0  0  0
  1 31  1  0  0  0  0
  3  6  1  0  0  0  0
  4 13  1  0  0  0  0
  5  8  1  0  0  0  0
  6  1  1  0  0  0  0
  7 12  2  0  0  0  0
  7  5  1  0  0  0  0
  8  2  2  0  0  0  0
  8  9  1  0  0  0  0
  9 11  1  0  0  0  0
 10 13  1  0  0  0  0
 10  9  2  0  0  0  0
 11  6  2  0  0  0  0
 12 10  1  0  0  0  0
 13  3  2  0  0  0  0
 14 15  1  0  0  0  0
 15  5  1  0  0  0  0
 16 12  1  0  0  0  0
 17 16  1  0  0  0  0
 18 17  1  0  0  0  0
 19 18  1  0  0  0  0
 20 19  1  0  0  0  0
 20 22  1  0  0  0  0
 22 21  1  6  0  0  0
 22 23  1  0  0  0  0
 24 27  1  0  0  0  0
 24 23  1  0  0  0  0
 25 28  1  0  0  0  0
 25 29  1  0  0  0  0
 26 28  1  0  0  0  0
 27 30  1  0  0  0  0
 27 26  1  0  0  0  0
 30 29  1  0  0  0  0
 31 38  1  0  0  0  0
 31 32  1  0  0  0  0
 32 33  1  0  0  0  0
 33 34  1  0  0  0  0
 34 35  1  0  0  0  0
 36 37  1  0  0  0  0
 37 35  1  0  0  0  0
 39 40  1  0  0  0  0
 39 38  1  0  0  0  0
 41 40  1  0  0  0  0
 42 41  1  0  0  0  0
 43 44  1  0  0  0  0
 43 42  1  0  0  0  0
 46 45  1  1  0  0  0
 46 44  1  0  0  0  0
 47 48  1  6  0  0  0
 47 46  1  0  0  0  0
 49 47  1  0  0  0  0
 50 49  2  0  0  0  0
 52 53  1  0  0  0  0
 52 55  1  0  0  0  0
 53 56  1  6  0  0  0
 53 54  1  0  0  0  0
 54 49  1  6  0  0  0
 54 51  1  0  0  0  0
 55 51  1  0  0  0  0
 57 58  1  0  0  0  0
 57 56  1  0  0  0  0
 59 57  2  0  0  0  0
M  END
>  <MODEL>
9

>  <REMARK>
 VINA RESULT:      -3.7      3.049      8.909
  Name = 
  30 active torsions:
  status: ('A' for Active; 'I' for Inactive)
    1  A    between atoms: N_1  and  C_16
    2  A    between atoms: N_1  and  C_25
    3  A    between atoms: N_1  and  C_29
    4  A    between atoms: C_4  and  C_17
    5  A    between atoms: C_6  and  C_19
    6  A    between atoms: C_6  and  C_35
    7  A    between atoms: N_9  and  C_37
    8  A    between atoms: N_9  and  C_43
    9  A    between atoms: C_12  and  C_46
   10  A    between atoms: C_12  and  C_54
   11  A    between atoms: N_14  and  N_55
   12  A    between atoms: N_14  and  C_59
   13  A    between atoms: C_16  and  C_31
   14  A    between atoms: C_17  and  C_18
   15  A    between atoms: C_21  and  N_30
   16  A    between atoms: C_21  and  N_55
   17  A    between atoms: C_23  and  C_41
   18  A    between atoms: C_23  and  C_49
   19  A    between atoms: N_24  and  C_58
   20  A    between atoms: C_25  and  O_48
   21  A    between atoms: C_26  and  C_29
   22  A    between atoms: C_28  and  C_43
   23  A    between atoms: C_28  and  O_47
   24  A    between atoms: N_30  and  C_31
   25  A    between atoms: C_32  and  C_37
   26  A    between atoms: C_35  and  C_57
   27  A    between atoms: C_41  and  O_47
   28  A    between atoms: C_46  and  O_48
   29  A    between atoms: C_49  and  C_50
   30  A    between atoms: C_57  and  C_59
                            x       y       z     vdW  Elec       q    Type
                         _______ _______ _______ _____ _____    ______ ____

>  <TORSDO>
F 30

$$$$
