=
 OpenBabel10222415523D

 29 32  0  0  1  0  0  0  0  0999 V2000
  191.7290  176.7070  143.1110 C   0  0  0  0  0  3  0  0  0  0  0  0
  189.8920  176.9760  141.9730 C   0  0  2  0  0  3  0  0  0  0  0  0
  187.6870  177.9200  141.9480 C   0  0  0  0  0  0  0  0  0  0  0  0
  188.8260  177.7010  141.2620 C   0  0  0  0  0  0  0  0  0  0  0  0
  187.5780  177.4910  143.3860 C   0  0  0  0  0  0  0  0  0  0  0  0
  189.5330  176.0780  143.0960 C   0  0  2  0  0  3  0  0  0  0  0  0
  188.4900  176.7110  143.9050 N   0  0  0  0  0  0  0  0  0  0  0  0
  186.6290  178.5790  141.3300 O   0  0  0  0  0  1  0  0  0  0  0  0
  191.1290  177.3360  141.9850 N   0  0  0  0  0  2  0  0  0  0  0  0
  190.8400  176.0070  143.8070 C   0  0  0  0  0  3  0  0  0  0  0  0
  190.1150  177.6390  139.1400 N   0  0  1  0  0  0  0  0  0  0  0  0
  189.0090  178.2770  139.8750 C   0  0  1  0  0  3  0  0  0  0  0  0
  189.8120  176.2200  138.8580 C   0  0  1  0  0  3  0  0  0  0  0  0
  189.5320  177.2350  137.8420 C   0  0  1  0  0  3  0  0  0  0  0  0
  188.0960  177.6400  137.8790 C   0  0  0  0  0  3  0  0  0  0  0  0
  187.7910  178.2370  139.0160 C   0  0  0  0  0  3  0  0  0  0  0  0
  190.9950  175.5530  138.5440 O   0  0  0  0  0  0  0  0  0  0  0  0
  191.8760  176.5640  138.1580 C   0  0  0  0  0  1  0  0  0  0  0  0
  186.5520  178.0730  144.3240 C   0  0  1  0  0  3  0  0  0  0  0  0
  185.2030  177.9610  143.7680 N   0  0  0  0  0  2  0  0  0  0  0  0
  184.2780  179.0420  143.6040 C   0  0  0  0  0  0  0  0  0  0  0  0
  184.6120  180.2250  143.8700 O   0  0  0  0  0  0  0  0  0  0  0  0
  182.9690  178.7750  143.1180 N   0  0  0  0  0  1  0  0  0  0  0  0
  186.6460  177.6000  145.7850 C   0  0  2  0  0  3  0  0  0  0  0  0
  185.6600  179.4470  146.9460 O   0  0  0  0  0  1  0  0  0  0  0  0
  185.4700  178.1050  146.6150 C   0  0  0  0  0  2  0  0  0  0  0  0
  187.9840  177.9730  146.4390 C   0  0  0  0  0  2  0  0  0  0  0  0
  188.3010  177.1500  147.6830 C   0  0  0  0  0  2  0  0  0  0  0  0
  188.1930  177.9400  148.8270 O   0  0  0  0  0  1  0  0  0  0  0  0
  1 10  2  0  0  0  0
  2  4  1  1  0  0  0
  2  9  1  0  0  0  0
  2  6  1  0  0  0  0
  3  5  1  0  0  0  0
  4  3  2  0  0  0  0
  5  7  2  0  0  0  0
  5 19  1  0  0  0  0
  6 10  1  1  0  0  0
  6  7  1  0  0  0  0
  8  3  1  0  0  0  0
  9  1  1  0  0  0  0
 11 12  1  0  0  0  0
 12  4  1  0  0  0  0
 13 11  1  0  0  0  0
 14 15  1  0  0  0  0
 14 13  1  0  0  0  0
 14 11  1  0  0  0  0
 15 16  2  0  0  0  0
 16 12  1  0  0  0  0
 17 13  1  0  0  0  0
 18 17  1  0  0  0  0
 19 24  1  0  0  0  0
 20 19  1  0  0  0  0
 21 20  1  0  0  0  0
 21 22  2  0  0  0  0
 23 21  1  0  0  0  0
 24 27  1  0  0  0  0
 24 26  1  0  0  0  0
 26 25  1  0  0  0  0
 27 28  1  0  0  0  0
 28 29  1  0  0  0  0
M  END
>  <MODEL>
1

>  <REMARK>
 VINA RESULT:      -7.9      0.000      0.000
  Name = 
  8 active torsions:
  status: ('A' for Active; 'I' for Inactive)
    1  A    between atoms: N_3  and  C_24
    2  A    between atoms: O_4  and  C_15
    3  A    between atoms: C_5  and  C_17
    4  A    between atoms: C_8  and  C_9
    5  A    between atoms: C_11  and  C_29
    6  A    between atoms: C_12  and  C_24
    7  A    between atoms: C_17  and  C_29
    8  A    between atoms: C_24  and  C_29
                            x       y       z     vdW  Elec       q    Type
                         _______ _______ _______ _____ _____    ______ ____

>  <TORSDO>
F 8

$$$$
=
 OpenBabel10222415523D

 29 32  0  0  1  0  0  0  0  0999 V2000
  191.4630  176.2540  143.9940 C   0  0  0  0  0  3  0  0  0  0  0  0
  189.5570  177.2860  143.7800 C   0  0  2  0  0  3  0  0  0  0  0  0
  187.6910  177.7400  142.3440 C   0  0  0  0  0  0  0  0  0  0  0  0
  188.1050  177.4350  143.5890 C   0  0  0  0  0  0  0  0  0  0  0  0
  188.6870  177.8450  141.2220 C   0  0  0  0  0  0  0  0  0  0  0  0
  190.4840  177.9740  142.8520 C   0  0  2  0  0  3  0  0  0  0  0  0
  189.9680  177.8660  141.4860 N   0  0  0  0  0  0  0  0  0  0  0  0
  186.3330  177.9180  142.0960 O   0  0  0  0  0  1  0  0  0  0  0  0
  190.1070  176.3120  144.4210 N   0  0  0  0  0  2  0  0  0  0  0  0
  191.7180  177.1640  143.0590 C   0  0  0  0  0  3  0  0  0  0  0  0
  187.7360  176.9790  146.0030 N   0  0  1  0  0  0  0  0  0  0  0  0
  187.1000  177.1590  144.6860 C   0  0  1  0  0  3  0  0  0  0  0  0
  188.3690  178.2350  146.4590 C   0  0  1  0  0  3  0  0  0  0  0  0
  187.0170  177.9030  146.9070 C   0  0  1  0  0  3  0  0  0  0  0  0
  185.9940  178.6020  146.0730 C   0  0  0  0  0  3  0  0  0  0  0  0
  186.0250  178.1840  144.8210 C   0  0  0  0  0  3  0  0  0  0  0  0
  189.2840  177.9460  147.4700 O   0  0  0  0  0  0  0  0  0  0  0  0
  188.5800  178.1680  148.6540 C   0  0  0  0  0  1  0  0  0  0  0  0
  188.2840  177.7420  139.7740 C   0  0  1  0  0  3  0  0  0  0  0  0
  187.1240  178.5870  139.4870 N   0  0  0  0  0  2  0  0  0  0  0  0
  186.0730  178.2730  138.5650 C   0  0  0  0  0  0  0  0  0  0  0  0
  186.0410  177.1640  137.9730 O   0  0  0  0  0  0  0  0  0  0  0  0
  185.0430  179.2240  138.3290 N   0  0  0  0  0  1  0  0  0  0  0  0
  189.4220  177.9110  138.7540 C   0  0  2  0  0  3  0  0  0  0  0  0
  189.0800  178.4820  136.4550 O   0  0  0  0  0  1  0  0  0  0  0  0
  189.1140  179.0130  137.7450 C   0  0  0  0  0  2  0  0  0  0  0  0
  189.7780  176.5960  138.0450 C   0  0  0  0  0  2  0  0  0  0  0  0
  191.1410  176.0410  138.4430 C   0  0  0  0  0  2  0  0  0  0  0  0
  191.2210  174.6840  138.1320 O   0  0  0  0  0  1  0  0  0  0  0  0
  1  9  1  0  0  0  0
  2  4  1  6  0  0  0
  2  9  1  0  0  0  0
  3  4  2  0  0  0  0
  4 12  1  0  0  0  0
  5  7  2  0  0  0  0
  5  3  1  0  0  0  0
  6 10  1  6  0  0  0
  6  2  1  0  0  0  0
  7  6  1  0  0  0  0
  8  3  1  0  0  0  0
 10  1  2  0  0  0  0
 11 13  1  0  0  0  0
 11 14  1  0  0  0  0
 12 16  1  0  0  0  0
 12 11  1  0  0  0  0
 13 14  1  0  0  0  0
 13 17  1  0  0  0  0
 15 14  1  0  0  0  0
 16 15  2  0  0  0  0
 17 18  1  0  0  0  0
 19  5  1  0  0  0  0
 20 19  1  0  0  0  0
 21 20  1  0  0  0  0
 22 21  2  0  0  0  0
 23 21  1  0  0  0  0
 24 19  1  0  0  0  0
 25 26  1  0  0  0  0
 26 24  1  0  0  0  0
 27 28  1  0  0  0  0
 27 24  1  0  0  0  0
 29 28  1  0  0  0  0
M  END
>  <MODEL>
2

>  <REMARK>
 VINA RESULT:      -7.5      1.902      6.757
  Name = 
  8 active torsions:
  status: ('A' for Active; 'I' for Inactive)
    1  A    between atoms: N_3  and  C_24
    2  A    between atoms: O_4  and  C_15
    3  A    between atoms: C_5  and  C_17
    4  A    between atoms: C_8  and  C_9
    5  A    between atoms: C_11  and  C_29
    6  A    between atoms: C_12  and  C_24
    7  A    between atoms: C_17  and  C_29
    8  A    between atoms: C_24  and  C_29
                            x       y       z     vdW  Elec       q    Type
                         _______ _______ _______ _____ _____    ______ ____

>  <TORSDO>
F 8

$$$$
=
 OpenBabel10222415523D

 29 32  0  0  1  0  0  0  0  0999 V2000
  189.5390  177.1220  140.6110 C   0  0  0  0  0  3  0  0  0  0  0  0
  188.1950  177.7410  142.2090 C   0  0  2  0  0  3  0  0  0  0  0  0
  185.9160  177.9310  142.9300 C   0  0  0  0  0  0  0  0  0  0  0  0
  187.1780  177.5960  143.2630 C   0  0  0  0  0  0  0  0  0  0  0  0
  185.5940  178.3570  141.5240 C   0  0  0  0  0  0  0  0  0  0  0  0
  187.9620  178.7000  141.1040 C   0  0  2  0  0  3  0  0  0  0  0  0
  186.5610  178.6230  140.6860 N   0  0  0  0  0  0  0  0  0  0  0  0
  184.9070  177.8400  143.8850 O   0  0  0  0  0  1  0  0  0  0  0  0
  189.0800  176.8470  141.9290 N   0  0  0  0  0  2  0  0  0  0  0  0
  188.8940  178.1540  140.0770 C   0  0  0  0  0  3  0  0  0  0  0  0
  188.9280  176.9040  144.8840 N   0  0  1  0  0  0  0  0  0  0  0  0
  187.4820  177.0040  144.6220 C   0  0  1  0  0  3  0  0  0  0  0  0
  189.5420  178.2460  144.9770 C   0  0  1  0  0  3  0  0  0  0  0  0
  189.1280  177.5540  146.1970 C   0  0  1  0  0  3  0  0  0  0  0  0
  187.7830  178.0260  146.6440 C   0  0  0  0  0  3  0  0  0  0  0  0
  186.8460  177.7130  145.7690 C   0  0  0  0  0  3  0  0  0  0  0  0
  190.9220  178.1310  144.8150 O   0  0  0  0  0  0  0  0  0  0  0  0
  191.2470  176.9230  145.4320 C   0  0  0  0  0  1  0  0  0  0  0  0
  184.1930  178.3170  140.9710 C   0  0  1  0  0  3  0  0  0  0  0  0
  183.2840  179.1380  141.7720 N   0  0  0  0  0  2  0  0  0  0  0  0
  181.8860  178.8890  141.9620 C   0  0  0  0  0  0  0  0  0  0  0  0
  181.3430  177.8580  141.4900 O   0  0  0  0  0  0  0  0  0  0  0  0
  181.1060  179.8150  142.7080 N   0  0  0  0  0  1  0  0  0  0  0  0
  184.0690  178.5760  139.4600 C   0  0  2  0  0  3  0  0  0  0  0  0
  184.1350  180.8610  138.7520 O   0  0  0  0  0  1  0  0  0  0  0  0
  183.2750  179.8470  139.1710 C   0  0  0  0  0  2  0  0  0  0  0  0
  183.4850  177.3750  138.7030 C   0  0  0  0  0  2  0  0  0  0  0  0
  184.2820  176.9950  137.4590 C   0  0  0  0  0  2  0  0  0  0  0  0
  185.5120  177.6520  137.4540 O   0  0  0  0  0  1  0  0  0  0  0  0
  1  9  1  0  0  0  0
  2  9  1  6  0  0  0
  2  4  1  0  0  0  0
  3  4  2  0  0  0  0
  3  8  1  0  0  0  0
  4 12  1  0  0  0  0
  5  3  1  0  0  0  0
  6 10  1  6  0  0  0
  6  2  1  0  0  0  0
  7  6  1  0  0  0  0
  7  5  2  0  0  0  0
 10  1  2  0  0  0  0
 11 13  1  0  0  0  0
 11 14  1  0  0  0  0
 12 11  1  0  0  0  0
 12 16  1  0  0  0  0
 13 14  1  0  0  0  0
 14 15  1  0  0  0  0
 16 15  2  0  0  0  0
 17 13  1  0  0  0  0
 17 18  1  0  0  0  0
 19  5  1  0  0  0  0
 19 20  1  0  0  0  0
 20 21  1  0  0  0  0
 21 23  1  0  0  0  0
 22 21  2  0  0  0  0
 24 19  1  0  0  0  0
 25 26  1  0  0  0  0
 26 24  1  0  0  0  0
 27 24  1  0  0  0  0
 28 27  1  0  0  0  0
 29 28  1  0  0  0  0
M  END
>  <MODEL>
3

>  <REMARK>
 VINA RESULT:      -7.4      2.745      6.100
  Name = 
  8 active torsions:
  status: ('A' for Active; 'I' for Inactive)
    1  A    between atoms: N_3  and  C_24
    2  A    between atoms: O_4  and  C_15
    3  A    between atoms: C_5  and  C_17
    4  A    between atoms: C_8  and  C_9
    5  A    between atoms: C_11  and  C_29
    6  A    between atoms: C_12  and  C_24
    7  A    between atoms: C_17  and  C_29
    8  A    between atoms: C_24  and  C_29
                            x       y       z     vdW  Elec       q    Type
                         _______ _______ _______ _____ _____    ______ ____

>  <TORSDO>
F 8

$$$$
=
 OpenBabel10222415523D

 29 32  0  0  1  0  0  0  0  0999 V2000
  191.4490  177.0150  143.2460 C   0  0  0  0  0  3  0  0  0  0  0  0
  190.1010  177.0920  141.5380 C   0  0  2  0  0  3  0  0  0  0  0  0
  188.0660  177.9970  140.6470 C   0  0  0  0  0  0  0  0  0  0  0  0
  189.3580  177.6910  140.4170 C   0  0  0  0  0  0  0  0  0  0  0  0
  187.4730  177.7850  142.0130 C   0  0  0  0  0  0  0  0  0  0  0  0
  189.3580  176.3670  142.5940 C   0  0  2  0  0  3  0  0  0  0  0  0
  188.1310  177.1010  142.9120 N   0  0  0  0  0  0  0  0  0  0  0  0
  187.2970  178.5450  139.6250 O   0  0  0  0  0  1  0  0  0  0  0  0
  191.2790  177.4630  141.9070 N   0  0  0  0  0  2  0  0  0  0  0  0
  190.3530  176.4160  143.7020 C   0  0  0  0  0  3  0  0  0  0  0  0
  190.8210  176.9580  138.5480 N   0  0  1  0  0  0  0  0  0  0  0  0
  190.0110  178.0570  139.1020 C   0  0  1  0  0  3  0  0  0  0  0  0
  189.9670  175.8110  138.1720 C   0  0  1  0  0  3  0  0  0  0  0  0
  190.3470  176.7930  137.1570 C   0  0  1  0  0  3  0  0  0  0  0  0
  189.2600  177.7980  136.9580 C   0  0  0  0  0  3  0  0  0  0  0  0
  189.0680  178.5220  138.0440 C   0  0  0  0  0  3  0  0  0  0  0  0
  190.7610  174.6720  138.0450 O   0  0  0  0  0  0  0  0  0  0  0  0
  190.1730  173.9500  137.0050 C   0  0  0  0  0  1  0  0  0  0  0  0
  186.2190  178.4880  142.4640 C   0  0  1  0  0  3  0  0  0  0  0  0
  185.0250  177.8490  141.9090 N   0  0  0  0  0  2  0  0  0  0  0  0
  184.1430  178.4300  140.9410 C   0  0  0  0  0  0  0  0  0  0  0  0
  184.3940  179.5500  140.4270 O   0  0  0  0  0  0  0  0  0  0  0  0
  182.9750  177.7230  140.5450 N   0  0  0  0  0  1  0  0  0  0  0  0
  186.1150  178.7550  143.9750 C   0  0  2  0  0  3  0  0  0  0  0  0
  186.7800  177.6040  145.9650 O   0  0  0  0  0  1  0  0  0  0  0  0
  186.0700  177.4560  144.7730 C   0  0  0  0  0  2  0  0  0  0  0  0
  184.9300  179.6650  144.3320 C   0  0  0  0  0  2  0  0  0  0  0  0
  183.7750  178.9240  144.9980 C   0  0  0  0  0  2  0  0  0  0  0  0
  182.6580  178.9180  144.1630 O   0  0  0  0  0  1  0  0  0  0  0  0
  1 10  2  0  0  0  0
  2  4  1  1  0  0  0
  2  9  1  0  0  0  0
  2  6  1  0  0  0  0
  3  5  1  0  0  0  0
  4  3  2  0  0  0  0
  5 19  1  0  0  0  0
  5  7  2  0  0  0  0
  6  7  1  0  0  0  0
  6 10  1  1  0  0  0
  8  3  1  0  0  0  0
  9  1  1  0  0  0  0
 11 12  1  0  0  0  0
 12  4  1  0  0  0  0
 13 11  1  0  0  0  0
 14 13  1  0  0  0  0
 14 11  1  0  0  0  0
 15 14  1  0  0  0  0
 15 16  2  0  0  0  0
 16 12  1  0  0  0  0
 17 13  1  0  0  0  0
 18 17  1  0  0  0  0
 19 24  1  0  0  0  0
 20 19  1  0  0  0  0
 21 20  1  0  0  0  0
 22 21  2  0  0  0  0
 23 21  1  0  0  0  0
 24 27  1  0  0  0  0
 24 26  1  0  0  0  0
 26 25  1  0  0  0  0
 27 28  1  0  0  0  0
 29 28  1  0  0  0  0
M  END
>  <MODEL>
4

>  <REMARK>
 VINA RESULT:      -7.1      1.673      2.512
  Name = 
  8 active torsions:
  status: ('A' for Active; 'I' for Inactive)
    1  A    between atoms: N_3  and  C_24
    2  A    between atoms: O_4  and  C_15
    3  A    between atoms: C_5  and  C_17
    4  A    between atoms: C_8  and  C_9
    5  A    between atoms: C_11  and  C_29
    6  A    between atoms: C_12  and  C_24
    7  A    between atoms: C_17  and  C_29
    8  A    between atoms: C_24  and  C_29
                            x       y       z     vdW  Elec       q    Type
                         _______ _______ _______ _____ _____    ______ ____

>  <TORSDO>
F 8

$$$$
=
 OpenBabel10222415523D

 29 32  0  0  1  0  0  0  0  0999 V2000
  189.6630  176.3520  142.1450 C   0  0  0  0  0  3  0  0  0  0  0  0
  187.9740  177.6290  142.6500 C   0  0  2  0  0  3  0  0  0  0  0  0
  185.8590  178.5050  141.9350 C   0  0  0  0  0  0  0  0  0  0  0  0
  186.5750  177.9800  142.9480 C   0  0  0  0  0  0  0  0  0  0  0  0
  186.4720  178.6430  140.5690 C   0  0  0  0  0  0  0  0  0  0  0  0
  188.6740  178.3210  141.5430 C   0  0  2  0  0  3  0  0  0  0  0  0
  187.7580  178.4700  140.4100 N   0  0  0  0  0  0  0  0  0  0  0  0
  184.5360  178.8810  142.1520 O   0  0  0  0  0  1  0  0  0  0  0  0
  188.5280  176.5150  142.9860 N   0  0  0  0  0  2  0  0  0  0  0  0
  189.7660  177.3450  141.2680 C   0  0  0  0  0  3  0  0  0  0  0  0
  186.8710  177.1520  145.2710 N   0  0  1  0  0  0  0  0  0  0  0  0
  185.9190  177.6790  144.2770 C   0  0  1  0  0  3  0  0  0  0  0  0
  187.8730  178.1760  145.6360 C   0  0  1  0  0  3  0  0  0  0  0  0
  186.6840  177.9990  146.4690 C   0  0  1  0  0  3  0  0  0  0  0  0
  185.6360  179.0040  146.1180 C   0  0  0  0  0  3  0  0  0  0  0  0
  185.1900  178.8270  144.8890 C   0  0  0  0  0  3  0  0  0  0  0  0
  188.9660  177.5540  146.2360 O   0  0  0  0  0  0  0  0  0  0  0  0
  188.4800  177.0970  147.4620 C   0  0  0  0  0  1  0  0  0  0  0  0
  185.6380  178.7940  139.3230 C   0  0  1  0  0  3  0  0  0  0  0  0
  186.0920  177.8860  138.2690 N   0  0  0  0  0  2  0  0  0  0  0  0
  186.8390  178.2650  137.1080 C   0  0  0  0  0  0  0  0  0  0  0  0
  187.2370  179.4480  136.9520 O   0  0  0  0  0  0  0  0  0  0  0  0
  187.1490  177.2850  136.1250 N   0  0  0  0  0  1  0  0  0  0  0  0
  184.1150  178.7620  139.5360 C   0  0  2  0  0  3  0  0  0  0  0  0
  182.9770  176.7170  140.0370 O   0  0  0  0  0  1  0  0  0  0  0  0
  183.4990  177.4770  138.9900 C   0  0  0  0  0  2  0  0  0  0  0  0
  183.4140  180.0000  138.9590 C   0  0  0  0  0  2  0  0  0  0  0  0
  181.8950  179.8640  138.9000 C   0  0  0  0  0  2  0  0  0  0  0  0
  181.4550  179.9260  137.5780 O   0  0  0  0  0  1  0  0  0  0  0  0
  1  9  1  0  0  0  0
  2  4  1  6  0  0  0
  2  9  1  0  0  0  0
  3  8  1  0  0  0  0
  3  4  2  0  0  0  0
  4 12  1  0  0  0  0
  5  3  1  0  0  0  0
  6 10  1  6  0  0  0
  6  2  1  0  0  0  0
  7  5  2  0  0  0  0
  7  6  1  0  0  0  0
 10  1  2  0  0  0  0
 11 13  1  0  0  0  0
 11 14  1  0  0  0  0
 12 16  1  0  0  0  0
 12 11  1  0  0  0  0
 13 17  1  0  0  0  0
 13 14  1  0  0  0  0
 15 14  1  0  0  0  0
 16 15  2  0  0  0  0
 17 18  1  0  0  0  0
 19 24  1  0  0  0  0
 19  5  1  0  0  0  0
 20 19  1  0  0  0  0
 21 20  1  0  0  0  0
 22 21  2  0  0  0  0
 23 21  1  0  0  0  0
 26 24  1  0  0  0  0
 26 25  1  0  0  0  0
 27 24  1  0  0  0  0
 28 27  1  0  0  0  0
 29 28  1  0  0  0  0
M  END
>  <MODEL>
5

>  <REMARK>
 VINA RESULT:      -7.0      2.938      6.851
  Name = 
  8 active torsions:
  status: ('A' for Active; 'I' for Inactive)
    1  A    between atoms: N_3  and  C_24
    2  A    between atoms: O_4  and  C_15
    3  A    between atoms: C_5  and  C_17
    4  A    between atoms: C_8  and  C_9
    5  A    between atoms: C_11  and  C_29
    6  A    between atoms: C_12  and  C_24
    7  A    between atoms: C_17  and  C_29
    8  A    between atoms: C_24  and  C_29
                            x       y       z     vdW  Elec       q    Type
                         _______ _______ _______ _____ _____    ______ ____

>  <TORSDO>
F 8

$$$$
=
 OpenBabel10222415523D

 29 32  0  0  1  0  0  0  0  0999 V2000
  189.5780  176.8100  141.8310 C   0  0  0  0  0  3  0  0  0  0  0  0
  187.7840  177.8250  142.5340 C   0  0  2  0  0  3  0  0  0  0  0  0
  185.4980  178.3780  142.0660 C   0  0  0  0  0  0  0  0  0  0  0  0
  186.3910  177.9660  142.9870 C   0  0  0  0  0  0  0  0  0  0  0  0
  185.9310  178.6020  140.6430 C   0  0  0  0  0  0  0  0  0  0  0  0
  188.2500  178.6100  141.3680 C   0  0  2  0  0  3  0  0  0  0  0  0
  187.2040  178.6200  140.3430 N   0  0  0  0  0  0  0  0  0  0  0  0
  184.1660  178.5550  142.4300 O   0  0  0  0  0  1  0  0  0  0  0  0
  188.5290  176.8050  142.7920 N   0  0  0  0  0  2  0  0  0  0  0  0
  189.4360  177.8060  140.9620 C   0  0  0  0  0  3  0  0  0  0  0  0
  187.0490  177.1340  145.2330 N   0  0  1  0  0  0  0  0  0  0  0  0
  185.9350  177.5740  144.3750 C   0  0  1  0  0  3  0  0  0  0  0  0
  187.9780  178.2520  145.5060 C   0  0  1  0  0  3  0  0  0  0  0  0
  186.9230  177.9360  146.4690 C   0  0  1  0  0  3  0  0  0  0  0  0
  185.7420  178.8290  146.2760 C   0  0  0  0  0  3  0  0  0  0  0  0
  185.1720  178.6280  145.1040 C   0  0  0  0  0  3  0  0  0  0  0  0
  189.1940  177.7380  145.9540 O   0  0  0  0  0  0  0  0  0  0  0  0
  188.9120  177.2230  147.2190 C   0  0  0  0  0  1  0  0  0  0  0  0
  184.9530  178.6260  139.4970 C   0  0  1  0  0  3  0  0  0  0  0  0
  184.4500  179.9800  139.2590 N   0  0  0  0  0  2  0  0  0  0  0  0
  183.0840  180.3290  139.0090 C   0  0  0  0  0  0  0  0  0  0  0  0
  182.1750  179.4600  139.0570 O   0  0  0  0  0  0  0  0  0  0  0  0
  182.7480  181.6790  138.7180 N   0  0  0  0  0  1  0  0  0  0  0  0
  185.4170  177.9180  138.2140 C   0  0  2  0  0  3  0  0  0  0  0  0
  187.3900  178.7420  137.1390 O   0  0  0  0  0  1  0  0  0  0  0  0
  186.0060  178.9040  137.2100 C   0  0  0  0  0  2  0  0  0  0  0  0
  184.3060  177.0740  137.5720 C   0  0  0  0  0  2  0  0  0  0  0  0
  184.3160  177.1160  136.0470 C   0  0  0  0  0  2  0  0  0  0  0  0
  183.0110  177.1200  135.5550 O   0  0  0  0  0  1  0  0  0  0  0  0
  1  9  1  0  0  0  0
  2  9  1  6  0  0  0
  2  4  1  0  0  0  0
  3  8  1  0  0  0  0
  3  4  2  0  0  0  0
  4 12  1  0  0  0  0
  5  3  1  0  0  0  0
  6 10  1  6  0  0  0
  6  2  1  0  0  0  0
  7  5  2  0  0  0  0
  7  6  1  0  0  0  0
 10  1  2  0  0  0  0
 11 13  1  0  0  0  0
 11 14  1  0  0  0  0
 12 16  1  0  0  0  0
 12 11  1  0  0  0  0
 13 17  1  0  0  0  0
 13 14  1  0  0  0  0
 15 14  1  0  0  0  0
 16 15  2  0  0  0  0
 17 18  1  0  0  0  0
 19  5  1  0  0  0  0
 20 19  1  0  0  0  0
 21 22  2  0  0  0  0
 21 20  1  0  0  0  0
 23 21  1  0  0  0  0
 24 19  1  0  0  0  0
 25 26  1  0  0  0  0
 26 24  1  0  0  0  0
 27 24  1  0  0  0  0
 28 27  1  0  0  0  0
 29 28  1  0  0  0  0
M  END
>  <MODEL>
6

>  <REMARK>
 VINA RESULT:      -6.9      3.035      6.972
  Name = 
  8 active torsions:
  status: ('A' for Active; 'I' for Inactive)
    1  A    between atoms: N_3  and  C_24
    2  A    between atoms: O_4  and  C_15
    3  A    between atoms: C_5  and  C_17
    4  A    between atoms: C_8  and  C_9
    5  A    between atoms: C_11  and  C_29
    6  A    between atoms: C_12  and  C_24
    7  A    between atoms: C_17  and  C_29
    8  A    between atoms: C_24  and  C_29
                            x       y       z     vdW  Elec       q    Type
                         _______ _______ _______ _____ _____    ______ ____

>  <TORSDO>
F 8

$$$$
=
 OpenBabel10222415523D

 29 32  0  0  1  0  0  0  0  0999 V2000
  188.1610  178.5200  140.4740 C   0  0  0  0  0  3  0  0  0  0  0  0
  186.8850  178.2210  142.2120 C   0  0  2  0  0  3  0  0  0  0  0  0
  186.7440  178.2530  144.6070 C   0  0  0  0  0  0  0  0  0  0  0  0
  186.1530  178.5750  143.4400 C   0  0  0  0  0  0  0  0  0  0  0  0
  188.1120  177.6280  144.6120 C   0  0  0  0  0  0  0  0  0  0  0  0
  187.8680  177.1140  142.2500 C   0  0  2  0  0  3  0  0  0  0  0  0
  188.6340  177.1900  143.4960 N   0  0  0  0  0  0  0  0  0  0  0  0
  186.0980  178.5380  145.8060 O   0  0  0  0  0  1  0  0  0  0  0  0
  187.0530  179.0180  141.2140 N   0  0  0  0  0  2  0  0  0  0  0  0
  188.6920  177.4490  141.0540 C   0  0  0  0  0  3  0  0  0  0  0  0
  184.1530  179.2610  142.1350 N   0  0  1  0  0  0  0  0  0  0  0  0
  184.8570  179.3570  143.4260 C   0  0  1  0  0  3  0  0  0  0  0  0
  183.6930  177.8780  141.8860 C   0  0  1  0  0  3  0  0  0  0  0  0
  182.7750  178.8500  142.4780 C   0  0  1  0  0  3  0  0  0  0  0  0
  182.7330  178.7050  143.9640 C   0  0  0  0  0  3  0  0  0  0  0  0
  183.8980  178.9970  144.5100 C   0  0  0  0  0  3  0  0  0  0  0  0
  183.4100  177.7270  140.5300 O   0  0  0  0  0  0  0  0  0  0  0  0
  183.5950  179.0000  139.9890 C   0  0  0  0  0  1  0  0  0  0  0  0
  189.0010  177.6470  145.8280 C   0  0  1  0  0  3  0  0  0  0  0  0
  188.3390  177.0280  146.9770 N   0  0  0  0  0  2  0  0  0  0  0  0
  188.1510  177.6400  148.2590 C   0  0  0  0  0  0  0  0  0  0  0  0
  188.4930  178.8340  148.4620 O   0  0  0  0  0  0  0  0  0  0  0  0
  187.5560  176.8920  149.3110 N   0  0  0  0  0  1  0  0  0  0  0  0
  190.4350  177.1360  145.6090 C   0  0  2  0  0  3  0  0  0  0  0  0
  192.0940  175.7320  146.6110 O   0  0  0  0  0  1  0  0  0  0  0  0
  191.0460  176.6060  146.9020 C   0  0  0  0  0  2  0  0  0  0  0  0
  191.3430  178.1910  144.9610 C   0  0  0  0  0  2  0  0  0  0  0  0
  191.6800  177.8890  143.5040 C   0  0  0  0  0  2  0  0  0  0  0  0
  191.8000  176.5130  143.3100 O   0  0  0  0  0  1  0  0  0  0  0  0
  1 10  2  0  0  0  0
  1  9  1  0  0  0  0
  2  9  1  1  0  0  0
  2  6  1  0  0  0  0
  2  4  1  0  0  0  0
  3  5  1  0  0  0  0
  3  8  1  0  0  0  0
  4  3  2  0  0  0  0
  5 19  1  0  0  0  0
  6 10  1  6  0  0  0
  6  7  1  0  0  0  0
  7  5  2  0  0  0  0
 11 14  1  0  0  0  0
 11 12  1  0  0  0  0
 12  4  1  0  0  0  0
 12 16  1  0  0  0  0
 13 11  1  0  0  0  0
 13 14  1  0  0  0  0
 14 15  1  0  0  0  0
 15 16  2  0  0  0  0
 17 13  1  0  0  0  0
 18 17  1  0  0  0  0
 19 20  1  0  0  0  0
 20 21  1  0  0  0  0
 21 22  2  0  0  0  0
 21 23  1  0  0  0  0
 24 19  1  0  0  0  0
 24 26  1  0  0  0  0
 25 26  1  0  0  0  0
 27 24  1  0  0  0  0
 28 27  1  0  0  0  0
 29 28  1  0  0  0  0
M  END
>  <MODEL>
7

>  <REMARK>
 VINA RESULT:      -6.9      2.439      5.665
  Name = 
  8 active torsions:
  status: ('A' for Active; 'I' for Inactive)
    1  A    between atoms: N_3  and  C_24
    2  A    between atoms: O_4  and  C_15
    3  A    between atoms: C_5  and  C_17
    4  A    between atoms: C_8  and  C_9
    5  A    between atoms: C_11  and  C_29
    6  A    between atoms: C_12  and  C_24
    7  A    between atoms: C_17  and  C_29
    8  A    between atoms: C_24  and  C_29
                            x       y       z     vdW  Elec       q    Type
                         _______ _______ _______ _____ _____    ______ ____

>  <TORSDO>
F 8

$$$$
=
 OpenBabel10222415523D

 29 32  0  0  1  0  0  0  0  0999 V2000
  183.3970  178.6070  144.3200 C   0  0  0  0  0  3  0  0  0  0  0  0
  183.8480  179.1990  142.2740 C   0  0  2  0  0  3  0  0  0  0  0  0
  185.2450  178.8340  140.3590 C   0  0  0  0  0  0  0  0  0  0  0  0
  183.9970  179.0510  140.8170 C   0  0  0  0  0  0  0  0  0  0  0  0
  186.3880  178.6860  141.3260 C   0  0  0  0  0  0  0  0  0  0  0  0
  185.0080  179.6480  143.0790 C   0  0  2  0  0  3  0  0  0  0  0  0
  186.2200  178.9910  142.5860 N   0  0  0  0  0  0  0  0  0  0  0  0
  185.4620  178.7070  138.9900 O   0  0  0  0  0  1  0  0  0  0  0  0
  182.9410  178.6070  142.9730 N   0  0  0  0  0  2  0  0  0  0  0  0
  184.6020  179.1570  144.4260 C   0  0  0  0  0  3  0  0  0  0  0  0
  182.7880  177.8210  139.0290 N   0  0  1  0  0  0  0  0  0  0  0  0
  182.8170  179.0310  139.8690 C   0  0  1  0  0  3  0  0  0  0  0  0
  182.5560  176.6140  139.8510 C   0  0  1  0  0  3  0  0  0  0  0  0
  181.4250  177.2710  139.1960 C   0  0  1  0  0  3  0  0  0  0  0  0
  180.7150  178.1780  140.1460 C   0  0  0  0  0  3  0  0  0  0  0  0
  181.4860  179.1790  140.5250 C   0  0  0  0  0  3  0  0  0  0  0  0
  182.9320  175.4860  139.1240 O   0  0  0  0  0  0  0  0  0  0  0  0
  183.3780  175.9900  137.9010 C   0  0  0  0  0  1  0  0  0  0  0  0
  187.6850  178.0220  140.9440 C   0  0  1  0  0  3  0  0  0  0  0  0
  188.3100  178.6960  139.8050 N   0  0  0  0  0  2  0  0  0  0  0  0
  188.6030  178.0950  138.5390 C   0  0  0  0  0  0  0  0  0  0  0  0
  188.2560  176.9120  138.2880 O   0  0  0  0  0  0  0  0  0  0  0  0
  189.2840  178.8510  137.5460 N   0  0  0  0  0  1  0  0  0  0  0  0
  188.6620  177.7580  142.1020 C   0  0  2  0  0  3  0  0  0  0  0  0
  190.3580  176.1780  141.5050 O   0  0  0  0  0  1  0  0  0  0  0  0
  190.0860  177.5430  141.5980 C   0  0  0  0  0  2  0  0  0  0  0  0
  188.2120  176.5960  142.9990 C   0  0  0  0  0  2  0  0  0  0  0  0
  188.6490  176.7470  144.4530 C   0  0  0  0  0  2  0  0  0  0  0  0
  188.2720  177.9970  144.9440 O   0  0  0  0  0  1  0  0  0  0  0  0
  1 10  2  0  0  0  0
  2  4  1  6  0  0  0
  2  9  1  0  0  0  0
  2  6  1  0  0  0  0
  3  4  2  0  0  0  0
  3  5  1  0  0  0  0
  5  7  2  0  0  0  0
  6 10  1  1  0  0  0
  7  6  1  0  0  0  0
  8  3  1  0  0  0  0
  9  1  1  0  0  0  0
 11 14  1  0  0  0  0
 11 13  1  0  0  0  0
 11 12  1  0  0  0  0
 12 16  1  0  0  0  0
 12  4  1  0  0  0  0
 14 13  1  0  0  0  0
 14 15  1  0  0  0  0
 15 16  2  0  0  0  0
 17 13  1  0  0  0  0
 18 17  1  0  0  0  0
 19  5  1  0  0  0  0
 19 24  1  0  0  0  0
 20 19  1  0  0  0  0
 21 20  1  0  0  0  0
 22 21  2  0  0  0  0
 23 21  1  0  0  0  0
 24 27  1  0  0  0  0
 25 26  1  0  0  0  0
 26 24  1  0  0  0  0
 27 28  1  0  0  0  0
 28 29  1  0  0  0  0
M  END
>  <MODEL>
8

>  <REMARK>
 VINA RESULT:      -6.9      3.034      6.325
  Name = 
  8 active torsions:
  status: ('A' for Active; 'I' for Inactive)
    1  A    between atoms: N_3  and  C_24
    2  A    between atoms: O_4  and  C_15
    3  A    between atoms: C_5  and  C_17
    4  A    between atoms: C_8  and  C_9
    5  A    between atoms: C_11  and  C_29
    6  A    between atoms: C_12  and  C_24
    7  A    between atoms: C_17  and  C_29
    8  A    between atoms: C_24  and  C_29
                            x       y       z     vdW  Elec       q    Type
                         _______ _______ _______ _____ _____    ______ ____

>  <TORSDO>
F 8

$$$$
=
 OpenBabel10222415523D

 29 32  0  0  1  0  0  0  0  0999 V2000
  186.3790  178.1710  144.8880 C   0  0  0  0  0  3  0  0  0  0  0  0
  188.3560  177.3240  144.5510 C   0  0  2  0  0  3  0  0  0  0  0  0
  190.2450  177.2070  143.0780 C   0  0  0  0  0  0  0  0  0  0  0  0
  189.8140  177.3110  144.3500 C   0  0  0  0  0  0  0  0  0  0  0  0
  189.2560  177.1770  141.9460 C   0  0  0  0  0  0  0  0  0  0  0  0
  187.4800  176.6980  143.5330 C   0  0  2  0  0  3  0  0  0  0  0  0
  187.9810  177.0250  142.1970 N   0  0  0  0  0  0  0  0  0  0  0  0
  191.6120  177.1660  142.8170 O   0  0  0  0  0  1  0  0  0  0  0  0
  187.7360  178.1590  145.3120 N   0  0  0  0  0  2  0  0  0  0  0  0
  186.1890  177.3770  143.8390 C   0  0  0  0  0  3  0  0  0  0  0  0
  190.1360  177.7850  146.7670 N   0  0  1  0  0  0  0  0  0  0  0  0
  190.8000  177.5130  145.4810 C   0  0  1  0  0  3  0  0  0  0  0  0
  189.3660  176.6080  147.2230 C   0  0  1  0  0  3  0  0  0  0  0  0
  190.7270  176.8180  147.7170 C   0  0  1  0  0  3  0  0  0  0  0  0
  191.7060  176.0030  146.9380 C   0  0  0  0  0  3  0  0  0  0  0  0
  191.7630  176.3920  145.6780 C   0  0  0  0  0  3  0  0  0  0  0  0
  188.4460  177.0090  148.1910 O   0  0  0  0  0  0  0  0  0  0  0  0
  188.9090  178.2530  148.6200 C   0  0  0  0  0  1  0  0  0  0  0  0
  189.6450  177.5020  140.5270 C   0  0  1  0  0  3  0  0  0  0  0  0
  189.9750  176.2890  139.7780 N   0  0  0  0  0  2  0  0  0  0  0  0
  191.1460  176.0990  138.9750 C   0  0  0  0  0  0  0  0  0  0  0  0
  192.0440  176.9770  138.9230 O   0  0  0  0  0  0  0  0  0  0  0  0
  191.3010  174.8920  138.2390 N   0  0  0  0  0  1  0  0  0  0  0  0
  188.6840  178.4370  139.7730 C   0  0  2  0  0  3  0  0  0  0  0  0
  186.3020  178.6280  139.6400 O   0  0  0  0  0  1  0  0  0  0  0  0
  187.3750  178.6280  140.5320 C   0  0  0  0  0  2  0  0  0  0  0  0
  188.4250  177.9770  138.3320 C   0  0  0  0  0  2  0  0  0  0  0  0
  189.0560  178.8860  137.2820 C   0  0  0  0  0  2  0  0  0  0  0  0
  189.3200  178.1680  136.1160 O   0  0  0  0  0  1  0  0  0  0  0  0
  1  9  1  0  0  0  0
  2  4  1  6  0  0  0
  2  9  1  0  0  0  0
  3  4  2  0  0  0  0
  4 12  1  0  0  0  0
  5  7  2  0  0  0  0
  5  3  1  0  0  0  0
  6 10  1  6  0  0  0
  6  2  1  0  0  0  0
  7  6  1  0  0  0  0
  8  3  1  0  0  0  0
 10  1  2  0  0  0  0
 11 13  1  0  0  0  0
 11 14  1  0  0  0  0
 12 16  1  0  0  0  0
 12 11  1  0  0  0  0
 13 14  1  0  0  0  0
 13 17  1  0  0  0  0
 15 14  1  0  0  0  0
 16 15  2  0  0  0  0
 17 18  1  0  0  0  0
 19  5  1  0  0  0  0
 20 19  1  0  0  0  0
 21 20  1  0  0  0  0
 22 21  2  0  0  0  0
 23 21  1  0  0  0  0
 24 19  1  0  0  0  0
 24 26  1  0  0  0  0
 25 26  1  0  0  0  0
 27 24  1  0  0  0  0
 28 27  1  0  0  0  0
 29 28  1  0  0  0  0
M  END
>  <MODEL>
9

>  <REMARK>
 VINA RESULT:      -6.8      2.128      7.466
  Name = 
  8 active torsions:
  status: ('A' for Active; 'I' for Inactive)
    1  A    between atoms: N_3  and  C_24
    2  A    between atoms: O_4  and  C_15
    3  A    between atoms: C_5  and  C_17
    4  A    between atoms: C_8  and  C_9
    5  A    between atoms: C_11  and  C_29
    6  A    between atoms: C_12  and  C_24
    7  A    between atoms: C_17  and  C_29
    8  A    between atoms: C_24  and  C_29
                            x       y       z     vdW  Elec       q    Type
                         _______ _______ _______ _____ _____    ______ ____

>  <TORSDO>
F 8

$$$$
