=
 OpenBabel10222417573D

 33 36  0  0  1  0  0  0  0  0999 V2000
  189.8200  178.4530  143.6270 C   0  0  0  0  0  0  0  0  0  0  0  0
  184.2980  174.2810  136.6040 F   0  0  0  0  0  0  0  0  0  0  0  0
  188.1540  177.2920  142.5740 C   0  0  1  0  0  3  0  0  0  0  0  0
  190.4050  177.8110  141.2800 C   0  0  0  0  0  1  0  0  0  0  0  0
  182.2820  175.1220  136.0760 F   0  0  0  0  0  0  0  0  0  0  0  0
  188.1120  178.2500  137.4780 C   0  0  0  0  0  2  0  0  0  0  0  0
  187.1250  177.8280  141.6130 C   0  0  1  0  0  3  0  0  0  0  0  0
  191.3290  179.2660  143.9790 Cl  0  0  0  0  0  0  0  0  0  0  0  0
  182.8020  178.2390  139.0470 C   0  0  0  0  0  2  0  0  0  0  0  0
  188.0440  176.2970  135.9240 C   0  0  0  0  0  2  0  0  0  0  0  0
  184.8570  178.4360  141.1790 N   0  0  0  0  0  0  0  0  0  0  0  0
  183.0300  175.2610  138.8390 O   0  0  0  0  0  1  0  0  0  0  0  0
  185.1420  178.5750  139.8520 C   0  0  1  0  0  3  0  0  0  0  0  0
  183.5620  175.4480  136.4960 C   0  0  0  0  0  0  0  0  0  0  0  0
  189.5030  177.9160  142.4630 C   0  0  0  0  0  0  0  0  0  0  0  0
  182.5820  177.3650  137.8260 C   0  0  0  0  0  2  0  0  0  0  0  0
  187.8000  177.7300  143.9600 C   0  0  0  0  0  0  0  0  0  0  0  0
  183.4910  176.1440  137.8640 C   0  0  1  0  0  3  0  0  0  0  0  0
  184.2020  176.3530  135.4350 C   0  0  0  0  0  2  0  0  0  0  0  0
  187.4020  177.9530  140.2890 N   0  0  0  0  0  0  0  0  0  0  0  0
  188.7410  178.3830  144.5490 N   0  0  0  0  0  0  0  0  0  0  0  0
  184.0870  179.0460  138.8960 C   0  0  2  0  0  3  0  0  0  0  0  0
  185.5970  176.8630  135.8010 C   0  0  0  0  0  2  0  0  0  0  0  0
  186.4380  177.8140  144.3890 N   0  0  0  0  0  0  0  0  0  0  0  0
  189.7980  176.4760  137.6400 C   0  0  0  0  0  1  0  0  0  0  0  0
  186.7870  178.5170  138.0180 N   0  0  0  0  0  2  0  0  0  0  0  0
  186.4490  178.3370  139.4000 C   0  0  0  0  0  0  0  0  0  0  0  0
  185.4910  177.9510  143.5070 C   0  0  0  0  0  3  0  0  0  0  0  0
  188.3450  176.7570  137.3460 C   0  0  1  0  0  3  0  0  0  0  0  0
  186.6290  175.7450  135.7810 C   0  0  0  0  0  2  0  0  0  0  0  0
  185.8110  178.0610  142.0670 C   0  0  0  0  0  0  0  0  0  0  0  0
  183.8170  180.5310  139.0970 C   0  0  0  0  0  2  0  0  0  0  0  0
  182.3760  180.8570  138.7220 C   0  0  0  0  0  1  0  0  0  0  0  0
  1  8  1  0  0  0  0
  1 21  1  0  0  0  0
  3 15  1  6  0  0  0
  3 17  1  0  0  0  0
  4 15  1  0  0  0  0
  5 14  1  0  0  0  0
  6 26  1  0  0  0  0
  7 20  1  6  0  0  0
  7 31  1  0  0  0  0
  7  3  1  0  0  0  0
 10 29  1  0  0  0  0
 11 31  2  0  0  0  0
 13 27  1  1  0  0  0
 13 11  1  0  0  0  0
 14  2  1  0  0  0  0
 14 18  1  0  0  0  0
 15  1  2  0  0  0  0
 16 18  1  0  0  0  0
 16  9  1  0  0  0  0
 17 24  1  0  0  0  0
 17 21  2  0  0  0  0
 18 12  1  1  0  0  0
 19 23  1  0  0  0  0
 19 14  1  0  0  0  0
 22  9  1  0  0  0  0
 22 32  1  1  0  0  0
 22 13  1  0  0  0  0
 26 27  1  0  0  0  0
 27 20  2  0  0  0  0
 28 24  2  0  0  0  0
 29  6  1  0  0  0  0
 29 25  1  6  0  0  0
 30 23  1  0  0  0  0
 30 10  1  0  0  0  0
 31 28  1  0  0  0  0
 33 32  1  0  0  0  0
M  END
>  <MODEL>
1

>  <REMARK>
 VINA RESULT:      -6.6      0.000      0.000
  Name = 
  1 active torsions:
  status: ('A' for Active; 'I' for Inactive)
    1  A    between atoms: C_13  and  C_23
                            x       y       z     vdW  Elec       q    Type
                         _______ _______ _______ _____ _____    ______ ____

>  <TORSDO>
F 1

$$$$
=
 OpenBabel10222417573D

 33 36  0  0  1  0  0  0  0  0999 V2000
  188.1530  177.4400  142.5460 C   0  0  0  0  0  0  0  0  0  0  0  0
  180.1350  182.2680  139.4420 F   0  0  0  0  0  0  0  0  0  0  0  0
  186.7670  178.8130  141.3490 C   0  0  1  0  0  3  0  0  0  0  0  0
  186.0180  177.9640  143.7430 C   0  0  0  0  0  1  0  0  0  0  0  0
  179.1380  181.7140  137.5060 F   0  0  0  0  0  0  0  0  0  0  0  0
  181.7810  177.8090  142.3540 C   0  0  0  0  0  2  0  0  0  0  0  0
  185.5850  178.4160  140.5060 C   0  0  1  0  0  3  0  0  0  0  0  0
  188.8250  176.4260  143.8030 Cl  0  0  0  0  0  0  0  0  0  0  0  0
  182.0820  178.5910  136.8810 C   0  0  0  0  0  2  0  0  0  0  0  0
  180.2950  179.7340  142.9230 C   0  0  0  0  0  2  0  0  0  0  0  0
  184.6260  178.1310  138.3380 N   0  0  0  0  0  0  0  0  0  0  0  0
  181.9960  181.5040  137.5670 O   0  0  0  0  0  1  0  0  0  0  0  0
  183.3980  177.9370  138.8990 C   0  0  1  0  0  3  0  0  0  0  0  0
  179.8350  181.2150  138.5950 C   0  0  0  0  0  0  0  0  0  0  0  0
  186.9590  178.0030  142.5860 C   0  0  0  0  0  0  0  0  0  0  0  0
  180.8620  179.4730  137.0740 C   0  0  0  0  0  2  0  0  0  0  0  0
  188.0250  178.4460  140.6260 C   0  0  0  0  0  0  0  0  0  0  0  0
  181.1340  180.5530  138.1120 C   0  0  1  0  0  3  0  0  0  0  0  0
  178.9310  180.2170  139.3290 C   0  0  0  0  0  2  0  0  0  0  0  0
  184.3570  178.2380  141.0610 N   0  0  0  0  0  0  0  0  0  0  0  0
  188.8020  177.6730  141.3030 N   0  0  0  0  0  0  0  0  0  0  0  0
  182.2140  177.6090  138.0400 C   0  0  2  0  0  3  0  0  0  0  0  0
  179.5980  179.5180  140.5160 C   0  0  0  0  0  2  0  0  0  0  0  0
  188.1270  178.5600  139.2030 N   0  0  0  0  0  0  0  0  0  0  0  0
  182.3650  179.3290  144.1890 C   0  0  0  0  0  1  0  0  0  0  0  0
  181.9940  177.7400  140.9160 N   0  0  0  0  0  2  0  0  0  0  0  0
  183.2650  177.9820  140.2960 C   0  0  0  0  0  0  0  0  0  0  0  0
  187.0460  178.5480  138.4780 C   0  0  0  0  0  3  0  0  0  0  0  0
  181.7370  179.2530  142.8190 C   0  0  1  0  0  3  0  0  0  0  0  0
  179.8410  180.4790  141.6710 C   0  0  0  0  0  2  0  0  0  0  0  0
  185.7170  178.3770  139.1030 C   0  0  0  0  0  0  0  0  0  0  0  0
  182.3150  176.1790  137.5240 C   0  0  0  0  0  2  0  0  0  0  0  0
  181.4020  175.2640  138.3310 C   0  0  0  0  0  1  0  0  0  0  0  0
  1 15  2  0  0  0  0
  1  8  1  0  0  0  0
  3 17  1  6  0  0  0
  3 15  1  0  0  0  0
  5 14  1  0  0  0  0
  6 29  1  0  0  0  0
  7 31  1  6  0  0  0
  7 20  1  0  0  0  0
  7  3  1  0  0  0  0
  9 16  1  0  0  0  0
  9 22  1  0  0  0  0
 11 31  2  0  0  0  0
 13 11  1  1  0  0  0
 13 27  1  0  0  0  0
 14 19  1  0  0  0  0
 14  2  1  0  0  0  0
 15  4  1  0  0  0  0
 16 18  1  0  0  0  0
 17 21  2  0  0  0  0
 18 12  1  6  0  0  0
 18 14  1  0  0  0  0
 19 23  1  0  0  0  0
 21  1  1  0  0  0  0
 22 32  1  6  0  0  0
 22 13  1  0  0  0  0
 23 30  1  0  0  0  0
 24 17  1  0  0  0  0
 26  6  1  0  0  0  0
 27 26  1  0  0  0  0
 27 20  2  0  0  0  0
 28 31  1  0  0  0  0
 28 24  2  0  0  0  0
 29 10  1  0  0  0  0
 29 25  1  1  0  0  0
 30 10  1  0  0  0  0
 32 33  1  0  0  0  0
M  END
>  <MODEL>
2

>  <REMARK>
 VINA RESULT:      -6.3      3.195      5.909
  Name = 
  1 active torsions:
  status: ('A' for Active; 'I' for Inactive)
    1  A    between atoms: C_13  and  C_23
                            x       y       z     vdW  Elec       q    Type
                         _______ _______ _______ _____ _____    ______ ____

>  <TORSDO>
F 1

$$$$
=
 OpenBabel10222417573D

 33 36  0  0  1  0  0  0  0  0999 V2000
  185.5690  179.0950  146.0970 C   0  0  0  0  0  0  0  0  0  0  0  0
  185.7290  174.5720  137.3360 F   0  0  0  0  0  0  0  0  0  0  0  0
  184.9480  177.8510  144.2790 C   0  0  1  0  0  3  0  0  0  0  0  0
  187.5050  178.4230  144.6600 C   0  0  0  0  0  1  0  0  0  0  0  0
  184.4770  175.3280  135.6300 F   0  0  0  0  0  0  0  0  0  0  0  0
  188.0950  178.6950  140.2460 C   0  0  0  0  0  2  0  0  0  0  0  0
  184.7410  178.3280  142.8660 C   0  0  1  0  0  3  0  0  0  0  0  0
  186.5130  179.9690  147.2830 Cl  0  0  0  0  0  0  0  0  0  0  0  0
  182.9750  178.5260  138.1450 C   0  0  0  0  0  2  0  0  0  0  0  0
  189.0440  176.7070  139.0710 C   0  0  0  0  0  2  0  0  0  0  0  0
  183.2380  178.8440  141.0840 N   0  0  0  0  0  0  0  0  0  0  0  0
  183.3260  175.5550  138.2450 O   0  0  0  0  0  1  0  0  0  0  0  0
  184.2890  178.9650  140.2230 C   0  0  1  0  0  3  0  0  0  0  0  0
  185.2060  175.7100  136.7450 C   0  0  0  0  0  0  0  0  0  0  0  0
  186.0590  178.5210  145.0130 C   0  0  0  0  0  0  0  0  0  0  0  0
  183.5820  177.6190  137.0910 C   0  0  0  0  0  2  0  0  0  0  0  0
  183.7970  178.3070  145.1210 C   0  0  0  0  0  0  0  0  0  0  0  0
  184.2840  176.4330  137.7380 C   0  0  1  0  0  3  0  0  0  0  0  0
  186.3570  176.6130  136.2820 C   0  0  0  0  0  2  0  0  0  0  0  0
  185.7850  178.4340  142.0030 N   0  0  0  0  0  0  0  0  0  0  0  0
  184.1510  179.0070  146.1420 N   0  0  0  0  0  0  0  0  0  0  0  0
  184.0600  179.3760  138.8000 C   0  0  2  0  0  3  0  0  0  0  0  0
  187.2070  177.1820  137.4210 C   0  0  0  0  0  2  0  0  0  0  0  0
  182.4660  178.3520  144.5990 N   0  0  0  0  0  0  0  0  0  0  0  0
  189.3330  176.9860  141.4980 C   0  0  0  0  0  1  0  0  0  0  0  0
  186.7210  178.9250  139.8270 N   0  0  0  0  0  2  0  0  0  0  0  0
  185.5940  178.7640  140.6990 C   0  0  0  0  0  0  0  0  0  0  0  0
  182.2800  178.4340  143.3130 C   0  0  0  0  0  3  0  0  0  0  0  0
  188.3810  177.2080  140.3480 C   0  0  1  0  0  3  0  0  0  0  0  0
  188.0400  176.1010  138.0960 C   0  0  0  0  0  2  0  0  0  0  0  0
  183.4300  178.5240  142.3880 C   0  0  0  0  0  0  0  0  0  0  0  0
  183.7020  180.8540  138.7280 C   0  0  0  0  0  2  0  0  0  0  0  0
  182.1990  181.0210  138.5390 C   0  0  0  0  0  1  0  0  0  0  0  0
  1 21  1  0  0  0  0
  1  8  1  0  0  0  0
  3 15  1  1  0  0  0
  3 17  1  0  0  0  0
  4 15  1  0  0  0  0
  5 14  1  0  0  0  0
  6 29  1  0  0  0  0
  7 20  1  6  0  0  0
  7  3  1  0  0  0  0
  9 22  1  0  0  0  0
 10 29  1  0  0  0  0
 11 31  2  0  0  0  0
 13 27  1  1  0  0  0
 13 11  1  0  0  0  0
 14  2  1  0  0  0  0
 14 18  1  0  0  0  0
 15  1  2  0  0  0  0
 16 18  1  0  0  0  0
 16  9  1  0  0  0  0
 17 21  2  0  0  0  0
 18 12  1  6  0  0  0
 19 14  1  0  0  0  0
 19 23  1  0  0  0  0
 22 32  1  1  0  0  0
 22 13  1  0  0  0  0
 23 30  1  0  0  0  0
 24 17  1  0  0  0  0
 26  6  1  0  0  0  0
 26 27  1  0  0  0  0
 27 20  2  0  0  0  0
 28 24  2  0  0  0  0
 29 25  1  1  0  0  0
 30 10  1  0  0  0  0
 31  7  1  0  0  0  0
 31 28  1  0  0  0  0
 33 32  1  0  0  0  0
M  END
>  <MODEL>
3

>  <REMARK>
 VINA RESULT:      -5.7      1.991      2.942
  Name = 
  1 active torsions:
  status: ('A' for Active; 'I' for Inactive)
    1  A    between atoms: C_13  and  C_23
                            x       y       z     vdW  Elec       q    Type
                         _______ _______ _______ _____ _____    ______ ____

>  <TORSDO>
F 1

$$$$
=
 OpenBabel10222417573D

 33 36  0  0  1  0  0  0  0  0999 V2000
  183.1810  171.8430  135.5510 C   0  0  0  0  0  0  0  0  0  0  0  0
  186.9710  177.5310  142.6570 F   0  0  0  0  0  0  0  0  0  0  0  0
  184.5970  172.6880  137.1380 C   0  0  1  0  0  3  0  0  0  0  0  0
  182.0520  173.4190  137.1340 C   0  0  0  0  0  1  0  0  0  0  0  0
  188.7070  178.8950  142.2350 F   0  0  0  0  0  0  0  0  0  0  0  0
  183.2270  177.4910  138.5300 C   0  0  0  0  0  2  0  0  0  0  0  0
  185.2930  174.0230  137.1310 C   0  0  1  0  0  3  0  0  0  0  0  0
  181.7590  171.4910  134.5940 Cl  0  0  0  0  0  0  0  0  0  0  0  0
  188.7460  177.5680  138.1060 C   0  0  0  0  0  2  0  0  0  0  0  0
  183.0340  177.9890  140.9690 C   0  0  0  0  0  2  0  0  0  0  0  0
  187.3140  175.2720  136.8890 N   0  0  0  0  0  0  0  0  0  0  0  0
  188.7020  176.3830  140.8550 O   0  0  0  0  0  1  0  0  0  0  0  0
  186.6810  176.3950  137.3350 C   0  0  1  0  0  3  0  0  0  0  0  0
  187.5610  178.3330  141.6950 C   0  0  0  0  0  0  0  0  0  0  0  0
  183.2220  172.6920  136.5620 C   0  0  0  0  0  0  0  0  0  0  0  0
  188.7050  178.2930  139.4380 C   0  0  0  0  0  2  0  0  0  0  0  0
  185.2670  171.7850  136.1510 C   0  0  0  0  0  0  0  0  0  0  0  0
  187.9350  177.4820  140.4710 C   0  0  1  0  0  3  0  0  0  0  0  0
  186.5980  179.4670  141.3220 C   0  0  0  0  0  2  0  0  0  0  0  0
  184.6700  175.1400  137.5910 N   0  0  0  0  0  0  0  0  0  0  0  0
  184.4670  171.3120  135.2590 N   0  0  0  0  0  0  0  0  0  0  0  0
  187.4080  177.7050  137.3870 C   0  0  2  0  0  3  0  0  0  0  0  0
  185.3120  179.0010  140.6350 C   0  0  0  0  0  2  0  0  0  0  0  0
  186.6830  171.8200  135.9520 N   0  0  0  0  0  0  0  0  0  0  0  0
  181.7840  176.1230  139.9670 C   0  0  0  0  0  1  0  0  0  0  0  0
  184.6220  177.5010  138.1170 N   0  0  0  0  0  2  0  0  0  0  0  0
  185.3230  176.3270  137.6850 C   0  0  0  0  0  0  0  0  0  0  0  0
  187.3520  172.8920  136.2650 C   0  0  0  0  0  3  0  0  0  0  0  0
  183.0830  176.8890  139.9160 C   0  0  1  0  0  3  0  0  0  0  0  0
  184.4000  178.2510  141.5960 C   0  0  0  0  0  2  0  0  0  0  0  0
  186.6580  174.0900  136.7860 C   0  0  0  0  0  0  0  0  0  0  0  0
  187.6070  178.2550  135.9810 C   0  0  0  0  0  2  0  0  0  0  0  0
  188.9940  177.8900  135.4660 C   0  0  0  0  0  1  0  0  0  0  0  0
  1 15  2  0  0  0  0
  3 17  1  6  0  0  0
  6 29  1  0  0  0  0
  7 31  1  1  0  0  0
  7  3  1  0  0  0  0
  7 20  1  0  0  0  0
  8  1  1  0  0  0  0
  9 16  1  0  0  0  0
 10 30  1  0  0  0  0
 13 11  1  6  0  0  0
 13 22  1  0  0  0  0
 13 27  1  0  0  0  0
 14  5  1  0  0  0  0
 14  2  1  0  0  0  0
 15  4  1  0  0  0  0
 15  3  1  0  0  0  0
 16 18  1  0  0  0  0
 18 12  1  1  0  0  0
 18 14  1  0  0  0  0
 19 14  1  0  0  0  0
 20 27  2  0  0  0  0
 21  1  1  0  0  0  0
 21 17  2  0  0  0  0
 22 32  1  6  0  0  0
 22  9  1  0  0  0  0
 23 19  1  0  0  0  0
 23 30  1  0  0  0  0
 24 17  1  0  0  0  0
 24 28  2  0  0  0  0
 26  6  1  0  0  0  0
 27 26  1  0  0  0  0
 28 31  1  0  0  0  0
 29 25  1  6  0  0  0
 29 10  1  0  0  0  0
 31 11  2  0  0  0  0
 33 32  1  0  0  0  0
M  END
>  <MODEL>
4

>  <REMARK>
 VINA RESULT:      -5.6      4.491      7.850
  Name = 
  1 active torsions:
  status: ('A' for Active; 'I' for Inactive)
    1  A    between atoms: C_13  and  C_23
                            x       y       z     vdW  Elec       q    Type
                         _______ _______ _______ _____ _____    ______ ____

>  <TORSDO>
F 1

$$$$
=
 OpenBabel10222417573D

 33 36  0  0  1  0  0  0  0  0999 V2000
  189.4490  177.7920  138.9440 C   0  0  0  0  0  0  0  0  0  0  0  0
  180.1630  180.4560  136.9680 F   0  0  0  0  0  0  0  0  0  0  0  0
  187.6020  178.6110  137.8680 C   0  0  1  0  0  3  0  0  0  0  0  0
  187.5360  178.2540  140.4900 C   0  0  0  0  0  1  0  0  0  0  0  0
  178.9310  179.3100  135.4770 F   0  0  0  0  0  0  0  0  0  0  0  0
  183.2280  177.1260  140.2210 C   0  0  0  0  0  2  0  0  0  0  0  0
  186.3800  177.8490  137.4300 C   0  0  1  0  0  3  0  0  0  0  0  0
  190.5510  177.2220  140.1770 Cl  0  0  0  0  0  0  0  0  0  0  0  0
  182.2600  176.6160  134.7940 C   0  0  0  0  0  2  0  0  0  0  0  0
  181.5280  178.8810  140.7380 C   0  0  0  0  0  2  0  0  0  0  0  0
  185.0840  176.9110  135.6570 N   0  0  0  0  0  0  0  0  0  0  0  0
  181.7250  179.5600  134.8890 O   0  0  0  0  0  1  0  0  0  0  0  0
  184.0590  176.6710  136.5250 C   0  0  1  0  0  3  0  0  0  0  0  0
  179.9180  179.1980  136.4430 C   0  0  0  0  0  0  0  0  0  0  0  0
  188.1980  178.1590  139.1570 C   0  0  0  0  0  0  0  0  0  0  0  0
  180.9510  177.3210  135.0970 C   0  0  0  0  0  2  0  0  0  0  0  0
  188.7380  178.2790  136.9500 C   0  0  0  0  0  0  0  0  0  0  0  0
  181.2010  178.6460  135.8030 C   0  0  1  0  0  3  0  0  0  0  0  0
  179.4010  178.2780  137.5570 C   0  0  0  0  0  2  0  0  0  0  0  0
  185.3510  177.6230  138.2890 N   0  0  0  0  0  0  0  0  0  0  0  0
  189.7740  177.8180  137.5600 N   0  0  0  0  0  0  0  0  0  0  0  0
  182.8180  175.9700  136.0580 C   0  0  2  0  0  3  0  0  0  0  0  0
  180.4210  177.9930  138.6620 C   0  0  0  0  0  2  0  0  0  0  0  0
  188.5260  178.0640  135.5520 N   0  0  0  0  0  0  0  0  0  0  0  0
  183.8470  179.1110  141.5230 C   0  0  0  0  0  1  0  0  0  0  0  0
  183.1580  176.7490  138.8180 N   0  0  0  0  0  2  0  0  0  0  0  0
  184.2020  177.0270  137.8750 C   0  0  0  0  0  0  0  0  0  0  0  0
  187.3470  177.7150  135.1250 C   0  0  0  0  0  3  0  0  0  0  0  0
  182.9870  178.6160  140.3870 C   0  0  1  0  0  3  0  0  0  0  0  0
  180.6910  179.2270  139.5110 C   0  0  0  0  0  2  0  0  0  0  0  0
  186.2340  177.4960  136.0730 C   0  0  0  0  0  0  0  0  0  0  0  0
  183.1020  174.4920  135.8270 C   0  0  0  0  0  2  0  0  0  0  0  0
  182.3930  173.6510  136.8810 C   0  0  0  0  0  1  0  0  0  0  0  0
  1 15  2  0  0  0  0
  1  8  1  0  0  0  0
  3 17  1  6  0  0  0
  3 15  1  0  0  0  0
  5 14  1  0  0  0  0
  6 29  1  0  0  0  0
  7 31  1  6  0  0  0
  7  3  1  0  0  0  0
  7 20  1  0  0  0  0
  9 16  1  0  0  0  0
  9 22  1  0  0  0  0
 11 31  2  0  0  0  0
 13 11  1  1  0  0  0
 13 27  1  0  0  0  0
 14  2  1  0  0  0  0
 14 19  1  0  0  0  0
 15  4  1  0  0  0  0
 16 18  1  0  0  0  0
 17 21  2  0  0  0  0
 18 12  1  6  0  0  0
 18 14  1  0  0  0  0
 19 23  1  0  0  0  0
 21  1  1  0  0  0  0
 22 32  1  6  0  0  0
 22 13  1  0  0  0  0
 23 30  1  0  0  0  0
 24 17  1  0  0  0  0
 26  6  1  0  0  0  0
 27 20  2  0  0  0  0
 27 26  1  0  0  0  0
 28 24  2  0  0  0  0
 28 31  1  0  0  0  0
 29 10  1  0  0  0  0
 29 25  1  1  0  0  0
 30 10  1  0  0  0  0
 32 33  1  0  0  0  0
M  END
>  <MODEL>
5

>  <REMARK>
 VINA RESULT:      -5.4      3.285      5.855
  Name = 
  1 active torsions:
  status: ('A' for Active; 'I' for Inactive)
    1  A    between atoms: C_13  and  C_23
                            x       y       z     vdW  Elec       q    Type
                         _______ _______ _______ _____ _____    ______ ____

>  <TORSDO>
F 1

$$$$
=
 OpenBabel10222417573D

 33 36  0  0  1  0  0  0  0  0999 V2000
  180.0210  178.8950  141.1130 C   0  0  0  0  0  0  0  0  0  0  0  0
  186.0100  172.2560  136.9560 F   0  0  0  0  0  0  0  0  0  0  0  0
  181.0300  176.9140  140.5710 C   0  0  1  0  0  3  0  0  0  0  0  0
  182.2340  179.1980  139.9850 C   0  0  0  0  0  1  0  0  0  0  0  0
  185.2260  170.7860  135.4480 F   0  0  0  0  0  0  0  0  0  0  0  0
  183.8900  177.3650  136.2700 C   0  0  0  0  0  2  0  0  0  0  0  0
  181.0340  176.2200  139.2340 C   0  0  1  0  0  3  0  0  0  0  0  0
  179.6810  180.5990  141.3160 Cl  0  0  0  0  0  0  0  0  0  0  0  0
  181.2650  172.5110  135.8240 C   0  0  0  0  0  2  0  0  0  0  0  0
  186.2360  176.5130  136.3350 C   0  0  0  0  0  2  0  0  0  0  0  0
  180.2670  174.4230  137.8630 N   0  0  0  0  0  0  0  0  0  0  0  0
  183.4500  171.4760  137.5890 O   0  0  0  0  0  1  0  0  0  0  0  0
  181.1710  174.7620  136.9000 C   0  0  1  0  0  3  0  0  0  0  0  0
  185.0950  172.0780  135.9330 C   0  0  0  0  0  0  0  0  0  0  0  0
  181.0860  178.4020  140.5080 C   0  0  0  0  0  0  0  0  0  0  0  0
  182.6210  171.9660  135.4150 C   0  0  0  0  0  2  0  0  0  0  0  0
  179.6810  176.7520  141.1980 C   0  0  0  0  0  0  0  0  0  0  0  0
  183.6710  172.2810  136.4720 C   0  0  1  0  0  3  0  0  0  0  0  0
  185.4130  173.0550  134.7940 C   0  0  0  0  0  2  0  0  0  0  0  0
  181.9450  176.5470  138.2790 N   0  0  0  0  0  0  0  0  0  0  0  0
  179.1160  177.8690  141.5020 N   0  0  0  0  0  0  0  0  0  0  0  0
  181.2090  174.0180  135.5990 C   0  0  2  0  0  3  0  0  0  0  0  0
  185.2300  174.5300  135.1610 C   0  0  0  0  0  2  0  0  0  0  0  0
  178.9310  175.5430  141.0490 N   0  0  0  0  0  0  0  0  0  0  0  0
  185.4500  178.1510  137.9930 C   0  0  0  0  0  1  0  0  0  0  0  0
  182.9540  176.2640  136.0990 N   0  0  0  0  0  2  0  0  0  0  0  0
  182.0230  175.8580  137.1110 C   0  0  0  0  0  0  0  0  0  0  0  0
  179.1710  174.7550  140.0410 C   0  0  0  0  0  3  0  0  0  0  0  0
  185.0410  176.9540  137.1700 C   0  0  1  0  0  3  0  0  0  0  0  0
  186.2880  175.0000  136.1490 C   0  0  0  0  0  2  0  0  0  0  0  0
  180.1830  175.1170  139.0240 C   0  0  0  0  0  0  0  0  0  0  0  0
  180.0060  174.3900  134.7420 C   0  0  0  0  0  2  0  0  0  0  0  0
  179.0720  173.1940  134.6030 C   0  0  0  0  0  1  0  0  0  0  0  0
  1  8  1  0  0  0  0
  1 21  1  0  0  0  0
  3 15  1  6  0  0  0
  3 17  1  0  0  0  0
  4 15  1  0  0  0  0
  5 14  1  0  0  0  0
  6 29  1  0  0  0  0
  7 20  1  1  0  0  0
  7  3  1  0  0  0  0
 10 29  1  0  0  0  0
 11 31  2  0  0  0  0
 13 27  1  6  0  0  0
 13 11  1  0  0  0  0
 14 18  1  0  0  0  0
 14  2  1  0  0  0  0
 15  1  2  0  0  0  0
 16  9  1  0  0  0  0
 16 18  1  0  0  0  0
 17 21  2  0  0  0  0
 18 12  1  1  0  0  0
 19 23  1  0  0  0  0
 19 14  1  0  0  0  0
 22 32  1  6  0  0  0
 22  9  1  0  0  0  0
 22 13  1  0  0  0  0
 23 30  1  0  0  0  0
 24 17  1  0  0  0  0
 26  6  1  0  0  0  0
 26 27  1  0  0  0  0
 27 20  2  0  0  0  0
 28 24  2  0  0  0  0
 29 25  1  6  0  0  0
 30 10  1  0  0  0  0
 31  7  1  0  0  0  0
 31 28  1  0  0  0  0
 33 32  1  0  0  0  0
M  END
>  <MODEL>
6

>  <REMARK>
 VINA RESULT:      -5.2      4.715      6.678
  Name = 
  1 active torsions:
  status: ('A' for Active; 'I' for Inactive)
    1  A    between atoms: C_13  and  C_23
                            x       y       z     vdW  Elec       q    Type
                         _______ _______ _______ _____ _____    ______ ____

>  <TORSDO>
F 1

$$$$
=
 OpenBabel10222417573D

 33 36  0  0  1  0  0  0  0  0999 V2000
  182.3970  174.3430  135.4190 C   0  0  0  0  0  0  0  0  0  0  0  0
  188.1700  176.9630  142.9710 F   0  0  0  0  0  0  0  0  0  0  0  0
  184.0940  174.3660  136.9540 C   0  0  1  0  0  3  0  0  0  0  0  0
  181.9060  175.7890  137.4020 C   0  0  0  0  0  1  0  0  0  0  0  0
  190.2160  177.8200  142.6100 F   0  0  0  0  0  0  0  0  0  0  0  0
  184.3660  178.9280  139.4020 C   0  0  0  0  0  2  0  0  0  0  0  0
  185.1690  175.4080  137.1200 C   0  0  1  0  0  3  0  0  0  0  0  0
  180.8840  174.6410  134.5940 Cl  0  0  0  0  0  0  0  0  0  0  0  0
  189.6030  177.4860  138.3300 C   0  0  0  0  0  2  0  0  0  0  0  0
  184.4790  178.9080  141.8970 C   0  0  0  0  0  2  0  0  0  0  0  0
  187.4600  176.0350  136.8770 N   0  0  0  0  0  0  0  0  0  0  0  0
  189.3510  175.7880  140.7830 O   0  0  0  0  0  1  0  0  0  0  0  0
  187.2340  177.1660  137.6060 C   0  0  1  0  0  3  0  0  0  0  0  0
  188.9230  177.7500  142.1170 C   0  0  0  0  0  0  0  0  0  0  0  0
  182.7580  174.8980  136.5620 C   0  0  0  0  0  0  0  0  0  0  0  0
  189.8660  177.8790  139.7720 C   0  0  0  0  0  2  0  0  0  0  0  0
  184.3930  173.5480  135.7360 C   0  0  0  0  0  0  0  0  0  0  0  0
  188.9420  177.1200  140.7150 C   0  0  1  0  0  3  0  0  0  0  0  0
  188.3390  179.1690  142.0900 C   0  0  0  0  0  2  0  0  0  0  0  0
  184.9510  176.5270  137.8580 N   0  0  0  0  0  0  0  0  0  0  0  0
  183.4350  173.5390  134.8750 N   0  0  0  0  0  0  0  0  0  0  0  0
  188.3340  178.1620  137.8200 C   0  0  2  0  0  3  0  0  0  0  0  0
  186.9350  179.2610  141.4880 C   0  0  0  0  0  2  0  0  0  0  0  0
  185.7360  173.2130  135.3760 N   0  0  0  0  0  0  0  0  0  0  0  0
  182.6550  177.7580  140.7140 C   0  0  0  0  0  1  0  0  0  0  0  0
  185.6690  178.6220  138.8320 N   0  0  0  0  0  2  0  0  0  0  0  0
  185.9450  177.4210  138.0990 C   0  0  0  0  0  0  0  0  0  0  0  0
  186.7210  173.9470  135.8060 C   0  0  0  0  0  3  0  0  0  0  0  0
  184.1220  178.1040  140.6530 C   0  0  1  0  0  3  0  0  0  0  0  0
  185.8920  178.6160  142.3910 C   0  0  0  0  0  2  0  0  0  0  0  0
  186.4650  175.1490  136.6290 C   0  0  0  0  0  0  0  0  0  0  0  0
  188.6120  178.9270  136.5330 C   0  0  0  0  0  2  0  0  0  0  0  0
  189.4230  178.0630  135.5740 C   0  0  0  0  0  1  0  0  0  0  0  0
  1 15  2  0  0  0  0
  3 17  1  6  0  0  0
  3  7  1  0  0  0  0
  6 29  1  0  0  0  0
  7 31  1  1  0  0  0
  7 20  1  0  0  0  0
  8  1  1  0  0  0  0
  9 16  1  0  0  0  0
 10 30  1  0  0  0  0
 13 11  1  6  0  0  0
 13 22  1  0  0  0  0
 13 27  1  0  0  0  0
 14  5  1  0  0  0  0
 14  2  1  0  0  0  0
 15  3  1  0  0  0  0
 15  4  1  0  0  0  0
 16 18  1  0  0  0  0
 18 12  1  1  0  0  0
 18 14  1  0  0  0  0
 19 14  1  0  0  0  0
 20 27  2  0  0  0  0
 21  1  1  0  0  0  0
 21 17  2  0  0  0  0
 22 32  1  6  0  0  0
 22  9  1  0  0  0  0
 23 19  1  0  0  0  0
 23 30  1  0  0  0  0
 24 17  1  0  0  0  0
 24 28  2  0  0  0  0
 26  6  1  0  0  0  0
 27 26  1  0  0  0  0
 28 31  1  0  0  0  0
 29 25  1  1  0  0  0
 29 10  1  0  0  0  0
 31 11  2  0  0  0  0
 33 32  1  0  0  0  0
M  END
>  <MODEL>
7

>  <REMARK>
 VINA RESULT:      -4.7      4.126      7.828
  Name = 
  1 active torsions:
  status: ('A' for Active; 'I' for Inactive)
    1  A    between atoms: C_13  and  C_23
                            x       y       z     vdW  Elec       q    Type
                         _______ _______ _______ _____ _____    ______ ____

>  <TORSDO>
F 1

$$$$
=
 OpenBabel10222417573D

 33 36  0  0  1  0  0  0  0  0999 V2000
  187.3540  177.9330  142.4300 C   0  0  0  0  0  0  0  0  0  0  0  0
  179.7570  180.4630  136.6760 F   0  0  0  0  0  0  0  0  0  0  0  0
  186.1290  178.7690  140.6870 C   0  0  1  0  0  3  0  0  0  0  0  0
  184.9350  178.2420  142.9910 C   0  0  0  0  0  1  0  0  0  0  0  0
  179.3690  179.3830  134.7430 F   0  0  0  0  0  0  0  0  0  0  0  0
  181.2500  177.0170  140.7930 C   0  0  0  0  0  2  0  0  0  0  0  0
  185.2660  178.0030  139.7190 C   0  0  1  0  0  3  0  0  0  0  0  0
  187.8300  177.3160  143.9960 Cl  0  0  0  0  0  0  0  0  0  0  0  0
  182.7970  176.8300  135.4800 C   0  0  0  0  0  2  0  0  0  0  0  0
  179.4060  178.6870  140.5850 C   0  0  0  0  0  2  0  0  0  0  0  0
  184.9330  177.1460  137.5160 N   0  0  0  0  0  0  0  0  0  0  0  0
  182.1190  179.7470  135.4630 O   0  0  0  0  0  1  0  0  0  0  0  0
  183.6450  176.8230  137.8290 C   0  0  1  0  0  3  0  0  0  0  0  0
  179.8350  179.2360  136.0400 C   0  0  0  0  0  0  0  0  0  0  0  0
  186.1190  178.2510  142.0850 C   0  0  0  0  0  0  0  0  0  0  0  0
  181.4530  177.4780  135.2050 C   0  0  0  0  0  2  0  0  0  0  0  0
  187.5670  178.5280  140.3520 C   0  0  0  0  0  0  0  0  0  0  0  0
  181.2960  178.7620  136.0090 C   0  0  1  0  0  3  0  0  0  0  0  0
  178.9310  178.2320  136.7670 C   0  0  0  0  0  2  0  0  0  0  0  0
  183.9780  177.6940  140.0230 N   0  0  0  0  0  0  0  0  0  0  0  0
  188.2530  178.0570  141.3360 N   0  0  0  0  0  0  0  0  0  0  0  0
  182.7760  176.1200  136.8300 C   0  0  2  0  0  3  0  0  0  0  0  0
  179.3730  177.9050  138.1950 C   0  0  0  0  0  2  0  0  0  0  0  0
  188.0040  178.3980  138.9960 N   0  0  0  0  0  0  0  0  0  0  0  0
  181.1280  178.9300  142.3240 C   0  0  0  0  0  1  0  0  0  0  0  0
  181.8250  176.7290  139.4880 N   0  0  0  0  0  2  0  0  0  0  0  0
  183.1610  177.0960  139.1180 C   0  0  0  0  0  0  0  0  0  0  0  0
  187.1540  178.0440  138.0760 C   0  0  0  0  0  3  0  0  0  0  0  0
  180.8820  178.4850  140.9030 C   0  0  1  0  0  3  0  0  0  0  0  0
  179.1770  179.0890  139.1310 C   0  0  0  0  0  2  0  0  0  0  0  0
  185.7500  177.7350  138.4230 C   0  0  0  0  0  0  0  0  0  0  0  0
  183.2100  174.6680  136.6800 C   0  0  0  0  0  2  0  0  0  0  0  0
  183.8880  174.4600  135.3320 C   0  0  0  0  0  1  0  0  0  0  0  0
  1  8  1  0  0  0  0
  3 17  1  6  0  0  0
  3 15  1  0  0  0  0
  5 14  1  0  0  0  0
  6 29  1  0  0  0  0
  7 31  1  6  0  0  0
  7 20  1  0  0  0  0
  7  3  1  0  0  0  0
  9 22  1  0  0  0  0
 10 29  1  0  0  0  0
 11 31  2  0  0  0  0
 13 11  1  1  0  0  0
 13 27  1  0  0  0  0
 14  2  1  0  0  0  0
 14 19  1  0  0  0  0
 15  1  2  0  0  0  0
 15  4  1  0  0  0  0
 16  9  1  0  0  0  0
 16 18  1  0  0  0  0
 17 21  2  0  0  0  0
 18 12  1  6  0  0  0
 18 14  1  0  0  0  0
 19 23  1  0  0  0  0
 21  1  1  0  0  0  0
 22 32  1  6  0  0  0
 22 13  1  0  0  0  0
 23 30  1  0  0  0  0
 24 17  1  0  0  0  0
 26  6  1  0  0  0  0
 27 26  1  0  0  0  0
 27 20  2  0  0  0  0
 28 31  1  0  0  0  0
 28 24  2  0  0  0  0
 29 25  1  1  0  0  0
 30 10  1  0  0  0  0
 33 32  1  0  0  0  0
M  END
>  <MODEL>
8

>  <REMARK>
 VINA RESULT:      -4.6      2.849      5.653
  Name = 
  1 active torsions:
  status: ('A' for Active; 'I' for Inactive)
    1  A    between atoms: C_13  and  C_23
                            x       y       z     vdW  Elec       q    Type
                         _______ _______ _______ _____ _____    ______ ____

>  <TORSDO>
F 1

$$$$
=
 OpenBabel10222417573D

 33 36  0  0  1  0  0  0  0  0999 V2000
  184.2320  179.0450  144.5750 C   0  0  0  0  0  0  0  0  0  0  0  0
  180.7160  175.8060  135.9520 F   0  0  0  0  0  0  0  0  0  0  0  0
  182.8590  178.1210  142.9950 C   0  0  1  0  0  3  0  0  0  0  0  0
  185.4340  178.4370  142.4660 C   0  0  0  0  0  1  0  0  0  0  0  0
  179.0430  176.8880  134.9130 F   0  0  0  0  0  0  0  0  0  0  0  0
  184.4470  179.2840  138.1980 C   0  0  0  0  0  2  0  0  0  0  0  0
  182.2240  178.8080  141.8150 C   0  0  1  0  0  3  0  0  0  0  0  0
  185.6350  179.6690  145.4150 Cl  0  0  0  0  0  0  0  0  0  0  0  0
  178.9360  179.8040  138.1220 C   0  0  0  0  0  2  0  0  0  0  0  0
  184.6670  177.4140  136.5570 C   0  0  0  0  0  2  0  0  0  0  0  0
  180.2610  179.6830  140.7740 N   0  0  0  0  0  0  0  0  0  0  0  0
  178.9320  176.8300  137.7760 O   0  0  0  0  0  1  0  0  0  0  0  0
  180.9440  179.8430  139.6050 C   0  0  1  0  0  3  0  0  0  0  0  0
  180.1610  177.0510  135.7150 C   0  0  0  0  0  0  0  0  0  0  0  0
  184.2320  178.5940  143.3340 C   0  0  0  0  0  0  0  0  0  0  0  0
  179.0120  179.0100  136.8310 C   0  0  0  0  0  2  0  0  0  0  0  0
  182.1470  178.5400  144.2430 C   0  0  0  0  0  0  0  0  0  0  0  0
  179.7480  177.6950  137.0470 C   0  0  1  0  0  3  0  0  0  0  0  0
  181.1740  177.9200  134.9580 C   0  0  0  0  0  2  0  0  0  0  0  0
  182.8980  178.9540  140.6440 N   0  0  0  0  0  0  0  0  0  0  0  0
  182.9230  179.0590  145.1290 N   0  0  0  0  0  0  0  0  0  0  0  0
  180.2770  180.4670  138.4160 C   0  0  2  0  0  3  0  0  0  0  0  0
  182.4360  178.2560  135.7560 C   0  0  0  0  0  2  0  0  0  0  0  0
  180.7330  178.7590  144.2550 N   0  0  0  0  0  0  0  0  0  0  0  0
  185.8300  177.3260  138.7220 C   0  0  0  0  0  1  0  0  0  0  0  0
  183.0530  179.6750  138.3390 N   0  0  0  0  0  2  0  0  0  0  0  0
  182.2990  179.4780  139.5430 C   0  0  0  0  0  0  0  0  0  0  0  0
  180.1150  179.0370  143.1440 C   0  0  0  0  0  3  0  0  0  0  0  0
  184.5670  177.7800  138.0330 C   0  0  1  0  0  3  0  0  0  0  0  0
  183.3150  177.0310  135.9620 C   0  0  0  0  0  2  0  0  0  0  0  0
  180.8630  179.1680  141.8750 C   0  0  0  0  0  0  0  0  0  0  0  0
  180.1010  181.9640  138.6340 C   0  0  0  0  0  2  0  0  0  0  0  0
  180.9630  182.7430  137.6490 C   0  0  0  0  0  1  0  0  0  0  0  0
  1 21  1  0  0  0  0
  1  8  1  0  0  0  0
  3 15  1  1  0  0  0
  3 17  1  0  0  0  0
  4 15  1  0  0  0  0
  5 14  1  0  0  0  0
  6 26  1  0  0  0  0
  7 20  1  6  0  0  0
  7 31  1  0  0  0  0
  7  3  1  0  0  0  0
  9 22  1  0  0  0  0
 10 29  1  0  0  0  0
 11 31  2  0  0  0  0
 13 27  1  1  0  0  0
 13 11  1  0  0  0  0
 14  2  1  0  0  0  0
 14 18  1  0  0  0  0
 15  1  2  0  0  0  0
 16 18  1  0  0  0  0
 16  9  1  0  0  0  0
 17 24  1  0  0  0  0
 17 21  2  0  0  0  0
 18 12  1  6  0  0  0
 19 14  1  0  0  0  0
 19 23  1  0  0  0  0
 22 32  1  1  0  0  0
 22 13  1  0  0  0  0
 23 30  1  0  0  0  0
 26 27  1  0  0  0  0
 27 20  2  0  0  0  0
 28 24  2  0  0  0  0
 29  6  1  0  0  0  0
 29 25  1  1  0  0  0
 30 10  1  0  0  0  0
 31 28  1  0  0  0  0
 33 32  1  0  0  0  0
M  END
>  <MODEL>
9

>  <REMARK>
 VINA RESULT:      -4.5      3.171      4.559
  Name = 
  1 active torsions:
  status: ('A' for Active; 'I' for Inactive)
    1  A    between atoms: C_13  and  C_23
                            x       y       z     vdW  Elec       q    Type
                         _______ _______ _______ _____ _____    ______ ____

>  <TORSDO>
F 1

$$$$
