=
 OpenBabel10222415483D

 31 36  0  0  1  0  0  0  0  0999 V2000
  187.0500  178.5890  139.8450 C   0  0  0  0  0  3  0  0  0  0  0  0
  186.7540  178.8890  145.9160 C   0  0  2  0  0  3  0  0  0  0  0  0
  191.3490  177.0470  145.3660 C   0  0  0  0  0  2  0  0  0  0  0  0
  187.2020  177.2580  143.9920 C   0  0  1  0  0  3  0  0  0  0  0  0
  186.1300  179.0420  140.8430 O   0  0  0  0  0  0  0  0  0  0  0  0
  190.8670  176.1610  144.2230 C   0  0  0  0  0  2  0  0  0  0  0  0
  189.4470  177.7390  139.5570 C   0  0  0  0  0  2  0  0  0  0  0  0
  184.9210  178.3090  144.2700 C   0  0  0  0  0  0  0  0  0  0  0  0
  190.5360  177.0830  139.9650 C   0  0  0  0  0  0  0  0  0  0  0  0
  185.7650  179.3650  146.8700 N   0  0  0  0  0  1  0  0  0  0  0  0
  189.6290  176.7500  143.6110 C   0  0  2  0  0  3  0  0  0  0  0  0
  190.2250  177.2790  146.3680 C   0  0  0  0  0  2  0  0  0  0  0  0
  186.1570  177.8290  144.9840 C   0  0  2  0  0  3  0  0  0  0  0  0
  187.1730  177.8600  142.6110 C   0  0  0  0  0  0  0  0  0  0  0  0
  183.7500  178.3110  144.8920 C   0  0  0  0  0  2  0  0  0  0  0  0
  187.9270  178.2810  146.6720 C   0  0  2  0  0  3  0  0  0  0  0  0
  188.2910  177.9770  140.4360 C   0  0  0  0  0  0  0  0  0  0  0  0
  184.9910  178.7540  142.9490 O   0  0  0  0  0  0  0  0  0  0  0  0
  188.3220  177.5980  141.7240 C   0  0  0  0  0  0  0  0  0  0  0  0
  189.5250  176.9340  142.2810 C   0  0  0  0  0  0  0  0  0  0  0  0
  189.0460  177.9760  145.6820 C   0  0  2  0  0  3  0  0  0  0  0  0
  188.5920  177.2230  144.4990 N   0  0  1  0  0  0  0  0  0  0  0  0
  186.1150  178.5400  142.1490 C   0  0  0  0  0  0  0  0  0  0  0  0
  190.6190  176.4760  141.3470 C   0  0  0  0  0  3  0  0  0  0  0  0
  187.8450  177.3730  148.6960 C   0  0  0  0  0  1  0  0  0  0  0  0
  187.5330  177.1230  147.3590 O   0  0  0  0  0  0  0  0  0  0  0  0
  191.6090  176.9100  139.0370 N   0  0  0  0  0  2  0  0  0  0  0  0
  193.1880  175.5150  137.1080 C   0  0  0  0  0  1  0  0  0  0  0  0
  190.7290  176.4300  136.5840 O   0  0  0  0  0  0  0  0  0  0  0  0
  190.9210  174.5200  138.1220 O   0  0  0  0  0  0  0  0  0  0  0  0
  191.5390  175.8210  137.6920 S   0  0  0  0  0  0  0  0  0  0  0  0
  1 17  2  0  0  0  0
  1  5  1  0  0  0  0
  2 16  1  0  0  0  0
  2 10  1  1  0  0  0
  3 12  1  0  0  0  0
  4 14  1  6  0  0  0
  4 22  1  0  0  0  0
  4 13  1  0  0  0  0
  5 23  1  0  0  0  0
  6  3  1  0  0  0  0
  7  9  1  0  0  0  0
  7 17  1  0  0  0  0
  8 15  2  0  0  0  0
  9 24  2  0  0  0  0
 11  6  1  1  0  0  0
 11 22  1  0  0  0  0
 13  8  1  6  0  0  0
 13  2  1  0  0  0  0
 16 26  1  6  0  0  0
 17 19  1  0  0  0  0
 18  8  1  0  0  0  0
 19 20  2  0  0  0  0
 19 14  1  0  0  0  0
 20 11  1  0  0  0  0
 21 12  1  1  0  0  0
 21 16  1  0  0  0  0
 22 21  1  0  0  0  0
 23 14  2  0  0  0  0
 23 18  1  0  0  0  0
 24 20  1  0  0  0  0
 26 25  1  0  0  0  0
 27  9  1  0  0  0  0
 28 31  1  0  0  0  0
 29 31  2  0  0  0  0
 31 30  2  0  0  0  0
 31 27  1  0  0  0  0
M  END
>  <MODEL>
1

>  <REMARK>
 VINA RESULT:      -9.4      0.000      0.000
  Name = 
  3 active torsions:
  status: ('A' for Active; 'I' for Inactive)
    1  A    between atoms: N_1  and  C_13
    2  A    between atoms: N_1  and  S_24
    3  A    between atoms: C_20  and  O_30
                            x       y       z     vdW  Elec       q    Type
                         _______ _______ _______ _____ _____    ______ ____

>  <TORSDO>
F 3

$$$$
=
 OpenBabel10222415483D

 31 36  0  0  1  0  0  0  0  0999 V2000
  184.9040  178.6370  146.9830 C   0  0  0  0  0  3  0  0  0  0  0  0
  190.4480  178.2150  144.5090 C   0  0  2  0  0  3  0  0  0  0  0  0
  187.7000  178.7260  140.3860 C   0  0  0  0  0  2  0  0  0  0  0  0
  188.1200  177.1510  144.4440 C   0  0  1  0  0  3  0  0  0  0  0  0
  186.2610  178.5290  147.4270 O   0  0  0  0  0  0  0  0  0  0  0  0
  186.6240  177.8270  140.9820 C   0  0  0  0  0  2  0  0  0  0  0  0
  183.5010  179.0030  144.8740 C   0  0  0  0  0  3  0  0  0  0  0  0
  189.5270  177.0170  146.5390 C   0  0  0  0  0  0  0  0  0  0  0  0
  183.2620  178.8800  143.5660 C   0  0  0  0  0  0  0  0  0  0  0  0
  191.7990  178.1000  145.0360 N   0  0  0  0  0  1  0  0  0  0  0  0
  186.7210  177.8400  142.4800 C   0  0  2  0  0  3  0  0  0  0  0  0
  189.0740  178.3290  140.9110 C   0  0  0  0  0  2  0  0  0  0  0  0
  189.5510  177.0900  145.0350 C   0  0  2  0  0  3  0  0  0  0  0  0
  187.0870  177.7960  145.3300 C   0  0  0  0  0  0  0  0  0  0  0  0
  190.5190  176.4300  147.1940 C   0  0  0  0  0  2  0  0  0  0  0  0
  190.4970  178.1430  142.9890 C   0  0  2  0  0  3  0  0  0  0  0  0
  184.7810  178.6070  145.4840 C   0  0  0  0  0  0  0  0  0  0  0  0
  188.4650  177.5630  147.2590 O   0  0  0  0  0  0  0  0  0  0  0  0
  185.7950  178.1680  144.7210 C   0  0  1  0  0  3  0  0  0  0  0  0
  185.6410  178.0760  143.2490 C   0  0  0  0  0  0  0  0  0  0  0  0
  189.1150  178.4720  142.4350 C   0  0  2  0  0  3  0  0  0  0  0  0
  188.0300  177.7060  143.0760 N   0  0  1  0  0  0  0  0  0  0  0  0
  187.2740  177.9590  146.6470 C   0  0  0  0  0  0  0  0  0  0  0  0
  184.2750  178.2540  142.6340 C   0  0  0  0  0  3  0  0  0  0  0  0
  192.0390  177.1190  141.7630 C   0  0  0  0  0  1  0  0  0  0  0  0
  190.9210  176.8750  142.5620 O   0  0  0  0  0  0  0  0  0  0  0  0
  181.9900  179.3000  143.0690 N   0  0  0  0  0  2  0  0  0  0  0  0
  180.0950  180.0670  141.0740 C   0  0  0  0  0  1  0  0  0  0  0  0
  180.9700  177.5550  141.3540 O   0  0  0  0  0  0  0  0  0  0  0  0
  182.5610  179.2160  140.4830 O   0  0  0  0  0  0  0  0  0  0  0  0
  181.4430  178.9770  141.4580 S   0  0  0  0  0  0  0  0  0  0  0  0
  1  5  1  0  0  0  0
  2 13  1  0  0  0  0
  2 10  1  1  0  0  0
  3 12  1  0  0  0  0
  3  6  1  0  0  0  0
  4 13  1  0  0  0  0
  4 14  1  1  0  0  0
  7 17  1  0  0  0  0
  8 15  2  0  0  0  0
  8 18  1  0  0  0  0
  9  7  2  0  0  0  0
 11  6  1  6  0  0  0
 11 22  1  0  0  0  0
 11 20  1  0  0  0  0
 13  8  1  1  0  0  0
 14 23  2  0  0  0  0
 16 26  1  1  0  0  0
 16  2  1  0  0  0  0
 17  1  2  0  0  0  0
 19 20  1  6  0  0  0
 19 14  1  0  0  0  0
 19 17  1  0  0  0  0
 21 12  1  6  0  0  0
 21 16  1  0  0  0  0
 21 22  1  0  0  0  0
 22  4  1  0  0  0  0
 23 18  1  0  0  0  0
 23  5  1  0  0  0  0
 24 20  2  0  0  0  0
 24  9  1  0  0  0  0
 25 26  1  0  0  0  0
 27  9  1  0  0  0  0
 28 31  1  0  0  0  0
 29 31  2  0  0  0  0
 30 31  2  0  0  0  0
 31 27  1  0  0  0  0
M  END
>  <MODEL>
2

>  <REMARK>
 VINA RESULT:      -9.0      3.266      6.907
  Name = 
  3 active torsions:
  status: ('A' for Active; 'I' for Inactive)
    1  A    between atoms: N_1  and  C_13
    2  A    between atoms: N_1  and  S_24
    3  A    between atoms: C_20  and  O_30
                            x       y       z     vdW  Elec       q    Type
                         _______ _______ _______ _____ _____    ______ ____

>  <TORSDO>
F 3

$$$$
=
 OpenBabel10222415483D

 31 36  0  0  1  0  0  0  0  0999 V2000
  186.8260  177.7290  137.3730 C   0  0  0  0  0  3  0  0  0  0  0  0
  189.4060  176.5040  142.7470 C   0  0  2  0  0  3  0  0  0  0  0  0
  184.9640  178.1590  144.2800 C   0  0  0  0  0  2  0  0  0  0  0  0
  188.2750  178.3880  141.4310 C   0  0  1  0  0  3  0  0  0  0  0  0
  188.0520  177.1760  137.8630 O   0  0  0  0  0  0  0  0  0  0  0  0
  184.9840  179.2360  143.2020 C   0  0  0  0  0  2  0  0  0  0  0  0
  184.5070  178.4820  138.1530 C   0  0  0  0  0  2  0  0  0  0  0  0
  190.4810  177.4310  140.6520 C   0  0  0  0  0  0  0  0  0  0  0  0
  183.6620  179.0070  139.0440 C   0  0  0  0  0  0  0  0  0  0  0  0
  190.6790  175.9390  143.1670 N   0  0  0  0  0  1  0  0  0  0  0  0
  185.8910  178.8170  142.0810 C   0  0  2  0  0  3  0  0  0  0  0  0
  186.3830  177.8340  144.7320 C   0  0  0  0  0  2  0  0  0  0  0  0
  189.6130  177.7260  141.8470 C   0  0  2  0  0  3  0  0  0  0  0  0
  187.7710  178.0100  140.0620 C   0  0  0  0  0  0  0  0  0  0  0  0
  191.8000  177.3950  140.7780 C   0  0  0  0  0  2  0  0  0  0  0  0
  188.6140  176.9220  143.9780 C   0  0  2  0  0  3  0  0  0  0  0  0
  185.9090  178.1730  138.4810 C   0  0  0  0  0  0  0  0  0  0  0  0
  189.9090  177.1940  139.4010 O   0  0  0  0  0  0  0  0  0  0  0  0
  186.3730  178.3450  139.7280 C   0  0  0  0  0  0  0  0  0  0  0  0
  185.4790  178.8490  140.7980 C   0  0  0  0  0  0  0  0  0  0  0  0
  187.2050  177.3170  143.5480 C   0  0  2  0  0  3  0  0  0  0  0  0
  187.1830  178.2690  142.4220 N   0  0  1  0  0  0  0  0  0  0  0  0
  188.5670  177.4690  139.1310 C   0  0  0  0  0  0  0  0  0  0  0  0
  184.1170  179.3860  140.4350 C   0  0  0  0  0  3  0  0  0  0  0  0
  189.5740  177.4670  145.9040 C   0  0  0  0  0  1  0  0  0  0  0  0
  189.2510  177.9790  144.6470 O   0  0  0  0  0  0  0  0  0  0  0  0
  182.3180  179.2650  138.6310 N   0  0  0  0  0  2  0  0  0  0  0  0
  180.3480  181.1270  139.5320 C   0  0  0  0  0  1  0  0  0  0  0  0
  181.1690  180.9990  136.9890 O   0  0  0  0  0  0  0  0  0  0  0  0
  182.7580  181.8780  138.6470 O   0  0  0  0  0  0  0  0  0  0  0  0
  181.6840  180.8590  138.3930 S   0  0  0  0  0  0  0  0  0  0  0  0
  1  5  1  0  0  0  0
  1 17  2  0  0  0  0
  2 10  1  1  0  0  0
  2 16  1  0  0  0  0
  3 12  1  0  0  0  0
  4 14  1  6  0  0  0
  4 13  1  0  0  0  0
  4 22  1  0  0  0  0
  5 23  1  0  0  0  0
  6  3  1  0  0  0  0
  7 17  1  0  0  0  0
  7  9  1  0  0  0  0
  8 15  2  0  0  0  0
  9 24  2  0  0  0  0
 11 22  1  0  0  0  0
 11  6  1  1  0  0  0
 13  8  1  6  0  0  0
 13  2  1  0  0  0  0
 16 26  1  6  0  0  0
 17 19  1  0  0  0  0
 18  8  1  0  0  0  0
 19 14  1  0  0  0  0
 19 20  2  0  0  0  0
 20 11  1  0  0  0  0
 21 16  1  0  0  0  0
 21 12  1  1  0  0  0
 22 21  1  0  0  0  0
 23 18  1  0  0  0  0
 23 14  2  0  0  0  0
 24 20  1  0  0  0  0
 26 25  1  0  0  0  0
 27  9  1  0  0  0  0
 29 31  2  0  0  0  0
 31 27  1  0  0  0  0
 31 30  2  0  0  0  0
 31 28  1  0  0  0  0
M  END
>  <MODEL>
3

>  <REMARK>
 VINA RESULT:      -8.7      3.650      6.502
  Name = 
  3 active torsions:
  status: ('A' for Active; 'I' for Inactive)
    1  A    between atoms: N_1  and  C_13
    2  A    between atoms: N_1  and  S_24
    3  A    between atoms: C_20  and  O_30
                            x       y       z     vdW  Elec       q    Type
                         _______ _______ _______ _____ _____    ______ ____

>  <TORSDO>
F 3

$$$$
=
 OpenBabel10222415483D

 31 36  0  0  1  0  0  0  0  0999 V2000
  185.0210  178.1720  144.3530 C   0  0  0  0  0  3  0  0  0  0  0  0
  185.1720  177.7510  138.2840 C   0  0  2  0  0  3  0  0  0  0  0  0
  189.9400  176.7660  139.3360 C   0  0  0  0  0  2  0  0  0  0  0  0
  186.2720  178.9640  140.2540 C   0  0  1  0  0  3  0  0  0  0  0  0
  184.1010  178.2500  143.2590 O   0  0  0  0  0  0  0  0  0  0  0  0
  189.9290  177.8320  140.4250 C   0  0  0  0  0  2  0  0  0  0  0  0
  187.4460  177.5650  144.9030 C   0  0  0  0  0  3  0  0  0  0  0  0
  183.8290  179.3400  139.7260 C   0  0  0  0  0  0  0  0  0  0  0  0
  188.7470  177.4850  144.6170 C   0  0  0  0  0  0  0  0  0  0  0  0
  184.1790  177.8510  137.2250 N   0  0  0  0  0  1  0  0  0  0  0  0
  188.5220  178.0630  140.8970 C   0  0  2  0  0  3  0  0  0  0  0  0
  188.9750  177.1410  138.2170 C   0  0  0  0  0  2  0  0  0  0  0  0
  185.1820  179.0140  139.1520 C   0  0  2  0  0  3  0  0  0  0  0  0
  185.7840  178.5560  141.6200 C   0  0  0  0  0  0  0  0  0  0  0  0
  182.9190  179.9510  138.9810 C   0  0  0  0  0  2  0  0  0  0  0  0
  186.5490  177.5640  137.6620 C   0  0  2  0  0  3  0  0  0  0  0  0
  186.4400  177.9600  143.9020 C   0  0  0  0  0  0  0  0  0  0  0  0
  183.5170  179.0040  141.0440 O   0  0  0  0  0  0  0  0  0  0  0  0
  186.7960  178.1860  142.6280 C   0  0  1  0  0  3  0  0  0  0  0  0
  188.2110  178.0410  142.2070 C   0  0  0  0  0  0  0  0  0  0  0  0
  187.5510  177.2520  138.7690 C   0  0  2  0  0  3  0  0  0  0  0  0
  187.4850  178.1950  139.9000 N   0  0  1  0  0  0  0  0  0  0  0  0
  184.4900  178.6030  141.9610 C   0  0  0  0  0  0  0  0  0  0  0  0
  189.2820  177.8670  143.2560 C   0  0  0  0  0  3  0  0  0  0  0  0
  187.1680  178.2530  135.6450 C   0  0  0  0  0  1  0  0  0  0  0  0
  186.9320  178.7070  136.9430 O   0  0  0  0  0  0  0  0  0  0  0  0
  189.6440  177.0850  145.6560 N   0  0  0  0  0  2  0  0  0  0  0  0
  192.0070  176.0160  146.8540 C   0  0  0  0  0  1  0  0  0  0  0  0
  192.0550  178.0300  145.0940 O   0  0  0  0  0  0  0  0  0  0  0  0
  191.4770  175.7970  144.2420 O   0  0  0  0  0  0  0  0  0  0  0  0
  191.3230  176.7530  145.3900 S   0  0  0  0  0  0  0  0  0  0  0  0
  2 10  1  6  0  0  0
  2 13  1  0  0  0  0
  3  6  1  0  0  0  0
  4 14  1  1  0  0  0
  5  1  1  0  0  0  0
  8 18  1  0  0  0  0
  9  7  2  0  0  0  0
  9 27  1  0  0  0  0
 11  6  1  6  0  0  0
 11 20  1  0  0  0  0
 12  3  1  0  0  0  0
 13  8  1  1  0  0  0
 13  4  1  0  0  0  0
 14 23  2  0  0  0  0
 15  8  2  0  0  0  0
 16 26  1  1  0  0  0
 16  2  1  0  0  0  0
 16 21  1  0  0  0  0
 17  1  2  0  0  0  0
 17  7  1  0  0  0  0
 18 23  1  0  0  0  0
 19 14  1  6  0  0  0
 19 17  1  0  0  0  0
 20 19  1  0  0  0  0
 20 24  2  0  0  0  0
 21 12  1  6  0  0  0
 21 22  1  0  0  0  0
 22  4  1  0  0  0  0
 22 11  1  0  0  0  0
 23  5  1  0  0  0  0
 24  9  1  0  0  0  0
 25 26  1  0  0  0  0
 29 31  2  0  0  0  0
 30 31  2  0  0  0  0
 31 27  1  0  0  0  0
 31 28  1  0  0  0  0
M  END
>  <MODEL>
4

>  <REMARK>
 VINA RESULT:      -8.4      3.133      6.488
  Name = 
  3 active torsions:
  status: ('A' for Active; 'I' for Inactive)
    1  A    between atoms: N_1  and  C_13
    2  A    between atoms: N_1  and  S_24
    3  A    between atoms: C_20  and  O_30
                            x       y       z     vdW  Elec       q    Type
                         _______ _______ _______ _____ _____    ______ ____

>  <TORSDO>
F 3

$$$$
=
 OpenBabel10222415483D

 31 36  0  0  1  0  0  0  0  0999 V2000
  184.2470  179.4840  144.5590 C   0  0  0  0  0  3  0  0  0  0  0  0
  189.7150  177.9840  146.7690 C   0  0  2  0  0  3  0  0  0  0  0  0
  190.6170  177.5820  141.8860 C   0  0  0  0  0  2  0  0  0  0  0  0
  187.8480  177.1250  145.2400 C   0  0  1  0  0  3  0  0  0  0  0  0
  184.8900  179.3940  145.8350 O   0  0  0  0  0  0  0  0  0  0  0  0
  189.2420  176.9610  141.6740 C   0  0  0  0  0  2  0  0  0  0  0  0
  184.7360  179.3780  142.0490 C   0  0  0  0  0  2  0  0  0  0  0  0
  187.4280  177.4500  147.7110 C   0  0  0  0  0  0  0  0  0  0  0  0
  185.4020  178.9280  140.9830 C   0  0  0  0  0  0  0  0  0  0  0  0
  190.2960  177.9100  148.1000 N   0  0  0  0  0  1  0  0  0  0  0  0
  188.3230  177.3690  142.7900 C   0  0  2  0  0  3  0  0  0  0  0  0
  191.1490  177.2340  143.2720 C   0  0  0  0  0  2  0  0  0  0  0  0
  188.4580  177.1140  146.6650 C   0  0  2  0  0  3  0  0  0  0  0  0
  186.6850  178.0630  145.0470 C   0  0  0  0  0  0  0  0  0  0  0  0
  187.5550  176.9850  148.9460 C   0  0  0  0  0  2  0  0  0  0  0  0
  190.7380  177.5030  145.7490 C   0  0  2  0  0  3  0  0  0  0  0  0
  185.1440  179.0620  143.4270 C   0  0  0  0  0  0  0  0  0  0  0  0
  186.3300  178.2500  147.3950 O   0  0  0  0  0  0  0  0  0  0  0  0
  186.2620  178.3570  143.6650 C   0  0  0  0  0  0  0  0  0  0  0  0
  187.1040  177.8860  142.5390 C   0  0  0  0  0  0  0  0  0  0  0  0
  190.2030  177.7780  144.3470 C   0  0  2  0  0  3  0  0  0  0  0  0
  188.8240  177.2980  144.1420 N   0  0  1  0  0  0  0  0  0  0  0  0
  185.9860  178.5580  146.0770 C   0  0  0  0  0  0  0  0  0  0  0  0
  186.5850  177.9980  141.1270 C   0  0  0  0  0  3  0  0  0  0  0  0
  192.1110  176.0990  146.7850 C   0  0  0  0  0  1  0  0  0  0  0  0
  191.0140  176.1380  145.9230 O   0  0  0  0  0  0  0  0  0  0  0  0
  184.9300  179.2960  139.6850 N   0  0  0  0  0  2  0  0  0  0  0  0
  184.8550  177.5030  137.4620 C   0  0  0  0  0  1  0  0  0  0  0  0
  182.8240  179.1290  138.0850 O   0  0  0  0  0  0  0  0  0  0  0  0
  183.2630  177.2380  139.5950 O   0  0  0  0  0  0  0  0  0  0  0  0
  183.8920  178.2920  138.7280 S   0  0  0  0  0  0  0  0  0  0  0  0
  1  5  1  0  0  0  0
  2 10  1  1  0  0  0
  3 12  1  0  0  0  0
  4 14  1  1  0  0  0
  4 13  1  0  0  0  0
  5 23  1  0  0  0  0
  6  3  1  0  0  0  0
  7 17  1  0  0  0  0
  8 15  2  0  0  0  0
  9 24  2  0  0  0  0
  9  7  1  0  0  0  0
 11  6  1  6  0  0  0
 11 22  1  0  0  0  0
 13  2  1  0  0  0  0
 13  8  1  1  0  0  0
 14 23  2  0  0  0  0
 16 26  1  6  0  0  0
 16  2  1  0  0  0  0
 17 19  1  0  0  0  0
 17  1  2  0  0  0  0
 18  8  1  0  0  0  0
 19 14  1  0  0  0  0
 20 11  1  0  0  0  0
 20 19  2  0  0  0  0
 21 12  1  6  0  0  0
 21 16  1  0  0  0  0
 22 21  1  0  0  0  0
 22  4  1  0  0  0  0
 23 18  1  0  0  0  0
 24 20  1  0  0  0  0
 26 25  1  0  0  0  0
 27  9  1  0  0  0  0
 28 31  1  0  0  0  0
 29 31  2  0  0  0  0
 31 30  2  0  0  0  0
 31 27  1  0  0  0  0
M  END
>  <MODEL>
5

>  <REMARK>
 VINA RESULT:      -8.2      3.324      4.856
  Name = 
  3 active torsions:
  status: ('A' for Active; 'I' for Inactive)
    1  A    between atoms: N_1  and  C_13
    2  A    between atoms: N_1  and  S_24
    3  A    between atoms: C_20  and  O_30
                            x       y       z     vdW  Elec       q    Type
                         _______ _______ _______ _____ _____    ______ ____

>  <TORSDO>
F 3

$$$$
=
 OpenBabel10222415483D

 31 36  0  0  1  0  0  0  0  0999 V2000
  185.4990  179.1500  141.1920 C   0  0  0  0  0  3  0  0  0  0  0  0
  188.0820  178.4220  146.6550 C   0  0  2  0  0  3  0  0  0  0  0  0
  191.8220  176.9230  143.7260 C   0  0  0  0  0  2  0  0  0  0  0  0
  187.5230  177.1580  144.4980 C   0  0  1  0  0  3  0  0  0  0  0  0
  185.1680  179.3860  142.5650 O   0  0  0  0  0  0  0  0  0  0  0  0
  190.8310  176.2180  142.8070 C   0  0  0  0  0  2  0  0  0  0  0  0
  187.4540  178.4790  139.6820 C   0  0  0  0  0  2  0  0  0  0  0  0
  185.6730  178.0350  145.9800 C   0  0  0  0  0  0  0  0  0  0  0  0
  188.5830  177.8180  139.4190 C   0  0  0  0  0  0  0  0  0  0  0  0
  187.6700  178.6850  148.0250 N   0  0  0  0  0  1  0  0  0  0  0  0
  189.4720  176.8390  142.9520 C   0  0  2  0  0  3  0  0  0  0  0  0
  191.3040  176.9310  145.1590 C   0  0  0  0  0  2  0  0  0  0  0  0
  187.0820  177.5050  145.9430 C   0  0  2  0  0  3  0  0  0  0  0  0
  186.8740  177.9790  143.4150 C   0  0  0  0  0  0  0  0  0  0  0  0
  184.9290  177.8770  147.0660 C   0  0  0  0  0  2  0  0  0  0  0  0
  189.4500  177.7550  146.6620 C   0  0  2  0  0  3  0  0  0  0  0  0
  186.8510  178.5100  141.0250 C   0  0  0  0  0  0  0  0  0  0  0  0
  185.1350  178.6960  144.8760 O   0  0  0  0  0  0  0  0  0  0  0  0
  187.4660  177.9250  142.0650 C   0  0  0  0  0  0  0  0  0  0  0  0
  188.7650  177.2360  141.8760 C   0  0  0  0  0  0  0  0  0  0  0  0
  189.9660  177.6740  145.2300 C   0  0  2  0  0  3  0  0  0  0  0  0
  188.9860  177.1070  144.2860 N   0  0  1  0  0  0  0  0  0  0  0  0
  185.7470  178.6730  143.6210 C   0  0  0  0  0  0  0  0  0  0  0  0
  189.2800  176.9940  140.4780 C   0  0  0  0  0  3  0  0  0  0  0  0
  190.6710  176.2320  147.7190 C   0  0  0  0  0  1  0  0  0  0  0  0
  189.3820  176.4810  147.2460 O   0  0  0  0  0  0  0  0  0  0  0  0
  189.0930  177.8540  138.0840 N   0  0  0  0  0  2  0  0  0  0  0  0
  186.8600  176.7160  136.7120 C   0  0  0  0  0  1  0  0  0  0  0  0
  188.9150  177.8640  135.4400 O   0  0  0  0  0  0  0  0  0  0  0  0
  187.3950  179.3370  136.6920 O   0  0  0  0  0  0  0  0  0  0  0  0
  188.0850  178.0020  136.6840 S   0  0  0  0  0  0  0  0  0  0  0  0
  1  5  1  0  0  0  0
  2 16  1  0  0  0  0
  2 10  1  1  0  0  0
  3 12  1  0  0  0  0
  4 14  1  6  0  0  0
  4 13  1  0  0  0  0
  5 23  1  0  0  0  0
  6  3  1  0  0  0  0
  7 17  1  0  0  0  0
  8 15  2  0  0  0  0
  9  7  1  0  0  0  0
  9 24  2  0  0  0  0
 11  6  1  1  0  0  0
 11 22  1  0  0  0  0
 13  8  1  6  0  0  0
 13  2  1  0  0  0  0
 14 23  2  0  0  0  0
 16 26  1  6  0  0  0
 17  1  2  0  0  0  0
 17 19  1  0  0  0  0
 18  8  1  0  0  0  0
 19 14  1  0  0  0  0
 20 19  2  0  0  0  0
 20 11  1  0  0  0  0
 21 12  1  1  0  0  0
 21 16  1  0  0  0  0
 22  4  1  0  0  0  0
 22 21  1  0  0  0  0
 23 18  1  0  0  0  0
 24 20  1  0  0  0  0
 26 25  1  0  0  0  0
 27  9  1  0  0  0  0
 29 31  2  0  0  0  0
 31 30  2  0  0  0  0
 31 28  1  0  0  0  0
 31 27  1  0  0  0  0
M  END
>  <MODEL>
6

>  <REMARK>
 VINA RESULT:      -8.1      2.018      2.475
  Name = 
  3 active torsions:
  status: ('A' for Active; 'I' for Inactive)
    1  A    between atoms: N_1  and  C_13
    2  A    between atoms: N_1  and  S_24
    3  A    between atoms: C_20  and  O_30
                            x       y       z     vdW  Elec       q    Type
                         _______ _______ _______ _____ _____    ______ ____

>  <TORSDO>
F 3

$$$$
=
 OpenBabel10222415483D

 31 36  0  0  1  0  0  0  0  0999 V2000
  190.5530  176.6460  139.1690 C   0  0  0  0  0  3  0  0  0  0  0  0
  188.2330  177.0120  144.7840 C   0  0  2  0  0  3  0  0  0  0  0  0
  184.2190  178.2530  142.1080 C   0  0  0  0  0  2  0  0  0  0  0  0
  188.5590  178.3730  142.6380 C   0  0  1  0  0  3  0  0  0  0  0  0
  190.9810  176.4060  140.5140 O   0  0  0  0  0  0  0  0  0  0  0  0
  185.0920  179.0640  141.1580 C   0  0  0  0  0  2  0  0  0  0  0  0
  188.4670  177.1820  137.7890 C   0  0  0  0  0  2  0  0  0  0  0  0
  190.5580  177.6230  143.9900 C   0  0  0  0  0  0  0  0  0  0  0  0
  187.2720  177.7490  137.6070 C   0  0  0  0  0  0  0  0  0  0  0  0
  188.7430  176.7530  146.1210 N   0  0  0  0  0  1  0  0  0  0  0  0
  186.5050  178.5600  141.2100 C   0  0  2  0  0  3  0  0  0  0  0  0
  184.8160  178.2550  143.5100 C   0  0  0  0  0  2  0  0  0  0  0  0
  189.1090  178.0300  144.0460 C   0  0  2  0  0  3  0  0  0  0  0  0
  189.2130  177.6380  141.4970 C   0  0  0  0  0  0  0  0  0  0  0  0
  191.3460  177.8180  145.0380 C   0  0  0  0  0  2  0  0  0  0  0  0
  186.8160  177.5570  144.8850 C   0  0  2  0  0  3  0  0  0  0  0  0
  189.1450  177.1700  139.0940 C   0  0  0  0  0  0  0  0  0  0  0  0
  191.0870  177.0390  142.8390 O   0  0  0  0  0  0  0  0  0  0  0  0
  188.5430  177.6750  140.1830 C   0  0  0  0  0  0  0  0  0  0  0  0
  187.1810  178.2520  140.0860 C   0  0  0  0  0  0  0  0  0  0  0  0
  186.2140  177.6290  143.4860 C   0  0  2  0  0  3  0  0  0  0  0  0
  187.0870  178.3020  142.5070 N   0  0  1  0  0  0  0  0  0  0  0  0
  190.4040  177.0390  141.6210 C   0  0  0  0  0  0  0  0  0  0  0  0
  186.5680  178.4830  138.7260 C   0  0  0  0  0  3  0  0  0  0  0  0
  186.0510  178.6470  146.6620 C   0  0  0  0  0  1  0  0  0  0  0  0
  186.8080  178.8180  145.5020 O   0  0  0  0  0  0  0  0  0  0  0  0
  186.6920  177.7030  136.3010 N   0  0  0  0  0  2  0  0  0  0  0  0
  186.3990  175.4170  134.6120 C   0  0  0  0  0  1  0  0  0  0  0  0
  184.3840  177.0930  135.1500 O   0  0  0  0  0  0  0  0  0  0  0  0
  185.1670  175.6430  136.9760 O   0  0  0  0  0  0  0  0  0  0  0  0
  185.5890  176.4680  135.7930 S   0  0  0  0  0  0  0  0  0  0  0  0
  1  5  1  0  0  0  0
  2 16  1  0  0  0  0
  2 10  1  1  0  0  0
  3 12  1  0  0  0  0
  4 14  1  6  0  0  0
  4 13  1  0  0  0  0
  5 23  1  0  0  0  0
  6  3  1  0  0  0  0
  7 17  1  0  0  0  0
  8 15  2  0  0  0  0
  9  7  1  0  0  0  0
  9 24  2  0  0  0  0
 11  6  1  1  0  0  0
 11 22  1  0  0  0  0
 13  8  1  6  0  0  0
 13  2  1  0  0  0  0
 14 23  2  0  0  0  0
 16 26  1  6  0  0  0
 17  1  2  0  0  0  0
 17 19  1  0  0  0  0
 18  8  1  0  0  0  0
 19 14  1  0  0  0  0
 20 19  2  0  0  0  0
 20 11  1  0  0  0  0
 21 12  1  1  0  0  0
 21 16  1  0  0  0  0
 22  4  1  0  0  0  0
 22 21  1  0  0  0  0
 23 18  1  0  0  0  0
 24 20  1  0  0  0  0
 26 25  1  0  0  0  0
 27  9  1  0  0  0  0
 28 31  1  0  0  0  0
 29 31  2  0  0  0  0
 31 27  1  0  0  0  0
 31 30  2  0  0  0  0
M  END
>  <MODEL>
7

>  <REMARK>
 VINA RESULT:      -8.1      2.921      4.828
  Name = 
  3 active torsions:
  status: ('A' for Active; 'I' for Inactive)
    1  A    between atoms: N_1  and  C_13
    2  A    between atoms: N_1  and  S_24
    3  A    between atoms: C_20  and  O_30
                            x       y       z     vdW  Elec       q    Type
                         _______ _______ _______ _____ _____    ______ ____

>  <TORSDO>
F 3

$$$$
=
 OpenBabel10222415483D

 31 36  0  0  1  0  0  0  0  0999 V2000
  191.1920  177.7340  141.8110 C   0  0  0  0  0  3  0  0  0  0  0  0
  185.3850  179.3920  141.0600 C   0  0  2  0  0  3  0  0  0  0  0  0
  185.4650  178.7410  145.9980 C   0  0  0  0  0  2  0  0  0  0  0  0
  186.8440  177.5240  142.0300 C   0  0  1  0  0  3  0  0  0  0  0  0
  190.3370  178.1560  140.7440 O   0  0  0  0  0  0  0  0  0  0  0  0
  186.3520  177.5130  145.8300 C   0  0  0  0  0  2  0  0  0  0  0  0
  191.2630  177.4980  144.3580 C   0  0  0  0  0  3  0  0  0  0  0  0
  186.8340  177.9760  139.5430 C   0  0  0  0  0  0  0  0  0  0  0  0
  190.7050  177.2670  145.5500 C   0  0  0  0  0  0  0  0  0  0  0  0
  184.5780  179.8080  139.9240 N   0  0  0  0  0  1  0  0  0  0  0  0
  187.0890  177.5930  144.5250 C   0  0  2  0  0  3  0  0  0  0  0  0
  184.5500  178.9040  144.7900 C   0  0  0  0  0  2  0  0  0  0  0  0
  186.0250  178.0220  140.8120 C   0  0  2  0  0  3  0  0  0  0  0  0
  188.3310  177.7480  141.9370 C   0  0  0  0  0  0  0  0  0  0  0  0
  186.2310  177.8210  138.3730 C   0  0  0  0  0  2  0  0  0  0  0  0
  184.5030  179.3130  142.2980 C   0  0  2  0  0  3  0  0  0  0  0  0
  190.4690  177.6290  143.1260 C   0  0  0  0  0  0  0  0  0  0  0  0
  188.2240  178.0940  139.5830 O   0  0  0  0  0  0  0  0  0  0  0  0
  189.1270  177.5910  143.1690 C   0  0  1  0  0  3  0  0  0  0  0  0
  188.4240  177.4180  144.4630 C   0  0  0  0  0  0  0  0  0  0  0  0
  185.3870  179.0830  143.5190 C   0  0  2  0  0  3  0  0  0  0  0  0
  186.3460  177.9760  143.3480 N   0  0  1  0  0  0  0  0  0  0  0  0
  188.9470  177.9960  140.7740 C   0  0  0  0  0  0  0  0  0  0  0  0
  189.2150  177.0530  145.6950 C   0  0  0  0  0  3  0  0  0  0  0  0
  182.3160  178.9400  142.2360 C   0  0  0  0  0  1  0  0  0  0  0  0
  183.5490  178.2920  142.1680 O   0  0  0  0  0  0  0  0  0  0  0  0
  191.5620  177.1640  146.6890 N   0  0  0  0  0  2  0  0  0  0  0  0
  193.1990  175.9630  148.6990 C   0  0  0  0  0  1  0  0  0  0  0  0
  192.7500  174.8240  146.3200 O   0  0  0  0  0  0  0  0  0  0  0  0
  190.8710  174.9130  147.9040 O   0  0  0  0  0  0  0  0  0  0  0  0
  192.0640  175.6520  147.3690 S   0  0  0  0  0  0  0  0  0  0  0  0
  1 17  2  0  0  0  0
  2 10  1  6  0  0  0
  2 16  1  0  0  0  0
  4 14  1  6  0  0  0
  4 22  1  0  0  0  0
  5 23  1  0  0  0  0
  5  1  1  0  0  0  0
  6  3  1  0  0  0  0
  7  9  2  0  0  0  0
  8 18  1  0  0  0  0
  9 24  1  0  0  0  0
  9 27  1  0  0  0  0
 11  6  1  1  0  0  0
 12  3  1  0  0  0  0
 13  8  1  6  0  0  0
 13  2  1  0  0  0  0
 13  4  1  0  0  0  0
 15  8  2  0  0  0  0
 16 26  1  6  0  0  0
 16 21  1  0  0  0  0
 17 19  1  0  0  0  0
 17  7  1  0  0  0  0
 18 23  1  0  0  0  0
 19 14  1  1  0  0  0
 19 20  1  0  0  0  0
 20 11  1  0  0  0  0
 20 24  2  0  0  0  0
 21 12  1  1  0  0  0
 22 21  1  0  0  0  0
 22 11  1  0  0  0  0
 23 14  2  0  0  0  0
 26 25  1  0  0  0  0
 27 31  1  0  0  0  0
 29 31  2  0  0  0  0
 31 30  2  0  0  0  0
 31 28  1  0  0  0  0
M  END
>  <MODEL>
8

>  <REMARK>
 VINA RESULT:      -7.9      3.087      6.000
  Name = 
  3 active torsions:
  status: ('A' for Active; 'I' for Inactive)
    1  A    between atoms: N_1  and  C_13
    2  A    between atoms: N_1  and  S_24
    3  A    between atoms: C_20  and  O_30
                            x       y       z     vdW  Elec       q    Type
                         _______ _______ _______ _____ _____    ______ ____

>  <TORSDO>
F 3

$$$$
=
 OpenBabel10222415483D

 31 36  0  0  1  0  0  0  0  0999 V2000
  192.0450  176.5700  141.8150 C   0  0  0  0  0  3  0  0  0  0  0  0
  187.8210  176.8650  146.1860 C   0  0  2  0  0  3  0  0  0  0  0  0
  185.0940  178.2530  142.2550 C   0  0  0  0  0  2  0  0  0  0  0  0
  188.9320  178.2650  144.3520 C   0  0  1  0  0  3  0  0  0  0  0  0
  191.9430  176.2920  143.2160 O   0  0  0  0  0  0  0  0  0  0  0  0
  186.2660  179.0650  141.7180 C   0  0  0  0  0  2  0  0  0  0  0  0
  190.6220  177.1830  139.7780 C   0  0  0  0  0  2  0  0  0  0  0  0
  190.2810  177.4420  146.3240 C   0  0  0  0  0  0  0  0  0  0  0  0
  189.5860  177.7810  139.1850 C   0  0  0  0  0  0  0  0  0  0  0  0
  187.7970  176.5660  147.6100 N   0  0  0  0  0  1  0  0  0  0  0  0
  187.5530  178.5280  142.2730 C   0  0  2  0  0  3  0  0  0  0  0  0
  185.1310  178.2110  143.7790 C   0  0  0  0  0  2  0  0  0  0  0  0
  188.9200  177.8800  145.8530 C   0  0  2  0  0  3  0  0  0  0  0  0
  189.9520  177.5410  143.5120 C   0  0  0  0  0  0  0  0  0  0  0  0
  190.6290  177.5960  147.5940 C   0  0  0  0  0  2  0  0  0  0  0  0
  186.4730  177.4400  145.7740 C   0  0  2  0  0  3  0  0  0  0  0  0
  190.7700  177.1270  141.2410 C   0  0  0  0  0  0  0  0  0  0  0  0
  191.1910  176.8710  145.4330 O   0  0  0  0  0  0  0  0  0  0  0  0
  189.8150  177.6210  142.0450 C   0  0  0  0  0  0  0  0  0  0  0  0
  188.5920  178.2310  141.4690 C   0  0  0  0  0  0  0  0  0  0  0  0
  186.4310  177.5550  144.2540 C   0  0  2  0  0  3  0  0  0  0  0  0
  187.6120  178.2300  143.6850 N   0  0  1  0  0  0  0  0  0  0  0  0
  191.0060  176.9130  144.0490 C   0  0  0  0  0  0  0  0  0  0  0  0
  188.5280  178.5050  139.9870 C   0  0  0  0  0  3  0  0  0  0  0  0
  184.9930  178.5840  146.9690 C   0  0  0  0  0  1  0  0  0  0  0  0
  186.2530  178.6860  146.3800 O   0  0  0  0  0  0  0  0  0  0  0  0
  189.5290  177.7750  137.7570 N   0  0  0  0  0  2  0  0  0  0  0  0
  188.3440  177.4160  135.1820 C   0  0  0  0  0  1  0  0  0  0  0  0
  187.5770  179.3380  136.8780 O   0  0  0  0  0  0  0  0  0  0  0  0
  187.0060  177.0190  137.4650 O   0  0  0  0  0  0  0  0  0  0  0  0
  188.0520  177.9130  136.8620 S   0  0  0  0  0  0  0  0  0  0  0  0
  1  5  1  0  0  0  0
  2 10  1  1  0  0  0
  3 12  1  0  0  0  0
  4 14  1  6  0  0  0
  4 13  1  0  0  0  0
  5 23  1  0  0  0  0
  6  3  1  0  0  0  0
  7 17  1  0  0  0  0
  8 15  2  0  0  0  0
  9  7  1  0  0  0  0
  9 24  2  0  0  0  0
 11  6  1  6  0  0  0
 11 22  1  0  0  0  0
 13  2  1  0  0  0  0
 13  8  1  6  0  0  0
 14 23  2  0  0  0  0
 16  2  1  0  0  0  0
 16 26  1  1  0  0  0
 17  1  2  0  0  0  0
 17 19  1  0  0  0  0
 18  8  1  0  0  0  0
 19 14  1  0  0  0  0
 20 19  2  0  0  0  0
 20 11  1  0  0  0  0
 21 12  1  1  0  0  0
 21 16  1  0  0  0  0
 22 21  1  0  0  0  0
 22  4  1  0  0  0  0
 23 18  1  0  0  0  0
 24 20  1  0  0  0  0
 26 25  1  0  0  0  0
 27  9  1  0  0  0  0
 28 31  1  0  0  0  0
 31 29  2  0  0  0  0
 31 30  2  0  0  0  0
 31 27  1  0  0  0  0
M  END
>  <MODEL>
9

>  <REMARK>
 VINA RESULT:      -7.9      2.296      4.289
  Name = 
  3 active torsions:
  status: ('A' for Active; 'I' for Inactive)
    1  A    between atoms: N_1  and  C_13
    2  A    between atoms: N_1  and  S_24
    3  A    between atoms: C_20  and  O_30
                            x       y       z     vdW  Elec       q    Type
                         _______ _______ _______ _____ _____    ______ ____

>  <TORSDO>
F 3

$$$$
