=
 OpenBabel10222415293D

 31 33  0  0  1  0  0  0  0  0999 V2000
  188.1440  178.0420  144.5550 C   0  0  2  0  0  3  0  0  0  0  0  0
  184.1070  178.1880  140.6520 N   0  0  0  0  0  1  0  0  0  0  0  0
  186.2390  177.9730  142.7340 N   0  0  0  0  0  0  0  0  0  0  0  0
  186.6850  178.0420  144.0330 C   0  0  0  0  0  0  0  0  0  0  0  0
  184.9170  178.2190  142.9670 C   0  0  0  0  0  0  0  0  0  0  0  0
  183.5880  178.8670  144.8670 C   0  0  0  0  0  3  0  0  0  0  0  0
  183.9150  178.4010  142.0880 C   0  0  0  0  0  0  0  0  0  0  0  0
  182.7330  178.8070  142.6010 N   0  0  0  0  0  0  0  0  0  0  0  0
  184.7170  178.4440  144.2860 C   0  0  0  0  0  0  0  0  0  0  0  0
  185.8690  178.3420  144.9870 N   0  0  0  0  0  2  0  0  0  0  0  0
  182.5410  179.0330  143.9720 C   0  0  0  0  0  3  0  0  0  0  0  0
  188.8950  176.8700  143.8580 C   0  0  0  0  0  2  0  0  0  0  0  0
  191.1610  177.7310  143.5080 O   0  0  0  0  0  1  0  0  0  0  0  0
  190.1470  177.1030  142.9610 C   0  0  2  0  0  3  0  0  0  0  0  0
  189.2330  177.2130  139.1720 C   0  0  0  0  0  0  0  0  0  0  0  0
  190.1070  177.1640  141.4670 C   0  0  0  0  0  0  0  0  0  0  0  0
  188.8200  177.9940  140.6130 S   0  0  0  0  0  0  0  0  0  0  0  0
  190.2370  176.2430  139.3930 N   0  0  0  0  0  0  0  0  0  0  0  0
  190.6970  176.2440  140.6450 N   0  0  0  0  0  0  0  0  0  0  0  0
  188.1300  177.1190  138.1050 C   0  0  0  0  0  2  0  0  0  0  0  0
  188.1110  178.5630  137.3780 C   0  0  0  0  0  0  0  0  0  0  0  0
  186.9840  178.9570  136.9370 O   0  0  0  0  0  0  0  0  0  0  0  0
  189.0350  179.5940  137.4210 O   0  0  0  0  0  1  0  0  0  0  0  0
  188.1800  178.0240  146.0470 N   0  0  0  0  0  2  0  0  0  0  0  0
  189.1720  176.9820  146.6320 C   0  0  2  0  0  3  0  0  0  0  0  0
  188.5910  176.3910  147.7250 O   0  0  0  0  0  0  0  0  0  0  0  0
  188.0910  177.4160  148.4680 C   0  0  0  0  0  1  0  0  0  0  0  0
  190.5730  177.3450  147.3050 C   0  0  0  0  0  2  0  0  0  0  0  0
  191.6910  176.9100  146.4060 N   0  0  0  0  0  2  0  0  0  0  0  0
  192.7000  175.7130  148.2150 C   0  0  0  0  0  1  0  0  0  0  0  0
  192.2040  175.5920  146.7700 C   0  0  0  0  0  2  0  0  0  0  0  0
  1 12  1  6  0  0  0
  1 24  1  0  0  0  0
  2  7  1  0  0  0  0
  3  5  1  0  0  0  0
  3  4  2  0  0  0  0
  4  1  1  0  0  0  0
  4 10  1  0  0  0  0
  5  9  1  0  0  0  0
  7  8  1  0  0  0  0
  7  5  2  0  0  0  0
  8 11  2  0  0  0  0
  9  6  2  0  0  0  0
  9 10  1  0  0  0  0
 11  6  1  0  0  0  0
 14 13  1  1  0  0  0
 14 12  1  0  0  0  0
 15 18  2  0  0  0  0
 15 17  1  0  0  0  0
 16 14  1  0  0  0  0
 17 16  1  0  0  0  0
 18 19  1  0  0  0  0
 19 16  2  0  0  0  0
 20 15  1  0  0  0  0
 21 23  1  0  0  0  0
 21 20  1  0  0  0  0
 22 21  2  0  0  0  0
 24 25  1  0  0  0  0
 25 28  1  1  0  0  0
 25 26  1  0  0  0  0
 26 27  1  0  0  0  0
 29 31  1  0  0  0  0
 29 28  1  0  0  0  0
 31 30  1  0  0  0  0
M  END
>  <MODEL>
1

>  <REMARK>
 VINA RESULT:      -7.4      0.000      0.000
  Name = 
  12 active torsions:
  status: ('A' for Active; 'I' for Inactive)
    1  A    between atoms: C_4  and  C_5
    2  A    between atoms: C_5  and  C_8
    3  A    between atoms: C_6  and  C_7
    4  A    between atoms: C_6  and  C_21
    5  A    between atoms: C_10  and  N_24
    6  A    between atoms: O_11  and  C_27
    7  A    between atoms: C_15  and  C_29
    8  A    between atoms: C_16  and  N_24
    9  A    between atoms: C_16  and  C_27
   10  A    between atoms: C_21  and  C_29
   11  A    between atoms: C_27  and  N_30
   12  A    between atoms: C_29  and  N_30
                            x       y       z     vdW  Elec       q    Type
                         _______ _______ _______ _____ _____    ______ ____

>  <TORSDO>
F 12

$$$$
=
 OpenBabel10222415293D

 31 33  0  0  1  0  0  0  0  0999 V2000
  188.5090  177.0370  142.7360 C   0  0  2  0  0  3  0  0  0  0  0  0
  185.3040  178.8400  146.9810 N   0  0  0  0  0  1  0  0  0  0  0  0
  186.9460  177.7580  144.7320 N   0  0  0  0  0  0  0  0  0  0  0  0
  188.0960  177.2040  144.2200 C   0  0  0  0  0  0  0  0  0  0  0  0
  187.3070  177.7740  146.0480 C   0  0  0  0  0  0  0  0  0  0  0  0
  189.3120  177.3140  147.2970 C   0  0  0  0  0  3  0  0  0  0  0  0
  186.6620  178.3030  147.1040 C   0  0  0  0  0  0  0  0  0  0  0  0
  187.3390  178.3280  148.2720 N   0  0  0  0  0  0  0  0  0  0  0  0
  188.5680  177.3050  146.1860 C   0  0  0  0  0  0  0  0  0  0  0  0
  189.0940  176.9420  144.9940 N   0  0  0  0  0  2  0  0  0  0  0  0
  188.6460  177.8350  148.3970 C   0  0  0  0  0  3  0  0  0  0  0  0
  189.9630  176.4810  142.7090 C   0  0  0  0  0  2  0  0  0  0  0  0
  191.4370  178.4220  142.9370 O   0  0  0  0  0  1  0  0  0  0  0  0
  191.1730  177.3410  142.2410 C   0  0  2  0  0  3  0  0  0  0  0  0
  192.2100  176.6340  138.5500 C   0  0  0  0  0  0  0  0  0  0  0  0
  191.7000  177.3550  140.8410 C   0  0  0  0  0  0  0  0  0  0  0  0
  190.8280  176.6020  139.5210 S   0  0  0  0  0  0  0  0  0  0  0  0
  193.3320  177.0820  139.2830 N   0  0  0  0  0  0  0  0  0  0  0  0
  193.0240  177.4730  140.5210 N   0  0  0  0  0  0  0  0  0  0  0  0
  192.2540  175.6260  137.3900 C   0  0  0  0  0  2  0  0  0  0  0  0
  193.7930  175.1370  137.3020 C   0  0  0  0  0  0  0  0  0  0  0  0
  194.0160  173.9210  137.6020 O   0  0  0  0  0  1  0  0  0  0  0  0
  194.8750  175.7150  136.6590 O   0  0  0  0  0  0  0  0  0  0  0  0
  188.2970  178.3030  141.9740 N   0  0  0  0  0  2  0  0  0  0  0  0
  187.3150  178.1520  140.7810 C   0  0  2  0  0  3  0  0  0  0  0  0
  187.8700  178.7520  139.6790 O   0  0  0  0  0  0  0  0  0  0  0  0
  187.4010  178.0520  138.6110 C   0  0  0  0  0  1  0  0  0  0  0  0
  185.8780  178.8420  140.6990 C   0  0  0  0  0  2  0  0  0  0  0  0
  185.3770  179.1310  142.0830 N   0  0  0  0  0  2  0  0  0  0  0  0
  183.6950  178.8790  143.7650 C   0  0  0  0  0  1  0  0  0  0  0  0
  184.0210  178.6330  142.2880 C   0  0  0  0  0  2  0  0  0  0  0  0
  1 12  1  1  0  0  0
  1  4  1  0  0  0  0
  2  7  1  0  0  0  0
  3  5  1  0  0  0  0
  4  3  2  0  0  0  0
  4 10  1  0  0  0  0
  5  9  2  0  0  0  0
  5  7  1  0  0  0  0
  6 11  2  0  0  0  0
  7  8  2  0  0  0  0
  8 11  1  0  0  0  0
  9  6  1  0  0  0  0
 10  9  1  0  0  0  0
 14 12  1  0  0  0  0
 14 13  1  6  0  0  0
 15 18  2  0  0  0  0
 15 17  1  0  0  0  0
 16 14  1  0  0  0  0
 17 16  1  0  0  0  0
 18 19  1  0  0  0  0
 19 16  2  0  0  0  0
 20 15  1  0  0  0  0
 21 20  1  0  0  0  0
 21 22  1  0  0  0  0
 23 21  2  0  0  0  0
 24  1  1  0  0  0  0
 25 28  1  1  0  0  0
 25 24  1  0  0  0  0
 26 25  1  0  0  0  0
 27 26  1  0  0  0  0
 28 29  1  0  0  0  0
 29 31  1  0  0  0  0
 31 30  1  0  0  0  0
M  END
>  <MODEL>
2

>  <REMARK>
 VINA RESULT:      -7.3      2.821      5.905
  Name = 
  12 active torsions:
  status: ('A' for Active; 'I' for Inactive)
    1  A    between atoms: C_4  and  C_5
    2  A    between atoms: C_5  and  C_8
    3  A    between atoms: C_6  and  C_7
    4  A    between atoms: C_6  and  C_21
    5  A    between atoms: C_10  and  N_24
    6  A    between atoms: O_11  and  C_27
    7  A    between atoms: C_15  and  C_29
    8  A    between atoms: C_16  and  N_24
    9  A    between atoms: C_16  and  C_27
   10  A    between atoms: C_21  and  C_29
   11  A    between atoms: C_27  and  N_30
   12  A    between atoms: C_29  and  N_30
                            x       y       z     vdW  Elec       q    Type
                         _______ _______ _______ _____ _____    ______ ____

>  <TORSDO>
F 12

$$$$
=
 OpenBabel10222415293D

 31 33  0  0  1  0  0  0  0  0999 V2000
  188.1080  176.9940  144.2060 C   0  0  2  0  0  3  0  0  0  0  0  0
  187.3390  178.5380  138.8610 N   0  0  0  0  0  1  0  0  0  0  0  0
  187.7710  177.8500  141.7360 N   0  0  0  0  0  0  0  0  0  0  0  0
  188.5490  177.4030  142.7780 C   0  0  0  0  0  0  0  0  0  0  0  0
  188.7220  177.8260  140.7580 C   0  0  0  0  0  0  0  0  0  0  0  0
  190.9920  177.0450  140.5710 C   0  0  0  0  0  3  0  0  0  0  0  0
  188.5940  178.0500  139.4370 C   0  0  0  0  0  0  0  0  0  0  0  0
  189.6770  177.7840  138.6750 N   0  0  0  0  0  0  0  0  0  0  0  0
  189.8870  177.3550  141.2600 C   0  0  0  0  0  0  0  0  0  0  0  0
  189.7780  177.0640  142.5750 N   0  0  0  0  0  2  0  0  0  0  0  0
  190.8780  177.2980  139.2120 C   0  0  0  0  0  3  0  0  0  0  0  0
  186.5520  176.9950  144.2400 C   0  0  0  0  0  2  0  0  0  0  0  0
  185.6600  178.7760  145.6630 O   0  0  0  0  0  1  0  0  0  0  0  0
  185.7260  178.2990  144.4430 C   0  0  2  0  0  3  0  0  0  0  0  0
  182.3810  178.9320  142.5420 C   0  0  0  0  0  0  0  0  0  0  0  0
  184.6170  178.7370  143.5400 C   0  0  0  0  0  0  0  0  0  0  0  0
  182.9750  178.9300  144.1240 S   0  0  0  0  0  0  0  0  0  0  0  0
  183.4100  178.6490  141.6150 N   0  0  0  0  0  0  0  0  0  0  0  0
  184.6130  178.5550  142.1850 N   0  0  0  0  0  0  0  0  0  0  0  0
  180.9020  178.5520  142.3670 C   0  0  0  0  0  2  0  0  0  0  0  0
  180.0780  179.5880  143.2950 C   0  0  0  0  0  0  0  0  0  0  0  0
  180.0010  180.7860  142.8710 O   0  0  0  0  0  0  0  0  0  0  0  0
  179.1720  179.3440  144.3140 O   0  0  0  0  0  1  0  0  0  0  0  0
  188.7690  177.8490  145.2370 N   0  0  0  0  0  2  0  0  0  0  0  0
  189.0630  177.1030  146.5660 C   0  0  2  0  0  3  0  0  0  0  0  0
  188.1570  177.5160  147.5100 O   0  0  0  0  0  0  0  0  0  0  0  0
  188.8880  178.1790  148.4480 C   0  0  0  0  0  1  0  0  0  0  0  0
  190.3840  177.2970  147.4400 C   0  0  0  0  0  2  0  0  0  0  0  0
  191.5930  177.0340  146.5910 N   0  0  0  0  0  2  0  0  0  0  0  0
  192.7520  175.6870  148.1930 C   0  0  0  0  0  1  0  0  0  0  0  0
  192.1210  175.6890  146.7960 C   0  0  0  0  0  2  0  0  0  0  0  0
  1 12  1  6  0  0  0
  1 24  1  0  0  0  0
  2  7  1  0  0  0  0
  3  4  2  0  0  0  0
  4  1  1  0  0  0  0
  5  9  1  0  0  0  0
  5  3  1  0  0  0  0
  6  9  2  0  0  0  0
  7  5  2  0  0  0  0
  8 11  2  0  0  0  0
  8  7  1  0  0  0  0
  9 10  1  0  0  0  0
 10  4  1  0  0  0  0
 11  6  1  0  0  0  0
 12 14  1  0  0  0  0
 14 13  1  1  0  0  0
 15 17  1  0  0  0  0
 16 17  1  0  0  0  0
 16 14  1  0  0  0  0
 18 19  1  0  0  0  0
 18 15  2  0  0  0  0
 19 16  2  0  0  0  0
 20 15  1  0  0  0  0
 20 21  1  0  0  0  0
 21 23  1  0  0  0  0
 22 21  2  0  0  0  0
 24 25  1  0  0  0  0
 25 28  1  1  0  0  0
 25 26  1  0  0  0  0
 26 27  1  0  0  0  0
 29 31  1  0  0  0  0
 29 28  1  0  0  0  0
 31 30  1  0  0  0  0
M  END
>  <MODEL>
3

>  <REMARK>
 VINA RESULT:      -7.3      3.233      5.930
  Name = 
  12 active torsions:
  status: ('A' for Active; 'I' for Inactive)
    1  A    between atoms: C_4  and  C_5
    2  A    between atoms: C_5  and  C_8
    3  A    between atoms: C_6  and  C_7
    4  A    between atoms: C_6  and  C_21
    5  A    between atoms: C_10  and  N_24
    6  A    between atoms: O_11  and  C_27
    7  A    between atoms: C_15  and  C_29
    8  A    between atoms: C_16  and  N_24
    9  A    between atoms: C_16  and  C_27
   10  A    between atoms: C_21  and  C_29
   11  A    between atoms: C_27  and  N_30
   12  A    between atoms: C_29  and  N_30
                            x       y       z     vdW  Elec       q    Type
                         _______ _______ _______ _____ _____    ______ ____

>  <TORSDO>
F 12

$$$$
=
 OpenBabel10222415293D

 31 33  0  0  1  0  0  0  0  0999 V2000
  185.6890  179.1100  141.5560 C   0  0  2  0  0  3  0  0  0  0  0  0
  190.6490  176.5750  142.2770 N   0  0  0  0  0  1  0  0  0  0  0  0
  187.9520  177.7980  141.8850 N   0  0  0  0  0  0  0  0  0  0  0  0
  186.9800  178.3800  141.1050 C   0  0  0  0  0  0  0  0  0  0  0  0
  188.8620  177.5380  140.9010 C   0  0  0  0  0  0  0  0  0  0  0  0
  189.0770  178.0630  138.5620 C   0  0  0  0  0  3  0  0  0  0  0  0
  190.1150  177.0600  141.0030 C   0  0  0  0  0  0  0  0  0  0  0  0
  190.8550  177.0680  139.8720 N   0  0  0  0  0  0  0  0  0  0  0  0
  188.4020  177.9990  139.7160 C   0  0  0  0  0  0  0  0  0  0  0  0
  187.1790  178.5620  139.8430 N   0  0  0  0  0  2  0  0  0  0  0  0
  190.3620  177.5480  138.6500 C   0  0  0  0  0  3  0  0  0  0  0  0
  184.9960  178.2230  142.6310 C   0  0  0  0  0  2  0  0  0  0  0  0
  183.5840  179.6550  144.0280 O   0  0  0  0  0  1  0  0  0  0  0  0
  184.5660  178.7850  144.0190 C   0  0  2  0  0  3  0  0  0  0  0  0
  186.9920  178.1320  147.0000 C   0  0  0  0  0  0  0  0  0  0  0  0
  185.4630  178.8420  145.2140 C   0  0  0  0  0  0  0  0  0  0  0  0
  186.8970  177.8410  145.3380 S   0  0  0  0  0  0  0  0  0  0  0  0
  185.8670  178.8590  147.4510 N   0  0  0  0  0  0  0  0  0  0  0  0
  185.0590  179.2370  146.4580 N   0  0  0  0  0  0  0  0  0  0  0  0
  187.7700  177.0980  147.8310 C   0  0  0  0  0  2  0  0  0  0  0  0
  189.2920  177.6410  147.8770 C   0  0  0  0  0  0  0  0  0  0  0  0
  189.5480  178.5310  148.7500 O   0  0  0  0  0  1  0  0  0  0  0  0
  190.4500  177.0910  147.3500 O   0  0  0  0  0  0  0  0  0  0  0  0
  184.8400  179.4710  140.3820 N   0  0  0  0  0  2  0  0  0  0  0  0
  183.5440  178.6240  140.2710 C   0  0  2  0  0  3  0  0  0  0  0  0
  183.3700  178.2620  138.9590 O   0  0  0  0  0  0  0  0  0  0  0  0
  182.6730  179.2840  138.3910 C   0  0  0  0  0  1  0  0  0  0  0  0
  182.0720  179.1820  140.5350 C   0  0  0  0  0  2  0  0  0  0  0  0
  181.4350  178.4130  141.6550 N   0  0  0  0  0  2  0  0  0  0  0  0
  180.1690  178.4350  143.6840 C   0  0  0  0  0  1  0  0  0  0  0  0
  180.5060  179.2370  142.4220 C   0  0  0  0  0  2  0  0  0  0  0  0
  1 12  1  1  0  0  0
  4  1  1  0  0  0  0
  4  3  2  0  0  0  0
  5  7  1  0  0  0  0
  5  3  1  0  0  0  0
  6 11  2  0  0  0  0
  6  9  1  0  0  0  0
  7  2  1  0  0  0  0
  8  7  2  0  0  0  0
  9 10  1  0  0  0  0
  9  5  2  0  0  0  0
 10  4  1  0  0  0  0
 11  8  1  0  0  0  0
 12 14  1  0  0  0  0
 14 13  1  6  0  0  0
 14 16  1  0  0  0  0
 15 18  2  0  0  0  0
 15 20  1  0  0  0  0
 16 17  1  0  0  0  0
 16 19  2  0  0  0  0
 17 15  1  0  0  0  0
 19 18  1  0  0  0  0
 20 21  1  0  0  0  0
 21 22  1  0  0  0  0
 23 21  2  0  0  0  0
 24  1  1  0  0  0  0
 25 24  1  0  0  0  0
 25 28  1  6  0  0  0
 26 25  1  0  0  0  0
 27 26  1  0  0  0  0
 28 29  1  0  0  0  0
 29 31  1  0  0  0  0
 31 30  1  0  0  0  0
M  END
>  <MODEL>
4

>  <REMARK>
 VINA RESULT:      -7.2      2.617      8.576
  Name = 
  12 active torsions:
  status: ('A' for Active; 'I' for Inactive)
    1  A    between atoms: C_4  and  C_5
    2  A    between atoms: C_5  and  C_8
    3  A    between atoms: C_6  and  C_7
    4  A    between atoms: C_6  and  C_21
    5  A    between atoms: C_10  and  N_24
    6  A    between atoms: O_11  and  C_27
    7  A    between atoms: C_15  and  C_29
    8  A    between atoms: C_16  and  N_24
    9  A    between atoms: C_16  and  C_27
   10  A    between atoms: C_21  and  C_29
   11  A    between atoms: C_27  and  N_30
   12  A    between atoms: C_29  and  N_30
                            x       y       z     vdW  Elec       q    Type
                         _______ _______ _______ _____ _____    ______ ____

>  <TORSDO>
F 12

$$$$
=
 OpenBabel10222415293D

 31 33  0  0  1  0  0  0  0  0999 V2000
  188.7710  177.6700  139.8450 C   0  0  2  0  0  3  0  0  0  0  0  0
  186.8210  177.3000  145.0990 N   0  0  0  0  0  1  0  0  0  0  0  0
  187.9300  177.6090  142.3420 N   0  0  0  0  0  0  0  0  0  0  0  0
  187.8450  178.0280  141.0350 C   0  0  0  0  0  0  0  0  0  0  0  0
  186.7390  178.1070  142.7840 C   0  0  0  0  0  0  0  0  0  0  0  0
  184.8210  179.1540  141.7740 C   0  0  0  0  0  3  0  0  0  0  0  0
  186.1390  177.9520  143.9790 C   0  0  0  0  0  0  0  0  0  0  0  0
  184.8730  178.4140  144.0810 N   0  0  0  0  0  0  0  0  0  0  0  0
  186.0770  178.6950  141.7610 C   0  0  0  0  0  0  0  0  0  0  0  0
  186.7880  178.6350  140.6130 N   0  0  0  0  0  2  0  0  0  0  0  0
  184.2030  179.0230  143.0100 C   0  0  0  0  0  3  0  0  0  0  0  0
  189.9550  176.8280  140.4030 C   0  0  0  0  0  2  0  0  0  0  0  0
  192.3100  177.4820  140.2590 O   0  0  0  0  0  1  0  0  0  0  0  0
  191.2310  177.4860  141.0050 C   0  0  2  0  0  3  0  0  0  0  0  0
  191.3170  177.2890  144.8980 C   0  0  0  0  0  0  0  0  0  0  0  0
  191.4870  177.6290  142.4720 C   0  0  0  0  0  0  0  0  0  0  0  0
  191.3970  176.2590  143.5610 S   0  0  0  0  0  0  0  0  0  0  0  0
  191.2180  178.6390  144.4910 N   0  0  0  0  0  0  0  0  0  0  0  0
  191.3210  178.7930  143.1700 N   0  0  0  0  0  0  0  0  0  0  0  0
  190.6960  176.7020  146.1770 C   0  0  0  0  0  2  0  0  0  0  0  0
  191.9470  176.3310  147.1320 C   0  0  0  0  0  0  0  0  0  0  0  0
  192.0870  177.0420  148.1780 O   0  0  0  0  0  1  0  0  0  0  0  0
  192.7160  175.1800  147.1850 O   0  0  0  0  0  0  0  0  0  0  0  0
  189.1610  178.8940  139.0830 N   0  0  0  0  0  2  0  0  0  0  0  0
  189.0900  178.7140  137.5420 C   0  0  2  0  0  3  0  0  0  0  0  0
  188.0200  179.4280  137.0680 O   0  0  0  0  0  0  0  0  0  0  0  0
  187.0650  178.5020  136.7790 C   0  0  0  0  0  1  0  0  0  0  0  0
  188.7700  177.3340  136.8060 C   0  0  0  0  0  2  0  0  0  0  0  0
  189.9890  176.8580  136.0740 N   0  0  0  0  0  2  0  0  0  0  0  0
  192.0980  175.7290  136.0930 C   0  0  0  0  0  1  0  0  0  0  0  0
  190.9850  176.2960  136.9820 C   0  0  0  0  0  2  0  0  0  0  0  0
  1 12  1  1  0  0  0
  1  4  1  0  0  0  0
  3  5  1  0  0  0  0
  4  3  2  0  0  0  0
  5  7  1  0  0  0  0
  6 11  2  0  0  0  0
  7  8  2  0  0  0  0
  7  2  1  0  0  0  0
  9  6  1  0  0  0  0
  9  5  2  0  0  0  0
 10  4  1  0  0  0  0
 10  9  1  0  0  0  0
 11  8  1  0  0  0  0
 12 14  1  0  0  0  0
 14 13  1  1  0  0  0
 14 16  1  0  0  0  0
 15 20  1  0  0  0  0
 16 19  2  0  0  0  0
 16 17  1  0  0  0  0
 17 15  1  0  0  0  0
 18 15  2  0  0  0  0
 19 18  1  0  0  0  0
 20 21  1  0  0  0  0
 21 23  2  0  0  0  0
 21 22  1  0  0  0  0
 24  1  1  0  0  0  0
 25 28  1  1  0  0  0
 25 24  1  0  0  0  0
 26 25  1  0  0  0  0
 27 26  1  0  0  0  0
 29 28  1  0  0  0  0
 29 31  1  0  0  0  0
 30 31  1  0  0  0  0
M  END
>  <MODEL>
5

>  <REMARK>
 VINA RESULT:      -7.2      2.380      7.180
  Name = 
  12 active torsions:
  status: ('A' for Active; 'I' for Inactive)
    1  A    between atoms: C_4  and  C_5
    2  A    between atoms: C_5  and  C_8
    3  A    between atoms: C_6  and  C_7
    4  A    between atoms: C_6  and  C_21
    5  A    between atoms: C_10  and  N_24
    6  A    between atoms: O_11  and  C_27
    7  A    between atoms: C_15  and  C_29
    8  A    between atoms: C_16  and  N_24
    9  A    between atoms: C_16  and  C_27
   10  A    between atoms: C_21  and  C_29
   11  A    between atoms: C_27  and  N_30
   12  A    between atoms: C_29  and  N_30
                            x       y       z     vdW  Elec       q    Type
                         _______ _______ _______ _____ _____    ______ ____

>  <TORSDO>
F 12

$$$$
=
 OpenBabel10222415293D

 31 33  0  0  1  0  0  0  0  0999 V2000
  188.5580  177.4370  142.0410 C   0  0  2  0  0  3  0  0  0  0  0  0
  187.8590  177.6670  147.6090 N   0  0  0  0  0  1  0  0  0  0  0  0
  188.1780  177.4170  144.6490 N   0  0  0  0  0  0  0  0  0  0  0  0
  188.9230  177.1620  143.5210 C   0  0  0  0  0  0  0  0  0  0  0  0
  189.1340  177.1370  145.5820 C   0  0  0  0  0  0  0  0  0  0  0  0
  191.4860  176.6250  145.5470 C   0  0  0  0  0  3  0  0  0  0  0  0
  189.0940  177.2910  146.9180 C   0  0  0  0  0  0  0  0  0  0  0  0
  190.2560  177.0970  147.5800 N   0  0  0  0  0  0  0  0  0  0  0  0
  190.2940  176.8100  144.9680 C   0  0  0  0  0  0  0  0  0  0  0  0
  190.1670  176.8360  143.6220 N   0  0  0  0  0  2  0  0  0  0  0  0
  191.4490  176.7560  146.9280 C   0  0  0  0  0  3  0  0  0  0  0  0
  189.8720  177.3730  141.2090 C   0  0  0  0  0  2  0  0  0  0  0  0
  191.0150  176.9040  139.0950 O   0  0  0  0  0  1  0  0  0  0  0  0
  189.8690  177.1980  139.6620 C   0  0  2  0  0  3  0  0  0  0  0  0
  187.4790  178.2530  136.7670 C   0  0  0  0  0  0  0  0  0  0  0  0
  188.8650  177.8290  138.7500 C   0  0  0  0  0  0  0  0  0  0  0  0
  187.8880  176.8730  137.6520 S   0  0  0  0  0  0  0  0  0  0  0  0
  188.1950  179.3800  137.2300 N   0  0  0  0  0  0  0  0  0  0  0  0
  188.9330  179.1220  138.3110 N   0  0  0  0  0  0  0  0  0  0  0  0
  187.0290  178.0240  135.3150 C   0  0  0  0  0  2  0  0  0  0  0  0
  185.8900  176.8790  135.3930 C   0  0  0  0  0  0  0  0  0  0  0  0
  184.7320  177.2590  135.7600 O   0  0  0  0  0  1  0  0  0  0  0  0
  185.8610  175.6130  134.8320 O   0  0  0  0  0  0  0  0  0  0  0  0
  187.7790  178.7040  141.9070 N   0  0  0  0  0  2  0  0  0  0  0  0
  186.2870  178.4790  141.5390 C   0  0  2  0  0  3  0  0  0  0  0  0
  186.0450  179.0630  140.3220 O   0  0  0  0  0  0  0  0  0  0  0  0
  184.6910  179.0500  140.1770 C   0  0  0  0  0  1  0  0  0  0  0  0
  185.0540  179.1120  142.3300 C   0  0  0  0  0  2  0  0  0  0  0  0
  184.7620  178.2900  143.5500 N   0  0  0  0  0  2  0  0  0  0  0  0
  184.8480  178.7060  145.9040 C   0  0  0  0  0  1  0  0  0  0  0  0
  184.1310  179.0810  144.6020 C   0  0  0  0  0  2  0  0  0  0  0  0
  1 12  1  6  0  0  0
  1  4  1  0  0  0  0
  3  5  1  0  0  0  0
  4 10  1  0  0  0  0
  4  3  2  0  0  0  0
  5  7  1  0  0  0  0
  6 11  2  0  0  0  0
  7  8  2  0  0  0  0
  7  2  1  0  0  0  0
  9  6  1  0  0  0  0
  9  5  2  0  0  0  0
 10  9  1  0  0  0  0
 11  8  1  0  0  0  0
 14 13  1  6  0  0  0
 14 12  1  0  0  0  0
 15 18  2  0  0  0  0
 15 17  1  0  0  0  0
 16 14  1  0  0  0  0
 17 16  1  0  0  0  0
 18 19  1  0  0  0  0
 19 16  2  0  0  0  0
 20 21  1  0  0  0  0
 20 15  1  0  0  0  0
 21 22  1  0  0  0  0
 23 21  2  0  0  0  0
 24  1  1  0  0  0  0
 25 24  1  0  0  0  0
 25 28  1  1  0  0  0
 26 25  1  0  0  0  0
 27 26  1  0  0  0  0
 28 29  1  0  0  0  0
 29 31  1  0  0  0  0
 31 30  1  0  0  0  0
M  END
>  <MODEL>
6

>  <REMARK>
 VINA RESULT:      -7.2      2.550      5.988
  Name = 
  12 active torsions:
  status: ('A' for Active; 'I' for Inactive)
    1  A    between atoms: C_4  and  C_5
    2  A    between atoms: C_5  and  C_8
    3  A    between atoms: C_6  and  C_7
    4  A    between atoms: C_6  and  C_21
    5  A    between atoms: C_10  and  N_24
    6  A    between atoms: O_11  and  C_27
    7  A    between atoms: C_15  and  C_29
    8  A    between atoms: C_16  and  N_24
    9  A    between atoms: C_16  and  C_27
   10  A    between atoms: C_21  and  C_29
   11  A    between atoms: C_27  and  N_30
   12  A    between atoms: C_29  and  N_30
                            x       y       z     vdW  Elec       q    Type
                         _______ _______ _______ _____ _____    ______ ____

>  <TORSDO>
F 12

$$$$
=
 OpenBabel10222415293D

 31 33  0  0  1  0  0  0  0  0999 V2000
  188.7040  177.1240  142.1070 C   0  0  2  0  0  3  0  0  0  0  0  0
  187.5830  177.9280  147.5520 N   0  0  0  0  0  1  0  0  0  0  0  0
  188.1230  177.3740  144.6660 N   0  0  0  0  0  0  0  0  0  0  0  0
  188.9460  176.9920  143.6320 C   0  0  0  0  0  0  0  0  0  0  0  0
  188.9960  177.1710  145.6960 C   0  0  0  0  0  0  0  0  0  0  0  0
  191.3290  176.6120  145.8990 C   0  0  0  0  0  3  0  0  0  0  0  0
  188.8580  177.4600  147.0020 C   0  0  0  0  0  0  0  0  0  0  0  0
  189.9590  177.3110  147.7710 N   0  0  0  0  0  0  0  0  0  0  0  0
  190.1910  176.7610  145.2110 C   0  0  0  0  0  0  0  0  0  0  0  0
  190.1690  176.6540  143.8640 N   0  0  0  0  0  2  0  0  0  0  0  0
  191.1890  176.8820  147.2530 C   0  0  0  0  0  3  0  0  0  0  0  0
  190.0430  176.7950  141.3860 C   0  0  0  0  0  2  0  0  0  0  0  0
  189.1750  176.7320  139.0970 O   0  0  0  0  0  1  0  0  0  0  0  0
  190.2240  176.9710  139.8490 C   0  0  2  0  0  3  0  0  0  0  0  0
  193.4580  175.9000  137.9540 C   0  0  0  0  0  0  0  0  0  0  0  0
  191.5370  176.8640  139.1420 C   0  0  0  0  0  0  0  0  0  0  0  0
  191.7810  175.7470  137.8140 S   0  0  0  0  0  0  0  0  0  0  0  0
  193.8020  176.6760  139.0840 N   0  0  0  0  0  0  0  0  0  0  0  0
  192.7400  177.1920  139.7050 N   0  0  0  0  0  0  0  0  0  0  0  0
  194.2990  174.7470  137.3820 C   0  0  0  0  0  2  0  0  0  0  0  0
  195.2990  174.3100  138.5750 C   0  0  0  0  0  0  0  0  0  0  0  0
  195.1540  173.1300  139.0290 O   0  0  0  0  0  1  0  0  0  0  0  0
  196.4960  174.8740  138.9850 O   0  0  0  0  0  0  0  0  0  0  0  0
  188.1070  178.4500  141.7720 N   0  0  0  0  0  2  0  0  0  0  0  0
  186.5830  178.3890  141.4810 C   0  0  2  0  0  3  0  0  0  0  0  0
  186.3430  179.0030  140.2780 O   0  0  0  0  0  0  0  0  0  0  0  0
  185.0610  178.6770  139.9540 C   0  0  0  0  0  1  0  0  0  0  0  0
  185.4670  179.1470  142.3340 C   0  0  0  0  0  2  0  0  0  0  0  0
  184.9820  178.2530  143.4370 N   0  0  0  0  0  2  0  0  0  0  0  0
  183.3900  179.0020  145.0570 C   0  0  0  0  0  1  0  0  0  0  0  0
  184.8820  178.9620  144.7090 C   0  0  0  0  0  2  0  0  0  0  0  0
  1 12  1  6  0  0  0
  1  4  1  0  0  0  0
  3  5  1  0  0  0  0
  4 10  1  0  0  0  0
  4  3  2  0  0  0  0
  5  7  1  0  0  0  0
  6 11  2  0  0  0  0
  7  2  1  0  0  0  0
  7  8  2  0  0  0  0
  9  5  2  0  0  0  0
  9  6  1  0  0  0  0
 10  9  1  0  0  0  0
 11  8  1  0  0  0  0
 14 13  1  6  0  0  0
 14 12  1  0  0  0  0
 15 18  2  0  0  0  0
 16 19  2  0  0  0  0
 16 14  1  0  0  0  0
 17 15  1  0  0  0  0
 17 16  1  0  0  0  0
 18 19  1  0  0  0  0
 20 15  1  0  0  0  0
 20 21  1  0  0  0  0
 21 23  2  0  0  0  0
 21 22  1  0  0  0  0
 24  1  1  0  0  0  0
 25 24  1  0  0  0  0
 25 28  1  1  0  0  0
 26 25  1  0  0  0  0
 27 26  1  0  0  0  0
 28 29  1  0  0  0  0
 29 31  1  0  0  0  0
 31 30  1  0  0  0  0
M  END
>  <MODEL>
7

>  <REMARK>
 VINA RESULT:      -7.1      3.273      6.603
  Name = 
  12 active torsions:
  status: ('A' for Active; 'I' for Inactive)
    1  A    between atoms: C_4  and  C_5
    2  A    between atoms: C_5  and  C_8
    3  A    between atoms: C_6  and  C_7
    4  A    between atoms: C_6  and  C_21
    5  A    between atoms: C_10  and  N_24
    6  A    between atoms: O_11  and  C_27
    7  A    between atoms: C_15  and  C_29
    8  A    between atoms: C_16  and  N_24
    9  A    between atoms: C_16  and  C_27
   10  A    between atoms: C_21  and  C_29
   11  A    between atoms: C_27  and  N_30
   12  A    between atoms: C_29  and  N_30
                            x       y       z     vdW  Elec       q    Type
                         _______ _______ _______ _____ _____    ______ ____

>  <TORSDO>
F 12

$$$$
=
 OpenBabel10222415293D

 31 33  0  0  1  0  0  0  0  0999 V2000
  187.6910  177.3310  142.8410 C   0  0  2  0  0  3  0  0  0  0  0  0
  191.6790  176.7530  146.7530 N   0  0  0  0  0  1  0  0  0  0  0  0
  189.6080  177.1860  144.6440 N   0  0  0  0  0  0  0  0  0  0  0  0
  188.3430  177.5340  144.2320 C   0  0  0  0  0  0  0  0  0  0  0  0
  189.4590  177.4470  145.9750 C   0  0  0  0  0  0  0  0  0  0  0  0
  187.6340  178.0470  147.4250 C   0  0  0  0  0  3  0  0  0  0  0  0
  190.3100  177.2140  146.9910 C   0  0  0  0  0  0  0  0  0  0  0  0
  189.8270  177.4120  148.2370 N   0  0  0  0  0  0  0  0  0  0  0  0
  188.1930  177.8520  146.2260 C   0  0  0  0  0  0  0  0  0  0  0  0
  187.4550  177.8990  145.0940 N   0  0  0  0  0  2  0  0  0  0  0  0
  188.5120  177.8350  148.4790 C   0  0  0  0  0  3  0  0  0  0  0  0
  188.5150  178.1530  141.8080 C   0  0  0  0  0  2  0  0  0  0  0  0
  189.9930  176.8840  140.3250 O   0  0  0  0  0  1  0  0  0  0  0  0
  188.8890  177.5880  140.4060 C   0  0  2  0  0  3  0  0  0  0  0  0
  187.8350  178.4000  136.7410 C   0  0  0  0  0  0  0  0  0  0  0  0
  188.4330  178.1870  139.1130 C   0  0  0  0  0  0  0  0  0  0  0  0
  187.5010  177.2660  137.9490 S   0  0  0  0  0  0  0  0  0  0  0  0
  188.7530  179.3710  137.1990 N   0  0  0  0  0  0  0  0  0  0  0  0
  189.0540  179.2350  138.4920 N   0  0  0  0  0  0  0  0  0  0  0  0
  187.7190  177.9050  135.2900 C   0  0  0  0  0  2  0  0  0  0  0  0
  188.7180  176.6390  135.1850 C   0  0  0  0  0  0  0  0  0  0  0  0
  188.2340  175.5790  134.6740 O   0  0  0  0  0  0  0  0  0  0  0  0
  190.1010  176.5860  135.2630 O   0  0  0  0  0  1  0  0  0  0  0  0
  186.2310  177.6400  142.8840 N   0  0  0  0  0  2  0  0  0  0  0  0
  185.8050  178.7580  141.8930 C   0  0  2  0  0  3  0  0  0  0  0  0
  185.3060  179.8130  142.6140 O   0  0  0  0  0  0  0  0  0  0  0  0
  184.5120  179.2560  143.5690 C   0  0  0  0  0  1  0  0  0  0  0  0
  184.6080  178.6310  140.8450 C   0  0  0  0  0  2  0  0  0  0  0  0
  184.7130  179.7250  139.8250 N   0  0  0  0  0  2  0  0  0  0  0  0
  182.6890  178.5520  139.3240 C   0  0  0  0  0  1  0  0  0  0  0  0
  183.5550  179.7560  138.9360 C   0  0  0  0  0  2  0  0  0  0  0  0
  1 12  1  6  0  0  0
  1 24  1  0  0  0  0
  1  4  1  0  0  0  0
  2  7  1  0  0  0  0
  3  5  1  0  0  0  0
  4  3  2  0  0  0  0
  4 10  1  0  0  0  0
  5  9  2  0  0  0  0
  5  7  1  0  0  0  0
  6 11  2  0  0  0  0
  7  8  2  0  0  0  0
  8 11  1  0  0  0  0
  9  6  1  0  0  0  0
 10  9  1  0  0  0  0
 14 13  1  6  0  0  0
 14 12  1  0  0  0  0
 15 18  2  0  0  0  0
 15 17  1  0  0  0  0
 16 14  1  0  0  0  0
 17 16  1  0  0  0  0
 18 19  1  0  0  0  0
 19 16  2  0  0  0  0
 20 15  1  0  0  0  0
 21 23  1  0  0  0  0
 21 20  1  0  0  0  0
 22 21  2  0  0  0  0
 25 28  1  6  0  0  0
 25 26  1  0  0  0  0
 25 24  1  0  0  0  0
 26 27  1  0  0  0  0
 29 28  1  0  0  0  0
 31 30  1  0  0  0  0
 31 29  1  0  0  0  0
M  END
>  <MODEL>
8

>  <REMARK>
 VINA RESULT:      -7.1      2.515      6.214
  Name = 
  12 active torsions:
  status: ('A' for Active; 'I' for Inactive)
    1  A    between atoms: C_4  and  C_5
    2  A    between atoms: C_5  and  C_8
    3  A    between atoms: C_6  and  C_7
    4  A    between atoms: C_6  and  C_21
    5  A    between atoms: C_10  and  N_24
    6  A    between atoms: O_11  and  C_27
    7  A    between atoms: C_15  and  C_29
    8  A    between atoms: C_16  and  N_24
    9  A    between atoms: C_16  and  C_27
   10  A    between atoms: C_21  and  C_29
   11  A    between atoms: C_27  and  N_30
   12  A    between atoms: C_29  and  N_30
                            x       y       z     vdW  Elec       q    Type
                         _______ _______ _______ _____ _____    ______ ____

>  <TORSDO>
F 12

$$$$
=
 OpenBabel10222415293D

 31 33  0  0  1  0  0  0  0  0999 V2000
  188.8340  177.3570  143.2560 C   0  0  2  0  0  3  0  0  0  0  0  0
  186.9860  178.6120  138.1030 N   0  0  0  0  0  1  0  0  0  0  0  0
  188.0150  178.0740  140.8550 N   0  0  0  0  0  0  0  0  0  0  0  0
  188.9600  177.5900  141.7290 C   0  0  0  0  0  0  0  0  0  0  0  0
  188.6860  177.8350  139.6910 C   0  0  0  0  0  0  0  0  0  0  0  0
  190.7190  176.7070  139.0660 C   0  0  0  0  0  3  0  0  0  0  0  0
  188.2690  177.9810  138.4200 C   0  0  0  0  0  0  0  0  0  0  0  0
  189.0880  177.4990  137.4600 N   0  0  0  0  0  0  0  0  0  0  0  0
  189.8670  177.2300  139.9560 C   0  0  0  0  0  0  0  0  0  0  0  0
  190.0470  177.0550  141.2840 N   0  0  0  0  0  2  0  0  0  0  0  0
  190.3100  176.8760  137.7520 C   0  0  0  0  0  3  0  0  0  0  0  0
  187.3420  177.0370  143.5640 C   0  0  0  0  0  2  0  0  0  0  0  0
  186.5520  177.9630  145.6890 O   0  0  0  0  0  1  0  0  0  0  0  0
  186.4370  178.0050  144.3820 C   0  0  2  0  0  3  0  0  0  0  0  0
  182.7260  178.9520  143.6520 C   0  0  0  0  0  0  0  0  0  0  0  0
  185.1390  178.5580  143.8870 C   0  0  0  0  0  0  0  0  0  0  0  0
  183.7850  178.8390  144.9640 S   0  0  0  0  0  0  0  0  0  0  0  0
  183.3850  178.6390  142.4420 N   0  0  0  0  0  0  0  0  0  0  0  0
  184.6950  178.4370  142.5990 N   0  0  0  0  0  0  0  0  0  0  0  0
  181.2410  178.6840  143.9480 C   0  0  0  0  0  2  0  0  0  0  0  0
  180.4400  179.2140  142.6480 C   0  0  0  0  0  0  0  0  0  0  0  0
  180.3110  180.4760  142.5400 O   0  0  0  0  0  1  0  0  0  0  0  0
  180.1370  178.5640  141.4620 O   0  0  0  0  0  0  0  0  0  0  0  0
  189.4130  178.4990  144.0230 N   0  0  0  0  0  2  0  0  0  0  0  0
  190.3000  178.0570  145.2190 C   0  0  2  0  0  3  0  0  0  0  0  0
  191.5970  177.9500  144.7850 O   0  0  0  0  0  0  0  0  0  0  0  0
  191.9060  179.1680  144.2650 C   0  0  0  0  0  1  0  0  0  0  0  0
  190.1990  176.6390  145.9450 C   0  0  0  0  0  2  0  0  0  0  0  0
  189.2700  176.7390  147.1180 N   0  0  0  0  0  2  0  0  0  0  0  0
  188.2810  178.2540  148.6830 C   0  0  0  0  0  1  0  0  0  0  0  0
  189.5850  177.8830  147.9690 C   0  0  0  0  0  2  0  0  0  0  0  0
  1 12  1  6  0  0  0
  1 24  1  0  0  0  0
  2  7  1  0  0  0  0
  3  4  2  0  0  0  0
  4  1  1  0  0  0  0
  5  9  1  0  0  0  0
  5  3  1  0  0  0  0
  6  9  2  0  0  0  0
  7  5  2  0  0  0  0
  8 11  2  0  0  0  0
  8  7  1  0  0  0  0
  9 10  1  0  0  0  0
 10  4  1  0  0  0  0
 11  6  1  0  0  0  0
 12 14  1  0  0  0  0
 14 13  1  1  0  0  0
 15 20  1  0  0  0  0
 15 17  1  0  0  0  0
 16 14  1  0  0  0  0
 16 17  1  0  0  0  0
 18 19  1  0  0  0  0
 18 15  2  0  0  0  0
 19 16  2  0  0  0  0
 21 20  1  0  0  0  0
 22 21  1  0  0  0  0
 23 21  2  0  0  0  0
 24 25  1  0  0  0  0
 25 28  1  6  0  0  0
 26 25  1  0  0  0  0
 27 26  1  0  0  0  0
 28 29  1  0  0  0  0
 29 31  1  0  0  0  0
 31 30  1  0  0  0  0
M  END
>  <MODEL>
9

>  <REMARK>
 VINA RESULT:      -7.0      3.031      6.192
  Name = 
  12 active torsions:
  status: ('A' for Active; 'I' for Inactive)
    1  A    between atoms: C_4  and  C_5
    2  A    between atoms: C_5  and  C_8
    3  A    between atoms: C_6  and  C_7
    4  A    between atoms: C_6  and  C_21
    5  A    between atoms: C_10  and  N_24
    6  A    between atoms: O_11  and  C_27
    7  A    between atoms: C_15  and  C_29
    8  A    between atoms: C_16  and  N_24
    9  A    between atoms: C_16  and  C_27
   10  A    between atoms: C_21  and  C_29
   11  A    between atoms: C_27  and  N_30
   12  A    between atoms: C_29  and  N_30
                            x       y       z     vdW  Elec       q    Type
                         _______ _______ _______ _____ _____    ______ ____

>  <TORSDO>
F 12

$$$$
