=
 OpenBabel10222419223D

 49 53  0  0  1  0  0  0  0  0999 V2000
  189.7340  177.9000  146.5360 N   0  0  0  0  0  0  0  0  0  0  0  0
  188.5480  177.8880  147.1320 C   0  0  0  0  0  0  0  0  0  0  0  0
  187.3060  177.8180  146.3790 N   0  0  0  0  0  0  0  0  0  0  0  0
  189.8090  176.9990  144.0460 C   0  0  2  0  0  0  0  0  0  0  0  0
  188.6510  177.7470  144.5380 N   0  0  0  0  0  0  0  0  0  0  0  0
  187.3600  177.7360  145.0880 C   0  0  0  0  0  0  0  0  0  0  0  0
  188.4900  177.8760  148.5490 N   0  0  0  0  0  1  0  0  0  0  0  0
  191.1690  176.4760  145.0770 S   0  0  0  0  0  0  0  0  0  0  0  0
  190.0370  177.9270  145.0790 C   0  0  2  0  0  0  0  0  0  0  0  0
  191.3480  176.7890  142.2340 O   0  0  0  0  0  0  0  0  0  0  0  0
  190.3180  177.5960  142.7450 C   0  0  1  0  0  3  0  0  0  0  0  0
  190.0950  176.6600  141.6110 C   0  0  1  0  0  3  0  0  0  0  0  0
  188.7620  178.2010  140.2170 C   0  0  0  0  0  1  0  0  0  0  0  0
  190.0830  177.4540  140.3070 C   0  0  2  0  0  3  0  0  0  0  0  0
  190.2450  176.5930  139.0480 C   0  0  2  0  0  3  0  0  0  0  0  0
  191.6680  176.2630  138.7230 C   0  0  0  0  0  0  0  0  0  0  0  0
  194.2730  175.5000  137.6960 O   0  0  0  0  0  0  0  0  0  0  0  0
  192.5720  177.0410  139.1050 O   0  0  0  0  0  0  0  0  0  0  0  0
  191.9890  175.0580  138.0260 N   0  0  0  0  0  2  0  0  0  0  0  0
  193.2920  174.7140  137.5350 C   0  0  0  0  0  0  0  0  0  0  0  0
  193.4960  173.4200  136.8300 C   0  0  0  0  0  1  0  0  0  0  0  0
  189.5990  177.3120  137.8680 C   0  0  0  0  0  2  0  0  0  0  0  0
  188.8550  176.3210  136.9770 C   0  0  0  0  0  2  0  0  0  0  0  0
  187.4230  176.5110  137.1440 N   0  0  0  0  0  0  0  0  0  0  0  0
  185.5780  177.9560  137.7690 C   0  0  0  0  0  1  0  0  0  0  0  0
  186.8430  177.8030  137.3960 C   0  0  0  0  0  3  0  0  0  0  0  0
  186.1380  177.6200  144.2400 C   0  0  0  0  0  2  0  0  0  0  0  0
  185.3800  178.4470  142.0860 C   0  0  0  0  0  0  0  0  0  0  0  0
  186.3510  178.3270  142.9500 C   0  0  0  0  0  3  0  0  0  0  0  0
  184.4320  178.5860  141.1940 C   0  0  0  0  0  3  0  0  0  0  0  0
  183.0490  178.0630  141.4090 C   0  0  1  0  0  3  0  0  0  0  0  0
  182.4360  178.6450  142.6140 C   0  0  0  0  0  0  0  0  0  0  0  0
  181.9110  179.1410  143.5880 C   0  0  0  0  0  3  0  0  0  0  0  0
  181.4230  177.5360  139.7670 O   0  0  0  0  0  0  0  0  0  0  0  0
  182.2170  178.3590  140.1940 C   0  0  0  0  0  0  0  0  0  0  0  0
  182.3050  179.7050  139.5520 C   0  0  0  0  0  2  0  0  0  0  0  0
  180.4460  180.7590  140.6080 O   0  0  0  0  0  0  0  0  0  0  0  0
  180.9650  180.3780  139.5300 C   0  0  0  0  0  0  0  0  0  0  0  0
  180.2550  180.5790  138.3020 N   0  0  0  0  0  2  0  0  0  0  0  0
  180.8360  180.3040  136.9870 C   0  0  1  0  0  3  0  0  0  0  0  0
  180.4560  179.0380  136.4800 O   0  0  0  0  0  0  0  0  0  0  0  0
  181.4810  178.5230  135.6640 C   0  0  0  0  0  2  0  0  0  0  0  0
  180.8650  176.4210  136.6330 O   0  0  0  0  0  1  0  0  0  0  0  0
  181.2890  177.0300  135.4500 C   0  0  0  0  0  2  0  0  0  0  0  0
  180.6490  181.4630  135.9950 C   0  0  0  0  0  2  0  0  0  0  0  0
  180.3620  182.7200  136.6700 N   0  0  0  0  0  2  0  0  0  0  0  0
  180.4490  185.1040  136.3770 C   0  0  0  0  0  2  0  0  0  0  0  0
  180.8970  183.7910  135.8500 C   0  0  1  0  0  3  0  0  0  0  0  0
  181.7330  184.6000  136.6390 O   0  0  0  0  0  0  0  0  0  0  0  0
  1  2  2  0  0  0  0
  2  7  1  0  0  0  0
  3  2  1  0  0  0  0
  4  5  1  0  0  0  0
  4  8  1  1  0  0  0
  4  9  1  0  0  0  0
  5  9  1  0  0  0  0
  5  6  1  0  0  0  0
  6  3  2  0  0  0  0
  9  8  1  1  0  0  0
  9  1  1  0  0  0  0
 11 10  1  1  0  0  0
 11  4  1  0  0  0  0
 12 14  1  6  0  0  0
 12 10  1  0  0  0  0
 12 11  1  0  0  0  0
 14 13  1  6  0  0  0
 15 22  1  6  0  0  0
 15 14  1  0  0  0  0
 16 15  1  0  0  0  0
 16 18  2  0  0  0  0
 19 16  1  0  0  0  0
 20 17  2  0  0  0  0
 20 19  1  0  0  0  0
 21 20  1  0  0  0  0
 23 24  1  0  0  0  0
 23 22  1  0  0  0  0
 24 26  2  0  0  0  0
 26 25  1  0  0  0  0
 27  6  1  0  0  0  0
 28 29  2  0  0  0  0
 29 27  1  0  0  0  0
 30 28  2  0  0  0  0
 31 30  1  6  0  0  0
 31 32  1  0  0  0  0
 32 33  3  0  0  0  0
 34 35  2  0  0  0  0
 35 31  1  0  0  0  0
 36 35  1  0  0  0  0
 38 36  1  0  0  0  0
 38 37  2  0  0  0  0
 39 38  1  0  0  0  0
 40 45  1  6  0  0  0
 40 39  1  0  0  0  0
 41 40  1  0  0  0  0
 42 41  1  0  0  0  0
 44 42  1  0  0  0  0
 44 43  1  0  0  0  0
 45 46  1  0  0  0  0
 47 49  1  0  0  0  0
 48 47  1  0  0  0  0
 48 49  1  0  0  0  0
 48 46  1  1  0  0  0
M  END
>  <MODEL>
1

>  <REMARK>
 VINA RESULT:      -6.6      0.000      0.000
  Name = 
  22 active torsions:
  status: ('A' for Active; 'I' for Inactive)
    1  A    between atoms: C_3  and  C_36
    2  A    between atoms: C_5  and  O_37
    3  A    between atoms: C_5  and  N_39
    4  A    between atoms: C_5  and  C_46
    5  A    between atoms: C_7  and  C_8
    6  A    between atoms: C_7  and  O_37
    7  A    between atoms: C_10  and  C_41
    8  A    between atoms: N_12  and  C_18
    9  A    between atoms: N_12  and  C_20
   10  A    between atoms: C_15  and  C_24
   11  A    between atoms: C_17  and  C_23
   12  A    between atoms: C_18  and  C_44
   13  A    between atoms: C_22  and  C_26
   14  A    between atoms: C_23  and  C_28
   15  A    between atoms: C_23  and  C_43
   16  A    between atoms: C_26  and  C_43
   17  A    between atoms: C_27  and  C_47
   18  A    between atoms: N_29  and  C_42
   19  A    between atoms: N_29  and  C_46
   20  A    between atoms: C_31  and  C_36
   21  A    between atoms: C_41  and  C_44
   22  A    between atoms: C_41  and  C_47
                            x       y       z     vdW  Elec       q    Type
                         _______ _______ _______ _____ _____    ______ ____

>  <TORSDO>
F 22

$$$$
=
 OpenBabel10222419223D

 49 53  0  0  1  0  0  0  0  0999 V2000
  189.8860  177.8280  146.4340 N   0  0  0  0  0  0  0  0  0  0  0  0
  188.7120  177.7990  147.0520 C   0  0  0  0  0  0  0  0  0  0  0  0
  187.4560  177.7500  146.3220 N   0  0  0  0  0  0  0  0  0  0  0  0
  189.9130  176.9960  143.9190 C   0  0  2  0  0  0  0  0  0  0  0  0
  188.7640  177.7290  144.4540 N   0  0  0  0  0  0  0  0  0  0  0  0
  187.4840  177.7030  145.0280 C   0  0  0  0  0  0  0  0  0  0  0  0
  188.6820  177.7470  148.4690 N   0  0  0  0  0  1  0  0  0  0  0  0
  191.2930  176.4460  144.9090 S   0  0  0  0  0  0  0  0  0  0  0  0
  190.1610  177.8950  144.9730 C   0  0  2  0  0  0  0  0  0  0  0  0
  191.4170  176.8360  142.0730 O   0  0  0  0  0  0  0  0  0  0  0  0
  190.3970  177.6290  142.6250 C   0  0  1  0  0  3  0  0  0  0  0  0
  190.1520  176.7250  141.4700 C   0  0  1  0  0  3  0  0  0  0  0  0
  188.7630  178.2480  140.1100 C   0  0  0  0  0  1  0  0  0  0  0  0
  190.1140  177.5550  140.1900 C   0  0  2  0  0  3  0  0  0  0  0  0
  190.3210  176.7380  138.9080 C   0  0  2  0  0  3  0  0  0  0  0  0
  191.7500  176.3740  138.6480 C   0  0  0  0  0  0  0  0  0  0  0  0
  194.3820  175.5580  137.7400 O   0  0  0  0  0  0  0  0  0  0  0  0
  192.6540  177.1190  139.0930 O   0  0  0  0  0  0  0  0  0  0  0  0
  192.0730  175.1750  137.9440 N   0  0  0  0  0  2  0  0  0  0  0  0
  193.3900  174.8040  137.5120 C   0  0  0  0  0  0  0  0  0  0  0  0
  193.5940  173.5190  136.7910 C   0  0  0  0  0  1  0  0  0  0  0  0
  189.7650  177.5220  137.7240 C   0  0  0  0  0  2  0  0  0  0  0  0
  188.9020  176.6240  136.8420 C   0  0  0  0  0  2  0  0  0  0  0  0
  187.8310  177.4160  136.2580 N   0  0  0  0  0  2  0  0  0  0  0  0
  185.7520  177.7430  137.4650 C   0  0  0  0  0  2  0  0  0  0  0  0
  186.9310  178.2010  137.0590 C   0  0  0  0  0  3  0  0  0  0  0  0
  186.2470  177.6100  144.2010 C   0  0  0  0  0  2  0  0  0  0  0  0
  185.4720  178.4340  142.0510 C   0  0  0  0  0  0  0  0  0  0  0  0
  186.4490  178.3170  142.9100 C   0  0  0  0  0  3  0  0  0  0  0  0
  184.5180  178.5710  141.1660 C   0  0  0  0  0  3  0  0  0  0  0  0
  183.1380  178.0430  141.3900 C   0  0  1  0  0  3  0  0  0  0  0  0
  182.5280  178.6300  142.5950 C   0  0  0  0  0  0  0  0  0  0  0  0
  182.0560  179.1190  143.5990 C   0  0  0  0  0  3  0  0  0  0  0  0
  181.7630  179.4190  140.0350 O   0  0  0  0  0  0  0  0  0  0  0  0
  182.2980  178.3310  140.1780 C   0  0  0  0  0  0  0  0  0  0  0  0
  182.1850  177.3030  139.1010 C   0  0  0  0  0  2  0  0  0  0  0  0
  180.2580  176.6110  140.3210 O   0  0  0  0  0  0  0  0  0  0  0  0
  181.0280  176.3840  139.3550 C   0  0  0  0  0  0  0  0  0  0  0  0
  180.7940  175.2370  138.5290 N   0  0  0  0  0  2  0  0  0  0  0  0
  181.5430  174.9700  137.2990 C   0  0  1  0  0  3  0  0  0  0  0  0
  182.1190  173.6770  137.2860 O   0  0  0  0  0  0  0  0  0  0  0  0
  183.0630  173.5850  136.2450 C   0  0  0  0  0  2  0  0  0  0  0  0
  184.7810  173.4780  137.9110 O   0  0  0  0  0  1  0  0  0  0  0  0
  184.4170  174.0950  136.7120 C   0  0  0  0  0  2  0  0  0  0  0  0
  180.7550  175.3230  136.0280 C   0  0  0  0  0  2  0  0  0  0  0  0
  180.3210  176.7120  136.0210 N   0  0  0  0  0  2  0  0  0  0  0  0
  181.2210  178.8490  135.3880 C   0  0  0  0  0  2  0  0  0  0  0  0
  181.1100  177.4140  135.0270 C   0  0  1  0  0  3  0  0  0  0  0  0
  182.2610  177.9390  135.6400 O   0  0  0  0  0  0  0  0  0  0  0  0
  1  2  2  0  0  0  0
  2  7  1  0  0  0  0
  3  2  1  0  0  0  0
  4  5  1  0  0  0  0
  4  8  1  1  0  0  0
  4  9  1  0  0  0  0
  5  9  1  0  0  0  0
  5  6  1  0  0  0  0
  6  3  2  0  0  0  0
  9  8  1  1  0  0  0
  9  1  1  0  0  0  0
 11 10  1  1  0  0  0
 11  4  1  0  0  0  0
 12 14  1  6  0  0  0
 12 10  1  0  0  0  0
 12 11  1  0  0  0  0
 14 13  1  6  0  0  0
 15 22  1  6  0  0  0
 15 14  1  0  0  0  0
 16 15  1  0  0  0  0
 16 18  2  0  0  0  0
 19 16  1  0  0  0  0
 20 17  2  0  0  0  0
 20 19  1  0  0  0  0
 21 20  1  0  0  0  0
 23 22  1  0  0  0  0
 24 23  1  0  0  0  0
 24 26  1  0  0  0  0
 26 25  2  0  0  0  0
 27  6  1  0  0  0  0
 28 29  2  0  0  0  0
 29 27  1  0  0  0  0
 30 28  2  0  0  0  0
 31 30  1  6  0  0  0
 31 32  1  0  0  0  0
 32 33  3  0  0  0  0
 34 35  2  0  0  0  0
 35 31  1  0  0  0  0
 36 38  1  0  0  0  0
 36 35  1  0  0  0  0
 38 37  2  0  0  0  0
 39 38  1  0  0  0  0
 40 45  1  6  0  0  0
 40 39  1  0  0  0  0
 41 40  1  0  0  0  0
 42 44  1  0  0  0  0
 42 41  1  0  0  0  0
 44 43  1  0  0  0  0
 46 45  1  0  0  0  0
 47 49  1  0  0  0  0
 48 47  1  0  0  0  0
 48 49  1  0  0  0  0
 48 46  1  1  0  0  0
M  END
>  <MODEL>
2

>  <REMARK>
 VINA RESULT:      -6.2      2.031      2.896
  Name = 
  22 active torsions:
  status: ('A' for Active; 'I' for Inactive)
    1  A    between atoms: C_3  and  C_36
    2  A    between atoms: C_5  and  O_37
    3  A    between atoms: C_5  and  N_39
    4  A    between atoms: C_5  and  C_46
    5  A    between atoms: C_7  and  C_8
    6  A    between atoms: C_7  and  O_37
    7  A    between atoms: C_10  and  C_41
    8  A    between atoms: N_12  and  C_18
    9  A    between atoms: N_12  and  C_20
   10  A    between atoms: C_15  and  C_24
   11  A    between atoms: C_17  and  C_23
   12  A    between atoms: C_18  and  C_44
   13  A    between atoms: C_22  and  C_26
   14  A    between atoms: C_23  and  C_28
   15  A    between atoms: C_23  and  C_43
   16  A    between atoms: C_26  and  C_43
   17  A    between atoms: C_27  and  C_47
   18  A    between atoms: N_29  and  C_42
   19  A    between atoms: N_29  and  C_46
   20  A    between atoms: C_31  and  C_36
   21  A    between atoms: C_41  and  C_44
   22  A    between atoms: C_41  and  C_47
                            x       y       z     vdW  Elec       q    Type
                         _______ _______ _______ _____ _____    ______ ____

>  <TORSDO>
F 22

$$$$
=
 OpenBabel10222419223D

 49 53  0  0  1  0  0  0  0  0999 V2000
  190.4480  177.6950  146.1180 N   0  0  0  0  0  0  0  0  0  0  0  0
  189.3520  177.6830  146.8680 C   0  0  0  0  0  0  0  0  0  0  0  0
  188.0190  177.6900  146.2880 N   0  0  0  0  0  0  0  0  0  0  0  0
  190.1580  176.9320  143.5980 C   0  0  2  0  0  0  0  0  0  0  0  0
  189.1020  177.6840  144.2800 N   0  0  0  0  0  0  0  0  0  0  0  0
  187.8970  177.6780  144.9980 C   0  0  0  0  0  0  0  0  0  0  0  0
  189.4840  177.5930  148.2780 N   0  0  0  0  0  1  0  0  0  0  0  0
  191.6250  176.3160  144.4080 S   0  0  0  0  0  0  0  0  0  0  0  0
  190.5540  177.7950  144.6370 C   0  0  2  0  0  0  0  0  0  0  0  0
  191.7040  177.0340  141.7840 O   0  0  0  0  0  0  0  0  0  0  0  0
  190.5090  177.5870  142.2720 C   0  0  1  0  0  3  0  0  0  0  0  0
  190.5200  176.5840  141.1740 C   0  0  1  0  0  3  0  0  0  0  0  0
  188.8880  177.8180  139.7920 C   0  0  0  0  0  1  0  0  0  0  0  0
  190.3180  177.3030  139.8440 C   0  0  2  0  0  3  0  0  0  0  0  0
  190.5660  176.4230  138.6120 C   0  0  2  0  0  3  0  0  0  0  0  0
  192.0110  176.1290  138.3620 C   0  0  0  0  0  0  0  0  0  0  0  0
  194.6810  175.4060  137.4840 O   0  0  0  0  0  0  0  0  0  0  0  0
  192.8710  176.9610  138.7310 O   0  0  0  0  0  0  0  0  0  0  0  0
  192.4030  174.8980  137.7510 N   0  0  0  0  0  2  0  0  0  0  0  0
  193.7360  174.5760  137.3320 C   0  0  0  0  0  0  0  0  0  0  0  0
  194.0140  173.2510  136.7140 C   0  0  0  0  0  1  0  0  0  0  0  0
  189.9570  177.0980  137.3880 C   0  0  0  0  0  2  0  0  0  0  0  0
  189.0920  176.1150  136.6040 C   0  0  0  0  0  2  0  0  0  0  0  0
  188.7170  176.7150  135.3340 N   0  0  0  0  0  2  0  0  0  0  0  0
  186.6830  177.8380  136.0310 C   0  0  0  0  0  2  0  0  0  0  0  0
  187.7480  177.7750  135.2410 C   0  0  0  0  0  3  0  0  0  0  0  0
  186.5700  177.6430  144.3190 C   0  0  0  0  0  2  0  0  0  0  0  0
  185.6400  178.3710  142.1960 C   0  0  0  0  0  0  0  0  0  0  0  0
  186.6970  178.1760  142.9370 C   0  0  0  0  0  3  0  0  0  0  0  0
  184.6040  178.5790  141.4230 C   0  0  0  0  0  3  0  0  0  0  0  0
  183.2040  178.3160  141.8740 C   0  0  1  0  0  3  0  0  0  0  0  0
  182.9360  178.9380  143.1810 C   0  0  0  0  0  0  0  0  0  0  0  0
  182.7010  179.4230  144.2670 C   0  0  0  0  0  3  0  0  0  0  0  0
  181.1310  179.2070  141.1500 O   0  0  0  0  0  0  0  0  0  0  0  0
  182.2480  178.8290  140.8360 C   0  0  0  0  0  0  0  0  0  0  0  0
  182.6990  178.9520  139.4170 C   0  0  0  0  0  2  0  0  0  0  0  0
  180.9540  179.5210  137.8970 O   0  0  0  0  0  0  0  0  0  0  0  0
  181.5910  178.6020  138.4690 C   0  0  0  0  0  0  0  0  0  0  0  0
  181.2300  177.2390  138.2170 N   0  0  0  0  0  2  0  0  0  0  0  0
  182.0030  176.1010  138.7190 C   0  0  1  0  0  3  0  0  0  0  0  0
  181.3450  175.4230  139.7730 O   0  0  0  0  0  0  0  0  0  0  0  0
  180.0520  175.0440  139.3630 C   0  0  0  0  0  2  0  0  0  0  0  0
  178.9310  175.0500  141.4800 O   0  0  0  0  0  1  0  0  0  0  0  0
  179.0030  175.7000  140.2460 C   0  0  0  0  0  2  0  0  0  0  0  0
  182.5130  175.1810  137.5990 C   0  0  0  0  0  2  0  0  0  0  0  0
  183.7090  174.4510  137.9920 N   0  0  0  0  0  2  0  0  0  0  0  0
  185.2780  172.7890  137.2490 C   0  0  0  0  0  2  0  0  0  0  0  0
  184.0540  173.5550  136.9050 C   0  0  1  0  0  3  0  0  0  0  0  0
  183.9950  172.2280  137.3660 O   0  0  0  0  0  0  0  0  0  0  0  0
  1  2  2  0  0  0  0
  2  7  1  0  0  0  0
  3  2  1  0  0  0  0
  4  5  1  0  0  0  0
  4  8  1  1  0  0  0
  4  9  1  0  0  0  0
  5  9  1  0  0  0  0
  5  6  1  0  0  0  0
  6  3  2  0  0  0  0
  9  8  1  1  0  0  0
  9  1  1  0  0  0  0
 11 10  1  1  0  0  0
 11  4  1  0  0  0  0
 12 14  1  6  0  0  0
 12 10  1  0  0  0  0
 12 11  1  0  0  0  0
 14 13  1  6  0  0  0
 15 22  1  6  0  0  0
 15 14  1  0  0  0  0
 16 15  1  0  0  0  0
 16 18  2  0  0  0  0
 19 16  1  0  0  0  0
 20 17  2  0  0  0  0
 20 19  1  0  0  0  0
 21 20  1  0  0  0  0
 23 22  1  0  0  0  0
 24 23  1  0  0  0  0
 26 24  1  0  0  0  0
 26 25  2  0  0  0  0
 27  6  1  0  0  0  0
 28 29  2  0  0  0  0
 29 27  1  0  0  0  0
 30 28  2  0  0  0  0
 31 30  1  6  0  0  0
 31 32  1  0  0  0  0
 32 33  3  0  0  0  0
 35 34  2  0  0  0  0
 35 31  1  0  0  0  0
 36 35  1  0  0  0  0
 37 38  2  0  0  0  0
 38 36  1  0  0  0  0
 39 38  1  0  0  0  0
 39 40  1  0  0  0  0
 40 45  1  6  0  0  0
 40 41  1  0  0  0  0
 42 41  1  0  0  0  0
 42 44  1  0  0  0  0
 44 43  1  0  0  0  0
 45 46  1  0  0  0  0
 47 49  1  0  0  0  0
 48 47  1  0  0  0  0
 48 49  1  0  0  0  0
 48 46  1  1  0  0  0
M  END
>  <MODEL>
3

>  <REMARK>
 VINA RESULT:      -6.2      2.232      3.963
  Name = 
  22 active torsions:
  status: ('A' for Active; 'I' for Inactive)
    1  A    between atoms: C_3  and  C_36
    2  A    between atoms: C_5  and  O_37
    3  A    between atoms: C_5  and  N_39
    4  A    between atoms: C_5  and  C_46
    5  A    between atoms: C_7  and  C_8
    6  A    between atoms: C_7  and  O_37
    7  A    between atoms: C_10  and  C_41
    8  A    between atoms: N_12  and  C_18
    9  A    between atoms: N_12  and  C_20
   10  A    between atoms: C_15  and  C_24
   11  A    between atoms: C_17  and  C_23
   12  A    between atoms: C_18  and  C_44
   13  A    between atoms: C_22  and  C_26
   14  A    between atoms: C_23  and  C_28
   15  A    between atoms: C_23  and  C_43
   16  A    between atoms: C_26  and  C_43
   17  A    between atoms: C_27  and  C_47
   18  A    between atoms: N_29  and  C_42
   19  A    between atoms: N_29  and  C_46
   20  A    between atoms: C_31  and  C_36
   21  A    between atoms: C_41  and  C_44
   22  A    between atoms: C_41  and  C_47
                            x       y       z     vdW  Elec       q    Type
                         _______ _______ _______ _____ _____    ______ ____

>  <TORSDO>
F 22

$$$$
=
 OpenBabel10222419223D

 49 53  0  0  1  0  0  0  0  0999 V2000
  180.4280  178.9470  141.0120 N   0  0  0  0  0  0  0  0  0  0  0  0
  180.3030  179.3070  142.2840 C   0  0  0  0  0  0  0  0  0  0  0  0
  181.4390  179.3540  143.1890 N   0  0  0  0  0  0  0  0  0  0  0  0
  182.8640  179.0950  139.9820 C   0  0  2  0  0  0  0  0  0  0  0  0
  182.6630  178.7010  141.3780 N   0  0  0  0  0  0  0  0  0  0  0  0
  182.6160  179.0630  142.7330 C   0  0  0  0  0  0  0  0  0  0  0  0
  179.0330  179.7230  142.7590 N   0  0  0  0  0  1  0  0  0  0  0  0
  181.5570  179.6680  138.9100 S   0  0  0  0  0  0  0  0  0  0  0  0
  181.6450  178.4680  140.3020 C   0  0  2  0  0  0  0  0  0  0  0  0
  183.6740  178.3100  137.8790 O   0  0  0  0  0  0  0  0  0  0  0  0
  183.7460  178.0870  139.2630 C   0  0  1  0  0  3  0  0  0  0  0  0
  184.8360  178.7730  138.5210 C   0  0  1  0  0  3  0  0  0  0  0  0
  187.2140  178.3190  139.0060 C   0  0  0  0  0  1  0  0  0  0  0  0
  185.9790  177.7890  138.2940 C   0  0  2  0  0  3  0  0  0  0  0  0
  186.3260  177.5600  136.8180 C   0  0  2  0  0  3  0  0  0  0  0  0
  185.7930  176.2760  136.2640 C   0  0  0  0  0  0  0  0  0  0  0  0
  184.5260  173.7610  135.5640 O   0  0  0  0  0  0  0  0  0  0  0  0
  185.5050  176.2160  135.0470 O   0  0  0  0  0  0  0  0  0  0  0  0
  185.6590  175.1280  137.1030 N   0  0  0  0  0  2  0  0  0  0  0  0
  185.0260  173.8990  136.7200 C   0  0  0  0  0  0  0  0  0  0  0  0
  184.9580  172.7720  137.6890 C   0  0  0  0  0  1  0  0  0  0  0  0
  187.8420  177.6050  136.6500 C   0  0  0  0  0  2  0  0  0  0  0  0
  188.3490  176.3240  135.9940 C   0  0  0  0  0  2  0  0  0  0  0  0
  189.6880  176.0350  136.4820 N   0  0  0  0  0  2  0  0  0  0  0  0
  192.0380  175.8660  135.9030 C   0  0  0  0  0  2  0  0  0  0  0  0
  190.7610  175.6550  135.6030 C   0  0  0  0  0  3  0  0  0  0  0  0
  183.8420  179.1240  143.5790 C   0  0  0  0  0  2  0  0  0  0  0  0
  184.4280  178.6400  145.8860 C   0  0  0  0  0  0  0  0  0  0  0  0
  183.4950  178.8220  144.9920 C   0  0  0  0  0  3  0  0  0  0  0  0
  185.3360  178.4500  146.8100 C   0  0  0  0  0  3  0  0  0  0  0  0
  186.8000  178.5420  146.5240 C   0  0  1  0  0  3  0  0  0  0  0  0
  187.6020  178.1110  147.6810 C   0  0  0  0  0  0  0  0  0  0  0  0
  188.2800  177.7390  148.6140 C   0  0  0  0  0  3  0  0  0  0  0  0
  186.6070  176.6090  145.1660 O   0  0  0  0  0  0  0  0  0  0  0  0
  187.1180  177.7070  145.3160 C   0  0  0  0  0  0  0  0  0  0  0  0
  188.0080  178.2610  144.2520 C   0  0  0  0  0  2  0  0  0  0  0  0
  186.4740  178.0430  142.4410 O   0  0  0  0  0  0  0  0  0  0  0  0
  187.6070  177.7550  142.8990 C   0  0  0  0  0  0  0  0  0  0  0  0
  188.4850  176.9290  142.1250 N   0  0  0  0  0  2  0  0  0  0  0  0
  189.8740  176.6600  142.5050 C   0  0  1  0  0  3  0  0  0  0  0  0
  190.6100  176.0440  141.4640 O   0  0  0  0  0  0  0  0  0  0  0  0
  190.3730  176.7170  140.2500 C   0  0  0  0  0  2  0  0  0  0  0  0
  192.6350  177.5060  140.2680 O   0  0  0  0  0  1  0  0  0  0  0  0
  191.6700  176.8820  139.4740 C   0  0  0  0  0  2  0  0  0  0  0  0
  190.5690  177.8760  143.1370 C   0  0  0  0  0  2  0  0  0  0  0  0
  191.6310  177.4840  144.0520 N   0  0  0  0  0  2  0  0  0  0  0  0
  191.9770  175.9740  145.8890 C   0  0  0  0  0  2  0  0  0  0  0  0
  191.0090  176.8710  145.2100 C   0  0  1  0  0  3  0  0  0  0  0  0
  191.7020  177.2660  146.3680 O   0  0  0  0  0  0  0  0  0  0  0  0
  1  2  2  0  0  0  0
  2  7  1  0  0  0  0
  2  3  1  0  0  0  0
  4  8  1  6  0  0  0
  4  9  1  0  0  0  0
  4  5  1  0  0  0  0
  5  6  1  0  0  0  0
  6  3  2  0  0  0  0
  6 27  1  0  0  0  0
  9  8  1  1  0  0  0
  9  1  1  0  0  0  0
  9  5  1  0  0  0  0
 10 12  1  0  0  0  0
 11 10  1  6  0  0  0
 11  4  1  0  0  0  0
 12 14  1  6  0  0  0
 12 11  1  0  0  0  0
 14 13  1  1  0  0  0
 15 22  1  1  0  0  0
 15 14  1  0  0  0  0
 16 15  1  0  0  0  0
 16 19  1  0  0  0  0
 17 20  2  0  0  0  0
 18 16  2  0  0  0  0
 20 19  1  0  0  0  0
 20 21  1  0  0  0  0
 23 24  1  0  0  0  0
 23 22  1  0  0  0  0
 26 25  2  0  0  0  0
 26 24  1  0  0  0  0
 27 29  1  0  0  0  0
 28 30  2  0  0  0  0
 29 28  2  0  0  0  0
 31 30  1  1  0  0  0
 31 32  1  0  0  0  0
 32 33  3  0  0  0  0
 34 35  2  0  0  0  0
 35 31  1  0  0  0  0
 36 35  1  0  0  0  0
 37 38  2  0  0  0  0
 38 36  1  0  0  0  0
 39 40  1  0  0  0  0
 39 38  1  0  0  0  0
 40 45  1  6  0  0  0
 41 40  1  0  0  0  0
 42 41  1  0  0  0  0
 44 42  1  0  0  0  0
 44 43  1  0  0  0  0
 45 46  1  0  0  0  0
 47 49  1  0  0  0  0
 48 46  1  6  0  0  0
 48 47  1  0  0  0  0
 48 49  1  0  0  0  0
M  END
>  <MODEL>
4

>  <REMARK>
 VINA RESULT:      -6.1      3.564      8.890
  Name = 
  22 active torsions:
  status: ('A' for Active; 'I' for Inactive)
    1  A    between atoms: C_3  and  C_36
    2  A    between atoms: C_5  and  O_37
    3  A    between atoms: C_5  and  N_39
    4  A    between atoms: C_5  and  C_46
    5  A    between atoms: C_7  and  C_8
    6  A    between atoms: C_7  and  O_37
    7  A    between atoms: C_10  and  C_41
    8  A    between atoms: N_12  and  C_18
    9  A    between atoms: N_12  and  C_20
   10  A    between atoms: C_15  and  C_24
   11  A    between atoms: C_17  and  C_23
   12  A    between atoms: C_18  and  C_44
   13  A    between atoms: C_22  and  C_26
   14  A    between atoms: C_23  and  C_28
   15  A    between atoms: C_23  and  C_43
   16  A    between atoms: C_26  and  C_43
   17  A    between atoms: C_27  and  C_47
   18  A    between atoms: N_29  and  C_42
   19  A    between atoms: N_29  and  C_46
   20  A    between atoms: C_31  and  C_36
   21  A    between atoms: C_41  and  C_44
   22  A    between atoms: C_41  and  C_47
                            x       y       z     vdW  Elec       q    Type
                         _______ _______ _______ _____ _____    ______ ____

>  <TORSDO>
F 22

$$$$
=
 OpenBabel10222419223D

 49 53  0  0  1  0  0  0  0  0999 V2000
  187.0100  177.3950  146.3490 N   0  0  0  0  0  0  0  0  0  0  0  0
  188.3340  177.2930  146.3470 C   0  0  0  0  0  0  0  0  0  0  0  0
  189.1110  177.3560  145.1200 N   0  0  0  0  0  0  0  0  0  0  0  0
  185.9120  178.4990  144.2060 C   0  0  2  0  0  0  0  0  0  0  0  0
  187.0990  177.6510  144.0880 N   0  0  0  0  0  0  0  0  0  0  0  0
  188.4950  177.5460  143.9970 C   0  0  0  0  0  0  0  0  0  0  0  0
  189.0180  177.1870  147.5850 N   0  0  0  0  0  1  0  0  0  0  0  0
  185.2030  179.0090  145.7630 S   0  0  0  0  0  0  0  0  0  0  0  0
  186.0890  177.5030  145.1850 C   0  0  2  0  0  0  0  0  0  0  0  0
  183.7430  178.9290  143.3080 O   0  0  0  0  0  0  0  0  0  0  0  0
  184.8270  178.0380  143.2460 C   0  0  1  0  0  3  0  0  0  0  0  0
  184.5870  179.0570  142.1910 C   0  0  1  0  0  3  0  0  0  0  0  0
  184.8630  178.5880  139.7830 C   0  0  0  0  0  1  0  0  0  0  0  0
  183.9510  178.3800  140.9810 C   0  0  2  0  0  3  0  0  0  0  0  0
  182.5540  178.9070  140.6300 C   0  0  2  0  0  3  0  0  0  0  0  0
  181.4790  177.8700  140.7130 C   0  0  0  0  0  0  0  0  0  0  0  0
  179.7130  175.5680  140.7790 O   0  0  0  0  0  0  0  0  0  0  0  0
  180.6210  177.9600  141.6210 O   0  0  0  0  0  0  0  0  0  0  0  0
  181.4100  176.8220  139.7450 N   0  0  0  0  0  2  0  0  0  0  0  0
  180.5200  175.6990  139.8110 C   0  0  0  0  0  0  0  0  0  0  0  0
  180.5420  174.6760  138.7300 C   0  0  0  0  0  1  0  0  0  0  0  0
  182.5870  179.5060  139.2270 C   0  0  0  0  0  2  0  0  0  0  0  0
  181.3680  180.3940  138.9920 C   0  0  0  0  0  2  0  0  0  0  0  0
  181.6790  181.3670  137.9570 N   0  0  0  0  0  2  0  0  0  0  0  0
  180.7830  183.5280  137.3170 C   0  0  0  0  0  2  0  0  0  0  0  0
  180.6730  182.2060  137.3640 C   0  0  0  0  0  3  0  0  0  0  0  0
  189.2160  177.6640  142.6970 C   0  0  0  0  0  2  0  0  0  0  0  0
  188.6170  178.1850  140.4010 C   0  0  0  0  0  0  0  0  0  0  0  0
  188.3110  178.2420  141.6700 C   0  0  0  0  0  3  0  0  0  0  0  0
  188.8890  178.1490  139.1210 C   0  0  0  0  0  3  0  0  0  0  0  0
  190.1260  177.5040  138.5850 C   0  0  1  0  0  3  0  0  0  0  0  0
  191.2080  177.5050  139.5840 C   0  0  0  0  0  0  0  0  0  0  0  0
  192.1130  177.4820  140.3900 C   0  0  0  0  0  3  0  0  0  0  0  0
  190.5940  175.1920  138.3500 O   0  0  0  0  0  0  0  0  0  0  0  0
  189.8030  176.1020  138.1550 C   0  0  0  0  0  0  0  0  0  0  0  0
  188.4670  175.8060  137.5560 C   0  0  0  0  0  2  0  0  0  0  0  0
  189.6600  175.8330  135.4940 O   0  0  0  0  0  0  0  0  0  0  0  0
  188.5790  175.5780  136.0790 C   0  0  0  0  0  0  0  0  0  0  0  0
  187.4680  175.0930  135.3150 N   0  0  0  0  0  2  0  0  0  0  0  0
  186.2190  174.6300  135.9240 C   0  0  1  0  0  3  0  0  0  0  0  0
  185.0750  175.1680  135.2870 O   0  0  0  0  0  0  0  0  0  0  0  0
  184.7610  176.4210  135.8480 C   0  0  0  0  0  2  0  0  0  0  0  0
  182.4490  176.4770  136.4690 O   0  0  0  0  0  1  0  0  0  0  0  0
  183.7380  176.2630  136.9610 C   0  0  0  0  0  2  0  0  0  0  0  0
  186.1750  173.1060  136.1190 C   0  0  0  0  0  2  0  0  0  0  0  0
  185.1730  172.7090  137.0970 N   0  0  0  0  0  2  0  0  0  0  0  0
  182.9500  171.8040  137.2180 C   0  0  0  0  0  2  0  0  0  0  0  0
  184.1930  171.8870  136.4130 C   0  0  1  0  0  3  0  0  0  0  0  0
  183.0630  172.6690  136.1170 O   0  0  0  0  0  0  0  0  0  0  0  0
  2  1  2  0  0  0  0
  2  7  1  0  0  0  0
  3  2  1  0  0  0  0
  4  9  1  0  0  0  0
  4  8  1  1  0  0  0
  5  4  1  0  0  0  0
  5  9  1  0  0  0  0
  6  5  1  0  0  0  0
  6  3  2  0  0  0  0
  9  8  1  1  0  0  0
  9  1  1  0  0  0  0
 11 10  1  1  0  0  0
 11  4  1  0  0  0  0
 12 14  1  6  0  0  0
 12 11  1  0  0  0  0
 12 10  1  0  0  0  0
 14 13  1  6  0  0  0
 15 22  1  6  0  0  0
 15 16  1  0  0  0  0
 15 14  1  0  0  0  0
 16 18  2  0  0  0  0
 19 20  1  0  0  0  0
 19 16  1  0  0  0  0
 20 17  2  0  0  0  0
 21 20  1  0  0  0  0
 23 22  1  0  0  0  0
 24 23  1  0  0  0  0
 25 26  2  0  0  0  0
 26 24  1  0  0  0  0
 27  6  1  0  0  0  0
 28 29  2  0  0  0  0
 29 27  1  0  0  0  0
 30 28  2  0  0  0  0
 31 30  1  1  0  0  0
 31 32  1  0  0  0  0
 32 33  3  0  0  0  0
 35 34  2  0  0  0  0
 35 31  1  0  0  0  0
 36 35  1  0  0  0  0
 37 38  2  0  0  0  0
 38 36  1  0  0  0  0
 39 40  1  0  0  0  0
 39 38  1  0  0  0  0
 40 45  1  6  0  0  0
 41 42  1  0  0  0  0
 41 40  1  0  0  0  0
 42 44  1  0  0  0  0
 43 44  1  0  0  0  0
 45 46  1  0  0  0  0
 48 46  1  1  0  0  0
 48 47  1  0  0  0  0
 49 48  1  0  0  0  0
 49 47  1  0  0  0  0
M  END
>  <MODEL>
5

>  <REMARK>
 VINA RESULT:      -6.1      2.746      8.177
  Name = 
  22 active torsions:
  status: ('A' for Active; 'I' for Inactive)
    1  A    between atoms: C_3  and  C_36
    2  A    between atoms: C_5  and  O_37
    3  A    between atoms: C_5  and  N_39
    4  A    between atoms: C_5  and  C_46
    5  A    between atoms: C_7  and  C_8
    6  A    between atoms: C_7  and  O_37
    7  A    between atoms: C_10  and  C_41
    8  A    between atoms: N_12  and  C_18
    9  A    between atoms: N_12  and  C_20
   10  A    between atoms: C_15  and  C_24
   11  A    between atoms: C_17  and  C_23
   12  A    between atoms: C_18  and  C_44
   13  A    between atoms: C_22  and  C_26
   14  A    between atoms: C_23  and  C_28
   15  A    between atoms: C_23  and  C_43
   16  A    between atoms: C_26  and  C_43
   17  A    between atoms: C_27  and  C_47
   18  A    between atoms: N_29  and  C_42
   19  A    between atoms: N_29  and  C_46
   20  A    between atoms: C_31  and  C_36
   21  A    between atoms: C_41  and  C_44
   22  A    between atoms: C_41  and  C_47
                            x       y       z     vdW  Elec       q    Type
                         _______ _______ _______ _____ _____    ______ ____

>  <TORSDO>
F 22

$$$$
=
 OpenBabel10222419223D

 49 53  0  0  1  0  0  0  0  0999 V2000
  182.2190  178.6270  144.0730 N   0  0  0  0  0  0  0  0  0  0  0  0
  183.4720  178.8340  144.4580 C   0  0  0  0  0  0  0  0  0  0  0  0
  184.5640  178.9470  143.5040 N   0  0  0  0  0  0  0  0  0  0  0  0
  181.6470  179.2190  141.5550 C   0  0  2  0  0  0  0  0  0  0  0  0
  182.9510  178.6610  141.9170 N   0  0  0  0  0  0  0  0  0  0  0  0
  184.3010  178.8720  142.2380 C   0  0  0  0  0  0  0  0  0  0  0  0
  183.7480  179.0180  145.8370 N   0  0  0  0  0  1  0  0  0  0  0  0
  180.4100  179.7110  142.7440 S   0  0  0  0  0  0  0  0  0  0  0  0
  181.6990  178.3980  142.6980 C   0  0  2  0  0  0  0  0  0  0  0  0
  180.0940  179.2330  139.7430 O   0  0  0  0  0  0  0  0  0  0  0  0
  181.0200  178.4240  140.4220 C   0  0  1  0  0  3  0  0  0  0  0  0
  181.3320  179.0410  139.1070 C   0  0  1  0  0  3  0  0  0  0  0  0
  182.0320  176.7770  138.4130 C   0  0  0  0  0  1  0  0  0  0  0  0
  181.1940  177.9830  138.0160 C   0  0  2  0  0  3  0  0  0  0  0  0
  181.6410  178.4530  136.6260 C   0  0  2  0  0  3  0  0  0  0  0  0
  180.6620  179.3620  135.9530 C   0  0  0  0  0  0  0  0  0  0  0  0
  179.1040  181.3980  134.5940 O   0  0  0  0  0  0  0  0  0  0  0  0
  179.8110  178.8660  135.1790 O   0  0  0  0  0  0  0  0  0  0  0  0
  180.6720  180.7640  136.2240 N   0  0  0  0  0  2  0  0  0  0  0  0
  179.8850  181.7420  135.5310 C   0  0  0  0  0  0  0  0  0  0  0  0
  179.9830  183.1750  135.9160 C   0  0  0  0  0  1  0  0  0  0  0  0
  181.9020  177.2330  135.7490 C   0  0  0  0  0  2  0  0  0  0  0  0
  182.9450  177.5510  134.6810 C   0  0  0  0  0  2  0  0  0  0  0  0
  184.0300  176.5870  134.7710 N   0  0  0  0  0  2  0  0  0  0  0  0
  184.3310  174.2860  135.4810 C   0  0  0  0  0  2  0  0  0  0  0  0
  184.0580  175.5530  135.7720 C   0  0  0  0  0  3  0  0  0  0  0  0
  185.3520  179.0180  141.1900 C   0  0  0  0  0  2  0  0  0  0  0  0
  185.2890  178.5700  138.8040 C   0  0  0  0  0  0  0  0  0  0  0  0
  184.7170  179.1040  139.8490 C   0  0  0  0  0  3  0  0  0  0  0  0
  185.8320  178.0490  137.7320 C   0  0  0  0  0  3  0  0  0  0  0  0
  187.1270  177.3050  137.7740 C   0  0  1  0  0  3  0  0  0  0  0  0
  187.5470  176.8820  136.4280 C   0  0  0  0  0  0  0  0  0  0  0  0
  187.8640  176.5190  135.3150 C   0  0  0  0  0  3  0  0  0  0  0  0
  188.6030  179.1590  137.8230 O   0  0  0  0  0  0  0  0  0  0  0  0
  188.1740  178.1760  138.4070 C   0  0  0  0  0  0  0  0  0  0  0  0
  188.6370  177.8800  139.7960 C   0  0  0  0  0  2  0  0  0  0  0  0
  190.3180  176.6060  138.6880 O   0  0  0  0  0  0  0  0  0  0  0  0
  189.8120  176.9490  139.7850 C   0  0  0  0  0  0  0  0  0  0  0  0
  190.3580  176.4260  141.0020 N   0  0  0  0  0  2  0  0  0  0  0  0
  189.9330  176.8780  142.3280 C   0  0  1  0  0  3  0  0  0  0  0  0
  190.4630  178.1480  142.6630 O   0  0  0  0  0  0  0  0  0  0  0  0
  191.5710  177.9920  143.5190 C   0  0  0  0  0  2  0  0  0  0  0  0
  191.5510  176.6020  145.4690 O   0  0  0  0  0  1  0  0  0  0  0  0
  191.6160  176.5780  144.0740 C   0  0  0  0  0  2  0  0  0  0  0  0
  188.4180  176.7490  142.5500 C   0  0  0  0  0  2  0  0  0  0  0  0
  187.9150  177.7400  143.4900 N   0  0  0  0  0  2  0  0  0  0  0  0
  188.3330  177.6800  145.8560 C   0  0  0  0  0  2  0  0  0  0  0  0
  187.6020  177.0520  144.7280 C   0  0  1  0  0  3  0  0  0  0  0  0
  186.9780  177.9520  145.6090 O   0  0  0  0  0  0  0  0  0  0  0  0
  1  2  2  0  0  0  0
  2  7  1  0  0  0  0
  3  2  1  0  0  0  0
  4  5  1  0  0  0  0
  4  9  1  0  0  0  0
  4  8  1  1  0  0  0
  5  6  1  0  0  0  0
  5  9  1  0  0  0  0
  6  3  2  0  0  0  0
  9  8  1  1  0  0  0
  9  1  1  0  0  0  0
 11 10  1  1  0  0  0
 11  4  1  0  0  0  0
 12 14  1  6  0  0  0
 12 10  1  0  0  0  0
 12 11  1  0  0  0  0
 14 13  1  1  0  0  0
 15 22  1  6  0  0  0
 15 14  1  0  0  0  0
 16 19  1  0  0  0  0
 16 15  1  0  0  0  0
 17 20  2  0  0  0  0
 18 16  2  0  0  0  0
 20 21  1  0  0  0  0
 20 19  1  0  0  0  0
 23 24  1  0  0  0  0
 23 22  1  0  0  0  0
 24 26  1  0  0  0  0
 25 26  2  0  0  0  0
 27  6  1  0  0  0  0
 28 29  2  0  0  0  0
 29 27  1  0  0  0  0
 30 31  1  0  0  0  0
 30 28  2  0  0  0  0
 31 32  1  6  0  0  0
 31 35  1  0  0  0  0
 33 32  3  0  0  0  0
 34 35  2  0  0  0  0
 35 36  1  0  0  0  0
 37 38  2  0  0  0  0
 38 36  1  0  0  0  0
 38 39  1  0  0  0  0
 39 40  1  0  0  0  0
 40 45  1  6  0  0  0
 40 41  1  0  0  0  0
 41 42  1  0  0  0  0
 42 44  1  0  0  0  0
 44 43  1  0  0  0  0
 45 46  1  0  0  0  0
 48 46  1  6  0  0  0
 48 49  1  0  0  0  0
 48 47  1  0  0  0  0
 49 47  1  0  0  0  0
M  END
>  <MODEL>
6

>  <REMARK>
 VINA RESULT:      -5.9      2.958      9.868
  Name = 
  22 active torsions:
  status: ('A' for Active; 'I' for Inactive)
    1  A    between atoms: C_3  and  C_36
    2  A    between atoms: C_5  and  O_37
    3  A    between atoms: C_5  and  N_39
    4  A    between atoms: C_5  and  C_46
    5  A    between atoms: C_7  and  C_8
    6  A    between atoms: C_7  and  O_37
    7  A    between atoms: C_10  and  C_41
    8  A    between atoms: N_12  and  C_18
    9  A    between atoms: N_12  and  C_20
   10  A    between atoms: C_15  and  C_24
   11  A    between atoms: C_17  and  C_23
   12  A    between atoms: C_18  and  C_44
   13  A    between atoms: C_22  and  C_26
   14  A    between atoms: C_23  and  C_28
   15  A    between atoms: C_23  and  C_43
   16  A    between atoms: C_26  and  C_43
   17  A    between atoms: C_27  and  C_47
   18  A    between atoms: N_29  and  C_42
   19  A    between atoms: N_29  and  C_46
   20  A    between atoms: C_31  and  C_36
   21  A    between atoms: C_41  and  C_44
   22  A    between atoms: C_41  and  C_47
                            x       y       z     vdW  Elec       q    Type
                         _______ _______ _______ _____ _____    ______ ____

>  <TORSDO>
F 22

$$$$
=
 OpenBabel10222419223D

 49 53  0  0  1  0  0  0  0  0999 V2000
  190.4400  177.4480  145.7130 N   0  0  0  0  0  0  0  0  0  0  0  0
  189.3480  177.5330  146.4630 C   0  0  0  0  0  0  0  0  0  0  0  0
  188.0160  177.5820  145.8830 N   0  0  0  0  0  0  0  0  0  0  0  0
  190.1020  176.5750  143.2350 C   0  0  2  0  0  0  0  0  0  0  0  0
  189.0910  177.4160  143.8790 N   0  0  0  0  0  0  0  0  0  0  0  0
  187.8890  177.5120  144.5960 C   0  0  0  0  0  0  0  0  0  0  0  0
  189.4790  177.5070  147.8750 N   0  0  0  0  0  1  0  0  0  0  0  0
  191.5360  175.9220  144.0740 S   0  0  0  0  0  0  0  0  0  0  0  0
  190.5480  177.4670  144.2290 C   0  0  2  0  0  0  0  0  0  0  0  0
  190.8810  176.0940  141.0310 O   0  0  0  0  0  0  0  0  0  0  0  0
  190.4850  177.1420  141.8770 C   0  0  1  0  0  3  0  0  0  0  0  0
  189.5930  176.6110  140.8130 C   0  0  1  0  0  3  0  0  0  0  0  0
  188.5570  178.6360  139.8530 C   0  0  0  0  0  1  0  0  0  0  0  0
  189.6140  177.5680  139.6240 C   0  0  2  0  0  3  0  0  0  0  0  0
  189.3450  176.8940  138.2730 C   0  0  2  0  0  3  0  0  0  0  0  0
  190.4250  175.9510  137.8430 C   0  0  0  0  0  0  0  0  0  0  0  0
  192.7920  174.3890  137.2300 O   0  0  0  0  0  0  0  0  0  0  0  0
  190.1970  174.7200  137.8670 O   0  0  0  0  0  0  0  0  0  0  0  0
  191.6770  176.4520  137.3730 N   0  0  0  0  0  2  0  0  0  0  0  0
  192.8270  175.6470  137.0780 C   0  0  0  0  0  0  0  0  0  0  0  0
  194.0730  176.2930  136.5860 C   0  0  0  0  0  1  0  0  0  0  0  0
  189.1480  177.9710  137.2110 C   0  0  0  0  0  2  0  0  0  0  0  0
  188.5870  177.3660  135.9280 C   0  0  0  0  0  2  0  0  0  0  0  0
  187.5000  176.4600  136.2630 N   0  0  0  0  0  2  0  0  0  0  0  0
  185.7950  177.5440  134.9190 C   0  0  0  0  0  2  0  0  0  0  0  0
  186.2460  176.4700  135.5580 C   0  0  0  0  0  3  0  0  0  0  0  0
  186.5600  177.5150  143.9190 C   0  0  0  0  0  2  0  0  0  0  0  0
  185.5170  178.6410  142.0370 C   0  0  0  0  0  0  0  0  0  0  0  0
  186.5800  178.4610  142.7740 C   0  0  0  0  0  3  0  0  0  0  0  0
  184.4720  178.8470  141.2750 C   0  0  0  0  0  3  0  0  0  0  0  0
  183.1650  178.1620  141.5090 C   0  0  1  0  0  3  0  0  0  0  0  0
  182.4780  178.7050  142.6920 C   0  0  0  0  0  0  0  0  0  0  0  0
  181.9260  179.1300  143.6840 C   0  0  0  0  0  3  0  0  0  0  0  0
  181.7070  179.3470  140.0640 O   0  0  0  0  0  0  0  0  0  0  0  0
  182.3080  178.3070  140.2840 C   0  0  0  0  0  0  0  0  0  0  0  0
  182.2550  177.1970  139.2870 C   0  0  0  0  0  2  0  0  0  0  0  0
  184.2430  177.8270  138.1350 O   0  0  0  0  0  0  0  0  0  0  0  0
  183.0220  177.5490  138.0480 C   0  0  0  0  0  0  0  0  0  0  0  0
  182.3830  177.5960  136.7670 N   0  0  0  0  0  2  0  0  0  0  0  0
  181.0070  177.1490  136.5420 C   0  0  1  0  0  3  0  0  0  0  0  0
  180.3040  177.9890  135.6440 O   0  0  0  0  0  0  0  0  0  0  0  0
  180.8220  179.2970  135.7110 C   0  0  0  0  0  2  0  0  0  0  0  0
  181.1660  181.0290  137.3290 O   0  0  0  0  0  1  0  0  0  0  0  0
  180.2860  180.0180  136.9370 C   0  0  0  0  0  2  0  0  0  0  0  0
  180.9090  175.6510  136.2110 C   0  0  0  0  0  2  0  0  0  0  0  0
  180.4850  174.8640  137.3600 N   0  0  0  0  0  2  0  0  0  0  0  0
  180.4300  172.4890  137.7250 C   0  0  0  0  0  2  0  0  0  0  0  0
  179.9670  173.6040  136.8620 C   0  0  1  0  0  3  0  0  0  0  0  0
  179.1380  173.0280  137.8410 O   0  0  0  0  0  0  0  0  0  0  0  0
  1  2  2  0  0  0  0
  2  7  1  0  0  0  0
  3  2  1  0  0  0  0
  4  5  1  0  0  0  0
  4  8  1  1  0  0  0
  4  9  1  0  0  0  0
  5  9  1  0  0  0  0
  5  6  1  0  0  0  0
  6  3  2  0  0  0  0
  9  8  1  1  0  0  0
  9  1  1  0  0  0  0
 11 10  1  6  0  0  0
 11  4  1  0  0  0  0
 12 14  1  6  0  0  0
 12 10  1  0  0  0  0
 12 11  1  0  0  0  0
 14 13  1  1  0  0  0
 15 22  1  6  0  0  0
 15 14  1  0  0  0  0
 16 18  2  0  0  0  0
 16 15  1  0  0  0  0
 19 16  1  0  0  0  0
 20 17  2  0  0  0  0
 20 19  1  0  0  0  0
 21 20  1  0  0  0  0
 23 24  1  0  0  0  0
 23 22  1  0  0  0  0
 25 26  2  0  0  0  0
 26 24  1  0  0  0  0
 27  6  1  0  0  0  0
 28 29  2  0  0  0  0
 29 27  1  0  0  0  0
 30 28  2  0  0  0  0
 31 30  1  6  0  0  0
 31 32  1  0  0  0  0
 32 33  3  0  0  0  0
 34 35  2  0  0  0  0
 35 31  1  0  0  0  0
 36 35  1  0  0  0  0
 38 37  2  0  0  0  0
 38 36  1  0  0  0  0
 39 38  1  0  0  0  0
 40 45  1  6  0  0  0
 40 39  1  0  0  0  0
 41 42  1  0  0  0  0
 41 40  1  0  0  0  0
 42 44  1  0  0  0  0
 44 43  1  0  0  0  0
 45 46  1  0  0  0  0
 47 49  1  0  0  0  0
 48 46  1  1  0  0  0
 48 47  1  0  0  0  0
 48 49  1  0  0  0  0
M  END
>  <MODEL>
7

>  <REMARK>
 VINA RESULT:      -5.6      2.019      3.744
  Name = 
  22 active torsions:
  status: ('A' for Active; 'I' for Inactive)
    1  A    between atoms: C_3  and  C_36
    2  A    between atoms: C_5  and  O_37
    3  A    between atoms: C_5  and  N_39
    4  A    between atoms: C_5  and  C_46
    5  A    between atoms: C_7  and  C_8
    6  A    between atoms: C_7  and  O_37
    7  A    between atoms: C_10  and  C_41
    8  A    between atoms: N_12  and  C_18
    9  A    between atoms: N_12  and  C_20
   10  A    between atoms: C_15  and  C_24
   11  A    between atoms: C_17  and  C_23
   12  A    between atoms: C_18  and  C_44
   13  A    between atoms: C_22  and  C_26
   14  A    between atoms: C_23  and  C_28
   15  A    between atoms: C_23  and  C_43
   16  A    between atoms: C_26  and  C_43
   17  A    between atoms: C_27  and  C_47
   18  A    between atoms: N_29  and  C_42
   19  A    between atoms: N_29  and  C_46
   20  A    between atoms: C_31  and  C_36
   21  A    between atoms: C_41  and  C_44
   22  A    between atoms: C_41  and  C_47
                            x       y       z     vdW  Elec       q    Type
                         _______ _______ _______ _____ _____    ______ ____

>  <TORSDO>
F 22

$$$$
=
 OpenBabel10222419223D

 49 53  0  0  1  0  0  0  0  0999 V2000
  190.2490  177.5780  145.8390 N   0  0  0  0  0  0  0  0  0  0  0  0
  189.2070  177.4920  146.6560 C   0  0  0  0  0  0  0  0  0  0  0  0
  187.8380  177.5500  146.1700 N   0  0  0  0  0  0  0  0  0  0  0  0
  189.7880  177.0560  143.2830 C   0  0  2  0  0  0  0  0  0  0  0  0
  188.7830  177.7370  144.1030 N   0  0  0  0  0  0  0  0  0  0  0  0
  187.6290  177.6610  144.8960 C   0  0  0  0  0  0  0  0  0  0  0  0
  189.4320  177.2700  148.0390 N   0  0  0  0  0  1  0  0  0  0  0  0
  191.3030  176.3690  143.9300 S   0  0  0  0  0  0  0  0  0  0  0  0
  190.2560  177.8180  144.3700 C   0  0  2  0  0  0  0  0  0  0  0  0
  191.0950  177.2190  141.2940 O   0  0  0  0  0  0  0  0  0  0  0  0
  190.0520  177.8340  142.0050 C   0  0  1  0  0  3  0  0  0  0  0  0
  189.7960  176.9880  140.8090 C   0  0  1  0  0  3  0  0  0  0  0  0
  188.0770  178.3570  139.6830 C   0  0  0  0  0  1  0  0  0  0  0  0
  189.5230  177.8920  139.6100 C   0  0  2  0  0  3  0  0  0  0  0  0
  189.7530  177.2180  138.2520 C   0  0  2  0  0  3  0  0  0  0  0  0
  188.4990  176.7210  137.6050 C   0  0  0  0  0  0  0  0  0  0  0  0
  186.0320  175.4890  136.7000 O   0  0  0  0  0  0  0  0  0  0  0  0
  187.7320  177.5460  137.0590 O   0  0  0  0  0  0  0  0  0  0  0  0
  188.2060  175.3230  137.5750 N   0  0  0  0  0  2  0  0  0  0  0  0
  186.9730  174.7500  137.1180 C   0  0  0  0  0  0  0  0  0  0  0  0
  186.7970  173.2730  137.1310 C   0  0  0  0  0  1  0  0  0  0  0  0
  190.7350  176.0640  138.4290 C   0  0  0  0  0  2  0  0  0  0  0  0
  192.0560  176.3690  137.7300 C   0  0  0  0  0  2  0  0  0  0  0  0
  192.7910  175.1290  137.5350 N   0  0  0  0  0  0  0  0  0  0  0  0
  194.7760  173.7880  137.9140 C   0  0  0  0  0  1  0  0  0  0  0  0
  194.1250  174.9390  138.0360 C   0  0  0  0  0  3  0  0  0  0  0  0
  186.2590  177.6870  144.3070 C   0  0  0  0  0  2  0  0  0  0  0  0
  185.2500  178.2340  142.1670 C   0  0  0  0  0  0  0  0  0  0  0  0
  186.3360  178.0590  142.8710 C   0  0  0  0  0  3  0  0  0  0  0  0
  184.1840  178.4170  141.4280 C   0  0  0  0  0  3  0  0  0  0  0  0
  182.8000  178.2880  141.9770 C   0  0  1  0  0  3  0  0  0  0  0  0
  182.7050  178.8500  143.3340 C   0  0  0  0  0  0  0  0  0  0  0  0
  182.6280  179.2840  144.4630 C   0  0  0  0  0  3  0  0  0  0  0  0
  182.2010  179.3610  139.9500 O   0  0  0  0  0  0  0  0  0  0  0  0
  181.8380  178.9730  141.0500 C   0  0  0  0  0  0  0  0  0  0  0  0
  180.4040  179.1100  141.4470 C   0  0  0  0  0  2  0  0  0  0  0  0
  179.6820  177.4740  143.0220 O   0  0  0  0  0  0  0  0  0  0  0  0
  179.8180  177.7790  141.8110 C   0  0  0  0  0  0  0  0  0  0  0  0
  179.4280  176.8380  140.8050 N   0  0  0  0  0  2  0  0  0  0  0  0
  179.4100  177.1560  139.3750 C   0  0  1  0  0  3  0  0  0  0  0  0
  178.9400  178.4670  139.1180 O   0  0  0  0  0  0  0  0  0  0  0  0
  178.9310  178.7060  137.7300 C   0  0  0  0  0  2  0  0  0  0  0  0
  179.6050  180.8270  138.6130 O   0  0  0  0  0  1  0  0  0  0  0  0
  179.2210  180.1700  137.4430 C   0  0  0  0  0  2  0  0  0  0  0  0
  180.7300  176.8090  138.6670 C   0  0  0  0  0  2  0  0  0  0  0  0
  181.2270  175.4950  139.0510 N   0  0  0  0  0  2  0  0  0  0  0  0
  180.8480  173.6590  137.5480 C   0  0  0  0  0  2  0  0  0  0  0  0
  181.6990  174.8360  137.8480 C   0  0  1  0  0  3  0  0  0  0  0  0
  180.6880  174.8800  136.8720 O   0  0  0  0  0  0  0  0  0  0  0  0
  1  2  2  0  0  0  0
  2  7  1  0  0  0  0
  3  2  1  0  0  0  0
  4  8  1  1  0  0  0
  4  5  1  0  0  0  0
  4  9  1  0  0  0  0
  5  9  1  0  0  0  0
  5  6  1  0  0  0  0
  6  3  2  0  0  0  0
  9  8  1  1  0  0  0
  9  1  1  0  0  0  0
 11 10  1  1  0  0  0
 11  4  1  0  0  0  0
 12 14  1  6  0  0  0
 12 10  1  0  0  0  0
 12 11  1  0  0  0  0
 14 13  1  6  0  0  0
 15 22  1  1  0  0  0
 15 14  1  0  0  0  0
 16 15  1  0  0  0  0
 17 20  2  0  0  0  0
 18 16  2  0  0  0  0
 19 16  1  0  0  0  0
 20 21  1  0  0  0  0
 20 19  1  0  0  0  0
 23 22  1  0  0  0  0
 24 23  1  0  0  0  0
 24 26  2  0  0  0  0
 25 26  1  0  0  0  0
 27  6  1  0  0  0  0
 28 29  2  0  0  0  0
 29 27  1  0  0  0  0
 30 28  2  0  0  0  0
 31 30  1  6  0  0  0
 31 32  1  0  0  0  0
 32 33  3  0  0  0  0
 34 35  2  0  0  0  0
 35 36  1  0  0  0  0
 35 31  1  0  0  0  0
 36 38  1  0  0  0  0
 38 37  2  0  0  0  0
 39 38  1  0  0  0  0
 40 45  1  1  0  0  0
 40 39  1  0  0  0  0
 41 40  1  0  0  0  0
 42 41  1  0  0  0  0
 44 42  1  0  0  0  0
 44 43  1  0  0  0  0
 45 46  1  0  0  0  0
 47 48  1  0  0  0  0
 48 46  1  1  0  0  0
 49 47  1  0  0  0  0
 49 48  1  0  0  0  0
M  END
>  <MODEL>
8

>  <REMARK>
 VINA RESULT:      -5.4      2.348      4.465
  Name = 
  22 active torsions:
  status: ('A' for Active; 'I' for Inactive)
    1  A    between atoms: C_3  and  C_36
    2  A    between atoms: C_5  and  O_37
    3  A    between atoms: C_5  and  N_39
    4  A    between atoms: C_5  and  C_46
    5  A    between atoms: C_7  and  C_8
    6  A    between atoms: C_7  and  O_37
    7  A    between atoms: C_10  and  C_41
    8  A    between atoms: N_12  and  C_18
    9  A    between atoms: N_12  and  C_20
   10  A    between atoms: C_15  and  C_24
   11  A    between atoms: C_17  and  C_23
   12  A    between atoms: C_18  and  C_44
   13  A    between atoms: C_22  and  C_26
   14  A    between atoms: C_23  and  C_28
   15  A    between atoms: C_23  and  C_43
   16  A    between atoms: C_26  and  C_43
   17  A    between atoms: C_27  and  C_47
   18  A    between atoms: N_29  and  C_42
   19  A    between atoms: N_29  and  C_46
   20  A    between atoms: C_31  and  C_36
   21  A    between atoms: C_41  and  C_44
   22  A    between atoms: C_41  and  C_47
                            x       y       z     vdW  Elec       q    Type
                         _______ _______ _______ _____ _____    ______ ____

>  <TORSDO>
F 22

$$$$
=
 OpenBabel10222419223D

 49 53  0  0  1  0  0  0  0  0999 V2000
  185.8280  177.5040  137.2180 N   0  0  0  0  0  0  0  0  0  0  0  0
  186.8330  177.9740  137.9450 C   0  0  0  0  0  0  0  0  0  0  0  0
  186.6210  178.6280  139.2260 N   0  0  0  0  0  0  0  0  0  0  0  0
  183.5500  177.0700  138.5000 C   0  0  2  0  0  0  0  0  0  0  0  0
  184.4110  178.1990  138.8600 N   0  0  0  0  0  0  0  0  0  0  0  0
  185.4140  178.7280  139.6860 C   0  0  0  0  0  0  0  0  0  0  0  0
  188.1630  177.7750  137.4920 N   0  0  0  0  0  1  0  0  0  0  0  0
  184.0050  175.8060  137.3230 S   0  0  0  0  0  0  0  0  0  0  0  0
  184.3670  177.6040  137.4850 C   0  0  2  0  0  0  0  0  0  0  0  0
  181.4230  177.5290  139.4790 O   0  0  0  0  0  0  0  0  0  0  0  0
  182.1240  177.5390  138.2620 C   0  0  1  0  0  3  0  0  0  0  0  0
  181.8450  178.7880  139.0180 C   0  0  1  0  0  3  0  0  0  0  0  0
  181.0120  179.7280  136.8920 C   0  0  0  0  0  1  0  0  0  0  0  0
  180.6770  179.5160  138.3600 C   0  0  2  0  0  3  0  0  0  0  0  0
  180.3520  180.8770  138.9890 C   0  0  2  0  0  3  0  0  0  0  0  0
  181.1360  182.0120  138.4090 C   0  0  0  0  0  0  0  0  0  0  0  0
  182.3050  184.4620  137.3840 O   0  0  0  0  0  0  0  0  0  0  0  0
  182.3610  182.0900  138.6570 O   0  0  0  0  0  0  0  0  0  0  0  0
  180.5040  182.9640  137.5520 N   0  0  0  0  0  2  0  0  0  0  0  0
  181.1160  184.1650  137.0630 C   0  0  0  0  0  0  0  0  0  0  0  0
  180.3480  185.0720  136.1680 C   0  0  0  0  0  1  0  0  0  0  0  0
  180.5930  180.7990  140.4930 C   0  0  0  0  0  2  0  0  0  0  0  0
  179.5060  179.9690  141.1700 C   0  0  0  0  0  2  0  0  0  0  0  0
  179.6990  180.0130  142.6110 N   0  0  0  0  0  2  0  0  0  0  0  0
  180.0070  178.2520  144.2510 C   0  0  0  0  0  2  0  0  0  0  0  0
  180.5030  179.0460  143.3090 C   0  0  0  0  0  3  0  0  0  0  0  0
  185.1080  179.3460  141.0080 C   0  0  0  0  0  2  0  0  0  0  0  0
  184.8580  178.1360  143.0990 C   0  0  0  0  0  0  0  0  0  0  0  0
  184.4330  178.3530  141.8840 C   0  0  0  0  0  3  0  0  0  0  0  0
  185.2550  177.8890  144.3220 C   0  0  0  0  0  3  0  0  0  0  0  0
  186.4100  178.6030  144.9460 C   0  0  1  0  0  3  0  0  0  0  0  0
  186.2750  178.6650  146.4110 C   0  0  0  0  0  0  0  0  0  0  0  0
  186.1800  178.6880  147.6190 C   0  0  0  0  0  3  0  0  0  0  0  0
  188.4040  177.4080  145.4100 O   0  0  0  0  0  0  0  0  0  0  0  0
  187.6850  177.9080  144.5600 C   0  0  0  0  0  0  0  0  0  0  0  0
  188.0330  177.7590  143.1150 C   0  0  0  0  0  2  0  0  0  0  0  0
  187.9380  175.3810  143.2230 O   0  0  0  0  0  0  0  0  0  0  0  0
  188.5730  176.3900  142.8310 C   0  0  0  0  0  0  0  0  0  0  0  0
  189.8130  176.2100  142.1370 N   0  0  0  0  0  2  0  0  0  0  0  0
  190.5500  177.3120  141.5150 C   0  0  1  0  0  3  0  0  0  0  0  0
  191.7680  177.5930  142.1810 O   0  0  0  0  0  0  0  0  0  0  0  0
  191.6020  177.4270  143.5690 C   0  0  0  0  0  2  0  0  0  0  0  0
  190.9140  179.6550  144.1150 O   0  0  0  0  0  1  0  0  0  0  0  0
  191.9330  178.7180  144.3000 C   0  0  0  0  0  2  0  0  0  0  0  0
  190.6840  177.1600  139.9910 C   0  0  0  0  0  2  0  0  0  0  0  0
  192.0760  177.1290  139.5650 N   0  0  0  0  0  2  0  0  0  0  0  0
  192.7710  176.4570  137.3650 C   0  0  0  0  0  2  0  0  0  0  0  0
  192.2360  175.9980  138.6710 C   0  0  1  0  0  3  0  0  0  0  0  0
  193.5950  175.8650  138.3370 O   0  0  0  0  0  0  0  0  0  0  0  0
  1  2  2  0  0  0  0
  2  3  1  0  0  0  0
  3  6  2  0  0  0  0
  4  8  1  1  0  0  0
  4  5  1  0  0  0  0
  5  6  1  0  0  0  0
  6 27  1  0  0  0  0
  7  2  1  0  0  0  0
  8  9  1  0  0  0  0
  9  1  1  6  0  0  0
  9  4  1  0  0  0  0
  9  5  1  0  0  0  0
 11  4  1  0  0  0  0
 11 12  1  0  0  0  0
 11 10  1  1  0  0  0
 12 14  1  6  0  0  0
 12 10  1  0  0  0  0
 14 13  1  6  0  0  0
 14 15  1  0  0  0  0
 15 22  1  1  0  0  0
 16 18  2  0  0  0  0
 16 15  1  0  0  0  0
 19 16  1  0  0  0  0
 20 17  2  0  0  0  0
 20 19  1  0  0  0  0
 21 20  1  0  0  0  0
 22 23  1  0  0  0  0
 23 24  1  0  0  0  0
 24 26  1  0  0  0  0
 26 25  2  0  0  0  0
 27 29  1  0  0  0  0
 28 30  2  0  0  0  0
 29 28  2  0  0  0  0
 31 30  1  6  0  0  0
 31 32  1  0  0  0  0
 32 33  3  0  0  0  0
 35 31  1  0  0  0  0
 35 34  2  0  0  0  0
 36 35  1  0  0  0  0
 38 36  1  0  0  0  0
 38 37  2  0  0  0  0
 39 38  1  0  0  0  0
 40 45  1  6  0  0  0
 40 39  1  0  0  0  0
 40 41  1  0  0  0  0
 41 42  1  0  0  0  0
 42 44  1  0  0  0  0
 43 44  1  0  0  0  0
 46 45  1  0  0  0  0
 47 49  1  0  0  0  0
 47 48  1  0  0  0  0
 48 46  1  1  0  0  0
 49 48  1  0  0  0  0
M  END
>  <MODEL>
9

>  <REMARK>
 VINA RESULT:      -5.4      2.702     10.460
  Name = 
  22 active torsions:
  status: ('A' for Active; 'I' for Inactive)
    1  A    between atoms: C_3  and  C_36
    2  A    between atoms: C_5  and  O_37
    3  A    between atoms: C_5  and  N_39
    4  A    between atoms: C_5  and  C_46
    5  A    between atoms: C_7  and  C_8
    6  A    between atoms: C_7  and  O_37
    7  A    between atoms: C_10  and  C_41
    8  A    between atoms: N_12  and  C_18
    9  A    between atoms: N_12  and  C_20
   10  A    between atoms: C_15  and  C_24
   11  A    between atoms: C_17  and  C_23
   12  A    between atoms: C_18  and  C_44
   13  A    between atoms: C_22  and  C_26
   14  A    between atoms: C_23  and  C_28
   15  A    between atoms: C_23  and  C_43
   16  A    between atoms: C_26  and  C_43
   17  A    between atoms: C_27  and  C_47
   18  A    between atoms: N_29  and  C_42
   19  A    between atoms: N_29  and  C_46
   20  A    between atoms: C_31  and  C_36
   21  A    between atoms: C_41  and  C_44
   22  A    between atoms: C_41  and  C_47
                            x       y       z     vdW  Elec       q    Type
                         _______ _______ _______ _____ _____    ______ ____

>  <TORSDO>
F 22

$$$$
