=
 OpenBabel10222420283D

 31 35  0  0  1  0  0  0  0  0999 V2000
  187.1950  176.6090  143.3330 O   0  0  0  0  0  1  0  0  0  0  0  0
  188.0230  177.6080  143.8540 C   0  0  2  0  0  3  0  0  0  0  0  0
  188.3460  177.5160  148.3820 C   0  0  0  0  0  3  0  0  0  0  0  0
  189.5020  177.2380  143.7020 C   0  0  1  0  0  3  0  0  0  0  0  0
  188.8730  177.1440  145.9800 C   0  0  0  0  0  0  0  0  0  0  0  0
  188.9360  176.8140  147.4180 C   0  0  0  0  0  3  0  0  0  0  0  0
  189.9410  176.6850  145.0510 C   0  0  2  0  0  3  0  0  0  0  0  0
  186.5410  178.1170  145.9530 C   0  0  0  0  0  0  0  0  0  0  0  0
  187.6120  178.7840  148.1140 C   0  0  0  0  0  2  0  0  0  0  0  0
  191.2150  177.2720  145.4270 N   0  0  0  0  0  1  0  0  0  0  0  0
  187.8310  177.6820  145.3340 C   0  0  0  0  0  0  0  0  0  0  0  0
  186.4460  178.5620  147.2090 C   0  0  0  0  0  3  0  0  0  0  0  0
  185.3270  178.0480  145.1990 N   0  0  0  0  0  2  0  0  0  0  0  0
  185.2620  180.3060  144.6040 O   0  0  0  0  0  0  0  0  0  0  0  0
  184.7820  179.1480  144.4610 C   0  0  0  0  0  0  0  0  0  0  0  0
  183.5800  178.3900  140.1680 C   0  0  0  0  0  2  0  0  0  0  0  0
  183.6470  178.9340  143.5520 C   0  0  0  0  0  0  0  0  0  0  0  0
  184.7240  178.5940  141.0330 C   0  0  0  0  0  2  0  0  0  0  0  0
  181.2060  178.7230  143.0970 C   0  0  0  0  0  3  0  0  0  0  0  0
  182.6900  178.5270  141.3510 C   0  0  0  0  0  0  0  0  0  0  0  0
  183.8010  178.7250  142.1940 C   0  0  0  0  0  0  0  0  0  0  0  0
  181.4050  178.5190  141.7510 N   0  0  0  0  0  0  0  0  0  0  0  0
  182.2990  178.9300  144.0020 C   0  0  0  0  0  3  0  0  0  0  0  0
  189.8300  176.3190  142.5140 C   0  0  2  0  0  3  0  0  0  0  0  0
  190.4290  175.1370  142.9640 O   0  0  0  0  0  1  0  0  0  0  0  0
  191.3500  178.1400  142.0680 O   0  0  0  0  0  1  0  0  0  0  0  0
  190.7440  177.0170  141.4960 C   0  0  2  0  0  3  0  0  0  0  0  0
  190.8690  177.5780  138.9060 C   0  0  0  0  0  2  0  0  0  0  0  0
  188.7710  178.2100  140.2390 C   0  0  0  0  0  1  0  0  0  0  0  0
  190.0590  177.4170  140.1770 C   0  0  0  0  0  0  0  0  0  0  0  0
  190.0320  176.3270  139.1250 C   0  0  0  0  0  2  0  0  0  0  0  0
  2  1  1  1  0  0  0
  2 11  1  0  0  0  0
  4 24  1  6  0  0  0
  4  2  1  0  0  0  0
  4  7  1  0  0  0  0
  5  6  1  0  0  0  0
  6  3  2  0  0  0  0
  7 10  1  1  0  0  0
  7  5  1  0  0  0  0
  8 12  2  0  0  0  0
  9  3  1  0  0  0  0
 11  8  1  0  0  0  0
 11  5  2  0  0  0  0
 12  9  1  0  0  0  0
 13  8  1  0  0  0  0
 15 14  2  0  0  0  0
 15 13  1  0  0  0  0
 16 18  1  0  0  0  0
 16 20  1  0  0  0  0
 17 23  1  0  0  0  0
 17 15  1  0  0  0  0
 18 21  1  0  0  0  0
 19 23  2  0  0  0  0
 20 22  2  0  0  0  0
 20 21  1  0  0  0  0
 21 17  2  0  0  0  0
 22 19  1  0  0  0  0
 24 25  1  1  0  0  0
 27 26  1  1  0  0  0
 27 24  1  0  0  0  0
 28 31  1  0  0  0  0
 28 30  1  0  0  0  0
 30 29  1  0  0  0  0
 30 27  1  0  0  0  0
 31 30  1  0  0  0  0
M  END
>  <MODEL>
1

>  <REMARK>
 VINA RESULT:      -9.4      0.000      0.000
  Name = 
  5 active torsions:
  status: ('A' for Active; 'I' for Inactive)
    1  A    between atoms: C_3  and  C_20
    2  A    between atoms: C_4  and  C_12
    3  A    between atoms: C_4  and  C_22
    4  A    between atoms: N_15  and  C_21
    5  A    between atoms: C_22  and  C_25
                            x       y       z     vdW  Elec       q    Type
                         _______ _______ _______ _____ _____    ______ ____

>  <TORSDO>
F 5

$$$$
=
 OpenBabel10222420283D

 31 35  0  0  1  0  0  0  0  0999 V2000
  187.5100  176.6290  143.0480 O   0  0  0  0  0  1  0  0  0  0  0  0
  188.2070  177.6640  143.6800 C   0  0  2  0  0  3  0  0  0  0  0  0
  187.9760  177.5060  148.2110 C   0  0  0  0  0  3  0  0  0  0  0  0
  189.7130  177.3830  143.7080 C   0  0  1  0  0  3  0  0  0  0  0  0
  188.8150  177.2090  145.8890 C   0  0  0  0  0  0  0  0  0  0  0  0
  188.7200  176.8580  147.3200 C   0  0  0  0  0  3  0  0  0  0  0  0
  190.0140  176.8300  145.0940 C   0  0  2  0  0  3  0  0  0  0  0  0
  186.4510  178.0470  145.5840 C   0  0  0  0  0  0  0  0  0  0  0  0
  187.2060  178.7350  147.8690 C   0  0  0  0  0  2  0  0  0  0  0  0
  191.1960  177.4830  145.6320 N   0  0  0  0  0  1  0  0  0  0  0  0
  187.8310  177.6990  145.1250 C   0  0  0  0  0  0  0  0  0  0  0  0
  186.1760  178.4620  146.8240 C   0  0  0  0  0  3  0  0  0  0  0  0
  185.3450  177.9220  144.6860 N   0  0  0  0  0  2  0  0  0  0  0  0
  185.1680  180.1950  144.1750 O   0  0  0  0  0  0  0  0  0  0  0  0
  184.8040  179.0130  143.9290 C   0  0  0  0  0  0  0  0  0  0  0  0
  180.3820  178.7360  143.0270 C   0  0  0  0  0  2  0  0  0  0  0  0
  183.8070  178.7570  142.8800 C   0  0  0  0  0  0  0  0  0  0  0  0
  181.3350  178.9980  144.0850 C   0  0  0  0  0  2  0  0  0  0  0  0
  183.1790  178.1960  140.5340 C   0  0  0  0  0  3  0  0  0  0  0  0
  181.5160  178.5350  142.0860 C   0  0  0  0  0  0  0  0  0  0  0  0
  182.4440  178.7900  143.1140 C   0  0  0  0  0  0  0  0  0  0  0  0
  181.8320  178.2410  140.8110 N   0  0  0  0  0  0  0  0  0  0  0  0
  184.1690  178.4480  141.5400 C   0  0  0  0  0  3  0  0  0  0  0  0
  190.2380  176.5060  142.5590 C   0  0  2  0  0  3  0  0  0  0  0  0
  190.4790  175.2040  143.0110 O   0  0  0  0  0  1  0  0  0  0  0  0
  191.7760  178.3640  142.4610 O   0  0  0  0  0  1  0  0  0  0  0  0
  191.5170  177.0920  141.9420 C   0  0  2  0  0  3  0  0  0  0  0  0
  190.5030  176.3770  139.5960 C   0  0  0  0  0  2  0  0  0  0  0  0
  192.8300  177.4500  139.6970 C   0  0  0  0  0  1  0  0  0  0  0  0
  191.5260  177.1520  140.4040 C   0  0  0  0  0  0  0  0  0  0  0  0
  190.3430  177.8760  139.7930 C   0  0  0  0  0  2  0  0  0  0  0  0
  2  1  1  6  0  0  0
  2  4  1  0  0  0  0
  2 11  1  0  0  0  0
  4 24  1  6  0  0  0
  4  7  1  0  0  0  0
  5  6  1  0  0  0  0
  6  3  2  0  0  0  0
  7 10  1  1  0  0  0
  7  5  1  0  0  0  0
  8 12  2  0  0  0  0
  9  3  1  0  0  0  0
 11  8  1  0  0  0  0
 11  5  2  0  0  0  0
 12  9  1  0  0  0  0
 13  8  1  0  0  0  0
 15 14  2  0  0  0  0
 15 13  1  0  0  0  0
 16 18  1  0  0  0  0
 17 21  1  0  0  0  0
 17 15  1  0  0  0  0
 19 22  2  0  0  0  0
 19 23  1  0  0  0  0
 20 16  1  0  0  0  0
 20 21  2  0  0  0  0
 21 18  1  0  0  0  0
 22 20  1  0  0  0  0
 23 17  2  0  0  0  0
 24 25  1  1  0  0  0
 27 26  1  1  0  0  0
 27 24  1  0  0  0  0
 28 31  1  0  0  0  0
 28 30  1  0  0  0  0
 29 30  1  0  0  0  0
 30 27  1  0  0  0  0
 31 30  1  0  0  0  0
M  END
>  <MODEL>
2

>  <REMARK>
 VINA RESULT:      -9.1      0.737      1.745
  Name = 
  5 active torsions:
  status: ('A' for Active; 'I' for Inactive)
    1  A    between atoms: C_3  and  C_20
    2  A    between atoms: C_4  and  C_12
    3  A    between atoms: C_4  and  C_22
    4  A    between atoms: N_15  and  C_21
    5  A    between atoms: C_22  and  C_25
                            x       y       z     vdW  Elec       q    Type
                         _______ _______ _______ _____ _____    ______ ____

>  <TORSDO>
F 5

$$$$
=
 OpenBabel10222420283D

 31 35  0  0  1  0  0  0  0  0999 V2000
  188.8300  178.6890  141.8200 O   0  0  0  0  0  1  0  0  0  0  0  0
  188.7560  177.6030  140.9420 C   0  0  2  0  0  3  0  0  0  0  0  0
  187.3110  178.7250  136.7880 C   0  0  0  0  0  3  0  0  0  0  0  0
  190.1420  177.2310  140.4020 C   0  0  1  0  0  3  0  0  0  0  0  0
  188.8300  178.1850  138.6810 C   0  0  0  0  0  0  0  0  0  0  0  0
  188.4930  178.8170  137.3890 C   0  0  0  0  0  3  0  0  0  0  0  0
  190.2430  177.8680  139.0230 C   0  0  2  0  0  3  0  0  0  0  0  0
  186.5500  178.3660  139.7560 C   0  0  0  0  0  0  0  0  0  0  0  0
  186.2020  177.8880  137.3240 C   0  0  0  0  0  2  0  0  0  0  0  0
  190.7790  176.9010  138.0790 N   0  0  0  0  0  1  0  0  0  0  0  0
  188.0020  178.0110  139.7190 C   0  0  0  0  0  0  0  0  0  0  0  0
  185.7670  178.3540  138.6740 C   0  0  0  0  0  3  0  0  0  0  0  0
  185.9420  178.7610  140.9880 N   0  0  0  0  0  2  0  0  0  0  0  0
  184.0180  177.4550  140.7590 O   0  0  0  0  0  0  0  0  0  0  0  0
  184.7220  178.2020  141.4920 C   0  0  0  0  0  0  0  0  0  0  0  0
  185.9730  178.3750  145.8340 C   0  0  0  0  0  2  0  0  0  0  0  0
  184.2780  178.5150  142.8580 C   0  0  0  0  0  0  0  0  0  0  0  0
  186.4480  178.0600  144.5030 C   0  0  0  0  0  2  0  0  0  0  0  0
  182.5450  179.2510  144.4910 C   0  0  0  0  0  3  0  0  0  0  0  0
  184.6440  178.7080  145.2570 C   0  0  0  0  0  0  0  0  0  0  0  0
  185.1050  178.4030  143.9610 C   0  0  0  0  0  0  0  0  0  0  0  0
  183.4010  179.1260  145.5610 N   0  0  0  0  0  0  0  0  0  0  0  0
  182.9580  178.9550  143.1500 C   0  0  0  0  0  3  0  0  0  0  0  0
  191.3200  177.5670  141.3320 C   0  0  2  0  0  3  0  0  0  0  0  0
  192.5320  177.4450  140.6440 O   0  0  0  0  0  1  0  0  0  0  0  0
  190.3830  175.6450  142.4530 O   0  0  0  0  0  1  0  0  0  0  0  0
  191.3290  176.6670  142.5760 C   0  0  2  0  0  3  0  0  0  0  0  0
  190.0110  176.9850  144.8570 C   0  0  0  0  0  2  0  0  0  0  0  0
  191.5670  178.8460  144.0220 C   0  0  0  0  0  1  0  0  0  0  0  0
  191.1190  177.4040  143.9110 C   0  0  0  0  0  0  0  0  0  0  0  0
  191.4510  176.5860  145.1430 C   0  0  0  0  0  2  0  0  0  0  0  0
  2  1  1  1  0  0  0
  3  9  1  0  0  0  0
  3  6  2  0  0  0  0
  4  2  1  0  0  0  0
  4 24  1  1  0  0  0
  5  7  1  0  0  0  0
  5 11  2  0  0  0  0
  6  5  1  0  0  0  0
  7 10  1  6  0  0  0
  7  4  1  0  0  0  0
  8 13  1  0  0  0  0
  9 12  1  0  0  0  0
 11  8  1  0  0  0  0
 11  2  1  0  0  0  0
 12  8  2  0  0  0  0
 13 15  1  0  0  0  0
 14 15  2  0  0  0  0
 15 17  1  0  0  0  0
 17 23  2  0  0  0  0
 17 21  1  0  0  0  0
 18 16  1  0  0  0  0
 19 22  2  0  0  0  0
 20 22  1  0  0  0  0
 20 16  1  0  0  0  0
 21 18  1  0  0  0  0
 21 20  2  0  0  0  0
 23 19  1  0  0  0  0
 24 25  1  6  0  0  0
 24 27  1  0  0  0  0
 27 26  1  6  0  0  0
 27 30  1  0  0  0  0
 28 31  1  0  0  0  0
 30 29  1  0  0  0  0
 30 28  1  0  0  0  0
 30 31  1  0  0  0  0
M  END
>  <MODEL>
3

>  <REMARK>
 VINA RESULT:      -8.9      2.422      5.615
  Name = 
  5 active torsions:
  status: ('A' for Active; 'I' for Inactive)
    1  A    between atoms: C_3  and  C_20
    2  A    between atoms: C_4  and  C_12
    3  A    between atoms: C_4  and  C_22
    4  A    between atoms: N_15  and  C_21
    5  A    between atoms: C_22  and  C_25
                            x       y       z     vdW  Elec       q    Type
                         _______ _______ _______ _____ _____    ______ ____

>  <TORSDO>
F 5

$$$$
=
 OpenBabel10222420283D

 31 35  0  0  1  0  0  0  0  0999 V2000
  188.1740  178.6870  141.7630 O   0  0  0  0  0  1  0  0  0  0  0  0
  188.3540  177.5780  140.9300 C   0  0  2  0  0  3  0  0  0  0  0  0
  188.1760  178.5840  136.5070 C   0  0  0  0  0  3  0  0  0  0  0  0
  189.8360  177.1980  140.8240 C   0  0  1  0  0  3  0  0  0  0  0  0
  189.0810  178.1010  138.7720 C   0  0  0  0  0  0  0  0  0  0  0  0
  189.1340  178.6970  137.4230 C   0  0  0  0  0  3  0  0  0  0  0  0
  190.3330  177.7990  139.5160 C   0  0  2  0  0  3  0  0  0  0  0  0
  186.5880  178.2990  139.1370 C   0  0  0  0  0  0  0  0  0  0  0  0
  186.9560  177.7560  136.7220 C   0  0  0  0  0  2  0  0  0  0  0  0
  191.1160  176.8100  138.7940 N   0  0  0  0  0  1  0  0  0  0  0  0
  187.9880  177.9510  139.5310 C   0  0  0  0  0  0  0  0  0  0  0  0
  186.1510  178.2560  137.8750 C   0  0  0  0  0  3  0  0  0  0  0  0
  185.6500  178.7240  140.1300 N   0  0  0  0  0  2  0  0  0  0  0  0
  183.8480  177.4650  139.3400 O   0  0  0  0  0  0  0  0  0  0  0  0
  184.3210  178.2020  140.2480 C   0  0  0  0  0  0  0  0  0  0  0  0
  184.3610  178.8910  144.7170 C   0  0  0  0  0  2  0  0  0  0  0  0
  183.4980  178.5420  141.4170 C   0  0  0  0  0  0  0  0  0  0  0  0
  185.2040  178.5570  143.5880 C   0  0  0  0  0  2  0  0  0  0  0  0
  181.3170  179.1140  142.4780 C   0  0  0  0  0  3  0  0  0  0  0  0
  183.1960  178.9670  143.7960 C   0  0  0  0  0  0  0  0  0  0  0  0
  184.0150  178.6430  142.6960 C   0  0  0  0  0  0  0  0  0  0  0  0
  181.8730  179.2050  143.7340 N   0  0  0  0  0  0  0  0  0  0  0  0
  182.1010  178.7890  141.3230 C   0  0  0  0  0  3  0  0  0  0  0  0
  190.6950  177.5630  142.0450 C   0  0  2  0  0  3  0  0  0  0  0  0
  192.0400  177.6800  141.6760 O   0  0  0  0  0  1  0  0  0  0  0  0
  189.9680  175.3510  142.6810 O   0  0  0  0  0  1  0  0  0  0  0  0
  190.5480  176.5260  143.1690 C   0  0  2  0  0  3  0  0  0  0  0  0
  190.4680  177.2150  145.7290 C   0  0  0  0  0  2  0  0  0  0  0  0
  188.2820  176.7220  144.4810 C   0  0  0  0  0  1  0  0  0  0  0  0
  189.7660  177.0130  144.4010 C   0  0  0  0  0  0  0  0  0  0  0  0
  190.1180  178.4130  144.8600 C   0  0  0  0  0  2  0  0  0  0  0  0
  2  1  1  1  0  0  0
  3  9  1  0  0  0  0
  3  6  2  0  0  0  0
  4  2  1  0  0  0  0
  4 24  1  1  0  0  0
  5  7  1  0  0  0  0
  5 11  2  0  0  0  0
  6  5  1  0  0  0  0
  7 10  1  6  0  0  0
  7  4  1  0  0  0  0
  8 11  1  0  0  0  0
  8 13  1  0  0  0  0
  9 12  1  0  0  0  0
 11  2  1  0  0  0  0
 12  8  2  0  0  0  0
 13 15  1  0  0  0  0
 14 15  2  0  0  0  0
 15 17  1  0  0  0  0
 17 21  1  0  0  0  0
 18 16  1  0  0  0  0
 19 22  2  0  0  0  0
 20 16  1  0  0  0  0
 21 18  1  0  0  0  0
 21 20  2  0  0  0  0
 22 20  1  0  0  0  0
 23 17  2  0  0  0  0
 23 19  1  0  0  0  0
 24 25  1  6  0  0  0
 24 27  1  0  0  0  0
 27 26  1  6  0  0  0
 27 30  1  0  0  0  0
 30 29  1  0  0  0  0
 30 31  1  0  0  0  0
 30 28  1  0  0  0  0
 31 28  1  0  0  0  0
M  END
>  <MODEL>
4

>  <REMARK>
 VINA RESULT:      -8.6      2.397      5.630
  Name = 
  5 active torsions:
  status: ('A' for Active; 'I' for Inactive)
    1  A    between atoms: C_3  and  C_20
    2  A    between atoms: C_4  and  C_12
    3  A    between atoms: C_4  and  C_22
    4  A    between atoms: N_15  and  C_21
    5  A    between atoms: C_22  and  C_25
                            x       y       z     vdW  Elec       q    Type
                         _______ _______ _______ _____ _____    ______ ____

>  <TORSDO>
F 5

$$$$
=
 OpenBabel10222420283D

 31 35  0  0  1  0  0  0  0  0999 V2000
  188.3070  178.7720  144.4770 O   0  0  0  0  0  1  0  0  0  0  0  0
  188.1840  177.6170  145.2560 C   0  0  2  0  0  3  0  0  0  0  0  0
  191.7990  176.8010  147.8780 C   0  0  0  0  0  3  0  0  0  0  0  0
  187.3010  177.8680  146.4840 C   0  0  1  0  0  3  0  0  0  0  0  0
  189.5520  177.5800  147.1490 C   0  0  0  0  0  0  0  0  0  0  0  0
  190.7560  177.6170  148.0030 C   0  0  0  0  0  3  0  0  0  0  0  0
  188.2540  178.1060  147.6480 C   0  0  2  0  0  3  0  0  0  0  0  0
  190.6760  176.8560  145.0050 C   0  0  0  0  0  0  0  0  0  0  0  0
  191.8280  175.6840  146.8920 C   0  0  0  0  0  2  0  0  0  0  0  0
  187.8140  177.3390  148.8010 N   0  0  0  0  0  1  0  0  0  0  0  0
  189.5140  177.2780  145.8450 C   0  0  0  0  0  0  0  0  0  0  0  0
  191.7260  176.1870  145.4910 C   0  0  0  0  0  3  0  0  0  0  0  0
  190.7090  177.1840  143.6130 N   0  0  0  0  0  2  0  0  0  0  0  0
  190.1400  175.0570  142.8310 O   0  0  0  0  0  0  0  0  0  0  0  0
  190.3350  176.2750  142.5690 C   0  0  0  0  0  0  0  0  0  0  0  0
  187.6540  178.4750  139.6680 C   0  0  0  0  0  2  0  0  0  0  0  0
  190.2020  176.7580  141.1870 C   0  0  0  0  0  0  0  0  0  0  0  0
  187.7510  178.0190  141.0380 C   0  0  0  0  0  2  0  0  0  0  0  0
  191.0550  177.0240  138.8610 C   0  0  0  0  0  3  0  0  0  0  0  0
  188.9940  177.8890  139.4020 C   0  0  0  0  0  0  0  0  0  0  0  0
  189.0910  177.4450  140.7350 C   0  0  0  0  0  0  0  0  0  0  0  0
  189.9310  177.7050  138.4530 N   0  0  0  0  0  0  0  0  0  0  0  0
  191.2080  176.5490  140.2050 C   0  0  0  0  0  3  0  0  0  0  0  0
  186.2370  178.9640  146.3140 C   0  0  2  0  0  3  0  0  0  0  0  0
  186.1660  179.7560  147.4650 O   0  0  0  0  0  1  0  0  0  0  0  0
  184.9010  176.9700  146.0570 O   0  0  0  0  0  1  0  0  0  0  0  0
  184.8570  178.3670  146.0020 C   0  0  2  0  0  3  0  0  0  0  0  0
  184.9950  179.7640  143.7510 C   0  0  0  0  0  2  0  0  0  0  0  0
  182.7400  178.8080  144.5120 C   0  0  0  0  0  1  0  0  0  0  0  0
  184.2470  178.8090  144.6600 C   0  0  0  0  0  0  0  0  0  0  0  0
  184.9620  178.2760  143.4350 C   0  0  0  0  0  2  0  0  0  0  0  0
  2  1  1  6  0  0  0
  2 11  1  0  0  0  0
  2  4  1  0  0  0  0
  3  6  2  0  0  0  0
  4 24  1  6  0  0  0
  4  7  1  0  0  0  0
  5  7  1  0  0  0  0
  5  6  1  0  0  0  0
  7 10  1  1  0  0  0
  8 12  2  0  0  0  0
  8 11  1  0  0  0  0
  9  3  1  0  0  0  0
 11  5  2  0  0  0  0
 12  9  1  0  0  0  0
 13  8  1  0  0  0  0
 15 14  2  0  0  0  0
 15 13  1  0  0  0  0
 16 18  1  0  0  0  0
 17 15  1  0  0  0  0
 19 23  1  0  0  0  0
 20 16  1  0  0  0  0
 20 21  2  0  0  0  0
 21 18  1  0  0  0  0
 21 17  1  0  0  0  0
 22 19  2  0  0  0  0
 22 20  1  0  0  0  0
 23 17  2  0  0  0  0
 24 25  1  1  0  0  0
 27 26  1  6  0  0  0
 27 24  1  0  0  0  0
 28 30  1  0  0  0  0
 29 30  1  0  0  0  0
 30 27  1  0  0  0  0
 31 28  1  0  0  0  0
 31 30  1  0  0  0  0
M  END
>  <MODEL>
5

>  <REMARK>
 VINA RESULT:      -8.2      2.472      6.174
  Name = 
  5 active torsions:
  status: ('A' for Active; 'I' for Inactive)
    1  A    between atoms: C_3  and  C_20
    2  A    between atoms: C_4  and  C_12
    3  A    between atoms: C_4  and  C_22
    4  A    between atoms: N_15  and  C_21
    5  A    between atoms: C_22  and  C_25
                            x       y       z     vdW  Elec       q    Type
                         _______ _______ _______ _____ _____    ______ ____

>  <TORSDO>
F 5

$$$$
=
 OpenBabel10222420283D

 31 35  0  0  1  0  0  0  0  0999 V2000
  188.7300  178.7460  141.6240 O   0  0  0  0  0  1  0  0  0  0  0  0
  188.6880  177.6450  140.7610 C   0  0  2  0  0  3  0  0  0  0  0  0
  187.3990  178.6970  136.5380 C   0  0  0  0  0  3  0  0  0  0  0  0
  190.0930  177.2640  140.2800 C   0  0  1  0  0  3  0  0  0  0  0  0
  188.8460  178.1900  138.4950 C   0  0  0  0  0  0  0  0  0  0  0  0
  188.5580  178.8000  137.1820 C   0  0  0  0  0  3  0  0  0  0  0  0
  190.2450  177.8780  138.8940 C   0  0  2  0  0  3  0  0  0  0  0  0
  186.5280  178.3880  139.4810 C   0  0  0  0  0  0  0  0  0  0  0  0
  186.2700  177.8690  137.0470 C   0  0  0  0  0  2  0  0  0  0  0  0
  190.8160  176.8960  137.9880 N   0  0  0  0  0  1  0  0  0  0  0  0
  187.9810  178.0330  139.5050 C   0  0  0  0  0  0  0  0  0  0  0  0
  185.7860  178.3580  138.3710 C   0  0  0  0  0  3  0  0  0  0  0  0
  185.8740  178.8040  140.6830 N   0  0  0  0  0  2  0  0  0  0  0  0
  183.9580  177.4970  140.4010 O   0  0  0  0  0  0  0  0  0  0  0  0
  184.6350  178.2540  141.1500 C   0  0  0  0  0  0  0  0  0  0  0  0
  180.9410  179.0610  143.6300 C   0  0  0  0  0  2  0  0  0  0  0  0
  184.1410  178.5900  142.4920 C   0  0  0  0  0  0  0  0  0  0  0  0
  181.3910  178.7260  142.2950 C   0  0  0  0  0  2  0  0  0  0  0  0
  184.5070  179.1220  144.9000 C   0  0  0  0  0  3  0  0  0  0  0  0
  182.3590  179.0710  144.0790 C   0  0  0  0  0  0  0  0  0  0  0  0
  182.7970  178.7440  142.7810 C   0  0  0  0  0  0  0  0  0  0  0  0
  183.1600  179.2650  145.1430 N   0  0  0  0  0  0  0  0  0  0  0  0
  185.0110  178.7890  143.5990 C   0  0  0  0  0  3  0  0  0  0  0  0
  191.2350  177.6150  141.2470 C   0  0  2  0  0  3  0  0  0  0  0  0
  192.4700  177.5260  140.5950 O   0  0  0  0  0  1  0  0  0  0  0  0
  190.2590  175.7030  142.3510 O   0  0  0  0  0  1  0  0  0  0  0  0
  191.2270  176.7040  142.4830 C   0  0  2  0  0  3  0  0  0  0  0  0
  189.9600  176.9880  144.7970 C   0  0  0  0  0  2  0  0  0  0  0  0
  191.4530  178.8840  143.9290 C   0  0  0  0  0  1  0  0  0  0  0  0
  191.0350  177.4320  143.8240 C   0  0  0  0  0  0  0  0  0  0  0  0
  191.4150  176.6190  145.0450 C   0  0  0  0  0  2  0  0  0  0  0  0
  2  1  1  1  0  0  0
  3  9  1  0  0  0  0
  3  6  2  0  0  0  0
  4  2  1  0  0  0  0
  4 24  1  1  0  0  0
  5  7  1  0  0  0  0
  5 11  2  0  0  0  0
  6  5  1  0  0  0  0
  7 10  1  6  0  0  0
  7  4  1  0  0  0  0
  8 11  1  0  0  0  0
  8 13  1  0  0  0  0
  9 12  1  0  0  0  0
 11  2  1  0  0  0  0
 12  8  2  0  0  0  0
 13 15  1  0  0  0  0
 14 15  2  0  0  0  0
 15 17  1  0  0  0  0
 16 20  1  0  0  0  0
 17 21  2  0  0  0  0
 17 23  1  0  0  0  0
 18 21  1  0  0  0  0
 18 16  1  0  0  0  0
 19 22  1  0  0  0  0
 20 22  2  0  0  0  0
 21 20  1  0  0  0  0
 23 19  2  0  0  0  0
 24 25  1  6  0  0  0
 24 27  1  0  0  0  0
 27 26  1  6  0  0  0
 27 30  1  0  0  0  0
 28 31  1  0  0  0  0
 30 29  1  0  0  0  0
 30 28  1  0  0  0  0
 30 31  1  0  0  0  0
M  END
>  <MODEL>
6

>  <REMARK>
 VINA RESULT:      -8.2      2.533      5.660
  Name = 
  5 active torsions:
  status: ('A' for Active; 'I' for Inactive)
    1  A    between atoms: C_3  and  C_20
    2  A    between atoms: C_4  and  C_12
    3  A    between atoms: C_4  and  C_22
    4  A    between atoms: N_15  and  C_21
    5  A    between atoms: C_22  and  C_25
                            x       y       z     vdW  Elec       q    Type
                         _______ _______ _______ _____ _____    ______ ____

>  <TORSDO>
F 5

$$$$
=
 OpenBabel10222420283D

 31 35  0  0  1  0  0  0  0  0999 V2000
  186.4670  179.0460  141.6170 O   0  0  0  0  0  1  0  0  0  0  0  0
  185.7360  178.0720  142.3060 C   0  0  2  0  0  3  0  0  0  0  0  0
  185.6830  178.6890  146.8030 C   0  0  0  0  0  3  0  0  0  0  0  0
  184.2300  178.3390  142.2120 C   0  0  1  0  0  3  0  0  0  0  0  0
  184.9890  178.7410  144.4160 C   0  0  0  0  0  0  0  0  0  0  0  0
  184.9930  179.2370  145.8070 C   0  0  0  0  0  3  0  0  0  0  0  0
  183.8400  179.0260  143.5150 C   0  0  2  0  0  3  0  0  0  0  0  0
  187.3710  177.9020  144.3440 C   0  0  0  0  0  0  0  0  0  0  0  0
  186.4780  177.4400  146.6360 C   0  0  0  0  0  2  0  0  0  0  0  0
  182.6300  178.4180  144.0420 N   0  0  0  0  0  1  0  0  0  0  0  0
  186.0210  178.1870  143.7680 C   0  0  0  0  0  0  0  0  0  0  0  0
  187.5700  177.6170  145.6340 C   0  0  0  0  0  3  0  0  0  0  0  0
  188.5300  177.9460  143.5080 N   0  0  0  0  0  2  0  0  0  0  0  0
  188.5120  175.6860  142.9180 O   0  0  0  0  0  0  0  0  0  0  0  0
  189.0020  176.8340  142.7370 C   0  0  0  0  0  0  0  0  0  0  0  0
  189.9340  177.2730  138.3340 C   0  0  0  0  0  2  0  0  0  0  0  0
  190.0740  177.0260  141.7500 C   0  0  0  0  0  0  0  0  0  0  0  0
  188.8510  177.0880  139.2760 C   0  0  0  0  0  2  0  0  0  0  0  0
  192.4730  177.3190  141.1400 C   0  0  0  0  0  3  0  0  0  0  0  0
  190.8910  177.2850  139.4710 C   0  0  0  0  0  0  0  0  0  0  0  0
  189.8390  177.1060  140.3900 C   0  0  0  0  0  0  0  0  0  0  0  0
  192.1930  177.3940  139.7950 N   0  0  0  0  0  0  0  0  0  0  0  0
  191.4420  177.1380  142.1210 C   0  0  0  0  0  3  0  0  0  0  0  0
  183.7740  179.0900  140.9510 C   0  0  2  0  0  3  0  0  0  0  0  0
  182.3770  179.1600  140.9040 O   0  0  0  0  0  1  0  0  0  0  0  0
  184.8640  179.3770  138.8160 O   0  0  0  0  0  1  0  0  0  0  0  0
  184.3090  178.4230  139.6740 C   0  0  2  0  0  3  0  0  0  0  0  0
  182.4110  178.2030  137.8330 C   0  0  0  0  0  2  0  0  0  0  0  0
  182.7080  176.3440  139.5750 C   0  0  0  0  0  1  0  0  0  0  0  0
  183.2800  177.5760  138.9060 C   0  0  0  0  0  0  0  0  0  0  0  0
  183.6100  177.3530  137.4440 C   0  0  0  0  0  2  0  0  0  0  0  0
  2  1  1  6  0  0  0
  2 11  1  0  0  0  0
  4 24  1  6  0  0  0
  4  2  1  0  0  0  0
  4  7  1  0  0  0  0
  5  6  1  0  0  0  0
  6  3  2  0  0  0  0
  7 10  1  1  0  0  0
  7  5  1  0  0  0  0
  8 12  2  0  0  0  0
  9  3  1  0  0  0  0
 11  8  1  0  0  0  0
 11  5  2  0  0  0  0
 12  9  1  0  0  0  0
 13  8  1  0  0  0  0
 15 14  2  0  0  0  0
 15 13  1  0  0  0  0
 16 18  1  0  0  0  0
 16 20  1  0  0  0  0
 17 23  1  0  0  0  0
 17 15  1  0  0  0  0
 18 21  1  0  0  0  0
 19 23  2  0  0  0  0
 20 22  2  0  0  0  0
 20 21  1  0  0  0  0
 21 17  2  0  0  0  0
 22 19  1  0  0  0  0
 24 25  1  6  0  0  0
 27 26  1  6  0  0  0
 27 24  1  0  0  0  0
 28 30  1  0  0  0  0
 30 29  1  0  0  0  0
 30 27  1  0  0  0  0
 31 28  1  0  0  0  0
 31 30  1  0  0  0  0
M  END
>  <MODEL>
7

>  <REMARK>
 VINA RESULT:      -8.0      2.308      6.558
  Name = 
  5 active torsions:
  status: ('A' for Active; 'I' for Inactive)
    1  A    between atoms: C_3  and  C_20
    2  A    between atoms: C_4  and  C_12
    3  A    between atoms: C_4  and  C_22
    4  A    between atoms: N_15  and  C_21
    5  A    between atoms: C_22  and  C_25
                            x       y       z     vdW  Elec       q    Type
                         _______ _______ _______ _____ _____    ______ ____

>  <TORSDO>
F 5

$$$$
=
 OpenBabel10222420283D

 31 35  0  0  1  0  0  0  0  0999 V2000
  187.6570  176.7330  143.0280 O   0  0  0  0  0  1  0  0  0  0  0  0
  187.4990  177.9840  143.6320 C   0  0  2  0  0  3  0  0  0  0  0  0
  183.2720  178.7780  145.0840 C   0  0  0  0  0  3  0  0  0  0  0  0
  188.0340  177.9780  145.0690 C   0  0  1  0  0  3  0  0  0  0  0  0
  185.6730  178.1320  145.0810 C   0  0  0  0  0  0  0  0  0  0  0  0
  184.2890  178.0880  145.5930 C   0  0  0  0  0  3  0  0  0  0  0  0
  186.8190  177.8000  145.9700 C   0  0  2  0  0  3  0  0  0  0  0  0
  185.1260  178.4650  142.6370 C   0  0  0  0  0  0  0  0  0  0  0  0
  183.4430  179.7520  143.9700 C   0  0  0  0  0  2  0  0  0  0  0  0
  186.8870  178.7460  147.0710 N   0  0  0  0  0  1  0  0  0  0  0  0
  186.0430  178.2670  143.8010 C   0  0  0  0  0  0  0  0  0  0  0  0
  183.9470  179.0870  142.7330 C   0  0  0  0  0  3  0  0  0  0  0  0
  185.4860  177.9610  141.3490 N   0  0  0  0  0  2  0  0  0  0  0  0
  184.8100  179.8390  140.1360 O   0  0  0  0  0  0  0  0  0  0  0  0
  185.4020  178.7260  140.1390 C   0  0  0  0  0  0  0  0  0  0  0  0
  189.2520  177.6020  138.0510 C   0  0  0  0  0  2  0  0  0  0  0  0
  185.9840  178.2020  138.8960 C   0  0  0  0  0  0  0  0  0  0  0  0
  188.7150  178.1180  139.2930 C   0  0  0  0  0  2  0  0  0  0  0  0
  185.7810  177.3420  136.5650 C   0  0  0  0  0  3  0  0  0  0  0  0
  187.8680  177.5180  137.5140 C   0  0  0  0  0  0  0  0  0  0  0  0
  187.3440  178.0190  138.7210 C   0  0  0  0  0  0  0  0  0  0  0  0
  187.1400  177.1750  136.4350 N   0  0  0  0  0  0  0  0  0  0  0  0
  185.1910  177.8470  137.7710 C   0  0  0  0  0  3  0  0  0  0  0  0
  189.1670  176.9760  145.3430 C   0  0  2  0  0  3  0  0  0  0  0  0
  189.1960  176.6330  146.6990 O   0  0  0  0  0  1  0  0  0  0  0  0
  190.4280  178.8950  144.5990 O   0  0  0  0  0  1  0  0  0  0  0  0
  190.5310  177.5360  144.9130 C   0  0  2  0  0  3  0  0  0  0  0  0
  191.8580  175.4400  143.9740 C   0  0  0  0  0  2  0  0  0  0  0  0
  191.7350  177.5900  142.5810 C   0  0  0  0  0  1  0  0  0  0  0  0
  191.2010  176.7870  143.7480 C   0  0  0  0  0  0  0  0  0  0  0  0
  190.4880  175.5210  143.3180 C   0  0  0  0  0  2  0  0  0  0  0  0
  2  1  1  1  0  0  0
  2 11  1  0  0  0  0
  2  4  1  0  0  0  0
  3  6  2  0  0  0  0
  4 24  1  6  0  0  0
  4  7  1  0  0  0  0
  5  6  1  0  0  0  0
  5  7  1  0  0  0  0
  7 10  1  1  0  0  0
  8 12  2  0  0  0  0
  8 11  1  0  0  0  0
  9  3  1  0  0  0  0
 11  5  2  0  0  0  0
 12  9  1  0  0  0  0
 13  8  1  0  0  0  0
 14 15  2  0  0  0  0
 15 13  1  0  0  0  0
 16 18  1  0  0  0  0
 17 15  1  0  0  0  0
 19 23  1  0  0  0  0
 20 16  1  0  0  0  0
 20 21  2  0  0  0  0
 21 17  1  0  0  0  0
 21 18  1  0  0  0  0
 22 19  2  0  0  0  0
 22 20  1  0  0  0  0
 23 17  2  0  0  0  0
 24 25  1  1  0  0  0
 27 26  1  6  0  0  0
 27 24  1  0  0  0  0
 29 30  1  0  0  0  0
 30 28  1  0  0  0  0
 30 27  1  0  0  0  0
 31 30  1  0  0  0  0
 31 28  1  0  0  0  0
M  END
>  <MODEL>
8

>  <REMARK>
 VINA RESULT:      -8.0      2.598      4.775
  Name = 
  5 active torsions:
  status: ('A' for Active; 'I' for Inactive)
    1  A    between atoms: C_3  and  C_20
    2  A    between atoms: C_4  and  C_12
    3  A    between atoms: C_4  and  C_22
    4  A    between atoms: N_15  and  C_21
    5  A    between atoms: C_22  and  C_25
                            x       y       z     vdW  Elec       q    Type
                         _______ _______ _______ _____ _____    ______ ____

>  <TORSDO>
F 5

$$$$
=
 OpenBabel10222420283D

 31 35  0  0  1  0  0  0  0  0999 V2000
  184.8850  179.1520  140.8670 O   0  0  0  0  0  1  0  0  0  0  0  0
  184.3600  178.1470  141.6870 C   0  0  2  0  0  3  0  0  0  0  0  0
  185.1010  178.8470  146.1110 C   0  0  0  0  0  3  0  0  0  0  0  0
  182.8480  178.3170  141.8730 C   0  0  1  0  0  3  0  0  0  0  0  0
  183.9750  178.8090  143.8940 C   0  0  0  0  0  0  0  0  0  0  0  0
  184.2040  179.3300  145.2570 C   0  0  0  0  0  3  0  0  0  0  0  0
  182.6630  179.0030  143.2200 C   0  0  2  0  0  3  0  0  0  0  0  0
  186.3520  178.1200  143.3860 C   0  0  0  0  0  0  0  0  0  0  0  0
  185.9310  177.6480  145.8080 C   0  0  0  0  0  2  0  0  0  0  0  0
  181.6130  178.3310  143.9680 N   0  0  0  0  0  1  0  0  0  0  0  0
  184.9030  178.3090  143.0690 C   0  0  0  0  0  0  0  0  0  0  0  0
  186.8050  177.8730  144.6190 C   0  0  0  0  0  3  0  0  0  0  0  0
  187.3310  178.2220  142.3480 N   0  0  0  0  0  2  0  0  0  0  0  0
  188.4440  176.2280  142.8450 O   0  0  0  0  0  0  0  0  0  0  0  0
  188.2930  177.2010  142.0560 C   0  0  0  0  0  0  0  0  0  0  0  0
  188.2740  178.1160  137.6270 C   0  0  0  0  0  2  0  0  0  0  0  0
  189.1230  177.2970  140.8460 C   0  0  0  0  0  0  0  0  0  0  0  0
  187.4250  178.0350  138.7980 C   0  0  0  0  0  2  0  0  0  0  0  0
  191.3090  177.1270  139.6620 C   0  0  0  0  0  3  0  0  0  0  0  0
  189.4350  177.7260  138.4700 C   0  0  0  0  0  0  0  0  0  0  0  0
  188.6110  177.6470  139.6100 C   0  0  0  0  0  0  0  0  0  0  0  0
  190.7590  177.4800  138.4510 N   0  0  0  0  0  0  0  0  0  0  0  0
  190.5200  177.0320  140.8550 C   0  0  0  0  0  3  0  0  0  0  0  0
  182.1180  179.0130  140.7130 C   0  0  2  0  0  3  0  0  0  0  0  0
  181.2100  179.9570  141.2050 O   0  0  0  0  0  1  0  0  0  0  0  0
  180.6710  177.0850  140.5930 O   0  0  0  0  0  1  0  0  0  0  0  0
  181.3900  178.0000  139.8170 C   0  0  2  0  0  3  0  0  0  0  0  0
  182.6830  175.8000  139.0920 C   0  0  0  0  0  2  0  0  0  0  0  0
  183.2520  178.0330  137.9670 C   0  0  0  0  0  1  0  0  0  0  0  0
  182.2920  177.2410  138.8300 C   0  0  0  0  0  0  0  0  0  0  0  0
  181.6020  176.1240  138.0730 C   0  0  0  0  0  2  0  0  0  0  0  0
  2  1  1  6  0  0  0
  2  4  1  0  0  0  0
  2 11  1  0  0  0  0
  4 24  1  6  0  0  0
  4  7  1  0  0  0  0
  5  6  1  0  0  0  0
  6  3  2  0  0  0  0
  7  5  1  0  0  0  0
  7 10  1  1  0  0  0
  8 12  2  0  0  0  0
  9  3  1  0  0  0  0
 11  8  1  0  0  0  0
 11  5  2  0  0  0  0
 12  9  1  0  0  0  0
 13  8  1  0  0  0  0
 15 13  1  0  0  0  0
 15 14  2  0  0  0  0
 16 20  1  0  0  0  0
 16 18  1  0  0  0  0
 17 23  1  0  0  0  0
 17 15  1  0  0  0  0
 18 21  1  0  0  0  0
 19 23  2  0  0  0  0
 20 21  1  0  0  0  0
 21 17  2  0  0  0  0
 22 20  2  0  0  0  0
 22 19  1  0  0  0  0
 24 25  1  1  0  0  0
 27 26  1  1  0  0  0
 27 24  1  0  0  0  0
 29 30  1  0  0  0  0
 30 28  1  0  0  0  0
 30 27  1  0  0  0  0
 31 30  1  0  0  0  0
 31 28  1  0  0  0  0
M  END
>  <MODEL>
9

>  <REMARK>
 VINA RESULT:      -7.8      2.723      7.001
  Name = 
  5 active torsions:
  status: ('A' for Active; 'I' for Inactive)
    1  A    between atoms: C_3  and  C_20
    2  A    between atoms: C_4  and  C_12
    3  A    between atoms: C_4  and  C_22
    4  A    between atoms: N_15  and  C_21
    5  A    between atoms: C_22  and  C_25
                            x       y       z     vdW  Elec       q    Type
                         _______ _______ _______ _____ _____    ______ ____

>  <TORSDO>
F 5

$$$$
