=
 OpenBabel10222416303D

 32 35  0  0  1  0  0  0  0  0999 V2000
  187.9050  176.9790  144.1170 N   0  0  0  0  0  0  0  0  0  0  0  0
  189.2600  177.9780  148.3180 C   0  0  0  0  0  3  0  0  0  0  0  0
  190.2590  176.3560  144.2410 C   0  0  0  0  0  0  0  0  0  0  0  0
  191.3140  176.3130  144.9290 O   0  0  0  0  0  0  0  0  0  0  0  0
  187.0300  178.2870  147.3490 C   0  0  0  0  0  3  0  0  0  0  0  0
  186.9700  177.5250  144.9310 C   0  0  0  0  0  0  0  0  0  0  0  0
  189.7420  177.4530  147.1050 C   0  0  0  0  0  3  0  0  0  0  0  0
  187.5430  177.7670  146.1620 C   0  0  0  0  0  0  0  0  0  0  0  0
  187.9140  178.3910  148.4400 C   0  0  0  0  0  3  0  0  0  0  0  0
  188.8440  177.3630  146.0410 C   0  0  0  0  0  0  0  0  0  0  0  0
  189.0460  176.8890  144.7940 N   0  0  0  0  0  0  0  0  0  0  0  0
  185.5390  177.7390  144.5500 C   0  0  1  0  0  3  0  0  0  0  0  0
  185.1740  179.2030  144.6980 C   0  0  0  0  0  2  0  0  0  0  0  0
  185.4630  178.6350  143.3260 C   0  0  2  0  0  3  0  0  0  0  0  0
  184.1550  178.3720  142.6050 C   0  0  0  0  0  2  0  0  0  0  0  0
  184.3400  178.4860  141.1000 C   0  0  0  0  0  2  0  0  0  0  0  0
  182.9990  178.4860  140.3740 C   0  0  2  0  0  3  0  0  0  0  0  0
  182.9400  179.5570  139.2860 C   0  0  0  0  0  2  0  0  0  0  0  0
  184.2280  180.2160  139.1320 N   0  0  0  0  0  1  0  0  0  0  0  0
  181.9230  178.6810  141.3340 N   0  0  0  0  0  2  0  0  0  0  0  0
  180.8160  179.2900  140.6180 C   0  0  0  0  0  1  0  0  0  0  0  0
  190.2800  175.8150  142.8490 C   0  0  0  0  0  2  0  0  0  0  0  0
  191.3540  177.7750  142.0280 O   0  0  0  0  0  0  0  0  0  0  0  0
  189.5350  177.0330  140.7720 N   0  0  0  0  0  0  0  0  0  0  0  0
  190.4400  176.9240  141.8680 C   0  0  0  0  0  0  0  0  0  0  0  0
  189.6480  178.0770  139.8430 N   0  0  0  0  0  0  0  0  0  0  0  0
  186.5850  178.0540  137.7260 C   0  0  0  0  0  3  0  0  0  0  0  0
  188.8070  178.1480  138.6930 C   0  0  0  0  0  0  0  0  0  0  0  0
  187.4250  177.9890  138.8420 C   0  0  0  0  0  3  0  0  0  0  0  0
  187.1240  178.2790  136.4560 C   0  0  0  0  0  3  0  0  0  0  0  0
  189.3450  178.3730  137.4170 C   0  0  0  0  0  3  0  0  0  0  0  0
  188.5050  178.4390  136.3010 C   0  0  0  0  0  3  0  0  0  0  0  0
  1 11  1  0  0  0  0
  1  6  2  0  0  0  0
  2  9  1  0  0  0  0
  3 11  1  0  0  0  0
  3  4  2  0  0  0  0
  5  9  2  0  0  0  0
  6  8  1  0  0  0  0
  7  2  2  0  0  0  0
  8  5  1  0  0  0  0
 10  8  2  0  0  0  0
 10  7  1  0  0  0  0
 11 10  1  0  0  0  0
 12 13  1  0  0  0  0
 12  6  1  1  0  0  0
 14 15  1  6  0  0  0
 14 12  1  0  0  0  0
 14 13  1  0  0  0  0
 16 15  1  0  0  0  0
 17 18  1  6  0  0  0
 17 16  1  0  0  0  0
 17 20  1  0  0  0  0
 19 18  1  0  0  0  0
 21 20  1  0  0  0  0
 22  3  1  0  0  0  0
 24 25  1  0  0  0  0
 25 23  2  0  0  0  0
 25 22  1  0  0  0  0
 26 24  2  0  0  0  0
 27 29  1  0  0  0  0
 28 29  2  0  0  0  0
 28 26  1  0  0  0  0
 30 27  2  0  0  0  0
 31 28  1  0  0  0  0
 32 30  1  0  0  0  0
 32 31  2  0  0  0  0
M  END
>  <MODEL>
1

>  <REMARK>
 VINA RESULT:      -8.7      0.000      0.000
  Name = 
  10 active torsions:
  status: ('A' for Active; 'I' for Inactive)
    1  A    between atoms: C_1  and  C_5
    2  A    between atoms: N_3  and  C_14
    3  A    between atoms: N_3  and  N_27
    4  A    between atoms: C_5  and  N_16
    5  A    between atoms: C_5  and  C_25
    6  A    between atoms: C_6  and  C_9
    7  A    between atoms: C_6  and  C_30
    8  A    between atoms: C_8  and  C_17
    9  A    between atoms: C_21  and  C_25
   10  A    between atoms: C_21  and  C_28
                            x       y       z     vdW  Elec       q    Type
                         _______ _______ _______ _____ _____    ______ ____

>  <TORSDO>
F 10

$$$$
=
 OpenBabel10222416303D

 32 35  0  0  1  0  0  0  0  0999 V2000
  188.7380  178.2980  145.3220 N   0  0  0  0  0  0  0  0  0  0  0  0
  191.8010  175.6190  147.3050 C   0  0  0  0  0  3  0  0  0  0  0  0
  188.1580  178.2330  147.6900 C   0  0  0  0  0  0  0  0  0  0  0  0
  188.4120  177.7750  148.8350 O   0  0  0  0  0  0  0  0  0  0  0  0
  191.6510  176.2260  144.9360 C   0  0  0  0  0  3  0  0  0  0  0  0
  189.6760  177.7580  144.5060 C   0  0  0  0  0  0  0  0  0  0  0  0
  190.6610  176.3900  147.6010 C   0  0  0  0  0  3  0  0  0  0  0  0
  190.5220  176.9750  145.2630 C   0  0  0  0  0  0  0  0  0  0  0  0
  192.2930  175.5380  145.9820 C   0  0  0  0  0  3  0  0  0  0  0  0
  190.0440  177.0590  146.5430 C   0  0  0  0  0  0  0  0  0  0  0  0
  188.9620  177.8630  146.5590 N   0  0  0  0  0  0  0  0  0  0  0  0
  189.7920  178.0500  143.0440 C   0  0  1  0  0  3  0  0  0  0  0  0
  189.7840  176.7580  142.2510 C   0  0  0  0  0  2  0  0  0  0  0  0
  188.5310  177.6010  142.3290 C   0  0  2  0  0  3  0  0  0  0  0  0
  188.3820  178.3990  141.0480 C   0  0  0  0  0  2  0  0  0  0  0  0
  188.8390  177.5810  139.8500 C   0  0  0  0  0  2  0  0  0  0  0  0
  187.8490  177.6880  138.6950 C   0  0  2  0  0  3  0  0  0  0  0  0
  188.5140  178.2100  137.4220 C   0  0  0  0  0  2  0  0  0  0  0  0
  188.9220  179.5980  137.5770 N   0  0  0  0  0  1  0  0  0  0  0  0
  186.7420  178.5500  139.0770 N   0  0  0  0  0  2  0  0  0  0  0  0
  185.6420  178.2610  138.1730 C   0  0  0  0  0  1  0  0  0  0  0  0
  187.0260  179.1940  147.5280 C   0  0  0  0  0  2  0  0  0  0  0  0
  185.8530  177.2740  146.7500 O   0  0  0  0  0  0  0  0  0  0  0  0
  184.8310  179.3190  146.2960 N   0  0  0  0  0  2  0  0  0  0  0  0
  185.8780  178.5290  146.8530 C   0  0  0  0  0  0  0  0  0  0  0  0
  183.7480  178.7230  145.6360 N   0  0  0  0  0  2  0  0  0  0  0  0
  184.7920  178.2150  142.0980 C   0  0  0  0  0  3  0  0  0  0  0  0
  183.6870  178.6520  144.2120 C   0  0  0  0  0  0  0  0  0  0  0  0
  184.8320  178.2880  143.4940 C   0  0  0  0  0  3  0  0  0  0  0  0
  183.6060  178.5040  141.4150 C   0  0  0  0  0  3  0  0  0  0  0  0
  182.4990  178.9420  143.5240 C   0  0  0  0  0  3  0  0  0  0  0  0
  182.4600  178.8670  142.1290 C   0  0  0  0  0  3  0  0  0  0  0  0
  1 11  1  0  0  0  0
  2  7  1  0  0  0  0
  3  4  2  0  0  0  0
  5  8  2  0  0  0  0
  5  9  1  0  0  0  0
  6  8  1  0  0  0  0
  6  1  2  0  0  0  0
  8 10  1  0  0  0  0
  9  2  2  0  0  0  0
 10 11  1  0  0  0  0
 10  7  2  0  0  0  0
 11  3  1  0  0  0  0
 12  6  1  1  0  0  0
 13 14  1  0  0  0  0
 13 12  1  0  0  0  0
 14 15  1  6  0  0  0
 14 12  1  0  0  0  0
 16 15  1  0  0  0  0
 17 18  1  6  0  0  0
 17 20  1  0  0  0  0
 17 16  1  0  0  0  0
 18 19  1  0  0  0  0
 21 20  1  0  0  0  0
 22  3  1  0  0  0  0
 23 25  2  0  0  0  0
 24 25  1  0  0  0  0
 25 22  1  0  0  0  0
 26 24  1  0  0  0  0
 27 29  1  0  0  0  0
 28 26  1  0  0  0  0
 29 28  2  0  0  0  0
 30 27  2  0  0  0  0
 30 32  1  0  0  0  0
 31 28  1  0  0  0  0
 32 31  2  0  0  0  0
M  END
>  <MODEL>
2

>  <REMARK>
 VINA RESULT:      -8.4      2.385      5.533
  Name = 
  10 active torsions:
  status: ('A' for Active; 'I' for Inactive)
    1  A    between atoms: C_1  and  C_5
    2  A    between atoms: N_3  and  C_14
    3  A    between atoms: N_3  and  N_27
    4  A    between atoms: C_5  and  N_16
    5  A    between atoms: C_5  and  C_25
    6  A    between atoms: C_6  and  C_9
    7  A    between atoms: C_6  and  C_30
    8  A    between atoms: C_8  and  C_17
    9  A    between atoms: C_21  and  C_25
   10  A    between atoms: C_21  and  C_28
                            x       y       z     vdW  Elec       q    Type
                         _______ _______ _______ _____ _____    ______ ____

>  <TORSDO>
F 10

$$$$
=
 OpenBabel10222416303D

 32 35  0  0  1  0  0  0  0  0999 V2000
  186.6950  177.3980  144.3930 N   0  0  0  0  0  0  0  0  0  0  0  0
  188.6600  178.0830  148.4130 C   0  0  0  0  0  3  0  0  0  0  0  0
  185.0090  178.4470  145.8070 C   0  0  0  0  0  0  0  0  0  0  0  0
  184.7050  178.9040  146.9410 O   0  0  0  0  0  0  0  0  0  0  0  0
  189.6520  177.0740  146.4120 C   0  0  0  0  0  3  0  0  0  0  0  0
  187.9810  176.9840  144.5070 C   0  0  0  0  0  0  0  0  0  0  0  0
  187.4350  178.2650  147.7440 C   0  0  0  0  0  3  0  0  0  0  0  0
  188.4230  177.2650  145.7830 C   0  0  0  0  0  0  0  0  0  0  0  0
  189.7610  177.4930  147.7520 C   0  0  0  0  0  3  0  0  0  0  0  0
  187.3560  177.8380  146.4180 C   0  0  0  0  0  0  0  0  0  0  0  0
  186.3170  177.9100  145.5600 N   0  0  0  0  0  0  0  0  0  0  0  0
  188.7820  176.3990  143.3880 C   0  0  1  0  0  3  0  0  0  0  0  0
  188.4550  177.1060  142.0870 C   0  0  0  0  0  2  0  0  0  0  0  0
  189.7260  177.4500  142.8300 C   0  0  2  0  0  3  0  0  0  0  0  0
  190.9000  176.7540  142.1670 C   0  0  0  0  0  2  0  0  0  0  0  0
  191.4330  177.5850  141.0110 C   0  0  0  0  0  2  0  0  0  0  0  0
  191.2050  176.8880  139.6740 C   0  0  2  0  0  3  0  0  0  0  0  0
  192.4830  176.8220  138.8410 C   0  0  0  0  0  2  0  0  0  0  0  0
  193.6500  177.1470  139.6470 N   0  0  0  0  0  1  0  0  0  0  0  0
  190.1560  177.5760  138.9360 N   0  0  0  0  0  2  0  0  0  0  0  0
  189.9750  176.8630  137.6840 C   0  0  0  0  0  1  0  0  0  0  0  0
  183.9970  178.5020  144.7100 C   0  0  0  0  0  2  0  0  0  0  0  0
  185.0150  180.4060  143.7060 O   0  0  0  0  0  0  0  0  0  0  0  0
  184.4960  178.6650  142.2440 N   0  0  0  0  0  0  0  0  0  0  0  0
  184.5430  179.2500  143.5430 C   0  0  0  0  0  0  0  0  0  0  0  0
  184.9830  179.3530  141.1240 N   0  0  0  0  0  0  0  0  0  0  0  0
  186.3280  177.9100  137.9650 C   0  0  0  0  0  3  0  0  0  0  0  0
  185.0270  178.7440  139.8340 C   0  0  0  0  0  0  0  0  0  0  0  0
  186.2660  178.5050  139.2290 C   0  0  0  0  0  3  0  0  0  0  0  0
  185.1510  177.5510  137.3010 C   0  0  0  0  0  3  0  0  0  0  0  0
  183.8480  178.3830  139.1650 C   0  0  0  0  0  3  0  0  0  0  0  0
  183.9100  177.7880  137.9020 C   0  0  0  0  0  3  0  0  0  0  0  0
  1  6  2  0  0  0  0
  1 11  1  0  0  0  0
  3  4  2  0  0  0  0
  5  9  2  0  0  0  0
  6  8  1  0  0  0  0
  7  2  2  0  0  0  0
  8  5  1  0  0  0  0
  8 10  2  0  0  0  0
  9  2  1  0  0  0  0
 10  7  1  0  0  0  0
 11  3  1  0  0  0  0
 11 10  1  0  0  0  0
 12  6  1  1  0  0  0
 13 14  1  0  0  0  0
 13 12  1  0  0  0  0
 14 15  1  6  0  0  0
 14 12  1  0  0  0  0
 16 15  1  0  0  0  0
 17 18  1  6  0  0  0
 17 16  1  0  0  0  0
 18 19  1  0  0  0  0
 20 17  1  0  0  0  0
 21 20  1  0  0  0  0
 22  3  1  0  0  0  0
 24 25  1  0  0  0  0
 25 23  2  0  0  0  0
 25 22  1  0  0  0  0
 26 24  2  0  0  0  0
 27 29  1  0  0  0  0
 28 26  1  0  0  0  0
 29 28  2  0  0  0  0
 30 32  1  0  0  0  0
 30 27  2  0  0  0  0
 31 28  1  0  0  0  0
 32 31  2  0  0  0  0
M  END
>  <MODEL>
3

>  <REMARK>
 VINA RESULT:      -8.3      2.490      5.590
  Name = 
  10 active torsions:
  status: ('A' for Active; 'I' for Inactive)
    1  A    between atoms: C_1  and  C_5
    2  A    between atoms: N_3  and  C_14
    3  A    between atoms: N_3  and  N_27
    4  A    between atoms: C_5  and  N_16
    5  A    between atoms: C_5  and  C_25
    6  A    between atoms: C_6  and  C_9
    7  A    between atoms: C_6  and  C_30
    8  A    between atoms: C_8  and  C_17
    9  A    between atoms: C_21  and  C_25
   10  A    between atoms: C_21  and  C_28
                            x       y       z     vdW  Elec       q    Type
                         _______ _______ _______ _____ _____    ______ ____

>  <TORSDO>
F 10

$$$$
=
 OpenBabel10222416303D

 32 35  0  0  1  0  0  0  0  0999 V2000
  187.9770  177.5430  143.6960 N   0  0  0  0  0  0  0  0  0  0  0  0
  191.5800  176.7350  146.3140 C   0  0  0  0  0  3  0  0  0  0  0  0
  189.9040  177.4700  142.2030 C   0  0  0  0  0  0  0  0  0  0  0  0
  191.1510  177.3430  142.0810 O   0  0  0  0  0  0  0  0  0  0  0  0
  189.2420  176.9600  147.0110 C   0  0  0  0  0  3  0  0  0  0  0  0
  187.7350  177.4240  145.0240 C   0  0  0  0  0  0  0  0  0  0  0  0
  191.2280  176.9570  144.9700 C   0  0  0  0  0  3  0  0  0  0  0  0
  188.9290  177.1820  145.6710 C   0  0  0  0  0  0  0  0  0  0  0  0
  190.5950  176.7350  147.3270 C   0  0  0  0  0  3  0  0  0  0  0  0
  189.8790  177.1800  144.6870 C   0  0  0  0  0  0  0  0  0  0  0  0
  189.2840  177.4010  143.4970 N   0  0  0  0  0  0  0  0  0  0  0  0
  186.3740  177.4710  145.6420 C   0  0  1  0  0  3  0  0  0  0  0  0
  186.3510  178.4730  146.7800 C   0  0  0  0  0  2  0  0  0  0  0  0
  185.7640  178.8460  145.4370 C   0  0  2  0  0  3  0  0  0  0  0  0
  184.2530  178.7280  145.4980 C   0  0  0  0  0  2  0  0  0  0  0  0
  183.6140  179.3930  144.2900 C   0  0  0  0  0  2  0  0  0  0  0  0
  183.9780  178.6690  142.9990 C   0  0  2  0  0  3  0  0  0  0  0  0
  185.1680  179.3200  142.2970 C   0  0  0  0  0  2  0  0  0  0  0  0
  184.9840  179.3270  140.8530 N   0  0  0  0  0  1  0  0  0  0  0  0
  182.8240  178.6370  142.1130 N   0  0  0  0  0  2  0  0  0  0  0  0
  181.6730  179.0540  142.8950 C   0  0  0  0  0  1  0  0  0  0  0  0
  189.0710  177.6600  140.9780 C   0  0  0  0  0  2  0  0  0  0  0  0
  190.1210  178.2210  138.9150 O   0  0  0  0  0  0  0  0  0  0  0  0
  190.2930  175.9830  139.5470 N   0  0  0  0  0  2  0  0  0  0  0  0
  189.8620  177.3250  139.7610 C   0  0  0  0  0  0  0  0  0  0  0  0
  191.0210  175.6320  138.4010 N   0  0  0  0  0  2  0  0  0  0  0  0
  189.5100  175.5460  134.9980 C   0  0  0  0  0  3  0  0  0  0  0  0
  190.3760  175.1400  137.2270 C   0  0  0  0  0  0  0  0  0  0  0  0
  190.1430  176.0100  136.1560 C   0  0  0  0  0  3  0  0  0  0  0  0
  189.1100  174.2100  134.9070 C   0  0  0  0  0  3  0  0  0  0  0  0
  189.9720  173.8000  137.1320 C   0  0  0  0  0  3  0  0  0  0  0  0
  189.3410  173.3360  135.9740 C   0  0  0  0  0  3  0  0  0  0  0  0
  1  6  2  0  0  0  0
  2  9  1  0  0  0  0
  3 11  1  0  0  0  0
  4  3  2  0  0  0  0
  5  9  2  0  0  0  0
  6  8  1  0  0  0  0
  7  2  2  0  0  0  0
  8  5  1  0  0  0  0
 10  7  1  0  0  0  0
 10  8  2  0  0  0  0
 11  1  1  0  0  0  0
 11 10  1  0  0  0  0
 12  6  1  6  0  0  0
 12 13  1  0  0  0  0
 14 15  1  1  0  0  0
 14 12  1  0  0  0  0
 14 13  1  0  0  0  0
 16 15  1  0  0  0  0
 17 18  1  6  0  0  0
 17 16  1  0  0  0  0
 19 18  1  0  0  0  0
 20 21  1  0  0  0  0
 20 17  1  0  0  0  0
 22  3  1  0  0  0  0
 23 25  2  0  0  0  0
 24 25  1  0  0  0  0
 25 22  1  0  0  0  0
 26 24  1  0  0  0  0
 27 29  1  0  0  0  0
 28 26  1  0  0  0  0
 29 28  2  0  0  0  0
 30 27  2  0  0  0  0
 30 32  1  0  0  0  0
 31 28  1  0  0  0  0
 32 31  2  0  0  0  0
M  END
>  <MODEL>
4

>  <REMARK>
 VINA RESULT:      -8.3      2.260      3.006
  Name = 
  10 active torsions:
  status: ('A' for Active; 'I' for Inactive)
    1  A    between atoms: C_1  and  C_5
    2  A    between atoms: N_3  and  C_14
    3  A    between atoms: N_3  and  N_27
    4  A    between atoms: C_5  and  N_16
    5  A    between atoms: C_5  and  C_25
    6  A    between atoms: C_6  and  C_9
    7  A    between atoms: C_6  and  C_30
    8  A    between atoms: C_8  and  C_17
    9  A    between atoms: C_21  and  C_25
   10  A    between atoms: C_21  and  C_28
                            x       y       z     vdW  Elec       q    Type
                         _______ _______ _______ _____ _____    ______ ____

>  <TORSDO>
F 10

$$$$
=
 OpenBabel10222416303D

 32 35  0  0  1  0  0  0  0  0999 V2000
  187.0520  178.3500  139.3560 N   0  0  0  0  0  0  0  0  0  0  0  0
  187.4160  175.4290  135.9170 C   0  0  0  0  0  3  0  0  0  0  0  0
  184.8790  178.3220  138.2510 C   0  0  0  0  0  0  0  0  0  0  0  0
  184.1690  177.8780  137.3090 O   0  0  0  0  0  0  0  0  0  0  0  0
  189.1400  176.0530  137.5430 C   0  0  0  0  0  3  0  0  0  0  0  0
  188.2620  177.7600  139.2000 C   0  0  0  0  0  0  0  0  0  0  0  0
  186.4920  176.2990  136.5260 C   0  0  0  0  0  3  0  0  0  0  0  0
  188.2020  176.9080  138.1170 C   0  0  0  0  0  0  0  0  0  0  0  0
  188.7300  175.3060  136.4230 C   0  0  0  0  0  3  0  0  0  0  0  0
  186.9270  177.0280  137.6330 C   0  0  0  0  0  0  0  0  0  0  0  0
  186.2460  177.9070  138.3960 N   0  0  0  0  0  0  0  0  0  0  0  0
  189.4250  177.9610  140.1190 C   0  0  1  0  0  3  0  0  0  0  0  0
  188.9480  178.4970  141.4540 C   0  0  0  0  0  2  0  0  0  0  0  0
  189.3000  177.0340  141.3140 C   0  0  2  0  0  3  0  0  0  0  0  0
  190.6800  176.7910  141.8950 C   0  0  0  0  0  2  0  0  0  0  0  0
  190.5820  176.0500  143.2190 C   0  0  0  0  0  2  0  0  0  0  0  0
  190.9120  176.9650  144.3930 C   0  0  2  0  0  3  0  0  0  0  0  0
  191.6840  178.2070  143.9480 C   0  0  0  0  0  2  0  0  0  0  0  0
  190.9240  179.4190  144.2140 N   0  0  0  0  0  1  0  0  0  0  0  0
  191.6730  176.2270  145.3890 N   0  0  0  0  0  2  0  0  0  0  0  0
  191.2920  176.7470  146.6910 C   0  0  0  0  0  1  0  0  0  0  0  0
  184.2680  179.2640  139.2360 C   0  0  0  0  0  2  0  0  0  0  0  0
  183.2090  177.5330  140.4820 O   0  0  0  0  0  0  0  0  0  0  0  0
  184.4680  179.0400  141.7390 N   0  0  0  0  0  2  0  0  0  0  0  0
  183.9530  178.5490  140.5040 C   0  0  0  0  0  0  0  0  0  0  0  0
  184.1720  178.4000  142.9510 N   0  0  0  0  0  2  0  0  0  0  0  0
  185.8350  178.5900  146.2780 C   0  0  0  0  0  3  0  0  0  0  0  0
  185.1540  178.2490  143.9750 C   0  0  0  0  0  0  0  0  0  0  0  0
  184.8840  178.7280  145.2620 C   0  0  0  0  0  3  0  0  0  0  0  0
  187.0600  177.9710  146.0110 C   0  0  0  0  0  3  0  0  0  0  0  0
  186.3840  177.6290  143.7110 C   0  0  0  0  0  3  0  0  0  0  0  0
  187.3350  177.4900  144.7270 C   0  0  0  0  0  3  0  0  0  0  0  0
  2  9  2  0  0  0  0
  2  7  1  0  0  0  0
  3 11  1  0  0  0  0
  3 22  1  0  0  0  0
  4  3  2  0  0  0  0
  5  8  2  0  0  0  0
  6  1  2  0  0  0  0
  7 10  2  0  0  0  0
  8  6  1  0  0  0  0
  9  5  1  0  0  0  0
 10  8  1  0  0  0  0
 10 11  1  0  0  0  0
 11  1  1  0  0  0  0
 12  6  1  6  0  0  0
 12 14  1  0  0  0  0
 12 13  1  0  0  0  0
 14 13  1  0  0  0  0
 14 15  1  1  0  0  0
 15 16  1  0  0  0  0
 17 16  1  6  0  0  0
 17 20  1  0  0  0  0
 18 19  1  0  0  0  0
 18 17  1  0  0  0  0
 20 21  1  0  0  0  0
 22 25  1  0  0  0  0
 23 25  2  0  0  0  0
 24 26  1  0  0  0  0
 25 24  1  0  0  0  0
 26 28  1  0  0  0  0
 28 29  1  0  0  0  0
 29 27  2  0  0  0  0
 30 27  1  0  0  0  0
 31 28  2  0  0  0  0
 31 32  1  0  0  0  0
 32 30  2  0  0  0  0
M  END
>  <MODEL>
5

>  <REMARK>
 VINA RESULT:      -8.1      2.904      8.480
  Name = 
  10 active torsions:
  status: ('A' for Active; 'I' for Inactive)
    1  A    between atoms: C_1  and  C_5
    2  A    between atoms: N_3  and  C_14
    3  A    between atoms: N_3  and  N_27
    4  A    between atoms: C_5  and  N_16
    5  A    between atoms: C_5  and  C_25
    6  A    between atoms: C_6  and  C_9
    7  A    between atoms: C_6  and  C_30
    8  A    between atoms: C_8  and  C_17
    9  A    between atoms: C_21  and  C_25
   10  A    between atoms: C_21  and  C_28
                            x       y       z     vdW  Elec       q    Type
                         _______ _______ _______ _____ _____    ______ ____

>  <TORSDO>
F 10

$$$$
=
 OpenBabel10222416303D

 32 35  0  0  1  0  0  0  0  0999 V2000
  187.8120  178.1950  139.5240 N   0  0  0  0  0  0  0  0  0  0  0  0
  189.8040  175.3870  136.5850 C   0  0  0  0  0  3  0  0  0  0  0  0
  186.3770  178.1390  137.5540 C   0  0  0  0  0  0  0  0  0  0  0  0
  186.1880  177.7040  136.3870 O   0  0  0  0  0  0  0  0  0  0  0  0
  190.5810  176.0110  138.8230 C   0  0  0  0  0  3  0  0  0  0  0  0
  188.9840  177.6440  139.9250 C   0  0  0  0  0  0  0  0  0  0  0  0
  188.6720  176.2130  136.7200 C   0  0  0  0  0  3  0  0  0  0  0  0
  189.4520  176.8230  138.9210 C   0  0  0  0  0  0  0  0  0  0  0  0
  190.7500  175.2860  137.6290 C   0  0  0  0  0  3  0  0  0  0  0  0
  188.5310  176.9210  137.9140 C   0  0  0  0  0  0  0  0  0  0  0  0
  187.5450  177.7580  138.2970 N   0  0  0  0  0  0  0  0  0  0  0  0
  189.5960  177.8500  141.2740 C   0  0  1  0  0  3  0  0  0  0  0  0
  188.6260  178.5820  142.1810 C   0  0  0  0  0  2  0  0  0  0  0  0
  188.8030  177.0860  142.3200 C   0  0  2  0  0  3  0  0  0  0  0  0
  189.7040  176.7940  143.5040 C   0  0  0  0  0  2  0  0  0  0  0  0
  188.9940  177.1120  144.8100 C   0  0  0  0  0  2  0  0  0  0  0  0
  189.9900  177.3620  145.9380 C   0  0  2  0  0  3  0  0  0  0  0  0
  191.3810  176.8290  145.5970 C   0  0  0  0  0  2  0  0  0  0  0  0
  192.0580  176.3360  146.7860 N   0  0  0  0  0  1  0  0  0  0  0  0
  189.5020  176.7510  147.1650 N   0  0  0  0  0  2  0  0  0  0  0  0
  188.3130  177.4840  147.5640 C   0  0  0  0  0  1  0  0  0  0  0  0
  185.3510  179.0350  138.1680 C   0  0  0  0  0  2  0  0  0  0  0  0
  183.9830  177.2380  138.9230 O   0  0  0  0  0  0  0  0  0  0  0  0
  184.5280  178.8260  140.5410 N   0  0  0  0  0  2  0  0  0  0  0  0
  184.5910  178.3010  139.2170 C   0  0  0  0  0  0  0  0  0  0  0  0
  183.8030  178.1690  141.5450 N   0  0  0  0  0  2  0  0  0  0  0  0
  185.6990  178.2560  144.7500 C   0  0  0  0  0  3  0  0  0  0  0  0
  184.1020  178.3580  142.9280 C   0  0  0  0  0  0  0  0  0  0  0  0
  185.3890  178.0770  143.3970 C   0  0  0  0  0  3  0  0  0  0  0  0
  184.7230  178.7180  145.6370 C   0  0  0  0  0  3  0  0  0  0  0  0
  183.1240  178.8220  143.8210 C   0  0  0  0  0  3  0  0  0  0  0  0
  183.4340  179.0010  145.1720 C   0  0  0  0  0  3  0  0  0  0  0  0
  1  6  2  0  0  0  0
  2  7  2  0  0  0  0
  2  9  1  0  0  0  0
  3 22  1  0  0  0  0
  3 11  1  0  0  0  0
  4  3  2  0  0  0  0
  5  8  1  0  0  0  0
  7 10  1  0  0  0  0
  8  6  1  0  0  0  0
  9  5  2  0  0  0  0
 10 11  1  0  0  0  0
 10  8  2  0  0  0  0
 11  1  1  0  0  0  0
 12  6  1  6  0  0  0
 12 13  1  0  0  0  0
 12 14  1  0  0  0  0
 13 14  1  0  0  0  0
 14 15  1  1  0  0  0
 15 16  1  0  0  0  0
 17 16  1  6  0  0  0
 17 20  1  0  0  0  0
 18 17  1  0  0  0  0
 18 19  1  0  0  0  0
 20 21  1  0  0  0  0
 22 25  1  0  0  0  0
 23 25  2  0  0  0  0
 24 26  1  0  0  0  0
 25 24  1  0  0  0  0
 26 28  1  0  0  0  0
 27 30  1  0  0  0  0
 28 29  1  0  0  0  0
 28 31  2  0  0  0  0
 29 27  2  0  0  0  0
 31 32  1  0  0  0  0
 32 30  2  0  0  0  0
M  END
>  <MODEL>
6

>  <REMARK>
 VINA RESULT:      -7.9      2.772      8.203
  Name = 
  10 active torsions:
  status: ('A' for Active; 'I' for Inactive)
    1  A    between atoms: C_1  and  C_5
    2  A    between atoms: N_3  and  C_14
    3  A    between atoms: N_3  and  N_27
    4  A    between atoms: C_5  and  N_16
    5  A    between atoms: C_5  and  C_25
    6  A    between atoms: C_6  and  C_9
    7  A    between atoms: C_6  and  C_30
    8  A    between atoms: C_8  and  C_17
    9  A    between atoms: C_21  and  C_25
   10  A    between atoms: C_21  and  C_28
                            x       y       z     vdW  Elec       q    Type
                         _______ _______ _______ _____ _____    ______ ____

>  <TORSDO>
F 10

$$$$
=
 OpenBabel10222416303D

 32 35  0  0  1  0  0  0  0  0999 V2000
  187.3780  177.1410  144.4950 N   0  0  0  0  0  0  0  0  0  0  0  0
  190.1150  177.6830  148.0600 C   0  0  0  0  0  3  0  0  0  0  0  0
  189.5910  176.4120  143.7740 C   0  0  0  0  0  0  0  0  0  0  0  0
  190.8080  176.2600  144.0630 O   0  0  0  0  0  0  0  0  0  0  0  0
  187.7180  178.1730  147.9220 C   0  0  0  0  0  3  0  0  0  0  0  0
  186.8060  177.6460  145.6150 C   0  0  0  0  0  0  0  0  0  0  0  0
  190.1300  177.2540  146.7190 C   0  0  0  0  0  3  0  0  0  0  0  0
  187.7700  177.7460  146.5960 C   0  0  0  0  0  0  0  0  0  0  0  0
  188.9170  178.1380  148.6570 C   0  0  0  0  0  3  0  0  0  0  0  0
  188.9260  177.3020  146.0150 C   0  0  0  0  0  0  0  0  0  0  0  0
  188.6700  176.9400  144.7410 N   0  0  0  0  0  0  0  0  0  0  0  0
  185.3490  177.9540  145.7540 C   0  0  1  0  0  3  0  0  0  0  0  0
  185.1470  179.4460  145.9390 C   0  0  0  0  0  2  0  0  0  0  0  0
  184.8930  178.8140  144.5880 C   0  0  2  0  0  3  0  0  0  0  0  0
  183.4010  178.6270  144.3930 C   0  0  0  0  0  2  0  0  0  0  0  0
  183.0360  178.7290  142.9200 C   0  0  0  0  0  2  0  0  0  0  0  0
  181.5500  179.0190  142.7360 C   0  0  2  0  0  3  0  0  0  0  0  0
  180.7360  178.6290  143.9690 C   0  0  0  0  0  2  0  0  0  0  0  0
  179.3550  178.3400  143.6130 N   0  0  0  0  0  1  0  0  0  0  0  0
  181.0570  178.3150  141.5620 N   0  0  0  0  0  2  0  0  0  0  0  0
  180.9120  179.2990  140.5020 C   0  0  0  0  0  1  0  0  0  0  0  0
  189.1110  176.0030  142.4200 C   0  0  0  0  0  2  0  0  0  0  0  0
  189.2500  178.0860  141.2740 O   0  0  0  0  0  0  0  0  0  0  0  0
  190.6760  176.4180  140.4890 N   0  0  0  0  0  2  0  0  0  0  0  0
  189.6770  176.9070  141.3800 C   0  0  0  0  0  0  0  0  0  0  0  0
  191.2140  177.2370  139.4860 N   0  0  0  0  0  2  0  0  0  0  0  0
  191.0060  176.0030  135.9780 C   0  0  0  0  0  3  0  0  0  0  0  0
  191.6060  176.7090  138.2190 C   0  0  0  0  0  0  0  0  0  0  0  0
  190.6400  176.5210  137.2250 C   0  0  0  0  0  3  0  0  0  0  0  0
  192.3400  175.6730  135.7220 C   0  0  0  0  0  3  0  0  0  0  0  0
  192.9440  176.3760  137.9590 C   0  0  0  0  0  3  0  0  0  0  0  0
  193.3100  175.8590  136.7130 C   0  0  0  0  0  3  0  0  0  0  0  0
  1 11  1  0  0  0  0
  1  6  2  0  0  0  0
  2  9  1  0  0  0  0
  3  4  2  0  0  0  0
  3 11  1  0  0  0  0
  5  9  2  0  0  0  0
  6  8  1  0  0  0  0
  7  2  2  0  0  0  0
  8  5  1  0  0  0  0
 10  8  2  0  0  0  0
 10  7  1  0  0  0  0
 11 10  1  0  0  0  0
 12  6  1  6  0  0  0
 12 13  1  0  0  0  0
 14 15  1  1  0  0  0
 14 12  1  0  0  0  0
 14 13  1  0  0  0  0
 16 15  1  0  0  0  0
 17 16  1  1  0  0  0
 17 18  1  0  0  0  0
 19 18  1  0  0  0  0
 20 17  1  0  0  0  0
 21 20  1  0  0  0  0
 22  3  1  0  0  0  0
 23 25  2  0  0  0  0
 24 25  1  0  0  0  0
 25 22  1  0  0  0  0
 26 24  1  0  0  0  0
 27 29  1  0  0  0  0
 28 26  1  0  0  0  0
 29 28  2  0  0  0  0
 30 27  2  0  0  0  0
 30 32  1  0  0  0  0
 31 28  1  0  0  0  0
 32 31  2  0  0  0  0
M  END
>  <MODEL>
7

>  <REMARK>
 VINA RESULT:      -7.8      2.080      2.797
  Name = 
  10 active torsions:
  status: ('A' for Active; 'I' for Inactive)
    1  A    between atoms: C_1  and  C_5
    2  A    between atoms: N_3  and  C_14
    3  A    between atoms: N_3  and  N_27
    4  A    between atoms: C_5  and  N_16
    5  A    between atoms: C_5  and  C_25
    6  A    between atoms: C_6  and  C_9
    7  A    between atoms: C_6  and  C_30
    8  A    between atoms: C_8  and  C_17
    9  A    between atoms: C_21  and  C_25
   10  A    between atoms: C_21  and  C_28
                            x       y       z     vdW  Elec       q    Type
                         _______ _______ _______ _____ _____    ______ ____

>  <TORSDO>
F 10

$$$$
=
 OpenBabel10222416303D

 32 35  0  0  1  0  0  0  0  0999 V2000
  185.8110  177.5620  141.9780 N   0  0  0  0  0  0  0  0  0  0  0  0
  184.0170  179.0080  145.8730 C   0  0  0  0  0  3  0  0  0  0  0  0
  183.5330  178.2630  141.4610 C   0  0  0  0  0  0  0  0  0  0  0  0
  182.4370  178.7130  141.8870 O   0  0  0  0  0  0  0  0  0  0  0  0
  186.2740  178.1310  145.4970 C   0  0  0  0  0  3  0  0  0  0  0  0
  186.6130  177.4890  143.0670 C   0  0  0  0  0  0  0  0  0  0  0  0
  183.6940  178.8310  144.5150 C   0  0  0  0  0  3  0  0  0  0  0  0
  185.9190  177.9640  144.1600 C   0  0  0  0  0  0  0  0  0  0  0  0
  185.2980  178.6620  146.3610 C   0  0  0  0  0  3  0  0  0  0  0  0
  184.6820  178.3010  143.6830 C   0  0  0  0  0  0  0  0  0  0  0  0
  184.6340  178.0490  142.3590 N   0  0  0  0  0  0  0  0  0  0  0  0
  188.0400  177.0390  143.0380 C   0  0  1  0  0  3  0  0  0  0  0  0
  188.6840  177.4340  141.7230 C   0  0  0  0  0  2  0  0  0  0  0  0
  188.9570  178.2470  142.9680 C   0  0  2  0  0  3  0  0  0  0  0  0
  190.3130  177.8680  143.5290 C   0  0  0  0  0  2  0  0  0  0  0  0
  190.4140  178.2520  144.9970 C   0  0  0  0  0  2  0  0  0  0  0  0
  190.4900  177.0190  145.8900 C   0  0  2  0  0  3  0  0  0  0  0  0
  189.2850  176.9170  146.8240 C   0  0  0  0  0  2  0  0  0  0  0  0
  189.3750  177.8910  147.9020 N   0  0  0  0  0  1  0  0  0  0  0  0
  191.7250  177.0480  146.6590 N   0  0  0  0  0  2  0  0  0  0  0  0
  192.0410  175.6750  147.0130 C   0  0  0  0  0  1  0  0  0  0  0  0
  183.6850  177.9830  140.0020 C   0  0  0  0  0  2  0  0  0  0  0  0
  184.7670  180.0360  139.4650 O   0  0  0  0  0  0  0  0  0  0  0  0
  185.9230  178.1070  138.8490 N   0  0  0  0  0  0  0  0  0  0  0  0
  184.8130  178.7770  139.4410 C   0  0  0  0  0  0  0  0  0  0  0  0
  186.9900  178.8270  138.2940 N   0  0  0  0  0  0  0  0  0  0  0  0
  188.5900  177.4520  135.2240 C   0  0  0  0  0  3  0  0  0  0  0  0
  187.9480  178.2030  137.4390 C   0  0  0  0  0  0  0  0  0  0  0  0
  187.6630  178.0620  136.0770 C   0  0  0  0  0  3  0  0  0  0  0  0
  189.8050  176.9820  135.7320 C   0  0  0  0  0  3  0  0  0  0  0  0
  189.1680  177.7290  137.9460 C   0  0  0  0  0  3  0  0  0  0  0  0
  190.0940  177.1200  137.0930 C   0  0  0  0  0  3  0  0  0  0  0  0
  1 11  1  0  0  0  0
  1  6  2  0  0  0  0
  2  9  1  0  0  0  0
  3  4  2  0  0  0  0
  3 11  1  0  0  0  0
  5  9  2  0  0  0  0
  6  8  1  0  0  0  0
  7  2  2  0  0  0  0
  8  5  1  0  0  0  0
 10  8  2  0  0  0  0
 10  7  1  0  0  0  0
 11 10  1  0  0  0  0
 12  6  1  6  0  0  0
 13 14  1  0  0  0  0
 13 12  1  0  0  0  0
 14 12  1  0  0  0  0
 14 15  1  1  0  0  0
 15 16  1  0  0  0  0
 17 16  1  1  0  0  0
 17 20  1  0  0  0  0
 17 18  1  0  0  0  0
 18 19  1  0  0  0  0
 20 21  1  0  0  0  0
 22  3  1  0  0  0  0
 24 25  1  0  0  0  0
 25 23  2  0  0  0  0
 25 22  1  0  0  0  0
 26 24  2  0  0  0  0
 27 30  2  0  0  0  0
 27 29  1  0  0  0  0
 28 31  1  0  0  0  0
 28 26  1  0  0  0  0
 29 28  2  0  0  0  0
 30 32  1  0  0  0  0
 32 31  2  0  0  0  0
M  END
>  <MODEL>
8

>  <REMARK>
 VINA RESULT:      -7.6      2.848      6.317
  Name = 
  10 active torsions:
  status: ('A' for Active; 'I' for Inactive)
    1  A    between atoms: C_1  and  C_5
    2  A    between atoms: N_3  and  C_14
    3  A    between atoms: N_3  and  N_27
    4  A    between atoms: C_5  and  N_16
    5  A    between atoms: C_5  and  C_25
    6  A    between atoms: C_6  and  C_9
    7  A    between atoms: C_6  and  C_30
    8  A    between atoms: C_8  and  C_17
    9  A    between atoms: C_21  and  C_25
   10  A    between atoms: C_21  and  C_28
                            x       y       z     vdW  Elec       q    Type
                         _______ _______ _______ _____ _____    ______ ____

>  <TORSDO>
F 10

$$$$
=
 OpenBabel10222416303D

 32 35  0  0  1  0  0  0  0  0999 V2000
  191.5170  176.7580  139.1310 N   0  0  0  0  0  0  0  0  0  0  0  0
  187.2970  177.8780  137.9390 C   0  0  0  0  0  3  0  0  0  0  0  0
  190.4270  177.5650  141.1570 C   0  0  0  0  0  0  0  0  0  0  0  0
  189.3920  178.0500  141.6880 O   0  0  0  0  0  0  0  0  0  0  0  0
  189.0700  176.9780  136.5070 C   0  0  0  0  0  3  0  0  0  0  0  0
  191.2010  176.5870  137.8240 C   0  0  0  0  0  0  0  0  0  0  0  0
  188.1520  177.8550  139.0560 C   0  0  0  0  0  3  0  0  0  0  0  0
  189.8910  176.9720  137.6330 C   0  0  0  0  0  0  0  0  0  0  0  0
  187.7520  177.4420  136.6740 C   0  0  0  0  0  3  0  0  0  0  0  0
  189.4540  177.3910  138.8600 C   0  0  0  0  0  0  0  0  0  0  0  0
  190.4540  177.2550  139.7550 N   0  0  0  0  0  0  0  0  0  0  0  0
  192.1200  175.9960  136.8030 C   0  0  1  0  0  3  0  0  0  0  0  0
  193.5550  176.3770  137.1100 C   0  0  0  0  0  2  0  0  0  0  0  0
  193.0510  174.9970  137.4680 C   0  0  2  0  0  3  0  0  0  0  0  0
  193.5280  174.0020  136.4280 C   0  0  0  0  0  2  0  0  0  0  0  0
  194.8920  173.4440  136.8040 C   0  0  0  0  0  2  0  0  0  0  0  0
  195.0570  173.3560  138.3180 C   0  0  2  0  0  3  0  0  0  0  0  0
  196.2820  174.1280  138.8030 C   0  0  0  0  0  2  0  0  0  0  0  0
  195.9170  175.1020  139.8210 N   0  0  0  0  0  1  0  0  0  0  0  0
  195.1480  171.9600  138.7190 N   0  0  0  0  0  2  0  0  0  0  0  0
  195.5700  171.2060  137.5510 C   0  0  0  0  0  1  0  0  0  0  0  0
  191.6180  177.2870  142.0140 C   0  0  0  0  0  2  0  0  0  0  0  0
  190.7540  175.5000  143.3290 O   0  0  0  0  0  0  0  0  0  0  0  0
  191.2540  177.4520  144.5020 N   0  0  0  0  0  2  0  0  0  0  0  0
  191.1930  176.6800  143.3060 C   0  0  0  0  0  0  0  0  0  0  0  0
  190.8410  176.9150  145.7300 N   0  0  0  0  0  2  0  0  0  0  0  0
  187.2640  177.8790  146.1210 C   0  0  0  0  0  3  0  0  0  0  0  0
  189.6110  177.3050  146.3400 C   0  0  0  0  0  0  0  0  0  0  0  0
  188.4780  177.4950  145.5410 C   0  0  0  0  0  3  0  0  0  0  0  0
  187.1800  178.0730  147.5030 C   0  0  0  0  0  3  0  0  0  0  0  0
  189.5230  177.5010  147.7260 C   0  0  0  0  0  3  0  0  0  0  0  0
  188.3090  177.8840  148.3060 C   0  0  0  0  0  3  0  0  0  0  0  0
  1 11  1  0  0  0  0
  2  7  1  0  0  0  0
  3  4  2  0  0  0  0
  3 22  1  0  0  0  0
  5  9  1  0  0  0  0
  5  8  2  0  0  0  0
  6  1  2  0  0  0  0
  8  6  1  0  0  0  0
  8 10  1  0  0  0  0
  9  2  2  0  0  0  0
 10  7  2  0  0  0  0
 10 11  1  0  0  0  0
 11  3  1  0  0  0  0
 12 13  1  0  0  0  0
 12 14  1  0  0  0  0
 12  6  1  1  0  0  0
 13 14  1  0  0  0  0
 14 15  1  6  0  0  0
 15 16  1  0  0  0  0
 17 16  1  6  0  0  0
 17 20  1  0  0  0  0
 17 18  1  0  0  0  0
 18 19  1  0  0  0  0
 21 20  1  0  0  0  0
 22 25  1  0  0  0  0
 24 26  1  0  0  0  0
 25 23  2  0  0  0  0
 25 24  1  0  0  0  0
 26 28  1  0  0  0  0
 27 30  1  0  0  0  0
 28 31  2  0  0  0  0
 29 27  2  0  0  0  0
 29 28  1  0  0  0  0
 30 32  2  0  0  0  0
 31 32  1  0  0  0  0
M  END
>  <MODEL>
9

>  <REMARK>
 VINA RESULT:      -7.6      3.877      9.794
  Name = 
  10 active torsions:
  status: ('A' for Active; 'I' for Inactive)
    1  A    between atoms: C_1  and  C_5
    2  A    between atoms: N_3  and  C_14
    3  A    between atoms: N_3  and  N_27
    4  A    between atoms: C_5  and  N_16
    5  A    between atoms: C_5  and  C_25
    6  A    between atoms: C_6  and  C_9
    7  A    between atoms: C_6  and  C_30
    8  A    between atoms: C_8  and  C_17
    9  A    between atoms: C_21  and  C_25
   10  A    between atoms: C_21  and  C_28
                            x       y       z     vdW  Elec       q    Type
                         _______ _______ _______ _____ _____    ______ ____

>  <TORSDO>
F 10

$$$$
