=
 OpenBabel10222415523D

 29 29  0  0  1  0  0  0  0  0999 V2000
  191.0140  177.0140  139.6700 C   0  0  0  0  0  3  0  0  0  0  0  0
  188.6280  177.5340  139.6230 C   0  0  0  0  0  3  0  0  0  0  0  0
  192.1290  177.3900  141.7160 O   0  0  0  0  0  0  0  0  0  0  0  0
  189.7410  177.5420  141.8550 C   0  0  1  0  0  3  0  0  0  0  0  0
  189.8780  177.0990  138.9790 C   0  0  0  0  0  3  0  0  0  0  0  0
  191.0300  177.3300  141.1050 C   0  0  0  0  0  0  0  0  0  0  0  0
  188.5600  177.7790  140.9370 C   0  0  0  0  0  0  0  0  0  0  0  0
  187.2680  178.2620  141.5130 C   0  0  0  0  0  2  0  0  0  0  0  0
  184.3400  178.5380  141.7000 N   0  0  0  0  0  2  0  0  0  0  0  0
  184.4480  179.7490  139.7060 O   0  0  0  0  0  0  0  0  0  0  0  0
  186.4710  178.9290  140.4920 N   0  0  0  0  0  2  0  0  0  0  0  0
  185.0580  179.1030  140.5990 C   0  0  0  0  0  0  0  0  0  0  0  0
  182.8950  178.6540  141.8390 C   0  0  0  0  0  2  0  0  0  0  0  0
  182.5270  179.0470  143.2600 C   0  0  0  0  0  2  0  0  0  0  0  0
  183.6170  179.6540  143.8840 O   0  0  0  0  0  1  0  0  0  0  0  0
  189.4260  176.1000  142.9200 S   0  0  0  0  0  0  0  0  0  0  0  0
  188.6010  177.1220  144.1750 C   0  0  0  0  0  2  0  0  0  0  0  0
  189.6370  177.7960  145.0580 C   0  0  0  0  0  2  0  0  0  0  0  0
  189.8640  176.9860  146.3260 C   0  0  1  0  0  3  0  0  0  0  0  0
  191.9340  176.1880  145.4870 O   0  0  0  0  0  0  0  0  0  0  0  0
  191.3150  176.6360  146.4870 C   0  0  0  0  0  0  0  0  0  0  0  0
  192.8290  175.7770  148.2570 C   0  0  0  0  0  1  0  0  0  0  0  0
  192.0080  176.7910  147.6940 O   0  0  0  0  0  0  0  0  0  0  0  0
  189.3200  177.7190  147.5480 C   0  0  0  0  0  2  0  0  0  0  0  0
  187.8820  177.3140  147.8300 C   0  0  0  0  0  2  0  0  0  0  0  0
  186.8510  178.5260  147.4640 C   0  0  0  0  0  2  0  0  0  0  0  0
  186.6990  178.8460  146.8290 O   0  0  0  0  0  0  0  0  0  0  0  0
  185.7630  178.0790  146.4790 C   0  0  0  0  0  2  0  0  0  0  0  0
  184.4300  178.4170  146.6760 O   0  0  0  0  0  1  0  0  0  0  0  0
  1  6  1  0  0  0  0
  2  7  2  0  0  0  0
  4 16  1  6  0  0  0
  5  2  1  0  0  0  0
  5  1  2  0  0  0  0
  6  3  2  0  0  0  0
  6  4  1  0  0  0  0
  7  8  1  0  0  0  0
  7  4  1  0  0  0  0
  9 13  1  0  0  0  0
 10 12  2  0  0  0  0
 11 12  1  0  0  0  0
 11  8  1  0  0  0  0
 12  9  1  0  0  0  0
 13 14  1  0  0  0  0
 14 15  1  0  0  0  0
 16 17  1  0  0  0  0
 17 18  1  0  0  0  0
 19 18  1  6  0  0  0
 19 21  1  0  0  0  0
 19 24  1  0  0  0  0
 20 21  2  0  0  0  0
 21 23  1  0  0  0  0
 23 22  1  0  0  0  0
 24 25  1  0  0  0  0
 26 25  1  0  0  0  0
 27 26  1  0  0  0  0
 28 29  1  0  0  0  0
 28 27  1  0  0  0  0
M  END
>  <MODEL>
1

>  <REMARK>
 VINA RESULT:      -7.5      0.000      0.000
  Name = 
  14 active torsions:
  status: ('A' for Active; 'I' for Inactive)
    1  A    between atoms: C_2  and  C_13
    2  A    between atoms: C_2  and  C_17
    3  A    between atoms: C_6  and  C_11
    4  A    between atoms: C_7  and  N_24
    5  A    between atoms: C_7  and  C_26
    6  A    between atoms: N_9  and  C_11
    7  A    between atoms: C_10  and  C_19
    8  A    between atoms: C_10  and  C_25
    9  A    between atoms: C_10  and  C_29
   10  A    between atoms: C_15  and  S_28
   11  A    between atoms: C_17  and  C_25
   12  A    between atoms: C_18  and  S_28
   13  A    between atoms: C_18  and  C_29
   14  A    between atoms: C_19  and  O_23
                            x       y       z     vdW  Elec       q    Type
                         _______ _______ _______ _____ _____    ______ ____

>  <TORSDO>
F 14

$$$$
=
 OpenBabel10222415523D

 29 28  0  0  1  0  0  0  0  0999 V2000
  191.6660  177.8590  143.1310 C   0  0  0  0  0  3  0  0  0  0  0  0
  190.8960  177.3140  140.8780 C   0  0  0  0  0  3  0  0  0  0  0  0
  190.0450  178.7290  144.6100 O   0  0  0  0  0  0  0  0  0  0  0  0
  189.1440  177.8540  142.5690 C   0  0  1  0  0  3  0  0  0  0  0  0
  191.9490  177.4350  141.9000 C   0  0  0  0  0  3  0  0  0  0  0  0
  190.2810  178.1910  143.4970 C   0  0  0  0  0  0  0  0  0  0  0  0
  189.6080  177.5410  141.1610 C   0  0  0  0  0  0  0  0  0  0  0  0
  188.6010  177.4440  140.0600 C   0  0  0  0  0  2  0  0  0  0  0  0
  188.7770  177.2730  137.1240 N   0  0  0  0  0  2  0  0  0  0  0  0
  188.6950  179.6070  137.1040 O   0  0  0  0  0  0  0  0  0  0  0  0
  188.6650  178.6200  139.2040 N   0  0  0  0  0  2  0  0  0  0  0  0
  188.7070  178.5430  137.7790 C   0  0  0  0  0  0  0  0  0  0  0  0
  188.8580  177.1390  135.6760 C   0  0  0  0  0  2  0  0  0  0  0  0
  189.8200  176.0250  135.2990 C   0  0  0  0  0  2  0  0  0  0  0  0
  191.1030  176.3280  135.7570 O   0  0  0  0  0  1  0  0  0  0  0  0
  188.2150  176.4440  143.2490 S   0  0  0  0  0  0  0  0  0  0  0  0
  186.9580  177.5370  143.9770 C   0  0  0  0  0  2  0  0  0  0  0  0
  186.7070  177.1450  145.4230 C   0  0  0  0  0  2  0  0  0  0  0  0
  186.9720  178.3240  146.3480 C   0  0  1  0  0  3  0  0  0  0  0  0
  185.7430  179.9270  147.5920 O   0  0  0  0  0  0  0  0  0  0  0  0
  185.6850  178.9520  146.7980 C   0  0  0  0  0  0  0  0  0  0  0  0
  183.7630  179.0280  145.2290 C   0  0  0  0  0  1  0  0  0  0  0  0
  184.4280  178.5060  146.3710 O   0  0  0  0  0  0  0  0  0  0  0  0
  187.8420  177.9080  147.5290 C   0  0  0  0  0  2  0  0  0  0  0  0
  188.8310  176.8270  147.1220 C   0  0  0  0  0  1  0  0  0  0  0  0
  190.3260  177.1580  147.6920 C   0  0  0  0  0  1  0  0  0  0  0  0
  190.2240  176.6450  147.1860 O   0  0  0  0  0  0  0  0  0  0  0  0
  191.4250  176.5290  146.8250 C   0  0  0  0  0  2  0  0  0  0  0  0
  192.2400  175.5180  147.3170 O   0  0  0  0  0  1  0  0  0  0  0  0
  1  6  1  0  0  0  0
  2  7  2  0  0  0  0
  2  5  1  0  0  0  0
  4 16  1  1  0  0  0
  4  6  1  0  0  0  0
  5  1  2  0  0  0  0
  6  3  2  0  0  0  0
  7  4  1  0  0  0  0
  8  7  1  0  0  0  0
  9 12  1  0  0  0  0
 10 12  2  0  0  0  0
 11  8  1  0  0  0  0
 12 11  1  0  0  0  0
 13  9  1  0  0  0  0
 14 13  1  0  0  0  0
 14 15  1  0  0  0  0
 16 17  1  0  0  0  0
 17 18  1  0  0  0  0
 19 18  1  1  0  0  0
 19 21  1  0  0  0  0
 19 24  1  0  0  0  0
 21 20  2  0  0  0  0
 22 23  1  0  0  0  0
 23 21  1  0  0  0  0
 25 24  1  0  0  0  0
 27 26  1  0  0  0  0
 28 27  1  0  0  0  0
 28 29  1  0  0  0  0
M  END
>  <MODEL>
2

>  <REMARK>
 VINA RESULT:      -7.4      2.404      5.609
  Name = 
  14 active torsions:
  status: ('A' for Active; 'I' for Inactive)
    1  A    between atoms: C_2  and  C_13
    2  A    between atoms: C_2  and  C_17
    3  A    between atoms: C_6  and  C_11
    4  A    between atoms: C_7  and  N_24
    5  A    between atoms: C_7  and  C_26
    6  A    between atoms: N_9  and  C_11
    7  A    between atoms: C_10  and  C_19
    8  A    between atoms: C_10  and  C_25
    9  A    between atoms: C_10  and  C_29
   10  A    between atoms: C_15  and  S_28
   11  A    between atoms: C_17  and  C_25
   12  A    between atoms: C_18  and  S_28
   13  A    between atoms: C_18  and  C_29
   14  A    between atoms: C_19  and  O_23
                            x       y       z     vdW  Elec       q    Type
                         _______ _______ _______ _____ _____    ______ ____

>  <TORSDO>
F 14

$$$$
=
 OpenBabel10222415523D

 29 28  0  0  1  0  0  0  0  0999 V2000
  190.2700  177.3660  147.7210 C   0  0  0  0  0  3  0  0  0  0  0  0
  188.0470  177.8580  146.8380 C   0  0  0  0  0  3  0  0  0  0  0  0
  191.7250  176.1750  146.2940 O   0  0  0  0  0  0  0  0  0  0  0  0
  189.7280  176.9610  145.2280 C   0  0  1  0  0  3  0  0  0  0  0  0
  189.0560  177.8800  147.9100 C   0  0  0  0  0  3  0  0  0  0  0  0
  190.6330  176.7880  146.4190 C   0  0  0  0  0  0  0  0  0  0  0  0
  188.3300  177.4030  145.6120 C   0  0  0  0  0  0  0  0  0  0  0  0
  187.2420  177.3690  144.5870 C   0  0  0  0  0  2  0  0  0  0  0  0
  185.0830  178.2390  142.7820 N   0  0  0  0  0  2  0  0  0  0  0  0
  184.0120  179.0960  144.6720 O   0  0  0  0  0  0  0  0  0  0  0  0
  186.0820  178.1190  145.0490 N   0  0  0  0  0  2  0  0  0  0  0  0
  185.0130  178.5050  144.1850 C   0  0  0  0  0  0  0  0  0  0  0  0
  184.0380  178.6440  141.8510 C   0  0  0  0  0  2  0  0  0  0  0  0
  184.5250  178.5210  140.4170 C   0  0  0  0  0  2  0  0  0  0  0  0
  184.8000  179.7850  139.8960 O   0  0  0  0  0  1  0  0  0  0  0  0
  190.4720  178.1630  144.0820 S   0  0  0  0  0  0  0  0  0  0  0  0
  190.7420  176.8900  142.8140 C   0  0  0  0  0  2  0  0  0  0  0  0
  191.5890  177.4530  141.6860 C   0  0  0  0  0  2  0  0  0  0  0  0
  190.7740  177.5540  140.4060 C   0  0  1  0  0  3  0  0  0  0  0  0
  190.6320  175.7780  138.8400 O   0  0  0  0  0  0  0  0  0  0  0  0
  191.3550  176.6850  139.3300 C   0  0  0  0  0  0  0  0  0  0  0  0
  193.3050  175.8810  138.0200 C   0  0  0  0  0  1  0  0  0  0  0  0
  192.6600  176.8410  138.8440 O   0  0  0  0  0  0  0  0  0  0  0  0
  189.3070  177.2300  140.6660 C   0  0  0  0  0  2  0  0  0  0  0  0
  188.4020  178.3180  140.1100 C   0  0  0  0  0  1  0  0  0  0  0  0
  187.7620  177.8700  138.6750 C   0  0  0  0  0  1  0  0  0  0  0  0
  188.0880  178.5170  138.7360 O   0  0  0  0  0  0  0  0  0  0  0  0
  188.3200  178.7010  137.5120 C   0  0  0  0  0  2  0  0  0  0  0  0
  187.4880  179.4820  136.7210 O   0  0  0  0  0  1  0  0  0  0  0  0
  1  5  2  0  0  0  0
  2  5  1  0  0  0  0
  3  6  2  0  0  0  0
  4 16  1  6  0  0  0
  4  7  1  0  0  0  0
  4  6  1  0  0  0  0
  6  1  1  0  0  0  0
  7  2  2  0  0  0  0
  8 11  1  0  0  0  0
  8  7  1  0  0  0  0
  9 12  1  0  0  0  0
 12 10  2  0  0  0  0
 12 11  1  0  0  0  0
 13  9  1  0  0  0  0
 14 13  1  0  0  0  0
 15 14  1  0  0  0  0
 17 16  1  0  0  0  0
 18 17  1  0  0  0  0
 19 24  1  1  0  0  0
 19 18  1  0  0  0  0
 20 21  2  0  0  0  0
 21 19  1  0  0  0  0
 22 23  1  0  0  0  0
 23 21  1  0  0  0  0
 25 24  1  0  0  0  0
 26 27  1  0  0  0  0
 28 27  1  0  0  0  0
 29 28  1  0  0  0  0
M  END
>  <MODEL>
3

>  <REMARK>
 VINA RESULT:      -7.2      2.030      6.391
  Name = 
  14 active torsions:
  status: ('A' for Active; 'I' for Inactive)
    1  A    between atoms: C_2  and  C_13
    2  A    between atoms: C_2  and  C_17
    3  A    between atoms: C_6  and  C_11
    4  A    between atoms: C_7  and  N_24
    5  A    between atoms: C_7  and  C_26
    6  A    between atoms: N_9  and  C_11
    7  A    between atoms: C_10  and  C_19
    8  A    between atoms: C_10  and  C_25
    9  A    between atoms: C_10  and  C_29
   10  A    between atoms: C_15  and  S_28
   11  A    between atoms: C_17  and  C_25
   12  A    between atoms: C_18  and  S_28
   13  A    between atoms: C_18  and  C_29
   14  A    between atoms: C_19  and  O_23
                            x       y       z     vdW  Elec       q    Type
                         _______ _______ _______ _____ _____    ______ ____

>  <TORSDO>
F 14

$$$$
=
 OpenBabel10222415523D

 29 28  0  0  1  0  0  0  0  0999 V2000
  191.1970  176.6160  146.9000 C   0  0  0  0  0  3  0  0  0  0  0  0
  188.9200  177.5010  146.8660 C   0  0  0  0  0  3  0  0  0  0  0  0
  192.0440  175.8250  144.8430 O   0  0  0  0  0  0  0  0  0  0  0  0
  189.9800  177.0290  144.6590 C   0  0  1  0  0  3  0  0  0  0  0  0
  190.1610  177.1270  147.5650 C   0  0  0  0  0  3  0  0  0  0  0  0
  191.1240  176.4410  145.4420 C   0  0  0  0  0  0  0  0  0  0  0  0
  188.8090  177.4240  145.5350 C   0  0  0  0  0  0  0  0  0  0  0  0
  187.5020  177.7760  144.9000 C   0  0  0  0  0  2  0  0  0  0  0  0
  184.7430  178.5690  144.2420 N   0  0  0  0  0  2  0  0  0  0  0  0
  184.3740  178.7470  146.5410 O   0  0  0  0  0  0  0  0  0  0  0  0
  186.5270  178.1520  145.9140 N   0  0  0  0  0  2  0  0  0  0  0  0
  185.1760  178.4960  145.6030 C   0  0  0  0  0  0  0  0  0  0  0  0
  183.3870  178.9500  143.8680 C   0  0  0  0  0  2  0  0  0  0  0  0
  183.1780  178.7730  142.3730 C   0  0  0  0  0  2  0  0  0  0  0  0
  181.8190  178.8530  142.0700 O   0  0  0  0  0  1  0  0  0  0  0  0
  190.5760  178.4720  143.7230 S   0  0  0  0  0  0  0  0  0  0  0  0
  190.6680  177.5190  142.1790 C   0  0  0  0  0  2  0  0  0  0  0  0
  189.2800  177.3670  141.5810 C   0  0  0  0  0  2  0  0  0  0  0  0
  189.3610  177.2580  140.0650 C   0  0  1  0  0  3  0  0  0  0  0  0
  187.4040  178.5820  139.8610 O   0  0  0  0  0  0  0  0  0  0  0  0
  188.5510  178.3360  139.4060 C   0  0  0  0  0  0  0  0  0  0  0  0
  188.4560  178.9910  137.0130 C   0  0  0  0  0  1  0  0  0  0  0  0
  189.0170  179.0810  138.3150 O   0  0  0  0  0  0  0  0  0  0  0  0
  190.8100  177.2690  139.5930 C   0  0  0  0  0  2  0  0  0  0  0  0
  191.0510  176.1930  138.5460 C   0  0  0  0  0  1  0  0  0  0  0  0
  192.4720  176.4320  137.7790 C   0  0  0  0  0  1  0  0  0  0  0  0
  192.4120  175.8870  138.2560 O   0  0  0  0  0  0  0  0  0  0  0  0
  193.3700  175.1880  137.8290 C   0  0  0  0  0  2  0  0  0  0  0  0
  194.6250  175.2290  138.4230 O   0  0  0  0  0  1  0  0  0  0  0  0
  1  5  2  0  0  0  0
  2  5  1  0  0  0  0
  3  6  2  0  0  0  0
  4 16  1  1  0  0  0
  4  6  1  0  0  0  0
  4  7  1  0  0  0  0
  6  1  1  0  0  0  0
  7  2  2  0  0  0  0
  8  7  1  0  0  0  0
  8 11  1  0  0  0  0
  9 12  1  0  0  0  0
 12 11  1  0  0  0  0
 12 10  2  0  0  0  0
 13  9  1  0  0  0  0
 14 13  1  0  0  0  0
 15 14  1  0  0  0  0
 17 16  1  0  0  0  0
 18 17  1  0  0  0  0
 19 24  1  6  0  0  0
 19 18  1  0  0  0  0
 21 20  2  0  0  0  0
 21 19  1  0  0  0  0
 22 23  1  0  0  0  0
 23 21  1  0  0  0  0
 25 24  1  0  0  0  0
 26 27  1  0  0  0  0
 28 27  1  0  0  0  0
 28 29  1  0  0  0  0
M  END
>  <MODEL>
4

>  <REMARK>
 VINA RESULT:      -7.1      2.321      7.311
  Name = 
  14 active torsions:
  status: ('A' for Active; 'I' for Inactive)
    1  A    between atoms: C_2  and  C_13
    2  A    between atoms: C_2  and  C_17
    3  A    between atoms: C_6  and  C_11
    4  A    between atoms: C_7  and  N_24
    5  A    between atoms: C_7  and  C_26
    6  A    between atoms: N_9  and  C_11
    7  A    between atoms: C_10  and  C_19
    8  A    between atoms: C_10  and  C_25
    9  A    between atoms: C_10  and  C_29
   10  A    between atoms: C_15  and  S_28
   11  A    between atoms: C_17  and  C_25
   12  A    between atoms: C_18  and  S_28
   13  A    between atoms: C_18  and  C_29
   14  A    between atoms: C_19  and  O_23
                            x       y       z     vdW  Elec       q    Type
                         _______ _______ _______ _____ _____    ______ ____

>  <TORSDO>
F 14

$$$$
=
 OpenBabel10222415523D

 29 29  0  0  1  0  0  0  0  0999 V2000
  190.4450  177.1220  147.4370 C   0  0  0  0  0  3  0  0  0  0  0  0
  188.2120  177.4790  146.5160 C   0  0  0  0  0  3  0  0  0  0  0  0
  192.0710  176.2790  145.9480 O   0  0  0  0  0  0  0  0  0  0  0  0
  190.0350  176.9730  144.8910 C   0  0  1  0  0  3  0  0  0  0  0  0
  189.1750  177.4760  147.6290 C   0  0  0  0  0  3  0  0  0  0  0  0
  190.9140  176.7520  146.0940 C   0  0  0  0  0  0  0  0  0  0  0  0
  188.5850  177.2120  145.2580 C   0  0  0  0  0  0  0  0  0  0  0  0
  187.5420  177.1890  144.1880 C   0  0  0  0  0  2  0  0  0  0  0  0
  185.4790  178.3260  142.4180 N   0  0  0  0  0  2  0  0  0  0  0  0
  184.1770  178.6300  144.3320 O   0  0  0  0  0  0  0  0  0  0  0  0
  186.2850  177.7280  144.6870 N   0  0  0  0  0  2  0  0  0  0  0  0
  185.2640  178.2410  143.8300 C   0  0  0  0  0  0  0  0  0  0  0  0
  184.4870  178.8730  141.5030 C   0  0  0  0  0  2  0  0  0  0  0  0
  185.0160  178.8670  140.0780 C   0  0  0  0  0  2  0  0  0  0  0  0
  184.5330  179.9770  139.3860 O   0  0  0  0  0  1  0  0  0  0  0  0
  190.6780  178.3800  143.9330 S   0  0  0  0  0  0  0  0  0  0  0  0
  191.2950  177.2900  142.6160 C   0  0  0  0  0  2  0  0  0  0  0  0
  190.1390  176.5270  141.9920 C   0  0  0  0  0  2  0  0  0  0  0  0
  190.0790  176.7840  140.4930 C   0  0  1  0  0  3  0  0  0  0  0  0
  188.5880  178.5510  141.0240 O   0  0  0  0  0  0  0  0  0  0  0  0
  188.9550  177.7190  140.1540 C   0  0  0  0  0  0  0  0  0  0  0  0
  188.6440  178.5830  137.8470 C   0  0  0  0  0  1  0  0  0  0  0  0
  188.3020  177.7100  138.9140 O   0  0  0  0  0  0  0  0  0  0  0  0
  191.4170  177.2940  139.9710 C   0  0  0  0  0  2  0  0  0  0  0  0
  191.6300  176.8840  138.5230 C   0  0  0  0  0  2  0  0  0  0  0  0
  191.4720  175.2680  138.3440 C   0  0  0  0  0  2  0  0  0  0  0  0
  191.3670  174.6570  137.9640 O   0  0  0  0  0  0  0  0  0  0  0  0
  192.4180  174.7130  137.2710 C   0  0  0  0  0  2  0  0  0  0  0  0
  193.5580  174.0000  137.6160 O   0  0  0  0  0  1  0  0  0  0  0  0
  1  5  2  0  0  0  0
  2  5  1  0  0  0  0
  3  6  2  0  0  0  0
  4 16  1  1  0  0  0
  4  7  1  0  0  0  0
  4  6  1  0  0  0  0
  6  1  1  0  0  0  0
  7  2  2  0  0  0  0
  8 11  1  0  0  0  0
  8  7  1  0  0  0  0
  9 12  1  0  0  0  0
 12 10  2  0  0  0  0
 12 11  1  0  0  0  0
 13  9  1  0  0  0  0
 14 13  1  0  0  0  0
 15 14  1  0  0  0  0
 17 16  1  0  0  0  0
 18 17  1  0  0  0  0
 19 24  1  1  0  0  0
 19 18  1  0  0  0  0
 21 19  1  0  0  0  0
 21 20  2  0  0  0  0
 22 23  1  0  0  0  0
 23 21  1  0  0  0  0
 25 24  1  0  0  0  0
 26 25  1  0  0  0  0
 27 26  1  0  0  0  0
 28 29  1  0  0  0  0
 28 27  1  0  0  0  0
M  END
>  <MODEL>
5

>  <REMARK>
 VINA RESULT:      -7.0      2.328      7.079
  Name = 
  14 active torsions:
  status: ('A' for Active; 'I' for Inactive)
    1  A    between atoms: C_2  and  C_13
    2  A    between atoms: C_2  and  C_17
    3  A    between atoms: C_6  and  C_11
    4  A    between atoms: C_7  and  N_24
    5  A    between atoms: C_7  and  C_26
    6  A    between atoms: N_9  and  C_11
    7  A    between atoms: C_10  and  C_19
    8  A    between atoms: C_10  and  C_25
    9  A    between atoms: C_10  and  C_29
   10  A    between atoms: C_15  and  S_28
   11  A    between atoms: C_17  and  C_25
   12  A    between atoms: C_18  and  S_28
   13  A    between atoms: C_18  and  C_29
   14  A    between atoms: C_19  and  O_23
                            x       y       z     vdW  Elec       q    Type
                         _______ _______ _______ _____ _____    ______ ____

>  <TORSDO>
F 14

$$$$
=
 OpenBabel10222415523D

 29 29  0  0  1  0  0  0  0  0999 V2000
  191.9690  177.3610  141.6280 C   0  0  0  0  0  3  0  0  0  0  0  0
  190.0740  177.7420  140.1360 C   0  0  0  0  0  3  0  0  0  0  0  0
  191.5630  177.6570  143.9350 O   0  0  0  0  0  0  0  0  0  0  0  0
  189.5860  177.6580  142.5800 C   0  0  1  0  0  3  0  0  0  0  0  0
  191.4900  177.4280  140.3870 C   0  0  0  0  0  3  0  0  0  0  0  0
  191.0770  177.5760  142.7760 C   0  0  0  0  0  0  0  0  0  0  0  0
  189.1960  177.8890  141.1350 C   0  0  0  0  0  0  0  0  0  0  0  0
  187.7840  178.2540  140.8040 C   0  0  0  0  0  2  0  0  0  0  0  0
  185.2080  178.9500  139.5560 N   0  0  0  0  0  2  0  0  0  0  0  0
  186.2630  178.6500  137.4940 O   0  0  0  0  0  0  0  0  0  0  0  0
  187.5770  178.2430  139.3620 N   0  0  0  0  0  2  0  0  0  0  0  0
  186.3440  178.6220  138.7510 C   0  0  0  0  0  0  0  0  0  0  0  0
  183.9160  179.3070  138.9850 C   0  0  0  0  0  2  0  0  0  0  0  0
  182.8060  178.4930  139.6290 C   0  0  0  0  0  2  0  0  0  0  0  0
  181.8210  179.3440  140.1300 O   0  0  0  0  0  1  0  0  0  0  0  0
  188.8170  176.1290  143.1990 S   0  0  0  0  0  0  0  0  0  0  0  0
  187.5050  177.0530  144.0510 C   0  0  0  0  0  2  0  0  0  0  0  0
  188.1040  177.9000  145.1600 C   0  0  0  0  0  2  0  0  0  0  0  0
  187.4380  177.5840  146.4910 C   0  0  1  0  0  3  0  0  0  0  0  0
  188.3440  177.9110  148.6590 O   0  0  0  0  0  0  0  0  0  0  0  0
  188.4630  177.3200  147.5550 C   0  0  0  0  0  0  0  0  0  0  0  0
  190.8980  176.8430  147.4740 C   0  0  0  0  0  1  0  0  0  0  0  0
  189.5400  176.4410  147.3760 O   0  0  0  0  0  0  0  0  0  0  0  0
  186.4740  178.6940  146.8970 C   0  0  0  0  0  2  0  0  0  0  0  0
  185.0520  178.3620  146.4750 C   0  0  0  0  0  2  0  0  0  0  0  0
  184.6110  179.2350  145.1680 C   0  0  0  0  0  2  0  0  0  0  0  0
  184.4080  178.5710  144.9530 O   0  0  0  0  0  0  0  0  0  0  0  0
  183.2150  178.8490  144.6620 C   0  0  0  0  0  2  0  0  0  0  0  0
  182.8240  179.1120  143.3550 O   0  0  0  0  0  1  0  0  0  0  0  0
  1  6  1  0  0  0  0
  2  5  1  0  0  0  0
  2  7  2  0  0  0  0
  4  6  1  0  0  0  0
  4 16  1  6  0  0  0
  5  1  2  0  0  0  0
  6  3  2  0  0  0  0
  7  4  1  0  0  0  0
  8  7  1  0  0  0  0
 10 12  2  0  0  0  0
 11  8  1  0  0  0  0
 12 11  1  0  0  0  0
 12  9  1  0  0  0  0
 13  9  1  0  0  0  0
 13 14  1  0  0  0  0
 14 15  1  0  0  0  0
 16 17  1  0  0  0  0
 17 18  1  0  0  0  0
 19 18  1  6  0  0  0
 19 24  1  0  0  0  0
 19 21  1  0  0  0  0
 21 20  2  0  0  0  0
 23 22  1  0  0  0  0
 23 21  1  0  0  0  0
 25 24  1  0  0  0  0
 26 25  1  0  0  0  0
 27 26  1  0  0  0  0
 28 27  1  0  0  0  0
 29 28  1  0  0  0  0
M  END
>  <MODEL>
6

>  <REMARK>
 VINA RESULT:      -7.0      1.675      2.678
  Name = 
  14 active torsions:
  status: ('A' for Active; 'I' for Inactive)
    1  A    between atoms: C_2  and  C_13
    2  A    between atoms: C_2  and  C_17
    3  A    between atoms: C_6  and  C_11
    4  A    between atoms: C_7  and  N_24
    5  A    between atoms: C_7  and  C_26
    6  A    between atoms: N_9  and  C_11
    7  A    between atoms: C_10  and  C_19
    8  A    between atoms: C_10  and  C_25
    9  A    between atoms: C_10  and  C_29
   10  A    between atoms: C_15  and  S_28
   11  A    between atoms: C_17  and  C_25
   12  A    between atoms: C_18  and  S_28
   13  A    between atoms: C_18  and  C_29
   14  A    between atoms: C_19  and  O_23
                            x       y       z     vdW  Elec       q    Type
                         _______ _______ _______ _____ _____    ______ ____

>  <TORSDO>
F 14

$$$$
=
 OpenBabel10222415523D

 29 28  0  0  1  0  0  0  0  0999 V2000
  191.4130  176.7270  145.8290 C   0  0  0  0  0  3  0  0  0  0  0  0
  189.0870  177.3440  146.2470 C   0  0  0  0  0  3  0  0  0  0  0  0
  191.8930  175.8280  143.7000 O   0  0  0  0  0  0  0  0  0  0  0  0
  189.6980  176.7700  143.8980 C   0  0  1  0  0  3  0  0  0  0  0  0
  190.4880  177.1840  146.6710 C   0  0  0  0  0  3  0  0  0  0  0  0
  191.0510  176.3960  144.4430 C   0  0  0  0  0  0  0  0  0  0  0  0
  188.7020  177.1190  144.9850 C   0  0  0  0  0  0  0  0  0  0  0  0
  187.2550  177.2570  144.6380 C   0  0  0  0  0  2  0  0  0  0  0  0
  184.8330  178.8930  144.2690 N   0  0  0  0  0  2  0  0  0  0  0  0
  184.6980  179.0030  146.5980 O   0  0  0  0  0  0  0  0  0  0  0  0
  186.5150  177.8340  145.7520 N   0  0  0  0  0  2  0  0  0  0  0  0
  185.3170  178.5920  145.5810 C   0  0  0  0  0  0  0  0  0  0  0  0
  183.6380  179.6930  144.0370 C   0  0  0  0  0  2  0  0  0  0  0  0
  182.4190  178.7970  143.8910 C   0  0  0  0  0  2  0  0  0  0  0  0
  181.4840  179.3970  143.0480 O   0  0  0  0  0  1  0  0  0  0  0  0
  189.8830  178.1660  142.7460 S   0  0  0  0  0  0  0  0  0  0  0  0
  189.1510  177.2220  141.3770 C   0  0  0  0  0  2  0  0  0  0  0  0
  190.0290  177.3350  140.1430 C   0  0  0  0  0  2  0  0  0  0  0  0
  189.1970  177.1730  138.8790 C   0  0  1  0  0  3  0  0  0  0  0  0
  189.0560  179.3780  138.0160 O   0  0  0  0  0  0  0  0  0  0  0  0
  188.4390  178.4310  138.5710 C   0  0  0  0  0  0  0  0  0  0  0  0
  186.0370  178.2320  137.9750 C   0  0  0  0  0  1  0  0  0  0  0  0
  187.0800  178.5960  138.8680 O   0  0  0  0  0  0  0  0  0  0  0  0
  190.0650  176.7320  137.7050 C   0  0  0  0  0  2  0  0  0  0  0  0
  190.5910  175.3220  137.9170 C   0  0  0  0  0  1  0  0  0  0  0  0
  191.9910  175.0930  137.1080 C   0  0  0  0  0  1  0  0  0  0  0  0
  191.9700  175.3570  137.7850 O   0  0  0  0  0  0  0  0  0  0  0  0
  193.2100  175.5210  137.9360 C   0  0  0  0  0  2  0  0  0  0  0  0
  193.8120  176.7580  137.7460 O   0  0  0  0  0  1  0  0  0  0  0  0
  1  5  2  0  0  0  0
  2  5  1  0  0  0  0
  3  6  2  0  0  0  0
  4 16  1  6  0  0  0
  4  6  1  0  0  0  0
  4  7  1  0  0  0  0
  6  1  1  0  0  0  0
  7  2  2  0  0  0  0
  8  7  1  0  0  0  0
  8 11  1  0  0  0  0
  9 12  1  0  0  0  0
 12 11  1  0  0  0  0
 12 10  2  0  0  0  0
 13  9  1  0  0  0  0
 14 13  1  0  0  0  0
 15 14  1  0  0  0  0
 17 16  1  0  0  0  0
 18 17  1  0  0  0  0
 19 24  1  6  0  0  0
 19 18  1  0  0  0  0
 20 21  2  0  0  0  0
 21 23  1  0  0  0  0
 21 19  1  0  0  0  0
 22 23  1  0  0  0  0
 24 25  1  0  0  0  0
 26 27  1  0  0  0  0
 27 28  1  0  0  0  0
 29 28  1  0  0  0  0
M  END
>  <MODEL>
7

>  <REMARK>
 VINA RESULT:      -6.7      2.414      7.427
  Name = 
  14 active torsions:
  status: ('A' for Active; 'I' for Inactive)
    1  A    between atoms: C_2  and  C_13
    2  A    between atoms: C_2  and  C_17
    3  A    between atoms: C_6  and  C_11
    4  A    between atoms: C_7  and  N_24
    5  A    between atoms: C_7  and  C_26
    6  A    between atoms: N_9  and  C_11
    7  A    between atoms: C_10  and  C_19
    8  A    between atoms: C_10  and  C_25
    9  A    between atoms: C_10  and  C_29
   10  A    between atoms: C_15  and  S_28
   11  A    between atoms: C_17  and  C_25
   12  A    between atoms: C_18  and  S_28
   13  A    between atoms: C_18  and  C_29
   14  A    between atoms: C_19  and  O_23
                            x       y       z     vdW  Elec       q    Type
                         _______ _______ _______ _____ _____    ______ ____

>  <TORSDO>
F 14

$$$$
=
 OpenBabel10222415523D

 29 29  0  0  1  0  0  0  0  0999 V2000
  191.4580  176.5180  146.1160 C   0  0  0  0  0  3  0  0  0  0  0  0
  189.2420  177.4990  146.4170 C   0  0  0  0  0  3  0  0  0  0  0  0
  191.9460  175.6690  143.9680 O   0  0  0  0  0  0  0  0  0  0  0  0
  189.9300  176.9590  144.0810 C   0  0  1  0  0  3  0  0  0  0  0  0
  190.5600  177.0800  146.9230 C   0  0  0  0  0  3  0  0  0  0  0  0
  191.1560  176.3310  144.6900 C   0  0  0  0  0  0  0  0  0  0  0  0
  188.9250  177.4140  145.1200 C   0  0  0  0  0  0  0  0  0  0  0  0
  187.5510  177.8150  144.6870 C   0  0  0  0  0  2  0  0  0  0  0  0
  184.8810  179.0460  144.5020 N   0  0  0  0  0  2  0  0  0  0  0  0
  184.6540  178.6090  146.7850 O   0  0  0  0  0  0  0  0  0  0  0  0
  186.6830  177.9920  145.8420 N   0  0  0  0  0  2  0  0  0  0  0  0
  185.3710  178.5480  145.7500 C   0  0  0  0  0  0  0  0  0  0  0  0
  183.5660  179.6560  144.3600 C   0  0  0  0  0  2  0  0  0  0  0  0
  182.6250  178.7240  143.6160 C   0  0  0  0  0  2  0  0  0  0  0  0
  181.5090  179.4310  143.1670 O   0  0  0  0  0  1  0  0  0  0  0  0
  190.4340  178.3650  143.0410 S   0  0  0  0  0  0  0  0  0  0  0  0
  189.7030  177.6160  141.5550 C   0  0  0  0  0  2  0  0  0  0  0  0
  190.6970  176.6610  140.9150 C   0  0  0  0  0  2  0  0  0  0  0  0
  191.0520  177.1250  139.5100 C   0  0  1  0  0  3  0  0  0  0  0  0
  193.3980  177.2820  139.8240 O   0  0  0  0  0  0  0  0  0  0  0  0
  192.4650  176.7550  139.1650 C   0  0  0  0  0  0  0  0  0  0  0  0
  193.5490  176.1990  137.0020 C   0  0  0  0  0  1  0  0  0  0  0  0
  192.7890  175.8460  138.1480 O   0  0  0  0  0  0  0  0  0  0  0  0
  190.0580  176.5830  138.4890 C   0  0  0  0  0  2  0  0  0  0  0  0
  189.9390  177.5190  137.2960 C   0  0  0  0  0  2  0  0  0  0  0  0
  189.0420  178.8310  137.6710 C   0  0  0  0  0  2  0  0  0  0  0  0
  188.6810  179.4270  137.4620 O   0  0  0  0  0  0  0  0  0  0  0  0
  187.7030  178.8460  136.9220 C   0  0  0  0  0  2  0  0  0  0  0  0
  186.5000  178.6640  137.5920 O   0  0  0  0  0  1  0  0  0  0  0  0
  1  5  2  0  0  0  0
  2  5  1  0  0  0  0
  3  6  2  0  0  0  0
  4 16  1  1  0  0  0
  4  6  1  0  0  0  0
  4  7  1  0  0  0  0
  6  1  1  0  0  0  0
  7  2  2  0  0  0  0
  8  7  1  0  0  0  0
  8 11  1  0  0  0  0
  9 12  1  0  0  0  0
 12 11  1  0  0  0  0
 12 10  2  0  0  0  0
 13  9  1  0  0  0  0
 14 13  1  0  0  0  0
 15 14  1  0  0  0  0
 17 16  1  0  0  0  0
 18 17  1  0  0  0  0
 19 24  1  6  0  0  0
 19 18  1  0  0  0  0
 21 19  1  0  0  0  0
 21 20  2  0  0  0  0
 22 23  1  0  0  0  0
 23 21  1  0  0  0  0
 25 26  1  0  0  0  0
 25 24  1  0  0  0  0
 27 26  1  0  0  0  0
 28 27  1  0  0  0  0
 28 29  1  0  0  0  0
M  END
>  <MODEL>
8

>  <REMARK>
 VINA RESULT:      -6.7      2.260      6.705
  Name = 
  14 active torsions:
  status: ('A' for Active; 'I' for Inactive)
    1  A    between atoms: C_2  and  C_13
    2  A    between atoms: C_2  and  C_17
    3  A    between atoms: C_6  and  C_11
    4  A    between atoms: C_7  and  N_24
    5  A    between atoms: C_7  and  C_26
    6  A    between atoms: N_9  and  C_11
    7  A    between atoms: C_10  and  C_19
    8  A    between atoms: C_10  and  C_25
    9  A    between atoms: C_10  and  C_29
   10  A    between atoms: C_15  and  S_28
   11  A    between atoms: C_17  and  C_25
   12  A    between atoms: C_18  and  S_28
   13  A    between atoms: C_18  and  C_29
   14  A    between atoms: C_19  and  O_23
                            x       y       z     vdW  Elec       q    Type
                         _______ _______ _______ _____ _____    ______ ____

>  <TORSDO>
F 14

$$$$
=
 OpenBabel10222415523D

 29 29  0  0  1  0  0  0  0  0999 V2000
  189.8810  177.4920  146.7140 C   0  0  0  0  0  3  0  0  0  0  0  0
  187.8200  177.5280  145.4050 C   0  0  0  0  0  3  0  0  0  0  0  0
  191.7620  176.5080  145.6810 O   0  0  0  0  0  0  0  0  0  0  0  0
  189.9040  176.8630  144.2090 C   0  0  1  0  0  3  0  0  0  0  0  0
  188.5850  177.7890  146.6360 C   0  0  0  0  0  3  0  0  0  0  0  0
  190.5790  176.9200  145.5540 C   0  0  0  0  0  0  0  0  0  0  0  0
  188.4060  177.0660  144.2940 C   0  0  0  0  0  0  0  0  0  0  0  0
  187.5560  176.7810  143.0980 C   0  0  0  0  0  2  0  0  0  0  0  0
  184.8940  178.0420  143.1440 N   0  0  0  0  0  2  0  0  0  0  0  0
  185.8120  179.7480  141.8410 O   0  0  0  0  0  0  0  0  0  0  0  0
  187.2540  178.0120  142.3810 N   0  0  0  0  0  2  0  0  0  0  0  0
  185.9770  178.6500  142.4350 C   0  0  0  0  0  0  0  0  0  0  0  0
  183.5630  178.6300  143.2010 C   0  0  0  0  0  2  0  0  0  0  0  0
  183.3030  179.2260  144.5750 C   0  0  0  0  0  2  0  0  0  0  0  0
  184.3590  178.9210  145.4340 O   0  0  0  0  0  1  0  0  0  0  0  0
  190.6440  178.1160  143.1160 S   0  0  0  0  0  0  0  0  0  0  0  0
  190.8430  176.9170  141.7640 C   0  0  0  0  0  2  0  0  0  0  0  0
  191.7240  177.5060  140.6760 C   0  0  0  0  0  2  0  0  0  0  0  0
  191.1100  177.2650  139.3040 C   0  0  1  0  0  3  0  0  0  0  0  0
  191.2090  175.0980  138.3460 O   0  0  0  0  0  0  0  0  0  0  0  0
  191.8310  176.1670  138.5790 C   0  0  0  0  0  0  0  0  0  0  0  0
  193.5300  176.3470  136.7780 C   0  0  0  0  0  1  0  0  0  0  0  0
  193.1590  176.2810  138.1470 O   0  0  0  0  0  0  0  0  0  0  0  0
  189.6160  176.9850  139.4160 C   0  0  0  0  0  2  0  0  0  0  0  0
  188.8580  177.6010  138.2510 C   0  0  0  0  0  2  0  0  0  0  0  0
  187.3870  178.1300  138.7250 C   0  0  0  0  0  2  0  0  0  0  0  0
  186.8720  178.6250  138.5920 O   0  0  0  0  0  0  0  0  0  0  0  0
  186.3570  178.0600  137.5900 C   0  0  0  0  0  2  0  0  0  0  0  0
  185.2150  177.2780  137.7020 O   0  0  0  0  0  1  0  0  0  0  0  0
  2  5  1  0  0  0  0
  4 16  1  6  0  0  0
  4  7  1  0  0  0  0
  4  6  1  0  0  0  0
  5  1  2  0  0  0  0
  6  3  2  0  0  0  0
  6  1  1  0  0  0  0
  7  2  2  0  0  0  0
  8  7  1  0  0  0  0
  9 13  1  0  0  0  0
 10 12  2  0  0  0  0
 11 12  1  0  0  0  0
 11  8  1  0  0  0  0
 12  9  1  0  0  0  0
 13 14  1  0  0  0  0
 14 15  1  0  0  0  0
 17 16  1  0  0  0  0
 18 17  1  0  0  0  0
 19 24  1  1  0  0  0
 19 18  1  0  0  0  0
 20 21  2  0  0  0  0
 21 19  1  0  0  0  0
 22 23  1  0  0  0  0
 23 21  1  0  0  0  0
 25 26  1  0  0  0  0
 25 24  1  0  0  0  0
 27 26  1  0  0  0  0
 28 29  1  0  0  0  0
 28 27  1  0  0  0  0
M  END
>  <MODEL>
9

>  <REMARK>
 VINA RESULT:      -6.7      2.054      6.243
  Name = 
  14 active torsions:
  status: ('A' for Active; 'I' for Inactive)
    1  A    between atoms: C_2  and  C_13
    2  A    between atoms: C_2  and  C_17
    3  A    between atoms: C_6  and  C_11
    4  A    between atoms: C_7  and  N_24
    5  A    between atoms: C_7  and  C_26
    6  A    between atoms: N_9  and  C_11
    7  A    between atoms: C_10  and  C_19
    8  A    between atoms: C_10  and  C_25
    9  A    between atoms: C_10  and  C_29
   10  A    between atoms: C_15  and  S_28
   11  A    between atoms: C_17  and  C_25
   12  A    between atoms: C_18  and  S_28
   13  A    between atoms: C_18  and  C_29
   14  A    between atoms: C_19  and  O_23
                            x       y       z     vdW  Elec       q    Type
                         _______ _______ _______ _____ _____    ______ ____

>  <TORSDO>
F 14

$$$$
