=
 OpenBabel10222416383D

 30 34  0  0  1  0  0  0  0  0999 V2000
  184.1280  180.0840  144.2700 C   0  0  0  0  0  2  0  0  0  0  0  0
  184.7570  178.7910  143.7640 C   0  0  2  0  0  0  0  0  0  0  0  0
  183.2860  178.8140  144.2010 C   0  0  2  0  0  3  0  0  0  0  0  0
  188.1820  178.2590  145.1040 C   0  0  1  0  0  3  0  0  0  0  0  0
  190.4480  177.1520  145.4810 N   0  0  0  0  0  0  0  0  0  0  0  0
  185.6530  178.7320  145.9920 C   0  0  0  0  0  2  0  0  0  0  0  0
  188.7360  177.0010  147.1740 C   0  0  0  0  0  3  0  0  0  0  0  0
  187.1820  176.4700  143.6020 C   0  0  0  0  0  1  0  0  0  0  0  0
  187.8550  177.7120  146.4690 C   0  0  0  0  0  0  0  0  0  0  0  0
  189.5660  177.8940  144.6270 C   0  0  0  0  0  0  0  0  0  0  0  0
  185.6860  178.0820  144.6690 N   0  0  2  0  0  0  0  0  0  0  0  0
  186.4790  177.9420  147.0080 C   0  0  0  0  0  2  0  0  0  0  0  0
  190.0950  176.7260  146.6560 C   0  0  0  0  0  0  0  0  0  0  0  0
  190.0080  178.3640  143.5080 N   0  0  0  0  0  2  0  0  0  0  0  0
  187.0530  177.9000  144.1110 C   0  0  1  0  0  3  0  0  0  0  0  0
  192.3030  175.6510  146.9220 C   0  0  0  0  0  1  0  0  0  0  0  0
  191.0160  175.9960  147.4110 O   0  0  0  0  0  0  0  0  0  0  0  0
  186.1510  179.5850  141.7300 C   0  0  0  0  0  3  0  0  0  0  0  0
  185.1070  178.6330  140.1260 C   0  0  0  0  0  0  0  0  0  0  0  0
  184.6830  178.2250  138.8630 C   0  0  0  0  0  3  0  0  0  0  0  0
  184.4760  178.2230  141.2660 C   0  0  0  0  0  0  0  0  0  0  0  0
  185.1440  178.8160  142.3110 C   0  0  0  0  0  0  0  0  0  0  0  0
  183.3560  177.3920  141.2360 C   0  0  0  0  0  3  0  0  0  0  0  0
  183.1080  176.9600  137.5910 F   0  0  0  0  0  0  0  0  0  0  0  0
  183.5610  177.3780  138.7960 C   0  0  0  0  0  0  0  0  0  0  0  0
  182.9010  176.9680  139.9750 C   0  0  0  0  0  3  0  0  0  0  0  0
  186.1020  179.4350  140.4160 O   0  0  0  0  0  0  0  0  0  0  0  0
  182.3040  178.9310  143.0410 C   0  0  0  0  0  2  0  0  0  0  0  0
  180.9060  179.2070  143.5590 C   0  0  0  0  0  2  0  0  0  0  0  0
  180.3670  180.3200  142.9100 O   0  0  0  0  0  1  0  0  0  0  0  0
  2 22  1  6  0  0  0
  2  3  1  0  0  0  0
  2  1  1  0  0  0  0
  2 11  1  0  0  0  0
  3 28  1  6  0  0  0
  3  1  1  0  0  0  0
  4 10  1  6  0  0  0
  4  9  1  0  0  0  0
  5 13  2  0  0  0  0
  6 12  1  0  0  0  0
  9 12  1  0  0  0  0
  9  7  2  0  0  0  0
 10  5  1  0  0  0  0
 11  6  1  1  0  0  0
 13  7  1  0  0  0  0
 13 17  1  0  0  0  0
 14 10  2  0  0  0  0
 15  8  1  1  0  0  0
 15 11  1  0  0  0  0
 15  4  1  0  0  0  0
 16 17  1  0  0  0  0
 18 22  2  0  0  0  0
 19 27  1  0  0  0  0
 19 21  1  0  0  0  0
 20 19  2  0  0  0  0
 21 22  1  0  0  0  0
 23 21  2  0  0  0  0
 24 25  1  0  0  0  0
 25 20  1  0  0  0  0
 25 26  2  0  0  0  0
 26 23  1  0  0  0  0
 27 18  1  0  0  0  0
 28 29  1  0  0  0  0
 30 29  1  0  0  0  0
M  END
>  <MODEL>
1

>  <REMARK>
 VINA RESULT:      -8.5      0.000      0.000
  Name = 
  5 active torsions:
  status: ('A' for Active; 'I' for Inactive)
    1  A    between atoms: O_13  and  C_20
    2  A    between atoms: N_15  and  C_22
    3  A    between atoms: C_16  and  C_22
    4  A    between atoms: C_24  and  C_27
    5  A    between atoms: C_25  and  C_27
                            x       y       z     vdW  Elec       q    Type
                         _______ _______ _______ _____ _____    ______ ____

>  <TORSDO>
F 5

$$$$
=
 OpenBabel10222416383D

 30 34  0  0  1  0  0  0  0  0999 V2000
  189.3890  178.9390  138.9580 C   0  0  0  0  0  2  0  0  0  0  0  0
  188.8980  177.5390  139.3050 C   0  0  2  0  0  0  0  0  0  0  0  0
  187.9650  178.5310  138.5960 C   0  0  2  0  0  3  0  0  0  0  0  0
  189.3520  178.2630  142.9220 C   0  0  1  0  0  3  0  0  0  0  0  0
  190.1500  177.9800  145.3270 N   0  0  0  0  0  0  0  0  0  0  0  0
  187.3560  177.9920  141.0910 C   0  0  0  0  0  2  0  0  0  0  0  0
  187.8660  177.4620  144.7460 C   0  0  0  0  0  3  0  0  0  0  0  0
  190.3230  176.1080  141.9910 C   0  0  0  0  0  1  0  0  0  0  0  0
  188.0300  177.7800  143.4610 C   0  0  0  0  0  0  0  0  0  0  0  0
  190.4430  178.3120  143.9630 C   0  0  0  0  0  0  0  0  0  0  0  0
  188.5800  177.2580  140.7210 N   0  0  2  0  0  0  0  0  0  0  0  0
  186.8970  177.6130  142.4990 C   0  0  0  0  0  2  0  0  0  0  0  0
  188.9750  177.5830  145.7180 C   0  0  0  0  0  0  0  0  0  0  0  0
  191.6050  178.7840  143.6580 N   0  0  0  0  0  2  0  0  0  0  0  0
  189.7220  177.4660  141.6510 C   0  0  1  0  0  3  0  0  0  0  0  0
  189.0080  178.1990  148.1100 C   0  0  0  0  0  1  0  0  0  0  0  0
  188.7880  177.2640  147.0640 O   0  0  0  0  0  0  0  0  0  0  0  0
  188.9900  175.3020  138.0040 C   0  0  0  0  0  3  0  0  0  0  0  0
  191.1000  175.0480  137.7820 C   0  0  0  0  0  0  0  0  0  0  0  0
  192.3600  174.5330  137.4840 C   0  0  0  0  0  3  0  0  0  0  0  0
  190.9420  176.2480  138.4140 C   0  0  0  0  0  0  0  0  0  0  0  0
  189.5870  176.4340  138.5530 C   0  0  0  0  0  0  0  0  0  0  0  0
  192.0290  177.0200  138.8210 C   0  0  0  0  0  3  0  0  0  0  0  0
  194.7260  174.8300  137.6110 F   0  0  0  0  0  0  0  0  0  0  0  0
  193.4800  175.2910  137.8730 C   0  0  0  0  0  0  0  0  0  0  0  0
  193.3140  176.5250  138.5400 C   0  0  0  0  0  3  0  0  0  0  0  0
  189.9350  174.5000  137.5390 O   0  0  0  0  0  0  0  0  0  0  0  0
  187.8780  178.3170  137.0890 C   0  0  0  0  0  2  0  0  0  0  0  0
  186.4880  177.8490  136.7030 C   0  0  0  0  0  2  0  0  0  0  0  0
  185.6740  177.7840  137.8370 O   0  0  0  0  0  1  0  0  0  0  0  0
  1  2  1  0  0  0  0
  2 22  1  6  0  0  0
  2 11  1  0  0  0  0
  3 28  1  6  0  0  0
  3  1  1  0  0  0  0
  3  2  1  0  0  0  0
  4  9  1  1  0  0  0
  4 10  1  0  0  0  0
  5 13  2  0  0  0  0
  6 12  1  0  0  0  0
  7 13  1  0  0  0  0
  9  7  2  0  0  0  0
 10  5  1  0  0  0  0
 11  6  1  1  0  0  0
 11 15  1  0  0  0  0
 12  9  1  0  0  0  0
 13 17  1  0  0  0  0
 14 10  2  0  0  0  0
 15  8  1  1  0  0  0
 15  4  1  0  0  0  0
 17 16  1  0  0  0  0
 18 22  2  0  0  0  0
 19 21  1  0  0  0  0
 20 19  2  0  0  0  0
 20 25  1  0  0  0  0
 21 22  1  0  0  0  0
 21 23  2  0  0  0  0
 24 25  1  0  0  0  0
 25 26  2  0  0  0  0
 26 23  1  0  0  0  0
 27 19  1  0  0  0  0
 27 18  1  0  0  0  0
 29 28  1  0  0  0  0
 29 30  1  0  0  0  0
M  END
>  <MODEL>
2

>  <REMARK>
 VINA RESULT:      -8.3      4.825      6.468
  Name = 
  5 active torsions:
  status: ('A' for Active; 'I' for Inactive)
    1  A    between atoms: O_13  and  C_20
    2  A    between atoms: N_15  and  C_22
    3  A    between atoms: C_16  and  C_22
    4  A    between atoms: C_24  and  C_27
    5  A    between atoms: C_25  and  C_27
                            x       y       z     vdW  Elec       q    Type
                         _______ _______ _______ _____ _____    ______ ____

>  <TORSDO>
F 5

$$$$
=
 OpenBabel10222416383D

 30 34  0  0  1  0  0  0  0  0999 V2000
  189.1040  179.0400  139.0300 C   0  0  0  0  0  2  0  0  0  0  0  0
  189.2110  177.5980  139.5110 C   0  0  2  0  0  0  0  0  0  0  0  0
  188.1110  178.0010  138.5210 C   0  0  2  0  0  3  0  0  0  0  0  0
  189.4300  178.1770  143.1760 C   0  0  1  0  0  3  0  0  0  0  0  0
  190.0090  177.7610  145.6240 N   0  0  0  0  0  0  0  0  0  0  0  0
  187.5710  178.1190  141.1870 C   0  0  0  0  0  2  0  0  0  0  0  0
  187.7460  177.4430  144.8500 C   0  0  0  0  0  3  0  0  0  0  0  0
  190.3040  175.9800  142.2460 C   0  0  0  0  0  1  0  0  0  0  0  0
  188.0360  177.7850  143.5940 C   0  0  0  0  0  0  0  0  0  0  0  0
  190.4350  178.1090  144.2990 C   0  0  0  0  0  0  0  0  0  0  0  0
  188.7610  177.3010  140.8880 N   0  0  2  0  0  0  0  0  0  0  0  0
  186.9740  177.7370  142.5420 C   0  0  0  0  0  2  0  0  0  0  0  0
  188.7800  177.4480  145.9080 C   0  0  0  0  0  0  0  0  0  0  0  0
  191.6510  178.4950  144.1020 N   0  0  0  0  0  2  0  0  0  0  0  0
  189.8380  177.3910  141.9090 C   0  0  1  0  0  3  0  0  0  0  0  0
  188.7570  177.9490  148.3270 C   0  0  0  0  0  1  0  0  0  0  0  0
  188.4620  177.1050  147.2240 O   0  0  0  0  0  0  0  0  0  0  0  0
  191.7670  177.3230  139.1920 C   0  0  0  0  0  3  0  0  0  0  0  0
  191.8400  175.5500  138.0020 C   0  0  0  0  0  0  0  0  0  0  0  0
  192.2750  174.4840  137.2170 C   0  0  0  0  0  3  0  0  0  0  0  0
  190.5170  175.7500  138.2780 C   0  0  0  0  0  0  0  0  0  0  0  0
  190.4530  176.8810  139.0560 C   0  0  0  0  0  0  0  0  0  0  0  0
  189.5200  174.9150  137.7740 C   0  0  0  0  0  3  0  0  0  0  0  0
  191.6680  172.5690  135.9270 F   0  0  0  0  0  0  0  0  0  0  0  0
  191.2950  173.6160  136.6990 C   0  0  0  0  0  0  0  0  0  0  0  0
  189.9270  173.8330  136.9750 C   0  0  0  0  0  3  0  0  0  0  0  0
  192.5700  176.4870  138.5540 O   0  0  0  0  0  0  0  0  0  0  0  0
  188.4410  177.6670  137.0700 C   0  0  0  0  0  2  0  0  0  0  0  0
  187.1720  177.6110  136.2410 C   0  0  0  0  0  2  0  0  0  0  0  0
  186.0690  177.9340  137.0340 O   0  0  0  0  0  1  0  0  0  0  0  0
  1  2  1  0  0  0  0
  2 22  1  6  0  0  0
  2 11  1  0  0  0  0
  3 28  1  6  0  0  0
  3  1  1  0  0  0  0
  3  2  1  0  0  0  0
  4  9  1  1  0  0  0
  4 10  1  0  0  0  0
  5 13  2  0  0  0  0
  6 12  1  0  0  0  0
  7 13  1  0  0  0  0
  9  7  2  0  0  0  0
 10  5  1  0  0  0  0
 11  6  1  1  0  0  0
 11 15  1  0  0  0  0
 12  9  1  0  0  0  0
 13 17  1  0  0  0  0
 14 10  2  0  0  0  0
 15  8  1  1  0  0  0
 15  4  1  0  0  0  0
 17 16  1  0  0  0  0
 19 21  1  0  0  0  0
 19 27  1  0  0  0  0
 20 19  2  0  0  0  0
 21 22  1  0  0  0  0
 22 18  2  0  0  0  0
 23 21  2  0  0  0  0
 24 25  1  0  0  0  0
 25 26  2  0  0  0  0
 25 20  1  0  0  0  0
 26 23  1  0  0  0  0
 27 18  1  0  0  0  0
 29 30  1  0  0  0  0
 29 28  1  0  0  0  0
M  END
>  <MODEL>
3

>  <REMARK>
 VINA RESULT:      -8.2      4.765      6.235
  Name = 
  5 active torsions:
  status: ('A' for Active; 'I' for Inactive)
    1  A    between atoms: O_13  and  C_20
    2  A    between atoms: N_15  and  C_22
    3  A    between atoms: C_16  and  C_22
    4  A    between atoms: C_24  and  C_27
    5  A    between atoms: C_25  and  C_27
                            x       y       z     vdW  Elec       q    Type
                         _______ _______ _______ _____ _____    ______ ____

>  <TORSDO>
F 5

$$$$
=
 OpenBabel10222416383D

 30 34  0  0  1  0  0  0  0  0999 V2000
  188.9440  178.9420  140.3300 C   0  0  0  0  0  2  0  0  0  0  0  0
  188.5100  178.0540  141.4900 C   0  0  2  0  0  0  0  0  0  0  0  0
  188.9740  177.4260  140.1680 C   0  0  2  0  0  3  0  0  0  0  0  0
  185.5330  179.0740  143.4670 C   0  0  1  0  0  3  0  0  0  0  0  0
  183.6450  178.9360  145.1750 N   0  0  0  0  0  0  0  0  0  0  0  0
  186.3380  178.8740  140.8740 C   0  0  0  0  0  2  0  0  0  0  0  0
  183.1690  178.6540  142.8270 C   0  0  0  0  0  3  0  0  0  0  0  0
  186.4580  176.7320  143.8000 C   0  0  0  0  0  1  0  0  0  0  0  0
  184.4410  178.8180  142.4610 C   0  0  0  0  0  0  0  0  0  0  0  0
  185.0430  179.0900  144.8940 C   0  0  0  0  0  0  0  0  0  0  0  0
  187.0620  177.9580  141.7740 N   0  0  2  0  0  0  0  0  0  0  0  0
  184.8250  178.6990  141.0210 C   0  0  0  0  0  2  0  0  0  0  0  0
  182.7590  178.7320  144.2460 C   0  0  0  0  0  0  0  0  0  0  0  0
  185.8580  179.3790  145.8530 N   0  0  0  0  0  2  0  0  0  0  0  0
  186.7170  178.1140  143.2120 C   0  0  1  0  0  3  0  0  0  0  0  0
  180.3610  178.5830  143.6730 C   0  0  0  0  0  1  0  0  0  0  0  0
  181.4220  178.5760  144.6170 O   0  0  0  0  0  0  0  0  0  0  0  0
  189.8620  179.2630  143.3390 C   0  0  0  0  0  3  0  0  0  0  0  0
  190.8960  177.6180  144.2270 C   0  0  0  0  0  0  0  0  0  0  0  0
  191.7440  176.8390  145.0120 C   0  0  0  0  0  3  0  0  0  0  0  0
  190.0980  177.0700  143.2640 C   0  0  0  0  0  0  0  0  0  0  0  0
  189.4130  178.1150  142.6900 C   0  0  0  0  0  0  0  0  0  0  0  0
  190.0990  175.7020  142.9910 C   0  0  0  0  0  3  0  0  0  0  0  0
  192.5760  174.6550  145.5000 F   0  0  0  0  0  0  0  0  0  0  0  0
  191.7640  175.4530  144.7680 C   0  0  0  0  0  0  0  0  0  0  0  0
  190.9490  174.8900  143.7610 C   0  0  0  0  0  3  0  0  0  0  0  0
  190.7420  178.9190  144.2650 O   0  0  0  0  0  0  0  0  0  0  0  0
  190.4230  176.9530  140.1920 C   0  0  0  0  0  2  0  0  0  0  0  0
  190.9160  176.6950  138.7810 C   0  0  0  0  0  2  0  0  0  0  0  0
  190.9640  175.3210  138.5360 O   0  0  0  0  0  1  0  0  0  0  0  0
  1  2  1  0  0  0  0
  2 11  1  0  0  0  0
  2 22  1  1  0  0  0
  3 28  1  1  0  0  0
  3  1  1  0  0  0  0
  3  2  1  0  0  0  0
  4  9  1  6  0  0  0
  4 10  1  0  0  0  0
  6 12  1  0  0  0  0
  7 13  1  0  0  0  0
  9  7  2  0  0  0  0
 10  5  1  0  0  0  0
 10 14  2  0  0  0  0
 11  6  1  6  0  0  0
 11 15  1  0  0  0  0
 12  9  1  0  0  0  0
 13 17  1  0  0  0  0
 13  5  2  0  0  0  0
 15  4  1  0  0  0  0
 15  8  1  6  0  0  0
 16 17  1  0  0  0  0
 18 27  1  0  0  0  0
 19 27  1  0  0  0  0
 19 20  1  0  0  0  0
 21 19  2  0  0  0  0
 22 21  1  0  0  0  0
 22 18  2  0  0  0  0
 23 21  1  0  0  0  0
 23 26  2  0  0  0  0
 25 20  2  0  0  0  0
 25 24  1  0  0  0  0
 26 25  1  0  0  0  0
 29 28  1  0  0  0  0
 30 29  1  0  0  0  0
M  END
>  <MODEL>
4

>  <REMARK>
 VINA RESULT:      -8.2      3.593      7.571
  Name = 
  5 active torsions:
  status: ('A' for Active; 'I' for Inactive)
    1  A    between atoms: O_13  and  C_20
    2  A    between atoms: N_15  and  C_22
    3  A    between atoms: C_16  and  C_22
    4  A    between atoms: C_24  and  C_27
    5  A    between atoms: C_25  and  C_27
                            x       y       z     vdW  Elec       q    Type
                         _______ _______ _______ _____ _____    ______ ____

>  <TORSDO>
F 5

$$$$
=
 OpenBabel10222416383D

 30 34  0  0  1  0  0  0  0  0999 V2000
  190.5820  175.6200  138.7670 C   0  0  0  0  0  2  0  0  0  0  0  0
  190.3930  177.1180  138.9740 C   0  0  2  0  0  0  0  0  0  0  0  0
  191.7020  176.5800  138.3790 C   0  0  2  0  0  3  0  0  0  0  0  0
  189.7550  176.7240  142.6140 C   0  0  1  0  0  3  0  0  0  0  0  0
  188.6620  177.0650  144.8930 N   0  0  0  0  0  0  0  0  0  0  0  0
  191.8020  177.2920  140.9120 C   0  0  0  0  0  2  0  0  0  0  0  0
  190.7940  178.0900  144.4120 C   0  0  0  0  0  3  0  0  0  0  0  0
  188.3820  178.4290  141.3250 C   0  0  0  0  0  1  0  0  0  0  0  0
  190.8500  177.5930  143.1750 C   0  0  0  0  0  0  0  0  0  0  0  0
  188.6070  176.5130  143.5700 C   0  0  0  0  0  0  0  0  0  0  0  0
  190.4800  177.6350  140.3570 N   0  0  2  0  0  0  0  0  0  0  0  0
  192.0010  177.9370  142.2840 C   0  0  0  0  0  2  0  0  0  0  0  0
  189.6530  177.7960  145.3080 C   0  0  0  0  0  0  0  0  0  0  0  0
  187.6370  175.7230  143.2500 N   0  0  0  0  0  2  0  0  0  0  0  0
  189.3340  177.2450  141.2210 C   0  0  1  0  0  3  0  0  0  0  0  0
  189.1530  177.5450  147.7140 C   0  0  0  0  0  1  0  0  0  0  0  0
  189.6130  178.3070  146.6070 O   0  0  0  0  0  0  0  0  0  0  0  0
  189.1690  179.0930  137.8280 C   0  0  0  0  0  3  0  0  0  0  0  0
  187.4840  178.0880  136.9810 C   0  0  0  0  0  0  0  0  0  0  0  0
  186.2810  177.8060  136.3370 C   0  0  0  0  0  3  0  0  0  0  0  0
  188.2350  177.1090  137.5660 C   0  0  0  0  0  0  0  0  0  0  0  0
  189.3330  177.7370  138.1060 C   0  0  0  0  0  0  0  0  0  0  0  0
  187.8350  175.7740  137.5760 C   0  0  0  0  0  3  0  0  0  0  0  0
  184.6850  176.1430  135.7120 F   0  0  0  0  0  0  0  0  0  0  0  0
  185.8510  176.4670  136.3210 C   0  0  0  0  0  0  0  0  0  0  0  0
  186.6220  175.4580  136.9390 C   0  0  0  0  0  3  0  0  0  0  0  0
  188.0520  179.2590  137.1390 O   0  0  0  0  0  0  0  0  0  0  0  0
  191.7680  176.6770  136.8590 C   0  0  0  0  0  2  0  0  0  0  0  0
  193.0040  175.9690  136.3390 C   0  0  0  0  0  2  0  0  0  0  0  0
  194.1530  176.6260  136.7870 O   0  0  0  0  0  1  0  0  0  0  0  0
  1  2  1  0  0  0  0
  2 22  1  6  0  0  0
  2 11  1  0  0  0  0
  3 28  1  6  0  0  0
  3  1  1  0  0  0  0
  3  2  1  0  0  0  0
  4  9  1  1  0  0  0
  4 10  1  0  0  0  0
  5 13  2  0  0  0  0
  6 12  1  0  0  0  0
  7 13  1  0  0  0  0
  9  7  2  0  0  0  0
 10  5  1  0  0  0  0
 11  6  1  1  0  0  0
 11 15  1  0  0  0  0
 12  9  1  0  0  0  0
 13 17  1  0  0  0  0
 14 10  2  0  0  0  0
 15  8  1  1  0  0  0
 15  4  1  0  0  0  0
 17 16  1  0  0  0  0
 18 22  2  0  0  0  0
 19 27  1  0  0  0  0
 19 21  1  0  0  0  0
 20 19  2  0  0  0  0
 21 23  2  0  0  0  0
 21 22  1  0  0  0  0
 24 25  1  0  0  0  0
 25 20  1  0  0  0  0
 25 26  2  0  0  0  0
 26 23  1  0  0  0  0
 27 18  1  0  0  0  0
 29 30  1  0  0  0  0
 29 28  1  0  0  0  0
M  END
>  <MODEL>
5

>  <REMARK>
 VINA RESULT:      -8.1      4.385      6.648
  Name = 
  5 active torsions:
  status: ('A' for Active; 'I' for Inactive)
    1  A    between atoms: O_13  and  C_20
    2  A    between atoms: N_15  and  C_22
    3  A    between atoms: C_16  and  C_22
    4  A    between atoms: C_24  and  C_27
    5  A    between atoms: C_25  and  C_27
                            x       y       z     vdW  Elec       q    Type
                         _______ _______ _______ _____ _____    ______ ____

>  <TORSDO>
F 5

$$$$
=
 OpenBabel10222416383D

 30 34  0  0  1  0  0  0  0  0999 V2000
  180.7170  179.9230  140.0920 C   0  0  0  0  0  2  0  0  0  0  0  0
  181.6460  179.1090  139.1980 C   0  0  2  0  0  0  0  0  0  0  0  0
  180.9240  180.3440  138.6410 C   0  0  2  0  0  3  0  0  0  0  0  0
  182.2370  175.5230  138.4220 C   0  0  1  0  0  3  0  0  0  0  0  0
  182.6310  173.4170  137.0390 N   0  0  0  0  0  0  0  0  0  0  0  0
  180.5090  177.0890  139.8280 C   0  0  0  0  0  2  0  0  0  0  0  0
  180.4640  173.8280  138.0190 C   0  0  0  0  0  3  0  0  0  0  0  0
  181.9280  177.1410  136.4890 C   0  0  0  0  0  1  0  0  0  0  0  0
  180.8390  174.9800  138.5770 C   0  0  0  0  0  0  0  0  0  0  0  0
  183.1250  174.6570  137.5640 C   0  0  0  0  0  0  0  0  0  0  0  0
  181.1550  177.8030  138.7110 N   0  0  2  0  0  0  0  0  0  0  0  0
  179.8480  175.7990  139.3400 C   0  0  0  0  0  2  0  0  0  0  0  0
  181.4110  173.0100  137.2290 C   0  0  0  0  0  0  0  0  0  0  0  0
  184.3710  174.9600  137.4130 N   0  0  0  0  0  2  0  0  0  0  0  0
  182.1790  177.0040  137.9850 C   0  0  1  0  0  3  0  0  0  0  0  0
  179.7170  171.2490  136.8620 C   0  0  0  0  0  1  0  0  0  0  0  0
  181.0120  171.7970  136.6650 O   0  0  0  0  0  0  0  0  0  0  0  0
  184.1910  179.2740  138.7430 C   0  0  0  0  0  3  0  0  0  0  0  0
  184.9750  178.9460  140.7030 C   0  0  0  0  0  0  0  0  0  0  0  0
  185.8320  178.7390  141.7830 C   0  0  0  0  0  3  0  0  0  0  0  0
  183.6170  178.9370  140.8490 C   0  0  0  0  0  0  0  0  0  0  0  0
  183.0950  179.1610  139.5970 C   0  0  0  0  0  0  0  0  0  0  0  0
  183.0050  178.6970  142.0780 C   0  0  0  0  0  3  0  0  0  0  0  0
  186.0380  178.2910  144.1190 F   0  0  0  0  0  0  0  0  0  0  0  0
  185.2470  178.5030  143.0410 C   0  0  0  0  0  0  0  0  0  0  0  0
  183.8430  178.4790  143.1850 C   0  0  0  0  0  3  0  0  0  0  0  0
  185.3020  179.1530  139.4510 O   0  0  0  0  0  0  0  0  0  0  0  0
  181.7920  181.5960  138.6060 C   0  0  0  0  0  2  0  0  0  0  0  0
  181.1350  182.6700  137.7610 C   0  0  0  0  0  2  0  0  0  0  0  0
  179.8390  182.9130  138.2210 O   0  0  0  0  0  1  0  0  0  0  0  0
  2 22  1  1  0  0  0
  2  1  1  0  0  0  0
  3 28  1  1  0  0  0
  3  2  1  0  0  0  0
  3  1  1  0  0  0  0
  4 10  1  6  0  0  0
  4  9  1  0  0  0  0
  5 13  2  0  0  0  0
  5 10  1  0  0  0  0
  7  9  2  0  0  0  0
  9 12  1  0  0  0  0
 11  2  1  0  0  0  0
 11  6  1  1  0  0  0
 12  6  1  0  0  0  0
 13  7  1  0  0  0  0
 14 10  2  0  0  0  0
 15  8  1  6  0  0  0
 15  4  1  0  0  0  0
 15 11  1  0  0  0  0
 17 16  1  0  0  0  0
 17 13  1  0  0  0  0
 18 27  1  0  0  0  0
 18 22  2  0  0  0  0
 19 21  2  0  0  0  0
 19 20  1  0  0  0  0
 20 25  2  0  0  0  0
 21 23  1  0  0  0  0
 22 21  1  0  0  0  0
 23 26  2  0  0  0  0
 25 26  1  0  0  0  0
 25 24  1  0  0  0  0
 27 19  1  0  0  0  0
 29 30  1  0  0  0  0
 29 28  1  0  0  0  0
M  END
>  <MODEL>
6

>  <REMARK>
 VINA RESULT:      -8.0      4.827      8.344
  Name = 
  5 active torsions:
  status: ('A' for Active; 'I' for Inactive)
    1  A    between atoms: O_13  and  C_20
    2  A    between atoms: N_15  and  C_22
    3  A    between atoms: C_16  and  C_22
    4  A    between atoms: C_24  and  C_27
    5  A    between atoms: C_25  and  C_27
                            x       y       z     vdW  Elec       q    Type
                         _______ _______ _______ _____ _____    ______ ____

>  <TORSDO>
F 5

$$$$
=
 OpenBabel10222416383D

 30 34  0  0  1  0  0  0  0  0999 V2000
  189.3370  178.6890  137.4720 C   0  0  0  0  0  2  0  0  0  0  0  0
  189.3550  177.5260  138.4570 C   0  0  2  0  0  0  0  0  0  0  0  0
  188.0530  178.2950  138.1940 C   0  0  2  0  0  3  0  0  0  0  0  0
  189.8720  176.5400  142.0030 C   0  0  1  0  0  3  0  0  0  0  0  0
  189.6660  176.5870  144.5440 N   0  0  0  0  0  0  0  0  0  0  0  0
  191.3230  177.1400  139.7790 C   0  0  0  0  0  2  0  0  0  0  0  0
  191.6790  177.3900  143.4820 C   0  0  0  0  0  3  0  0  0  0  0  0
  188.5050  178.6250  141.5170 C   0  0  0  0  0  1  0  0  0  0  0  0
  191.2350  177.1330  142.2510 C   0  0  0  0  0  0  0  0  0  0  0  0
  189.0800  176.3070  143.2650 C   0  0  0  0  0  0  0  0  0  0  0  0
  189.9830  177.7550  139.7760 N   0  0  2  0  0  0  0  0  0  0  0  0
  192.0760  177.4820  141.0650 C   0  0  0  0  0  2  0  0  0  0  0  0
  190.8580  177.0880  144.6760 C   0  0  0  0  0  0  0  0  0  0  0  0
  187.9270  175.7280  143.2070 N   0  0  0  0  0  2  0  0  0  0  0  0
  189.1280  177.3660  140.9290 C   0  0  1  0  0  3  0  0  0  0  0  0
  190.7490  176.7860  147.1260 C   0  0  0  0  0  1  0  0  0  0  0  0
  191.3410  177.3440  145.9610 O   0  0  0  0  0  0  0  0  0  0  0  0
  188.7700  175.0750  137.8550 C   0  0  0  0  0  3  0  0  0  0  0  0
  190.6000  174.4280  136.9620 C   0  0  0  0  0  0  0  0  0  0  0  0
  191.6020  173.6570  136.3770 C   0  0  0  0  0  3  0  0  0  0  0  0
  190.7880  175.7470  137.2650 C   0  0  0  0  0  0  0  0  0  0  0  0
  189.6130  176.1840  137.8290 C   0  0  0  0  0  0  0  0  0  0  0  0
  192.0000  176.3960  137.0300 C   0  0  0  0  0  3  0  0  0  0  0  0
  193.8430  173.5740  135.5560 F   0  0  0  0  0  0  0  0  0  0  0  0
  192.8360  174.2830  136.1180 C   0  0  0  0  0  0  0  0  0  0  0  0
  193.0330  175.6420  136.4460 C   0  0  0  0  0  3  0  0  0  0  0  0
  189.3970  174.0440  137.3120 O   0  0  0  0  0  0  0  0  0  0  0  0
  187.1210  177.6010  137.2080 C   0  0  0  0  0  2  0  0  0  0  0  0
  185.6770  177.9510  137.5120 C   0  0  0  0  0  2  0  0  0  0  0  0
  185.6120  178.7710  138.6410 O   0  0  0  0  0  1  0  0  0  0  0  0
  1  3  1  0  0  0  0
  1  2  1  0  0  0  0
  2 22  1  6  0  0  0
  2 11  1  0  0  0  0
  3 28  1  6  0  0  0
  3  2  1  0  0  0  0
  4  9  1  1  0  0  0
  4 10  1  0  0  0  0
  5 13  2  0  0  0  0
  6 12  1  0  0  0  0
  7 13  1  0  0  0  0
  9  7  2  0  0  0  0
 10  5  1  0  0  0  0
 11  6  1  6  0  0  0
 11 15  1  0  0  0  0
 12  9  1  0  0  0  0
 13 17  1  0  0  0  0
 14 10  2  0  0  0  0
 15  8  1  1  0  0  0
 15  4  1  0  0  0  0
 17 16  1  0  0  0  0
 19 21  1  0  0  0  0
 19 27  1  0  0  0  0
 20 19  2  0  0  0  0
 21 22  1  0  0  0  0
 22 18  2  0  0  0  0
 23 21  2  0  0  0  0
 24 25  1  0  0  0  0
 25 20  1  0  0  0  0
 25 26  2  0  0  0  0
 26 23  1  0  0  0  0
 27 18  1  0  0  0  0
 28 29  1  0  0  0  0
 29 30  1  0  0  0  0
M  END
>  <MODEL>
7

>  <REMARK>
 VINA RESULT:      -7.8      5.303      6.920
  Name = 
  5 active torsions:
  status: ('A' for Active; 'I' for Inactive)
    1  A    between atoms: O_13  and  C_20
    2  A    between atoms: N_15  and  C_22
    3  A    between atoms: C_16  and  C_22
    4  A    between atoms: C_24  and  C_27
    5  A    between atoms: C_25  and  C_27
                            x       y       z     vdW  Elec       q    Type
                         _______ _______ _______ _____ _____    ______ ____

>  <TORSDO>
F 5

$$$$
=
 OpenBabel10222416383D

 30 34  0  0  1  0  0  0  0  0999 V2000
  191.5430  177.4310  143.7840 C   0  0  0  0  0  2  0  0  0  0  0  0
  190.2360  177.0680  143.0890 C   0  0  2  0  0  0  0  0  0  0  0  0
  191.3720  176.0400  143.1830 C   0  0  2  0  0  3  0  0  0  0  0  0
  189.6250  176.6160  139.4510 C   0  0  1  0  0  3  0  0  0  0  0  0
  190.0870  176.5780  136.9440 N   0  0  0  0  0  0  0  0  0  0  0  0
  188.5510  177.9040  141.5950 C   0  0  0  0  0  2  0  0  0  0  0  0
  188.7920  178.3730  137.9040 C   0  0  0  0  0  3  0  0  0  0  0  0
  191.8770  177.5300  140.1930 C   0  0  0  0  0  1  0  0  0  0  0  0
  188.8790  177.8880  139.1440 C   0  0  0  0  0  0  0  0  0  0  0  0
  190.2720  175.9910  138.2390 C   0  0  0  0  0  0  0  0  0  0  0  0
  189.9930  177.6380  141.7470 N   0  0  2  0  0  0  0  0  0  0  0  0
  188.2670  178.6370  140.2840 C   0  0  0  0  0  2  0  0  0  0  0  0
  189.4150  177.6740  136.7580 C   0  0  0  0  0  0  0  0  0  0  0  0
  190.8750  174.8540  138.3430 N   0  0  0  0  0  2  0  0  0  0  0  0
  190.5890  176.8470  140.6370 C   0  0  1  0  0  3  0  0  0  0  0  0
  188.1840  177.9150  134.6290 C   0  0  0  0  0  1  0  0  0  0  0  0
  189.3030  178.1820  135.4620 O   0  0  0  0  0  0  0  0  0  0  0  0
  187.7230  176.7570  143.6340 C   0  0  0  0  0  3  0  0  0  0  0  0
  187.6910  177.2670  145.7080 C   0  0  0  0  0  0  0  0  0  0  0  0
  187.2780  177.5580  147.0070 C   0  0  0  0  0  3  0  0  0  0  0  0
  189.0020  177.3440  145.3350 C   0  0  0  0  0  0  0  0  0  0  0  0
  189.0430  177.0050  144.0030 C   0  0  0  0  0  0  0  0  0  0  0  0
  190.0040  177.7390  146.2200 C   0  0  0  0  0  3  0  0  0  0  0  0
  187.9120  178.2510  149.2020 F   0  0  0  0  0  0  0  0  0  0  0  0
  188.2640  177.9520  147.9300 C   0  0  0  0  0  0  0  0  0  0  0  0
  189.6180  178.0450  147.5370 C   0  0  0  0  0  3  0  0  0  0  0  0
  186.9440  176.9120  144.6920 O   0  0  0  0  0  0  0  0  0  0  0  0
  191.1910  175.0300  144.3110 C   0  0  0  0  0  2  0  0  0  0  0  0
  192.4730  174.9000  145.1120 C   0  0  0  0  0  2  0  0  0  0  0  0
  192.2340  175.2250  146.4490 O   0  0  0  0  0  1  0  0  0  0  0  0
  2  3  1  0  0  0  0
  2  1  1  0  0  0  0
  2 22  1  1  0  0  0
  3  1  1  0  0  0  0
  3 28  1  1  0  0  0
  4 10  1  6  0  0  0
  4 15  1  0  0  0  0
  5 10  1  0  0  0  0
  7  9  2  0  0  0  0
  9  4  1  0  0  0  0
  9 12  1  0  0  0  0
 10 14  2  0  0  0  0
 11  6  1  6  0  0  0
 11  2  1  0  0  0  0
 12  6  1  0  0  0  0
 13  5  2  0  0  0  0
 13  7  1  0  0  0  0
 15  8  1  6  0  0  0
 15 11  1  0  0  0  0
 16 17  1  0  0  0  0
 17 13  1  0  0  0  0
 18 22  2  0  0  0  0
 18 27  1  0  0  0  0
 19 20  1  0  0  0  0
 20 25  2  0  0  0  0
 21 19  2  0  0  0  0
 21 23  1  0  0  0  0
 22 21  1  0  0  0  0
 23 26  2  0  0  0  0
 25 24  1  0  0  0  0
 26 25  1  0  0  0  0
 27 19  1  0  0  0  0
 28 29  1  0  0  0  0
 29 30  1  0  0  0  0
M  END
>  <MODEL>
8

>  <REMARK>
 VINA RESULT:      -7.7      4.471      8.515
  Name = 
  5 active torsions:
  status: ('A' for Active; 'I' for Inactive)
    1  A    between atoms: O_13  and  C_20
    2  A    between atoms: N_15  and  C_22
    3  A    between atoms: C_16  and  C_22
    4  A    between atoms: C_24  and  C_27
    5  A    between atoms: C_25  and  C_27
                            x       y       z     vdW  Elec       q    Type
                         _______ _______ _______ _____ _____    ______ ____

>  <TORSDO>
F 5

$$$$
=
 OpenBabel10222416383D

 30 34  0  0  1  0  0  0  0  0999 V2000
  190.4800  175.6440  139.3340 C   0  0  0  0  0  2  0  0  0  0  0  0
  189.8040  176.9330  139.7870 C   0  0  2  0  0  0  0  0  0  0  0  0
  191.3320  176.8040  139.8370 C   0  0  2  0  0  3  0  0  0  0  0  0
  189.5940  178.0100  143.3380 C   0  0  1  0  0  3  0  0  0  0  0  0
  189.7300  177.8780  145.8800 N   0  0  0  0  0  0  0  0  0  0  0  0
  188.0620  177.9540  141.0880 C   0  0  0  0  0  2  0  0  0  0  0  0
  187.5820  177.8130  144.7830 C   0  0  0  0  0  3  0  0  0  0  0  0
  190.1800  175.5880  142.8440 C   0  0  0  0  0  1  0  0  0  0  0  0
  188.1070  177.9130  143.5610 C   0  0  0  0  0  0  0  0  0  0  0  0
  190.3980  177.9510  144.6130 C   0  0  0  0  0  0  0  0  0  0  0  0
  189.1140  176.9210  141.0940 N   0  0  2  0  0  0  0  0  0  0  0  0
  187.2160  177.8780  142.3600 C   0  0  0  0  0  2  0  0  0  0  0  0
  188.4370  177.8100  145.9910 C   0  0  0  0  0  0  0  0  0  0  0  0
  191.6790  178.1050  144.5760 N   0  0  0  0  0  2  0  0  0  0  0  0
  190.0310  176.9890  142.2630 C   0  0  1  0  0  3  0  0  0  0  0  0
  188.5550  178.1640  148.4330 C   0  0  0  0  0  1  0  0  0  0  0  0
  187.8760  177.7230  147.2670 O   0  0  0  0  0  0  0  0  0  0  0  0
  189.1300  179.0740  138.4930 C   0  0  0  0  0  3  0  0  0  0  0  0
  187.7510  178.2720  137.0720 C   0  0  0  0  0  0  0  0  0  0  0  0
  186.8040  178.1350  136.0590 C   0  0  0  0  0  3  0  0  0  0  0  0
  188.2150  177.1970  137.7750 C   0  0  0  0  0  0  0  0  0  0  0  0
  189.1160  177.6940  138.6870 C   0  0  0  0  0  0  0  0  0  0  0  0
  187.7550  175.9020  137.5400 C   0  0  0  0  0  3  0  0  0  0  0  0
  185.3980  176.6570  134.8190 F   0  0  0  0  0  0  0  0  0  0  0  0
  186.3230  176.8400  135.7890 C   0  0  0  0  0  0  0  0  0  0  0  0
  186.7940  175.7320  136.5280 C   0  0  0  0  0  3  0  0  0  0  0  0
  188.3060  179.3780  137.5040 O   0  0  0  0  0  0  0  0  0  0  0  0
  192.0400  177.4510  138.6520 C   0  0  0  0  0  2  0  0  0  0  0  0
  192.5660  176.3880  137.7070 C   0  0  0  0  0  2  0  0  0  0  0  0
  193.9370  176.2090  137.9060 O   0  0  0  0  0  1  0  0  0  0  0  0
  1  2  1  0  0  0  0
  1  3  1  0  0  0  0
  2 22  1  6  0  0  0
  2  3  1  0  0  0  0
  2 11  1  0  0  0  0
  3 28  1  6  0  0  0
  4  9  1  1  0  0  0
  4 10  1  0  0  0  0
  5 13  2  0  0  0  0
  6 12  1  0  0  0  0
  7 13  1  0  0  0  0
  9  7  2  0  0  0  0
 10  5  1  0  0  0  0
 11  6  1  6  0  0  0
 11 15  1  0  0  0  0
 12  9  1  0  0  0  0
 13 17  1  0  0  0  0
 14 10  2  0  0  0  0
 15  8  1  1  0  0  0
 15  4  1  0  0  0  0
 17 16  1  0  0  0  0
 18 22  2  0  0  0  0
 19 27  1  0  0  0  0
 19 21  1  0  0  0  0
 20 19  2  0  0  0  0
 21 22  1  0  0  0  0
 23 21  2  0  0  0  0
 24 25  1  0  0  0  0
 25 20  1  0  0  0  0
 25 26  2  0  0  0  0
 26 23  1  0  0  0  0
 27 18  1  0  0  0  0
 29 30  1  0  0  0  0
 29 28  1  0  0  0  0
M  END
>  <MODEL>
9

>  <REMARK>
 VINA RESULT:      -7.7      3.950      6.109
  Name = 
  5 active torsions:
  status: ('A' for Active; 'I' for Inactive)
    1  A    between atoms: O_13  and  C_20
    2  A    between atoms: N_15  and  C_22
    3  A    between atoms: C_16  and  C_22
    4  A    between atoms: C_24  and  C_27
    5  A    between atoms: C_25  and  C_27
                            x       y       z     vdW  Elec       q    Type
                         _______ _______ _______ _____ _____    ______ ____

>  <TORSDO>
F 5

$$$$
