=
 OpenBabel10222417023D

 55 59  0  0  1  0  0  0  0  0999 V2000
  182.7540  178.3490  139.6920 C   0  0  1  0  0  3  0  0  0  0  0  0
  181.5950  178.5290  138.8350 C   0  0  0  0  0  2  0  0  0  0  0  0
  181.3100  179.9110  138.8350 O   0  0  0  0  0  0  0  0  0  0  0  0
  181.3670  180.3390  137.4800 C   0  0  1  0  0  3  0  0  0  0  0  0
  180.4700  179.4990  136.5450 C   0  0  0  0  0  2  0  0  0  0  0  0
  181.2590  178.7230  135.6850 O   0  0  0  0  0  1  0  0  0  0  0  0
  180.6940  181.7170  137.2980 C   0  0  2  0  0  3  0  0  0  0  0  0
  180.3210  181.9160  135.8080 C   0  0  0  0  0  1  0  0  0  0  0  0
  182.7120  182.9080  138.4880 O   0  0  0  0  0  1  0  0  0  0  0  0
  181.5350  182.9520  137.6960 C   0  0  0  0  0  0  0  0  0  0  0  0
  181.2120  184.0860  137.2340 O   0  0  0  0  0  0  0  0  0  0  0  0
  182.3220  178.3340  141.0190 O   0  0  0  0  0  0  0  0  0  0  0  0
  184.5420  178.6040  141.7950 O   0  0  0  0  0  0  0  0  0  0  0  0
  181.2530  179.0080  143.3770 C   0  0  0  0  0  1  0  0  0  0  0  0
  183.3100  178.4540  142.0310 C   0  0  0  0  0  0  0  0  0  0  0  0
  182.7000  178.9330  143.2300 N   0  0  0  0  0  0  0  0  0  0  0  0
  183.5840  179.6000  144.1850 C   0  0  0  0  0  2  0  0  0  0  0  0
  183.6520  178.8960  145.5250 C   0  0  0  0  0  2  0  0  0  0  0  0
  185.0450  178.6330  146.1010 C   0  0  0  0  0  2  0  0  0  0  0  0
  185.9320  177.8950  145.0780 C   0  0  0  0  0  2  0  0  0  0  0  0
  189.8720  177.4570  145.2830 C   0  0  1  0  0  3  0  0  0  0  0  0
  192.1070  175.9210  146.6680 C   0  0  0  0  0  2  0  0  0  0  0  0
  187.6280  177.5070  147.0350 N   0  0  0  0  0  2  0  0  0  0  0  0
  191.1070  176.7950  147.5510 C   0  0  0  0  0  2  0  0  0  0  0  0
  188.7760  176.9620  147.6280 C   0  0  0  0  0  2  0  0  0  0  0  0
  191.8610  175.9470  145.0440 C   0  0  0  0  0  3  0  0  0  0  0  0
  188.3910  177.6710  144.6700 C   0  0  0  0  0  2  0  0  0  0  0  0
  189.8420  176.9090  146.8170 C   0  0  1  0  0  3  0  0  0  0  0  0
  190.8150  176.5610  144.4730 N   0  0  0  0  0  0  0  0  0  0  0  0
  187.3530  178.0400  145.6390 C   0  0  1  0  0  3  0  0  0  0  0  0
  183.8460  177.3660  139.3090 C   0  0  0  0  0  2  0  0  0  0  0  0
  184.5220  178.4320  138.3560 C   0  0  1  0  0  3  0  0  0  0  0  0
  184.8800  179.7920  138.8010 O   0  0  0  0  0  1  0  0  0  0  0  0
  185.4940  177.9200  137.2970 C   0  0  0  0  0  2  0  0  0  0  0  0
  190.8080  176.2500  137.7730 C   0  0  0  0  0  0  0  0  0  0  0  0
  187.8940  177.3810  137.7480 C   0  0  0  0  0  0  0  0  0  0  0  0
  187.1410  178.3550  139.7080 C   0  0  0  0  0  3  0  0  0  0  0  0
  191.9650  175.2050  137.5510 C   0  0  0  0  0  0  0  0  0  0  0  0
  189.6350  175.3670  135.8650 C   0  0  0  0  0  0  0  0  0  0  0  0
  187.8130  176.9270  136.3350 N   0  0  0  0  0  2  0  0  0  0  0  0
  190.0940  175.9630  136.8220 C   0  0  0  0  0  3  0  0  0  0  0  0
  191.0090  177.0300  140.0670 O   0  0  0  0  0  1  0  0  0  0  0  0
  188.1970  175.6550  135.6390 C   0  0  0  0  0  2  0  0  0  0  0  0
  188.3470  177.9950  140.0080 N   0  0  0  0  0  0  0  0  0  0  0  0
  191.7970  174.1890  136.2510 C   0  0  0  0  0  3  0  0  0  0  0  0
  190.2380  176.8870  138.9090 N   0  0  0  0  0  0  0  0  0  0  0  0
  188.8580  177.4570  138.8310 C   0  0  1  0  0  3  0  0  0  0  0  0
  190.5870  174.2800  135.5260 C   0  0  0  0  0  0  0  0  0  0  0  0
  186.7580  178.0700  138.2070 C   0  0  0  0  0  0  0  0  0  0  0  0
  189.9780  173.3940  134.7040 F   0  0  0  0  0  0  0  0  0  0  0  0
  193.3220  175.6820  138.0930 C   0  0  0  0  0  2  0  0  0  0  0  0
  194.2820  175.3090  136.9280 C   0  0  1  0  0  3  0  0  0  0  0  0
  194.7760  176.4370  136.2260 O   0  0  0  0  0  1  0  0  0  0  0  0
  195.4200  173.5520  138.5020 C   0  0  0  0  0  1  0  0  0  0  0  0
  195.5340  174.5120  137.3140 C   0  0  0  0  0  2  0  0  0  0  0  0
  1  2  1  6  0  0  0
  1 12  1  0  0  0  0
  2  3  1  0  0  0  0
  4  5  1  6  0  0  0
  4  3  1  0  0  0  0
  6  5  1  0  0  0  0
  7  8  1  6  0  0  0
  7  4  1  0  0  0  0
  7 10  1  0  0  0  0
 10  9  1  0  0  0  0
 11 10  2  0  0  0  0
 12 15  1  0  0  0  0
 13 15  2  0  0  0  0
 15 16  1  0  0  0  0
 16 14  1  0  0  0  0
 16 17  1  0  0  0  0
 17 18  1  0  0  0  0
 18 19  1  0  0  0  0
 20 19  1  0  0  0  0
 21 27  1  6  0  0  0
 21 28  1  0  0  0  0
 22 24  1  0  0  0  0
 23 25  1  0  0  0  0
 26 22  1  0  0  0  0
 27 30  1  0  0  0  0
 28 24  1  1  0  0  0
 28 25  1  0  0  0  0
 29 26  2  0  0  0  0
 29 21  1  0  0  0  0
 30 20  1  6  0  0  0
 30 23  1  0  0  0  0
 31  1  1  0  0  0  0
 32 33  1  1  0  0  0
 32 31  1  0  0  0  0
 34 49  1  0  0  0  0
 34 32  1  0  0  0  0
 35 46  1  0  0  0  0
 36 49  2  0  0  0  0
 37 44  2  0  0  0  0
 38 35  1  0  0  0  0
 38 51  1  0  0  0  0
 39 41  1  0  0  0  0
 40 36  1  0  0  0  0
 41 35  2  0  0  0  0
 43 39  1  0  0  0  0
 43 40  1  0  0  0  0
 45 38  2  0  0  0  0
 46 42  1  0  0  0  0
 47 36  1  1  0  0  0
 47 46  1  0  0  0  0
 47 44  1  0  0  0  0
 48 39  2  0  0  0  0
 48 45  1  0  0  0  0
 49 37  1  0  0  0  0
 50 48  1  0  0  0  0
 52 53  1  1  0  0  0
 52 55  1  0  0  0  0
 52 51  1  0  0  0  0
 55 54  1  0  0  0  0
M  END
>  <MODEL>
1

>  <REMARK>
 VINA RESULT:      -7.9      0.000      0.000
  Name = 
  20 active torsions:
  status: ('A' for Active; 'I' for Inactive)
    1  A    between atoms: C_8  and  C_39
    2  A    between atoms: C_9  and  C_28
    3  A    between atoms: C_9  and  C_33
    4  A    between atoms: C_10  and  C_29
    5  A    between atoms: C_12  and  C_17
    6  A    between atoms: C_12  and  C_55
    7  A    between atoms: C_15  and  C_39
    8  A    between atoms: C_15  and  C_52
    9  A    between atoms: C_17  and  C_49
   10  A    between atoms: C_18  and  C_44
   11  A    between atoms: O_27  and  C_46
   12  A    between atoms: O_27  and  C_55
   13  A    between atoms: C_28  and  C_31
   14  A    between atoms: C_29  and  C_44
   15  A    between atoms: C_31  and  N_51
   16  A    between atoms: O_32  and  C_36
   17  A    between atoms: O_32  and  C_44
   18  A    between atoms: C_33  and  C_50
   19  A    between atoms: C_36  and  C_55
   20  A    between atoms: C_40  and  C_49
                            x       y       z     vdW  Elec       q    Type
                         _______ _______ _______ _____ _____    ______ ____

>  <TORSDO>
F 20

$$$$
=
 OpenBabel10222417023D

 55 59  0  0  1  0  0  0  0  0999 V2000
  182.6980  178.2070  139.6380 C   0  0  1  0  0  3  0  0  0  0  0  0
  181.4430  178.1820  138.9060 C   0  0  0  0  0  2  0  0  0  0  0  0
  181.2430  176.8450  138.5020 O   0  0  0  0  0  0  0  0  0  0  0  0
  180.3520  176.2630  139.4450 C   0  0  1  0  0  3  0  0  0  0  0  0
  179.2450  177.2360  139.9080 C   0  0  0  0  0  2  0  0  0  0  0  0
  179.1480  177.2300  141.3060 O   0  0  0  0  0  1  0  0  0  0  0  0
  179.4700  175.1780  138.7890 C   0  0  2  0  0  3  0  0  0  0  0  0
  179.0970  174.1090  139.8450 C   0  0  0  0  0  1  0  0  0  0  0  0
  179.6390  174.4750  136.2620 O   0  0  0  0  0  0  0  0  0  0  0  0
  180.0960  174.4060  137.6040 C   0  0  0  0  0  0  0  0  0  0  0  0
  181.1360  173.7140  137.8080 O   0  0  0  0  0  1  0  0  0  0  0  0
  182.4280  178.5520  140.9620 O   0  0  0  0  0  0  0  0  0  0  0  0
  184.6580  179.1690  141.4580 O   0  0  0  0  0  0  0  0  0  0  0  0
  181.6720  178.6350  143.5280 C   0  0  0  0  0  1  0  0  0  0  0  0
  183.5350  178.7290  141.8320 C   0  0  0  0  0  0  0  0  0  0  0  0
  183.0610  178.8900  143.1700 N   0  0  0  0  0  0  0  0  0  0  0  0
  183.9560  179.5830  144.0960 C   0  0  0  0  0  2  0  0  0  0  0  0
  183.7650  179.1580  145.5380 C   0  0  0  0  0  2  0  0  0  0  0  0
  184.9480  178.4690  146.2220 C   0  0  0  0  0  2  0  0  0  0  0  0
  185.8560  177.7780  145.1840 C   0  0  0  0  0  2  0  0  0  0  0  0
  189.8140  177.5190  145.3430 C   0  0  1  0  0  3  0  0  0  0  0  0
  192.1310  176.0360  146.6480 C   0  0  0  0  0  2  0  0  0  0  0  0
  187.5860  177.3930  147.1110 N   0  0  0  0  0  2  0  0  0  0  0  0
  191.0990  176.8250  147.5730 C   0  0  0  0  0  2  0  0  0  0  0  0
  188.7640  176.8790  147.6740 C   0  0  0  0  0  2  0  0  0  0  0  0
  191.8680  176.1150  145.0290 C   0  0  0  0  0  3  0  0  0  0  0  0
  188.3180  177.6870  144.7490 C   0  0  0  0  0  2  0  0  0  0  0  0
  189.8230  176.9090  146.8530 C   0  0  1  0  0  3  0  0  0  0  0  0
  190.7900  176.7010  144.4900 N   0  0  0  0  0  0  0  0  0  0  0  0
  187.2730  177.9670  145.7400 C   0  0  1  0  0  3  0  0  0  0  0  0
  183.7460  177.1340  139.4020 C   0  0  0  0  0  2  0  0  0  0  0  0
  184.3940  177.9740  138.2290 C   0  0  1  0  0  3  0  0  0  0  0  0
  184.7550  179.3970  138.3660 O   0  0  0  0  0  1  0  0  0  0  0  0
  185.3450  177.2490  137.2810 C   0  0  0  0  0  2  0  0  0  0  0  0
  190.7870  176.0740  137.7950 C   0  0  0  0  0  0  0  0  0  0  0  0
  187.7980  176.9860  137.6870 C   0  0  0  0  0  0  0  0  0  0  0  0
  187.0770  178.3800  139.3870 C   0  0  0  0  0  3  0  0  0  0  0  0
  192.0060  175.0790  137.7630 C   0  0  0  0  0  0  0  0  0  0  0  0
  189.5870  174.6660  136.2530 C   0  0  0  0  0  0  0  0  0  0  0  0
  187.6800  176.1830  136.4420 N   0  0  0  0  0  2  0  0  0  0  0  0
  190.0490  175.5130  136.9970 C   0  0  0  0  0  3  0  0  0  0  0  0
  191.0460  177.4230  139.8000 O   0  0  0  0  0  1  0  0  0  0  0  0
  188.1220  174.8010  136.0620 C   0  0  0  0  0  2  0  0  0  0  0  0
  188.3200  178.1810  139.6850 N   0  0  0  0  0  0  0  0  0  0  0  0
  191.8480  173.7560  136.7730 C   0  0  0  0  0  3  0  0  0  0  0  0
  190.2300  176.9450  138.7710 N   0  0  0  0  0  0  0  0  0  0  0  0
  188.8090  177.3920  138.6470 C   0  0  1  0  0  3  0  0  0  0  0  0
  190.5990  173.5880  136.1320 C   0  0  0  0  0  0  0  0  0  0  0  0
  186.6400  177.7010  138.0360 C   0  0  0  0  0  0  0  0  0  0  0  0
  190.0170  172.4880  135.6030 F   0  0  0  0  0  0  0  0  0  0  0  0
  193.3500  175.7570  138.0730 C   0  0  0  0  0  2  0  0  0  0  0  0
  194.2480  175.2360  136.9160 C   0  0  1  0  0  3  0  0  0  0  0  0
  194.8790  176.2730  136.1850 O   0  0  0  0  0  1  0  0  0  0  0  0
  195.5000  173.9140  138.7990 C   0  0  0  0  0  1  0  0  0  0  0  0
  195.3890  174.2940  137.3200 C   0  0  0  0  0  2  0  0  0  0  0  0
  1  2  1  1  0  0  0
  1 12  1  0  0  0  0
  3  2  1  0  0  0  0
  3  4  1  0  0  0  0
  4  5  1  6  0  0  0
  5  6  1  0  0  0  0
  7  4  1  0  0  0  0
  7  8  1  1  0  0  0
  9 10  2  0  0  0  0
 10 11  1  0  0  0  0
 10  7  1  0  0  0  0
 12 15  1  0  0  0  0
 13 15  2  0  0  0  0
 15 16  1  0  0  0  0
 16 14  1  0  0  0  0
 16 17  1  0  0  0  0
 17 18  1  0  0  0  0
 18 19  1  0  0  0  0
 20 19  1  0  0  0  0
 21 27  1  6  0  0  0
 21 28  1  0  0  0  0
 22 24  1  0  0  0  0
 23 25  1  0  0  0  0
 26 22  1  0  0  0  0
 27 30  1  0  0  0  0
 28 24  1  1  0  0  0
 28 25  1  0  0  0  0
 29 26  2  0  0  0  0
 29 21  1  0  0  0  0
 30 20  1  6  0  0  0
 30 23  1  0  0  0  0
 31  1  1  0  0  0  0
 32 33  1  1  0  0  0
 32 31  1  0  0  0  0
 34 49  1  0  0  0  0
 34 32  1  0  0  0  0
 35 46  1  0  0  0  0
 36 49  2  0  0  0  0
 37 44  2  0  0  0  0
 38 35  1  0  0  0  0
 38 51  1  0  0  0  0
 39 41  1  0  0  0  0
 40 36  1  0  0  0  0
 41 35  2  0  0  0  0
 43 39  1  0  0  0  0
 43 40  1  0  0  0  0
 45 38  2  0  0  0  0
 46 42  1  0  0  0  0
 47 36  1  1  0  0  0
 47 46  1  0  0  0  0
 47 44  1  0  0  0  0
 48 39  2  0  0  0  0
 48 45  1  0  0  0  0
 49 37  1  0  0  0  0
 50 48  1  0  0  0  0
 52 53  1  1  0  0  0
 52 55  1  0  0  0  0
 52 51  1  0  0  0  0
 55 54  1  0  0  0  0
M  END
>  <MODEL>
2

>  <REMARK>
 VINA RESULT:      -7.5      1.709      2.986
  Name = 
  20 active torsions:
  status: ('A' for Active; 'I' for Inactive)
    1  A    between atoms: C_8  and  C_39
    2  A    between atoms: C_9  and  C_28
    3  A    between atoms: C_9  and  C_33
    4  A    between atoms: C_10  and  C_29
    5  A    between atoms: C_12  and  C_17
    6  A    between atoms: C_12  and  C_55
    7  A    between atoms: C_15  and  C_39
    8  A    between atoms: C_15  and  C_52
    9  A    between atoms: C_17  and  C_49
   10  A    between atoms: C_18  and  C_44
   11  A    between atoms: O_27  and  C_46
   12  A    between atoms: O_27  and  C_55
   13  A    between atoms: C_28  and  C_31
   14  A    between atoms: C_29  and  C_44
   15  A    between atoms: C_31  and  N_51
   16  A    between atoms: O_32  and  C_36
   17  A    between atoms: O_32  and  C_44
   18  A    between atoms: C_33  and  C_50
   19  A    between atoms: C_36  and  C_55
   20  A    between atoms: C_40  and  C_49
                            x       y       z     vdW  Elec       q    Type
                         _______ _______ _______ _____ _____    ______ ____

>  <TORSDO>
F 20

$$$$
=
 OpenBabel10222417023D

 55 59  0  0  1  0  0  0  0  0999 V2000
  190.9320  177.4450  142.0080 C   0  0  1  0  0  3  0  0  0  0  0  0
  191.6430  177.7320  143.2420 C   0  0  0  0  0  2  0  0  0  0  0  0
  191.1930  176.7900  144.1900 O   0  0  0  0  0  0  0  0  0  0  0  0
  190.9890  177.5000  145.4050 C   0  0  1  0  0  3  0  0  0  0  0  0
  189.6000  178.1700  145.4840 C   0  0  0  0  0  2  0  0  0  0  0  0
  188.5900  177.2110  145.3320 O   0  0  0  0  0  1  0  0  0  0  0  0
  190.8670  176.5350  146.6050 C   0  0  2  0  0  3  0  0  0  0  0  0
  190.3270  177.3080  147.8350 C   0  0  0  0  0  1  0  0  0  0  0  0
  192.8660  176.1620  148.2700 O   0  0  0  0  0  1  0  0  0  0  0  0
  192.1720  175.8490  147.0720 C   0  0  0  0  0  0  0  0  0  0  0  0
  192.6340  174.8880  146.3900 O   0  0  0  0  0  0  0  0  0  0  0  0
  191.7170  177.8750  140.9380 O   0  0  0  0  0  0  0  0  0  0  0  0
  190.5890  177.3590  138.9220 O   0  0  0  0  0  0  0  0  0  0  0  0
  194.0400  176.8650  140.0750 C   0  0  0  0  0  1  0  0  0  0  0  0
  191.5690  177.1940  139.7010 C   0  0  0  0  0  0  0  0  0  0  0  0
  192.8550  176.7870  139.2310 N   0  0  0  0  0  0  0  0  0  0  0  0
  192.9760  176.5540  137.7930 C   0  0  0  0  0  2  0  0  0  0  0  0
  192.9370  175.0860  137.4210 C   0  0  0  0  0  2  0  0  0  0  0  0
  192.1390  174.7060  136.1710 C   0  0  0  0  0  2  0  0  0  0  0  0
  191.0380  175.7470  135.8860 C   0  0  0  0  0  2  0  0  0  0  0  0
  187.1650  174.8760  135.9530 C   0  0  1  0  0  3  0  0  0  0  0  0
  185.0050  173.3910  137.5010 C   0  0  0  0  0  2  0  0  0  0  0  0
  189.6570  173.6050  136.4860 N   0  0  0  0  0  2  0  0  0  0  0  0
  186.2490  172.5720  136.9300 C   0  0  0  0  0  2  0  0  0  0  0  0
  188.5600  172.9120  137.0200 C   0  0  0  0  0  2  0  0  0  0  0  0
  184.9780  175.0000  137.1730 C   0  0  0  0  0  3  0  0  0  0  0  0
  188.5380  175.7120  135.7710 C   0  0  0  0  0  2  0  0  0  0  0  0
  187.3770  173.5010  136.7990 C   0  0  1  0  0  3  0  0  0  0  0  0
  185.9870  175.6400  136.5660 N   0  0  0  0  0  0  0  0  0  0  0  0
  189.7640  174.9090  135.7130 C   0  0  1  0  0  3  0  0  0  0  0  0
  190.1890  176.1320  141.8380 C   0  0  0  0  0  2  0  0  0  0  0  0
  188.7930  176.8590  142.0000 C   0  0  1  0  0  3  0  0  0  0  0  0
  187.6970  176.3150  142.8210 O   0  0  0  0  0  1  0  0  0  0  0  0
  188.7860  178.3840  142.0040 C   0  0  0  0  0  2  0  0  0  0  0  0
  183.4290  179.0700  140.5550 C   0  0  0  0  0  0  0  0  0  0  0  0
  186.4950  178.7200  141.0580 C   0  0  0  0  0  0  0  0  0  0  0  0
  187.7730  178.0420  139.2520 C   0  0  0  0  0  3  0  0  0  0  0  0
  181.8860  178.9030  140.8110 C   0  0  0  0  0  0  0  0  0  0  0  0
  183.8380  179.0020  142.9270 C   0  0  0  0  0  0  0  0  0  0  0  0
  186.2330  179.1360  142.4610 N   0  0  0  0  0  2  0  0  0  0  0  0
  183.8230  179.0950  141.7130 C   0  0  0  0  0  3  0  0  0  0  0  0
  183.8190  178.4550  138.2350 O   0  0  0  0  0  1  0  0  0  0  0  0
  185.1950  178.7500  143.4720 C   0  0  0  0  0  2  0  0  0  0  0  0
  186.5810  178.1050  138.7550 N   0  0  0  0  0  0  0  0  0  0  0  0
  181.4090  178.8120  142.3980 C   0  0  0  0  0  3  0  0  0  0  0  0
  184.3220  178.6750  139.5210 N   0  0  0  0  0  0  0  0  0  0  0  0
  185.7880  178.5710  139.8000 C   0  0  0  0  0  0  0  0  0  0  0  0
  182.4370  178.7860  143.3680 C   0  0  0  0  0  0  0  0  0  0  0  0
  187.8510  178.5060  140.7550 C   0  0  2  0  0  3  0  0  0  0  0  0
  182.4360  178.3460  144.6470 F   0  0  0  0  0  0  0  0  0  0  0  0
  181.0190  179.5040  139.6930 C   0  0  0  0  0  2  0  0  0  0  0  0
  180.3440  178.2380  139.0940 C   0  0  1  0  0  3  0  0  0  0  0  0
  180.4300  178.1720  137.6810 O   0  0  0  0  0  1  0  0  0  0  0  0
  179.8760  175.8730  140.1200 C   0  0  0  0  0  1  0  0  0  0  0  0
  180.8880  176.8890  139.5800 C   0  0  0  0  0  2  0  0  0  0  0  0
  1 31  1  6  0  0  0
  1  2  1  0  0  0  0
  2  3  1  0  0  0  0
  3  4  1  0  0  0  0
  4  5  1  6  0  0  0
  4  7  1  0  0  0  0
  6  5  1  0  0  0  0
  7 10  1  0  0  0  0
  7  8  1  1  0  0  0
 10  9  1  0  0  0  0
 11 10  2  0  0  0  0
 12  1  1  0  0  0  0
 13 15  2  0  0  0  0
 15 12  1  0  0  0  0
 16 15  1  0  0  0  0
 16 14  1  0  0  0  0
 17 16  1  0  0  0  0
 18 17  1  0  0  0  0
 19 18  1  0  0  0  0
 20 19  1  0  0  0  0
 21 27  1  1  0  0  0
 21 29  1  0  0  0  0
 21 28  1  0  0  0  0
 23 25  1  0  0  0  0
 24 22  1  0  0  0  0
 26 22  1  0  0  0  0
 28 24  1  6  0  0  0
 28 25  1  0  0  0  0
 29 26  2  0  0  0  0
 30 27  1  0  0  0  0
 30 20  1  1  0  0  0
 30 23  1  0  0  0  0
 31 32  1  0  0  0  0
 32 34  1  0  0  0  0
 32 33  1  1  0  0  0
 35 38  2  0  0  0  0
 35 41  1  0  0  0  0
 36 40  1  0  0  0  0
 37 49  1  0  0  0  0
 38 45  1  0  0  0  0
 39 48  1  0  0  0  0
 39 43  1  0  0  0  0
 40 43  1  0  0  0  0
 41 39  2  0  0  0  0
 42 46  1  0  0  0  0
 44 37  2  0  0  0  0
 44 47  1  0  0  0  0
 45 48  2  0  0  0  0
 46 47  1  0  0  0  0
 46 35  1  0  0  0  0
 47 36  2  0  0  0  0
 48 50  1  0  0  0  0
 49 36  1  0  0  0  0
 49 34  1  1  0  0  0
 51 38  1  0  0  0  0
 52 53  1  6  0  0  0
 52 55  1  0  0  0  0
 52 51  1  0  0  0  0
 55 54  1  0  0  0  0
M  END
>  <MODEL>
3

>  <REMARK>
 VINA RESULT:      -7.3      3.297     11.025
  Name = 
  20 active torsions:
  status: ('A' for Active; 'I' for Inactive)
    1  A    between atoms: C_8  and  C_39
    2  A    between atoms: C_9  and  C_28
    3  A    between atoms: C_9  and  C_33
    4  A    between atoms: C_10  and  C_29
    5  A    between atoms: C_12  and  C_17
    6  A    between atoms: C_12  and  C_55
    7  A    between atoms: C_15  and  C_39
    8  A    between atoms: C_15  and  C_52
    9  A    between atoms: C_17  and  C_49
   10  A    between atoms: C_18  and  C_44
   11  A    between atoms: O_27  and  C_46
   12  A    between atoms: O_27  and  C_55
   13  A    between atoms: C_28  and  C_31
   14  A    between atoms: C_29  and  C_44
   15  A    between atoms: C_31  and  N_51
   16  A    between atoms: O_32  and  C_36
   17  A    between atoms: O_32  and  C_44
   18  A    between atoms: C_33  and  C_50
   19  A    between atoms: C_36  and  C_55
   20  A    between atoms: C_40  and  C_49
                            x       y       z     vdW  Elec       q    Type
                         _______ _______ _______ _____ _____    ______ ____

>  <TORSDO>
F 20

$$$$
=
 OpenBabel10222417023D

 55 59  0  0  1  0  0  0  0  0999 V2000
  189.3340  177.3990  142.7680 C   0  0  1  0  0  3  0  0  0  0  0  0
  190.2580  178.4150  143.2430 C   0  0  0  0  0  2  0  0  0  0  0  0
  189.9250  178.6580  144.5920 O   0  0  0  0  0  0  0  0  0  0  0  0
  190.1490  177.4410  145.2930 C   0  0  1  0  0  3  0  0  0  0  0  0
  191.6350  177.0230  145.3120 C   0  0  0  0  0  2  0  0  0  0  0  0
  191.7880  175.7540  144.7360 O   0  0  0  0  0  1  0  0  0  0  0  0
  189.9220  177.6180  146.8110 C   0  0  2  0  0  3  0  0  0  0  0  0
  190.6390  176.4770  147.5750 C   0  0  0  0  0  1  0  0  0  0  0  0
  188.0160  177.0510  148.5290 O   0  0  0  0  0  1  0  0  0  0  0  0
  188.4540  177.5990  147.2940 C   0  0  0  0  0  0  0  0  0  0  0  0
  187.5710  178.1710  146.5890 O   0  0  0  0  0  0  0  0  0  0  0  0
  188.1060  178.0080  142.5080 O   0  0  0  0  0  0  0  0  0  0  0  0
  186.9890  176.6990  144.1330 O   0  0  0  0  0  0  0  0  0  0  0  0
  185.8750  179.2980  141.7910 C   0  0  0  0  0  1  0  0  0  0  0  0
  186.9530  177.4440  143.1130 C   0  0  0  0  0  0  0  0  0  0  0  0
  185.8140  178.2450  142.7940 N   0  0  0  0  0  0  0  0  0  0  0  0
  184.6770  178.1470  143.7080 C   0  0  0  0  0  2  0  0  0  0  0  0
  183.5870  179.1560  143.4100 C   0  0  0  0  0  2  0  0  0  0  0  0
  182.1790  178.8260  143.9120 C   0  0  0  0  0  2  0  0  0  0  0  0
  181.1080  179.4300  142.9810 C   0  0  0  0  0  2  0  0  0  0  0  0
  180.8680  177.9850  139.2910 C   0  0  1  0  0  3  0  0  0  0  0  0
  178.9350  176.9820  137.1640 C   0  0  0  0  0  2  0  0  0  0  0  0
  179.6620  177.5710  141.8370 N   0  0  0  0  0  2  0  0  0  0  0  0
  178.9870  176.2390  138.5730 C   0  0  0  0  0  2  0  0  0  0  0  0
  178.9320  177.0020  140.7830 C   0  0  0  0  0  2  0  0  0  0  0  0
  179.9740  178.2380  136.9610 C   0  0  0  0  0  3  0  0  0  0  0  0
  181.3370  178.8880  140.5490 C   0  0  0  0  0  2  0  0  0  0  0  0
  179.4690  177.2010  139.5710 C   0  0  1  0  0  3  0  0  0  0  0  0
  180.7500  178.7120  137.9470 N   0  0  0  0  0  0  0  0  0  0  0  0
  180.9440  178.3850  141.8690 C   0  0  1  0  0  3  0  0  0  0  0  0
  189.7990  176.3350  141.7910 C   0  0  0  0  0  2  0  0  0  0  0  0
  190.9900  177.2530  141.3000 C   0  0  1  0  0  3  0  0  0  0  0  0
  192.2310  177.4370  142.0730 O   0  0  0  0  0  1  0  0  0  0  0  0
  191.2530  177.3290  139.7990 C   0  0  0  0  0  2  0  0  0  0  0  0
  187.2490  175.1130  136.5860 C   0  0  0  0  0  0  0  0  0  0  0  0
  189.2630  176.5330  138.5110 C   0  0  0  0  0  0  0  0  0  0  0  0
  188.6350  178.6070  139.3240 C   0  0  0  0  0  3  0  0  0  0  0  0
  186.7600  174.3490  135.3000 C   0  0  0  0  0  0  0  0  0  0  0  0
  189.3970  174.0370  136.4160 C   0  0  0  0  0  0  0  0  0  0  0  0
  190.1410  175.3460  138.3420 N   0  0  0  0  0  2  0  0  0  0  0  0
  188.3740  174.6400  136.6840 C   0  0  0  0  0  3  0  0  0  0  0  0
  185.7520  177.0050  136.8810 O   0  0  0  0  0  1  0  0  0  0  0  0
  190.5810  174.5530  137.1470 C   0  0  0  0  0  2  0  0  0  0  0  0
  187.6300  178.2710  138.5810 N   0  0  0  0  0  0  0  0  0  0  0  0
  187.8470  173.3030  134.6080 C   0  0  0  0  0  3  0  0  0  0  0  0
  186.9710  176.3810  137.1650 N   0  0  0  0  0  0  0  0  0  0  0  0
  187.9430  176.9960  138.1200 C   0  0  0  0  0  0  0  0  0  0  0  0
  189.1430  173.2720  135.1710 C   0  0  0  0  0  0  0  0  0  0  0  0
  189.7440  177.4930  139.4170 C   0  0  2  0  0  3  0  0  0  0  0  0
  190.3230  172.8610  134.6520 F   0  0  0  0  0  0  0  0  0  0  0  0
  185.2370  174.1460  135.2600 C   0  0  0  0  0  2  0  0  0  0  0  0
  184.9820  173.3610  136.5780 C   0  0  1  0  0  3  0  0  0  0  0  0
  184.0150  173.9700  137.4150 O   0  0  0  0  0  1  0  0  0  0  0  0
  183.1410  171.5500  137.0200 C   0  0  0  0  0  1  0  0  0  0  0  0
  184.5020  171.9130  136.4180 C   0  0  0  0  0  2  0  0  0  0  0  0
  1 31  1  6  0  0  0
  1  2  1  0  0  0  0
  2  3  1  0  0  0  0
  3  4  1  0  0  0  0
  4  5  1  1  0  0  0
  4  7  1  0  0  0  0
  6  5  1  0  0  0  0
  7 10  1  0  0  0  0
  7  8  1  1  0  0  0
 10  9  1  0  0  0  0
 11 10  2  0  0  0  0
 12  1  1  0  0  0  0
 12 15  1  0  0  0  0
 14 16  1  0  0  0  0
 15 13  2  0  0  0  0
 16 15  1  0  0  0  0
 16 17  1  0  0  0  0
 18 17  1  0  0  0  0
 18 19  1  0  0  0  0
 20 19  1  0  0  0  0
 21 28  1  0  0  0  0
 21 27  1  1  0  0  0
 22 24  1  0  0  0  0
 23 30  1  0  0  0  0
 25 23  1  0  0  0  0
 26 22  1  0  0  0  0
 26 29  2  0  0  0  0
 27 30  1  0  0  0  0
 28 24  1  1  0  0  0
 28 25  1  0  0  0  0
 29 21  1  0  0  0  0
 30 20  1  1  0  0  0
 32 31  1  0  0  0  0
 32 33  1  1  0  0  0
 34 32  1  0  0  0  0
 35 41  1  0  0  0  0
 35 46  1  0  0  0  0
 36 49  1  0  0  0  0
 37 49  1  0  0  0  0
 38 35  2  0  0  0  0
 39 41  2  0  0  0  0
 39 43  1  0  0  0  0
 40 36  1  0  0  0  0
 42 46  1  0  0  0  0
 43 40  1  0  0  0  0
 44 37  2  0  0  0  0
 45 48  2  0  0  0  0
 45 38  1  0  0  0  0
 46 47  1  0  0  0  0
 47 36  2  0  0  0  0
 47 44  1  0  0  0  0
 48 39  1  0  0  0  0
 49 34  1  6  0  0  0
 50 48  1  0  0  0  0
 51 38  1  0  0  0  0
 51 52  1  0  0  0  0
 52 53  1  1  0  0  0
 55 52  1  0  0  0  0
 55 54  1  0  0  0  0
M  END
>  <MODEL>
4

>  <REMARK>
 VINA RESULT:      -7.2      3.229      8.910
  Name = 
  20 active torsions:
  status: ('A' for Active; 'I' for Inactive)
    1  A    between atoms: C_8  and  C_39
    2  A    between atoms: C_9  and  C_28
    3  A    between atoms: C_9  and  C_33
    4  A    between atoms: C_10  and  C_29
    5  A    between atoms: C_12  and  C_17
    6  A    between atoms: C_12  and  C_55
    7  A    between atoms: C_15  and  C_39
    8  A    between atoms: C_15  and  C_52
    9  A    between atoms: C_17  and  C_49
   10  A    between atoms: C_18  and  C_44
   11  A    between atoms: O_27  and  C_46
   12  A    between atoms: O_27  and  C_55
   13  A    between atoms: C_28  and  C_31
   14  A    between atoms: C_29  and  C_44
   15  A    between atoms: C_31  and  N_51
   16  A    between atoms: O_32  and  C_36
   17  A    between atoms: O_32  and  C_44
   18  A    between atoms: C_33  and  C_50
   19  A    between atoms: C_36  and  C_55
   20  A    between atoms: C_40  and  C_49
                            x       y       z     vdW  Elec       q    Type
                         _______ _______ _______ _____ _____    ______ ____

>  <TORSDO>
F 20

$$$$
=
 OpenBabel10222417023D

 55 59  0  0  1  0  0  0  0  0999 V2000
  183.4210  176.1390  137.4350 C   0  0  1  0  0  3  0  0  0  0  0  0
  182.4270  176.6400  136.5010 C   0  0  0  0  0  2  0  0  0  0  0  0
  182.2530  175.6350  135.5270 O   0  0  0  0  0  0  0  0  0  0  0  0
  181.5300  174.5820  136.1530 C   0  0  1  0  0  3  0  0  0  0  0  0
  180.0860  174.4450  135.6220 C   0  0  0  0  0  2  0  0  0  0  0  0
  179.1700  174.5340  136.6790 O   0  0  0  0  0  1  0  0  0  0  0  0
  182.0790  173.2000  135.7380 C   0  0  2  0  0  3  0  0  0  0  0  0
  181.2080  172.6220  134.5940 C   0  0  0  0  0  1  0  0  0  0  0  0
  183.1850  171.2050  137.0430 O   0  0  0  0  0  0  0  0  0  0  0  0
  182.1140  172.1140  136.8370 C   0  0  0  0  0  0  0  0  0  0  0  0
  181.1630  172.0590  137.6720 O   0  0  0  0  0  1  0  0  0  0  0  0
  184.6750  176.2190  136.8290 O   0  0  0  0  0  0  0  0  0  0  0  0
  185.2440  174.0090  137.4580 O   0  0  0  0  0  0  0  0  0  0  0  0
  187.0340  176.6510  135.6420 C   0  0  0  0  0  1  0  0  0  0  0  0
  185.5900  175.1610  137.0720 C   0  0  0  0  0  0  0  0  0  0  0  0
  186.7810  175.3860  136.3170 N   0  0  0  0  0  0  0  0  0  0  0  0
  187.5940  174.2070  136.0230 C   0  0  0  0  0  2  0  0  0  0  0  0
  188.9640  174.5510  135.4750 C   0  0  0  0  0  2  0  0  0  0  0  0
  189.9730  175.1560  136.4540 C   0  0  0  0  0  2  0  0  0  0  0  0
  190.8510  176.2120  135.7540 C   0  0  0  0  0  2  0  0  0  0  0  0
  193.8400  173.6150  136.0340 C   0  0  1  0  0  3  0  0  0  0  0  0
  195.6260  172.1220  137.9980 C   0  0  0  0  0  2  0  0  0  0  0  0
  192.9550  176.0080  137.2990 N   0  0  0  0  0  2  0  0  0  0  0  0
  195.6240  173.7160  138.0130 C   0  0  0  0  0  2  0  0  0  0  0  0
  193.9140  175.3110  138.0500 C   0  0  0  0  0  2  0  0  0  0  0  0
  194.6630  171.4010  136.8790 C   0  0  0  0  0  3  0  0  0  0  0  0
  192.4780  174.3250  135.5260 C   0  0  0  0  0  2  0  0  0  0  0  0
  194.3320  174.1700  137.4850 C   0  0  1  0  0  3  0  0  0  0  0  0
  193.8220  172.0840  136.0880 N   0  0  0  0  0  0  0  0  0  0  0  0
  192.2860  175.7110  135.9690 C   0  0  1  0  0  3  0  0  0  0  0  0
  183.3400  176.4990  138.9080 C   0  0  0  0  0  2  0  0  0  0  0  0
  183.1540  178.0300  138.5610 C   0  0  1  0  0  3  0  0  0  0  0  0
  181.9330  178.7850  138.8960 O   0  0  0  0  0  1  0  0  0  0  0  0
  184.3900  178.9230  138.6110 C   0  0  0  0  0  2  0  0  0  0  0  0
  188.0710  177.8120  142.6710 C   0  0  0  0  0  0  0  0  0  0  0  0
  185.8140  178.5280  140.6290 C   0  0  0  0  0  0  0  0  0  0  0  0
  183.6520  178.5880  141.4500 C   0  0  0  0  0  3  0  0  0  0  0  0
  189.3380  177.0700  143.2360 C   0  0  0  0  0  0  0  0  0  0  0  0
  188.9340  177.5970  140.4330 C   0  0  0  0  0  0  0  0  0  0  0  0
  186.8860  178.6420  139.6050 N   0  0  0  0  0  2  0  0  0  0  0  0
  188.3630  177.8310  141.4830 C   0  0  0  0  0  3  0  0  0  0  0  0
  186.3610  177.6750  144.3940 O   0  0  0  0  0  1  0  0  0  0  0  0
  188.0630  177.7840  139.2460 C   0  0  0  0  0  2  0  0  0  0  0  0
  184.3490  178.2800  142.4950 N   0  0  0  0  0  0  0  0  0  0  0  0
  190.4810  176.6150  142.1220 C   0  0  0  0  0  3  0  0  0  0  0  0
  186.7050  177.8980  143.0570 N   0  0  0  0  0  0  0  0  0  0  0  0
  185.6690  178.2940  142.0540 C   0  0  1  0  0  3  0  0  0  0  0  0
  190.1660  176.8390  140.7630 C   0  0  0  0  0  0  0  0  0  0  0  0
  184.5270  178.8560  140.1690 C   0  0  0  0  0  0  0  0  0  0  0  0
  190.6540  176.2710  139.6360 F   0  0  0  0  0  0  0  0  0  0  0  0
  189.6670  177.4540  144.6880 C   0  0  0  0  0  2  0  0  0  0  0  0
  191.2040  177.2260  144.7400 C   0  0  1  0  0  3  0  0  0  0  0  0
  191.9460  178.4290  144.8440 O   0  0  0  0  0  1  0  0  0  0  0  0
  191.1440  176.6150  147.2870 C   0  0  0  0  0  1  0  0  0  0  0  0
  191.7170  176.3520  145.8920 C   0  0  0  0  0  2  0  0  0  0  0  0
  1  2  1  6  0  0  0
  1 31  1  0  0  0  0
  3  4  1  0  0  0  0
  3  2  1  0  0  0  0
  4  5  1  6  0  0  0
  5  6  1  0  0  0  0
  7  8  1  6  0  0  0
  7  4  1  0  0  0  0
  7 10  1  0  0  0  0
 10  9  2  0  0  0  0
 10 11  1  0  0  0  0
 12 15  1  0  0  0  0
 12  1  1  0  0  0  0
 14 16  1  0  0  0  0
 15 13  2  0  0  0  0
 16 15  1  0  0  0  0
 17 16  1  0  0  0  0
 18 17  1  0  0  0  0
 18 19  1  0  0  0  0
 20 19  1  0  0  0  0
 21 27  1  1  0  0  0
 21 29  1  0  0  0  0
 21 28  1  0  0  0  0
 22 24  1  0  0  0  0
 23 25  1  0  0  0  0
 26 22  1  0  0  0  0
 27 30  1  0  0  0  0
 28 24  1  6  0  0  0
 28 25  1  0  0  0  0
 29 26  2  0  0  0  0
 30 20  1  1  0  0  0
 30 23  1  0  0  0  0
 32 34  1  0  0  0  0
 32 33  1  1  0  0  0
 32 31  1  0  0  0  0
 34 49  1  0  0  0  0
 35 46  1  0  0  0  0
 35 38  1  0  0  0  0
 37 44  2  0  0  0  0
 38 51  1  0  0  0  0
 39 48  2  0  0  0  0
 39 41  1  0  0  0  0
 40 36  1  0  0  0  0
 41 35  2  0  0  0  0
 43 40  1  0  0  0  0
 43 39  1  0  0  0  0
 45 38  2  0  0  0  0
 46 42  1  0  0  0  0
 47 36  1  6  0  0  0
 47 44  1  0  0  0  0
 47 46  1  0  0  0  0
 48 45  1  0  0  0  0
 49 36  2  0  0  0  0
 49 37  1  0  0  0  0
 50 48  1  0  0  0  0
 51 52  1  0  0  0  0
 52 53  1  1  0  0  0
 52 55  1  0  0  0  0
 55 54  1  0  0  0  0
M  END
>  <MODEL>
5

>  <REMARK>
 VINA RESULT:      -7.0      3.349      7.954
  Name = 
  20 active torsions:
  status: ('A' for Active; 'I' for Inactive)
    1  A    between atoms: C_8  and  C_39
    2  A    between atoms: C_9  and  C_28
    3  A    between atoms: C_9  and  C_33
    4  A    between atoms: C_10  and  C_29
    5  A    between atoms: C_12  and  C_17
    6  A    between atoms: C_12  and  C_55
    7  A    between atoms: C_15  and  C_39
    8  A    between atoms: C_15  and  C_52
    9  A    between atoms: C_17  and  C_49
   10  A    between atoms: C_18  and  C_44
   11  A    between atoms: O_27  and  C_46
   12  A    between atoms: O_27  and  C_55
   13  A    between atoms: C_28  and  C_31
   14  A    between atoms: C_29  and  C_44
   15  A    between atoms: C_31  and  N_51
   16  A    between atoms: O_32  and  C_36
   17  A    between atoms: O_32  and  C_44
   18  A    between atoms: C_33  and  C_50
   19  A    between atoms: C_36  and  C_55
   20  A    between atoms: C_40  and  C_49
                            x       y       z     vdW  Elec       q    Type
                         _______ _______ _______ _____ _____    ______ ____

>  <TORSDO>
F 20

$$$$
=
 OpenBabel10222417023D

 55 59  0  0  1  0  0  0  0  0999 V2000
  187.7720  177.8760  143.0810 C   0  0  1  0  0  3  0  0  0  0  0  0
  188.5730  177.0330  143.9520 C   0  0  0  0  0  2  0  0  0  0  0  0
  189.1990  177.8960  144.8770 O   0  0  0  0  0  0  0  0  0  0  0  0
  190.3510  177.2140  145.3570 C   0  0  1  0  0  3  0  0  0  0  0  0
  191.6690  177.7960  144.8010 C   0  0  0  0  0  2  0  0  0  0  0  0
  191.4510  179.0780  144.2790 O   0  0  0  0  0  1  0  0  0  0  0  0
  190.5750  177.4820  146.8610 C   0  0  2  0  0  3  0  0  0  0  0  0
  191.5730  176.4400  147.4260 C   0  0  0  0  0  1  0  0  0  0  0  0
  188.9240  178.4250  148.6750 O   0  0  0  0  0  1  0  0  0  0  0  0
  189.3250  177.4100  147.7670 C   0  0  0  0  0  0  0  0  0  0  0  0
  188.5480  176.4160  147.6580 O   0  0  0  0  0  0  0  0  0  0  0  0
  188.6180  178.4710  142.1450 O   0  0  0  0  0  0  0  0  0  0  0  0
  187.5620  178.6450  140.0340 O   0  0  0  0  0  0  0  0  0  0  0  0
  190.7680  177.2350  141.1390 C   0  0  0  0  0  1  0  0  0  0  0  0
  188.4360  178.1220  140.7810 C   0  0  0  0  0  0  0  0  0  0  0  0
  189.6530  177.5810  140.2670 N   0  0  0  0  0  0  0  0  0  0  0  0
  189.8330  177.6510  138.8170 C   0  0  0  0  0  2  0  0  0  0  0  0
  190.2210  176.3220  138.2010 C   0  0  0  0  0  2  0  0  0  0  0  0
  189.3590  175.8170  137.0410 C   0  0  0  0  0  2  0  0  0  0  0  0
  189.6760  174.3410  136.7240 C   0  0  0  0  0  2  0  0  0  0  0  0
  185.9500  174.3320  135.3550 C   0  0  1  0  0  3  0  0  0  0  0  0
  183.0360  173.9560  136.1560 C   0  0  0  0  0  2  0  0  0  0  0  0
  187.5590  172.8730  137.1960 N   0  0  0  0  0  2  0  0  0  0  0  0
  184.0630  172.7600  136.3930 C   0  0  0  0  0  2  0  0  0  0  0  0
  186.1850  172.6480  137.3680 C   0  0  0  0  0  2  0  0  0  0  0  0
  183.6430  175.3130  135.4560 C   0  0  0  0  0  3  0  0  0  0  0  0
  187.4950  174.7600  135.5710 C   0  0  0  0  0  2  0  0  0  0  0  0
  185.4050  173.3390  136.5260 C   0  0  1  0  0  3  0  0  0  0  0  0
  184.9480  175.4810  135.1960 N   0  0  0  0  0  0  0  0  0  0  0  0
  188.3370  173.7640  136.2430 C   0  0  1  0  0  3  0  0  0  0  0  0
  186.4180  177.4010  142.5870 C   0  0  0  0  0  2  0  0  0  0  0  0
  185.6710  178.3590  143.6000 C   0  0  1  0  0  3  0  0  0  0  0  0
  186.1170  178.5600  144.9900 O   0  0  0  0  0  1  0  0  0  0  0  0
  185.0240  179.6200  143.0360 C   0  0  0  0  0  2  0  0  0  0  0  0
  180.9090  177.3810  139.9850 C   0  0  0  0  0  0  0  0  0  0  0  0
  183.0330  178.5710  141.9460 C   0  0  0  0  0  0  0  0  0  0  0  0
  182.2640  179.2570  144.0180 C   0  0  0  0  0  3  0  0  0  0  0  0
  180.1220  177.1890  138.6350 C   0  0  0  0  0  0  0  0  0  0  0  0
  182.9050  177.9230  138.7530 C   0  0  0  0  0  0  0  0  0  0  0  0
  184.0390  178.3280  140.8790 N   0  0  0  0  0  2  0  0  0  0  0  0
  182.0170  177.6390  139.5360 C   0  0  0  0  0  3  0  0  0  0  0  0
  179.2390  177.7010  141.7220 O   0  0  0  0  0  1  0  0  0  0  0  0
  184.0590  178.5920  139.4030 C   0  0  0  0  0  2  0  0  0  0  0  0
  181.1920  178.8160  143.4430 N   0  0  0  0  0  0  0  0  0  0  0  0
  180.9930  177.4050  137.2390 C   0  0  0  0  0  3  0  0  0  0  0  0
  180.5640  177.8210  141.2920 N   0  0  0  0  0  0  0  0  0  0  0  0
  181.6250  178.3350  142.2110 C   0  0  0  0  0  0  0  0  0  0  0  0
  182.3290  177.8430  137.3870 C   0  0  0  0  0  0  0  0  0  0  0  0
  183.5630  179.0700  143.1480 C   0  0  2  0  0  3  0  0  0  0  0  0
  183.1580  178.4640  136.5170 F   0  0  0  0  0  0  0  0  0  0  0  0
  178.9360  176.2200  138.7590 C   0  0  0  0  0  2  0  0  0  0  0  0
  179.6420  174.8370  138.6920 C   0  0  1  0  0  3  0  0  0  0  0  0
  179.2330  173.9480  139.7170 O   0  0  0  0  0  1  0  0  0  0  0  0
  179.0560  172.5710  137.5140 C   0  0  0  0  0  1  0  0  0  0  0  0
  179.4540  174.0450  137.3920 C   0  0  0  0  0  2  0  0  0  0  0  0
  1 31  1  6  0  0  0
  1  2  1  0  0  0  0
  2  3  1  0  0  0  0
  3  4  1  0  0  0  0
  4  5  1  6  0  0  0
  4  7  1  0  0  0  0
  6  5  1  0  0  0  0
  7  8  1  1  0  0  0
  7 10  1  0  0  0  0
 10  9  1  0  0  0  0
 11 10  2  0  0  0  0
 12  1  1  0  0  0  0
 13 15  2  0  0  0  0
 15 12  1  0  0  0  0
 16 15  1  0  0  0  0
 16 14  1  0  0  0  0
 17 16  1  0  0  0  0
 18 17  1  0  0  0  0
 19 18  1  0  0  0  0
 20 19  1  0  0  0  0
 21 27  1  1  0  0  0
 21 28  1  0  0  0  0
 22 24  1  0  0  0  0
 23 25  1  0  0  0  0
 26 22  1  0  0  0  0
 27 30  1  0  0  0  0
 28 24  1  6  0  0  0
 28 25  1  0  0  0  0
 29 21  1  0  0  0  0
 29 26  2  0  0  0  0
 30 20  1  1  0  0  0
 30 23  1  0  0  0  0
 31 32  1  0  0  0  0
 32 33  1  1  0  0  0
 34 32  1  0  0  0  0
 35 46  1  0  0  0  0
 36 47  2  0  0  0  0
 36 49  1  0  0  0  0
 38 51  1  0  0  0  0
 38 35  2  0  0  0  0
 39 43  1  0  0  0  0
 39 41  2  0  0  0  0
 40 36  1  0  0  0  0
 41 35  1  0  0  0  0
 43 40  1  0  0  0  0
 44 37  2  0  0  0  0
 45 48  2  0  0  0  0
 45 38  1  0  0  0  0
 46 42  1  0  0  0  0
 46 47  1  0  0  0  0
 47 44  1  0  0  0  0
 48 39  1  0  0  0  0
 49 34  1  6  0  0  0
 49 37  1  0  0  0  0
 50 48  1  0  0  0  0
 52 51  1  0  0  0  0
 52 53  1  1  0  0  0
 55 54  1  0  0  0  0
 55 52  1  0  0  0  0
M  END
>  <MODEL>
6

>  <REMARK>
 VINA RESULT:      -6.8      3.566     10.783
  Name = 
  20 active torsions:
  status: ('A' for Active; 'I' for Inactive)
    1  A    between atoms: C_8  and  C_39
    2  A    between atoms: C_9  and  C_28
    3  A    between atoms: C_9  and  C_33
    4  A    between atoms: C_10  and  C_29
    5  A    between atoms: C_12  and  C_17
    6  A    between atoms: C_12  and  C_55
    7  A    between atoms: C_15  and  C_39
    8  A    between atoms: C_15  and  C_52
    9  A    between atoms: C_17  and  C_49
   10  A    between atoms: C_18  and  C_44
   11  A    between atoms: O_27  and  C_46
   12  A    between atoms: O_27  and  C_55
   13  A    between atoms: C_28  and  C_31
   14  A    between atoms: C_29  and  C_44
   15  A    between atoms: C_31  and  N_51
   16  A    between atoms: O_32  and  C_36
   17  A    between atoms: O_32  and  C_44
   18  A    between atoms: C_33  and  C_50
   19  A    between atoms: C_36  and  C_55
   20  A    between atoms: C_40  and  C_49
                            x       y       z     vdW  Elec       q    Type
                         _______ _______ _______ _____ _____    ______ ____

>  <TORSDO>
F 20

$$$$
=
 OpenBabel10222417023D

 55 59  0  0  1  0  0  0  0  0999 V2000
  181.5140  177.7270  138.7250 C   0  0  1  0  0  3  0  0  0  0  0  0
  181.2510  179.1150  138.3860 C   0  0  0  0  0  2  0  0  0  0  0  0
  180.3700  179.0970  137.2840 O   0  0  0  0  0  0  0  0  0  0  0  0
  180.3780  180.4080  136.7340 C   0  0  1  0  0  3  0  0  0  0  0  0
  179.0340  180.7930  136.0770 C   0  0  0  0  0  2  0  0  0  0  0  0
  179.2080  180.9960  134.7010 O   0  0  0  0  0  1  0  0  0  0  0  0
  180.4290  181.4820  137.8440 C   0  0  2  0  0  3  0  0  0  0  0  0
  179.0010  182.0280  138.0980 C   0  0  0  0  0  1  0  0  0  0  0  0
  181.0210  183.7250  136.6090 O   0  0  0  0  0  0  0  0  0  0  0  0
  181.3150  182.7180  137.5660 C   0  0  0  0  0  0  0  0  0  0  0  0
  182.3430  182.9050  138.2800 O   0  0  0  0  0  1  0  0  0  0  0  0
  181.9170  177.0610  137.5670 O   0  0  0  0  0  0  0  0  0  0  0  0
  184.2520  176.8270  137.8800 O   0  0  0  0  0  0  0  0  0  0  0  0
  182.1520  177.4090  134.9250 C   0  0  0  0  0  1  0  0  0  0  0  0
  183.2740  177.1970  137.1720 C   0  0  0  0  0  0  0  0  0  0  0  0
  183.3450  177.2550  135.7460 N   0  0  0  0  0  0  0  0  0  0  0  0
  184.6220  176.8750  135.1450 C   0  0  0  0  0  2  0  0  0  0  0  0
  184.9270  175.3970  135.2770 C   0  0  0  0  0  2  0  0  0  0  0  0
  186.2440  174.9020  134.6760 C   0  0  0  0  0  2  0  0  0  0  0  0
  187.2750  176.0460  134.5940 C   0  0  0  0  0  2  0  0  0  0  0  0
  189.5480  175.9400  137.8460 C   0  0  1  0  0  3  0  0  0  0  0  0
  192.2280  176.8040  139.0030 C   0  0  0  0  0  2  0  0  0  0  0  0
  189.8380  175.7310  135.0210 N   0  0  0  0  0  2  0  0  0  0  0  0
  192.2090  175.8680  137.7130 C   0  0  0  0  0  2  0  0  0  0  0  0
  191.0520  175.9710  135.6830 C   0  0  0  0  0  2  0  0  0  0  0  0
  190.7670  177.2100  139.6330 C   0  0  0  0  0  3  0  0  0  0  0  0
  188.2400  176.0650  136.9020 C   0  0  0  0  0  2  0  0  0  0  0  0
  190.9390  176.0920  137.0130 C   0  0  1  0  0  3  0  0  0  0  0  0
  189.6030  176.8870  139.0500 N   0  0  0  0  0  0  0  0  0  0  0  0
  188.4110  175.5970  135.5220 C   0  0  1  0  0  3  0  0  0  0  0  0
  182.2350  177.3740  140.0130 C   0  0  0  0  0  2  0  0  0  0  0  0
  181.3280  178.3730  140.8380 C   0  0  1  0  0  3  0  0  0  0  0  0
  180.0040  178.0020  141.3680 O   0  0  0  0  0  1  0  0  0  0  0  0
  182.0280  179.3800  141.7450 C   0  0  0  0  0  2  0  0  0  0  0  0
  186.9080  177.6750  143.8760 C   0  0  0  0  0  0  0  0  0  0  0  0
  184.2990  178.5640  142.3990 C   0  0  0  0  0  0  0  0  0  0  0  0
  184.5200  179.1700  140.1770 C   0  0  0  0  0  3  0  0  0  0  0  0
  187.9910  177.6350  145.0170 C   0  0  0  0  0  0  0  0  0  0  0  0
  185.1970  178.1400  145.5050 C   0  0  0  0  0  0  0  0  0  0  0  0
  183.5840  178.3140  143.6780 N   0  0  0  0  0  2  0  0  0  0  0  0
  185.9090  177.8750  144.5540 C   0  0  0  0  0  3  0  0  0  0  0  0
  188.1110  178.0090  141.7900 O   0  0  0  0  0  1  0  0  0  0  0  0
  183.8710  178.6730  145.1050 C   0  0  0  0  0  2  0  0  0  0  0  0
  185.7280  178.8530  140.5110 N   0  0  0  0  0  0  0  0  0  0  0  0
  187.4380  177.8740  146.5640 C   0  0  0  0  0  3  0  0  0  0  0  0
  186.9100  178.0530  142.5050 N   0  0  0  0  0  0  0  0  0  0  0  0
  185.6280  178.4220  141.8310 C   0  0  1  0  0  3  0  0  0  0  0  0
  186.0690  178.1960  146.7050 C   0  0  0  0  0  0  0  0  0  0  0  0
  183.4710  178.9400  141.3280 C   0  0  0  0  0  0  0  0  0  0  0  0
  185.4030  178.8070  147.7120 F   0  0  0  0  0  0  0  0  0  0  0  0
  189.2030  176.7560  144.6710 C   0  0  0  0  0  2  0  0  0  0  0  0
  190.3920  177.6690  145.0830 C   0  0  1  0  0  3  0  0  0  0  0  0
  191.3720  176.9980  145.8550 O   0  0  0  0  0  1  0  0  0  0  0  0
  191.2900  177.5250  142.6260 C   0  0  0  0  0  1  0  0  0  0  0  0
  191.1750  178.3150  143.9330 C   0  0  0  0  0  2  0  0  0  0  0  0
  1  2  1  6  0  0  0
  1 31  1  0  0  0  0
  3  2  1  0  0  0  0
  4  5  1  1  0  0  0
  4  3  1  0  0  0  0
  4  7  1  0  0  0  0
  6  5  1  0  0  0  0
  7  8  1  6  0  0  0
  9 10  2  0  0  0  0
 10  7  1  0  0  0  0
 10 11  1  0  0  0  0
 12  1  1  0  0  0  0
 14 16  1  0  0  0  0
 15 12  1  0  0  0  0
 15 13  2  0  0  0  0
 16 15  1  0  0  0  0
 17 18  1  0  0  0  0
 17 16  1  0  0  0  0
 19 18  1  0  0  0  0
 20 19  1  0  0  0  0
 21 27  1  6  0  0  0
 21 29  1  0  0  0  0
 22 26  1  0  0  0  0
 23 30  1  0  0  0  0
 23 25  1  0  0  0  0
 24 22  1  0  0  0  0
 28 25  1  6  0  0  0
 28 24  1  0  0  0  0
 28 21  1  0  0  0  0
 29 26  2  0  0  0  0
 30 20  1  6  0  0  0
 30 27  1  0  0  0  0
 31 32  1  0  0  0  0
 32 33  1  1  0  0  0
 32 34  1  0  0  0  0
 35 41  2  0  0  0  0
 35 38  1  0  0  0  0
 36 40  1  0  0  0  0
 37 44  2  0  0  0  0
 37 49  1  0  0  0  0
 38 45  2  0  0  0  0
 39 48  2  0  0  0  0
 40 43  1  0  0  0  0
 41 39  1  0  0  0  0
 42 46  1  0  0  0  0
 43 39  1  0  0  0  0
 45 48  1  0  0  0  0
 46 35  1  0  0  0  0
 47 44  1  1  0  0  0
 47 36  1  0  0  0  0
 47 46  1  0  0  0  0
 48 50  1  0  0  0  0
 49 34  1  0  0  0  0
 49 36  2  0  0  0  0
 51 38  1  0  0  0  0
 51 52  1  0  0  0  0
 52 53  1  6  0  0  0
 54 55  1  0  0  0  0
 55 52  1  0  0  0  0
M  END
>  <MODEL>
7

>  <REMARK>
 VINA RESULT:      -6.8      3.097      7.623
  Name = 
  20 active torsions:
  status: ('A' for Active; 'I' for Inactive)
    1  A    between atoms: C_8  and  C_39
    2  A    between atoms: C_9  and  C_28
    3  A    between atoms: C_9  and  C_33
    4  A    between atoms: C_10  and  C_29
    5  A    between atoms: C_12  and  C_17
    6  A    between atoms: C_12  and  C_55
    7  A    between atoms: C_15  and  C_39
    8  A    between atoms: C_15  and  C_52
    9  A    between atoms: C_17  and  C_49
   10  A    between atoms: C_18  and  C_44
   11  A    between atoms: O_27  and  C_46
   12  A    between atoms: O_27  and  C_55
   13  A    between atoms: C_28  and  C_31
   14  A    between atoms: C_29  and  C_44
   15  A    between atoms: C_31  and  N_51
   16  A    between atoms: O_32  and  C_36
   17  A    between atoms: O_32  and  C_44
   18  A    between atoms: C_33  and  C_50
   19  A    between atoms: C_36  and  C_55
   20  A    between atoms: C_40  and  C_49
                            x       y       z     vdW  Elec       q    Type
                         _______ _______ _______ _____ _____    ______ ____

>  <TORSDO>
F 20

$$$$
=
 OpenBabel10222417023D

 55 59  0  0  1  0  0  0  0  0999 V2000
  183.5270  178.4360  138.9110 C   0  0  1  0  0  3  0  0  0  0  0  0
  182.6110  178.8330  137.8560 C   0  0  0  0  0  2  0  0  0  0  0  0
  181.3130  178.7570  138.4040 O   0  0  0  0  0  0  0  0  0  0  0  0
  180.4180  178.5960  137.3110 C   0  0  1  0  0  3  0  0  0  0  0  0
  180.8320  179.4130  136.0680 C   0  0  0  0  0  2  0  0  0  0  0  0
  180.3850  180.7360  136.1870 O   0  0  0  0  0  1  0  0  0  0  0  0
  180.5100  177.1740  136.7160 C   0  0  2  0  0  3  0  0  0  0  0  0
  179.8590  177.1610  135.3100 C   0  0  0  0  0  1  0  0  0  0  0  0
  180.1610  174.6710  137.4360 O   0  0  0  0  0  0  0  0  0  0  0  0
  179.8190  176.0460  137.5160 C   0  0  0  0  0  0  0  0  0  0  0  0
  178.9310  176.3550  138.3640 O   0  0  0  0  0  1  0  0  0  0  0  0
  182.9040  178.6560  140.1400 O   0  0  0  0  0  0  0  0  0  0  0  0
  184.9470  178.9970  141.2850 O   0  0  0  0  0  0  0  0  0  0  0  0
  181.4540  178.7450  142.3870 C   0  0  0  0  0  1  0  0  0  0  0  0
  183.7250  178.6780  141.2970 C   0  0  0  0  0  0  0  0  0  0  0  0
  182.9050  178.8490  142.4540 N   0  0  0  0  0  0  0  0  0  0  0  0
  183.5600  179.4060  143.6370 C   0  0  0  0  0  2  0  0  0  0  0  0
  183.2770  178.6180  144.9000 C   0  0  0  0  0  2  0  0  0  0  0  0
  184.4250  178.4750  145.9010 C   0  0  0  0  0  2  0  0  0  0  0  0
  185.7130  179.1250  145.3570 C   0  0  0  0  0  2  0  0  0  0  0  0
  188.9760  176.8650  145.3430 C   0  0  1  0  0  3  0  0  0  0  0  0
  191.3990  176.0530  143.6870 C   0  0  0  0  0  2  0  0  0  0  0  0
  186.9150  177.6630  143.5480 N   0  0  0  0  0  2  0  0  0  0  0  0
  189.9390  175.7810  143.1060 C   0  0  0  0  0  2  0  0  0  0  0  0
  188.0300  177.1160  142.8970 C   0  0  0  0  0  2  0  0  0  0  0  0
  191.4760  176.7370  145.1780 C   0  0  0  0  0  3  0  0  0  0  0  0
  187.8130  177.8610  145.8630 C   0  0  0  0  0  2  0  0  0  0  0  0
  189.0240  176.7500  143.7190 C   0  0  1  0  0  3  0  0  0  0  0  0
  190.3930  177.1650  145.8440 N   0  0  0  0  0  0  0  0  0  0  0  0
  186.6190  177.9350  145.0130 C   0  0  1  0  0  3  0  0  0  0  0  0
  184.3570  177.1730  138.7720 C   0  0  0  0  0  2  0  0  0  0  0  0
  185.3590  177.8960  137.7850 C   0  0  1  0  0  3  0  0  0  0  0  0
  185.9800  179.1990  138.0850 O   0  0  0  0  0  1  0  0  0  0  0  0
  186.2860  177.0180  136.9490 C   0  0  0  0  0  2  0  0  0  0  0  0
  191.6330  175.5270  137.6170 C   0  0  0  0  0  0  0  0  0  0  0  0
  188.7000  176.5970  137.4470 C   0  0  0  0  0  0  0  0  0  0  0  0
  187.9580  177.8800  139.2240 C   0  0  0  0  0  3  0  0  0  0  0  0
  192.8030  174.4770  137.5570 C   0  0  0  0  0  0  0  0  0  0  0  0
  190.4490  174.3160  135.9060 C   0  0  0  0  0  0  0  0  0  0  0  0
  188.6080  175.9080  136.1330 N   0  0  0  0  0  2  0  0  0  0  0  0
  190.9110  175.0730  136.7400 C   0  0  0  0  0  3  0  0  0  0  0  0
  191.8520  176.6900  139.7410 O   0  0  0  0  0  1  0  0  0  0  0  0
  189.0030  174.5410  135.6570 C   0  0  0  0  0  2  0  0  0  0  0  0
  189.1730  177.5940  139.5620 N   0  0  0  0  0  0  0  0  0  0  0  0
  192.6350  173.2510  136.4510 C   0  0  0  0  0  3  0  0  0  0  0  0
  191.0680  176.3410  138.6370 N   0  0  0  0  0  0  0  0  0  0  0  0
  189.6780  176.8700  138.4850 C   0  0  1  0  0  3  0  0  0  0  0  0
  191.4140  173.2010  135.7410 C   0  0  0  0  0  0  0  0  0  0  0  0
  187.5600  177.3390  137.8000 C   0  0  0  0  0  0  0  0  0  0  0  0
  190.8090  172.1800  135.0920 F   0  0  0  0  0  0  0  0  0  0  0  0
  194.1600  175.0570  137.9880 C   0  0  0  0  0  2  0  0  0  0  0  0
  195.1110  173.8460  137.7720 C   0  0  1  0  0  3  0  0  0  0  0  0
  195.5460  173.7080  136.4300 O   0  0  0  0  0  1  0  0  0  0  0  0
  197.5040  174.8270  138.1930 C   0  0  0  0  0  1  0  0  0  0  0  0
  196.4010  173.8450  138.6020 C   0  0  0  0  0  2  0  0  0  0  0  0
  1  2  1  6  0  0  0
  1 12  1  0  0  0  0
  2  3  1  0  0  0  0
  4  5  1  6  0  0  0
  4  3  1  0  0  0  0
  5  6  1  0  0  0  0
  7  8  1  6  0  0  0
  7  4  1  0  0  0  0
  7 10  1  0  0  0  0
  9 10  2  0  0  0  0
 10 11  1  0  0  0  0
 12 15  1  0  0  0  0
 13 15  2  0  0  0  0
 14 16  1  0  0  0  0
 15 16  1  0  0  0  0
 16 17  1  0  0  0  0
 17 18  1  0  0  0  0
 18 19  1  0  0  0  0
 20 19  1  0  0  0  0
 21 29  1  0  0  0  0
 21 27  1  6  0  0  0
 22 26  1  0  0  0  0
 23 30  1  0  0  0  0
 24 22  1  0  0  0  0
 24 28  1  0  0  0  0
 25 23  1  0  0  0  0
 26 29  2  0  0  0  0
 28 25  1  1  0  0  0
 28 21  1  0  0  0  0
 30 20  1  6  0  0  0
 30 27  1  0  0  0  0
 31  1  1  0  0  0  0
 32 33  1  1  0  0  0
 32 31  1  0  0  0  0
 34 32  1  0  0  0  0
 34 49  1  0  0  0  0
 35 46  1  0  0  0  0
 36 49  2  0  0  0  0
 37 44  2  0  0  0  0
 38 35  1  0  0  0  0
 38 51  1  0  0  0  0
 39 41  1  0  0  0  0
 40 36  1  0  0  0  0
 41 35  2  0  0  0  0
 43 39  1  0  0  0  0
 43 40  1  0  0  0  0
 45 38  2  0  0  0  0
 46 42  1  0  0  0  0
 47 36  1  1  0  0  0
 47 46  1  0  0  0  0
 47 44  1  0  0  0  0
 48 39  2  0  0  0  0
 48 45  1  0  0  0  0
 49 37  1  0  0  0  0
 50 48  1  0  0  0  0
 52 53  1  6  0  0  0
 52 51  1  0  0  0  0
 52 55  1  0  0  0  0
 54 55  1  0  0  0  0
M  END
>  <MODEL>
8

>  <REMARK>
 VINA RESULT:      -6.8      1.666      2.673
  Name = 
  20 active torsions:
  status: ('A' for Active; 'I' for Inactive)
    1  A    between atoms: C_8  and  C_39
    2  A    between atoms: C_9  and  C_28
    3  A    between atoms: C_9  and  C_33
    4  A    between atoms: C_10  and  C_29
    5  A    between atoms: C_12  and  C_17
    6  A    between atoms: C_12  and  C_55
    7  A    between atoms: C_15  and  C_39
    8  A    between atoms: C_15  and  C_52
    9  A    between atoms: C_17  and  C_49
   10  A    between atoms: C_18  and  C_44
   11  A    between atoms: O_27  and  C_46
   12  A    between atoms: O_27  and  C_55
   13  A    between atoms: C_28  and  C_31
   14  A    between atoms: C_29  and  C_44
   15  A    between atoms: C_31  and  N_51
   16  A    between atoms: O_32  and  C_36
   17  A    between atoms: O_32  and  C_44
   18  A    between atoms: C_33  and  C_50
   19  A    between atoms: C_36  and  C_55
   20  A    between atoms: C_40  and  C_49
                            x       y       z     vdW  Elec       q    Type
                         _______ _______ _______ _____ _____    ______ ____

>  <TORSDO>
F 20

$$$$
=
 OpenBabel10222417023D

 55 59  0  0  1  0  0  0  0  0999 V2000
  182.5630  178.4580  138.9120 C   0  0  1  0  0  3  0  0  0  0  0  0
  182.3280  179.7050  138.2050 C   0  0  0  0  0  2  0  0  0  0  0  0
  181.7760  180.5990  139.1460 O   0  0  0  0  0  0  0  0  0  0  0  0
  180.5630  181.0840  138.5850 C   0  0  1  0  0  3  0  0  0  0  0  0
  179.6970  181.8590  139.6020 C   0  0  0  0  0  2  0  0  0  0  0  0
  179.7150  181.2120  140.8460 O   0  0  0  0  0  1  0  0  0  0  0  0
  180.8270  182.2180  137.5690 C   0  0  2  0  0  3  0  0  0  0  0  0
  179.9610  183.4490  137.9350 C   0  0  0  0  0  1  0  0  0  0  0  0
  179.8910  180.7120  135.6290 O   0  0  0  0  0  1  0  0  0  0  0  0
  180.5150  181.9020  136.0880 C   0  0  0  0  0  0  0  0  0  0  0  0
  180.7590  182.7820  135.2120 O   0  0  0  0  0  0  0  0  0  0  0  0
  183.2810  178.7400  140.0740 O   0  0  0  0  0  0  0  0  0  0  0  0
  181.3970  178.3650  141.4560 O   0  0  0  0  0  0  0  0  0  0  0  0
  184.8710  179.3370  142.1420 C   0  0  0  0  0  1  0  0  0  0  0  0
  182.5510  178.8490  141.2860 C   0  0  0  0  0  0  0  0  0  0  0  0
  183.4620  179.0450  142.3690 N   0  0  0  0  0  0  0  0  0  0  0  0
  182.9820  178.6670  143.6970 C   0  0  0  0  0  2  0  0  0  0  0  0
  183.7010  179.3900  144.8180 C   0  0  0  0  0  2  0  0  0  0  0  0
  184.4840  178.5280  145.8110 C   0  0  0  0  0  2  0  0  0  0  0  0
  185.9220  179.0560  145.9820 C   0  0  0  0  0  2  0  0  0  0  0  0
  189.2150  176.8820  145.5450 C   0  0  1  0  0  3  0  0  0  0  0  0
  191.4280  176.1350  143.5910 C   0  0  0  0  0  2  0  0  0  0  0  0
  186.9220  177.6270  144.0290 N   0  0  0  0  0  2  0  0  0  0  0  0
  189.9130  175.8260  143.1990 C   0  0  0  0  0  2  0  0  0  0  0  0
  187.9600  177.1100  143.2390 C   0  0  0  0  0  2  0  0  0  0  0  0
  191.6760  176.8200  145.0630 C   0  0  0  0  0  3  0  0  0  0  0  0
  188.1010  177.8470  146.2120 C   0  0  0  0  0  2  0  0  0  0  0  0
  189.0590  176.7700  143.9270 C   0  0  1  0  0  3  0  0  0  0  0  0
  190.6760  177.2180  145.8630 N   0  0  0  0  0  0  0  0  0  0  0  0
  186.8070  177.8900  145.5210 C   0  0  1  0  0  3  0  0  0  0  0  0
  181.4650  177.4140  139.0130 C   0  0  0  0  0  2  0  0  0  0  0  0
  182.3350  176.3670  138.2070 C   0  0  1  0  0  3  0  0  0  0  0  0
  182.1280  174.9110  138.3020 O   0  0  0  0  0  1  0  0  0  0  0  0
  182.8190  176.7700  136.8180 C   0  0  0  0  0  2  0  0  0  0  0  0
  188.2310  175.3950  137.1110 C   0  0  0  0  0  0  0  0  0  0  0  0
  185.1440  175.8540  136.9190 C   0  0  0  0  0  0  0  0  0  0  0  0
  183.9060  174.1790  135.9110 C   0  0  0  0  0  3  0  0  0  0  0  0
  189.7620  175.7310  136.9740 C   0  0  0  0  0  0  0  0  0  0  0  0
  187.7510  177.7170  137.5290 C   0  0  0  0  0  0  0  0  0  0  0  0
  185.3740  177.1530  137.6060 N   0  0  0  0  0  2  0  0  0  0  0  0
  187.8040  176.5100  137.3760 C   0  0  0  0  0  3  0  0  0  0  0  0
  187.8980  173.2340  136.0470 O   0  0  0  0  0  1  0  0  0  0  0  0
  186.3730  178.2550  137.4150 C   0  0  0  0  0  2  0  0  0  0  0  0
  185.1140  173.7200  135.8540 N   0  0  0  0  0  0  0  0  0  0  0  0
  190.1890  177.3190  137.1980 C   0  0  0  0  0  3  0  0  0  0  0  0
  187.3610  174.4320  136.5310 N   0  0  0  0  0  0  0  0  0  0  0  0
  185.8860  174.6760  136.5080 C   0  0  0  0  0  0  0  0  0  0  0  0
  189.1320  178.2390  137.3850 C   0  0  0  0  0  0  0  0  0  0  0  0
  183.7940  175.5540  136.6700 C   0  0  2  0  0  3  0  0  0  0  0  0
  189.0860  179.5800  137.2120 F   0  0  0  0  0  0  0  0  0  0  0  0
  190.6750  174.5450  137.3240 C   0  0  0  0  0  2  0  0  0  0  0  0
  191.3460  174.2410  135.9540 C   0  0  1  0  0  3  0  0  0  0  0  0
  192.4860  175.0420  135.6980 O   0  0  0  0  0  1  0  0  0  0  0  0
  193.2540  172.4610  136.1840 C   0  0  0  0  0  1  0  0  0  0  0  0
  191.8270  172.8000  135.7440 C   0  0  0  0  0  2  0  0  0  0  0  0
  1  2  1  1  0  0  0
  1 31  1  0  0  0  0
  1 12  1  0  0  0  0
  2  3  1  0  0  0  0
  4  3  1  0  0  0  0
  4  5  1  1  0  0  0
  5  6  1  0  0  0  0
  7  8  1  1  0  0  0
  7  4  1  0  0  0  0
  9 10  1  0  0  0  0
 10  7  1  0  0  0  0
 11 10  2  0  0  0  0
 12 15  1  0  0  0  0
 14 16  1  0  0  0  0
 15 13  2  0  0  0  0
 15 16  1  0  0  0  0
 16 17  1  0  0  0  0
 17 18  1  0  0  0  0
 18 19  1  0  0  0  0
 19 20  1  0  0  0  0
 21 29  1  0  0  0  0
 21 27  1  6  0  0  0
 22 26  1  0  0  0  0
 23 30  1  0  0  0  0
 24 22  1  0  0  0  0
 25 28  1  0  0  0  0
 25 23  1  0  0  0  0
 26 29  2  0  0  0  0
 28 24  1  1  0  0  0
 28 21  1  0  0  0  0
 30 20  1  6  0  0  0
 30 27  1  0  0  0  0
 32 33  1  6  0  0  0
 32 31  1  0  0  0  0
 34 32  1  0  0  0  0
 35 41  1  0  0  0  0
 36 40  1  0  0  0  0
 37 49  1  0  0  0  0
 38 35  2  0  0  0  0
 38 45  1  0  0  0  0
 38 51  1  0  0  0  0
 41 39  2  0  0  0  0
 42 46  1  0  0  0  0
 43 39  1  0  0  0  0
 43 40  1  0  0  0  0
 44 37  2  0  0  0  0
 44 47  1  0  0  0  0
 45 48  2  0  0  0  0
 46 35  1  0  0  0  0
 47 46  1  0  0  0  0
 47 36  2  0  0  0  0
 48 39  1  0  0  0  0
 49 34  1  6  0  0  0
 49 36  1  0  0  0  0
 50 48  1  0  0  0  0
 52 53  1  1  0  0  0
 52 51  1  0  0  0  0
 55 52  1  0  0  0  0
 55 54  1  0  0  0  0
M  END
>  <MODEL>
9

>  <REMARK>
 VINA RESULT:      -6.8      2.298      3.437
  Name = 
  20 active torsions:
  status: ('A' for Active; 'I' for Inactive)
    1  A    between atoms: C_8  and  C_39
    2  A    between atoms: C_9  and  C_28
    3  A    between atoms: C_9  and  C_33
    4  A    between atoms: C_10  and  C_29
    5  A    between atoms: C_12  and  C_17
    6  A    between atoms: C_12  and  C_55
    7  A    between atoms: C_15  and  C_39
    8  A    between atoms: C_15  and  C_52
    9  A    between atoms: C_17  and  C_49
   10  A    between atoms: C_18  and  C_44
   11  A    between atoms: O_27  and  C_46
   12  A    between atoms: O_27  and  C_55
   13  A    between atoms: C_28  and  C_31
   14  A    between atoms: C_29  and  C_44
   15  A    between atoms: C_31  and  N_51
   16  A    between atoms: O_32  and  C_36
   17  A    between atoms: O_32  and  C_44
   18  A    between atoms: C_33  and  C_50
   19  A    between atoms: C_36  and  C_55
   20  A    between atoms: C_40  and  C_49
                            x       y       z     vdW  Elec       q    Type
                         _______ _______ _______ _____ _____    ______ ____

>  <TORSDO>
F 20

$$$$
