=
 OpenBabel10222421103D

 34 36  0  0  1  0  0  0  0  0999 V2000
  191.8940  177.8680  140.4150 C   0  0  0  0  0  1  0  0  0  0  0  0
  188.6580  177.1450  141.2000 N   0  0  0  0  0  0  0  0  0  0  0  0
  189.9840  177.0360  141.6740 N   0  0  0  0  0  0  0  0  0  0  0  0
  190.1250  176.4380  139.4840 C   0  0  0  0  0  0  0  0  0  0  0  0
  190.9670  176.6870  140.6630 C   0  0  1  0  0  3  0  0  0  0  0  0
  190.5990  176.0250  138.3050 C   0  0  0  0  0  3  0  0  0  0  0  0
  188.7010  176.7230  139.7990 C   0  0  0  0  0  2  0  0  0  0  0  0
  189.3450  177.3940  144.0340 C   0  0  0  0  0  3  0  0  0  0  0  0
  191.7850  176.3550  144.8880 C   0  0  0  0  0  3  0  0  0  0  0  0
  189.6240  177.3210  145.4020 C   0  0  0  0  0  0  0  0  0  0  0  0
  190.8590  176.7950  145.8460 C   0  0  0  0  0  0  0  0  0  0  0  0
  188.6660  177.7750  146.3010 O   0  0  0  0  0  1  0  0  0  0  0  0
  190.2750  176.9500  143.0830 C   0  0  0  0  0  0  0  0  0  0  0  0
  191.4980  176.4320  143.5250 C   0  0  0  0  0  3  0  0  0  0  0  0
  192.2120  175.7020  147.7630 C   0  0  0  0  0  1  0  0  0  0  0  0
  191.2060  176.6940  147.2850 C   0  0  0  0  0  0  0  0  0  0  0  0
  190.6600  177.4450  148.1360 O   0  0  0  0  0  0  0  0  0  0  0  0
  189.7630  175.7260  137.1230 C   0  0  0  0  0  0  0  0  0  0  0  0
  189.3070  176.6830  136.3030 C   0  0  0  0  0  3  0  0  0  0  0  0
  189.3480  174.3290  136.8980 C   0  0  0  0  0  0  0  0  0  0  0  0
  190.0570  173.3720  137.3120 O   0  0  0  0  0  1  0  0  0  0  0  0
  188.1630  174.0530  136.2280 O   0  0  0  0  0  0  0  0  0  0  0  0
  188.2900  178.8450  136.8690 C   0  0  0  0  0  1  0  0  0  0  0  0
  189.5730  178.1410  136.4850 C   0  0  0  0  0  2  0  0  0  0  0  0
  188.3060  178.5610  141.1910 C   0  0  0  0  0  2  0  0  0  0  0  0
  186.8640  178.7480  140.7520 C   0  0  0  0  0  2  0  0  0  0  0  0
  186.0300  179.3020  141.8940 C   0  0  0  0  0  2  0  0  0  0  0  0
  185.7490  178.3200  144.2340 C   0  0  0  0  0  2  0  0  0  0  0  0
  184.1110  177.8250  142.4570 O   0  0  0  0  0  0  0  0  0  0  0  0
  183.3100  178.9750  142.5950 C   0  0  0  0  0  2  0  0  0  0  0  0
  183.6260  178.7740  145.1140 C   0  0  0  0  0  2  0  0  0  0  0  0
  184.9290  179.3650  144.8340 N   0  0  0  0  0  2  0  0  0  0  0  0
  182.6460  179.0300  143.9690 C   0  0  0  0  0  2  0  0  0  0  0  0
  185.4630  178.1570  142.7360 C   0  0  1  0  0  3  0  0  0  0  0  0
  2  3  1  0  0  0  0
  3 13  1  0  0  0  0
  4  7  1  0  0  0  0
  4  5  1  0  0  0  0
  5  1  1  6  0  0  0
  5  3  1  0  0  0  0
  6  4  2  0  0  0  0
  7  2  1  0  0  0  0
  8 10  1  0  0  0  0
  9 11  1  0  0  0  0
 10 11  2  0  0  0  0
 10 12  1  0  0  0  0
 11 16  1  0  0  0  0
 13 14  1  0  0  0  0
 13  8  2  0  0  0  0
 14  9  2  0  0  0  0
 16 15  1  0  0  0  0
 16 17  2  0  0  0  0
 18  6  1  0  0  0  0
 19 24  1  0  0  0  0
 19 18  2  0  0  0  0
 20 18  1  0  0  0  0
 20 21  1  0  0  0  0
 22 20  2  0  0  0  0
 24 23  1  0  0  0  0
 25  2  1  0  0  0  0
 26 25  1  0  0  0  0
 26 27  1  0  0  0  0
 28 32  1  0  0  0  0
 29 30  1  0  0  0  0
 29 34  1  0  0  0  0
 30 33  1  0  0  0  0
 32 31  1  0  0  0  0
 33 31  1  0  0  0  0
 34 27  1  6  0  0  0
 34 28  1  0  0  0  0
M  END
>  <MODEL>
1

>  <REMARK>
 VINA RESULT:      -7.4      0.000      0.000
  Name = 
  9 active torsions:
  status: ('A' for Active; 'I' for Inactive)
    1  A    between atoms: C_2  and  C_8
    2  A    between atoms: C_2  and  C_18
    3  A    between atoms: N_3  and  C_13
    4  A    between atoms: N_9  and  C_32
    5  A    between atoms: C_13  and  C_19
    6  A    between atoms: C_19  and  C_31
    7  A    between atoms: C_23  and  C_30
    8  A    between atoms: C_26  and  C_28
    9  A    between atoms: C_29  and  C_31
                            x       y       z     vdW  Elec       q    Type
                         _______ _______ _______ _____ _____    ______ ____

>  <TORSDO>
F 9

$$$$
=
 OpenBabel10222421103D

 34 36  0  0  1  0  0  0  0  0999 V2000
  181.8290  177.4570  140.5880 C   0  0  0  0  0  1  0  0  0  0  0  0
  184.5730  179.2880  139.7310 N   0  0  0  0  0  0  0  0  0  0  0  0
  183.8020  178.8620  140.8360 N   0  0  0  0  0  0  0  0  0  0  0  0
  182.2580  179.5010  139.2930 C   0  0  0  0  0  0  0  0  0  0  0  0
  182.3650  178.8800  140.6220 C   0  0  1  0  0  3  0  0  0  0  0  0
  181.0960  179.7800  138.6950 C   0  0  0  0  0  3  0  0  0  0  0  0
  183.6100  179.7510  138.7300 C   0  0  0  0  0  2  0  0  0  0  0  0
  183.6100  179.0150  143.2950 C   0  0  0  0  0  3  0  0  0  0  0  0
  186.2750  178.2530  143.5830 C   0  0  0  0  0  3  0  0  0  0  0  0
  184.1630  178.9090  144.5740 C   0  0  0  0  0  0  0  0  0  0  0  0
  185.5140  178.5220  144.7320 C   0  0  0  0  0  0  0  0  0  0  0  0
  183.3580  179.1900  145.6720 O   0  0  0  0  0  1  0  0  0  0  0  0
  184.3760  178.7420  142.1520 C   0  0  0  0  0  0  0  0  0  0  0  0
  185.7140  178.3620  142.3110 C   0  0  0  0  0  3  0  0  0  0  0  0
  187.2780  177.4420  146.2880 C   0  0  0  0  0  1  0  0  0  0  0  0
  186.1510  178.3940  146.0660 C   0  0  0  0  0  0  0  0  0  0  0  0
  185.7550  179.0860  147.0410 O   0  0  0  0  0  0  0  0  0  0  0  0
  180.9680  180.4450  137.3800 C   0  0  0  0  0  0  0  0  0  0  0  0
  180.9250  179.7610  136.2290 C   0  0  0  0  0  3  0  0  0  0  0  0
  180.9800  181.9190  137.3410 C   0  0  0  0  0  0  0  0  0  0  0  0
  180.2890  182.5460  136.4930 O   0  0  0  0  0  0  0  0  0  0  0  0
  181.7540  182.6350  138.2450 O   0  0  0  0  0  1  0  0  0  0  0  0
  182.4140  177.8700  135.7430 C   0  0  0  0  0  1  0  0  0  0  0  0
  181.0090  178.2730  136.1330 C   0  0  0  0  0  2  0  0  0  0  0  0
  185.2200  178.1100  139.1630 C   0  0  0  0  0  2  0  0  0  0  0  0
  186.1020  178.5020  137.9900 C   0  0  0  0  0  2  0  0  0  0  0  0
  187.3220  177.6010  137.9200 C   0  0  0  0  0  2  0  0  0  0  0  0
  188.7280  178.4860  139.8600 C   0  0  0  0  0  2  0  0  0  0  0  0
  189.7680  177.9790  137.6810 O   0  0  0  0  0  0  0  0  0  0  0  0
  189.9650  176.5980  137.8670 C   0  0  0  0  0  2  0  0  0  0  0  0
  190.5770  177.1110  140.2860 C   0  0  0  0  0  2  0  0  0  0  0  0
  189.1340  177.2190  140.4570 N   0  0  0  0  0  2  0  0  0  0  0  0
  190.9260  176.3230  139.0230 C   0  0  0  0  0  2  0  0  0  0  0  0
  188.5730  178.3770  138.3370 C   0  0  1  0  0  3  0  0  0  0  0  0
  2  3  1  0  0  0  0
  3 13  1  0  0  0  0
  4  5  1  0  0  0  0
  5  1  1  6  0  0  0
  5  3  1  0  0  0  0
  6  4  2  0  0  0  0
  7  4  1  0  0  0  0
  7  2  1  0  0  0  0
  8 10  1  0  0  0  0
  9 11  1  0  0  0  0
 10 11  2  0  0  0  0
 10 12  1  0  0  0  0
 11 16  1  0  0  0  0
 13 14  1  0  0  0  0
 13  8  2  0  0  0  0
 14  9  2  0  0  0  0
 16 15  1  0  0  0  0
 16 17  2  0  0  0  0
 18  6  1  0  0  0  0
 19 18  2  0  0  0  0
 20 18  1  0  0  0  0
 20 22  1  0  0  0  0
 21 20  2  0  0  0  0
 23 24  1  0  0  0  0
 24 19  1  0  0  0  0
 25  2  1  0  0  0  0
 26 25  1  0  0  0  0
 27 26  1  0  0  0  0
 28 32  1  0  0  0  0
 29 30  1  0  0  0  0
 29 34  1  0  0  0  0
 30 33  1  0  0  0  0
 31 32  1  0  0  0  0
 33 31  1  0  0  0  0
 34 27  1  1  0  0  0
 34 28  1  0  0  0  0
M  END
>  <MODEL>
2

>  <REMARK>
 VINA RESULT:      -7.4      3.871      7.574
  Name = 
  9 active torsions:
  status: ('A' for Active; 'I' for Inactive)
    1  A    between atoms: C_2  and  C_8
    2  A    between atoms: C_2  and  C_18
    3  A    between atoms: N_3  and  C_13
    4  A    between atoms: N_9  and  C_32
    5  A    between atoms: C_13  and  C_19
    6  A    between atoms: C_19  and  C_31
    7  A    between atoms: C_23  and  C_30
    8  A    between atoms: C_26  and  C_28
    9  A    between atoms: C_29  and  C_31
                            x       y       z     vdW  Elec       q    Type
                         _______ _______ _______ _____ _____    ______ ____

>  <TORSDO>
F 9

$$$$
=
 OpenBabel10222421103D

 34 36  0  0  1  0  0  0  0  0999 V2000
  185.2750  180.1400  144.5130 C   0  0  0  0  0  1  0  0  0  0  0  0
  186.0830  177.8440  142.1270 N   0  0  0  0  0  0  0  0  0  0  0  0
  184.9960  178.3810  142.8530 N   0  0  0  0  0  0  0  0  0  0  0  0
  186.6200  178.0850  144.4180 C   0  0  0  0  0  0  0  0  0  0  0  0
  185.2680  178.6400  144.2570 C   0  0  1  0  0  3  0  0  0  0  0  0
  187.2730  178.0460  145.5830 C   0  0  0  0  0  3  0  0  0  0  0  0
  187.1360  177.5970  143.1130 C   0  0  0  0  0  2  0  0  0  0  0  0
  182.5780  178.8300  143.0900 C   0  0  0  0  0  3  0  0  0  0  0  0
  182.1050  177.8130  140.5390 C   0  0  0  0  0  3  0  0  0  0  0  0
  181.2730  178.8010  142.5890 C   0  0  0  0  0  0  0  0  0  0  0  0
  181.0220  178.2890  141.2960 C   0  0  0  0  0  0  0  0  0  0  0  0
  180.2440  179.2850  143.3870 O   0  0  0  0  0  1  0  0  0  0  0  0
  183.6540  178.3560  142.3280 C   0  0  0  0  0  0  0  0  0  0  0  0
  183.4030  177.8450  141.0480 C   0  0  0  0  0  3  0  0  0  0  0  0
  178.9350  176.9370  140.5770 C   0  0  0  0  0  1  0  0  0  0  0  0
  179.6570  178.2350  140.7150 C   0  0  0  0  0  0  0  0  0  0  0  0
  179.0780  179.2830  140.3270 O   0  0  0  0  0  0  0  0  0  0  0  0
  188.6130  177.4500  145.7740 C   0  0  0  0  0  0  0  0  0  0  0  0
  189.0040  176.9150  146.9390 C   0  0  0  0  0  3  0  0  0  0  0  0
  189.5780  177.5340  144.6620 C   0  0  0  0  0  0  0  0  0  0  0  0
  190.0790  178.6410  144.3260 O   0  0  0  0  0  1  0  0  0  0  0  0
  189.9480  176.3870  143.9710 O   0  0  0  0  0  0  0  0  0  0  0  0
  188.2760  178.1710  148.9190 C   0  0  0  0  0  1  0  0  0  0  0  0
  188.1540  176.8640  148.1660 C   0  0  0  0  0  2  0  0  0  0  0  0
  186.5850  178.8920  141.2440 C   0  0  0  0  0  2  0  0  0  0  0  0
  188.0370  178.6310  140.8810 C   0  0  0  0  0  2  0  0  0  0  0  0
  188.1340  178.0120  139.4980 C   0  0  0  0  0  2  0  0  0  0  0  0
  190.6140  177.4150  139.6160 C   0  0  0  0  0  2  0  0  0  0  0  0
  189.6030  178.1780  137.4980 O   0  0  0  0  0  0  0  0  0  0  0  0
  189.0910  176.9410  137.0620 C   0  0  0  0  0  2  0  0  0  0  0  0
  191.2080  175.8540  137.9720 C   0  0  0  0  0  2  0  0  0  0  0  0
  190.5370  176.0040  139.2570 N   0  0  0  0  0  2  0  0  0  0  0  0
  190.2090  175.9300  136.8160 C   0  0  0  0  0  2  0  0  0  0  0  0
  189.5300  178.2440  138.9150 C   0  0  1  0  0  3  0  0  0  0  0  0
  2  3  1  0  0  0  0
  2  7  1  0  0  0  0
  3  5  1  0  0  0  0
  4  6  2  0  0  0  0
  5  4  1  0  0  0  0
  5  1  1  6  0  0  0
  6 18  1  0  0  0  0
  7  4  1  0  0  0  0
  9 14  2  0  0  0  0
  9 11  1  0  0  0  0
 10  8  1  0  0  0  0
 10 12  1  0  0  0  0
 11 10  2  0  0  0  0
 13  3  1  0  0  0  0
 13  8  2  0  0  0  0
 14 13  1  0  0  0  0
 15 16  1  0  0  0  0
 16 11  1  0  0  0  0
 17 16  2  0  0  0  0
 18 19  2  0  0  0  0
 19 24  1  0  0  0  0
 20 18  1  0  0  0  0
 21 20  1  0  0  0  0
 22 20  2  0  0  0  0
 24 23  1  0  0  0  0
 25  2  1  0  0  0  0
 26 25  1  0  0  0  0
 27 26  1  0  0  0  0
 29 34  1  0  0  0  0
 30 29  1  0  0  0  0
 31 32  1  0  0  0  0
 32 28  1  0  0  0  0
 33 30  1  0  0  0  0
 33 31  1  0  0  0  0
 34 27  1  1  0  0  0
 34 28  1  0  0  0  0
M  END
>  <MODEL>
3

>  <REMARK>
 VINA RESULT:      -7.3      2.566      8.851
  Name = 
  9 active torsions:
  status: ('A' for Active; 'I' for Inactive)
    1  A    between atoms: C_2  and  C_8
    2  A    between atoms: C_2  and  C_18
    3  A    between atoms: N_3  and  C_13
    4  A    between atoms: N_9  and  C_32
    5  A    between atoms: C_13  and  C_19
    6  A    between atoms: C_19  and  C_31
    7  A    between atoms: C_23  and  C_30
    8  A    between atoms: C_26  and  C_28
    9  A    between atoms: C_29  and  C_31
                            x       y       z     vdW  Elec       q    Type
                         _______ _______ _______ _____ _____    ______ ____

>  <TORSDO>
F 9

$$$$
=
 OpenBabel10222421103D

 34 36  0  0  1  0  0  0  0  0999 V2000
  189.0490  179.2490  137.2560 C   0  0  0  0  0  1  0  0  0  0  0  0
  188.8910  177.2640  140.0220 N   0  0  0  0  0  0  0  0  0  0  0  0
  189.4880  177.3750  138.7460 N   0  0  0  0  0  0  0  0  0  0  0  0
  187.3120  177.9330  138.3920 C   0  0  0  0  0  0  0  0  0  0  0  0
  188.6060  177.8620  137.6990 C   0  0  1  0  0  3  0  0  0  0  0  0
  186.1680  178.2850  137.7970 C   0  0  0  0  0  3  0  0  0  0  0  0
  187.4730  177.5740  139.8250 C   0  0  0  0  0  2  0  0  0  0  0  0
  191.8880  177.0290  139.2170 C   0  0  0  0  0  3  0  0  0  0  0  0
  192.0840  175.2440  137.0870 C   0  0  0  0  0  3  0  0  0  0  0  0
  193.1180  176.4280  138.9300 C   0  0  0  0  0  0  0  0  0  0  0  0
  193.2280  175.5210  137.8530 C   0  0  0  0  0  0  0  0  0  0  0  0
  194.2140  176.7450  139.7240 O   0  0  0  0  0  1  0  0  0  0  0  0
  190.7500  176.7460  138.4500 C   0  0  0  0  0  0  0  0  0  0  0  0
  190.8620  175.8490  137.3810 C   0  0  0  0  0  3  0  0  0  0  0  0
  194.7880  173.4560  137.9420 C   0  0  0  0  0  1  0  0  0  0  0  0
  194.5080  174.8550  137.5040 C   0  0  0  0  0  0  0  0  0  0  0  0
  195.3860  175.4550  136.8300 O   0  0  0  0  0  0  0  0  0  0  0  0
  184.8500  178.3170  138.4660 C   0  0  0  0  0  0  0  0  0  0  0  0
  183.9100  177.3860  138.2510 C   0  0  0  0  0  3  0  0  0  0  0  0
  184.5350  179.4690  139.3300 C   0  0  0  0  0  0  0  0  0  0  0  0
  184.0310  180.5190  138.8470 O   0  0  0  0  0  0  0  0  0  0  0  0
  184.7900  179.4070  140.6950 O   0  0  0  0  0  1  0  0  0  0  0  0
  182.9260  176.2110  136.3320 C   0  0  0  0  0  1  0  0  0  0  0  0
  184.0720  176.2300  137.3200 C   0  0  0  0  0  2  0  0  0  0  0  0
  189.4310  178.3320  140.8570 C   0  0  0  0  0  2  0  0  0  0  0  0
  188.8250  178.2760  142.2490 C   0  0  0  0  0  2  0  0  0  0  0  0
  189.9180  178.2550  143.3020 C   0  0  0  0  0  2  0  0  0  0  0  0
  191.3610  176.5250  144.5050 C   0  0  0  0  0  2  0  0  0  0  0  0
  188.9380  176.6680  144.9470 O   0  0  0  0  0  0  0  0  0  0  0  0
  188.9680  177.6980  145.9070 C   0  0  0  0  0  2  0  0  0  0  0  0
  191.0950  176.6400  146.8300 C   0  0  0  0  0  2  0  0  0  0  0  0
  191.7210  177.2960  145.6890 N   0  0  0  0  0  2  0  0  0  0  0  0
  189.7410  177.2730  147.1550 C   0  0  0  0  0  2  0  0  0  0  0  0
  189.9620  176.8880  143.9890 C   0  0  1  0  0  3  0  0  0  0  0  0
  2 25  1  0  0  0  0
  3  2  1  0  0  0  0
  4  7  1  0  0  0  0
  5  1  1  1  0  0  0
  5  4  1  0  0  0  0
  5  3  1  0  0  0  0
  6  4  2  0  0  0  0
  6 18  1  0  0  0  0
  7  2  1  0  0  0  0
  9 14  2  0  0  0  0
  9 11  1  0  0  0  0
 10  8  1  0  0  0  0
 10 12  1  0  0  0  0
 11 10  2  0  0  0  0
 13  3  1  0  0  0  0
 13  8  2  0  0  0  0
 14 13  1  0  0  0  0
 16 11  1  0  0  0  0
 16 15  1  0  0  0  0
 17 16  2  0  0  0  0
 18 20  1  0  0  0  0
 19 18  2  0  0  0  0
 20 22  1  0  0  0  0
 21 20  2  0  0  0  0
 23 24  1  0  0  0  0
 24 19  1  0  0  0  0
 25 26  1  0  0  0  0
 26 27  1  0  0  0  0
 28 32  1  0  0  0  0
 29 30  1  0  0  0  0
 30 33  1  0  0  0  0
 31 33  1  0  0  0  0
 32 31  1  0  0  0  0
 34 27  1  1  0  0  0
 34 28  1  0  0  0  0
 34 29  1  0  0  0  0
M  END
>  <MODEL>
4

>  <REMARK>
 VINA RESULT:      -7.2      2.999      6.619
  Name = 
  9 active torsions:
  status: ('A' for Active; 'I' for Inactive)
    1  A    between atoms: C_2  and  C_8
    2  A    between atoms: C_2  and  C_18
    3  A    between atoms: N_3  and  C_13
    4  A    between atoms: N_9  and  C_32
    5  A    between atoms: C_13  and  C_19
    6  A    between atoms: C_19  and  C_31
    7  A    between atoms: C_23  and  C_30
    8  A    between atoms: C_26  and  C_28
    9  A    between atoms: C_29  and  C_31
                            x       y       z     vdW  Elec       q    Type
                         _______ _______ _______ _____ _____    ______ ____

>  <TORSDO>
F 9

$$$$
=
 OpenBabel10222421103D

 34 36  0  0  1  0  0  0  0  0999 V2000
  185.2830  180.1070  144.5890 C   0  0  0  0  0  1  0  0  0  0  0  0
  186.0740  177.8490  142.1620 N   0  0  0  0  0  0  0  0  0  0  0  0
  184.9920  178.3750  142.9030 N   0  0  0  0  0  0  0  0  0  0  0  0
  186.6250  178.0530  144.4540 C   0  0  0  0  0  0  0  0  0  0  0  0
  185.2720  178.6120  144.3090 C   0  0  1  0  0  3  0  0  0  0  0  0
  187.2850  177.9950  145.6140 C   0  0  0  0  0  3  0  0  0  0  0  0
  187.1330  177.5850  143.1380 C   0  0  0  0  0  2  0  0  0  0  0  0
  183.3830  177.8820  141.0940 C   0  0  0  0  0  3  0  0  0  0  0  0
  181.2810  178.8270  142.6600 C   0  0  0  0  0  3  0  0  0  0  0  0
  182.0820  177.8720  140.5830 C   0  0  0  0  0  0  0  0  0  0  0  0
  181.0080  178.3480  141.3690 C   0  0  0  0  0  0  0  0  0  0  0  0
  181.8770  177.3870  139.2960 O   0  0  0  0  0  1  0  0  0  0  0  0
  183.6480  178.3600  142.3850 C   0  0  0  0  0  0  0  0  0  0  0  0
  182.5830  178.8340  143.1610 C   0  0  0  0  0  3  0  0  0  0  0  0
  178.9670  179.6290  140.4240 C   0  0  0  0  0  1  0  0  0  0  0  0
  179.6090  178.3600  140.8760 C   0  0  0  0  0  0  0  0  0  0  0  0
  178.9310  177.3000  140.8260 O   0  0  0  0  0  0  0  0  0  0  0  0
  188.6250  177.3950  145.7880 C   0  0  0  0  0  0  0  0  0  0  0  0
  189.0330  176.8690  146.9510 C   0  0  0  0  0  3  0  0  0  0  0  0
  189.5710  177.4640  144.6590 C   0  0  0  0  0  0  0  0  0  0  0  0
  189.8690  176.4280  144.0050 O   0  0  0  0  0  0  0  0  0  0  0  0
  190.1420  178.6790  144.3010 O   0  0  0  0  0  1  0  0  0  0  0  0
  188.3040  178.1650  148.9050 C   0  0  0  0  0  1  0  0  0  0  0  0
  188.2040  176.8340  148.1930 C   0  0  0  0  0  2  0  0  0  0  0  0
  186.5720  178.9100  141.2930 C   0  0  0  0  0  2  0  0  0  0  0  0
  188.0170  178.6440  140.9050 C   0  0  0  0  0  2  0  0  0  0  0  0
  188.0930  178.0840  139.4960 C   0  0  0  0  0  2  0  0  0  0  0  0
  190.5760  177.5320  139.7220 C   0  0  0  0  0  2  0  0  0  0  0  0
  189.6060  178.0900  137.5230 O   0  0  0  0  0  0  0  0  0  0  0  0
  189.1180  176.8120  137.1880 C   0  0  0  0  0  2  0  0  0  0  0  0
  191.2250  175.8390  138.2380 C   0  0  0  0  0  2  0  0  0  0  0  0
  190.5220  176.0930  139.4890 N   0  0  0  0  0  2  0  0  0  0  0  0
  190.2530  175.7980  137.0580 C   0  0  0  0  0  2  0  0  0  0  0  0
  189.4990  178.2810  138.9260 C   0  0  1  0  0  3  0  0  0  0  0  0
  2  3  1  0  0  0  0
  2  7  1  0  0  0  0
  3  5  1  0  0  0  0
  4  6  2  0  0  0  0
  5  4  1  0  0  0  0
  5  1  1  6  0  0  0
  6 18  1  0  0  0  0
  7  4  1  0  0  0  0
  8 13  1  0  0  0  0
  9 14  1  0  0  0  0
 10  8  2  0  0  0  0
 10 11  1  0  0  0  0
 11  9  2  0  0  0  0
 12 10  1  0  0  0  0
 13  3  1  0  0  0  0
 13 14  2  0  0  0  0
 15 16  1  0  0  0  0
 16 11  1  0  0  0  0
 17 16  2  0  0  0  0
 18 19  2  0  0  0  0
 19 24  1  0  0  0  0
 20 18  1  0  0  0  0
 21 20  2  0  0  0  0
 22 20  1  0  0  0  0
 24 23  1  0  0  0  0
 25  2  1  0  0  0  0
 26 25  1  0  0  0  0
 27 26  1  0  0  0  0
 29 34  1  0  0  0  0
 30 29  1  0  0  0  0
 31 32  1  0  0  0  0
 32 28  1  0  0  0  0
 33 30  1  0  0  0  0
 33 31  1  0  0  0  0
 34 27  1  1  0  0  0
 34 28  1  0  0  0  0
M  END
>  <MODEL>
5

>  <REMARK>
 VINA RESULT:      -7.2      2.499      8.891
  Name = 
  9 active torsions:
  status: ('A' for Active; 'I' for Inactive)
    1  A    between atoms: C_2  and  C_8
    2  A    between atoms: C_2  and  C_18
    3  A    between atoms: N_3  and  C_13
    4  A    between atoms: N_9  and  C_32
    5  A    between atoms: C_13  and  C_19
    6  A    between atoms: C_19  and  C_31
    7  A    between atoms: C_23  and  C_30
    8  A    between atoms: C_26  and  C_28
    9  A    between atoms: C_29  and  C_31
                            x       y       z     vdW  Elec       q    Type
                         _______ _______ _______ _____ _____    ______ ____

>  <TORSDO>
F 9

$$$$
=
 OpenBabel10222421103D

 34 36  0  0  1  0  0  0  0  0999 V2000
  185.3060  180.1460  144.4350 C   0  0  0  0  0  1  0  0  0  0  0  0
  186.0790  177.8120  142.0760 N   0  0  0  0  0  0  0  0  0  0  0  0
  185.0030  178.3620  142.8070 N   0  0  0  0  0  0  0  0  0  0  0  0
  186.6450  178.0870  144.3560 C   0  0  0  0  0  0  0  0  0  0  0  0
  185.2930  178.6430  144.2030 C   0  0  1  0  0  3  0  0  0  0  0  0
  187.3130  178.0660  145.5140 C   0  0  0  0  0  3  0  0  0  0  0  0
  187.1450  177.5780  143.0520 C   0  0  0  0  0  2  0  0  0  0  0  0
  182.5850  178.7910  143.0790 C   0  0  0  0  0  3  0  0  0  0  0  0
  182.0860  177.7940  140.5260 C   0  0  0  0  0  3  0  0  0  0  0  0
  181.2740  178.7570  142.5950 C   0  0  0  0  0  0  0  0  0  0  0  0
  181.0100  178.2540  141.3000 C   0  0  0  0  0  0  0  0  0  0  0  0
  180.2510  179.2260  143.4110 O   0  0  0  0  0  1  0  0  0  0  0  0
  183.6550  178.3320  142.2990 C   0  0  0  0  0  0  0  0  0  0  0  0
  183.3910  177.8310  141.0180 C   0  0  0  0  0  3  0  0  0  0  0  0
  179.0450  179.3740  140.0410 C   0  0  0  0  0  1  0  0  0  0  0  0
  179.6380  178.1950  140.7370 C   0  0  0  0  0  0  0  0  0  0  0  0
  178.9440  177.1490  140.8330 O   0  0  0  0  0  0  0  0  0  0  0  0
  188.6540  177.4700  145.6970 C   0  0  0  0  0  0  0  0  0  0  0  0
  189.0610  176.9600  146.8670 C   0  0  0  0  0  3  0  0  0  0  0  0
  189.6020  177.5260  144.5690 C   0  0  0  0  0  0  0  0  0  0  0  0
  190.1530  178.6120  144.2440 O   0  0  0  0  0  1  0  0  0  0  0  0
  189.9000  176.3740  143.8500 O   0  0  0  0  0  0  0  0  0  0  0  0
  188.4010  178.2470  148.8510 C   0  0  0  0  0  1  0  0  0  0  0  0
  188.2310  176.9390  148.1080 C   0  0  0  0  0  2  0  0  0  0  0  0
  186.5730  178.8450  141.1710 C   0  0  0  0  0  2  0  0  0  0  0  0
  188.0910  178.8810  141.1820 C   0  0  0  0  0  2  0  0  0  0  0  0
  188.6380  178.6290  139.7880 C   0  0  0  0  0  2  0  0  0  0  0  0
  188.7330  176.7320  138.0810 C   0  0  0  0  0  2  0  0  0  0  0  0
  189.9510  176.5610  140.2200 O   0  0  0  0  0  0  0  0  0  0  0  0
  191.1140  177.2630  139.8470 C   0  0  0  0  0  2  0  0  0  0  0  0
  190.9410  176.1400  137.5670 C   0  0  0  0  0  2  0  0  0  0  0  0
  189.9130  177.1450  137.3310 N   0  0  0  0  0  2  0  0  0  0  0  0
  191.8580  176.5490  138.7210 C   0  0  0  0  0  2  0  0  0  0  0  0
  188.8280  177.1280  139.5610 C   0  0  1  0  0  3  0  0  0  0  0  0
  2  3  1  0  0  0  0
  2  7  1  0  0  0  0
  3  5  1  0  0  0  0
  4  6  2  0  0  0  0
  5  4  1  0  0  0  0
  5  1  1  6  0  0  0
  6 18  1  0  0  0  0
  7  4  1  0  0  0  0
  9 14  2  0  0  0  0
  9 11  1  0  0  0  0
 10  8  1  0  0  0  0
 10 12  1  0  0  0  0
 11 10  2  0  0  0  0
 13  3  1  0  0  0  0
 13  8  2  0  0  0  0
 14 13  1  0  0  0  0
 15 16  1  0  0  0  0
 16 17  2  0  0  0  0
 16 11  1  0  0  0  0
 18 19  2  0  0  0  0
 19 24  1  0  0  0  0
 20 18  1  0  0  0  0
 21 20  1  0  0  0  0
 22 20  2  0  0  0  0
 24 23  1  0  0  0  0
 25 26  1  0  0  0  0
 25  2  1  0  0  0  0
 27 26  1  0  0  0  0
 28 34  1  0  0  0  0
 30 29  1  0  0  0  0
 31 33  1  0  0  0  0
 32 31  1  0  0  0  0
 32 28  1  0  0  0  0
 33 30  1  0  0  0  0
 34 27  1  6  0  0  0
 34 29  1  0  0  0  0
M  END
>  <MODEL>
6

>  <REMARK>
 VINA RESULT:      -7.1      2.580      8.836
  Name = 
  9 active torsions:
  status: ('A' for Active; 'I' for Inactive)
    1  A    between atoms: C_2  and  C_8
    2  A    between atoms: C_2  and  C_18
    3  A    between atoms: N_3  and  C_13
    4  A    between atoms: N_9  and  C_32
    5  A    between atoms: C_13  and  C_19
    6  A    between atoms: C_19  and  C_31
    7  A    between atoms: C_23  and  C_30
    8  A    between atoms: C_26  and  C_28
    9  A    between atoms: C_29  and  C_31
                            x       y       z     vdW  Elec       q    Type
                         _______ _______ _______ _____ _____    ______ ____

>  <TORSDO>
F 9

$$$$
=
 OpenBabel10222421103D

 34 36  0  0  1  0  0  0  0  0999 V2000
  182.5420  176.9930  140.4880 C   0  0  0  0  0  1  0  0  0  0  0  0
  184.7740  179.5220  140.0020 N   0  0  0  0  0  0  0  0  0  0  0  0
  184.1150  178.7770  141.0060 N   0  0  0  0  0  0  0  0  0  0  0  0
  182.4810  179.2390  139.4930 C   0  0  0  0  0  0  0  0  0  0  0  0
  182.7190  178.4840  140.7320 C   0  0  1  0  0  3  0  0  0  0  0  0
  181.2930  179.3150  138.8850 C   0  0  0  0  0  3  0  0  0  0  0  0
  183.7400  179.8780  139.0290 C   0  0  0  0  0  2  0  0  0  0  0  0
  186.0010  178.1590  142.4780 C   0  0  0  0  0  3  0  0  0  0  0  0
  184.4750  178.7440  144.7350 C   0  0  0  0  0  3  0  0  0  0  0  0
  186.5570  177.9930  143.7500 C   0  0  0  0  0  0  0  0  0  0  0  0
  185.7920  178.2890  144.9010 C   0  0  0  0  0  0  0  0  0  0  0  0
  187.8660  177.5370  143.8480 O   0  0  0  0  0  1  0  0  0  0  0  0
  184.6860  178.6170  142.3200 C   0  0  0  0  0  0  0  0  0  0  0  0
  183.9290  178.9050  143.4610 C   0  0  0  0  0  3  0  0  0  0  0  0
  185.9970  179.1120  147.3470 C   0  0  0  0  0  1  0  0  0  0  0  0
  186.3330  178.1310  146.2740 C   0  0  0  0  0  0  0  0  0  0  0  0
  187.0880  177.1660  146.5650 O   0  0  0  0  0  0  0  0  0  0  0  0
  181.0250  180.1060  137.6650 C   0  0  0  0  0  0  0  0  0  0  0  0
  181.1740  179.6000  136.4330 C   0  0  0  0  0  3  0  0  0  0  0  0
  180.6660  181.5270  137.8210 C   0  0  0  0  0  0  0  0  0  0  0  0
  180.9560  182.3660  136.9260 O   0  0  0  0  0  0  0  0  0  0  0  0
  179.9980  181.9570  138.9610 O   0  0  0  0  0  1  0  0  0  0  0  0
  181.7340  178.0080  134.6490 C   0  0  0  0  0  1  0  0  0  0  0  0
  181.6310  178.2080  136.1460 C   0  0  0  0  0  2  0  0  0  0  0  0
  185.6920  178.6210  139.3140 C   0  0  0  0  0  2  0  0  0  0  0  0
  185.1470  178.2510  137.9450 C   0  0  0  0  0  2  0  0  0  0  0  0
  186.1180  177.3380  137.2180 C   0  0  0  0  0  2  0  0  0  0  0  0
  188.5470  178.1240  137.1650 C   0  0  0  0  0  2  0  0  0  0  0  0
  187.2370  177.9490  135.0820 O   0  0  0  0  0  0  0  0  0  0  0  0
  187.4350  176.5780  134.8330 C   0  0  0  0  0  2  0  0  0  0  0  0
  189.8290  176.8760  135.6520 C   0  0  0  0  0  2  0  0  0  0  0  0
  189.2100  176.8390  136.9710 N   0  0  0  0  0  2  0  0  0  0  0  0
  188.9110  176.2630  134.5940 C   0  0  0  0  0  2  0  0  0  0  0  0
  187.1730  178.1680  136.4840 C   0  0  1  0  0  3  0  0  0  0  0  0
  2  3  1  0  0  0  0
  3 13  1  0  0  0  0
  4  5  1  0  0  0  0
  5  1  1  6  0  0  0
  5  3  1  0  0  0  0
  6  4  2  0  0  0  0
  7  4  1  0  0  0  0
  7  2  1  0  0  0  0
  8 10  1  0  0  0  0
  9 11  1  0  0  0  0
 10 12  1  0  0  0  0
 10 11  2  0  0  0  0
 11 16  1  0  0  0  0
 13  8  2  0  0  0  0
 13 14  1  0  0  0  0
 14  9  2  0  0  0  0
 16 17  2  0  0  0  0
 16 15  1  0  0  0  0
 18 20  1  0  0  0  0
 18  6  1  0  0  0  0
 19 18  2  0  0  0  0
 20 22  1  0  0  0  0
 21 20  2  0  0  0  0
 23 24  1  0  0  0  0
 24 19  1  0  0  0  0
 25  2  1  0  0  0  0
 26 25  1  0  0  0  0
 27 26  1  0  0  0  0
 29 34  1  0  0  0  0
 30 29  1  0  0  0  0
 31 32  1  0  0  0  0
 32 28  1  0  0  0  0
 33 30  1  0  0  0  0
 33 31  1  0  0  0  0
 34 28  1  0  0  0  0
 34 27  1  1  0  0  0
M  END
>  <MODEL>
7

>  <REMARK>
 VINA RESULT:      -6.8      3.845      7.838
  Name = 
  9 active torsions:
  status: ('A' for Active; 'I' for Inactive)
    1  A    between atoms: C_2  and  C_8
    2  A    between atoms: C_2  and  C_18
    3  A    between atoms: N_3  and  C_13
    4  A    between atoms: N_9  and  C_32
    5  A    between atoms: C_13  and  C_19
    6  A    between atoms: C_19  and  C_31
    7  A    between atoms: C_23  and  C_30
    8  A    between atoms: C_26  and  C_28
    9  A    between atoms: C_29  and  C_31
                            x       y       z     vdW  Elec       q    Type
                         _______ _______ _______ _____ _____    ______ ____

>  <TORSDO>
F 9

$$$$
=
 OpenBabel10222421103D

 34 36  0  0  1  0  0  0  0  0999 V2000
  192.0780  177.7300  139.4250 C   0  0  0  0  0  1  0  0  0  0  0  0
  188.8680  177.0120  140.3180 N   0  0  0  0  0  0  0  0  0  0  0  0
  190.2100  176.8960  140.7450 N   0  0  0  0  0  0  0  0  0  0  0  0
  190.2730  176.3120  138.5470 C   0  0  0  0  0  0  0  0  0  0  0  0
  191.1560  176.5510  139.6980 C   0  0  1  0  0  3  0  0  0  0  0  0
  190.7050  175.9060  137.3500 C   0  0  0  0  0  3  0  0  0  0  0  0
  188.8610  176.5990  138.9130 C   0  0  0  0  0  2  0  0  0  0  0  0
  191.1480  177.8780  142.8090 C   0  0  0  0  0  3  0  0  0  0  0  0
  190.6280  175.5230  144.2060 C   0  0  0  0  0  3  0  0  0  0  0  0
  191.4860  177.7890  144.1620 C   0  0  0  0  0  0  0  0  0  0  0  0
  191.2260  176.5990  144.8810 C   0  0  0  0  0  0  0  0  0  0  0  0
  192.0770  178.8880  144.7740 O   0  0  0  0  0  1  0  0  0  0  0  0
  190.5490  176.8000  142.1420 C   0  0  0  0  0  0  0  0  0  0  0  0
  190.2950  175.6220  142.8550 C   0  0  0  0  0  3  0  0  0  0  0  0
  190.7500  177.1260  147.3700 C   0  0  0  0  0  1  0  0  0  0  0  0
  191.5640  176.4510  146.3180 C   0  0  0  0  0  0  0  0  0  0  0  0
  192.5460  175.7510  146.6820 O   0  0  0  0  0  0  0  0  0  0  0  0
  189.8270  175.6170  136.1960 C   0  0  0  0  0  0  0  0  0  0  0  0
  189.7320  174.3950  135.6530 C   0  0  0  0  0  3  0  0  0  0  0  0
  189.1040  176.7390  135.5720 C   0  0  0  0  0  0  0  0  0  0  0  0
  188.0530  176.5380  134.9060 O   0  0  0  0  0  0  0  0  0  0  0  0
  189.5750  178.0390  135.7160 O   0  0  0  0  0  1  0  0  0  0  0  0
  191.8030  173.1050  135.3810 C   0  0  0  0  0  1  0  0  0  0  0  0
  190.4920  173.2020  136.1310 C   0  0  0  0  0  2  0  0  0  0  0  0
  188.5210  178.4290  140.3300 C   0  0  0  0  0  2  0  0  0  0  0  0
  187.0420  178.6110  140.6250 C   0  0  0  0  0  2  0  0  0  0  0  0
  186.8350  178.9840  142.0820 C   0  0  0  0  0  2  0  0  0  0  0  0
  187.1990  177.1510  143.8220 C   0  0  0  0  0  2  0  0  0  0  0  0
  184.9460  178.0730  143.4190 O   0  0  0  0  0  0  0  0  0  0  0  0
  185.0370  179.2030  144.2550 C   0  0  0  0  0  2  0  0  0  0  0  0
  186.3210  177.7530  145.9100 C   0  0  0  0  0  2  0  0  0  0  0  0
  187.4340  177.9820  144.9980 N   0  0  0  0  0  2  0  0  0  0  0  0
  185.2240  178.8010  145.7160 C   0  0  0  0  0  2  0  0  0  0  0  0
  186.2170  177.8100  142.8440 C   0  0  1  0  0  3  0  0  0  0  0  0
  2 25  1  0  0  0  0
  2  3  1  0  0  0  0
  3 13  1  0  0  0  0
  4  7  1  0  0  0  0
  4  5  1  0  0  0  0
  5  1  1  6  0  0  0
  5  3  1  0  0  0  0
  6  4  2  0  0  0  0
  7  2  1  0  0  0  0
  8 10  1  0  0  0  0
  9 11  1  0  0  0  0
 10 12  1  0  0  0  0
 10 11  2  0  0  0  0
 11 16  1  0  0  0  0
 13  8  2  0  0  0  0
 13 14  1  0  0  0  0
 14  9  2  0  0  0  0
 16 17  2  0  0  0  0
 16 15  1  0  0  0  0
 18  6  1  0  0  0  0
 19 24  1  0  0  0  0
 19 18  2  0  0  0  0
 20 22  1  0  0  0  0
 20 18  1  0  0  0  0
 21 20  2  0  0  0  0
 23 24  1  0  0  0  0
 25 26  1  0  0  0  0
 26 27  1  0  0  0  0
 28 32  1  0  0  0  0
 29 30  1  0  0  0  0
 30 33  1  0  0  0  0
 32 31  1  0  0  0  0
 33 31  1  0  0  0  0
 34 27  1  1  0  0  0
 34 29  1  0  0  0  0
 34 28  1  0  0  0  0
M  END
>  <MODEL>
8

>  <REMARK>
 VINA RESULT:      -6.6      1.831      2.535
  Name = 
  9 active torsions:
  status: ('A' for Active; 'I' for Inactive)
    1  A    between atoms: C_2  and  C_8
    2  A    between atoms: C_2  and  C_18
    3  A    between atoms: N_3  and  C_13
    4  A    between atoms: N_9  and  C_32
    5  A    between atoms: C_13  and  C_19
    6  A    between atoms: C_19  and  C_31
    7  A    between atoms: C_23  and  C_30
    8  A    between atoms: C_26  and  C_28
    9  A    between atoms: C_29  and  C_31
                            x       y       z     vdW  Elec       q    Type
                         _______ _______ _______ _____ _____    ______ ____

>  <TORSDO>
F 9

$$$$
=
 OpenBabel10222421103D

 34 36  0  0  1  0  0  0  0  0999 V2000
  191.9440  178.0670  140.9160 C   0  0  0  0  0  1  0  0  0  0  0  0
  188.6530  177.1870  141.0030 N   0  0  0  0  0  0  0  0  0  0  0  0
  189.8380  177.1970  141.7720 N   0  0  0  0  0  0  0  0  0  0  0  0
  190.5100  176.4650  139.7260 C   0  0  0  0  0  0  0  0  0  0  0  0
  191.0440  176.8470  141.0420 C   0  0  1  0  0  3  0  0  0  0  0  0
  191.2640  176.0070  138.7220 C   0  0  0  0  0  3  0  0  0  0  0  0
  189.0390  176.6760  139.6860 C   0  0  0  0  0  2  0  0  0  0  0  0
  190.9020  176.8040  143.9670 C   0  0  0  0  0  3  0  0  0  0  0  0
  188.6070  177.6860  145.2760 C   0  0  0  0  0  3  0  0  0  0  0  0
  190.8680  176.8220  145.3640 C   0  0  0  0  0  0  0  0  0  0  0  0
  189.7090  177.2680  146.0390 C   0  0  0  0  0  0  0  0  0  0  0  0
  191.9910  176.3930  146.0620 O   0  0  0  0  0  1  0  0  0  0  0  0
  189.7990  177.2250  143.2120 C   0  0  0  0  0  0  0  0  0  0  0  0
  188.6500  177.6640  143.8820 C   0  0  0  0  0  3  0  0  0  0  0  0
  188.3110  177.1150  148.2130 C   0  0  0  0  0  1  0  0  0  0  0  0
  189.6190  177.3070  147.5200 C   0  0  0  0  0  0  0  0  0  0  0  0
  190.6430  177.5030  148.2250 O   0  0  0  0  0  0  0  0  0  0  0  0
  190.7390  175.5740  137.4090 C   0  0  0  0  0  0  0  0  0  0  0  0
  191.2710  174.5540  136.7220 C   0  0  0  0  0  3  0  0  0  0  0  0
  189.6470  176.3580  136.8030 C   0  0  0  0  0  0  0  0  0  0  0  0
  189.8170  177.5690  136.4950 O   0  0  0  0  0  0  0  0  0  0  0  0
  188.4140  175.7650  136.5610 O   0  0  0  0  0  1  0  0  0  0  0  0
  193.6630  174.1260  136.3720 C   0  0  0  0  0  1  0  0  0  0  0  0
  192.4420  173.7510  137.1840 C   0  0  0  0  0  2  0  0  0  0  0  0
  188.2450  178.5730  140.8000 C   0  0  0  0  0  2  0  0  0  0  0  0
  186.7500  178.6540  140.5440 C   0  0  0  0  0  2  0  0  0  0  0  0
  186.0440  179.2930  141.7270 C   0  0  0  0  0  2  0  0  0  0  0  0
  185.0210  178.6400  143.9740 C   0  0  0  0  0  2  0  0  0  0  0  0
  184.1140  177.7300  141.8670 O   0  0  0  0  0  0  0  0  0  0  0  0
  183.2650  178.8030  141.5330 C   0  0  0  0  0  2  0  0  0  0  0  0
  182.7070  179.0040  144.0100 C   0  0  0  0  0  2  0  0  0  0  0  0
  183.9990  179.6740  144.0800 N   0  0  0  0  0  2  0  0  0  0  0  0
  182.1680  178.9910  142.5790 C   0  0  0  0  0  2  0  0  0  0  0  0
  185.2730  178.2330  142.5160 C   0  0  1  0  0  3  0  0  0  0  0  0
  2  3  1  0  0  0  0
  3 13  1  0  0  0  0
  4  5  1  0  0  0  0
  5  1  1  6  0  0  0
  5  3  1  0  0  0  0
  6  4  2  0  0  0  0
  7  4  1  0  0  0  0
  7  2  1  0  0  0  0
  8 10  1  0  0  0  0
  9 11  1  0  0  0  0
 10 11  2  0  0  0  0
 10 12  1  0  0  0  0
 11 16  1  0  0  0  0
 13 14  1  0  0  0  0
 13  8  2  0  0  0  0
 14  9  2  0  0  0  0
 16 15  1  0  0  0  0
 16 17  2  0  0  0  0
 18  6  1  0  0  0  0
 19 24  1  0  0  0  0
 19 18  2  0  0  0  0
 20 18  1  0  0  0  0
 21 20  2  0  0  0  0
 22 20  1  0  0  0  0
 23 24  1  0  0  0  0
 25  2  1  0  0  0  0
 26 25  1  0  0  0  0
 26 27  1  0  0  0  0
 28 32  1  0  0  0  0
 29 34  1  0  0  0  0
 30 29  1  0  0  0  0
 30 33  1  0  0  0  0
 31 32  1  0  0  0  0
 33 31  1  0  0  0  0
 34 27  1  6  0  0  0
 34 28  1  0  0  0  0
M  END
>  <MODEL>
9

>  <REMARK>
 VINA RESULT:      -6.6      1.534      2.340
  Name = 
  9 active torsions:
  status: ('A' for Active; 'I' for Inactive)
    1  A    between atoms: C_2  and  C_8
    2  A    between atoms: C_2  and  C_18
    3  A    between atoms: N_3  and  C_13
    4  A    between atoms: N_9  and  C_32
    5  A    between atoms: C_13  and  C_19
    6  A    between atoms: C_19  and  C_31
    7  A    between atoms: C_23  and  C_30
    8  A    between atoms: C_26  and  C_28
    9  A    between atoms: C_29  and  C_31
                            x       y       z     vdW  Elec       q    Type
                         _______ _______ _______ _____ _____    ______ ____

>  <TORSDO>
F 9

$$$$
