=
 OpenBabel10222416363D

 32 36  0  0  1  0  0  0  0  0999 V2000
  191.2980  174.5540  136.9830 N   0  0  0  0  0  0  0  0  0  0  0  0
  190.8550  176.8910  139.5300 C   0  0  0  0  0  3  0  0  0  0  0  0
  188.4690  177.3680  138.9870 C   0  0  0  0  0  0  0  0  0  0  0  0
  191.2410  176.7420  138.0990 C   0  0  0  0  0  2  0  0  0  0  0  0
  188.5540  174.4290  136.7540 C   0  0  0  0  0  3  0  0  0  0  0  0
  190.5470  175.5640  137.5010 C   0  0  0  0  0  0  0  0  0  0  0  0
  189.6140  177.1790  139.9270 C   0  0  0  0  0  0  0  0  0  0  0  0
  189.1420  175.5120  137.4110 C   0  0  0  0  0  0  0  0  0  0  0  0
  190.7320  173.4850  136.3640 C   0  0  0  0  0  3  0  0  0  0  0  0
  189.3450  173.4050  136.2330 C   0  0  0  0  0  3  0  0  0  0  0  0
  188.2580  176.5770  137.9250 C   0  0  0  0  0  3  0  0  0  0  0  0
  189.2110  177.3800  142.5330 C   0  0  0  0  0  0  0  0  0  0  0  0
  189.3830  177.2940  141.3430 C   0  0  0  0  0  0  0  0  0  0  0  0
  188.4810  177.8830  148.6180 C   0  0  0  0  0  3  0  0  0  0  0  0
  187.9700  177.8470  145.8780 C   0  0  0  0  0  0  0  0  0  0  0  0
  190.2610  177.2220  145.0860 S   0  0  0  0  0  0  0  0  0  0  0  0
  187.1930  178.1800  148.1320 C   0  0  0  0  0  3  0  0  0  0  0  0
  189.2340  177.5560  146.3690 C   0  0  0  0  0  0  0  0  0  0  0  0
  189.0280  177.4680  143.9520 C   0  0  0  0  0  0  0  0  0  0  0  0
  187.8480  177.8020  144.5280 N   0  0  0  0  0  0  0  0  0  0  0  0
  186.9290  178.1650  146.7510 C   0  0  0  0  0  3  0  0  0  0  0  0
  189.5210  177.5660  147.7300 C   0  0  0  0  0  3  0  0  0  0  0  0
  187.4500  178.3330  139.2760 N   0  0  0  0  0  2  0  0  0  0  0  0
  186.2200  178.4540  138.5090 C   0  0  0  0  0  2  0  0  0  0  0  0
  185.3890  178.9290  140.7320 C   0  0  2  0  0  3  0  0  0  0  0  0
  184.5830  179.7170  139.7900 N   0  0  0  0  0  2  0  0  0  0  0  0
  185.0290  178.3620  139.4390 C   0  0  1  0  0  3  0  0  0  0  0  0
  184.4860  178.3600  141.8090 C   0  0  0  0  0  2  0  0  0  0  0  0
  184.8120  178.9820  143.1570 C   0  0  0  0  0  2  0  0  0  0  0  0
  182.4530  178.9600  143.5060 O   0  0  0  0  0  0  0  0  0  0  0  0
  183.7320  179.1310  145.4010 O   0  0  0  0  0  1  0  0  0  0  0  0
  183.5990  179.0330  144.0230 C   0  0  0  0  0  0  0  0  0  0  0  0
  1  6  1  0  0  0  0
  2  7  2  0  0  0  0
  3 23  1  0  0  0  0
  3  7  1  0  0  0  0
  4  2  1  0  0  0  0
  5  8  1  0  0  0  0
  6  4  1  0  0  0  0
  7 13  1  0  0  0  0
  8  6  2  0  0  0  0
  8 11  1  0  0  0  0
  9  1  2  0  0  0  0
 10  9  1  0  0  0  0
 10  5  2  0  0  0  0
 11  3  2  0  0  0  0
 12 19  1  0  0  0  0
 13 12  3  0  0  0  0
 15 18  2  0  0  0  0
 15 21  1  0  0  0  0
 16 18  1  0  0  0  0
 17 14  1  0  0  0  0
 18 22  1  0  0  0  0
 19 20  2  0  0  0  0
 19 16  1  0  0  0  0
 20 15  1  0  0  0  0
 21 17  2  0  0  0  0
 22 14  2  0  0  0  0
 24 23  1  0  0  0  0
 25 28  1  1  0  0  0
 26 25  1  0  0  0  0
 27 24  1  6  0  0  0
 27 26  1  0  0  0  0
 27 25  1  0  0  0  0
 28 29  1  0  0  0  0
 29 32  1  0  0  0  0
 30 32  2  0  0  0  0
 32 31  1  0  0  0  0
M  END
>  <MODEL>
1

>  <REMARK>
 VINA RESULT:      -8.7      0.000      0.000
  Name = 
  8 active torsions:
  status: ('A' for Active; 'I' for Inactive)
    1  A    between atoms: C_7  and  C_19
    2  A    between atoms: C_7  and  C_23
    3  A    between atoms: C_8  and  C_21
    4  A    between atoms: C_9  and  N_17
    5  A    between atoms: C_13  and  C_18
    6  A    between atoms: N_17  and  C_27
    7  A    between atoms: C_23  and  C_30
    8  A    between atoms: C_27  and  C_29
                            x       y       z     vdW  Elec       q    Type
                         _______ _______ _______ _____ _____    ______ ____

>  <TORSDO>
F 8

$$$$
=
 OpenBabel10222416363D

 32 36  0  0  1  0  0  0  0  0999 V2000
  180.1970  179.6410  139.4250 N   0  0  0  0  0  0  0  0  0  0  0  0
  182.7140  177.8380  141.0250 C   0  0  0  0  0  3  0  0  0  0  0  0
  184.5880  178.9120  139.7810 C   0  0  0  0  0  0  0  0  0  0  0  0
  181.8130  177.8380  139.8400 C   0  0  0  0  0  2  0  0  0  0  0  0
  182.1410  181.3870  138.5470 C   0  0  0  0  0  3  0  0  0  0  0  0
  181.4970  179.2380  139.4340 C   0  0  0  0  0  0  0  0  0  0  0  0
  183.9610  178.3130  140.9970 C   0  0  0  0  0  0  0  0  0  0  0  0
  182.5090  180.1200  139.0070 C   0  0  0  0  0  0  0  0  0  0  0  0
  179.8340  180.8810  139.0030 C   0  0  0  0  0  3  0  0  0  0  0  0
  180.8020  181.7770  138.5500 C   0  0  0  0  0  3  0  0  0  0  0  0
  183.9380  179.7520  138.9620 C   0  0  0  0  0  3  0  0  0  0  0  0
  185.3770  178.1980  143.2270 C   0  0  0  0  0  0  0  0  0  0  0  0
  184.7200  178.2510  142.2180 C   0  0  0  0  0  0  0  0  0  0  0  0
  188.7570  177.7870  148.3480 C   0  0  0  0  0  3  0  0  0  0  0  0
  187.9580  177.6780  145.6790 C   0  0  0  0  0  0  0  0  0  0  0  0
  185.6320  178.5620  145.9560 S   0  0  0  0  0  0  0  0  0  0  0  0
  189.6430  177.3160  147.3600 C   0  0  0  0  0  3  0  0  0  0  0  0
  187.0950  178.1400  146.6610 C   0  0  0  0  0  0  0  0  0  0  0  0
  186.1790  178.1300  144.4130 C   0  0  0  0  0  0  0  0  0  0  0  0
  187.4530  177.6670  144.4210 N   0  0  0  0  0  0  0  0  0  0  0  0
  189.2460  177.2570  146.0130 C   0  0  0  0  0  3  0  0  0  0  0  0
  187.4620  178.2070  148.0010 C   0  0  0  0  0  3  0  0  0  0  0  0
  185.9840  178.7220  139.5220 N   0  0  0  0  0  2  0  0  0  0  0  0
  186.5010  178.1650  138.2810 C   0  0  0  0  0  2  0  0  0  0  0  0
  188.3540  177.1940  139.4960 C   0  0  2  0  0  3  0  0  0  0  0  0
  188.3950  176.6460  138.1330 N   0  0  0  0  0  2  0  0  0  0  0  0
  188.0070  178.0450  138.3650 C   0  0  1  0  0  3  0  0  0  0  0  0
  189.7670  177.5020  139.9520 C   0  0  0  0  0  2  0  0  0  0  0  0
  189.7890  177.8070  141.4410 C   0  0  0  0  0  2  0  0  0  0  0  0
  191.8130  177.1430  142.5150 O   0  0  0  0  0  1  0  0  0  0  0  0
  190.1430  175.5730  142.4930 O   0  0  0  0  0  0  0  0  0  0  0  0
  190.6440  176.8260  142.1690 C   0  0  0  0  0  0  0  0  0  0  0  0
  1  6  1  0  0  0  0
  3  7  1  0  0  0  0
  4  2  1  0  0  0  0
  5 10  2  0  0  0  0
  5  8  1  0  0  0  0
  6  4  1  0  0  0  0
  7  2  2  0  0  0  0
  7 13  1  0  0  0  0
  8  6  2  0  0  0  0
  9  1  2  0  0  0  0
 10  9  1  0  0  0  0
 11  8  1  0  0  0  0
 11  3  2  0  0  0  0
 12 19  1  0  0  0  0
 13 12  3  0  0  0  0
 15 21  2  0  0  0  0
 15 18  1  0  0  0  0
 16 18  1  0  0  0  0
 17 14  2  0  0  0  0
 18 22  2  0  0  0  0
 19 20  2  0  0  0  0
 19 16  1  0  0  0  0
 20 15  1  0  0  0  0
 21 17  1  0  0  0  0
 22 14  1  0  0  0  0
 23  3  1  0  0  0  0
 24 23  1  0  0  0  0
 25 28  1  6  0  0  0
 26 27  1  0  0  0  0
 26 25  1  0  0  0  0
 27 24  1  1  0  0  0
 27 25  1  0  0  0  0
 28 29  1  0  0  0  0
 29 32  1  0  0  0  0
 32 31  2  0  0  0  0
 32 30  1  0  0  0  0
M  END
>  <MODEL>
2

>  <REMARK>
 VINA RESULT:      -8.4      3.193      6.639
  Name = 
  8 active torsions:
  status: ('A' for Active; 'I' for Inactive)
    1  A    between atoms: C_7  and  C_19
    2  A    between atoms: C_7  and  C_23
    3  A    between atoms: C_8  and  C_21
    4  A    between atoms: C_9  and  N_17
    5  A    between atoms: C_13  and  C_18
    6  A    between atoms: N_17  and  C_27
    7  A    between atoms: C_23  and  C_30
    8  A    between atoms: C_27  and  C_29
                            x       y       z     vdW  Elec       q    Type
                         _______ _______ _______ _____ _____    ______ ____

>  <TORSDO>
F 8

$$$$
=
 OpenBabel10222416363D

 32 36  0  0  1  0  0  0  0  0999 V2000
  180.0940  179.5210  139.4780 N   0  0  0  0  0  0  0  0  0  0  0  0
  182.6790  177.7940  141.0550 C   0  0  0  0  0  3  0  0  0  0  0  0
  184.5020  178.8500  139.7220 C   0  0  0  0  0  0  0  0  0  0  0  0
  181.7420  177.7480  139.8980 C   0  0  0  0  0  2  0  0  0  0  0  0
  181.9910  181.2590  138.4880 C   0  0  0  0  0  3  0  0  0  0  0  0
  181.3980  179.1310  139.4600 C   0  0  0  0  0  0  0  0  0  0  0  0
  183.9180  178.2820  140.9740 C   0  0  0  0  0  0  0  0  0  0  0  0
  182.3860  180.0110  138.9750 C   0  0  0  0  0  0  0  0  0  0  0  0
  179.7040  180.7430  139.0290 C   0  0  0  0  0  3  0  0  0  0  0  0
  180.6480  181.6350  138.5200 C   0  0  0  0  0  3  0  0  0  0  0  0
  183.8170  179.6570  138.8980 C   0  0  0  0  0  3  0  0  0  0  0  0
  185.3760  178.2280  143.1800 C   0  0  0  0  0  0  0  0  0  0  0  0
  184.7140  178.2650  142.1730 C   0  0  0  0  0  0  0  0  0  0  0  0
  188.6460  177.8180  148.3710 C   0  0  0  0  0  3  0  0  0  0  0  0
  187.8970  177.6850  145.6900 C   0  0  0  0  0  0  0  0  0  0  0  0
  185.5880  178.6290  145.9070 S   0  0  0  0  0  0  0  0  0  0  0  0
  189.5400  177.3100  147.4090 C   0  0  0  0  0  3  0  0  0  0  0  0
  187.0260  178.1840  146.6470 C   0  0  0  0  0  0  0  0  0  0  0  0
  186.1540  178.1590  144.3820 C   0  0  0  0  0  0  0  0  0  0  0  0
  187.4150  177.6660  144.4220 N   0  0  0  0  0  0  0  0  0  0  0  0
  189.1670  177.2390  146.0550 C   0  0  0  0  0  3  0  0  0  0  0  0
  187.3690  178.2630  147.9930 C   0  0  0  0  0  3  0  0  0  0  0  0
  185.8910  178.6660  139.4260 N   0  0  0  0  0  2  0  0  0  0  0  0
  186.3830  178.2040  138.1380 C   0  0  0  0  0  2  0  0  0  0  0  0
  188.5730  178.2550  137.1110 C   0  0  2  0  0  3  0  0  0  0  0  0
  188.6780  178.9660  138.3920 N   0  0  0  0  0  2  0  0  0  0  0  0
  187.8290  177.7740  138.2680 C   0  0  1  0  0  3  0  0  0  0  0  0
  189.8100  177.4020  136.9100 C   0  0  0  0  0  2  0  0  0  0  0  0
  189.4220  175.9560  136.6510 C   0  0  0  0  0  2  0  0  0  0  0  0
  190.0650  173.7970  137.4360 O   0  0  0  0  0  0  0  0  0  0  0  0
  190.8370  175.5680  138.6690 O   0  0  0  0  0  1  0  0  0  0  0  0
  190.1140  175.0440  137.6070 C   0  0  0  0  0  0  0  0  0  0  0  0
  3  7  1  0  0  0  0
  4  2  1  0  0  0  0
  5 10  2  0  0  0  0
  5  8  1  0  0  0  0
  6  1  1  0  0  0  0
  6  4  1  0  0  0  0
  7  2  2  0  0  0  0
  7 13  1  0  0  0  0
  8  6  2  0  0  0  0
  9  1  2  0  0  0  0
 10  9  1  0  0  0  0
 11  8  1  0  0  0  0
 11  3  2  0  0  0  0
 12 19  1  0  0  0  0
 13 12  3  0  0  0  0
 15 21  2  0  0  0  0
 15 18  1  0  0  0  0
 16 18  1  0  0  0  0
 17 14  2  0  0  0  0
 18 22  2  0  0  0  0
 19 20  2  0  0  0  0
 19 16  1  0  0  0  0
 20 15  1  0  0  0  0
 21 17  1  0  0  0  0
 22 14  1  0  0  0  0
 23  3  1  0  0  0  0
 24 23  1  0  0  0  0
 25 28  1  1  0  0  0
 25 27  1  0  0  0  0
 25 26  1  0  0  0  0
 27 24  1  6  0  0  0
 27 26  1  0  0  0  0
 29 28  1  0  0  0  0
 29 32  1  0  0  0  0
 30 32  2  0  0  0  0
 32 31  1  0  0  0  0
M  END
>  <MODEL>
3

>  <REMARK>
 VINA RESULT:      -8.3      3.625      7.078
  Name = 
  8 active torsions:
  status: ('A' for Active; 'I' for Inactive)
    1  A    between atoms: C_7  and  C_19
    2  A    between atoms: C_7  and  C_23
    3  A    between atoms: C_8  and  C_21
    4  A    between atoms: C_9  and  N_17
    5  A    between atoms: C_13  and  C_18
    6  A    between atoms: N_17  and  C_27
    7  A    between atoms: C_23  and  C_30
    8  A    between atoms: C_27  and  C_29
                            x       y       z     vdW  Elec       q    Type
                         _______ _______ _______ _____ _____    ______ ____

>  <TORSDO>
F 8

$$$$
=
 OpenBabel10222416363D

 32 36  0  0  1  0  0  0  0  0999 V2000
  190.0350  174.9620  136.0480 N   0  0  0  0  0  0  0  0  0  0  0  0
  189.8230  177.2300  138.6860 C   0  0  0  0  0  3  0  0  0  0  0  0
  187.4010  177.7260  138.3640 C   0  0  0  0  0  0  0  0  0  0  0  0
  190.0830  177.1190  137.2240 C   0  0  0  0  0  2  0  0  0  0  0  0
  187.2800  174.8480  136.0540 C   0  0  0  0  0  3  0  0  0  0  0  0
  189.3360  175.9590  136.6560 C   0  0  0  0  0  0  0  0  0  0  0  0
  188.6230  177.5100  139.1970 C   0  0  0  0  0  0  0  0  0  0  0  0
  187.9280  175.9120  136.6870 C   0  0  0  0  0  0  0  0  0  0  0  0
  189.4130  173.9110  135.4530 C   0  0  0  0  0  3  0  0  0  0  0  0
  188.0200  173.8370  135.4400 C   0  0  0  0  0  3  0  0  0  0  0  0
  187.0960  176.9640  137.3030 C   0  0  0  0  0  3  0  0  0  0  0  0
  188.4060  177.6360  141.8290 C   0  0  0  0  0  0  0  0  0  0  0  0
  188.5150  177.5870  140.6300 C   0  0  0  0  0  0  0  0  0  0  0  0
  187.7190  177.7010  147.9390 C   0  0  0  0  0  3  0  0  0  0  0  0
  188.8630  177.6330  145.3980 C   0  0  0  0  0  0  0  0  0  0  0  0
  186.7610  177.7880  144.0460 S   0  0  0  0  0  0  0  0  0  0  0  0
  189.1160  177.6010  147.7920 C   0  0  0  0  0  3  0  0  0  0  0  0
  187.4880  177.7320  145.5570 C   0  0  0  0  0  0  0  0  0  0  0  0
  188.2530  177.6830  143.2540 C   0  0  0  0  0  0  0  0  0  0  0  0
  189.2970  177.6030  144.1140 N   0  0  0  0  0  0  0  0  0  0  0  0
  189.6990  177.5650  146.5130 C   0  0  0  0  0  3  0  0  0  0  0  0
  186.8870  177.7680  146.8100 C   0  0  0  0  0  3  0  0  0  0  0  0
  186.4160  178.6840  138.7660 N   0  0  0  0  0  2  0  0  0  0  0  0
  184.9840  178.4330  138.7140 C   0  0  0  0  0  2  0  0  0  0  0  0
  184.3470  178.3200  141.0450 C   0  0  2  0  0  3  0  0  0  0  0  0
  185.2810  179.4460  140.9050 N   0  0  0  0  0  2  0  0  0  0  0  0
  184.2970  179.1550  139.8530 C   0  0  1  0  0  3  0  0  0  0  0  0
  183.2300  178.7120  141.9920 C   0  0  0  0  0  2  0  0  0  0  0  0
  181.8760  178.4700  141.3440 C   0  0  0  0  0  2  0  0  0  0  0  0
  180.7000  179.9930  142.7520 O   0  0  0  0  0  1  0  0  0  0  0  0
  179.8010  177.8900  142.6020 O   0  0  0  0  0  0  0  0  0  0  0  0
  180.7710  178.8290  142.2780 C   0  0  0  0  0  0  0  0  0  0  0  0
  1  6  1  0  0  0  0
  2  7  2  0  0  0  0
  3 23  1  0  0  0  0
  3  7  1  0  0  0  0
  4  2  1  0  0  0  0
  5  8  1  0  0  0  0
  6  8  2  0  0  0  0
  6  4  1  0  0  0  0
  7 13  1  0  0  0  0
  8 11  1  0  0  0  0
  9  1  2  0  0  0  0
 10  9  1  0  0  0  0
 10  5  2  0  0  0  0
 11  3  2  0  0  0  0
 12 19  1  0  0  0  0
 13 12  3  0  0  0  0
 15 18  2  0  0  0  0
 15 21  1  0  0  0  0
 16 18  1  0  0  0  0
 17 14  1  0  0  0  0
 18 22  1  0  0  0  0
 19 16  1  0  0  0  0
 19 20  2  0  0  0  0
 20 15  1  0  0  0  0
 21 17  2  0  0  0  0
 22 14  2  0  0  0  0
 24 23  1  0  0  0  0
 25 28  1  1  0  0  0
 26 25  1  0  0  0  0
 27 24  1  6  0  0  0
 27 26  1  0  0  0  0
 27 25  1  0  0  0  0
 29 28  1  0  0  0  0
 29 32  1  0  0  0  0
 32 31  2  0  0  0  0
 32 30  1  0  0  0  0
M  END
>  <MODEL>
4

>  <REMARK>
 VINA RESULT:      -7.9      1.581      2.030
  Name = 
  8 active torsions:
  status: ('A' for Active; 'I' for Inactive)
    1  A    between atoms: C_7  and  C_19
    2  A    between atoms: C_7  and  C_23
    3  A    between atoms: C_8  and  C_21
    4  A    between atoms: C_9  and  N_17
    5  A    between atoms: C_13  and  C_18
    6  A    between atoms: N_17  and  C_27
    7  A    between atoms: C_23  and  C_30
    8  A    between atoms: C_27  and  C_29
                            x       y       z     vdW  Elec       q    Type
                         _______ _______ _______ _____ _____    ______ ____

>  <TORSDO>
F 8

$$$$
=
 OpenBabel10222416363D

 32 36  0  0  1  0  0  0  0  0999 V2000
  192.6320  174.5080  137.4350 N   0  0  0  0  0  0  0  0  0  0  0  0
  191.2900  176.8810  139.6070 C   0  0  0  0  0  3  0  0  0  0  0  0
  189.5500  177.6860  138.0140 C   0  0  0  0  0  0  0  0  0  0  0  0
  192.3030  176.6800  138.5340 C   0  0  0  0  0  2  0  0  0  0  0  0
  190.3560  174.7670  135.9020 C   0  0  0  0  0  3  0  0  0  0  0  0
  191.8530  175.6120  137.5950 C   0  0  0  0  0  0  0  0  0  0  0  0
  190.0580  177.3380  139.3750 C   0  0  0  0  0  0  0  0  0  0  0  0
  190.6760  175.7560  136.8350 C   0  0  0  0  0  0  0  0  0  0  0  0
  192.3150  173.5290  136.5480 C   0  0  0  0  0  3  0  0  0  0  0  0
  191.1700  173.6430  135.7590 C   0  0  0  0  0  3  0  0  0  0  0  0
  189.7900  176.9330  136.9300 C   0  0  0  0  0  3  0  0  0  0  0  0
  188.4680  177.6030  141.4710 C   0  0  0  0  0  0  0  0  0  0  0  0
  189.1820  177.4820  140.5070 C   0  0  0  0  0  0  0  0  0  0  0  0
  184.9720  178.3170  146.4790 C   0  0  0  0  0  3  0  0  0  0  0  0
  185.8290  178.2600  143.8270 C   0  0  0  0  0  0  0  0  0  0  0  0
  188.1540  177.4130  144.2110 S   0  0  0  0  0  0  0  0  0  0  0  0
  184.1040  178.7160  145.4430 C   0  0  0  0  0  3  0  0  0  0  0  0
  186.6730  177.8680  144.8550 C   0  0  0  0  0  0  0  0  0  0  0  0
  187.6390  177.7410  142.6320 C   0  0  0  0  0  0  0  0  0  0  0  0
  186.3630  178.1930  142.5820 N   0  0  0  0  0  0  0  0  0  0  0  0
  184.5320  178.6910  144.1040 C   0  0  0  0  0  3  0  0  0  0  0  0
  186.2760  177.8860  146.1880 C   0  0  0  0  0  3  0  0  0  0  0  0
  188.6450  178.7830  137.8410 N   0  0  0  0  0  2  0  0  0  0  0  0
  187.3770  178.6740  137.1380 C   0  0  0  0  0  2  0  0  0  0  0  0
  185.2570  177.5080  137.1010 C   0  0  2  0  0  3  0  0  0  0  0  0
  186.3110  176.4880  137.1860 N   0  0  0  0  0  2  0  0  0  0  0  0
  186.4440  177.7620  137.9060 C   0  0  1  0  0  3  0  0  0  0  0  0
  184.1030  177.1120  138.0020 C   0  0  0  0  0  2  0  0  0  0  0  0
  183.2490  178.3240  138.3360 C   0  0  0  0  0  2  0  0  0  0  0  0
  183.4600  178.5290  140.7020 O   0  0  0  0  0  1  0  0  0  0  0  0
  184.5510  180.1240  139.4700 O   0  0  0  0  0  0  0  0  0  0  0  0
  183.7470  178.9980  139.5690 C   0  0  0  0  0  0  0  0  0  0  0  0
  1  6  1  0  0  0  0
  3  7  1  0  0  0  0
  4  2  1  0  0  0  0
  5  8  1  0  0  0  0
  6  4  1  0  0  0  0
  7  2  2  0  0  0  0
  7 13  1  0  0  0  0
  8 11  1  0  0  0  0
  8  6  2  0  0  0  0
  9  1  2  0  0  0  0
 10  5  2  0  0  0  0
 10  9  1  0  0  0  0
 11  3  2  0  0  0  0
 12 19  1  0  0  0  0
 13 12  3  0  0  0  0
 15 21  2  0  0  0  0
 15 18  1  0  0  0  0
 16 18  1  0  0  0  0
 17 14  2  0  0  0  0
 18 22  2  0  0  0  0
 19 16  1  0  0  0  0
 20 19  2  0  0  0  0
 20 15  1  0  0  0  0
 21 17  1  0  0  0  0
 22 14  1  0  0  0  0
 23  3  1  0  0  0  0
 24 23  1  0  0  0  0
 25 26  1  0  0  0  0
 25 27  1  0  0  0  0
 25 28  1  1  0  0  0
 26 27  1  0  0  0  0
 27 24  1  6  0  0  0
 28 29  1  0  0  0  0
 29 32  1  0  0  0  0
 31 32  2  0  0  0  0
 32 30  1  0  0  0  0
M  END
>  <MODEL>
5

>  <REMARK>
 VINA RESULT:      -7.8      2.103      2.933
  Name = 
  8 active torsions:
  status: ('A' for Active; 'I' for Inactive)
    1  A    between atoms: C_7  and  C_19
    2  A    between atoms: C_7  and  C_23
    3  A    between atoms: C_8  and  C_21
    4  A    between atoms: C_9  and  N_17
    5  A    between atoms: C_13  and  C_18
    6  A    between atoms: N_17  and  C_27
    7  A    between atoms: C_23  and  C_30
    8  A    between atoms: C_27  and  C_29
                            x       y       z     vdW  Elec       q    Type
                         _______ _______ _______ _____ _____    ______ ____

>  <TORSDO>
F 8

$$$$
=
 OpenBabel10222416363D

 32 36  0  0  1  0  0  0  0  0999 V2000
  184.1760  178.7720  146.0970 N   0  0  0  0  0  0  0  0  0  0  0  0
  182.8950  178.7370  142.8550 C   0  0  0  0  0  3  0  0  0  0  0  0
  185.1180  178.8630  141.7320 C   0  0  0  0  0  0  0  0  0  0  0  0
  183.3090  179.6370  143.9670 C   0  0  0  0  0  2  0  0  0  0  0  0
  186.6430  178.1720  145.0240 C   0  0  0  0  0  3  0  0  0  0  0  0
  184.3900  178.9970  144.7720 C   0  0  0  0  0  0  0  0  0  0  0  0
  183.7040  178.3960  141.8500 C   0  0  0  0  0  0  0  0  0  0  0  0
  185.6370  178.6810  144.1990 C   0  0  0  0  0  0  0  0  0  0  0  0
  185.1410  178.2540  146.9010 C   0  0  0  0  0  3  0  0  0  0  0  0
  186.3980  177.9490  146.3780 C   0  0  0  0  0  3  0  0  0  0  0  0
  185.9580  178.9170  142.7770 C   0  0  0  0  0  3  0  0  0  0  0  0
  182.7440  176.7640  140.0040 C   0  0  0  0  0  0  0  0  0  0  0  0
  183.1720  177.5170  140.8430 C   0  0  0  0  0  0  0  0  0  0  0  0
  180.7090  172.7570  135.8070 C   0  0  0  0  0  3  0  0  0  0  0  0
  180.8110  174.5100  137.9720 C   0  0  0  0  0  0  0  0  0  0  0  0
  183.2040  175.2150  137.7600 S   0  0  0  0  0  0  0  0  0  0  0  0
  179.5670  172.9690  136.6030 C   0  0  0  0  0  3  0  0  0  0  0  0
  181.9290  174.2930  137.1800 C   0  0  0  0  0  0  0  0  0  0  0  0
  182.2560  175.8540  139.0090 C   0  0  0  0  0  0  0  0  0  0  0  0
  180.9870  175.3790  138.9980 N   0  0  0  0  0  0  0  0  0  0  0  0
  179.6130  173.8510  137.6970 C   0  0  0  0  0  3  0  0  0  0  0  0
  181.9110  173.4250  136.0930 C   0  0  0  0  0  3  0  0  0  0  0  0
  185.6820  179.1380  140.4450 N   0  0  0  0  0  2  0  0  0  0  0  0
  186.6170  178.2500  139.7730 C   0  0  0  0  0  2  0  0  0  0  0  0
  188.9040  177.4600  139.8040 C   0  0  2  0  0  3  0  0  0  0  0  0
  188.9000  178.7500  139.0990 N   0  0  0  0  0  2  0  0  0  0  0  0
  188.0240  178.5290  140.2580 C   0  0  1  0  0  3  0  0  0  0  0  0
  190.1220  177.3850  140.7030 C   0  0  0  0  0  2  0  0  0  0  0  0
  189.7160  177.5230  142.1610 C   0  0  0  0  0  2  0  0  0  0  0  0
  188.3100  175.8870  143.1780 O   0  0  0  0  0  1  0  0  0  0  0  0
  190.4890  175.2540  142.8530 O   0  0  0  0  0  0  0  0  0  0  0  0
  189.4620  176.1840  142.7680 C   0  0  0  0  0  0  0  0  0  0  0  0
  1  9  1  0  0  0  0
  2  4  1  0  0  0  0
  3  7  1  0  0  0  0
  3 11  2  0  0  0  0
  4  6  1  0  0  0  0
  5 10  1  0  0  0  0
  6  1  2  0  0  0  0
  7  2  2  0  0  0  0
  8  6  1  0  0  0  0
  8  5  2  0  0  0  0
 10  9  2  0  0  0  0
 11  8  1  0  0  0  0
 12 13  3  0  0  0  0
 13  7  1  0  0  0  0
 14 22  2  0  0  0  0
 14 17  1  0  0  0  0
 15 20  1  0  0  0  0
 16 19  1  0  0  0  0
 17 21  2  0  0  0  0
 18 16  1  0  0  0  0
 18 15  2  0  0  0  0
 19 12  1  0  0  0  0
 20 19  2  0  0  0  0
 21 15  1  0  0  0  0
 22 18  1  0  0  0  0
 23  3  1  0  0  0  0
 24 23  1  0  0  0  0
 25 27  1  0  0  0  0
 25 28  1  1  0  0  0
 26 25  1  0  0  0  0
 26 27  1  0  0  0  0
 27 24  1  6  0  0  0
 28 29  1  0  0  0  0
 29 32  1  0  0  0  0
 32 31  2  0  0  0  0
 32 30  1  0  0  0  0
M  END
>  <MODEL>
6

>  <REMARK>
 VINA RESULT:      -7.7      4.357      9.205
  Name = 
  8 active torsions:
  status: ('A' for Active; 'I' for Inactive)
    1  A    between atoms: C_7  and  C_19
    2  A    between atoms: C_7  and  C_23
    3  A    between atoms: C_8  and  C_21
    4  A    between atoms: C_9  and  N_17
    5  A    between atoms: C_13  and  C_18
    6  A    between atoms: N_17  and  C_27
    7  A    between atoms: C_23  and  C_30
    8  A    between atoms: C_27  and  C_29
                            x       y       z     vdW  Elec       q    Type
                         _______ _______ _______ _____ _____    ______ ____

>  <TORSDO>
F 8

$$$$
=
 OpenBabel10222416363D

 32 36  0  0  1  0  0  0  0  0999 V2000
  194.2320  174.2540  136.9460 N   0  0  0  0  0  0  0  0  0  0  0  0
  192.3820  176.6160  138.7210 C   0  0  0  0  0  3  0  0  0  0  0  0
  190.2170  176.0980  137.5980 C   0  0  0  0  0  0  0  0  0  0  0  0
  193.1760  176.4080  137.4780 C   0  0  0  0  0  2  0  0  0  0  0  0
  191.8460  173.0990  136.1900 C   0  0  0  0  0  3  0  0  0  0  0  0
  193.0870  174.9840  137.0440 C   0  0  0  0  0  0  0  0  0  0  0  0
  191.0560  176.4840  138.7730 C   0  0  0  0  0  0  0  0  0  0  0  0
  191.8540  174.4070  136.6800 C   0  0  0  0  0  0  0  0  0  0  0  0
  194.2290  172.9730  136.4940 C   0  0  0  0  0  3  0  0  0  0  0  0
  193.0340  172.3720  136.1020 C   0  0  0  0  0  3  0  0  0  0  0  0
  190.5720  175.1360  136.7330 C   0  0  0  0  0  3  0  0  0  0  0  0
  189.8660  176.8910  141.0990 C   0  0  0  0  0  0  0  0  0  0  0  0
  190.4180  176.7150  140.0410 C   0  0  0  0  0  0  0  0  0  0  0  0
  187.0230  177.8500  146.4670 C   0  0  0  0  0  3  0  0  0  0  0  0
  187.5160  177.5710  143.7370 C   0  0  0  0  0  0  0  0  0  0  0  0
  189.9470  176.9850  143.8610 S   0  0  0  0  0  0  0  0  0  0  0  0
  185.9870  178.0500  145.5340 C   0  0  0  0  0  3  0  0  0  0  0  0
  188.5270  177.3750  144.6650 C   0  0  0  0  0  0  0  0  0  0  0  0
  189.1920  177.0850  142.3490 C   0  0  0  0  0  0  0  0  0  0  0  0
  187.8800  177.4120  142.4400 N   0  0  0  0  0  0  0  0  0  0  0  0
  186.2300  177.9130  144.1560 C   0  0  0  0  0  3  0  0  0  0  0  0
  188.3140  177.5070  146.0340 C   0  0  0  0  0  3  0  0  0  0  0  0
  188.9080  176.6530  137.4330 N   0  0  0  0  0  2  0  0  0  0  0  0
  188.3320  176.9810  136.1380 C   0  0  0  0  0  2  0  0  0  0  0  0
  186.5080  177.5480  137.6230 C   0  0  2  0  0  3  0  0  0  0  0  0
  187.3280  178.7560  137.4630 N   0  0  0  0  0  2  0  0  0  0  0  0
  187.1070  177.8490  136.3290 C   0  0  1  0  0  3  0  0  0  0  0  0
  185.0420  177.9340  137.6090 C   0  0  0  0  0  2  0  0  0  0  0  0
  184.4740  177.9110  139.0190 C   0  0  0  0  0  2  0  0  0  0  0  0
  184.1680  180.2750  139.0870 O   0  0  0  0  0  0  0  0  0  0  0  0
  185.1940  179.3580  140.9200 O   0  0  0  0  0  1  0  0  0  0  0  0
  184.6090  179.2480  139.6660 C   0  0  0  0  0  0  0  0  0  0  0  0
  1  6  1  0  0  0  0
  2  7  2  0  0  0  0
  3  7  1  0  0  0  0
  4  2  1  0  0  0  0
  5  8  1  0  0  0  0
  6  4  1  0  0  0  0
  7 13  1  0  0  0  0
  8 11  1  0  0  0  0
  8  6  2  0  0  0  0
  9  1  2  0  0  0  0
 10  5  2  0  0  0  0
 10  9  1  0  0  0  0
 11  3  2  0  0  0  0
 12 19  1  0  0  0  0
 13 12  3  0  0  0  0
 15 21  2  0  0  0  0
 15 18  1  0  0  0  0
 16 18  1  0  0  0  0
 17 14  2  0  0  0  0
 18 22  2  0  0  0  0
 19 20  2  0  0  0  0
 19 16  1  0  0  0  0
 20 15  1  0  0  0  0
 21 17  1  0  0  0  0
 22 14  1  0  0  0  0
 23  3  1  0  0  0  0
 24 23  1  0  0  0  0
 25 28  1  6  0  0  0
 26 25  1  0  0  0  0
 27 24  1  1  0  0  0
 27 26  1  0  0  0  0
 27 25  1  0  0  0  0
 28 29  1  0  0  0  0
 29 32  1  0  0  0  0
 30 32  2  0  0  0  0
 32 31  1  0  0  0  0
M  END
>  <MODEL>
7

>  <REMARK>
 VINA RESULT:      -7.6      2.022      3.091
  Name = 
  8 active torsions:
  status: ('A' for Active; 'I' for Inactive)
    1  A    between atoms: C_7  and  C_19
    2  A    between atoms: C_7  and  C_23
    3  A    between atoms: C_8  and  C_21
    4  A    between atoms: C_9  and  N_17
    5  A    between atoms: C_13  and  C_18
    6  A    between atoms: N_17  and  C_27
    7  A    between atoms: C_23  and  C_30
    8  A    between atoms: C_27  and  C_29
                            x       y       z     vdW  Elec       q    Type
                         _______ _______ _______ _____ _____    ______ ____

>  <TORSDO>
F 8

$$$$
=
 OpenBabel10222416363D

 32 36  0  0  1  0  0  0  0  0999 V2000
  191.9990  176.8150  146.2430 N   0  0  0  0  0  0  0  0  0  0  0  0
  189.6260  178.4710  144.3000 C   0  0  0  0  0  3  0  0  0  0  0  0
  189.8530  176.9590  142.3300 C   0  0  0  0  0  0  0  0  0  0  0  0
  191.0800  178.4140  144.6200 C   0  0  0  0  0  2  0  0  0  0  0  0
  191.8120  174.6950  144.4910 C   0  0  0  0  0  3  0  0  0  0  0  0
  191.4660  177.0270  145.0090 C   0  0  0  0  0  0  0  0  0  0  0  0
  189.0780  177.8240  143.2690 C   0  0  0  0  0  0  0  0  0  0  0  0
  191.3440  175.9540  144.1040 C   0  0  0  0  0  0  0  0  0  0  0  0
  192.4340  175.5890  146.6360 C   0  0  0  0  0  3  0  0  0  0  0  0
  192.3520  174.5050  145.7630 C   0  0  0  0  0  3  0  0  0  0  0  0
  190.8000  176.1030  142.7400 C   0  0  0  0  0  3  0  0  0  0  0  0
  186.4680  178.1000  142.9390 C   0  0  0  0  0  0  0  0  0  0  0  0
  187.6590  177.9680  143.0780 C   0  0  0  0  0  0  0  0  0  0  0  0
  180.4080  178.9450  142.3310 C   0  0  0  0  0  3  0  0  0  0  0  0
  183.0760  178.3630  141.7700 C   0  0  0  0  0  0  0  0  0  0  0  0
  184.0190  178.7240  144.0610 S   0  0  0  0  0  0  0  0  0  0  0  0
  180.7970  178.5840  141.0260 C   0  0  0  0  0  3  0  0  0  0  0  0
  182.6800  178.7190  143.0500 C   0  0  0  0  0  0  0  0  0  0  0  0
  185.0510  178.2660  142.7990 C   0  0  0  0  0  0  0  0  0  0  0  0
  184.4000  178.1100  141.6220 N   0  0  0  0  0  0  0  0  0  0  0  0
  182.1410  178.2910  140.7370 C   0  0  0  0  0  3  0  0  0  0  0  0
  181.3580  179.0160  143.3630 C   0  0  0  0  0  3  0  0  0  0  0  0
  189.5020  176.9070  140.9420 N   0  0  0  0  0  2  0  0  0  0  0  0
  190.3360  177.4530  139.8830 C   0  0  0  0  0  2  0  0  0  0  0  0
  188.1950  177.6950  138.7830 C   0  0  2  0  0  3  0  0  0  0  0  0
  188.3330  178.8230  139.7140 N   0  0  0  0  0  2  0  0  0  0  0  0
  189.4970  178.3220  138.9700 C   0  0  1  0  0  3  0  0  0  0  0  0
  187.5720  178.1880  137.4910 C   0  0  0  0  0  2  0  0  0  0  0  0
  186.3180  177.3900  137.1680 C   0  0  0  0  0  2  0  0  0  0  0  0
  184.1770  177.1160  138.1810 O   0  0  0  0  0  0  0  0  0  0  0  0
  185.1830  179.1460  138.5300 O   0  0  0  0  0  1  0  0  0  0  0  0
  185.1620  177.8730  137.9770 C   0  0  0  0  0  0  0  0  0  0  0  0
  1  9  1  0  0  0  0
  2  4  1  0  0  0  0
  3 11  2  0  0  0  0
  3  7  1  0  0  0  0
  4  6  1  0  0  0  0
  5 10  1  0  0  0  0
  6  1  2  0  0  0  0
  7  2  2  0  0  0  0
  8  5  2  0  0  0  0
  8  6  1  0  0  0  0
 10  9  2  0  0  0  0
 11  8  1  0  0  0  0
 12 13  3  0  0  0  0
 13  7  1  0  0  0  0
 14 22  1  0  0  0  0
 15 18  1  0  0  0  0
 17 14  2  0  0  0  0
 18 22  2  0  0  0  0
 18 16  1  0  0  0  0
 19 12  1  0  0  0  0
 19 16  1  0  0  0  0
 20 15  1  0  0  0  0
 20 19  2  0  0  0  0
 21 17  1  0  0  0  0
 21 15  2  0  0  0  0
 23  3  1  0  0  0  0
 24 23  1  0  0  0  0
 25 28  1  6  0  0  0
 25 27  1  0  0  0  0
 25 26  1  0  0  0  0
 27 26  1  0  0  0  0
 27 24  1  1  0  0  0
 29 28  1  0  0  0  0
 29 32  1  0  0  0  0
 32 30  2  0  0  0  0
 32 31  1  0  0  0  0
M  END
>  <MODEL>
8

>  <REMARK>
 VINA RESULT:      -7.5      3.340      6.657
  Name = 
  8 active torsions:
  status: ('A' for Active; 'I' for Inactive)
    1  A    between atoms: C_7  and  C_19
    2  A    between atoms: C_7  and  C_23
    3  A    between atoms: C_8  and  C_21
    4  A    between atoms: C_9  and  N_17
    5  A    between atoms: C_13  and  C_18
    6  A    between atoms: N_17  and  C_27
    7  A    between atoms: C_23  and  C_30
    8  A    between atoms: C_27  and  C_29
                            x       y       z     vdW  Elec       q    Type
                         _______ _______ _______ _____ _____    ______ ____

>  <TORSDO>
F 8

$$$$
=
 OpenBabel10222416363D

 32 36  0  0  1  0  0  0  0  0999 V2000
  191.7390  177.1490  146.0660 N   0  0  0  0  0  0  0  0  0  0  0  0
  189.8270  178.8800  143.7220 C   0  0  0  0  0  3  0  0  0  0  0  0
  190.4560  177.4240  141.7980 C   0  0  0  0  0  0  0  0  0  0  0  0
  191.1820  178.8010  144.3350 C   0  0  0  0  0  2  0  0  0  0  0  0
  191.9160  175.0820  144.2510 C   0  0  0  0  0  3  0  0  0  0  0  0
  191.4750  177.4000  144.7550 C   0  0  0  0  0  0  0  0  0  0  0  0
  189.5040  178.2680  142.5810 C   0  0  0  0  0  0  0  0  0  0  0  0
  191.5420  176.3550  143.8130 C   0  0  0  0  0  0  0  0  0  0  0  0
  192.0790  175.9080  146.5040 C   0  0  0  0  0  3  0  0  0  0  0  0
  192.1790  174.8500  145.6010 C   0  0  0  0  0  3  0  0  0  0  0  0
  191.2950  176.5480  142.3700 C   0  0  0  0  0  3  0  0  0  0  0  0
  187.0190  178.5540  141.7220 C   0  0  0  0  0  0  0  0  0  0  0  0
  188.1560  178.4300  142.1020 C   0  0  0  0  0  0  0  0  0  0  0  0
  181.1730  179.2260  139.9370 C   0  0  0  0  0  3  0  0  0  0  0  0
  183.9600  179.2750  139.9700 C   0  0  0  0  0  0  0  0  0  0  0  0
  184.3190  178.2070  142.2060 S   0  0  0  0  0  0  0  0  0  0  0  0
  181.8870  179.7680  138.8500 C   0  0  0  0  0  3  0  0  0  0  0  0
  183.2460  178.7430  141.0330 C   0  0  0  0  0  0  0  0  0  0  0  0
  185.6590  178.6840  141.2870 C   0  0  0  0  0  0  0  0  0  0  0  0
  185.3090  179.2470  140.1060 N   0  0  0  0  0  0  0  0  0  0  0  0
  183.2920  179.7970  138.8620 C   0  0  0  0  0  3  0  0  0  0  0  0
  181.8560  178.7050  141.0480 C   0  0  0  0  0  3  0  0  0  0  0  0
  190.4020  177.4150  140.3670 N   0  0  0  0  0  2  0  0  0  0  0  0
  191.3260  176.6610  139.5340 C   0  0  0  0  0  2  0  0  0  0  0  0
  190.7600  176.7480  137.1840 C   0  0  2  0  0  3  0  0  0  0  0  0
  191.5220  175.5110  137.4000 N   0  0  0  0  0  2  0  0  0  0  0  0
  190.5680  175.9870  138.4110 C   0  0  1  0  0  3  0  0  0  0  0  0
  189.6180  176.4710  136.2260 C   0  0  0  0  0  2  0  0  0  0  0  0
  188.8820  177.7580  135.8900 C   0  0  0  0  0  2  0  0  0  0  0  0
  187.5390  177.9340  137.8530 O   0  0  0  0  0  1  0  0  0  0  0  0
  189.0240  179.6470  137.5140 O   0  0  0  0  0  0  0  0  0  0  0  0
  188.4340  178.4490  137.1330 C   0  0  0  0  0  0  0  0  0  0  0  0
  1  9  1  0  0  0  0
  2  4  1  0  0  0  0
  3 11  2  0  0  0  0
  3  7  1  0  0  0  0
  4  6  1  0  0  0  0
  5 10  1  0  0  0  0
  6  1  2  0  0  0  0
  7  2  2  0  0  0  0
  8  5  2  0  0  0  0
  8  6  1  0  0  0  0
 10  9  2  0  0  0  0
 11  8  1  0  0  0  0
 12 13  3  0  0  0  0
 13  7  1  0  0  0  0
 14 22  1  0  0  0  0
 15 20  1  0  0  0  0
 15 18  1  0  0  0  0
 17 21  1  0  0  0  0
 17 14  2  0  0  0  0
 18 22  2  0  0  0  0
 18 16  1  0  0  0  0
 19 12  1  0  0  0  0
 19 16  1  0  0  0  0
 20 19  2  0  0  0  0
 21 15  2  0  0  0  0
 23  3  1  0  0  0  0
 24 23  1  0  0  0  0
 25 28  1  6  0  0  0
 25 26  1  0  0  0  0
 25 27  1  0  0  0  0
 26 27  1  0  0  0  0
 27 24  1  1  0  0  0
 29 28  1  0  0  0  0
 29 32  1  0  0  0  0
 32 31  2  0  0  0  0
 32 30  1  0  0  0  0
M  END
>  <MODEL>
9

>  <REMARK>
 VINA RESULT:      -7.4      3.392      7.469
  Name = 
  8 active torsions:
  status: ('A' for Active; 'I' for Inactive)
    1  A    between atoms: C_7  and  C_19
    2  A    between atoms: C_7  and  C_23
    3  A    between atoms: C_8  and  C_21
    4  A    between atoms: C_9  and  N_17
    5  A    between atoms: C_13  and  C_18
    6  A    between atoms: N_17  and  C_27
    7  A    between atoms: C_23  and  C_30
    8  A    between atoms: C_27  and  C_29
                            x       y       z     vdW  Elec       q    Type
                         _______ _______ _______ _____ _____    ______ ____

>  <TORSDO>
F 8

$$$$
