=
 OpenBabel10222420483D

 68 74  0  0  1  0  0  0  0  0999 V2000
  193.2560  175.1150  136.2830 C   0  0  1  0  0  3  0  0  0  0  0  0
  189.8570  172.8270  134.9110 C   0  0  0  0  0  2  0  0  0  0  0  0
  191.2230  172.2160  134.6260 C   0  0  0  0  0  2  0  0  0  0  0  0
  189.8480  174.3350  134.5950 C   0  0  2  0  0  3  0  0  0  0  0  0
  192.2900  172.8070  135.5590 C   0  0  0  0  0  2  0  0  0  0  0  0
  191.2270  174.9830  134.7660 C   0  0  0  0  0  2  0  0  0  0  0  0
  192.0210  174.2920  135.8730 C   0  0  2  0  0  3  0  0  0  0  0  0
  188.8410  175.0400  135.4920 C   0  0  0  0  0  2  0  0  0  0  0  0
  188.9740  176.5480  135.4250 C   0  0  0  0  0  2  0  0  0  0  0  0
  186.7820  177.2220  136.4050 C   0  0  1  0  0  0  0  0  0  0  0  0
  187.6230  177.2070  135.1810 C   0  0  1  0  0  3  0  0  0  0  0  0
  187.2740  176.6420  137.5870 O   0  0  0  0  0  1  0  0  0  0  0  0
  187.4990  178.3570  136.0010 O   0  0  0  0  0  0  0  0  0  0  0  0
  185.3850  177.3320  136.2370 O   0  0  0  0  0  0  0  0  0  0  0  0
  184.7600  176.5420  137.2290 C   0  0  2  0  0  3  0  0  0  0  0  0
  184.2530  174.2150  137.5910 O   0  0  0  0  0  1  0  0  0  0  0  0
  184.6740  175.1050  136.7970 C   0  0  0  0  0  0  0  0  0  0  0  0
  185.0790  174.7510  135.5170 O   0  0  0  0  0  0  0  0  0  0  0  0
  182.9500  178.1320  136.7770 O   0  0  0  0  0  1  0  0  0  0  0  0
  183.4000  177.1490  137.6660 C   0  0  2  0  0  3  0  0  0  0  0  0
  180.6790  181.2300  137.6110 N   0  0  0  0  0  0  0  0  0  0  0  0
  179.4360  180.8320  138.2510 C   0  0  0  0  0  2  0  0  0  0  0  0
  181.9010  179.7640  139.1190 C   0  0  1  0  0  0  0  0  0  0  0  0
  179.8450  176.7380  139.5600 O   0  0  0  0  0  0  0  0  0  0  0  0
  182.2020  176.9380  139.8810 C   0  0  0  0  0  2  0  0  0  0  0  0
  183.2470  179.1620  139.2360 C   0  0  2  0  0  0  0  0  0  0  0  0
  180.5210  182.6100  137.1830 C   0  0  0  0  0  1  0  0  0  0  0  0
  180.8600  177.4860  139.4920 C   0  0  0  0  0  0  0  0  0  0  0  0
  183.3480  177.6290  139.1280 C   0  0  2  0  0  3  0  0  0  0  0  0
  180.7210  178.8760  139.1190 N   0  0  0  0  0  0  0  0  0  0  0  0
  182.5750  179.6960  140.3570 O   0  0  0  0  0  0  0  0  0  0  0  0
  181.7100  181.2020  138.6400 C   0  0  0  0  0  2  0  0  0  0  0  0
  184.3340  179.9530  138.8590 O   0  0  0  0  0  1  0  0  0  0  0  0
  179.4500  179.3230  138.5390 C   0  0  0  0  0  2  0  0  0  0  0  0
  193.1760  176.4330  135.7880 O   0  0  0  0  0  0  0  0  0  0  0  0
  194.3110  176.6010  134.9810 C   0  0  0  0  0  1  0  0  0  0  0  0
  193.6180  175.0940  137.7820 C   0  0  1  0  0  3  0  0  0  0  0  0
  195.1210  174.9190  137.9310 C   0  0  0  0  0  2  0  0  0  0  0  0
  195.4100  173.7410  138.8460 C   0  0  0  0  0  2  0  0  0  0  0  0
  196.6940  173.1480  138.4940 N   0  0  0  0  0  2  0  0  0  0  0  0
  196.4000  171.6800  137.5740 P   0  0  1  0  0  0  0  0  0  0  0  0
  195.7700  171.0160  135.2540 C   0  0  0  0  0  2  0  0  0  0  0  0
  194.5300  170.1230  135.3870 C   0  0  0  0  0  2  0  0  0  0  0  0
  194.9630  169.6290  137.5600 C   0  0  0  0  0  2  0  0  0  0  0  0
  195.3470  170.6430  138.4450 O   0  0  0  0  0  0  0  0  0  0  0  0
  193.9790  170.1190  136.6870 O   0  0  0  0  0  0  0  0  0  0  0  0
  195.6820  172.1310  136.0920 O   0  0  0  0  0  0  0  0  0  0  0  0
  197.7260  170.9890  137.3260 O   0  0  0  0  0  0  0  0  0  0  0  0
  193.1760  176.3670  138.4980 C   0  0  0  0  0  2  0  0  0  0  0  0
  191.7300  176.3510  138.6520 N   0  0  0  0  0  2  0  0  0  0  0  0
  191.0660  176.9460  139.7590 C   0  0  0  0  0  0  0  0  0  0  0  0
  189.8170  176.8000  139.8630 O   0  0  0  0  0  0  0  0  0  0  0  0
  191.8280  177.6960  140.7810 C   0  0  0  0  0  3  0  0  0  0  0  0
  191.5860  177.7210  142.0980 C   0  0  0  0  0  3  0  0  0  0  0  0
  190.4880  176.9650  142.7670 C   0  0  0  0  0  2  0  0  0  0  0  0
  191.0760  175.9300  143.7150 C   0  0  0  0  0  2  0  0  0  0  0  0
  191.8310  176.5970  144.6880 O   0  0  0  0  0  0  0  0  0  0  0  0
  191.8500  177.1380  146.9490 O   0  0  0  0  0  1  0  0  0  0  0  0
  191.0860  176.6380  145.8890 C   0  0  1  0  0  3  0  0  0  0  0  0
  189.8970  177.3690  145.7410 O   0  0  0  0  0  0  0  0  0  0  0  0
  189.4190  177.0900  147.9600 O   0  0  0  0  0  1  0  0  0  0  0  0
  188.9990  176.8160  146.6550 C   0  0  1  0  0  3  0  0  0  0  0  0
  187.6230  177.4320  146.4370 C   0  0  1  0  0  3  0  0  0  0  0  0
  187.7480  178.6740  145.7840 O   0  0  0  0  0  0  0  0  0  0  0  0
  187.3530  177.5730  144.9950 C   0  0  2  0  0  3  0  0  0  0  0  0
  185.8580  177.6400  144.7630 C   0  0  0  0  0  2  0  0  0  0  0  0
  185.3810  179.0540  145.0150 C   0  0  0  0  0  2  0  0  0  0  0  0
  184.1170  179.2710  144.3270 N   0  0  0  0  0  1  0  0  0  0  0  0
  1 35  1  1  0  0  0
  1 37  1  0  0  0  0
  3  2  1  0  0  0  0
  3  5  1  0  0  0  0
  4  6  1  0  0  0  0
  4  2  1  0  0  0  0
  4  8  1  1  0  0  0
  5  7  1  0  0  0  0
  6  7  1  0  0  0  0
  7  1  1  6  0  0  0
  9  8  1  0  0  0  0
 10 12  1  1  0  0  0
 11  9  1  1  0  0  0
 11 13  1  0  0  0  0
 11 10  1  0  0  0  0
 13 10  1  0  0  0  0
 14 10  1  0  0  0  0
 15 14  1  6  0  0  0
 15 20  1  0  0  0  0
 17 15  1  0  0  0  0
 17 16  1  0  0  0  0
 18 17  2  0  0  0  0
 20 19  1  6  0  0  0
 21 22  1  0  0  0  0
 21 32  1  0  0  0  0
 22 34  1  0  0  0  0
 23 32  1  6  0  0  0
 23 26  1  0  0  0  0
 23 31  1  0  0  0  0
 26 33  1  6  0  0  0
 26 31  1  0  0  0  0
 27 21  1  0  0  0  0
 28 24  2  0  0  0  0
 28 25  1  0  0  0  0
 29 20  1  6  0  0  0
 29 26  1  0  0  0  0
 29 25  1  0  0  0  0
 30 23  1  0  0  0  0
 30 28  1  0  0  0  0
 34 30  1  0  0  0  0
 36 35  1  0  0  0  0
 37 38  1  6  0  0  0
 37 49  1  0  0  0  0
 38 39  1  0  0  0  0
 40 39  1  0  0  0  0
 41 48  2  6  0  0  0
 41 45  1  0  0  0  0
 41 40  1  0  0  0  0
 42 43  1  0  0  0  0
 42 47  1  0  0  0  0
 43 46  1  0  0  0  0
 44 45  1  0  0  0  0
 46 44  1  0  0  0  0
 47 41  1  0  0  0  0
 49 50  1  0  0  0  0
 50 51  1  0  0  0  0
 51 52  2  0  0  0  0
 51 53  1  0  0  0  0
 53 54  2  0  0  0  0
 54 55  1  0  0  0  0
 55 56  1  0  0  0  0
 56 57  1  0  0  0  0
 57 59  1  0  0  0  0
 59 58  1  1  0  0  0
 60 59  1  0  0  0  0
 60 62  1  0  0  0  0
 62 61  1  1  0  0  0
 63 62  1  6  0  0  0
 64 63  1  0  0  0  0
 65 66  1  1  0  0  0
 65 64  1  0  0  0  0
 65 63  1  0  0  0  0
 66 67  1  0  0  0  0
 68 67  1  0  0  0  0
M  END
>  <MODEL>
1

>  <REMARK>
 VINA RESULT:      -6.1      0.000      0.000
  Name = 
  27 active torsions:
  status: ('A' for Active; 'I' for Inactive)
    1  A    between atoms: C_1  and  C_48
    2  A    between atoms: P_2  and  N_22
    3  A    between atoms: O_3  and  C_5
    4  A    between atoms: O_3  and  C_62
    5  A    between atoms: C_4  and  C_9
    6  A    between atoms: C_4  and  N_31
    7  A    between atoms: O_8  and  C_66
    8  A    between atoms: C_9  and  C_33
    9  A    between atoms: C_9  and  C_66
   10  A    between atoms: C_10  and  C_49
   11  A    between atoms: C_12  and  C_42
   12  A    between atoms: C_13  and  C_34
   13  A    between atoms: C_17  and  C_34
   14  A    between atoms: N_22  and  C_51
   15  A    between atoms: C_24  and  C_39
   16  A    between atoms: C_28  and  C_44
   17  A    between atoms: C_28  and  C_62
   18  A    between atoms: C_29  and  O_52
   19  A    between atoms: C_29  and  O_56
   20  A    between atoms: C_32  and  C_67
   21  A    between atoms: C_33  and  C_51
   22  A    between atoms: C_37  and  C_62
   23  A    between atoms: C_39  and  C_53
   24  A    between atoms: C_47  and  C_66
   25  A    between atoms: C_48  and  O_52
   26  A    between atoms: C_49  and  C_67
   27  A    between atoms: C_53  and  O_56
                            x       y       z     vdW  Elec       q    Type
                         _______ _______ _______ _____ _____    ______ ____

>  <TORSDO>
F 27

$$$$
=
 OpenBabel10222420483D

 68 74  0  0  1  0  0  0  0  0999 V2000
  189.6070  177.7990  140.0940 C   0  0  1  0  0  3  0  0  0  0  0  0
  188.3990  177.6190  135.9490 C   0  0  0  0  0  2  0  0  0  0  0  0
  188.0100  178.8880  136.6950 C   0  0  0  0  0  2  0  0  0  0  0  0
  188.1250  176.3670  136.8040 C   0  0  2  0  0  3  0  0  0  0  0  0
  188.8870  179.0780  137.9430 C   0  0  0  0  0  2  0  0  0  0  0  0
  188.2240  176.6460  138.3080 C   0  0  0  0  0  2  0  0  0  0  0  0
  189.2570  177.7320  138.5960 C   0  0  2  0  0  3  0  0  0  0  0  0
  189.1050  175.2650  136.4270 C   0  0  0  0  0  2  0  0  0  0  0  0
  188.5600  173.8850  136.7360 C   0  0  0  0  0  2  0  0  0  0  0  0
  186.7980  172.8060  135.3380 C   0  0  1  0  0  0  0  0  0  0  0  0
  187.0740  173.7980  136.4080 C   0  0  1  0  0  3  0  0  0  0  0  0
  187.8680  172.1070  134.7530 O   0  0  0  0  0  1  0  0  0  0  0  0
  186.6010  172.4920  136.6910 O   0  0  0  0  0  0  0  0  0  0  0  0
  185.6040  172.9560  134.6010 O   0  0  0  0  0  0  0  0  0  0  0  0
  184.5200  172.6610  135.4580 C   0  0  2  0  0  3  0  0  0  0  0  0
  184.5260  170.2650  135.2200 O   0  0  0  0  0  1  0  0  0  0  0  0
  183.8870  171.3480  135.0930 C   0  0  0  0  0  0  0  0  0  0  0  0
  182.5910  171.3300  134.5950 O   0  0  0  0  0  0  0  0  0  0  0  0
  183.9100  174.9210  134.7300 O   0  0  0  0  0  1  0  0  0  0  0  0
  183.5170  173.8440  135.5330 C   0  0  2  0  0  3  0  0  0  0  0  0
  181.1010  178.0800  134.9990 N   0  0  0  0  0  0  0  0  0  0  0  0
  179.7250  177.7420  135.3220 C   0  0  0  0  0  2  0  0  0  0  0  0
  181.8620  176.5100  136.6940 C   0  0  1  0  0  0  0  0  0  0  0  0
  179.6030  173.6020  136.5430 O   0  0  0  0  0  0  0  0  0  0  0  0
  181.8290  173.6540  137.4030 C   0  0  0  0  0  2  0  0  0  0  0  0
  183.1110  175.8270  137.0960 C   0  0  2  0  0  0  0  0  0  0  0  0
  181.1190  179.4760  134.5960 C   0  0  0  0  0  1  0  0  0  0  0  0
  180.6440  174.2900  136.7370 C   0  0  0  0  0  0  0  0  0  0  0  0
  183.1530  174.2930  136.9590 C   0  0  2  0  0  3  0  0  0  0  0  0
  180.6690  175.6940  136.3910 N   0  0  0  0  0  0  0  0  0  0  0  0
  182.2260  176.3740  138.0510 O   0  0  0  0  0  0  0  0  0  0  0  0
  181.8630  177.9670  136.2360 C   0  0  0  0  0  2  0  0  0  0  0  0
  184.2960  176.5590  137.0070 O   0  0  0  0  0  1  0  0  0  0  0  0
  179.5920  176.2290  135.5510 C   0  0  0  0  0  2  0  0  0  0  0  0
  188.4420  177.8190  140.8880 O   0  0  0  0  0  0  0  0  0  0  0  0
  188.3120  179.1430  141.3330 C   0  0  0  0  0  1  0  0  0  0  0  0
  190.6200  176.7530  140.6020 C   0  0  1  0  0  3  0  0  0  0  0  0
  192.0160  177.3570  140.5800 C   0  0  0  0  0  2  0  0  0  0  0  0
  192.6750  177.0700  139.2410 C   0  0  0  0  0  2  0  0  0  0  0  0
  192.5600  175.6510  138.9300 N   0  0  0  0  0  2  0  0  0  0  0  0
  193.4900  175.3180  137.4780 P   0  0  1  0  0  0  0  0  0  0  0  0
  195.3230  173.7980  136.7320 C   0  0  0  0  0  2  0  0  0  0  0  0
  196.4200  174.7020  136.1580 C   0  0  0  0  0  2  0  0  0  0  0  0
  194.9910  176.4310  135.8100 C   0  0  0  0  0  2  0  0  0  0  0  0
  194.0660  176.7840  136.8000 O   0  0  0  0  0  0  0  0  0  0  0  0
  196.2070  176.0750  136.4140 O   0  0  0  0  0  0  0  0  0  0  0  0
  194.8050  174.3230  137.9200 O   0  0  0  0  0  0  0  0  0  0  0  0
  192.5980  174.5980  136.4850 O   0  0  0  0  0  0  0  0  0  0  0  0
  190.2920  176.2720  142.0120 C   0  0  0  0  0  2  0  0  0  0  0  0
  190.6960  177.2900  142.9700 N   0  0  0  0  0  2  0  0  0  0  0  0
  189.9230  177.6200  144.1160 C   0  0  0  0  0  0  0  0  0  0  0  0
  190.2990  178.5810  144.8410 O   0  0  0  0  0  0  0  0  0  0  0  0
  188.6900  176.8680  144.4360 C   0  0  0  0  0  3  0  0  0  0  0  0
  187.4450  177.3590  144.4830 C   0  0  0  0  0  3  0  0  0  0  0  0
  187.0900  178.7800  144.2000 C   0  0  0  0  0  2  0  0  0  0  0  0
  185.7240  179.0990  144.7910 C   0  0  0  0  0  2  0  0  0  0  0  0
  184.9350  177.9420  144.7370 O   0  0  0  0  0  0  0  0  0  0  0  0
  183.1020  179.2440  145.3290 O   0  0  0  0  0  1  0  0  0  0  0  0
  183.6100  178.3150  144.4140 C   0  0  1  0  0  3  0  0  0  0  0  0
  183.5100  178.8000  143.1010 O   0  0  0  0  0  0  0  0  0  0  0  0
  181.6730  180.1630  143.0930 O   0  0  0  0  0  1  0  0  0  0  0  0
  182.1420  178.8730  142.8310 C   0  0  1  0  0  3  0  0  0  0  0  0
  181.9070  178.5490  141.3610 C   0  0  1  0  0  3  0  0  0  0  0  0
  180.6850  177.8620  141.2080 O   0  0  0  0  0  0  0  0  0  0  0  0
  180.6930  179.2340  140.8780 C   0  0  2  0  0  3  0  0  0  0  0  0
  180.7600  179.3830  139.3730 C   0  0  0  0  0  2  0  0  0  0  0  0
  180.1790  180.7260  138.9830 C   0  0  0  0  0  2  0  0  0  0  0  0
  181.2590  181.6690  138.7340 N   0  0  0  0  0  1  0  0  0  0  0  0
  1 37  1  0  0  0  0
  1 35  1  1  0  0  0
  2  3  1  0  0  0  0
  2  4  1  0  0  0  0
  3  5  1  0  0  0  0
  4  8  1  6  0  0  0
  4  6  1  0  0  0  0
  5  7  1  0  0  0  0
  6  7  1  0  0  0  0
  7  1  1  1  0  0  0
  8  9  1  0  0  0  0
 10 12  1  6  0  0  0
 10 11  1  0  0  0  0
 10 13  1  0  0  0  0
 11 13  1  0  0  0  0
 11  9  1  1  0  0  0
 14 10  1  0  0  0  0
 15 14  1  6  0  0  0
 15 20  1  0  0  0  0
 17 16  1  0  0  0  0
 17 15  1  0  0  0  0
 18 17  2  0  0  0  0
 20 19  1  6  0  0  0
 21 22  1  0  0  0  0
 21 32  1  0  0  0  0
 22 34  1  0  0  0  0
 23 32  1  6  0  0  0
 23 26  1  0  0  0  0
 23 31  1  0  0  0  0
 24 28  2  0  0  0  0
 26 33  1  6  0  0  0
 26 31  1  0  0  0  0
 27 21  1  0  0  0  0
 28 25  1  0  0  0  0
 29 20  1  6  0  0  0
 29 26  1  0  0  0  0
 29 25  1  0  0  0  0
 30 23  1  0  0  0  0
 30 28  1  0  0  0  0
 34 30  1  0  0  0  0
 35 36  1  0  0  0  0
 37 38  1  1  0  0  0
 37 49  1  0  0  0  0
 39 38  1  0  0  0  0
 40 39  1  0  0  0  0
 41 48  2  6  0  0  0
 41 47  1  0  0  0  0
 41 40  1  0  0  0  0
 42 47  1  0  0  0  0
 43 46  1  0  0  0  0
 43 42  1  0  0  0  0
 44 46  1  0  0  0  0
 44 45  1  0  0  0  0
 45 41  1  0  0  0  0
 49 50  1  0  0  0  0
 50 51  1  0  0  0  0
 51 53  1  0  0  0  0
 51 52  2  0  0  0  0
 53 54  2  0  0  0  0
 55 54  1  0  0  0  0
 55 56  1  0  0  0  0
 57 56  1  0  0  0  0
 59 57  1  0  0  0  0
 59 58  1  1  0  0  0
 60 59  1  0  0  0  0
 62 61  1  6  0  0  0
 62 60  1  0  0  0  0
 63 62  1  1  0  0  0
 64 63  1  0  0  0  0
 65 66  1  6  0  0  0
 65 64  1  0  0  0  0
 65 63  1  0  0  0  0
 67 66  1  0  0  0  0
 68 67  1  0  0  0  0
M  END
>  <MODEL>
2

>  <REMARK>
 VINA RESULT:      -5.6      2.692      5.599
  Name = 
  27 active torsions:
  status: ('A' for Active; 'I' for Inactive)
    1  A    between atoms: C_1  and  C_48
    2  A    between atoms: P_2  and  N_22
    3  A    between atoms: O_3  and  C_5
    4  A    between atoms: O_3  and  C_62
    5  A    between atoms: C_4  and  C_9
    6  A    between atoms: C_4  and  N_31
    7  A    between atoms: O_8  and  C_66
    8  A    between atoms: C_9  and  C_33
    9  A    between atoms: C_9  and  C_66
   10  A    between atoms: C_10  and  C_49
   11  A    between atoms: C_12  and  C_42
   12  A    between atoms: C_13  and  C_34
   13  A    between atoms: C_17  and  C_34
   14  A    between atoms: N_22  and  C_51
   15  A    between atoms: C_24  and  C_39
   16  A    between atoms: C_28  and  C_44
   17  A    between atoms: C_28  and  C_62
   18  A    between atoms: C_29  and  O_52
   19  A    between atoms: C_29  and  O_56
   20  A    between atoms: C_32  and  C_67
   21  A    between atoms: C_33  and  C_51
   22  A    between atoms: C_37  and  C_62
   23  A    between atoms: C_39  and  C_53
   24  A    between atoms: C_47  and  C_66
   25  A    between atoms: C_48  and  O_52
   26  A    between atoms: C_49  and  C_67
   27  A    between atoms: C_53  and  O_56
                            x       y       z     vdW  Elec       q    Type
                         _______ _______ _______ _____ _____    ______ ____

>  <TORSDO>
F 27

$$$$
=
 OpenBabel10222420483D

 68 74  0  0  1  0  0  0  0  0999 V2000
  189.5570  177.4560  137.2200 C   0  0  1  0  0  3  0  0  0  0  0  0
  186.0400  176.2220  135.0350 C   0  0  0  0  0  2  0  0  0  0  0  0
  186.6210  177.5730  134.6420 C   0  0  0  0  0  2  0  0  0  0  0  0
  185.9930  176.0620  136.5670 C   0  0  2  0  0  3  0  0  0  0  0  0
  188.0880  177.6850  135.0820 C   0  0  0  0  0  2  0  0  0  0  0  0
  187.0920  176.8610  137.2770 C   0  0  0  0  0  2  0  0  0  0  0  0
  188.3480  176.9520  136.4120 C   0  0  2  0  0  3  0  0  0  0  0  0
  186.1180  174.5900  136.9320 C   0  0  0  0  0  2  0  0  0  0  0  0
  185.1790  173.7190  136.1230 C   0  0  0  0  0  2  0  0  0  0  0  0
  183.2810  172.1370  136.4650 C   0  0  1  0  0  0  0  0  0  0  0  0
  184.5950  172.6020  136.9780 C   0  0  1  0  0  3  0  0  0  0  0  0
  182.7300  172.7500  135.3270 O   0  0  0  0  0  1  0  0  0  0  0  0
  184.4610  171.4260  136.1980 O   0  0  0  0  0  0  0  0  0  0  0  0
  182.4140  171.4950  137.3740 O   0  0  0  0  0  0  0  0  0  0  0  0
  181.3020  172.3410  137.5910 C   0  0  2  0  0  3  0  0  0  0  0  0
  178.9450  172.3120  137.1010 O   0  0  0  0  0  1  0  0  0  0  0  0
  180.0920  171.8370  136.8580 C   0  0  0  0  0  0  0  0  0  0  0  0
  180.2340  170.8260  135.9180 O   0  0  0  0  0  0  0  0  0  0  0  0
  182.3610  174.4250  138.3310 O   0  0  0  0  0  1  0  0  0  0  0  0
  181.6490  173.8240  137.2860 C   0  0  2  0  0  3  0  0  0  0  0  0
  181.9600  177.9710  139.8870 N   0  0  0  0  0  0  0  0  0  0  0  0
  182.3720  178.9670  138.9110 C   0  0  0  0  0  2  0  0  0  0  0  0
  180.6190  176.8800  138.1760 C   0  0  1  0  0  0  0  0  0  0  0  0
  182.5400  177.0700  135.0360 O   0  0  0  0  0  0  0  0  0  0  0  0
  180.8270  175.5010  135.5850 C   0  0  0  0  0  2  0  0  0  0  0  0
  179.9270  175.5910  137.9590 C   0  0  2  0  0  0  0  0  0  0  0  0
  181.9060  178.6310  141.1810 C   0  0  0  0  0  1  0  0  0  0  0  0
  181.7320  176.6530  135.9120 C   0  0  0  0  0  0  0  0  0  0  0  0
  180.4570  174.6850  136.8320 C   0  0  2  0  0  3  0  0  0  0  0  0
  181.6230  177.3250  137.1880 N   0  0  0  0  0  0  0  0  0  0  0  0
  179.3370  176.8190  137.5890 O   0  0  0  0  0  0  0  0  0  0  0  0
  180.6030  177.5750  139.5360 C   0  0  0  0  0  2  0  0  0  0  0  0
  179.2870  175.0190  139.0600 O   0  0  0  0  0  1  0  0  0  0  0  0
  182.6580  178.2960  137.5590 C   0  0  0  0  0  2  0  0  0  0  0  0
  189.1510  178.3180  138.2590 O   0  0  0  0  0  0  0  0  0  0  0  0
  189.0580  179.5910  137.6780 C   0  0  0  0  0  1  0  0  0  0  0  0
  190.5320  176.3740  137.7290 C   0  0  1  0  0  3  0  0  0  0  0  0
  191.6160  176.1480  136.6880 C   0  0  0  0  0  2  0  0  0  0  0  0
  192.8690  175.6150  137.3640 C   0  0  0  0  0  2  0  0  0  0  0  0
  193.6860  174.9000  136.3900 N   0  0  0  0  0  2  0  0  0  0  0  0
  195.0420  174.1630  137.2300 P   0  0  1  0  0  0  0  0  0  0  0  0
  196.3500  174.4920  139.3280 C   0  0  0  0  0  2  0  0  0  0  0  0
  197.8200  174.6020  138.9020 C   0  0  0  0  0  2  0  0  0  0  0  0
  197.4530  173.5650  136.9160 C   0  0  0  0  0  2  0  0  0  0  0  0
  196.3420  173.9130  136.1400 O   0  0  0  0  0  0  0  0  0  0  0  0
  197.9910  174.7200  137.5050 O   0  0  0  0  0  0  0  0  0  0  0  0
  195.5210  175.2270  138.4760 O   0  0  0  0  0  0  0  0  0  0  0  0
  194.5890  172.8400  137.8160 O   0  0  0  0  0  0  0  0  0  0  0  0
  191.1710  176.7580  139.0610 C   0  0  0  0  0  2  0  0  0  0  0  0
  190.4270  176.1350  140.1450 N   0  0  0  0  0  2  0  0  0  0  0  0
  190.6880  176.4070  141.5150 C   0  0  0  0  0  0  0  0  0  0  0  0
  190.0610  175.7500  142.3910 O   0  0  0  0  0  0  0  0  0  0  0  0
  191.6930  177.4200  141.9050 C   0  0  0  0  0  3  0  0  0  0  0  0
  191.5640  178.3440  142.8660 C   0  0  0  0  0  3  0  0  0  0  0  0
  190.3580  178.4960  143.7310 C   0  0  0  0  0  2  0  0  0  0  0  0
  190.4780  177.5880  144.9470 C   0  0  0  0  0  2  0  0  0  0  0  0
  190.0350  178.2930  146.0730 O   0  0  0  0  0  0  0  0  0  0  0  0
  189.4250  176.6390  147.5890 O   0  0  0  0  0  1  0  0  0  0  0  0
  188.9640  177.5790  146.6600 C   0  0  1  0  0  3  0  0  0  0  0  0
  188.0220  178.4390  147.2440 O   0  0  0  0  0  0  0  0  0  0  0  0
  186.9440  177.6100  149.0840 O   0  0  0  0  0  1  0  0  0  0  0  0
  186.9850  177.6150  147.6870 C   0  0  1  0  0  3  0  0  0  0  0  0
  185.6620  178.1480  147.1530 C   0  0  1  0  0  3  0  0  0  0  0  0
  185.6360  179.5540  147.2460 O   0  0  0  0  0  0  0  0  0  0  0  0
  185.8970  179.0030  145.9740 C   0  0  2  0  0  3  0  0  0  0  0  0
  184.6390  179.0690  145.1360 C   0  0  0  0  0  2  0  0  0  0  0  0
  185.0220  179.2540  143.6830 C   0  0  0  0  0  2  0  0  0  0  0  0
  185.1600  177.9530  143.0460 N   0  0  0  0  0  1  0  0  0  0  0  0
  1 37  1  0  0  0  0
  1 35  1  1  0  0  0
  2  4  1  0  0  0  0
  3  2  1  0  0  0  0
  3  5  1  0  0  0  0
  4  8  1  6  0  0  0
  4  6  1  0  0  0  0
  5  7  1  0  0  0  0
  7  1  1  1  0  0  0
  7  6  1  0  0  0  0
  9  8  1  0  0  0  0
 10 12  1  6  0  0  0
 10 11  1  0  0  0  0
 10 14  1  0  0  0  0
 11  9  1  6  0  0  0
 13 10  1  0  0  0  0
 13 11  1  0  0  0  0
 14 15  1  0  0  0  0
 15 17  1  6  0  0  0
 17 16  1  0  0  0  0
 18 17  2  0  0  0  0
 20 15  1  0  0  0  0
 20 19  1  1  0  0  0
 21 27  1  0  0  0  0
 22 21  1  0  0  0  0
 23 32  1  1  0  0  0
 24 28  2  0  0  0  0
 25 28  1  0  0  0  0
 25 29  1  0  0  0  0
 26 23  1  0  0  0  0
 26 33  1  1  0  0  0
 28 30  1  0  0  0  0
 29 20  1  1  0  0  0
 29 26  1  0  0  0  0
 30 34  1  0  0  0  0
 30 23  1  0  0  0  0
 31 26  1  0  0  0  0
 31 23  1  0  0  0  0
 32 21  1  0  0  0  0
 34 22  1  0  0  0  0
 36 35  1  0  0  0  0
 37 38  1  6  0  0  0
 37 49  1  0  0  0  0
 38 39  1  0  0  0  0
 40 41  1  0  0  0  0
 40 39  1  0  0  0  0
 41 48  2  1  0  0  0
 41 47  1  0  0  0  0
 43 42  1  0  0  0  0
 44 46  1  0  0  0  0
 45 44  1  0  0  0  0
 45 41  1  0  0  0  0
 46 43  1  0  0  0  0
 47 42  1  0  0  0  0
 49 50  1  0  0  0  0
 50 51  1  0  0  0  0
 51 53  1  0  0  0  0
 51 52  2  0  0  0  0
 53 54  2  0  0  0  0
 54 55  1  0  0  0  0
 55 56  1  0  0  0  0
 56 57  1  0  0  0  0
 57 59  1  0  0  0  0
 59 60  1  0  0  0  0
 59 58  1  1  0  0  0
 60 62  1  0  0  0  0
 62 61  1  1  0  0  0
 63 64  1  0  0  0  0
 63 62  1  1  0  0  0
 65 66  1  6  0  0  0
 65 63  1  0  0  0  0
 65 64  1  0  0  0  0
 67 66  1  0  0  0  0
 68 67  1  0  0  0  0
M  END
>  <MODEL>
3

>  <REMARK>
 VINA RESULT:      -5.4      2.570      4.412
  Name = 
  27 active torsions:
  status: ('A' for Active; 'I' for Inactive)
    1  A    between atoms: C_1  and  C_48
    2  A    between atoms: P_2  and  N_22
    3  A    between atoms: O_3  and  C_5
    4  A    between atoms: O_3  and  C_62
    5  A    between atoms: C_4  and  C_9
    6  A    between atoms: C_4  and  N_31
    7  A    between atoms: O_8  and  C_66
    8  A    between atoms: C_9  and  C_33
    9  A    between atoms: C_9  and  C_66
   10  A    between atoms: C_10  and  C_49
   11  A    between atoms: C_12  and  C_42
   12  A    between atoms: C_13  and  C_34
   13  A    between atoms: C_17  and  C_34
   14  A    between atoms: N_22  and  C_51
   15  A    between atoms: C_24  and  C_39
   16  A    between atoms: C_28  and  C_44
   17  A    between atoms: C_28  and  C_62
   18  A    between atoms: C_29  and  O_52
   19  A    between atoms: C_29  and  O_56
   20  A    between atoms: C_32  and  C_67
   21  A    between atoms: C_33  and  C_51
   22  A    between atoms: C_37  and  C_62
   23  A    between atoms: C_39  and  C_53
   24  A    between atoms: C_47  and  C_66
   25  A    between atoms: C_48  and  O_52
   26  A    between atoms: C_49  and  C_67
   27  A    between atoms: C_53  and  O_56
                            x       y       z     vdW  Elec       q    Type
                         _______ _______ _______ _____ _____    ______ ____

>  <TORSDO>
F 27

$$$$
=
 OpenBabel10222420483D

 68 74  0  0  1  0  0  0  0  0999 V2000
  186.6330  177.7000  144.3030 C   0  0  1  0  0  3  0  0  0  0  0  0
  190.8130  177.3530  143.2640 C   0  0  0  0  0  2  0  0  0  0  0  0
  190.5070  178.2010  144.4910 C   0  0  0  0  0  2  0  0  0  0  0  0
  189.8390  177.6710  142.1130 C   0  0  2  0  0  3  0  0  0  0  0  0
  189.1210  177.8570  145.0590 C   0  0  0  0  0  2  0  0  0  0  0  0
  188.4710  178.1490  142.6130 C   0  0  0  0  0  2  0  0  0  0  0  0
  188.1170  177.4950  143.9460 C   0  0  2  0  0  3  0  0  0  0  0  0
  189.6580  176.4370  141.2400 C   0  0  0  0  0  2  0  0  0  0  0  0
  190.6480  176.3990  140.0940 C   0  0  0  0  0  2  0  0  0  0  0  0
  189.7040  176.8120  137.8220 C   0  0  1  0  0  0  0  0  0  0  0  0
  190.2990  177.4340  139.0330 C   0  0  1  0  0  3  0  0  0  0  0  0
  189.5530  175.4160  137.7690 O   0  0  0  0  0  1  0  0  0  0  0  0
  188.9010  177.4220  138.7970 O   0  0  0  0  0  0  0  0  0  0  0  0
  189.7870  177.5310  136.6110 O   0  0  0  0  0  0  0  0  0  0  0  0
  190.3150  176.6670  135.6240 C   0  0  2  0  0  3  0  0  0  0  0  0
  189.4920  174.4940  134.9900 O   0  0  0  0  0  1  0  0  0  0  0  0
  189.2590  175.7320  135.1060 C   0  0  0  0  0  0  0  0  0  0  0  0
  188.0210  176.2390  134.7360 O   0  0  0  0  0  0  0  0  0  0  0  0
  192.2440  176.6690  137.1370 O   0  0  0  0  0  1  0  0  0  0  0  0
  191.5980  175.9500  136.1250 C   0  0  2  0  0  3  0  0  0  0  0  0
  195.6170  174.3610  138.4460 N   0  0  0  0  0  0  0  0  0  0  0  0
  195.5880  172.9210  138.2510 C   0  0  0  0  0  2  0  0  0  0  0  0
  194.6840  174.6610  136.2200 C   0  0  1  0  0  0  0  0  0  0  0  0
  192.2160  171.9680  135.7290 O   0  0  0  0  0  0  0  0  0  0  0  0
  192.3030  174.0670  134.5960 C   0  0  0  0  0  2  0  0  0  0  0  0
  194.0450  175.7250  135.4160 C   0  0  2  0  0  0  0  0  0  0  0  0
  196.7600  174.6600  139.2930 C   0  0  0  0  0  1  0  0  0  0  0  0
  192.7950  173.0840  135.6180 C   0  0  0  0  0  0  0  0  0  0  0  0
  192.5720  175.5190  135.0140 C   0  0  2  0  0  3  0  0  0  0  0  0
  193.9660  173.3850  136.4130 N   0  0  0  0  0  0  0  0  0  0  0  0
  195.0030  174.8510  134.8590 O   0  0  0  0  0  0  0  0  0  0  0  0
  195.8660  174.9580  137.1410 C   0  0  0  0  0  2  0  0  0  0  0  0
  194.5460  177.0200  135.5590 O   0  0  0  0  0  1  0  0  0  0  0  0
  194.2880  172.5090  137.5440 C   0  0  0  0  0  2  0  0  0  0  0  0
  186.4820  178.6860  145.3000 O   0  0  0  0  0  0  0  0  0  0  0  0
  186.2950  177.9820  146.4990 C   0  0  0  0  0  1  0  0  0  0  0  0
  185.6780  177.9440  143.1170 C   0  0  1  0  0  3  0  0  0  0  0  0
  184.6940  179.0430  143.4850 C   0  0  0  0  0  2  0  0  0  0  0  0
  183.3210  178.7060  142.9280 C   0  0  0  0  0  2  0  0  0  0  0  0
  182.3190  178.8350  143.9790 N   0  0  0  0  0  2  0  0  0  0  0  0
  180.7270  178.8600  143.2360 P   0  0  1  0  0  0  0  0  0  0  0  0
  179.5700  177.8900  141.2510 C   0  0  0  0  0  2  0  0  0  0  0  0
  178.9690  179.0750  140.4850 C   0  0  0  0  0  2  0  0  0  0  0  0
  179.0230  180.4380  142.3000 C   0  0  0  0  0  2  0  0  0  0  0  0
  180.1610  180.4740  143.1140 O   0  0  0  0  0  0  0  0  0  0  0  0
  179.4140  180.3300  140.9560 O   0  0  0  0  0  0  0  0  0  0  0  0
  180.8690  178.1720  141.6800 O   0  0  0  0  0  0  0  0  0  0  0  0
  179.7810  178.0370  144.0890 O   0  0  0  0  0  0  0  0  0  0  0  0
  186.4280  178.3310  141.8450 C   0  0  0  0  0  2  0  0  0  0  0  0
  185.6240  179.2770  141.0860 N   0  0  0  0  0  2  0  0  0  0  0  0
  185.2590  179.0650  139.7290 C   0  0  0  0  0  0  0  0  0  0  0  0
  184.6440  179.9820  139.1200 O   0  0  0  0  0  0  0  0  0  0  0  0
  185.6180  177.8070  139.0400 C   0  0  0  0  0  3  0  0  0  0  0  0
  185.1310  177.3700  137.8720 C   0  0  0  0  0  3  0  0  0  0  0  0
  184.1290  178.1080  137.0480 C   0  0  0  0  0  2  0  0  0  0  0  0
  183.7010  177.2510  135.8660 C   0  0  0  0  0  2  0  0  0  0  0  0
  182.3240  177.4170  135.6720 O   0  0  0  0  0  0  0  0  0  0  0  0
  180.9120  178.5670  137.1170 O   0  0  0  0  0  1  0  0  0  0  0  0
  181.6870  177.4170  136.9350 C   0  0  1  0  0  3  0  0  0  0  0  0
  180.9190  176.2590  137.1330 O   0  0  0  0  0  0  0  0  0  0  0  0
  181.5520  175.7200  139.2640 O   0  0  0  0  0  1  0  0  0  0  0  0
  181.7110  175.4120  137.9100 C   0  0  1  0  0  3  0  0  0  0  0  0
  181.2760  173.9700  137.6750 C   0  0  1  0  0  3  0  0  0  0  0  0
  181.0450  173.7530  136.3020 O   0  0  0  0  0  0  0  0  0  0  0  0
  182.2630  173.2740  136.8290 C   0  0  2  0  0  3  0  0  0  0  0  0
  182.1550  171.7800  137.0490 C   0  0  0  0  0  2  0  0  0  0  0  0
  182.2990  171.0730  135.7180 C   0  0  0  0  0  2  0  0  0  0  0  0
  180.9790  170.7840  135.1760 N   0  0  0  0  0  1  0  0  0  0  0  0
  1 35  1  1  0  0  0
  2  3  1  0  0  0  0
  3  5  1  0  0  0  0
  4  8  1  1  0  0  0
  4  6  1  0  0  0  0
  4  2  1  0  0  0  0
  6  7  1  0  0  0  0
  7  1  1  1  0  0  0
  7  5  1  0  0  0  0
  9  8  1  0  0  0  0
 10 12  1  6  0  0  0
 10 13  1  0  0  0  0
 10 11  1  0  0  0  0
 11  9  1  1  0  0  0
 13 11  1  0  0  0  0
 14 10  1  0  0  0  0
 15 17  1  1  0  0  0
 15 20  1  0  0  0  0
 15 14  1  0  0  0  0
 16 17  1  0  0  0  0
 18 17  2  0  0  0  0
 20 19  1  1  0  0  0
 21 27  1  0  0  0  0
 22 21  1  0  0  0  0
 23 30  1  0  0  0  0
 23 32  1  1  0  0  0
 25 29  1  0  0  0  0
 25 28  1  0  0  0  0
 26 33  1  1  0  0  0
 26 23  1  0  0  0  0
 28 24  2  0  0  0  0
 28 30  1  0  0  0  0
 29 26  1  0  0  0  0
 29 20  1  1  0  0  0
 30 34  1  0  0  0  0
 31 26  1  0  0  0  0
 31 23  1  0  0  0  0
 32 21  1  0  0  0  0
 34 22  1  0  0  0  0
 35 36  1  0  0  0  0
 37 49  1  6  0  0  0
 37 38  1  0  0  0  0
 37  1  1  0  0  0  0
 39 38  1  0  0  0  0
 39 40  1  0  0  0  0
 41 40  1  0  0  0  0
 41 48  2  1  0  0  0
 42 47  1  0  0  0  0
 43 46  1  0  0  0  0
 43 42  1  0  0  0  0
 44 45  1  0  0  0  0
 45 41  1  0  0  0  0
 46 44  1  0  0  0  0
 47 41  1  0  0  0  0
 50 49  1  0  0  0  0
 51 50  1  0  0  0  0
 52 51  2  0  0  0  0
 53 51  1  0  0  0  0
 54 53  2  0  0  0  0
 55 54  1  0  0  0  0
 56 55  1  0  0  0  0
 57 56  1  0  0  0  0
 57 59  1  0  0  0  0
 59 58  1  6  0  0  0
 59 60  1  0  0  0  0
 60 62  1  0  0  0  0
 62 61  1  1  0  0  0
 63 62  1  6  0  0  0
 64 65  1  0  0  0  0
 64 63  1  0  0  0  0
 65 66  1  1  0  0  0
 65 63  1  0  0  0  0
 67 66  1  0  0  0  0
 68 67  1  0  0  0  0
M  END
>  <MODEL>
4

>  <REMARK>
 VINA RESULT:      -4.8      3.517     12.239
  Name = 
  27 active torsions:
  status: ('A' for Active; 'I' for Inactive)
    1  A    between atoms: C_1  and  C_48
    2  A    between atoms: P_2  and  N_22
    3  A    between atoms: O_3  and  C_5
    4  A    between atoms: O_3  and  C_62
    5  A    between atoms: C_4  and  C_9
    6  A    between atoms: C_4  and  N_31
    7  A    between atoms: O_8  and  C_66
    8  A    between atoms: C_9  and  C_33
    9  A    between atoms: C_9  and  C_66
   10  A    between atoms: C_10  and  C_49
   11  A    between atoms: C_12  and  C_42
   12  A    between atoms: C_13  and  C_34
   13  A    between atoms: C_17  and  C_34
   14  A    between atoms: N_22  and  C_51
   15  A    between atoms: C_24  and  C_39
   16  A    between atoms: C_28  and  C_44
   17  A    between atoms: C_28  and  C_62
   18  A    between atoms: C_29  and  O_52
   19  A    between atoms: C_29  and  O_56
   20  A    between atoms: C_32  and  C_67
   21  A    between atoms: C_33  and  C_51
   22  A    between atoms: C_37  and  C_62
   23  A    between atoms: C_39  and  C_53
   24  A    between atoms: C_47  and  C_66
   25  A    between atoms: C_48  and  O_52
   26  A    between atoms: C_49  and  C_67
   27  A    between atoms: C_53  and  O_56
                            x       y       z     vdW  Elec       q    Type
                         _______ _______ _______ _____ _____    ______ ____

>  <TORSDO>
F 27

$$$$
=
 OpenBabel10222420483D

 68 74  0  0  1  0  0  0  0  0999 V2000
  190.1840  178.6230  143.3020 C   0  0  1  0  0  3  0  0  0  0  0  0
  186.3640  177.4990  144.9810 C   0  0  0  0  0  2  0  0  0  0  0  0
  187.5840  177.1390  145.8170 C   0  0  0  0  0  2  0  0  0  0  0  0
  186.5910  177.1630  143.4940 C   0  0  2  0  0  3  0  0  0  0  0  0
  188.7940  177.9950  145.4130 C   0  0  0  0  0  2  0  0  0  0  0  0
  188.0680  177.2390  143.0910 C   0  0  0  0  0  2  0  0  0  0  0  0
  188.8030  178.3030  143.9030 C   0  0  2  0  0  3  0  0  0  0  0  0
  185.7790  178.1120  142.6250 C   0  0  0  0  0  2  0  0  0  0  0  0
  184.8350  178.9690  143.4430 C   0  0  0  0  0  2  0  0  0  0  0  0
  182.3460  178.8280  143.5560 C   0  0  1  0  0  0  0  0  0  0  0  0
  183.5150  179.1830  142.7110 C   0  0  1  0  0  3  0  0  0  0  0  0
  182.5590  178.3370  144.8550 O   0  0  0  0  0  1  0  0  0  0  0  0
  182.7480  180.1620  143.3910 O   0  0  0  0  0  0  0  0  0  0  0  0
  181.1410  178.5030  142.8980 O   0  0  0  0  0  0  0  0  0  0  0  0
  180.8060  179.5760  142.0410 C   0  0  2  0  0  3  0  0  0  0  0  0
  179.0550  181.2180  141.8430 O   0  0  0  0  0  0  0  0  0  0  0  0
  179.5700  180.2830  142.5220 C   0  0  0  0  0  0  0  0  0  0  0  0
  179.0010  179.9150  143.7330 O   0  0  0  0  0  1  0  0  0  0  0  0
  180.1690  177.8440  140.4270 O   0  0  0  0  0  1  0  0  0  0  0  0
  180.7330  179.1180  140.5590 C   0  0  2  0  0  3  0  0  0  0  0  0
  180.5510  175.6480  137.0980 N   0  0  0  0  0  0  0  0  0  0  0  0
  180.3620  176.3930  135.8640 C   0  0  0  0  0  2  0  0  0  0  0  0
  181.9630  177.4400  137.9390 C   0  0  1  0  0  0  0  0  0  0  0  0
  180.4550  180.6060  136.8030 O   0  0  0  0  0  0  0  0  0  0  0  0
  181.9190  180.2930  138.6620 C   0  0  0  0  0  2  0  0  0  0  0  0
  182.5380  177.8930  139.2250 C   0  0  2  0  0  0  0  0  0  0  0  0
  180.5210  174.2350  136.7580 C   0  0  0  0  0  1  0  0  0  0  0  0
  181.1070  179.7840  137.5070 C   0  0  0  0  0  0  0  0  0  0  0  0
  182.0530  179.2460  139.7780 C   0  0  2  0  0  3  0  0  0  0  0  0
  181.1340  178.3810  137.1590 N   0  0  0  0  0  0  0  0  0  0  0  0
  183.2920  177.9070  138.0310 O   0  0  0  0  0  0  0  0  0  0  0  0
  181.8920  175.9590  137.5760 C   0  0  0  0  0  2  0  0  0  0  0  0
  182.9820  176.9070  140.1070 O   0  0  0  0  0  1  0  0  0  0  0  0
  180.1690  177.8850  136.1710 C   0  0  0  0  0  2  0  0  0  0  0  0
  190.7910  179.7050  143.9720 O   0  0  0  0  0  0  0  0  0  0  0  0
  192.0990  179.2860  144.2550 C   0  0  0  0  0  1  0  0  0  0  0  0
  191.1520  177.4320  143.1570 C   0  0  1  0  0  3  0  0  0  0  0  0
  190.3880  176.1360  143.3790 C   0  0  0  0  0  2  0  0  0  0  0  0
  191.1920  175.2190  144.2870 C   0  0  0  0  0  2  0  0  0  0  0  0
  192.2400  175.9820  144.9540 N   0  0  0  0  0  2  0  0  0  0  0  0
  191.8910  176.0260  146.6750 P   0  0  1  0  0  0  0  0  0  0  0  0
  191.0640  177.6490  148.3790 C   0  0  0  0  0  2  0  0  0  0  0  0
  192.1160  177.6710  149.4950 C   0  0  0  0  0  2  0  0  0  0  0  0
  192.9670  175.6500  148.9050 C   0  0  0  0  0  2  0  0  0  0  0  0
  193.2000  175.3560  147.5570 O   0  0  0  0  0  0  0  0  0  0  0  0
  193.3060  176.9890  149.1570 O   0  0  0  0  0  0  0  0  0  0  0  0
  191.6640  177.6600  147.1180 O   0  0  0  0  0  0  0  0  0  0  0  0
  190.6250  175.2320  146.9340 O   0  0  0  0  0  0  0  0  0  0  0  0
  191.8250  177.4020  141.7880 C   0  0  0  0  0  2  0  0  0  0  0  0
  191.1890  176.3840  140.9650 N   0  0  0  0  0  2  0  0  0  0  0  0
  190.2060  176.6880  139.9840 C   0  0  0  0  0  0  0  0  0  0  0  0
  189.6380  175.7350  139.3850 O   0  0  0  0  0  0  0  0  0  0  0  0
  189.8400  178.0910  139.6940 C   0  0  0  0  0  3  0  0  0  0  0  0
  188.7720  178.5110  139.0040 C   0  0  0  0  0  3  0  0  0  0  0  0
  187.7420  177.6070  138.4140 C   0  0  0  0  0  2  0  0  0  0  0  0
  187.0270  178.3150  137.2720 C   0  0  0  0  0  2  0  0  0  0  0  0
  187.8490  178.2740  136.1390 O   0  0  0  0  0  0  0  0  0  0  0  0
  188.2200  176.1510  135.2670 O   0  0  0  0  0  1  0  0  0  0  0  0
  188.6430  177.1050  136.2000 C   0  0  1  0  0  3  0  0  0  0  0  0
  190.0070  177.3910  136.0380 O   0  0  0  0  0  0  0  0  0  0  0  0
  191.3750  176.2060  134.6390 O   0  0  0  0  0  1  0  0  0  0  0  0
  190.6260  176.1590  135.8180 C   0  0  1  0  0  3  0  0  0  0  0  0
  191.5560  175.8540  136.9850 C   0  0  1  0  0  3  0  0  0  0  0  0
  191.7130  174.4600  137.1260 O   0  0  0  0  0  0  0  0  0  0  0  0
  192.7660  175.1630  136.5030 C   0  0  2  0  0  3  0  0  0  0  0  0
  193.8910  175.3560  137.4970 C   0  0  0  0  0  2  0  0  0  0  0  0
  194.3450  174.0020  138.0000 C   0  0  0  0  0  2  0  0  0  0  0  0
  195.3280  173.4460  137.0820 N   0  0  0  0  0  1  0  0  0  0  0  0
  1 35  1  1  0  0  0
  2  3  1  0  0  0  0
  4  8  1  6  0  0  0
  4  2  1  0  0  0  0
  5  3  1  0  0  0  0
  6  4  1  0  0  0  0
  6  7  1  0  0  0  0
  7  1  1  6  0  0  0
  7  5  1  0  0  0  0
  8  9  1  0  0  0  0
 10 12  1  1  0  0  0
 11 13  1  0  0  0  0
 11  9  1  1  0  0  0
 11 10  1  0  0  0  0
 13 10  1  0  0  0  0
 14 10  1  0  0  0  0
 15 17  1  1  0  0  0
 15 14  1  0  0  0  0
 16 17  2  0  0  0  0
 17 18  1  0  0  0  0
 20 19  1  1  0  0  0
 20 15  1  0  0  0  0
 21 32  1  0  0  0  0
 22 34  1  0  0  0  0
 22 21  1  0  0  0  0
 23 32  1  6  0  0  0
 23 31  1  0  0  0  0
 23 26  1  0  0  0  0
 24 28  2  0  0  0  0
 25 29  1  0  0  0  0
 26 29  1  0  0  0  0
 26 33  1  1  0  0  0
 27 21  1  0  0  0  0
 28 25  1  0  0  0  0
 29 20  1  6  0  0  0
 30 28  1  0  0  0  0
 30 23  1  0  0  0  0
 31 26  1  0  0  0  0
 34 30  1  0  0  0  0
 35 36  1  0  0  0  0
 37 49  1  6  0  0  0
 37  1  1  0  0  0  0
 37 38  1  0  0  0  0
 38 39  1  0  0  0  0
 39 40  1  0  0  0  0
 40 41  1  0  0  0  0
 41 48  2  1  0  0  0
 41 47  1  0  0  0  0
 41 45  1  0  0  0  0
 42 43  1  0  0  0  0
 44 46  1  0  0  0  0
 45 44  1  0  0  0  0
 46 43  1  0  0  0  0
 47 42  1  0  0  0  0
 50 49  1  0  0  0  0
 51 50  1  0  0  0  0
 52 51  2  0  0  0  0
 53 51  1  0  0  0  0
 54 53  2  0  0  0  0
 55 54  1  0  0  0  0
 56 55  1  0  0  0  0
 57 59  1  0  0  0  0
 57 56  1  0  0  0  0
 59 58  1  6  0  0  0
 60 59  1  0  0  0  0
 62 61  1  6  0  0  0
 62 60  1  0  0  0  0
 63 62  1  6  0  0  0
 63 64  1  0  0  0  0
 65 63  1  0  0  0  0
 65 64  1  0  0  0  0
 65 66  1  1  0  0  0
 66 67  1  0  0  0  0
 68 67  1  0  0  0  0
M  END
>  <MODEL>
5

>  <REMARK>
 VINA RESULT:      -4.7      2.999      8.971
  Name = 
  27 active torsions:
  status: ('A' for Active; 'I' for Inactive)
    1  A    between atoms: C_1  and  C_48
    2  A    between atoms: P_2  and  N_22
    3  A    between atoms: O_3  and  C_5
    4  A    between atoms: O_3  and  C_62
    5  A    between atoms: C_4  and  C_9
    6  A    between atoms: C_4  and  N_31
    7  A    between atoms: O_8  and  C_66
    8  A    between atoms: C_9  and  C_33
    9  A    between atoms: C_9  and  C_66
   10  A    between atoms: C_10  and  C_49
   11  A    between atoms: C_12  and  C_42
   12  A    between atoms: C_13  and  C_34
   13  A    between atoms: C_17  and  C_34
   14  A    between atoms: N_22  and  C_51
   15  A    between atoms: C_24  and  C_39
   16  A    between atoms: C_28  and  C_44
   17  A    between atoms: C_28  and  C_62
   18  A    between atoms: C_29  and  O_52
   19  A    between atoms: C_29  and  O_56
   20  A    between atoms: C_32  and  C_67
   21  A    between atoms: C_33  and  C_51
   22  A    between atoms: C_37  and  C_62
   23  A    between atoms: C_39  and  C_53
   24  A    between atoms: C_47  and  C_66
   25  A    between atoms: C_48  and  O_52
   26  A    between atoms: C_49  and  C_67
   27  A    between atoms: C_53  and  O_56
                            x       y       z     vdW  Elec       q    Type
                         _______ _______ _______ _____ _____    ______ ____

>  <TORSDO>
F 27

$$$$
=
 OpenBabel10222420483D

 68 74  0  0  1  0  0  0  0  0999 V2000
  193.5370  175.7800  137.3880 C   0  0  1  0  0  3  0  0  0  0  0  0
  190.0820  173.4930  136.1640 C   0  0  0  0  0  2  0  0  0  0  0  0
  191.4230  172.7850  136.0290 C   0  0  0  0  0  2  0  0  0  0  0  0
  190.1660  174.9440  135.6530 C   0  0  2  0  0  3  0  0  0  0  0  0
  192.4810  173.4450  136.9270 C   0  0  0  0  0  2  0  0  0  0  0  0
  191.5690  175.5430  135.8050 C   0  0  0  0  0  2  0  0  0  0  0  0
  192.2780  174.9690  137.0300 C   0  0  2  0  0  3  0  0  0  0  0  0
  189.1610  175.8090  136.4010 C   0  0  0  0  0  2  0  0  0  0  0  0
  189.2360  177.2630  135.9810 C   0  0  0  0  0  2  0  0  0  0  0  0
  186.9470  177.1920  136.9710 C   0  0  1  0  0  0  0  0  0  0  0  0
  187.8700  177.9310  136.0710 C   0  0  1  0  0  3  0  0  0  0  0  0
  187.3890  176.0130  137.5930 O   0  0  0  0  0  1  0  0  0  0  0  0
  187.6260  178.3400  137.4050 O   0  0  0  0  0  0  0  0  0  0  0  0
  185.5620  177.3790  136.7820 O   0  0  0  0  0  0  0  0  0  0  0  0
  184.8970  176.2160  137.2350 C   0  0  2  0  0  3  0  0  0  0  0  0
  184.6330  175.6300  134.9140 O   0  0  0  0  0  0  0  0  0  0  0  0
  184.7060  175.2350  136.1130 C   0  0  0  0  0  0  0  0  0  0  0  0
  184.5890  173.8820  136.4020 O   0  0  0  0  0  1  0  0  0  0  0  0
  183.3330  175.6830  139.0450 O   0  0  0  0  0  1  0  0  0  0  0  0
  183.5890  176.5680  137.9930 C   0  0  2  0  0  3  0  0  0  0  0  0
  179.7170  175.6240  140.8530 N   0  0  0  0  0  0  0  0  0  0  0  0
  179.1120  176.9290  141.0660 C   0  0  0  0  0  2  0  0  0  0  0  0
  180.3080  176.2920  138.5900 C   0  0  1  0  0  0  0  0  0  0  0  0
  181.3170  179.8330  138.7540 O   0  0  0  0  0  0  0  0  0  0  0  0
  181.9230  178.2380  137.0850 C   0  0  0  0  0  2  0  0  0  0  0  0
  181.1890  175.8390  137.4910 C   0  0  2  0  0  0  0  0  0  0  0  0
  178.9580  174.6630  141.6360 C   0  0  0  0  0  1  0  0  0  0  0  0
  181.2440  178.6340  138.3630 C   0  0  0  0  0  0  0  0  0  0  0  0
  182.3550  176.7640  137.0930 C   0  0  2  0  0  3  0  0  0  0  0  0
  180.4530  177.6710  139.0970 N   0  0  0  0  0  0  0  0  0  0  0  0
  179.8770  176.2980  137.2460 O   0  0  0  0  0  0  0  0  0  0  0  0
  179.5270  175.2970  139.4460 C   0  0  0  0  0  2  0  0  0  0  0  0
  181.3020  174.4620  137.2910 O   0  0  0  0  0  1  0  0  0  0  0  0
  179.9870  178.0260  140.4420 C   0  0  0  0  0  2  0  0  0  0  0  0
  193.4830  177.0750  136.8320 O   0  0  0  0  0  0  0  0  0  0  0  0
  194.1330  176.9800  135.5930 C   0  0  0  0  0  1  0  0  0  0  0  0
  193.9160  175.8210  138.8820 C   0  0  1  0  0  3  0  0  0  0  0  0
  195.4230  175.9740  139.0120 C   0  0  0  0  0  2  0  0  0  0  0  0
  195.9850  174.8180  139.8240 C   0  0  0  0  0  2  0  0  0  0  0  0
  197.4130  174.6820  139.5600 N   0  0  0  0  0  2  0  0  0  0  0  0
  197.6320  174.2340  137.8760 P   0  0  1  0  0  0  0  0  0  0  0  0
  198.0050  175.3450  135.6740 C   0  0  0  0  0  2  0  0  0  0  0  0
  196.8980  174.8340  134.7440 C   0  0  0  0  0  2  0  0  0  0  0  0
  196.5070  172.9930  136.0140 C   0  0  0  0  0  2  0  0  0  0  0  0
  196.4260  173.1080  137.4060 O   0  0  0  0  0  0  0  0  0  0  0  0
  195.8930  174.1050  135.4170 O   0  0  0  0  0  0  0  0  0  0  0  0
  197.4990  175.6560  136.9390 O   0  0  0  0  0  0  0  0  0  0  0  0
  199.0100  173.6230  137.7110 O   0  0  0  0  0  0  0  0  0  0  0  0
  193.2180  176.9590  139.6210 C   0  0  0  0  0  2  0  0  0  0  0  0
  191.8000  176.6570  139.7350 N   0  0  0  0  0  2  0  0  0  0  0  0
  190.9710  177.2170  140.7440 C   0  0  0  0  0  0  0  0  0  0  0  0
  189.7750  176.8260  140.8280 O   0  0  0  0  0  0  0  0  0  0  0  0
  191.5070  178.2180  141.6910 C   0  0  0  0  0  3  0  0  0  0  0  0
  190.9740  178.5690  142.8690 C   0  0  0  0  0  3  0  0  0  0  0  0
  189.7260  177.9820  143.4360 C   0  0  0  0  0  2  0  0  0  0  0  0
  190.0700  177.0530  144.5910 C   0  0  0  0  0  2  0  0  0  0  0  0
  190.4590  177.8330  145.6880 O   0  0  0  0  0  0  0  0  0  0  0  0
  190.6760  177.1700  147.9060 O   0  0  0  0  0  1  0  0  0  0  0  0
  189.7900  177.3570  146.8400 C   0  0  1  0  0  3  0  0  0  0  0  0
  188.7290  178.1970  147.2120 O   0  0  0  0  0  0  0  0  0  0  0  0
  187.5220  176.9120  148.6690 O   0  0  0  0  0  1  0  0  0  0  0  0
  187.6190  177.3620  147.3490 C   0  0  1  0  0  3  0  0  0  0  0  0
  186.3600  178.1460  146.9990 C   0  0  1  0  0  3  0  0  0  0  0  0
  186.6920  179.2640  146.2080 O   0  0  0  0  0  0  0  0  0  0  0  0
  186.1510  178.1450  145.5400 C   0  0  2  0  0  3  0  0  0  0  0  0
  184.6910  178.4050  145.2360 C   0  0  0  0  0  2  0  0  0  0  0  0
  184.4900  178.4000  143.7350 C   0  0  0  0  0  2  0  0  0  0  0  0
  185.7260  177.9990  143.0790 N   0  0  0  0  0  1  0  0  0  0  0  0
  1 35  1  1  0  0  0
  1 37  1  0  0  0  0
  3  2  1  0  0  0  0
  3  5  1  0  0  0  0
  4  6  1  0  0  0  0
  4  2  1  0  0  0  0
  4  8  1  1  0  0  0
  5  7  1  0  0  0  0
  6  7  1  0  0  0  0
  7  1  1  6  0  0  0
  9  8  1  0  0  0  0
 10 13  1  0  0  0  0
 10 12  1  1  0  0  0
 11  9  1  1  0  0  0
 11 10  1  0  0  0  0
 11 13  1  0  0  0  0
 14 10  1  0  0  0  0
 14 15  1  0  0  0  0
 15 17  1  6  0  0  0
 15 20  1  0  0  0  0
 16 17  2  0  0  0  0
 17 18  1  0  0  0  0
 20 19  1  1  0  0  0
 21 22  1  0  0  0  0
 21 27  1  0  0  0  0
 23 30  1  0  0  0  0
 23 32  1  1  0  0  0
 25 29  1  0  0  0  0
 25 28  1  0  0  0  0
 26 33  1  6  0  0  0
 26 23  1  0  0  0  0
 28 24  2  0  0  0  0
 28 30  1  0  0  0  0
 29 26  1  0  0  0  0
 29 20  1  1  0  0  0
 30 34  1  0  0  0  0
 31 26  1  0  0  0  0
 31 23  1  0  0  0  0
 32 21  1  0  0  0  0
 34 22  1  0  0  0  0
 36 35  1  0  0  0  0
 37 38  1  6  0  0  0
 37 49  1  0  0  0  0
 38 39  1  0  0  0  0
 40 39  1  0  0  0  0
 41 48  2  6  0  0  0
 41 40  1  0  0  0  0
 42 47  1  0  0  0  0
 43 46  1  0  0  0  0
 43 42  1  0  0  0  0
 44 45  1  0  0  0  0
 45 41  1  0  0  0  0
 46 44  1  0  0  0  0
 47 41  1  0  0  0  0
 49 50  1  0  0  0  0
 50 51  1  0  0  0  0
 51 52  2  0  0  0  0
 51 53  1  0  0  0  0
 53 54  2  0  0  0  0
 54 55  1  0  0  0  0
 55 56  1  0  0  0  0
 56 57  1  0  0  0  0
 57 59  1  0  0  0  0
 59 60  1  0  0  0  0
 59 58  1  1  0  0  0
 60 62  1  0  0  0  0
 62 61  1  1  0  0  0
 63 62  1  6  0  0  0
 64 63  1  0  0  0  0
 65 66  1  1  0  0  0
 65 64  1  0  0  0  0
 65 63  1  0  0  0  0
 67 66  1  0  0  0  0
 68 67  1  0  0  0  0
M  END
>  <MODEL>
6

>  <REMARK>
 VINA RESULT:      -4.0      1.884      2.898
  Name = 
  27 active torsions:
  status: ('A' for Active; 'I' for Inactive)
    1  A    between atoms: C_1  and  C_48
    2  A    between atoms: P_2  and  N_22
    3  A    between atoms: O_3  and  C_5
    4  A    between atoms: O_3  and  C_62
    5  A    between atoms: C_4  and  C_9
    6  A    between atoms: C_4  and  N_31
    7  A    between atoms: O_8  and  C_66
    8  A    between atoms: C_9  and  C_33
    9  A    between atoms: C_9  and  C_66
   10  A    between atoms: C_10  and  C_49
   11  A    between atoms: C_12  and  C_42
   12  A    between atoms: C_13  and  C_34
   13  A    between atoms: C_17  and  C_34
   14  A    between atoms: N_22  and  C_51
   15  A    between atoms: C_24  and  C_39
   16  A    between atoms: C_28  and  C_44
   17  A    between atoms: C_28  and  C_62
   18  A    between atoms: C_29  and  O_52
   19  A    between atoms: C_29  and  O_56
   20  A    between atoms: C_32  and  C_67
   21  A    between atoms: C_33  and  C_51
   22  A    between atoms: C_37  and  C_62
   23  A    between atoms: C_39  and  C_53
   24  A    between atoms: C_47  and  C_66
   25  A    between atoms: C_48  and  O_52
   26  A    between atoms: C_49  and  C_67
   27  A    between atoms: C_53  and  O_56
                            x       y       z     vdW  Elec       q    Type
                         _______ _______ _______ _____ _____    ______ ____

>  <TORSDO>
F 27

$$$$
=
 OpenBabel10222420483D

 68 74  0  0  1  0  0  0  0  0999 V2000
  190.0240  178.7580  143.2400 C   0  0  1  0  0  3  0  0  0  0  0  0
  186.2460  177.4990  144.9190 C   0  0  0  0  0  2  0  0  0  0  0  0
  187.4880  176.9100  145.5730 C   0  0  0  0  0  2  0  0  0  0  0  0
  186.3630  177.4730  143.3830 C   0  0  2  0  0  3  0  0  0  0  0  0
  188.7240  177.7700  145.2700 C   0  0  0  0  0  2  0  0  0  0  0  0
  187.8150  177.5570  142.9000 C   0  0  0  0  0  2  0  0  0  0  0  0
  188.6630  178.3880  143.8590 C   0  0  2  0  0  3  0  0  0  0  0  0
  185.5630  178.6230  142.7880 C   0  0  0  0  0  2  0  0  0  0  0  0
  184.3570  178.9770  143.6350 C   0  0  0  0  0  2  0  0  0  0  0  0
  182.5720  178.6250  141.9280 C   0  0  1  0  0  0  0  0  0  0  0  0
  183.2630  179.6180  142.7900 C   0  0  1  0  0  3  0  0  0  0  0  0
  182.9860  177.2820  141.9560 O   0  0  0  0  0  1  0  0  0  0  0  0
  182.0070  179.0600  143.1350 O   0  0  0  0  0  0  0  0  0  0  0  0
  181.9140  179.1060  140.7760 O   0  0  0  0  0  0  0  0  0  0  0  0
  182.6580  178.7000  139.6450 C   0  0  2  0  0  3  0  0  0  0  0  0
  183.1060  180.8770  138.7170 O   0  0  0  0  0  0  0  0  0  0  0  0
  183.5740  179.7970  139.1810 C   0  0  0  0  0  0  0  0  0  0  0  0
  184.9480  179.6130  139.2460 O   0  0  0  0  0  1  0  0  0  0  0  0
  181.1280  176.9330  138.9030 O   0  0  0  0  0  1  0  0  0  0  0  0
  181.7340  178.1380  138.5300 C   0  0  2  0  0  3  0  0  0  0  0  0
  181.1420  173.4820  137.1060 N   0  0  0  0  0  0  0  0  0  0  0  0
  180.1440  173.5610  136.0520 C   0  0  0  0  0  2  0  0  0  0  0  0
  182.0630  175.6080  136.3650 C   0  0  1  0  0  0  0  0  0  0  0  0
  179.2060  177.7240  135.3940 O   0  0  0  0  0  0  0  0  0  0  0  0
  181.3830  178.4530  136.0470 C   0  0  0  0  0  2  0  0  0  0  0  0
  182.9830  176.6540  136.8620 C   0  0  2  0  0  0  0  0  0  0  0  0
  181.4450  172.0750  137.3080 C   0  0  0  0  0  1  0  0  0  0  0  0
  180.3530  177.3890  135.8030 C   0  0  0  0  0  0  0  0  0  0  0  0
  182.3850  178.0470  137.1380 C   0  0  2  0  0  3  0  0  0  0  0  0
  180.6950  175.9930  135.9630 N   0  0  0  0  0  0  0  0  0  0  0  0
  183.0190  176.2120  135.5210 O   0  0  0  0  0  0  0  0  0  0  0  0
  182.3450  174.1240  136.5950 C   0  0  0  0  0  2  0  0  0  0  0  0
  184.1030  176.2310  137.5780 O   0  0  0  0  0  1  0  0  0  0  0  0
  179.6170  174.9990  135.9300 C   0  0  0  0  0  2  0  0  0  0  0  0
  190.5780  179.8900  143.8710 O   0  0  0  0  0  0  0  0  0  0  0  0
  191.8460  179.4900  144.3170 C   0  0  0  0  0  1  0  0  0  0  0  0
  191.0510  177.6130  143.1280 C   0  0  1  0  0  3  0  0  0  0  0  0
  190.4300  176.3300  143.6590 C   0  0  0  0  0  2  0  0  0  0  0  0
  191.1900  175.8670  144.8910 C   0  0  0  0  0  2  0  0  0  0  0  0
  191.6850  177.0240  145.6270 N   0  0  0  0  0  2  0  0  0  0  0  0
  191.8150  176.5940  147.3250 P   0  0  1  0  0  0  0  0  0  0  0  0
  191.7240  177.7110  149.5540 C   0  0  0  0  0  2  0  0  0  0  0  0
  193.0250  177.3340  150.2740 C   0  0  0  0  0  2  0  0  0  0  0  0
  193.3730  175.5140  148.9620 C   0  0  0  0  0  2  0  0  0  0  0  0
  193.1940  175.6050  147.5770 O   0  0  0  0  0  0  0  0  0  0  0  0
  193.9650  176.6950  149.4360 O   0  0  0  0  0  0  0  0  0  0  0  0
  191.9640  178.0420  148.2180 O   0  0  0  0  0  0  0  0  0  0  0  0
  190.5580  175.8520  147.7360 O   0  0  0  0  0  0  0  0  0  0  0  0
  191.5190  177.3990  141.6920 C   0  0  0  0  0  2  0  0  0  0  0  0
  190.6170  176.4690  141.0280 N   0  0  0  0  0  2  0  0  0  0  0  0
  189.7630  176.8530  139.9590 C   0  0  0  0  0  0  0  0  0  0  0  0
  188.9450  176.0070  139.5070 O   0  0  0  0  0  0  0  0  0  0  0  0
  189.8160  178.2240  139.4070 C   0  0  0  0  0  3  0  0  0  0  0  0
  189.2930  178.6380  138.2460 C   0  0  0  0  0  3  0  0  0  0  0  0
  188.5400  177.7620  137.3020 C   0  0  0  0  0  2  0  0  0  0  0  0
  188.7020  178.2760  135.8790 C   0  0  0  0  0  2  0  0  0  0  0  0
  189.2390  177.2480  135.0930 O   0  0  0  0  0  0  0  0  0  0  0  0
  189.6310  175.0410  135.7110 O   0  0  0  0  0  1  0  0  0  0  0  0
  189.9770  176.3790  135.9300 C   0  0  1  0  0  3  0  0  0  0  0  0
  191.3600  176.5680  135.7860 O   0  0  0  0  0  0  0  0  0  0  0  0
  191.5240  174.3700  136.4000 O   0  0  0  0  0  1  0  0  0  0  0  0
  191.9550  175.6710  136.6750 C   0  0  1  0  0  3  0  0  0  0  0  0
  193.4690  175.7360  136.5100 C   0  0  1  0  0  3  0  0  0  0  0  0
  194.0530  176.3280  137.6480 O   0  0  0  0  0  0  0  0  0  0  0  0
  194.1280  174.9230  137.5480 C   0  0  2  0  0  3  0  0  0  0  0  0
  195.5140  174.5310  137.0820 C   0  0  0  0  0  2  0  0  0  0  0  0
  196.2320  173.8190  138.2090 C   0  0  0  0  0  2  0  0  0  0  0  0
  195.2670  173.0890  139.0170 N   0  0  0  0  0  1  0  0  0  0  0  0
  1 35  1  1  0  0  0
  2  3  1  0  0  0  0
  4  8  1  6  0  0  0
  4  2  1  0  0  0  0
  5  3  1  0  0  0  0
  6  4  1  0  0  0  0
  6  7  1  0  0  0  0
  7  1  1  6  0  0  0
  7  5  1  0  0  0  0
  8  9  1  0  0  0  0
 10 12  1  6  0  0  0
 10 11  1  0  0  0  0
 10 13  1  0  0  0  0
 11 13  1  0  0  0  0
 11  9  1  1  0  0  0
 14 10  1  0  0  0  0
 15 17  1  6  0  0  0
 15 14  1  0  0  0  0
 16 17  2  0  0  0  0
 17 18  1  0  0  0  0
 20 19  1  1  0  0  0
 20 15  1  0  0  0  0
 21 27  1  0  0  0  0
 22 21  1  0  0  0  0
 23 32  1  1  0  0  0
 23 26  1  0  0  0  0
 24 28  2  0  0  0  0
 25 29  1  0  0  0  0
 26 29  1  0  0  0  0
 26 33  1  1  0  0  0
 28 30  1  0  0  0  0
 28 25  1  0  0  0  0
 29 20  1  1  0  0  0
 30 23  1  0  0  0  0
 31 23  1  0  0  0  0
 31 26  1  0  0  0  0
 32 21  1  0  0  0  0
 34 30  1  0  0  0  0
 34 22  1  0  0  0  0
 35 36  1  0  0  0  0
 37 49  1  6  0  0  0
 37  1  1  0  0  0  0
 37 38  1  0  0  0  0
 38 39  1  0  0  0  0
 39 40  1  0  0  0  0
 40 41  1  0  0  0  0
 41 45  1  0  0  0  0
 41 48  2  1  0  0  0
 41 47  1  0  0  0  0
 42 43  1  0  0  0  0
 44 46  1  0  0  0  0
 45 44  1  0  0  0  0
 46 43  1  0  0  0  0
 47 42  1  0  0  0  0
 50 49  1  0  0  0  0
 51 50  1  0  0  0  0
 52 51  2  0  0  0  0
 53 51  1  0  0  0  0
 54 53  2  0  0  0  0
 55 54  1  0  0  0  0
 56 55  1  0  0  0  0
 57 56  1  0  0  0  0
 57 59  1  0  0  0  0
 59 58  1  6  0  0  0
 60 59  1  0  0  0  0
 60 62  1  0  0  0  0
 62 61  1  6  0  0  0
 63 62  1  1  0  0  0
 63 65  1  0  0  0  0
 63 64  1  0  0  0  0
 65 66  1  6  0  0  0
 65 64  1  0  0  0  0
 66 67  1  0  0  0  0
 67 68  1  0  0  0  0
M  END
>  <MODEL>
7

>  <REMARK>
 VINA RESULT:      -3.3      3.137      9.054
  Name = 
  27 active torsions:
  status: ('A' for Active; 'I' for Inactive)
    1  A    between atoms: C_1  and  C_48
    2  A    between atoms: P_2  and  N_22
    3  A    between atoms: O_3  and  C_5
    4  A    between atoms: O_3  and  C_62
    5  A    between atoms: C_4  and  C_9
    6  A    between atoms: C_4  and  N_31
    7  A    between atoms: O_8  and  C_66
    8  A    between atoms: C_9  and  C_33
    9  A    between atoms: C_9  and  C_66
   10  A    between atoms: C_10  and  C_49
   11  A    between atoms: C_12  and  C_42
   12  A    between atoms: C_13  and  C_34
   13  A    between atoms: C_17  and  C_34
   14  A    between atoms: N_22  and  C_51
   15  A    between atoms: C_24  and  C_39
   16  A    between atoms: C_28  and  C_44
   17  A    between atoms: C_28  and  C_62
   18  A    between atoms: C_29  and  O_52
   19  A    between atoms: C_29  and  O_56
   20  A    between atoms: C_32  and  C_67
   21  A    between atoms: C_33  and  C_51
   22  A    between atoms: C_37  and  C_62
   23  A    between atoms: C_39  and  C_53
   24  A    between atoms: C_47  and  C_66
   25  A    between atoms: C_48  and  O_52
   26  A    between atoms: C_49  and  C_67
   27  A    between atoms: C_53  and  O_56
                            x       y       z     vdW  Elec       q    Type
                         _______ _______ _______ _____ _____    ______ ____

>  <TORSDO>
F 27

$$$$
=
 OpenBabel10222420483D

 68 74  0  0  1  0  0  0  0  0999 V2000
  188.9650  177.5840  141.0910 C   0  0  1  0  0  3  0  0  0  0  0  0
  189.0440  177.5360  136.7720 C   0  0  0  0  0  2  0  0  0  0  0  0
  188.0750  178.5260  137.4030 C   0  0  0  0  0  2  0  0  0  0  0  0
  188.9770  176.1670  137.4770 C   0  0  2  0  0  3  0  0  0  0  0  0
  188.4720  178.8260  138.8560 C   0  0  0  0  0  2  0  0  0  0  0  0
  188.5700  176.2820  138.9500 C   0  0  0  0  0  2  0  0  0  0  0  0
  189.0720  177.5910  139.5560 C   0  0  2  0  0  3  0  0  0  0  0  0
  190.3280  175.4730  137.3760 C   0  0  0  0  0  2  0  0  0  0  0  0
  190.1860  173.9780  137.1740 C   0  0  0  0  0  2  0  0  0  0  0  0
  188.5940  173.1540  135.4390 C   0  0  1  0  0  0  0  0  0  0  0  0
  188.7460  173.6020  136.8460 C   0  0  1  0  0  3  0  0  0  0  0  0
  189.7170  173.1430  134.5940 O   0  0  0  0  0  1  0  0  0  0  0  0
  188.6800  172.2320  136.4920 O   0  0  0  0  0  0  0  0  0  0  0  0
  187.3120  173.2480  134.8580 O   0  0  0  0  0  0  0  0  0  0  0  0
  186.4210  172.4730  135.6360 C   0  0  2  0  0  3  0  0  0  0  0  0
  185.3050  170.5260  134.7600 O   0  0  0  0  0  0  0  0  0  0  0  0
  186.3870  171.0500  135.1560 C   0  0  0  0  0  0  0  0  0  0  0  0
  187.5540  170.2980  135.1640 O   0  0  0  0  0  1  0  0  0  0  0  0
  184.8570  174.1580  134.7840 O   0  0  0  0  0  1  0  0  0  0  0  0
  185.0210  173.1390  135.7290 C   0  0  2  0  0  3  0  0  0  0  0  0
  182.0990  177.0230  135.0680 N   0  0  0  0  0  0  0  0  0  0  0  0
  180.7780  176.5310  135.4210 C   0  0  0  0  0  2  0  0  0  0  0  0
  183.0610  175.6250  136.8110 C   0  0  1  0  0  0  0  0  0  0  0  0
  181.1750  172.4590  136.7980 O   0  0  0  0  0  0  0  0  0  0  0  0
  183.3850  172.8160  137.6270 C   0  0  0  0  0  2  0  0  0  0  0  0
  184.3880  175.1160  137.2220 C   0  0  2  0  0  0  0  0  0  0  0  0
  181.9430  178.3940  134.6120 C   0  0  0  0  0  1  0  0  0  0  0  0
  182.1250  173.2760  136.9520 C   0  0  0  0  0  0  0  0  0  0  0  0
  184.6170  173.5950  137.1430 C   0  0  2  0  0  3  0  0  0  0  0  0
  181.9750  174.6580  136.5540 N   0  0  0  0  0  0  0  0  0  0  0  0
  183.4500  175.5880  138.1670 O   0  0  0  0  0  0  0  0  0  0  0  0
  182.8790  177.0520  136.2980 C   0  0  0  0  0  2  0  0  0  0  0  0
  185.4730  175.9840  137.0910 O   0  0  0  0  0  1  0  0  0  0  0  0
  180.8330  175.0230  135.7080 C   0  0  0  0  0  2  0  0  0  0  0  0
  187.6230  177.4530  141.5060 O   0  0  0  0  0  0  0  0  0  0  0  0
  187.0040  178.6640  141.1640 C   0  0  0  0  0  1  0  0  0  0  0  0
  189.8850  176.5920  141.8310 C   0  0  1  0  0  3  0  0  0  0  0  0
  191.1000  177.3380  142.3620 C   0  0  0  0  0  2  0  0  0  0  0  0
  192.3520  176.8390  141.6600 C   0  0  0  0  0  2  0  0  0  0  0  0
  192.4880  177.5000  140.3680 N   0  0  0  0  0  2  0  0  0  0  0  0
  193.8590  176.7990  139.5210 P   0  0  1  0  0  0  0  0  0  0  0  0
  194.3620  174.8280  138.0790 C   0  0  0  0  0  2  0  0  0  0  0  0
  195.5350  174.0980  138.7460 C   0  0  0  0  0  2  0  0  0  0  0  0
  196.1760  175.9340  139.9170 C   0  0  0  0  0  2  0  0  0  0  0  0
  195.2160  176.7200  140.5660 O   0  0  0  0  0  0  0  0  0  0  0  0
  195.8310  174.5790  140.0400 O   0  0  0  0  0  0  0  0  0  0  0  0
  193.4130  175.2280  139.0230 O   0  0  0  0  0  0  0  0  0  0  0  0
  194.1770  177.6620  138.3160 O   0  0  0  0  0  0  0  0  0  0  0  0
  189.1690  175.8930  142.9840 C   0  0  0  0  0  2  0  0  0  0  0  0
  189.3280  176.6840  144.1950 N   0  0  0  0  0  2  0  0  0  0  0  0
  188.2250  177.1490  144.9610 C   0  0  0  0  0  0  0  0  0  0  0  0
  188.4500  177.9090  145.9420 O   0  0  0  0  0  0  0  0  0  0  0  0
  186.8420  176.7700  144.6000 C   0  0  0  0  0  3  0  0  0  0  0  0
  185.8110  177.6030  144.4060 C   0  0  0  0  0  3  0  0  0  0  0  0
  185.8960  179.0880  144.5150 C   0  0  0  0  0  2  0  0  0  0  0  0
  184.5210  179.7020  144.3000 C   0  0  0  0  0  2  0  0  0  0  0  0
  183.9520  179.1300  143.1550 O   0  0  0  0  0  0  0  0  0  0  0  0
  181.8050  179.6670  143.8660 O   0  0  0  0  0  1  0  0  0  0  0  0
  182.6700  178.6340  143.4870 C   0  0  1  0  0  3  0  0  0  0  0  0
  182.1170  177.8760  142.4440 O   0  0  0  0  0  0  0  0  0  0  0  0
  182.7470  179.1360  140.6410 O   0  0  0  0  0  1  0  0  0  0  0  0
  181.6890  178.8040  141.4920 C   0  0  1  0  0  3  0  0  0  0  0  0
  180.5640  178.1890  140.6690 C   0  0  1  0  0  3  0  0  0  0  0  0
  181.0860  177.2280  139.7800 O   0  0  0  0  0  0  0  0  0  0  0  0
  180.4600  176.7450  140.9480 C   0  0  2  0  0  3  0  0  0  0  0  0
  179.0690  176.2600  140.6020 C   0  0  0  0  0  2  0  0  0  0  0  0
  179.0670  175.7330  139.1830 C   0  0  0  0  0  2  0  0  0  0  0  0
  179.3460  174.3040  139.1950 N   0  0  0  0  0  1  0  0  0  0  0  0
  1 35  1  6  0  0  0
  1 37  1  0  0  0  0
  2  3  1  0  0  0  0
  2  4  1  0  0  0  0
  3  5  1  0  0  0  0
  4  8  1  1  0  0  0
  4  6  1  0  0  0  0
  5  7  1  0  0  0  0
  6  7  1  0  0  0  0
  7  1  1  1  0  0  0
  9  8  1  0  0  0  0
 10 12  1  6  0  0  0
 10 13  1  0  0  0  0
 10 11  1  0  0  0  0
 11  9  1  6  0  0  0
 13 11  1  0  0  0  0
 14 10  1  0  0  0  0
 15 14  1  6  0  0  0
 15 20  1  0  0  0  0
 16 17  2  0  0  0  0
 17 18  1  0  0  0  0
 17 15  1  0  0  0  0
 20 19  1  6  0  0  0
 21 22  1  0  0  0  0
 21 32  1  0  0  0  0
 22 34  1  0  0  0  0
 23 32  1  6  0  0  0
 23 26  1  0  0  0  0
 23 31  1  0  0  0  0
 24 28  2  0  0  0  0
 26 33  1  6  0  0  0
 26 31  1  0  0  0  0
 27 21  1  0  0  0  0
 28 25  1  0  0  0  0
 29 20  1  6  0  0  0
 29 26  1  0  0  0  0
 29 25  1  0  0  0  0
 30 23  1  0  0  0  0
 30 28  1  0  0  0  0
 34 30  1  0  0  0  0
 36 35  1  0  0  0  0
 37 38  1  1  0  0  0
 37 49  1  0  0  0  0
 39 38  1  0  0  0  0
 40 39  1  0  0  0  0
 41 48  2  6  0  0  0
 41 40  1  0  0  0  0
 41 45  1  0  0  0  0
 42 43  1  0  0  0  0
 42 47  1  0  0  0  0
 43 46  1  0  0  0  0
 44 46  1  0  0  0  0
 44 45  1  0  0  0  0
 47 41  1  0  0  0  0
 49 50  1  0  0  0  0
 50 51  1  0  0  0  0
 51 52  2  0  0  0  0
 53 51  1  0  0  0  0
 54 55  1  0  0  0  0
 54 53  2  0  0  0  0
 56 55  1  0  0  0  0
 57 59  1  0  0  0  0
 57 56  1  0  0  0  0
 59 58  1  6  0  0  0
 60 59  1  0  0  0  0
 62 61  1  6  0  0  0
 62 60  1  0  0  0  0
 63 65  1  0  0  0  0
 63 62  1  1  0  0  0
 64 63  1  0  0  0  0
 64 65  1  0  0  0  0
 65 66  1  6  0  0  0
 67 68  1  0  0  0  0
 67 66  1  0  0  0  0
M  END
>  <MODEL>
8

>  <REMARK>
 VINA RESULT:      -3.1      3.018      6.397
  Name = 
  27 active torsions:
  status: ('A' for Active; 'I' for Inactive)
    1  A    between atoms: C_1  and  C_48
    2  A    between atoms: P_2  and  N_22
    3  A    between atoms: O_3  and  C_5
    4  A    between atoms: O_3  and  C_62
    5  A    between atoms: C_4  and  C_9
    6  A    between atoms: C_4  and  N_31
    7  A    between atoms: O_8  and  C_66
    8  A    between atoms: C_9  and  C_33
    9  A    between atoms: C_9  and  C_66
   10  A    between atoms: C_10  and  C_49
   11  A    between atoms: C_12  and  C_42
   12  A    between atoms: C_13  and  C_34
   13  A    between atoms: C_17  and  C_34
   14  A    between atoms: N_22  and  C_51
   15  A    between atoms: C_24  and  C_39
   16  A    between atoms: C_28  and  C_44
   17  A    between atoms: C_28  and  C_62
   18  A    between atoms: C_29  and  O_52
   19  A    between atoms: C_29  and  O_56
   20  A    between atoms: C_32  and  C_67
   21  A    between atoms: C_33  and  C_51
   22  A    between atoms: C_37  and  C_62
   23  A    between atoms: C_39  and  C_53
   24  A    between atoms: C_47  and  C_66
   25  A    between atoms: C_48  and  O_52
   26  A    between atoms: C_49  and  C_67
   27  A    between atoms: C_53  and  O_56
                            x       y       z     vdW  Elec       q    Type
                         _______ _______ _______ _____ _____    ______ ____

>  <TORSDO>
F 27

$$$$
