=
 OpenBabel10222419593D

 36 38  0  0  1  0  0  0  0  0999 V2000
  185.9790  178.3880  146.8430 C   0  0  0  0  0  0  0  0  0  0  0  0
  188.9130  178.2880  148.9270 C   0  0  0  0  0  1  0  0  0  0  0  0
  188.1780  177.4410  147.9070 C   0  0  1  0  0  3  0  0  0  0  0  0
  186.8320  177.4740  145.9620 C   0  0  1  0  0  3  0  0  0  0  0  0
  189.7300  177.9760  145.1330 C   0  0  2  0  0  3  0  0  0  0  0  0
  187.2520  177.9600  144.5850 C   0  0  1  0  0  3  0  0  0  0  0  0
  190.2250  177.0840  146.2920 C   0  0  0  0  0  2  0  0  0  0  0  0
  184.9040  178.8230  147.2230 O   0  0  0  0  0  0  0  0  0  0  0  0
  188.6240  177.3440  144.2700 C   0  0  0  0  0  2  0  0  0  0  0  0
  187.5050  178.3380  146.8830 C   0  0  1  0  0  3  0  0  0  0  0  0
  189.1540  176.4610  147.2140 C   0  0  0  0  0  2  0  0  0  0  0  0
  190.9130  178.3690  144.2690 C   0  0  0  0  0  2  0  0  0  0  0  0
  191.2430  177.2570  143.2850 C   0  0  0  0  0  2  0  0  0  0  0  0
  191.0700  177.7440  141.8550 C   0  0  0  0  0  2  0  0  0  0  0  0
  190.3680  176.7010  140.9970 C   0  0  2  0  0  3  0  0  0  0  0  0
  191.0840  176.5190  139.8290 F   0  0  0  0  0  0  0  0  0  0  0  0
  188.9580  177.1600  140.6650 C   0  0  0  0  0  2  0  0  0  0  0  0
  188.8160  178.6440  140.9410 C   0  0  0  0  0  1  0  0  0  0  0  0
  186.2520  177.4970  143.5420 C   0  0  0  0  0  2  0  0  0  0  0  0
  185.6160  178.6890  142.8530 C   0  0  0  0  0  2  0  0  0  0  0  0
  184.1860  178.3580  142.4840 C   0  0  0  0  0  2  0  0  0  0  0  0
  184.1310  177.9120  141.0390 C   0  0  0  0  0  2  0  0  0  0  0  0
  183.3360  178.9150  140.2310 C   0  0  0  0  0  2  0  0  0  0  0  0
  184.1460  179.3470  139.0290 C   0  0  0  0  0  2  0  0  0  0  0  0
  185.5220  178.7140  139.0920 C   0  0  0  0  0  2  0  0  0  0  0  0
  186.0640  178.5940  137.7820 O   0  0  0  0  0  0  0  0  0  0  0  0
  189.3770  176.1950  136.7580 C   0  0  0  0  0  0  0  0  0  0  0  0
  187.0060  176.4540  137.2150 C   0  0  0  0  0  0  0  0  0  0  0  0
  188.4890  178.3820  137.3040 C   0  0  0  0  0  0  0  0  0  0  0  0
  187.1930  177.8290  137.4400 C   0  0  0  0  0  0  0  0  0  0  0  0
  190.4560  175.3860  136.4270 O   0  0  0  0  0  1  0  0  0  0  0  0
  188.7260  179.7400  137.4810 O   0  0  0  0  0  1  0  0  0  0  0  0
  188.1020  175.6450  136.8770 C   0  0  0  0  0  3  0  0  0  0  0  0
  189.5690  177.5600  136.9690 C   0  0  0  0  0  3  0  0  0  0  0  0
  185.7210  175.9130  137.3390 O   0  0  0  0  0  0  0  0  0  0  0  0
  185.4140  174.5680  136.9940 C   0  0  0  0  0  1  0  0  0  0  0  0
  1  8  2  0  0  0  0
  3  2  1  1  0  0  0
  4  1  1  6  0  0  0
  4 10  1  0  0  0  0
  5 12  1  6  0  0  0
  5  7  1  0  0  0  0
  6 19  1  6  0  0  0
  6  4  1  0  0  0  0
  7 11  1  0  0  0  0
  9  6  1  0  0  0  0
  9  5  1  0  0  0  0
 10  1  1  1  0  0  0
 10  3  1  0  0  0  0
 11  3  1  0  0  0  0
 13 12  1  0  0  0  0
 14 13  1  0  0  0  0
 15 16  1  6  0  0  0
 15 14  1  0  0  0  0
 17 18  1  0  0  0  0
 17 15  1  0  0  0  0
 20 19  1  0  0  0  0
 21 20  1  0  0  0  0
 22 21  1  0  0  0  0
 23 22  1  0  0  0  0
 24 25  1  0  0  0  0
 24 23  1  0  0  0  0
 26 25  1  0  0  0  0
 27 33  2  0  0  0  0
 27 34  1  0  0  0  0
 28 35  1  0  0  0  0
 28 30  2  0  0  0  0
 29 30  1  0  0  0  0
 29 32  1  0  0  0  0
 30 26  1  0  0  0  0
 31 27  1  0  0  0  0
 33 28  1  0  0  0  0
 34 29  2  0  0  0  0
 36 35  1  0  0  0  0
M  END
>  <MODEL>
1

>  <REMARK>
 VINA RESULT:      -7.6      0.000      0.000
  Name = 
  15 active torsions:
  status: ('A' for Active; 'I' for Inactive)
    1  A    between atoms: C_2  and  C_13
    2  A    between atoms: C_3  and  C_14
    3  A    between atoms: C_3  and  C_24
    4  A    between atoms: C_6  and  C_26
    5  A    between atoms: C_6  and  C_32
    6  A    between atoms: C_7  and  O_33
    7  A    between atoms: C_10  and  O_21
    8  A    between atoms: C_11  and  C_26
    9  A    between atoms: C_11  and  C_29
   10  A    between atoms: C_13  and  C_24
   11  A    between atoms: C_14  and  C_15
   12  A    between atoms: C_16  and  C_27
   13  A    between atoms: C_18  and  C_27
   14  A    between atoms: C_18  and  C_29
   15  A    between atoms: O_21  and  C_32
                            x       y       z     vdW  Elec       q    Type
                         _______ _______ _______ _____ _____    ______ ____

>  <TORSDO>
F 15

$$$$
=
 OpenBabel10222419593D

 36 38  0  0  1  0  0  0  0  0999 V2000
  185.7930  178.3840  146.5510 C   0  0  0  0  0  0  0  0  0  0  0  0
  188.5070  178.3680  148.9170 C   0  0  0  0  0  1  0  0  0  0  0  0
  187.8770  177.4820  147.8590 C   0  0  1  0  0  3  0  0  0  0  0  0
  186.7300  177.4420  145.7910 C   0  0  1  0  0  3  0  0  0  0  0  0
  189.6940  177.9260  145.2350 C   0  0  2  0  0  3  0  0  0  0  0  0
  187.2830  177.8810  144.4460 C   0  0  1  0  0  3  0  0  0  0  0  0
  190.0730  177.0770  146.4670 C   0  0  0  0  0  2  0  0  0  0  0  0
  184.6860  178.8270  146.8070 O   0  0  0  0  0  0  0  0  0  0  0  0
  188.6800  177.2600  144.2900 C   0  0  0  0  0  2  0  0  0  0  0  0
  187.3080  178.3410  146.7430 C   0  0  1  0  0  3  0  0  0  0  0  0
  188.9170  176.4820  147.3010 C   0  0  0  0  0  2  0  0  0  0  0  0
  190.9570  178.2930  144.4780 C   0  0  0  0  0  2  0  0  0  0  0  0
  190.6720  178.3930  142.9880 C   0  0  0  0  0  2  0  0  0  0  0  0
  191.4820  177.3590  142.2210 C   0  0  0  0  0  2  0  0  0  0  0  0
  190.8450  177.0460  140.8750 C   0  0  2  0  0  3  0  0  0  0  0  0
  191.5900  177.6400  139.8730 F   0  0  0  0  0  0  0  0  0  0  0  0
  189.4210  177.5760  140.8330 C   0  0  0  0  0  2  0  0  0  0  0  0
  189.1190  178.1460  139.4610 C   0  0  0  0  0  1  0  0  0  0  0  0
  186.3910  177.3780  143.3260 C   0  0  0  0  0  2  0  0  0  0  0  0
  185.6470  178.5330  142.6840 C   0  0  0  0  0  2  0  0  0  0  0  0
  184.2780  178.0680  142.2380 C   0  0  0  0  0  2  0  0  0  0  0  0
  183.2160  178.8080  143.0220 C   0  0  0  0  0  2  0  0  0  0  0  0
  181.9580  178.9190  142.1880 C   0  0  0  0  0  2  0  0  0  0  0  0
  182.0840  178.0340  140.9680 C   0  0  0  0  0  2  0  0  0  0  0  0
  181.2030  178.5760  139.8580 C   0  0  0  0  0  2  0  0  0  0  0  0
  182.0080  179.0570  138.7880 O   0  0  0  0  0  0  0  0  0  0  0  0
  185.4860  177.1480  137.3600 C   0  0  0  0  0  0  0  0  0  0  0  0
  183.0680  177.3250  137.4970 C   0  0  0  0  0  0  0  0  0  0  0  0
  184.4830  178.9280  138.6610 C   0  0  0  0  0  0  0  0  0  0  0  0
  183.1920  178.4500  138.3310 C   0  0  0  0  0  0  0  0  0  0  0  0
  186.6190  176.5010  136.8850 O   0  0  0  0  0  1  0  0  0  0  0  0
  184.6630  180.0560  139.4530 O   0  0  0  0  0  1  0  0  0  0  0  0
  184.2190  176.6790  137.0190 C   0  0  0  0  0  3  0  0  0  0  0  0
  185.6170  178.2700  138.1770 C   0  0  0  0  0  3  0  0  0  0  0  0
  181.7910  176.8620  137.1630 O   0  0  0  0  0  0  0  0  0  0  0  0
  181.2740  175.6210  137.6260 C   0  0  0  0  0  1  0  0  0  0  0  0
  1  8  2  0  0  0  0
  3  2  1  1  0  0  0
  4  1  1  6  0  0  0
  4 10  1  0  0  0  0
  5 12  1  6  0  0  0
  5  7  1  0  0  0  0
  6 19  1  6  0  0  0
  6  4  1  0  0  0  0
  7 11  1  0  0  0  0
  9  6  1  0  0  0  0
  9  5  1  0  0  0  0
 10  1  1  1  0  0  0
 10  3  1  0  0  0  0
 11  3  1  0  0  0  0
 13 12  1  0  0  0  0
 14 13  1  0  0  0  0
 15 16  1  6  0  0  0
 15 14  1  0  0  0  0
 17 15  1  0  0  0  0
 18 17  1  0  0  0  0
 20 19  1  0  0  0  0
 21 20  1  0  0  0  0
 21 22  1  0  0  0  0
 23 22  1  0  0  0  0
 24 23  1  0  0  0  0
 25 24  1  0  0  0  0
 26 25  1  0  0  0  0
 27 34  1  0  0  0  0
 28 30  2  0  0  0  0
 29 32  1  0  0  0  0
 30 29  1  0  0  0  0
 30 26  1  0  0  0  0
 31 27  1  0  0  0  0
 33 27  2  0  0  0  0
 33 28  1  0  0  0  0
 34 29  2  0  0  0  0
 35 28  1  0  0  0  0
 35 36  1  0  0  0  0
M  END
>  <MODEL>
2

>  <REMARK>
 VINA RESULT:      -7.5      1.696      2.581
  Name = 
  15 active torsions:
  status: ('A' for Active; 'I' for Inactive)
    1  A    between atoms: C_2  and  C_13
    2  A    between atoms: C_3  and  C_14
    3  A    between atoms: C_3  and  C_24
    4  A    between atoms: C_6  and  C_26
    5  A    between atoms: C_6  and  C_32
    6  A    between atoms: C_7  and  O_33
    7  A    between atoms: C_10  and  O_21
    8  A    between atoms: C_11  and  C_26
    9  A    between atoms: C_11  and  C_29
   10  A    between atoms: C_13  and  C_24
   11  A    between atoms: C_14  and  C_15
   12  A    between atoms: C_16  and  C_27
   13  A    between atoms: C_18  and  C_27
   14  A    between atoms: C_18  and  C_29
   15  A    between atoms: O_21  and  C_32
                            x       y       z     vdW  Elec       q    Type
                         _______ _______ _______ _____ _____    ______ ____

>  <TORSDO>
F 15

$$$$
=
 OpenBabel10222419593D

 36 38  0  0  1  0  0  0  0  0999 V2000
  188.7620  177.8320  146.4590 C   0  0  0  0  0  0  0  0  0  0  0  0
  191.7530  177.4550  144.4910 C   0  0  0  0  0  1  0  0  0  0  0  0
  190.3950  176.8090  144.6820 C   0  0  1  0  0  3  0  0  0  0  0  0
  188.1240  177.1870  145.2260 C   0  0  1  0  0  3  0  0  0  0  0  0
  188.5700  178.0350  142.3250 C   0  0  2  0  0  3  0  0  0  0  0  0
  187.1240  177.9880  144.4110 C   0  0  1  0  0  3  0  0  0  0  0  0
  189.6480  176.9420  142.1620 C   0  0  0  0  0  2  0  0  0  0  0  0
  188.7740  178.1060  147.6470 O   0  0  0  0  0  0  0  0  0  0  0  0
  187.2510  177.5420  142.9450 C   0  0  0  0  0  2  0  0  0  0  0  0
  189.3720  177.8670  145.0590 C   0  0  1  0  0  3  0  0  0  0  0  0
  189.9630  176.0670  143.3960 C   0  0  0  0  0  2  0  0  0  0  0  0
  188.3090  178.6790  140.9770 C   0  0  0  0  0  2  0  0  0  0  0  0
  188.5350  177.6760  139.8570 C   0  0  0  0  0  2  0  0  0  0  0  0
  189.2510  178.3360  138.6890 C   0  0  0  0  0  2  0  0  0  0  0  0
  189.9880  177.3100  137.8410 C   0  0  2  0  0  3  0  0  0  0  0  0
  189.0700  176.6090  137.0810 F   0  0  0  0  0  0  0  0  0  0  0  0
  190.7530  176.3460  138.7330 C   0  0  0  0  0  2  0  0  0  0  0  0
  192.2340  176.4070  138.4130 C   0  0  0  0  0  1  0  0  0  0  0  0
  185.7130  177.7050  144.8920 C   0  0  0  0  0  2  0  0  0  0  0  0
  184.7100  178.5180  144.0950 C   0  0  0  0  0  2  0  0  0  0  0  0
  183.5710  178.9410  144.9960 C   0  0  0  0  0  2  0  0  0  0  0  0
  182.2890  178.9910  144.1940 C   0  0  0  0  0  2  0  0  0  0  0  0
  182.5980  178.7450  142.7330 C   0  0  0  0  0  2  0  0  0  0  0  0
  181.3330  178.9030  141.9180 C   0  0  0  0  0  2  0  0  0  0  0  0
  181.6190  178.5600  140.4680 C   0  0  0  0  0  2  0  0  0  0  0  0
  182.7400  177.6880  140.3880 O   0  0  0  0  0  0  0  0  0  0  0  0
  185.3570  177.3670  137.0970 C   0  0  0  0  0  0  0  0  0  0  0  0
  183.4410  176.5850  138.3670 C   0  0  0  0  0  0  0  0  0  0  0  0
  184.6920  178.5360  139.1120 C   0  0  0  0  0  0  0  0  0  0  0  0
  183.6330  177.6170  139.3030 C   0  0  0  0  0  0  0  0  0  0  0  0
  186.2120  177.2390  136.0100 O   0  0  0  0  0  1  0  0  0  0  0  0
  184.9070  179.5950  139.9860 O   0  0  0  0  0  1  0  0  0  0  0  0
  184.3090  176.4650  137.2700 C   0  0  0  0  0  3  0  0  0  0  0  0
  185.5460  178.4000  138.0140 C   0  0  0  0  0  3  0  0  0  0  0  0
  182.3860  175.6840  138.5530 O   0  0  0  0  0  0  0  0  0  0  0  0
  181.1600  175.7750  137.8380 C   0  0  0  0  0  1  0  0  0  0  0  0
  1  8  2  0  0  0  0
  3  2  1  6  0  0  0
  3 10  1  0  0  0  0
  4  1  1  1  0  0  0
  5 12  1  6  0  0  0
  5  9  1  0  0  0  0
  6 19  1  1  0  0  0
  6  4  1  0  0  0  0
  7  5  1  0  0  0  0
  7 11  1  0  0  0  0
  9  6  1  0  0  0  0
 10  4  1  0  0  0  0
 10  1  1  1  0  0  0
 11  3  1  0  0  0  0
 13 12  1  0  0  0  0
 14 13  1  0  0  0  0
 15 16  1  1  0  0  0
 15 14  1  0  0  0  0
 15 17  1  0  0  0  0
 18 17  1  0  0  0  0
 20 19  1  0  0  0  0
 20 21  1  0  0  0  0
 22 21  1  0  0  0  0
 23 22  1  0  0  0  0
 24 23  1  0  0  0  0
 25 24  1  0  0  0  0
 26 25  1  0  0  0  0
 27 33  2  0  0  0  0
 27 34  1  0  0  0  0
 28 35  1  0  0  0  0
 28 30  2  0  0  0  0
 29 30  1  0  0  0  0
 29 32  1  0  0  0  0
 30 26  1  0  0  0  0
 31 27  1  0  0  0  0
 33 28  1  0  0  0  0
 34 29  2  0  0  0  0
 36 35  1  0  0  0  0
M  END
>  <MODEL>
3

>  <REMARK>
 VINA RESULT:      -7.2      2.229      3.674
  Name = 
  15 active torsions:
  status: ('A' for Active; 'I' for Inactive)
    1  A    between atoms: C_2  and  C_13
    2  A    between atoms: C_3  and  C_14
    3  A    between atoms: C_3  and  C_24
    4  A    between atoms: C_6  and  C_26
    5  A    between atoms: C_6  and  C_32
    6  A    between atoms: C_7  and  O_33
    7  A    between atoms: C_10  and  O_21
    8  A    between atoms: C_11  and  C_26
    9  A    between atoms: C_11  and  C_29
   10  A    between atoms: C_13  and  C_24
   11  A    between atoms: C_14  and  C_15
   12  A    between atoms: C_16  and  C_27
   13  A    between atoms: C_18  and  C_27
   14  A    between atoms: C_18  and  C_29
   15  A    between atoms: O_21  and  C_32
                            x       y       z     vdW  Elec       q    Type
                         _______ _______ _______ _____ _____    ______ ____

>  <TORSDO>
F 15

$$$$
=
 OpenBabel10222419593D

 36 38  0  0  1  0  0  0  0  0999 V2000
  190.9840  176.8750  147.0140 C   0  0  0  0  0  0  0  0  0  0  0  0
  187.8270  176.5760  148.7200 C   0  0  0  0  0  1  0  0  0  0  0  0
  188.6240  177.5790  147.9080 C   0  0  1  0  0  3  0  0  0  0  0  0
  190.1860  177.8550  146.1530 C   0  0  1  0  0  3  0  0  0  0  0  0
  187.4390  177.3350  144.9200 C   0  0  2  0  0  3  0  0  0  0  0  0
  189.9590  177.5310  144.6870 C   0  0  1  0  0  3  0  0  0  0  0  0
  186.7600  178.0480  146.1090 C   0  0  0  0  0  2  0  0  0  0  0  0
  192.0320  176.4430  147.4670 O   0  0  0  0  0  0  0  0  0  0  0  0
  188.5980  178.1200  144.2830 C   0  0  0  0  0  2  0  0  0  0  0  0
  189.4640  176.8510  146.8730 C   0  0  1  0  0  3  0  0  0  0  0  0
  187.6780  178.5960  147.2250 C   0  0  0  0  0  2  0  0  0  0  0  0
  186.3900  177.0040  143.8760 C   0  0  0  0  0  2  0  0  0  0  0  0
  186.1870  178.1810  142.9360 C   0  0  0  0  0  2  0  0  0  0  0  0
  184.7120  178.3510  142.6070 C   0  0  0  0  0  2  0  0  0  0  0  0
  184.0700  179.4170  143.4830 C   0  0  2  0  0  3  0  0  0  0  0  0
  185.0610  180.1060  144.1560 F   0  0  0  0  0  0  0  0  0  0  0  0
  183.1250  178.7730  144.4840 C   0  0  0  0  0  2  0  0  0  0  0  0
  181.7100  178.7770  143.9400 C   0  0  0  0  0  1  0  0  0  0  0  0
  191.0430  178.1680  143.8370 C   0  0  0  0  0  2  0  0  0  0  0  0
  191.6840  177.1320  142.9340 C   0  0  0  0  0  2  0  0  0  0  0  0
  190.6110  176.4270  142.1330 C   0  0  0  0  0  2  0  0  0  0  0  0
  190.4070  177.1510  140.8200 C   0  0  0  0  0  2  0  0  0  0  0  0
  188.9770  177.6390  140.7290 C   0  0  0  0  0  2  0  0  0  0  0  0
  188.5160  177.5790  139.2890 C   0  0  0  0  0  2  0  0  0  0  0  0
  189.1900  178.6820  138.4960 C   0  0  0  0  0  2  0  0  0  0  0  0
  189.5530  178.2020  137.2060 O   0  0  0  0  0  0  0  0  0  0  0  0
  189.9340  174.1400  136.1390 C   0  0  0  0  0  0  0  0  0  0  0  0
  188.6590  176.2060  136.2020 C   0  0  0  0  0  0  0  0  0  0  0  0
  190.9000  176.1190  137.1480 C   0  0  0  0  0  0  0  0  0  0  0  0
  189.7200  176.8480  136.8660 C   0  0  0  0  0  0  0  0  0  0  0  0
  190.0360  172.8010  135.7850 O   0  0  0  0  0  1  0  0  0  0  0  0
  191.9930  176.7120  137.7700 O   0  0  0  0  0  1  0  0  0  0  0  0
  188.7730  174.8530  135.8460 C   0  0  0  0  0  3  0  0  0  0  0  0
  190.9950  174.7730  136.7860 C   0  0  0  0  0  3  0  0  0  0  0  0
  187.4980  176.9320  135.9140 O   0  0  0  0  0  0  0  0  0  0  0  0
  186.2370  176.6330  136.4990 C   0  0  0  0  0  1  0  0  0  0  0  0
  1  8  2  0  0  0  0
  3  2  1  6  0  0  0
  4 10  1  0  0  0  0
  4  1  1  1  0  0  0
  5 12  1  6  0  0  0
  5  7  1  0  0  0  0
  6 19  1  6  0  0  0
  6  4  1  0  0  0  0
  7 11  1  0  0  0  0
  9  6  1  0  0  0  0
  9  5  1  0  0  0  0
 10  1  1  1  0  0  0
 10  3  1  0  0  0  0
 11  3  1  0  0  0  0
 13 12  1  0  0  0  0
 14 13  1  0  0  0  0
 14 15  1  0  0  0  0
 15 16  1  1  0  0  0
 15 17  1  0  0  0  0
 18 17  1  0  0  0  0
 20 19  1  0  0  0  0
 21 20  1  0  0  0  0
 22 21  1  0  0  0  0
 23 22  1  0  0  0  0
 24 23  1  0  0  0  0
 25 24  1  0  0  0  0
 26 25  1  0  0  0  0
 27 34  1  0  0  0  0
 28 30  2  0  0  0  0
 29 32  1  0  0  0  0
 30 29  1  0  0  0  0
 30 26  1  0  0  0  0
 31 27  1  0  0  0  0
 33 27  2  0  0  0  0
 33 28  1  0  0  0  0
 34 29  2  0  0  0  0
 35 28  1  0  0  0  0
 35 36  1  0  0  0  0
M  END
>  <MODEL>
4

>  <REMARK>
 VINA RESULT:      -6.9      2.406      4.624
  Name = 
  15 active torsions:
  status: ('A' for Active; 'I' for Inactive)
    1  A    between atoms: C_2  and  C_13
    2  A    between atoms: C_3  and  C_14
    3  A    between atoms: C_3  and  C_24
    4  A    between atoms: C_6  and  C_26
    5  A    between atoms: C_6  and  C_32
    6  A    between atoms: C_7  and  O_33
    7  A    between atoms: C_10  and  O_21
    8  A    between atoms: C_11  and  C_26
    9  A    between atoms: C_11  and  C_29
   10  A    between atoms: C_13  and  C_24
   11  A    between atoms: C_14  and  C_15
   12  A    between atoms: C_16  and  C_27
   13  A    between atoms: C_18  and  C_27
   14  A    between atoms: C_18  and  C_29
   15  A    between atoms: O_21  and  C_32
                            x       y       z     vdW  Elec       q    Type
                         _______ _______ _______ _____ _____    ______ ____

>  <TORSDO>
F 15

$$$$
=
 OpenBabel10222419593D

 36 38  0  0  1  0  0  0  0  0999 V2000
  185.7310  178.9310  141.8660 C   0  0  0  0  0  0  0  0  0  0  0  0
  183.3560  180.3010  144.1990 C   0  0  0  0  0  1  0  0  0  0  0  0
  183.9640  178.9700  143.8000 C   0  0  1  0  0  3  0  0  0  0  0  0
  185.8990  177.8890  142.9730 C   0  0  1  0  0  3  0  0  0  0  0  0
  186.3230  178.4790  145.9410 C   0  0  2  0  0  3  0  0  0  0  0  0
  187.2380  177.7750  143.6810 C   0  0  1  0  0  3  0  0  0  0  0  0
  184.8110  178.3040  146.2010 C   0  0  0  0  0  2  0  0  0  0  0  0
  185.8070  179.2890  140.7020 O   0  0  0  0  0  0  0  0  0  0  0  0
  186.9660  177.3410  145.1300 C   0  0  0  0  0  2  0  0  0  0  0  0
  185.3940  179.1790  143.3350 C   0  0  1  0  0  3  0  0  0  0  0  0
  183.9160  177.9770  144.9850 C   0  0  0  0  0  2  0  0  0  0  0  0
  187.0380  178.6480  147.2680 C   0  0  0  0  0  2  0  0  0  0  0  0
  187.8510  177.4060  147.5950 C   0  0  0  0  0  2  0  0  0  0  0  0
  189.2780  177.7850  147.9610 C   0  0  0  0  0  2  0  0  0  0  0  0
  190.2860  176.9010  147.2410 C   0  0  2  0  0  3  0  0  0  0  0  0
  191.4980  176.9650  147.9040 F   0  0  0  0  0  0  0  0  0  0  0  0
  190.4640  177.3710  145.8070 C   0  0  0  0  0  2  0  0  0  0  0  0
  191.5540  176.5650  145.1280 C   0  0  0  0  0  1  0  0  0  0  0  0
  188.0970  176.7230  143.0040 C   0  0  0  0  0  2  0  0  0  0  0  0
  188.8940  177.3410  141.8700 C   0  0  0  0  0  2  0  0  0  0  0  0
  190.1700  176.5560  141.6620 C   0  0  0  0  0  2  0  0  0  0  0  0
  190.7810  176.9340  140.3300 C   0  0  0  0  0  2  0  0  0  0  0  0
  189.7130  177.5310  139.4380 C   0  0  0  0  0  2  0  0  0  0  0  0
  190.0120  177.1830  137.9960 C   0  0  0  0  0  2  0  0  0  0  0  0
  189.2000  175.9680  137.5910 C   0  0  0  0  0  2  0  0  0  0  0  0
  188.1790  176.3480  136.6750 O   0  0  0  0  0  0  0  0  0  0  0  0
  184.0670  176.5720  137.5800 C   0  0  0  0  0  0  0  0  0  0  0  0
  186.0130  175.3150  136.8530 C   0  0  0  0  0  0  0  0  0  0  0  0
  186.2230  177.6680  137.4420 C   0  0  0  0  0  0  0  0  0  0  0  0
  186.8130  176.4630  136.9890 C   0  0  0  0  0  0  0  0  0  0  0  0
  182.7090  176.6270  137.8660 O   0  0  0  0  0  1  0  0  0  0  0  0
  186.9730  178.8230  137.6270 O   0  0  0  0  0  1  0  0  0  0  0  0
  184.6420  175.3790  137.1480 C   0  0  0  0  0  3  0  0  0  0  0  0
  184.8560  177.7120  137.7280 C   0  0  0  0  0  3  0  0  0  0  0  0
  186.6020  174.1230  136.4170 O   0  0  0  0  0  0  0  0  0  0  0  0
  186.7500  172.9840  137.2550 C   0  0  0  0  0  1  0  0  0  0  0  0
  3  2  1  1  0  0  0
  3 11  1  0  0  0  0
  4  1  1  6  0  0  0
  4 10  1  0  0  0  0
  4  6  1  0  0  0  0
  5  7  1  0  0  0  0
  5 12  1  1  0  0  0
  6 19  1  6  0  0  0
  6  9  1  0  0  0  0
  8  1  2  0  0  0  0
  9  5  1  0  0  0  0
 10  1  1  6  0  0  0
 10  3  1  0  0  0  0
 11  7  1  0  0  0  0
 12 13  1  0  0  0  0
 13 14  1  0  0  0  0
 15 16  1  1  0  0  0
 15 14  1  0  0  0  0
 17 15  1  0  0  0  0
 18 17  1  0  0  0  0
 20 19  1  0  0  0  0
 21 20  1  0  0  0  0
 22 21  1  0  0  0  0
 23 22  1  0  0  0  0
 24 23  1  0  0  0  0
 25 24  1  0  0  0  0
 26 30  1  0  0  0  0
 26 25  1  0  0  0  0
 27 34  1  0  0  0  0
 27 31  1  0  0  0  0
 28 30  2  0  0  0  0
 28 33  1  0  0  0  0
 29 32  1  0  0  0  0
 29 34  2  0  0  0  0
 30 29  1  0  0  0  0
 33 27  2  0  0  0  0
 35 28  1  0  0  0  0
 35 36  1  0  0  0  0
M  END
>  <MODEL>
5

>  <REMARK>
 VINA RESULT:      -6.9      2.258      5.006
  Name = 
  15 active torsions:
  status: ('A' for Active; 'I' for Inactive)
    1  A    between atoms: C_2  and  C_13
    2  A    between atoms: C_3  and  C_14
    3  A    between atoms: C_3  and  C_24
    4  A    between atoms: C_6  and  C_26
    5  A    between atoms: C_6  and  C_32
    6  A    between atoms: C_7  and  O_33
    7  A    between atoms: C_10  and  O_21
    8  A    between atoms: C_11  and  C_26
    9  A    between atoms: C_11  and  C_29
   10  A    between atoms: C_13  and  C_24
   11  A    between atoms: C_14  and  C_15
   12  A    between atoms: C_16  and  C_27
   13  A    between atoms: C_18  and  C_27
   14  A    between atoms: C_18  and  C_29
   15  A    between atoms: O_21  and  C_32
                            x       y       z     vdW  Elec       q    Type
                         _______ _______ _______ _____ _____    ______ ____

>  <TORSDO>
F 15

$$$$
=
 OpenBabel10222419593D

 36 38  0  0  1  0  0  0  0  0999 V2000
  183.1590  178.9910  144.6400 C   0  0  0  0  0  0  0  0  0  0  0  0
  179.6000  178.5550  144.3180 C   0  0  0  0  0  1  0  0  0  0  0  0
  180.7360  179.3560  143.7120 C   0  0  1  0  0  3  0  0  0  0  0  0
  183.0360  179.3530  143.1590 C   0  0  1  0  0  3  0  0  0  0  0  0
  181.5360  177.7450  141.0380 C   0  0  2  0  0  3  0  0  0  0  0  0
  183.7120  178.4690  142.1260 C   0  0  1  0  0  3  0  0  0  0  0  0
  180.2970  178.6490  141.2150 C   0  0  0  0  0  2  0  0  0  0  0  0
  183.7330  179.0330  145.7160 O   0  0  0  0  0  0  0  0  0  0  0  0
  182.8590  178.5060  140.8480 C   0  0  0  0  0  2  0  0  0  0  0  0
  182.0140  178.5360  143.7380 C   0  0  1  0  0  3  0  0  0  0  0  0
  180.3890  179.7790  142.2650 C   0  0  0  0  0  2  0  0  0  0  0  0
  181.2990  176.8020  139.8730 C   0  0  0  0  0  2  0  0  0  0  0  0
  182.5660  176.0260  139.5530 C   0  0  0  0  0  2  0  0  0  0  0  0
  182.8210  176.0190  138.0530 C   0  0  0  0  0  2  0  0  0  0  0  0
  183.9800  176.9330  137.6850 C   0  0  2  0  0  3  0  0  0  0  0  0
  183.4790  178.1410  137.2370 F   0  0  0  0  0  0  0  0  0  0  0  0
  184.8240  176.2950  136.5940 C   0  0  0  0  0  2  0  0  0  0  0  0
  186.2670  176.1880  137.0480 C   0  0  0  0  0  1  0  0  0  0  0  0
  185.0980  179.0010  141.8100 C   0  0  0  0  0  2  0  0  0  0  0  0
  185.3130  179.0570  140.3100 C   0  0  0  0  0  2  0  0  0  0  0  0
  186.6470  178.4310  139.9660 C   0  0  0  0  0  2  0  0  0  0  0  0
  187.5010  178.3550  141.2130 C   0  0  0  0  0  2  0  0  0  0  0  0
  188.9550  178.1970  140.8210 C   0  0  0  0  0  2  0  0  0  0  0  0
  189.5750  177.0780  141.6280 C   0  0  0  0  0  2  0  0  0  0  0  0
  189.9690  177.6000  142.9960 C   0  0  0  0  0  2  0  0  0  0  0  0
  189.5310  176.6980  144.0060 O   0  0  0  0  0  0  0  0  0  0  0  0
  188.3020  177.7970  147.8860 C   0  0  0  0  0  0  0  0  0  0  0  0
  190.0270  177.1030  146.3250 C   0  0  0  0  0  0  0  0  0  0  0  0
  187.7390  177.4260  145.5590 C   0  0  0  0  0  0  0  0  0  0  0  0
  189.0820  177.0720  145.2840 C   0  0  0  0  0  0  0  0  0  0  0  0
  187.9160  178.1500  149.1730 O   0  0  0  0  0  1  0  0  0  0  0  0
  186.7710  177.4470  144.5620 O   0  0  0  0  0  1  0  0  0  0  0  0
  189.6280  177.4630  147.6220 C   0  0  0  0  0  3  0  0  0  0  0  0
  187.3610  177.7810  146.8570 C   0  0  0  0  0  3  0  0  0  0  0  0
  191.3560  176.7630  146.0480 O   0  0  0  0  0  0  0  0  0  0  0  0
  192.1050  175.8610  146.8520 C   0  0  0  0  0  1  0  0  0  0  0  0
  1  8  2  0  0  0  0
  3 10  1  0  0  0  0
  3  2  1  6  0  0  0
  4 10  1  0  0  0  0
  4  1  1  1  0  0  0
  5 12  1  6  0  0  0
  5  7  1  0  0  0  0
  6 19  1  6  0  0  0
  6  4  1  0  0  0  0
  7 11  1  0  0  0  0
  9  5  1  0  0  0  0
  9  6  1  0  0  0  0
 10  1  1  1  0  0  0
 11  3  1  0  0  0  0
 13 12  1  0  0  0  0
 14 13  1  0  0  0  0
 15 16  1  6  0  0  0
 15 14  1  0  0  0  0
 17 18  1  0  0  0  0
 17 15  1  0  0  0  0
 20 19  1  0  0  0  0
 21 20  1  0  0  0  0
 21 22  1  0  0  0  0
 23 22  1  0  0  0  0
 23 24  1  0  0  0  0
 24 25  1  0  0  0  0
 25 26  1  0  0  0  0
 26 30  1  0  0  0  0
 27 31  1  0  0  0  0
 28 33  2  0  0  0  0
 29 34  1  0  0  0  0
 30 29  2  0  0  0  0
 30 28  1  0  0  0  0
 32 29  1  0  0  0  0
 33 27  1  0  0  0  0
 34 27  2  0  0  0  0
 35 28  1  0  0  0  0
 35 36  1  0  0  0  0
M  END
>  <MODEL>
6

>  <REMARK>
 VINA RESULT:      -6.8      3.192      8.158
  Name = 
  15 active torsions:
  status: ('A' for Active; 'I' for Inactive)
    1  A    between atoms: C_2  and  C_13
    2  A    between atoms: C_3  and  C_14
    3  A    between atoms: C_3  and  C_24
    4  A    between atoms: C_6  and  C_26
    5  A    between atoms: C_6  and  C_32
    6  A    between atoms: C_7  and  O_33
    7  A    between atoms: C_10  and  O_21
    8  A    between atoms: C_11  and  C_26
    9  A    between atoms: C_11  and  C_29
   10  A    between atoms: C_13  and  C_24
   11  A    between atoms: C_14  and  C_15
   12  A    between atoms: C_16  and  C_27
   13  A    between atoms: C_18  and  C_27
   14  A    between atoms: C_18  and  C_29
   15  A    between atoms: O_21  and  C_32
                            x       y       z     vdW  Elec       q    Type
                         _______ _______ _______ _____ _____    ______ ____

>  <TORSDO>
F 15

$$$$
=
 OpenBabel10222419593D

 36 38  0  0  1  0  0  0  0  0999 V2000
  189.2920  177.8160  146.5180 C   0  0  0  0  0  0  0  0  0  0  0  0
  191.9530  177.6540  144.0980 C   0  0  0  0  0  1  0  0  0  0  0  0
  190.6960  176.9070  144.5010 C   0  0  1  0  0  3  0  0  0  0  0  0
  188.5180  177.1140  145.4000 C   0  0  1  0  0  3  0  0  0  0  0  0
  188.4310  177.9690  142.4680 C   0  0  2  0  0  3  0  0  0  0  0  0
  187.3430  177.8290  144.7570 C   0  0  1  0  0  3  0  0  0  0  0  0
  189.5500  176.9610  142.1320 C   0  0  0  0  0  2  0  0  0  0  0  0
  189.4720  178.1000  147.6900 O   0  0  0  0  0  0  0  0  0  0  0  0
  187.2700  177.3810  143.2880 C   0  0  0  0  0  2  0  0  0  0  0  0
  189.6680  177.8860  145.0390 C   0  0  1  0  0  3  0  0  0  0  0  0
  190.1240  176.1230  143.2960 C   0  0  0  0  0  2  0  0  0  0  0  0
  187.9100  178.5800  141.1810 C   0  0  0  0  0  2  0  0  0  0  0  0
  188.7580  178.1340  140.0010 C   0  0  0  0  0  2  0  0  0  0  0  0
  187.9050  178.0190  138.7470 C   0  0  0  0  0  2  0  0  0  0  0  0
  188.6480  178.5390  137.5240 C   0  0  2  0  0  3  0  0  0  0  0  0
  187.7370  179.0860  136.6410 F   0  0  0  0  0  0  0  0  0  0  0  0
  189.3980  177.4040  136.8460 C   0  0  0  0  0  2  0  0  0  0  0  0
  189.2390  177.5030  135.3410 C   0  0  0  0  0  1  0  0  0  0  0  0
  186.0520  177.4430  145.4550 C   0  0  0  0  0  2  0  0  0  0  0  0
  185.4610  178.6410  146.1740 C   0  0  0  0  0  2  0  0  0  0  0  0
  183.9830  178.7390  145.8640 C   0  0  0  0  0  2  0  0  0  0  0  0
  183.7990  179.0390  144.3920 C   0  0  0  0  0  2  0  0  0  0  0  0
  182.3430  178.8610  144.0190 C   0  0  0  0  0  2  0  0  0  0  0  0
  182.2070  178.8510  142.5120 C   0  0  0  0  0  2  0  0  0  0  0  0
  183.5670  178.6140  141.8840 C   0  0  0  0  0  2  0  0  0  0  0  0
  183.4230  177.8810  140.6730 O   0  0  0  0  0  0  0  0  0  0  0  0
  181.1110  179.0410  137.3430 C   0  0  0  0  0  0  0  0  0  0  0  0
  181.5350  177.5560  139.2170 C   0  0  0  0  0  0  0  0  0  0  0  0
  183.0180  179.4360  138.7830 C   0  0  0  0  0  0  0  0  0  0  0  0
  182.6770  178.3020  139.5580 C   0  0  0  0  0  0  0  0  0  0  0  0
  180.3410  179.4020  136.2450 O   0  0  0  0  0  1  0  0  0  0  0  0
  184.1160  180.2300  139.0950 O   0  0  0  0  0  1  0  0  0  0  0  0
  180.7610  177.9300  138.1070 C   0  0  0  0  0  3  0  0  0  0  0  0
  182.2360  179.7920  137.6810 C   0  0  0  0  0  3  0  0  0  0  0  0
  181.1940  176.4410  139.9910 O   0  0  0  0  0  0  0  0  0  0  0  0
  179.9270  175.8010  139.9060 C   0  0  0  0  0  1  0  0  0  0  0  0
  1  8  2  0  0  0  0
  3  2  1  6  0  0  0
  3 10  1  0  0  0  0
  4  1  1  1  0  0  0
  5 12  1  6  0  0  0
  5  9  1  0  0  0  0
  6  4  1  0  0  0  0
  6 19  1  1  0  0  0
  7  5  1  0  0  0  0
  7 11  1  0  0  0  0
  9  6  1  0  0  0  0
 10  4  1  0  0  0  0
 10  1  1  1  0  0  0
 11  3  1  0  0  0  0
 13 12  1  0  0  0  0
 14 13  1  0  0  0  0
 15 16  1  6  0  0  0
 15 14  1  0  0  0  0
 17 15  1  0  0  0  0
 18 17  1  0  0  0  0
 19 20  1  0  0  0  0
 21 20  1  0  0  0  0
 22 21  1  0  0  0  0
 23 22  1  0  0  0  0
 24 23  1  0  0  0  0
 25 24  1  0  0  0  0
 26 25  1  0  0  0  0
 27 34  2  0  0  0  0
 27 33  1  0  0  0  0
 28 30  1  0  0  0  0
 28 35  1  0  0  0  0
 29 32  1  0  0  0  0
 29 30  2  0  0  0  0
 30 26  1  0  0  0  0
 31 27  1  0  0  0  0
 33 28  2  0  0  0  0
 34 29  1  0  0  0  0
 36 35  1  0  0  0  0
M  END
>  <MODEL>
7

>  <REMARK>
 VINA RESULT:      -6.7      2.664      4.973
  Name = 
  15 active torsions:
  status: ('A' for Active; 'I' for Inactive)
    1  A    between atoms: C_2  and  C_13
    2  A    between atoms: C_3  and  C_14
    3  A    between atoms: C_3  and  C_24
    4  A    between atoms: C_6  and  C_26
    5  A    between atoms: C_6  and  C_32
    6  A    between atoms: C_7  and  O_33
    7  A    between atoms: C_10  and  O_21
    8  A    between atoms: C_11  and  C_26
    9  A    between atoms: C_11  and  C_29
   10  A    between atoms: C_13  and  C_24
   11  A    between atoms: C_14  and  C_15
   12  A    between atoms: C_16  and  C_27
   13  A    between atoms: C_18  and  C_27
   14  A    between atoms: C_18  and  C_29
   15  A    between atoms: O_21  and  C_32
                            x       y       z     vdW  Elec       q    Type
                         _______ _______ _______ _____ _____    ______ ____

>  <TORSDO>
F 15

$$$$
=
 OpenBabel10222419593D

 36 38  0  0  1  0  0  0  0  0999 V2000
  189.0990  177.8230  146.5090 C   0  0  0  0  0  0  0  0  0  0  0  0
  191.7000  177.4640  144.0460 C   0  0  0  0  0  1  0  0  0  0  0  0
  190.4140  176.7950  144.4890 C   0  0  1  0  0  3  0  0  0  0  0  0
  188.2670  177.1380  145.4230 C   0  0  1  0  0  3  0  0  0  0  0  0
  188.1680  177.9280  142.4740 C   0  0  2  0  0  3  0  0  0  0  0  0
  187.1190  177.8990  144.7840 C   0  0  1  0  0  3  0  0  0  0  0  0
  189.2270  176.8540  142.1410 C   0  0  0  0  0  2  0  0  0  0  0  0
  189.3160  178.1250  147.6710 O   0  0  0  0  0  0  0  0  0  0  0  0
  186.9940  177.4220  143.3290 C   0  0  0  0  0  2  0  0  0  0  0  0
  189.4490  177.8390  145.0230 C   0  0  1  0  0  3  0  0  0  0  0  0
  189.7780  176.0140  143.3150 C   0  0  0  0  0  2  0  0  0  0  0  0
  187.6550  178.5350  141.1820 C   0  0  0  0  0  2  0  0  0  0  0  0
  188.6700  178.3450  140.0660 C   0  0  0  0  0  2  0  0  0  0  0  0
  187.9820  177.8680  138.7960 C   0  0  0  0  0  2  0  0  0  0  0  0
  188.9960  177.4460  137.7430 C   0  0  2  0  0  3  0  0  0  0  0  0
  188.3270  177.1070  136.5820 F   0  0  0  0  0  0  0  0  0  0  0  0
  189.7970  176.2520  138.2370 C   0  0  0  0  0  2  0  0  0  0  0  0
  191.2790  176.5730  138.2070 C   0  0  0  0  0  1  0  0  0  0  0  0
  185.8230  177.5980  145.5150 C   0  0  0  0  0  2  0  0  0  0  0  0
  185.1180  178.8860  145.8930 C   0  0  0  0  0  2  0  0  0  0  0  0
  183.8080  178.9850  145.1420 C   0  0  0  0  0  2  0  0  0  0  0  0
  184.0610  179.5710  143.7690 C   0  0  0  0  0  2  0  0  0  0  0  0
  183.5930  178.5950  142.7110 C   0  0  0  0  0  2  0  0  0  0  0  0
  184.1500  179.0070  141.3660 C   0  0  0  0  0  2  0  0  0  0  0  0
  183.1840  178.5950  140.2710 C   0  0  0  0  0  2  0  0  0  0  0  0
  183.1150  177.1760  140.1930 O   0  0  0  0  0  0  0  0  0  0  0  0
  180.1590  174.9580  138.1620 C   0  0  0  0  0  0  0  0  0  0  0  0
  182.4750  175.6190  138.4740 C   0  0  0  0  0  0  0  0  0  0  0  0
  180.7380  176.5140  139.9250 C   0  0  0  0  0  0  0  0  0  0  0  0
  182.1000  176.4510  139.5430 C   0  0  0  0  0  0  0  0  0  0  0  0
  179.2000  174.2250  137.4760 O   0  0  0  0  0  1  0  0  0  0  0  0
  180.3160  177.2930  140.9970 O   0  0  0  0  0  1  0  0  0  0  0  0
  181.4990  174.8790  137.7870 C   0  0  0  0  0  3  0  0  0  0  0  0
  179.7810  175.7710  139.2290 C   0  0  0  0  0  3  0  0  0  0  0  0
  183.8230  175.5500  138.1050 O   0  0  0  0  0  0  0  0  0  0  0  0
  184.4250  176.4710  137.2050 C   0  0  0  0  0  1  0  0  0  0  0  0
  1  8  2  0  0  0  0
  3  2  1  6  0  0  0
  3 10  1  0  0  0  0
  4  1  1  1  0  0  0
  5 12  1  6  0  0  0
  5  9  1  0  0  0  0
  6  4  1  0  0  0  0
  6 19  1  1  0  0  0
  7  5  1  0  0  0  0
  7 11  1  0  0  0  0
  9  6  1  0  0  0  0
 10  4  1  0  0  0  0
 10  1  1  1  0  0  0
 11  3  1  0  0  0  0
 13 12  1  0  0  0  0
 14 13  1  0  0  0  0
 15 16  1  6  0  0  0
 15 17  1  0  0  0  0
 15 14  1  0  0  0  0
 18 17  1  0  0  0  0
 19 20  1  0  0  0  0
 21 20  1  0  0  0  0
 22 21  1  0  0  0  0
 23 22  1  0  0  0  0
 24 23  1  0  0  0  0
 25 24  1  0  0  0  0
 26 25  1  0  0  0  0
 27 34  1  0  0  0  0
 28 30  2  0  0  0  0
 29 32  1  0  0  0  0
 30 29  1  0  0  0  0
 30 26  1  0  0  0  0
 31 27  1  0  0  0  0
 33 27  2  0  0  0  0
 33 28  1  0  0  0  0
 34 29  2  0  0  0  0
 35 28  1  0  0  0  0
 36 35  1  0  0  0  0
M  END
>  <MODEL>
8

>  <REMARK>
 VINA RESULT:      -6.7      2.892      5.022
  Name = 
  15 active torsions:
  status: ('A' for Active; 'I' for Inactive)
    1  A    between atoms: C_2  and  C_13
    2  A    between atoms: C_3  and  C_14
    3  A    between atoms: C_3  and  C_24
    4  A    between atoms: C_6  and  C_26
    5  A    between atoms: C_6  and  C_32
    6  A    between atoms: C_7  and  O_33
    7  A    between atoms: C_10  and  O_21
    8  A    between atoms: C_11  and  C_26
    9  A    between atoms: C_11  and  C_29
   10  A    between atoms: C_13  and  C_24
   11  A    between atoms: C_14  and  C_15
   12  A    between atoms: C_16  and  C_27
   13  A    between atoms: C_18  and  C_27
   14  A    between atoms: C_18  and  C_29
   15  A    between atoms: O_21  and  C_32
                            x       y       z     vdW  Elec       q    Type
                         _______ _______ _______ _____ _____    ______ ____

>  <TORSDO>
F 15

$$$$
=
 OpenBabel10222419593D

 36 38  0  0  1  0  0  0  0  0999 V2000
  191.0830  177.5030  140.5690 C   0  0  0  0  0  0  0  0  0  0  0  0
  192.0410  176.3060  137.3110 C   0  0  0  0  0  1  0  0  0  0  0  0
  190.9620  176.1030  138.3570 C   0  0  1  0  0  3  0  0  0  0  0  0
  189.6870  177.1380  140.0590 C   0  0  1  0  0  3  0  0  0  0  0  0
  188.5010  177.9280  137.3570 C   0  0  2  0  0  3  0  0  0  0  0  0
  188.6600  178.2420  139.8700 C   0  0  1  0  0  3  0  0  0  0  0  0
  188.9180  176.5640  136.7650 C   0  0  0  0  0  2  0  0  0  0  0  0
  191.8820  177.7100  141.4670 O   0  0  0  0  0  0  0  0  0  0  0  0
  187.7520  177.8390  138.6970 C   0  0  0  0  0  2  0  0  0  0  0  0
  190.7060  177.4070  139.0920 C   0  0  1  0  0  3  0  0  0  0  0  0
  189.6620  175.5840  137.6990 C   0  0  0  0  0  2  0  0  0  0  0  0
  187.6660  178.6770  136.3350 C   0  0  0  0  0  2  0  0  0  0  0  0
  186.9650  177.7010  135.4050 C   0  0  0  0  0  2  0  0  0  0  0  0
  185.5190  177.5020  135.8330 C   0  0  0  0  0  2  0  0  0  0  0  0
  185.2090  176.0300  136.0630 C   0  0  2  0  0  3  0  0  0  0  0  0
  185.6800  175.6570  137.3080 F   0  0  0  0  0  0  0  0  0  0  0  0
  185.8730  175.1810  134.9910 C   0  0  0  0  0  2  0  0  0  0  0  0
  186.5770  173.9990  135.6280 C   0  0  0  0  0  1  0  0  0  0  0  0
  187.8140  178.3870  141.1220 C   0  0  0  0  0  2  0  0  0  0  0  0
  186.3630  178.6290  140.7530 C   0  0  0  0  0  2  0  0  0  0  0  0
  185.6690  179.3590  141.8820 C   0  0  0  0  0  2  0  0  0  0  0  0
  185.4870  178.4170  143.0520 C   0  0  0  0  0  2  0  0  0  0  0  0
  184.2230  178.7810  143.8020 C   0  0  0  0  0  2  0  0  0  0  0  0
  184.4670  178.6520  145.2890 C   0  0  0  0  0  2  0  0  0  0  0  0
  185.9400  178.8630  145.5810 C   0  0  0  0  0  2  0  0  0  0  0  0
  186.5050  177.6730  146.1170 O   0  0  0  0  0  0  0  0  0  0  0  0
  190.5720  177.1300  147.0900 C   0  0  0  0  0  0  0  0  0  0  0  0
  188.7270  176.9670  145.5200 C   0  0  0  0  0  0  0  0  0  0  0  0
  188.3640  177.8770  147.7480 C   0  0  0  0  0  0  0  0  0  0  0  0
  187.8540  177.5100  146.4800 C   0  0  0  0  0  0  0  0  0  0  0  0
  191.9130  176.9370  147.3930 O   0  0  0  0  0  1  0  0  0  0  0  0
  187.5540  178.4510  148.7220 O   0  0  0  0  0  1  0  0  0  0  0  0
  190.0820  176.7780  145.8340 C   0  0  0  0  0  3  0  0  0  0  0  0
  189.7160  177.6800  148.0430 C   0  0  0  0  0  3  0  0  0  0  0  0
  188.2220  176.6150  144.2630 O   0  0  0  0  0  0  0  0  0  0  0  0
  189.0180  176.0020  143.2560 C   0  0  0  0  0  1  0  0  0  0  0  0
  1  8  2  0  0  0  0
  3  2  1  6  0  0  0
  3 10  1  0  0  0  0
  4  1  1  1  0  0  0
  5 12  1  6  0  0  0
  5  9  1  0  0  0  0
  6  4  1  0  0  0  0
  6 19  1  1  0  0  0
  7  5  1  0  0  0  0
  7 11  1  0  0  0  0
  9  6  1  0  0  0  0
 10  4  1  0  0  0  0
 10  1  1  1  0  0  0
 11  3  1  0  0  0  0
 13 14  1  0  0  0  0
 13 12  1  0  0  0  0
 14 15  1  0  0  0  0
 15 16  1  1  0  0  0
 17 18  1  0  0  0  0
 17 15  1  0  0  0  0
 20 19  1  0  0  0  0
 20 21  1  0  0  0  0
 21 22  1  0  0  0  0
 22 23  1  0  0  0  0
 23 24  1  0  0  0  0
 24 25  1  0  0  0  0
 25 26  1  0  0  0  0
 26 30  1  0  0  0  0
 27 31  1  0  0  0  0
 27 34  1  0  0  0  0
 28 33  1  0  0  0  0
 28 30  2  0  0  0  0
 29 34  2  0  0  0  0
 29 32  1  0  0  0  0
 30 29  1  0  0  0  0
 33 27  2  0  0  0  0
 35 28  1  0  0  0  0
 36 35  1  0  0  0  0
M  END
>  <MODEL>
9

>  <REMARK>
 VINA RESULT:      -6.7      2.798      8.096
  Name = 
  15 active torsions:
  status: ('A' for Active; 'I' for Inactive)
    1  A    between atoms: C_2  and  C_13
    2  A    between atoms: C_3  and  C_14
    3  A    between atoms: C_3  and  C_24
    4  A    between atoms: C_6  and  C_26
    5  A    between atoms: C_6  and  C_32
    6  A    between atoms: C_7  and  O_33
    7  A    between atoms: C_10  and  O_21
    8  A    between atoms: C_11  and  C_26
    9  A    between atoms: C_11  and  C_29
   10  A    between atoms: C_13  and  C_24
   11  A    between atoms: C_14  and  C_15
   12  A    between atoms: C_16  and  C_27
   13  A    between atoms: C_18  and  C_27
   14  A    between atoms: C_18  and  C_29
   15  A    between atoms: O_21  and  C_32
                            x       y       z     vdW  Elec       q    Type
                         _______ _______ _______ _____ _____    ______ ____

>  <TORSDO>
F 15

$$$$
