=
 OpenBabel10222415553D

 70 76  0  0  1  0  0  0  0  0999 V2000
  184.7690  177.7430  139.1970 C   0  0  0  0  0  2  0  0  0  0  0  0
  185.8630  178.0820  136.9690 C   0  0  0  0  0  0  0  0  0  0  0  0
  184.6930  180.0180  138.0550 C   0  0  0  0  0  2  0  0  0  0  0  0
  185.0670  178.6000  138.0440 N   0  0  0  0  0  0  0  0  0  0  0  0
  183.3030  179.5980  140.1570 C   0  0  2  0  0  3  0  0  0  0  0  0
  186.3700  176.7470  137.0340 N   0  0  0  0  0  2  0  0  0  0  0  0
  183.3420  180.2020  138.7450 C   0  0  0  0  0  2  0  0  0  0  0  0
  184.4430  178.5900  140.4230 C   0  0  1  0  0  3  0  0  0  0  0  0
  186.1310  178.8080  135.9730 O   0  0  0  0  0  0  0  0  0  0  0  0
  188.7850  173.9070  135.9270 C   0  0  1  0  0  3  0  0  0  0  0  0
  187.7330  174.8020  136.4650 C   0  0  2  0  0  0  0  0  0  0  0  0
  188.8880  172.6310  136.7750 C   0  0  0  0  0  2  0  0  0  0  0  0
  188.8460  176.4880  137.7620 O   0  0  0  0  0  1  0  0  0  0  0  0
  186.5430  172.9980  135.5050 C   0  0  0  0  0  2  0  0  0  0  0  0
  188.4850  171.4180  135.9390 C   0  0  0  0  0  2  0  0  0  0  0  0
  187.2400  176.1870  136.0030 C   0  0  2  0  0  3  0  0  0  0  0  0
  187.5250  174.0440  135.1970 N   0  0  2  0  0  0  0  0  0  0  0  0
  187.1270  171.6080  135.2550 C   0  0  0  0  0  2  0  0  0  0  0  0
  188.6460  176.0440  136.4490 C   0  0  2  0  0  3  0  0  0  0  0  0
  181.9310  178.9870  140.3980 C   0  0  0  0  0  2  0  0  0  0  0  0
  182.0090  177.5410  140.2760 N   0  0  0  0  0  2  0  0  0  0  0  0
  179.6840  177.0310  136.4920 O   0  0  0  0  0  1  0  0  0  0  0  0
  180.9820  177.1350  139.3330 C   0  0  2  0  0  3  0  0  0  0  0  0
  181.8050  176.2750  137.2440 N   0  0  0  0  0  0  0  0  0  0  0  0
  181.4380  175.8820  138.6000 C   0  0  0  0  0  2  0  0  0  0  0  0
  180.8400  178.1920  138.2570 C   0  0  1  0  0  3  0  0  0  0  0  0
  180.9510  177.4300  136.9440 C   0  0  0  0  0  0  0  0  0  0  0  0
  181.5600  178.2360  135.9830 O   0  0  0  0  0  1  0  0  0  0  0  0
  181.5530  175.1470  136.3510 C   0  0  0  0  0  2  0  0  0  0  0  0
  181.1290  174.0460  137.1000 O   0  0  0  0  0  0  0  0  0  0  0  0
  182.0820  173.0580  136.8400 C   0  0  0  0  0  2  0  0  0  0  0  0
  182.4760  171.3200  135.2510 O   0  0  0  0  0  1  0  0  0  0  0  0
  181.4710  171.9720  135.9680 C   0  0  0  0  0  2  0  0  0  0  0  0
  179.5450  178.9890  138.4030 C   0  0  0  0  0  2  0  0  0  0  0  0
  179.7870  180.4810  138.2140 C   0  0  0  0  0  2  0  0  0  0  0  0
  178.9950  181.0060  137.0240 C   0  0  0  0  0  2  0  0  0  0  0  0
  179.9160  181.6380  135.9940 C   0  0  0  0  0  2  0  0  0  0  0  0
  180.8410  182.6330  136.6740 C   0  0  0  0  0  2  0  0  0  0  0  0
  180.8760  183.9200  135.8760 C   0  0  0  0  0  1  0  0  0  0  0  0
  184.1700  177.7530  141.5450 O   0  0  0  0  0  0  0  0  0  0  0  0
  185.7040  177.9820  143.3860 C   0  0  0  0  0  3  0  0  0  0  0  0
  185.9910  178.3680  144.6990 C   0  0  0  0  0  0  0  0  0  0  0  0
  184.4170  178.1460  142.8630 C   0  0  0  0  0  0  0  0  0  0  0  0
  183.6910  179.0970  144.9770 C   0  0  0  0  0  3  0  0  0  0  0  0
  183.4100  178.7080  143.6640 C   0  0  0  0  0  3  0  0  0  0  0  0
  184.9750  178.9250  145.4950 C   0  0  0  0  0  3  0  0  0  0  0  0
  187.6710  177.2070  146.0430 C   0  0  0  0  0  3  0  0  0  0  0  0
  187.3570  178.1870  145.2070 C   0  0  0  0  0  3  0  0  0  0  0  0
  189.0610  177.0570  146.5520 C   0  0  0  0  0  2  0  0  0  0  0  0
  189.5360  176.7070  144.1120 C   0  0  0  0  0  2  0  0  0  0  0  0
  191.4190  178.1720  143.1670 C   0  0  0  0  0  2  0  0  0  0  0  0
  190.2360  178.7020  145.2540 O   0  0  0  0  0  0  0  0  0  0  0  0
  191.4570  178.8240  144.5620 C   0  0  2  0  0  3  0  0  0  0  0  0
  190.0340  177.3250  145.4210 C   0  0  1  0  0  3  0  0  0  0  0  0
  191.8290  180.2820  144.4300 C   0  0  0  0  0  1  0  0  0  0  0  0
  190.0900  177.4570  142.8880 C   0  0  1  0  0  3  0  0  0  0  0  0
  190.2370  176.5340  141.7220 C   0  0  0  0  0  0  0  0  0  0  0  0
  190.9220  176.9700  140.5450 N   0  0  0  0  0  2  0  0  0  0  0  0
  189.7170  175.3870  141.7670 O   0  0  0  0  0  0  0  0  0  0  0  0
  190.9300  176.2320  139.4080 O   0  0  0  0  0  0  0  0  0  0  0  0
  192.2620  176.2390  138.9870 C   0  0  0  0  0  2  0  0  0  0  0  0
  192.4410  175.3290  137.7740 C   0  0  0  0  0  2  0  0  0  0  0  0
  194.7240  174.6180  138.6030 C   0  0  0  0  0  1  0  0  0  0  0  0
  193.9070  175.0810  137.4100 C   0  0  1  0  0  3  0  0  0  0  0  0
  194.0860  173.9220  136.0200 S   0  0  0  0  0  0  0  0  0  0  0  0
  195.8860  174.1380  135.9650 C   0  0  1  0  0  3  0  0  0  0  0  0
  196.4700  173.3270  136.9210 F   0  0  0  0  0  0  0  0  0  0  0  0
  196.4170  173.7540  134.5960 C   0  0  0  0  0  2  0  0  0  0  0  0
  196.0550  170.8550  135.0950 O   0  0  0  0  0  0  0  0  0  0  0  0
  196.9980  171.9850  134.6000 P   0  0  0  0  0  0  0  0  0  0  0  0
  1  8  1  0  0  0  0
  2  6  1  0  0  0  0
  2  4  1  0  0  0  0
  3  7  1  0  0  0  0
  4  3  1  0  0  0  0
  4  1  1  0  0  0  0
  5 20  1  6  0  0  0
  5  8  1  0  0  0  0
  7  5  1  0  0  0  0
  8 40  1  1  0  0  0
  9  2  2  0  0  0  0
 10 11  1  0  0  0  0
 10 12  1  1  0  0  0
 15 12  1  0  0  0  0
 16 19  1  0  0  0  0
 16 11  1  0  0  0  0
 16  6  1  0  0  0  0
 17 14  1  0  0  0  0
 17 10  1  0  0  0  0
 17 11  1  0  0  0  0
 18 14  1  0  0  0  0
 18 15  1  0  0  0  0
 19 11  1  0  0  0  0
 19 13  1  0  0  0  0
 21 20  1  0  0  0  0
 22 27  1  0  0  0  0
 23 21  1  0  0  0  0
 24 25  1  0  0  0  0
 25 23  1  0  0  0  0
 26 34  1  0  0  0  0
 26 23  1  0  0  0  0
 27 24  1  0  0  0  0
 27 26  1  0  0  0  0
 28 27  1  0  0  0  0
 29 30  1  0  0  0  0
 29 24  1  0  0  0  0
 31 30  1  0  0  0  0
 32 33  1  0  0  0  0
 33 31  1  0  0  0  0
 35 34  1  0  0  0  0
 36 35  1  0  0  0  0
 37 38  1  0  0  0  0
 37 36  1  0  0  0  0
 39 38  1  0  0  0  0
 40 43  1  0  0  0  0
 41 42  1  0  0  0  0
 42 48  1  0  0  0  0
 42 46  2  0  0  0  0
 43 41  2  0  0  0  0
 43 45  1  0  0  0  0
 44 46  1  0  0  0  0
 45 44  2  0  0  0  0
 47 49  1  0  0  0  0
 48 47  2  0  0  0  0
 50 54  1  0  0  0  0
 51 53  1  0  0  0  0
 52 54  1  0  0  0  0
 53 52  1  0  0  0  0
 54 49  1  0  0  0  0
 55 53  1  0  0  0  0
 56 51  1  0  0  0  0
 56 50  1  0  0  0  0
 57 59  2  0  0  0  0
 57 56  1  0  0  0  0
 58 57  1  0  0  0  0
 60 58  1  0  0  0  0
 61 60  1  0  0  0  0
 62 61  1  0  0  0  0
 64 62  1  0  0  0  0
 64 63  1  0  0  0  0
 65 64  1  0  0  0  0
 66 65  1  0  0  0  0
 66 67  1  0  0  0  0
 68 70  1  0  0  0  0
 68 66  1  0  0  0  0
 70 69  2  0  0  0  0
M  END
>  <MODEL>
1

>  <REMARK>
 VINA RESULT:      -4.4      0.000      0.000
  Name = 
  27 active torsions:
  status: ('A' for Active; 'I' for Inactive)
    1  A    between atoms: C_5  and  N_32
    2  A    between atoms: C_5  and  O_36
    3  A    between atoms: C_9  and  C_16
    4  A    between atoms: C_10  and  C_11
    5  A    between atoms: C_10  and  S_64
    6  A    between atoms: C_11  and  P_55
    7  A    between atoms: C_14  and  C_23
    8  A    between atoms: C_15  and  C_23
    9  A    between atoms: C_15  and  C_57
   10  A    between atoms: C_16  and  O_36
   11  A    between atoms: C_18  and  C_19
   12  A    between atoms: C_19  and  C_41
   13  A    between atoms: C_20  and  C_65
   14  A    between atoms: N_25  and  O_62
   15  A    between atoms: C_29  and  C_63
   16  A    between atoms: C_30  and  N_31
   17  A    between atoms: N_31  and  C_54
   18  A    between atoms: O_33  and  C_39
   19  A    between atoms: O_33  and  C_58
   20  A    between atoms: C_42  and  C_43
   21  A    between atoms: C_42  and  C_57
   22  A    between atoms: C_45  and  C_54
   23  A    between atoms: N_46  and  C_56
   24  A    between atoms: C_52  and  C_60
   25  A    between atoms: C_52  and  C_61
   26  A    between atoms: C_60  and  S_64
   27  A    between atoms: C_61  and  O_62
                            x       y       z     vdW  Elec       q    Type
                         _______ _______ _______ _____ _____    ______ ____

>  <TORSDO>
F 27

$$$$
=
 OpenBabel10222415553D

 70 76  0  0  1  0  0  0  0  0999 V2000
  187.5740  175.1880  135.7480 C   0  0  0  0  0  2  0  0  0  0  0  0
  188.8520  173.0370  135.8870 C   0  0  0  0  0  0  0  0  0  0  0  0
  186.7010  173.0920  134.5940 C   0  0  0  0  0  2  0  0  0  0  0  0
  187.6870  173.7550  135.4550 N   0  0  0  0  0  0  0  0  0  0  0  0
  185.2380  175.1830  134.7230 C   0  0  2  0  0  3  0  0  0  0  0  0
  189.8950  173.7210  136.5840 N   0  0  0  0  0  2  0  0  0  0  0  0
  185.3060  173.6530  134.8620 C   0  0  0  0  0  2  0  0  0  0  0  0
  186.6240  175.8630  134.7640 C   0  0  1  0  0  3  0  0  0  0  0  0
  188.9640  171.8060  135.6380 O   0  0  0  0  0  0  0  0  0  0  0  0
  193.7700  173.5080  136.3350 C   0  0  1  0  0  3  0  0  0  0  0  0
  192.3280  173.8440  136.4190 C   0  0  2  0  0  0  0  0  0  0  0  0
  194.5450  174.6440  135.6520 C   0  0  0  0  0  2  0  0  0  0  0  0
  191.2360  172.6840  134.6220 O   0  0  0  0  0  1  0  0  0  0  0  0
  193.3630  175.2820  137.9850 C   0  0  0  0  0  2  0  0  0  0  0  0
  195.5200  175.2760  136.6430 C   0  0  0  0  0  2  0  0  0  0  0  0
  191.1320  173.0600  136.9910 C   0  0  2  0  0  3  0  0  0  0  0  0
  193.1960  173.8670  137.6310 N   0  0  2  0  0  0  0  0  0  0  0  0
  194.8370  175.6830  137.9530 C   0  0  0  0  0  2  0  0  0  0  0  0
  191.8800  172.4830  135.8490 C   0  0  2  0  0  3  0  0  0  0  0  0
  184.2970  175.7360  135.7820 C   0  0  0  0  0  2  0  0  0  0  0  0
  183.6090  176.9060  135.2640 N   0  0  0  0  0  2  0  0  0  0  0  0
  179.6130  175.7630  136.9130 O   0  0  0  0  0  1  0  0  0  0  0  0
  182.1840  176.6470  135.3690 C   0  0  2  0  0  3  0  0  0  0  0  0
  181.1340  177.5360  137.3410 N   0  0  0  0  0  0  0  0  0  0  0  0
  181.4920  177.8640  135.9660 C   0  0  0  0  0  2  0  0  0  0  0  0
  181.9480  175.5310  136.3660 C   0  0  1  0  0  3  0  0  0  0  0  0
  180.9130  176.0850  137.3350 C   0  0  0  0  0  0  0  0  0  0  0  0
  181.1340  175.5640  138.6090 O   0  0  0  0  0  1  0  0  0  0  0  0
  179.9300  178.2840  137.6960 C   0  0  0  0  0  2  0  0  0  0  0  0
  179.5450  177.9550  138.9980 O   0  0  0  0  0  0  0  0  0  0  0  0
  180.0770  178.9770  139.7880 C   0  0  0  0  0  2  0  0  0  0  0  0
  180.2780  178.9370  142.1670 O   0  0  0  0  0  1  0  0  0  0  0  0
  180.7870  178.3800  140.9930 C   0  0  0  0  0  2  0  0  0  0  0  0
  181.5240  174.2320  135.6840 C   0  0  0  0  0  2  0  0  0  0  0  0
  181.6370  173.0440  136.6320 C   0  0  0  0  0  2  0  0  0  0  0  0
  183.0510  172.9310  137.1830 C   0  0  0  0  0  2  0  0  0  0  0  0
  183.5670  171.5070  137.0700 C   0  0  0  0  0  2  0  0  0  0  0  0
  183.1400  170.9100  135.7400 C   0  0  0  0  0  2  0  0  0  0  0  0
  184.0950  169.7990  135.3530 C   0  0  0  0  0  1  0  0  0  0  0  0
  186.5300  177.2580  135.0440 O   0  0  0  0  0  0  0  0  0  0  0  0
  186.4290  177.7960  137.3880 C   0  0  0  0  0  3  0  0  0  0  0  0
  186.9830  178.3700  138.5360 C   0  0  0  0  0  0  0  0  0  0  0  0
  187.1130  177.8470  136.1690 C   0  0  0  0  0  0  0  0  0  0  0  0
  188.9250  179.0520  137.2480 C   0  0  0  0  0  3  0  0  0  0  0  0
  188.3660  178.4780  136.1030 C   0  0  0  0  0  3  0  0  0  0  0  0
  188.2350  179.0030  138.4600 C   0  0  0  0  0  3  0  0  0  0  0  0
  185.4520  179.2710  140.2170 C   0  0  0  0  0  3  0  0  0  0  0  0
  186.2360  178.2870  139.7990 C   0  0  0  0  0  3  0  0  0  0  0  0
  184.7190  179.1640  141.5080 C   0  0  0  0  0  2  0  0  0  0  0  0
  185.0300  178.8190  143.9760 C   0  0  0  0  0  2  0  0  0  0  0  0
  187.1660  177.5520  144.6190 C   0  0  0  0  0  2  0  0  0  0  0  0
  186.1960  177.4730  142.3630 O   0  0  0  0  0  0  0  0  0  0  0  0
  187.3920  177.3940  143.1030 C   0  0  2  0  0  3  0  0  0  0  0  0
  185.6930  178.7600  142.5970 C   0  0  1  0  0  3  0  0  0  0  0  0
  188.0810  176.0770  142.8280 C   0  0  0  0  0  1  0  0  0  0  0  0
  185.7020  177.8540  144.9670 C   0  0  1  0  0  3  0  0  0  0  0  0
  185.6030  178.3730  146.3640 C   0  0  0  0  0  0  0  0  0  0  0  0
  186.7590  178.9050  147.0160 N   0  0  0  0  0  2  0  0  0  0  0  0
  184.5050  178.2980  146.9790 O   0  0  0  0  0  0  0  0  0  0  0  0
  186.7540  179.2270  148.3320 O   0  0  0  0  0  0  0  0  0  0  0  0
  188.0050  178.8220  148.8040 C   0  0  0  0  0  2  0  0  0  0  0  0
  188.4760  177.5740  148.0600 C   0  0  0  0  0  2  0  0  0  0  0  0
  190.7950  176.5680  147.9380 C   0  0  0  0  0  1  0  0  0  0  0  0
  189.8910  177.7030  147.4910 C   0  0  1  0  0  3  0  0  0  0  0  0
  189.8940  177.8500  145.6780 S   0  0  0  0  0  0  0  0  0  0  0  0
  191.6520  177.4190  145.5640 C   0  0  1  0  0  3  0  0  0  0  0  0
  191.7980  176.0560  145.7450 F   0  0  0  0  0  0  0  0  0  0  0  0
  192.1960  177.8000  144.2000 C   0  0  0  0  0  2  0  0  0  0  0  0
  190.7470  177.9490  141.6200 O   0  0  0  0  0  0  0  0  0  0  0  0
  191.1260  177.0870  142.8540 P   0  0  0  0  0  0  0  0  0  0  0  0
  2  6  1  0  0  0  0
  3  7  1  0  0  0  0
  3  4  1  0  0  0  0
  4  1  1  0  0  0  0
  4  2  1  0  0  0  0
  5  8  1  0  0  0  0
  5  7  1  0  0  0  0
  5 20  1  1  0  0  0
  6 16  1  0  0  0  0
  8 40  1  1  0  0  0
  8  1  1  0  0  0  0
  9  2  2  0  0  0  0
 10 12  1  6  0  0  0
 10 11  1  0  0  0  0
 10 17  1  0  0  0  0
 11 16  1  0  0  0  0
 11 17  1  0  0  0  0
 12 15  1  0  0  0  0
 13 19  1  0  0  0  0
 15 18  1  0  0  0  0
 17 14  1  0  0  0  0
 18 14  1  0  0  0  0
 19 11  1  0  0  0  0
 19 16  1  0  0  0  0
 21 23  1  0  0  0  0
 21 20  1  0  0  0  0
 22 27  1  0  0  0  0
 23 25  1  0  0  0  0
 23 26  1  0  0  0  0
 24 29  1  0  0  0  0
 25 24  1  0  0  0  0
 26 27  1  0  0  0  0
 27 24  1  0  0  0  0
 27 28  1  0  0  0  0
 29 30  1  0  0  0  0
 30 31  1  0  0  0  0
 31 33  1  0  0  0  0
 33 32  1  0  0  0  0
 34 26  1  0  0  0  0
 34 35  1  0  0  0  0
 35 36  1  0  0  0  0
 37 36  1  0  0  0  0
 38 37  1  0  0  0  0
 39 38  1  0  0  0  0
 40 43  1  0  0  0  0
 41 42  1  0  0  0  0
 42 48  1  0  0  0  0
 43 41  2  0  0  0  0
 44 46  1  0  0  0  0
 45 43  1  0  0  0  0
 45 44  2  0  0  0  0
 46 42  2  0  0  0  0
 47 49  1  0  0  0  0
 48 47  2  0  0  0  0
 49 54  1  0  0  0  0
 50 56  1  0  0  0  0
 51 56  1  0  0  0  0
 52 54  1  0  0  0  0
 52 53  1  0  0  0  0
 53 51  1  0  0  0  0
 54 50  1  0  0  0  0
 55 53  1  0  0  0  0
 56 57  1  0  0  0  0
 57 59  2  0  0  0  0
 57 58  1  0  0  0  0
 58 60  1  0  0  0  0
 60 61  1  0  0  0  0
 62 61  1  0  0  0  0
 64 63  1  0  0  0  0
 64 62  1  0  0  0  0
 65 64  1  0  0  0  0
 66 65  1  0  0  0  0
 66 67  1  0  0  0  0
 68 66  1  0  0  0  0
 69 70  2  0  0  0  0
 70 68  1  0  0  0  0
M  END
>  <MODEL>
2

>  <REMARK>
 VINA RESULT:      -3.4      3.332      7.594
  Name = 
  27 active torsions:
  status: ('A' for Active; 'I' for Inactive)
    1  A    between atoms: C_5  and  N_32
    2  A    between atoms: C_5  and  O_36
    3  A    between atoms: C_9  and  C_16
    4  A    between atoms: C_10  and  C_11
    5  A    between atoms: C_10  and  S_64
    6  A    between atoms: C_11  and  P_55
    7  A    between atoms: C_14  and  C_23
    8  A    between atoms: C_15  and  C_23
    9  A    between atoms: C_15  and  C_57
   10  A    between atoms: C_16  and  O_36
   11  A    between atoms: C_18  and  C_19
   12  A    between atoms: C_19  and  C_41
   13  A    between atoms: C_20  and  C_65
   14  A    between atoms: N_25  and  O_62
   15  A    between atoms: C_29  and  C_63
   16  A    between atoms: C_30  and  N_31
   17  A    between atoms: N_31  and  C_54
   18  A    between atoms: O_33  and  C_39
   19  A    between atoms: O_33  and  C_58
   20  A    between atoms: C_42  and  C_43
   21  A    between atoms: C_42  and  C_57
   22  A    between atoms: C_45  and  C_54
   23  A    between atoms: N_46  and  C_56
   24  A    between atoms: C_52  and  C_60
   25  A    between atoms: C_52  and  C_61
   26  A    between atoms: C_60  and  S_64
   27  A    between atoms: C_61  and  O_62
                            x       y       z     vdW  Elec       q    Type
                         _______ _______ _______ _____ _____    ______ ____

>  <TORSDO>
F 27

$$$$
=
 OpenBabel10222415553D

 70 76  0  0  1  0  0  0  0  0999 V2000
  184.8330  177.6570  138.8630 C   0  0  0  0  0  2  0  0  0  0  0  0
  185.8560  178.1510  136.6300 C   0  0  0  0  0  0  0  0  0  0  0  0
  184.3530  179.8620  137.6830 C   0  0  0  0  0  2  0  0  0  0  0  0
  184.9750  178.5340  137.6960 N   0  0  0  0  0  0  0  0  0  0  0  0
  183.0550  179.2330  139.7920 C   0  0  2  0  0  3  0  0  0  0  0  0
  186.5940  176.9300  136.7170 N   0  0  0  0  0  2  0  0  0  0  0  0
  182.9890  179.8120  138.3700 C   0  0  0  0  0  2  0  0  0  0  0  0
  184.3560  178.4510  140.0750 C   0  0  1  0  0  3  0  0  0  0  0  0
  185.9910  178.8970  135.6220 O   0  0  0  0  0  0  0  0  0  0  0  0
  189.6200  174.6970  135.7270 C   0  0  1  0  0  3  0  0  0  0  0  0
  188.3880  175.3440  136.2400 C   0  0  2  0  0  0  0  0  0  0  0  0
  190.0580  173.5620  136.6640 C   0  0  0  0  0  2  0  0  0  0  0  0
  189.0710  177.3560  137.3560 O   0  0  0  0  0  1  0  0  0  0  0  0
  187.6690  173.2270  135.4710 C   0  0  0  0  0  2  0  0  0  0  0  0
  189.9540  172.2220  135.9410 C   0  0  0  0  0  2  0  0  0  0  0  0
  187.5530  176.5190  135.6960 C   0  0  2  0  0  3  0  0  0  0  0  0
  188.3500  174.4550  135.0430 N   0  0  2  0  0  0  0  0  0  0  0  0
  188.5770  172.0100  135.3020 C   0  0  0  0  0  2  0  0  0  0  0  0
  188.9600  176.7680  136.0910 C   0  0  2  0  0  3  0  0  0  0  0  0
  181.8140  178.3890  140.0430 C   0  0  0  0  0  2  0  0  0  0  0  0
  182.1340  176.9820  139.8710 N   0  0  0  0  0  2  0  0  0  0  0  0
  179.1150  176.2080  136.6660 O   0  0  0  0  0  1  0  0  0  0  0  0
  181.0460  176.3840  139.1170 C   0  0  2  0  0  3  0  0  0  0  0  0
  181.4840  176.0810  136.7720 N   0  0  0  0  0  0  0  0  0  0  0  0
  181.6180  175.4360  138.0730 C   0  0  0  0  0  2  0  0  0  0  0  0
  180.3330  177.4600  138.3240 C   0  0  1  0  0  3  0  0  0  0  0  0
  180.2950  176.9320  136.8970 C   0  0  0  0  0  0  0  0  0  0  0  0
  180.3740  177.9970  135.9990 O   0  0  0  0  0  1  0  0  0  0  0  0
  181.3250  175.0440  135.7560 C   0  0  0  0  0  2  0  0  0  0  0  0
  182.5830  174.6420  135.3000 O   0  0  0  0  0  0  0  0  0  0  0  0
  182.6960  173.3120  135.7140 C   0  0  0  0  0  2  0  0  0  0  0  0
  184.5020  172.4640  137.0260 O   0  0  0  0  0  1  0  0  0  0  0  0
  184.1610  172.9060  135.7460 C   0  0  0  0  0  2  0  0  0  0  0  0
  178.9560  177.7820  138.9020 C   0  0  0  0  0  2  0  0  0  0  0  0
  179.0360  178.0760  140.3950 C   0  0  0  0  0  2  0  0  0  0  0  0
  179.2440  179.5650  140.6370 C   0  0  0  0  0  2  0  0  0  0  0  0
  179.6050  179.8350  142.0880 C   0  0  0  0  0  2  0  0  0  0  0  0
  179.2500  178.6270  142.9390 C   0  0  0  0  0  2  0  0  0  0  0  0
  179.8520  178.7860  144.3200 C   0  0  0  0  0  1  0  0  0  0  0  0
  184.2340  177.5970  141.2100 O   0  0  0  0  0  0  0  0  0  0  0  0
  185.7760  177.8230  143.0450 C   0  0  0  0  0  3  0  0  0  0  0  0
  186.0790  178.2420  144.3440 C   0  0  0  0  0  0  0  0  0  0  0  0
  184.4980  178.0250  142.5140 C   0  0  0  0  0  0  0  0  0  0  0  0
  183.8140  179.0810  144.5920 C   0  0  0  0  0  3  0  0  0  0  0  0
  183.5160  178.6580  143.2930 C   0  0  0  0  0  3  0  0  0  0  0  0
  185.0890  178.8710  145.1180 C   0  0  0  0  0  3  0  0  0  0  0  0
  187.6940  177.1030  145.7840 C   0  0  0  0  0  3  0  0  0  0  0  0
  187.4360  178.0180  144.8610 C   0  0  0  0  0  3  0  0  0  0  0  0
  189.0760  176.9090  146.3000 C   0  0  0  0  0  2  0  0  0  0  0  0
  189.5210  176.7720  143.8320 C   0  0  0  0  0  2  0  0  0  0  0  0
  191.5030  178.1860  143.0230 C   0  0  0  0  0  2  0  0  0  0  0  0
  190.3640  178.5870  145.1620 O   0  0  0  0  0  0  0  0  0  0  0  0
  191.5900  178.6900  144.4760 C   0  0  2  0  0  3  0  0  0  0  0  0
  190.0640  177.2190  145.1930 C   0  0  1  0  0  3  0  0  0  0  0  0
  192.0670  180.1240  144.4860 C   0  0  0  0  0  1  0  0  0  0  0  0
  190.1260  177.5990  142.6840 C   0  0  1  0  0  3  0  0  0  0  0  0
  190.2050  176.7900  141.4320 C   0  0  0  0  0  0  0  0  0  0  0  0
  190.9590  177.2690  140.3150 N   0  0  0  0  0  2  0  0  0  0  0  0
  189.5680  175.7060  141.3500 O   0  0  0  0  0  0  0  0  0  0  0  0
  190.9180  176.6550  139.1080 O   0  0  0  0  0  0  0  0  0  0  0  0
  192.2040  176.1410  138.9240 C   0  0  0  0  0  2  0  0  0  0  0  0
  192.5030  175.9760  137.4350 C   0  0  0  0  0  2  0  0  0  0  0  0
  193.7560  174.6930  135.6500 C   0  0  0  0  0  1  0  0  0  0  0  0
  193.5320  174.8820  137.1400 C   0  0  1  0  0  3  0  0  0  0  0  0
  195.1120  175.1720  137.9950 S   0  0  0  0  0  0  0  0  0  0  0  0
  195.2060  173.4560  138.5740 C   0  0  1  0  0  3  0  0  0  0  0  0
  194.0550  172.7870  138.2010 F   0  0  0  0  0  0  0  0  0  0  0  0
  196.4070  172.7620  137.9560 C   0  0  0  0  0  2  0  0  0  0  0  0
  194.8810  171.4790  135.7640 O   0  0  0  0  0  0  0  0  0  0  0  0
  195.8590  171.2910  136.9550 P   0  0  0  0  0  0  0  0  0  0  0  0
  1  8  1  0  0  0  0
  2  6  1  0  0  0  0
  2  4  1  0  0  0  0
  3  4  1  0  0  0  0
  3  7  1  0  0  0  0
  4  1  1  0  0  0  0
  5 20  1  6  0  0  0
  5  8  1  0  0  0  0
  7  5  1  0  0  0  0
  8 40  1  1  0  0  0
  9  2  2  0  0  0  0
 10 11  1  0  0  0  0
 10 12  1  1  0  0  0
 15 12  1  0  0  0  0
 16 19  1  0  0  0  0
 16 11  1  0  0  0  0
 16  6  1  0  0  0  0
 17 14  1  0  0  0  0
 17 10  1  0  0  0  0
 17 11  1  0  0  0  0
 18 14  1  0  0  0  0
 18 15  1  0  0  0  0
 19 11  1  0  0  0  0
 19 13  1  0  0  0  0
 21 20  1  0  0  0  0
 22 27  1  0  0  0  0
 23 21  1  0  0  0  0
 24 27  1  0  0  0  0
 24 25  1  0  0  0  0
 25 23  1  0  0  0  0
 26 34  1  0  0  0  0
 26 23  1  0  0  0  0
 27 26  1  0  0  0  0
 28 27  1  0  0  0  0
 29 24  1  0  0  0  0
 30 31  1  0  0  0  0
 30 29  1  0  0  0  0
 31 33  1  0  0  0  0
 33 32  1  0  0  0  0
 34 35  1  0  0  0  0
 35 36  1  0  0  0  0
 36 37  1  0  0  0  0
 37 38  1  0  0  0  0
 38 39  1  0  0  0  0
 40 43  1  0  0  0  0
 41 42  1  0  0  0  0
 42 48  1  0  0  0  0
 42 46  2  0  0  0  0
 43 41  2  0  0  0  0
 43 45  1  0  0  0  0
 44 46  1  0  0  0  0
 45 44  2  0  0  0  0
 47 49  1  0  0  0  0
 48 47  2  0  0  0  0
 50 54  1  0  0  0  0
 51 53  1  0  0  0  0
 52 54  1  0  0  0  0
 53 55  1  0  0  0  0
 53 52  1  0  0  0  0
 54 49  1  0  0  0  0
 56 51  1  0  0  0  0
 56 50  1  0  0  0  0
 57 56  1  0  0  0  0
 58 57  1  0  0  0  0
 59 57  2  0  0  0  0
 60 58  1  0  0  0  0
 61 60  1  0  0  0  0
 62 61  1  0  0  0  0
 63 64  1  0  0  0  0
 64 62  1  0  0  0  0
 64 65  1  0  0  0  0
 65 66  1  0  0  0  0
 67 66  1  0  0  0  0
 68 66  1  0  0  0  0
 69 70  2  0  0  0  0
 70 68  1  0  0  0  0
M  END
>  <MODEL>
3

>  <REMARK>
 VINA RESULT:      -3.3      1.543      2.167
  Name = 
  27 active torsions:
  status: ('A' for Active; 'I' for Inactive)
    1  A    between atoms: C_5  and  N_32
    2  A    between atoms: C_5  and  O_36
    3  A    between atoms: C_9  and  C_16
    4  A    between atoms: C_10  and  C_11
    5  A    between atoms: C_10  and  S_64
    6  A    between atoms: C_11  and  P_55
    7  A    between atoms: C_14  and  C_23
    8  A    between atoms: C_15  and  C_23
    9  A    between atoms: C_15  and  C_57
   10  A    between atoms: C_16  and  O_36
   11  A    between atoms: C_18  and  C_19
   12  A    between atoms: C_19  and  C_41
   13  A    between atoms: C_20  and  C_65
   14  A    between atoms: N_25  and  O_62
   15  A    between atoms: C_29  and  C_63
   16  A    between atoms: C_30  and  N_31
   17  A    between atoms: N_31  and  C_54
   18  A    between atoms: O_33  and  C_39
   19  A    between atoms: O_33  and  C_58
   20  A    between atoms: C_42  and  C_43
   21  A    between atoms: C_42  and  C_57
   22  A    between atoms: C_45  and  C_54
   23  A    between atoms: N_46  and  C_56
   24  A    between atoms: C_52  and  C_60
   25  A    between atoms: C_52  and  C_61
   26  A    between atoms: C_60  and  S_64
   27  A    between atoms: C_61  and  O_62
                            x       y       z     vdW  Elec       q    Type
                         _______ _______ _______ _____ _____    ______ ____

>  <TORSDO>
F 27

$$$$
=
 OpenBabel10222415553D

 70 76  0  0  1  0  0  0  0  0999 V2000
  186.4330  178.2070  141.2370 C   0  0  0  0  0  2  0  0  0  0  0  0
  186.7080  177.4310  143.6030 C   0  0  0  0  0  0  0  0  0  0  0  0
  184.4050  177.5070  142.6090 C   0  0  0  0  0  2  0  0  0  0  0  0
  185.8460  177.7640  142.5050 N   0  0  0  0  0  0  0  0  0  0  0  0
  184.0850  178.6020  140.3220 C   0  0  2  0  0  3  0  0  0  0  0  0
  188.1260  177.5220  143.4500 N   0  0  0  0  0  2  0  0  0  0  0  0
  183.6270  178.5340  141.7880 C   0  0  0  0  0  2  0  0  0  0  0  0
  185.4680  177.9580  140.0830 C   0  0  1  0  0  3  0  0  0  0  0  0
  186.2170  177.0440  144.6980 O   0  0  0  0  0  0  0  0  0  0  0  0
  189.5430  178.1760  147.0120 C   0  0  1  0  0  3  0  0  0  0  0  0
  188.7770  177.9950  145.7550 C   0  0  2  0  0  0  0  0  0  0  0  0
  188.8230  179.1660  147.9390 C   0  0  0  0  0  2  0  0  0  0  0  0
  189.8280  179.3700  144.0920 O   0  0  0  0  0  1  0  0  0  0  0  0
  187.4840  176.8940  147.4010 C   0  0  0  0  0  2  0  0  0  0  0  0
  188.3630  178.4510  149.2070 C   0  0  0  0  0  2  0  0  0  0  0  0
  189.0560  177.1350  144.5080 C   0  0  2  0  0  3  0  0  0  0  0  0
  188.8190  176.9240  146.7930 N   0  0  2  0  0  0  0  0  0  0  0  0
  187.5590  177.1830  148.9000 C   0  0  0  0  0  2  0  0  0  0  0  0
  190.0110  178.2120  144.8580 C   0  0  2  0  0  3  0  0  0  0  0  0
  184.0370  180.0480  139.8530 C   0  0  0  0  0  2  0  0  0  0  0  0
  183.7360  180.0940  138.4320 N   0  0  0  0  0  2  0  0  0  0  0  0
  179.2730  179.9180  138.2340 O   0  0  0  0  0  1  0  0  0  0  0  0
  182.3450  180.4910  138.3010 C   0  0  2  0  0  3  0  0  0  0  0  0
  180.8680  179.5700  139.9590 N   0  0  0  0  0  0  0  0  0  0  0  0
  181.7480  180.6990  139.6850 C   0  0  0  0  0  2  0  0  0  0  0  0
  181.5520  179.3500  137.6970 C   0  0  1  0  0  3  0  0  0  0  0  0
  180.3750  179.1500  138.6420 C   0  0  0  0  0  0  0  0  0  0  0  0
  180.0210  177.8020  138.6730 O   0  0  0  0  0  1  0  0  0  0  0  0
  179.7940  180.0230  140.8390 C   0  0  0  0  0  2  0  0  0  0  0  0
  178.9850  178.9380  141.1840 O   0  0  0  0  0  0  0  0  0  0  0  0
  179.6790  178.2990  142.2150 C   0  0  0  0  0  2  0  0  0  0  0  0
  179.9000  179.1380  144.4400 O   0  0  0  0  0  1  0  0  0  0  0  0
  180.3190  179.3370  143.1240 C   0  0  0  0  0  2  0  0  0  0  0  0
  181.1440  179.6370  136.2530 C   0  0  0  0  0  2  0  0  0  0  0  0
  181.4130  178.4380  135.3520 C   0  0  0  0  0  2  0  0  0  0  0  0
  180.9890  177.1460  136.0370 C   0  0  0  0  0  2  0  0  0  0  0  0
  182.0360  176.0620  135.8500 C   0  0  0  0  0  2  0  0  0  0  0  0
  181.5570  174.7680  136.4860 C   0  0  0  0  0  2  0  0  0  0  0  0
  181.7950  173.6150  135.5320 C   0  0  0  0  0  1  0  0  0  0  0  0
  186.0490  178.3770  138.8500 O   0  0  0  0  0  0  0  0  0  0  0  0
  186.5090  176.3690  137.6040 C   0  0  0  0  0  3  0  0  0  0  0  0
  186.4090  175.6020  136.4400 C   0  0  0  0  0  0  0  0  0  0  0  0
  185.9330  177.6420  137.6670 C   0  0  0  0  0  0  0  0  0  0  0  0
  185.1410  177.3840  135.3850 C   0  0  0  0  0  3  0  0  0  0  0  0
  185.2460  178.1480  136.5520 C   0  0  0  0  0  3  0  0  0  0  0  0
  185.7240  176.1170  135.3270 C   0  0  0  0  0  3  0  0  0  0  0  0
  187.8270  173.8790  135.4390 C   0  0  0  0  0  3  0  0  0  0  0  0
  187.0210  174.2670  136.4180 C   0  0  0  0  0  3  0  0  0  0  0  0
  188.4200  172.5150  135.4360 C   0  0  0  0  0  2  0  0  0  0  0  0
  190.5540  173.7830  135.8140 C   0  0  0  0  0  2  0  0  0  0  0  0
  192.6640  172.6100  134.9470 C   0  0  0  0  0  2  0  0  0  0  0  0
  190.5580  171.4200  135.3770 O   0  0  0  0  0  0  0  0  0  0  0  0
  191.7300  171.4370  134.5950 C   0  0  2  0  0  3  0  0  0  0  0  0
  189.8900  172.6160  135.0790 C   0  0  1  0  0  3  0  0  0  0  0  0
  192.4730  170.1310  134.7550 C   0  0  0  0  0  1  0  0  0  0  0  0
  192.0620  173.5460  136.0040 C   0  0  1  0  0  3  0  0  0  0  0  0
  192.8050  174.8410  136.0270 C   0  0  0  0  0  0  0  0  0  0  0  0
  193.2690  175.3800  137.2680 N   0  0  0  0  0  2  0  0  0  0  0  0
  192.9810  175.4760  134.9530 O   0  0  0  0  0  0  0  0  0  0  0  0
  193.7930  176.6260  137.3550 O   0  0  0  0  0  0  0  0  0  0  0  0
  193.4560  177.0680  138.6370 C   0  0  0  0  0  2  0  0  0  0  0  0
  192.1860  176.3710  139.1220 C   0  0  0  0  0  2  0  0  0  0  0  0
  190.2510  177.3840  137.8440 C   0  0  0  0  0  1  0  0  0  0  0  0
  190.9680  177.2960  139.1790 C   0  0  1  0  0  3  0  0  0  0  0  0
  189.8090  176.8290  140.5010 S   0  0  0  0  0  0  0  0  0  0  0  0
  191.1500  176.5330  141.6850 C   0  0  1  0  0  3  0  0  0  0  0  0
  191.5680  177.7420  142.2090 F   0  0  0  0  0  0  0  0  0  0  0  0
  190.6640  175.6440  142.8140 C   0  0  0  0  0  2  0  0  0  0  0  0
  192.4600  174.0260  144.5280 O   0  0  0  0  0  0  0  0  0  0  0  0
  191.9950  175.4450  144.1000 P   0  0  0  0  0  0  0  0  0  0  0  0
  1  4  1  0  0  0  0
  2  9  2  0  0  0  0
  4  3  1  0  0  0  0
  4  2  1  0  0  0  0
  5 20  1  1  0  0  0
  5  7  1  0  0  0  0
  6  2  1  0  0  0  0
  6 16  1  0  0  0  0
  7  3  1  0  0  0  0
  8 40  1  6  0  0  0
  8  5  1  0  0  0  0
  8  1  1  0  0  0  0
 10 12  1  1  0  0  0
 11 17  1  0  0  0  0
 11 10  1  0  0  0  0
 12 15  1  0  0  0  0
 13 19  1  0  0  0  0
 14 18  1  0  0  0  0
 16 19  1  0  0  0  0
 16 11  1  0  0  0  0
 17 10  1  0  0  0  0
 17 14  1  0  0  0  0
 18 15  1  0  0  0  0
 19 11  1  0  0  0  0
 21 20  1  0  0  0  0
 22 27  1  0  0  0  0
 23 21  1  0  0  0  0
 23 25  1  0  0  0  0
 24 29  1  0  0  0  0
 25 24  1  0  0  0  0
 26 23  1  0  0  0  0
 26 27  1  0  0  0  0
 27 28  1  0  0  0  0
 27 24  1  0  0  0  0
 29 30  1  0  0  0  0
 30 31  1  0  0  0  0
 31 33  1  0  0  0  0
 33 32  1  0  0  0  0
 34 26  1  0  0  0  0
 35 36  1  0  0  0  0
 35 34  1  0  0  0  0
 37 36  1  0  0  0  0
 37 38  1  0  0  0  0
 39 38  1  0  0  0  0
 41 43  1  0  0  0  0
 42 41  2  0  0  0  0
 43 40  1  0  0  0  0
 44 45  1  0  0  0  0
 45 43  2  0  0  0  0
 46 44  2  0  0  0  0
 46 42  1  0  0  0  0
 47 48  2  0  0  0  0
 48 42  1  0  0  0  0
 49 47  1  0  0  0  0
 50 56  1  0  0  0  0
 51 56  1  0  0  0  0
 53 55  1  0  0  0  0
 53 51  1  0  0  0  0
 53 52  1  0  0  0  0
 54 52  1  0  0  0  0
 54 49  1  0  0  0  0
 54 50  1  0  0  0  0
 56 57  1  0  0  0  0
 57 58  1  0  0  0  0
 58 60  1  0  0  0  0
 59 57  2  0  0  0  0
 60 61  1  0  0  0  0
 61 62  1  0  0  0  0
 62 64  1  0  0  0  0
 63 64  1  0  0  0  0
 64 65  1  0  0  0  0
 65 66  1  0  0  0  0
 66 67  1  0  0  0  0
 66 68  1  0  0  0  0
 68 70  1  0  0  0  0
 70 69  2  0  0  0  0
M  END
>  <MODEL>
4

>  <REMARK>
 VINA RESULT:      -2.6      3.204      8.210
  Name = 
  27 active torsions:
  status: ('A' for Active; 'I' for Inactive)
    1  A    between atoms: C_5  and  N_32
    2  A    between atoms: C_5  and  O_36
    3  A    between atoms: C_9  and  C_16
    4  A    between atoms: C_10  and  C_11
    5  A    between atoms: C_10  and  S_64
    6  A    between atoms: C_11  and  P_55
    7  A    between atoms: C_14  and  C_23
    8  A    between atoms: C_15  and  C_23
    9  A    between atoms: C_15  and  C_57
   10  A    between atoms: C_16  and  O_36
   11  A    between atoms: C_18  and  C_19
   12  A    between atoms: C_19  and  C_41
   13  A    between atoms: C_20  and  C_65
   14  A    between atoms: N_25  and  O_62
   15  A    between atoms: C_29  and  C_63
   16  A    between atoms: C_30  and  N_31
   17  A    between atoms: N_31  and  C_54
   18  A    between atoms: O_33  and  C_39
   19  A    between atoms: O_33  and  C_58
   20  A    between atoms: C_42  and  C_43
   21  A    between atoms: C_42  and  C_57
   22  A    between atoms: C_45  and  C_54
   23  A    between atoms: N_46  and  C_56
   24  A    between atoms: C_52  and  C_60
   25  A    between atoms: C_52  and  C_61
   26  A    between atoms: C_60  and  S_64
   27  A    between atoms: C_61  and  O_62
                            x       y       z     vdW  Elec       q    Type
                         _______ _______ _______ _____ _____    ______ ____

>  <TORSDO>
F 27

$$$$
=
 OpenBabel10222415553D

 70 76  0  0  1  0  0  0  0  0999 V2000
  191.2830  176.9000  138.8320 C   0  0  0  0  0  2  0  0  0  0  0  0
  193.4150  175.7360  138.2190 C   0  0  0  0  0  0  0  0  0  0  0  0
  192.8790  176.0930  140.6450 C   0  0  0  0  0  2  0  0  0  0  0  0
  192.5560  176.2870  139.2270 N   0  0  0  0  0  0  0  0  0  0  0  0
  190.8810  177.5600  141.2630 C   0  0  2  0  0  3  0  0  0  0  0  0
  193.0220  175.7760  136.8460 N   0  0  0  0  0  2  0  0  0  0  0  0
  192.3780  177.2790  141.4670 C   0  0  0  0  0  2  0  0  0  0  0  0
  190.3000  176.8930  139.9980 C   0  0  1  0  0  3  0  0  0  0  0  0
  194.5100  175.2010  138.5450 O   0  0  0  0  0  0  0  0  0  0  0  0
  196.5450  174.9650  135.4120 C   0  0  1  0  0  3  0  0  0  0  0  0
  195.3080  175.2260  136.1880 C   0  0  2  0  0  0  0  0  0  0  0  0
  197.7840  175.1710  136.2950 C   0  0  0  0  0  2  0  0  0  0  0  0
  194.5860  177.4440  135.6230 O   0  0  0  0  0  1  0  0  0  0  0  0
  196.1320  173.1860  137.0550 C   0  0  0  0  0  2  0  0  0  0  0  0
  198.5180  173.8440  136.4790 C   0  0  0  0  0  2  0  0  0  0  0  0
  193.8230  175.1740  135.7830 C   0  0  2  0  0  3  0  0  0  0  0  0
  195.7030  173.8380  135.8110 N   0  0  2  0  0  0  0  0  0  0  0  0
  197.5860  172.7250  136.9580 C   0  0  0  0  0  2  0  0  0  0  0  0
  194.7110  176.1490  135.1070 C   0  0  2  0  0  3  0  0  0  0  0  0
  190.6520  179.0640  141.2740 C   0  0  0  0  0  2  0  0  0  0  0  0
  189.6850  179.4060  142.3030 N   0  0  0  0  0  2  0  0  0  0  0  0
  187.4860  176.3790  144.7500 O   0  0  0  0  0  1  0  0  0  0  0  0
  189.0440  178.1700  142.7170 C   0  0  2  0  0  3  0  0  0  0  0  0
  186.8840  178.4410  143.7370 N   0  0  0  0  0  0  0  0  0  0  0  0
  187.5490  178.2640  142.4510 C   0  0  0  0  0  2  0  0  0  0  0  0
  189.1690  178.0190  144.2190 C   0  0  1  0  0  3  0  0  0  0  0  0
  187.7500  177.7570  144.7040 C   0  0  0  0  0  0  0  0  0  0  0  0
  187.5770  178.3100  145.9730 O   0  0  0  0  0  1  0  0  0  0  0  0
  185.5540  177.8420  143.6560 C   0  0  0  0  0  2  0  0  0  0  0  0
  184.6120  178.8340  143.3730 O   0  0  0  0  0  0  0  0  0  0  0  0
  184.5310  179.5840  144.5500 C   0  0  0  0  0  2  0  0  0  0  0  0
  182.4830  179.5110  145.7750 O   0  0  0  0  0  1  0  0  0  0  0  0
  183.6910  178.8400  145.5760 C   0  0  0  0  0  2  0  0  0  0  0  0
  190.1660  176.9270  144.6050 C   0  0  0  0  0  2  0  0  0  0  0  0
  191.2620  177.4720  145.5120 C   0  0  0  0  0  2  0  0  0  0  0  0
  191.3430  176.6630  146.7990 C   0  0  0  0  0  2  0  0  0  0  0  0
  189.9880  176.5880  147.4810 C   0  0  0  0  0  2  0  0  0  0  0  0
  189.7630  177.8370  148.3170 C   0  0  0  0  0  2  0  0  0  0  0  0
  188.3520  177.8310  148.8680 C   0  0  0  0  0  1  0  0  0  0  0  0
  189.0600  177.4760  139.6040 O   0  0  0  0  0  0  0  0  0  0  0  0
  187.6150  176.1820  138.1780 C   0  0  0  0  0  3  0  0  0  0  0  0
  187.0180  175.9390  136.9370 C   0  0  0  0  0  0  0  0  0  0  0  0
  188.4860  177.2630  138.3480 C   0  0  0  0  0  0  0  0  0  0  0  0
  188.1600  177.8760  136.0200 C   0  0  0  0  0  3  0  0  0  0  0  0
  188.7560  178.1120  137.2630 C   0  0  0  0  0  3  0  0  0  0  0  0
  187.2970  176.7920  135.8550 C   0  0  0  0  0  3  0  0  0  0  0  0
  186.4030  173.7400  136.0630 C   0  0  0  0  0  3  0  0  0  0  0  0
  186.1030  174.7980  136.8030 C   0  0  0  0  0  3  0  0  0  0  0  0
  185.4500  172.6050  135.9350 C   0  0  0  0  0  2  0  0  0  0  0  0
  183.5450  174.2080  135.6100 C   0  0  0  0  0  2  0  0  0  0  0  0
  181.4070  173.6040  136.8930 C   0  0  0  0  0  2  0  0  0  0  0  0
  183.1830  171.9740  136.4170 O   0  0  0  0  0  0  0  0  0  0  0  0
  182.1590  172.3280  137.3180 C   0  0  2  0  0  3  0  0  0  0  0  0
  184.0890  173.0430  136.4400 C   0  0  1  0  0  3  0  0  0  0  0  0
  181.1790  171.1860  137.4570 C   0  0  0  0  0  1  0  0  0  0  0  0
  182.0070  174.2500  135.6370 C   0  0  1  0  0  3  0  0  0  0  0  0
  181.5120  175.6520  135.4940 C   0  0  0  0  0  0  0  0  0  0  0  0
  180.4390  176.1210  136.3140 N   0  0  0  0  0  2  0  0  0  0  0  0
  182.0160  176.4030  134.6160 O   0  0  0  0  0  0  0  0  0  0  0  0
  179.8480  177.3220  136.1010 O   0  0  0  0  0  0  0  0  0  0  0  0
  179.0310  177.5210  137.2170 C   0  0  0  0  0  2  0  0  0  0  0  0
  179.0740  178.9850  137.6530 C   0  0  0  0  0  2  0  0  0  0  0  0
  180.5580  180.8060  138.5920 C   0  0  0  0  0  1  0  0  0  0  0  0
  180.2660  179.3170  138.5530 C   0  0  1  0  0  3  0  0  0  0  0  0
  180.0650  178.6570  140.2360 S   0  0  0  0  0  0  0  0  0  0  0  0
  181.7550  178.0000  140.2680 C   0  0  1  0  0  3  0  0  0  0  0  0
  182.0100  177.3430  139.0790 F   0  0  0  0  0  0  0  0  0  0  0  0
  182.7520  179.1320  140.4340 C   0  0  0  0  0  2  0  0  0  0  0  0
  184.8380  180.0170  138.5240 O   0  0  0  0  0  0  0  0  0  0  0  0
  184.2400  178.8470  139.3510 P   0  0  0  0  0  0  0  0  0  0  0  0
  1  4  1  0  0  0  0
  1  8  1  0  0  0  0
  2  9  2  0  0  0  0
  2  4  1  0  0  0  0
  3  7  1  0  0  0  0
  4  3  1  0  0  0  0
  5 20  1  6  0  0  0
  5  7  1  0  0  0  0
  6  2  1  0  0  0  0
  8 40  1  6  0  0  0
  8  5  1  0  0  0  0
 10 17  1  0  0  0  0
 10 11  1  0  0  0  0
 10 12  1  1  0  0  0
 12 15  1  0  0  0  0
 15 18  1  0  0  0  0
 16 11  1  0  0  0  0
 16  6  1  0  0  0  0
 17 11  1  0  0  0  0
 17 14  1  0  0  0  0
 18 14  1  0  0  0  0
 19 13  1  0  0  0  0
 19 16  1  0  0  0  0
 19 11  1  0  0  0  0
 20 21  1  0  0  0  0
 21 23  1  0  0  0  0
 23 26  1  0  0  0  0
 24 27  1  0  0  0  0
 25 23  1  0  0  0  0
 25 24  1  0  0  0  0
 26 34  1  0  0  0  0
 26 27  1  0  0  0  0
 27 22  1  0  0  0  0
 27 28  1  0  0  0  0
 29 24  1  0  0  0  0
 30 29  1  0  0  0  0
 30 31  1  0  0  0  0
 31 33  1  0  0  0  0
 33 32  1  0  0  0  0
 34 35  1  0  0  0  0
 35 36  1  0  0  0  0
 36 37  1  0  0  0  0
 37 38  1  0  0  0  0
 38 39  1  0  0  0  0
 41 43  1  0  0  0  0
 42 41  2  0  0  0  0
 43 40  1  0  0  0  0
 44 45  1  0  0  0  0
 45 43  2  0  0  0  0
 46 44  2  0  0  0  0
 46 42  1  0  0  0  0
 47 48  2  0  0  0  0
 48 42  1  0  0  0  0
 49 47  1  0  0  0  0
 49 54  1  0  0  0  0
 50 56  1  0  0  0  0
 50 54  1  0  0  0  0
 51 53  1  0  0  0  0
 52 54  1  0  0  0  0
 52 53  1  0  0  0  0
 53 55  1  0  0  0  0
 56 51  1  0  0  0  0
 57 56  1  0  0  0  0
 57 58  1  0  0  0  0
 59 57  2  0  0  0  0
 60 58  1  0  0  0  0
 60 61  1  0  0  0  0
 61 62  1  0  0  0  0
 62 64  1  0  0  0  0
 64 63  1  0  0  0  0
 64 65  1  0  0  0  0
 65 66  1  0  0  0  0
 66 68  1  0  0  0  0
 67 66  1  0  0  0  0
 69 70  2  0  0  0  0
 70 68  1  0  0  0  0
M  END
>  <MODEL>
5

>  <REMARK>
 VINA RESULT:      -2.5      3.940     11.159
  Name = 
  27 active torsions:
  status: ('A' for Active; 'I' for Inactive)
    1  A    between atoms: C_5  and  N_32
    2  A    between atoms: C_5  and  O_36
    3  A    between atoms: C_9  and  C_16
    4  A    between atoms: C_10  and  C_11
    5  A    between atoms: C_10  and  S_64
    6  A    between atoms: C_11  and  P_55
    7  A    between atoms: C_14  and  C_23
    8  A    between atoms: C_15  and  C_23
    9  A    between atoms: C_15  and  C_57
   10  A    between atoms: C_16  and  O_36
   11  A    between atoms: C_18  and  C_19
   12  A    between atoms: C_19  and  C_41
   13  A    between atoms: C_20  and  C_65
   14  A    between atoms: N_25  and  O_62
   15  A    between atoms: C_29  and  C_63
   16  A    between atoms: C_30  and  N_31
   17  A    between atoms: N_31  and  C_54
   18  A    between atoms: O_33  and  C_39
   19  A    between atoms: O_33  and  C_58
   20  A    between atoms: C_42  and  C_43
   21  A    between atoms: C_42  and  C_57
   22  A    between atoms: C_45  and  C_54
   23  A    between atoms: N_46  and  C_56
   24  A    between atoms: C_52  and  C_60
   25  A    between atoms: C_52  and  C_61
   26  A    between atoms: C_60  and  S_64
   27  A    between atoms: C_61  and  O_62
                            x       y       z     vdW  Elec       q    Type
                         _______ _______ _______ _____ _____    ______ ____

>  <TORSDO>
F 27

$$$$
=
 OpenBabel10222415553D

 70 76  0  0  1  0  0  0  0  0999 V2000
  186.4230  178.5710  141.0040 C   0  0  0  0  0  2  0  0  0  0  0  0
  186.8560  177.7560  143.3330 C   0  0  0  0  0  0  0  0  0  0  0  0
  184.5100  177.7030  142.4430 C   0  0  0  0  0  2  0  0  0  0  0  0
  185.9240  178.0570  142.2840 N   0  0  0  0  0  0  0  0  0  0  0  0
  184.0140  178.8300  140.2040 C   0  0  2  0  0  3  0  0  0  0  0  0
  188.2560  177.9450  143.1200 N   0  0  0  0  0  2  0  0  0  0  0  0
  183.6290  178.6960  141.6860 C   0  0  0  0  0  2  0  0  0  0  0  0
  185.4240  178.2860  139.8860 C   0  0  1  0  0  3  0  0  0  0  0  0
  186.4420  177.3100  144.4380 O   0  0  0  0  0  0  0  0  0  0  0  0
  189.6340  178.4260  146.7250 C   0  0  1  0  0  3  0  0  0  0  0  0
  188.8770  178.2640  145.4600 C   0  0  2  0  0  0  0  0  0  0  0  0
  188.7930  179.1900  147.7580 C   0  0  0  0  0  2  0  0  0  0  0  0
  189.6710  179.9530  143.9510 O   0  0  0  0  0  1  0  0  0  0  0  0
  187.8030  176.8100  146.9840 C   0  0  0  0  0  2  0  0  0  0  0  0
  188.4740  178.2810  148.9430 C   0  0  0  0  0  2  0  0  0  0  0  0
  189.2570  177.5950  144.1250 C   0  0  2  0  0  3  0  0  0  0  0  0
  189.1050  177.1090  146.3750 N   0  0  2  0  0  0  0  0  0  0  0  0
  187.8660  176.9450  148.5050 C   0  0  0  0  0  2  0  0  0  0  0  0
  190.0450  178.7630  144.5860 C   0  0  2  0  0  3  0  0  0  0  0  0
  183.8500  180.2810  139.7780 C   0  0  0  0  0  2  0  0  0  0  0  0
  183.4980  180.3420  138.3700 N   0  0  0  0  0  2  0  0  0  0  0  0
  179.0410  180.0160  138.2550 O   0  0  0  0  0  1  0  0  0  0  0  0
  182.0920  180.6960  138.2940 C   0  0  2  0  0  3  0  0  0  0  0  0
  180.6870  179.6160  139.9200 N   0  0  0  0  0  0  0  0  0  0  0  0
  181.5200  180.7920  139.7010 C   0  0  0  0  0  2  0  0  0  0  0  0
  181.3240  179.5680  137.6340 C   0  0  1  0  0  3  0  0  0  0  0  0
  180.1780  179.2640  138.5880 C   0  0  0  0  0  0  0  0  0  0  0  0
  179.8720  177.9050  138.5390 O   0  0  0  0  0  1  0  0  0  0  0  0
  179.6180  179.9730  140.8490 C   0  0  0  0  0  2  0  0  0  0  0  0
  179.3390  178.8830  141.6780 O   0  0  0  0  0  0  0  0  0  0  0  0
  179.7450  179.2980  142.9490 C   0  0  0  0  0  2  0  0  0  0  0  0
  179.5880  177.1060  143.8840 O   0  0  0  0  0  1  0  0  0  0  0  0
  180.4710  178.1620  143.6530 C   0  0  0  0  0  2  0  0  0  0  0  0
  180.8730  179.9310  136.2210 C   0  0  0  0  0  2  0  0  0  0  0  0
  180.5510  178.6870  135.4030 C   0  0  0  0  0  2  0  0  0  0  0  0
  181.6090  177.6140  135.6210 C   0  0  0  0  0  2  0  0  0  0  0  0
  181.2330  176.3260  134.9070 C   0  0  0  0  0  2  0  0  0  0  0  0
  181.7800  175.1340  135.6740 C   0  0  0  0  0  2  0  0  0  0  0  0
  182.7130  175.6190  136.7650 C   0  0  0  0  0  1  0  0  0  0  0  0
  185.9200  178.7730  138.6420 O   0  0  0  0  0  0  0  0  0  0  0  0
  186.3040  176.7050  137.4720 C   0  0  0  0  0  3  0  0  0  0  0  0
  186.2560  175.9300  136.3090 C   0  0  0  0  0  0  0  0  0  0  0  0
  185.8620  178.0320  137.4590 C   0  0  0  0  0  0  0  0  0  0  0  0
  185.3110  177.8130  135.1030 C   0  0  0  0  0  3  0  0  0  0  0  0
  185.3630  178.5840  136.2680 C   0  0  0  0  0  3  0  0  0  0  0  0
  185.7600  176.4920  135.1210 C   0  0  0  0  0  3  0  0  0  0  0  0
  187.5180  174.0240  135.4390 C   0  0  0  0  0  3  0  0  0  0  0  0
  186.7230  174.5380  136.3670 C   0  0  0  0  0  3  0  0  0  0  0  0
  187.9620  172.6060  135.5170 C   0  0  0  0  0  2  0  0  0  0  0  0
  190.2340  173.5720  135.9770 C   0  0  0  0  0  2  0  0  0  0  0  0
  192.1910  172.1730  135.0850 C   0  0  0  0  0  2  0  0  0  0  0  0
  189.9430  171.2490  135.4360 O   0  0  0  0  0  0  0  0  0  0  0  0
  191.1200  171.1470  134.6700 C   0  0  2  0  0  3  0  0  0  0  0  0
  189.4390  172.5320  135.1830 C   0  0  1  0  0  3  0  0  0  0  0  0
  191.6870  169.7500  134.7820 C   0  0  0  0  0  1  0  0  0  0  0  0
  191.6950  173.1340  136.1750 C   0  0  1  0  0  3  0  0  0  0  0  0
  192.5980  174.3210  136.2640 C   0  0  0  0  0  0  0  0  0  0  0  0
  193.3650  174.5520  137.4480 N   0  0  0  0  0  2  0  0  0  0  0  0
  192.6450  175.1390  135.3060 O   0  0  0  0  0  0  0  0  0  0  0  0
  194.0600  175.6990  137.6370 O   0  0  0  0  0  0  0  0  0  0  0  0
  195.2220  175.5420  136.8780 C   0  0  0  0  0  2  0  0  0  0  0  0
  196.1750  174.5630  137.5600 C   0  0  0  0  0  2  0  0  0  0  0  0
  198.6670  174.8820  137.8640 C   0  0  0  0  0  1  0  0  0  0  0  0
  197.5560  174.5000  136.9020 C   0  0  1  0  0  3  0  0  0  0  0  0
  197.8880  172.8780  136.1480 S   0  0  0  0  0  0  0  0  0  0  0  0
  196.5810  172.0720  137.1120 C   0  0  1  0  0  3  0  0  0  0  0  0
  195.3690  172.2440  136.4690 F   0  0  0  0  0  0  0  0  0  0  0  0
  196.8680  170.5870  137.2410 C   0  0  0  0  0  2  0  0  0  0  0  0
  194.9800  169.6590  139.3280 O   0  0  0  0  0  0  0  0  0  0  0  0
  195.3470  169.6820  137.8200 P   0  0  0  0  0  0  0  0  0  0  0  0
  1  4  1  0  0  0  0
  2  9  2  0  0  0  0
  4  3  1  0  0  0  0
  4  2  1  0  0  0  0
  5 20  1  1  0  0  0
  5  7  1  0  0  0  0
  6  2  1  0  0  0  0
  6 16  1  0  0  0  0
  7  3  1  0  0  0  0
  8 40  1  6  0  0  0
  8  5  1  0  0  0  0
  8  1  1  0  0  0  0
 10 12  1  1  0  0  0
 11 17  1  0  0  0  0
 11 10  1  0  0  0  0
 12 15  1  0  0  0  0
 13 19  1  0  0  0  0
 14 18  1  0  0  0  0
 16 19  1  0  0  0  0
 16 11  1  0  0  0  0
 17 10  1  0  0  0  0
 17 14  1  0  0  0  0
 18 15  1  0  0  0  0
 19 11  1  0  0  0  0
 21 20  1  0  0  0  0
 22 27  1  0  0  0  0
 23 21  1  0  0  0  0
 23 25  1  0  0  0  0
 24 29  1  0  0  0  0
 25 24  1  0  0  0  0
 26 23  1  0  0  0  0
 26 27  1  0  0  0  0
 27 24  1  0  0  0  0
 28 27  1  0  0  0  0
 29 30  1  0  0  0  0
 30 31  1  0  0  0  0
 31 33  1  0  0  0  0
 33 32  1  0  0  0  0
 34 26  1  0  0  0  0
 35 36  1  0  0  0  0
 35 34  1  0  0  0  0
 37 36  1  0  0  0  0
 37 38  1  0  0  0  0
 38 39  1  0  0  0  0
 42 48  1  0  0  0  0
 42 41  2  0  0  0  0
 43 41  1  0  0  0  0
 43 40  1  0  0  0  0
 44 46  2  0  0  0  0
 44 45  1  0  0  0  0
 45 43  2  0  0  0  0
 46 42  1  0  0  0  0
 47 49  1  0  0  0  0
 47 48  2  0  0  0  0
 50 56  1  0  0  0  0
 51 56  1  0  0  0  0
 53 55  1  0  0  0  0
 53 51  1  0  0  0  0
 53 52  1  0  0  0  0
 54 52  1  0  0  0  0
 54 49  1  0  0  0  0
 54 50  1  0  0  0  0
 56 57  1  0  0  0  0
 57 58  1  0  0  0  0
 58 60  1  0  0  0  0
 59 57  2  0  0  0  0
 61 62  1  0  0  0  0
 61 60  1  0  0  0  0
 64 62  1  0  0  0  0
 64 63  1  0  0  0  0
 65 64  1  0  0  0  0
 65 66  1  0  0  0  0
 66 68  1  0  0  0  0
 67 66  1  0  0  0  0
 68 70  1  0  0  0  0
 70 69  2  0  0  0  0
M  END
>  <MODEL>
6

>  <REMARK>
 VINA RESULT:      -2.4      2.736      7.712
  Name = 
  27 active torsions:
  status: ('A' for Active; 'I' for Inactive)
    1  A    between atoms: C_5  and  N_32
    2  A    between atoms: C_5  and  O_36
    3  A    between atoms: C_9  and  C_16
    4  A    between atoms: C_10  and  C_11
    5  A    between atoms: C_10  and  S_64
    6  A    between atoms: C_11  and  P_55
    7  A    between atoms: C_14  and  C_23
    8  A    between atoms: C_15  and  C_23
    9  A    between atoms: C_15  and  C_57
   10  A    between atoms: C_16  and  O_36
   11  A    between atoms: C_18  and  C_19
   12  A    between atoms: C_19  and  C_41
   13  A    between atoms: C_20  and  C_65
   14  A    between atoms: N_25  and  O_62
   15  A    between atoms: C_29  and  C_63
   16  A    between atoms: C_30  and  N_31
   17  A    between atoms: N_31  and  C_54
   18  A    between atoms: O_33  and  C_39
   19  A    between atoms: O_33  and  C_58
   20  A    between atoms: C_42  and  C_43
   21  A    between atoms: C_42  and  C_57
   22  A    between atoms: C_45  and  C_54
   23  A    between atoms: N_46  and  C_56
   24  A    between atoms: C_52  and  C_60
   25  A    between atoms: C_52  and  C_61
   26  A    between atoms: C_60  and  S_64
   27  A    between atoms: C_61  and  O_62
                            x       y       z     vdW  Elec       q    Type
                         _______ _______ _______ _____ _____    ______ ____

>  <TORSDO>
F 27

$$$$
=
 OpenBabel10222415553D

 70 76  0  0  1  0  0  0  0  0999 V2000
  183.5960  178.9800  143.1600 C   0  0  0  0  0  2  0  0  0  0  0  0
  181.1930  178.4260  143.6040 C   0  0  0  0  0  0  0  0  0  0  0  0
  182.6050  179.3030  145.4840 C   0  0  0  0  0  2  0  0  0  0  0  0
  182.4720  178.8520  144.0950 N   0  0  0  0  0  0  0  0  0  0  0  0
  185.1220  179.5560  145.1220 C   0  0  2  0  0  3  0  0  0  0  0  0
  181.0190  178.1450  142.2130 N   0  0  0  0  0  2  0  0  0  0  0  0
  184.0040  178.9860  146.0100 C   0  0  0  0  0  2  0  0  0  0  0  0
  184.6400  179.9470  143.7070 C   0  0  1  0  0  3  0  0  0  0  0  0
  180.2170  178.3160  144.3940 O   0  0  0  0  0  0  0  0  0  0  0  0
  179.0430  176.3520  139.3840 C   0  0  1  0  0  3  0  0  0  0  0  0
  179.9630  176.8410  140.4390 C   0  0  2  0  0  0  0  0  0  0  0  0
  179.7940  175.4450  138.3980 C   0  0  0  0  0  2  0  0  0  0  0  0
  180.6050  179.0710  139.8270 O   0  0  0  0  0  1  0  0  0  0  0  0
  179.6600  174.5480  140.9320 C   0  0  0  0  0  2  0  0  0  0  0  0
  179.2470  174.0220  138.4810 C   0  0  0  0  0  2  0  0  0  0  0  0
  179.7270  177.7710  141.6440 C   0  0  2  0  0  3  0  0  0  0  0  0
  178.9310  175.8060  140.7350 N   0  0  2  0  0  0  0  0  0  0  0  0
  179.2160  173.4940  139.9200 C   0  0  0  0  0  2  0  0  0  0  0  0
  179.5210  178.3090  140.2780 C   0  0  2  0  0  3  0  0  0  0  0  0
  186.2760  178.5670  145.0810 C   0  0  0  0  0  2  0  0  0  0  0  0
  186.5220  178.0440  146.4140 N   0  0  0  0  0  2  0  0  0  0  0  0
  190.4250  176.0050  145.6430 O   0  0  0  0  0  1  0  0  0  0  0  0
  187.5380  177.0140  146.2900 C   0  0  2  0  0  3  0  0  0  0  0  0
  189.6670  177.5680  147.2620 N   0  0  0  0  0  0  0  0  0  0  0  0
  188.3710  176.9710  147.5630 C   0  0  0  0  0  2  0  0  0  0  0  0
  188.5120  177.3980  145.1950 C   0  0  1  0  0  3  0  0  0  0  0  0
  189.8870  177.2860  145.8380 C   0  0  0  0  0  0  0  0  0  0  0  0
  190.7420  178.2420  145.2900 O   0  0  0  0  0  1  0  0  0  0  0  0
  190.6730  176.9450  148.1170 C   0  0  0  0  0  2  0  0  0  0  0  0
  191.6270  176.3040  147.3220 O   0  0  0  0  0  0  0  0  0  0  0  0
  192.7100  176.0920  148.1800 C   0  0  0  0  0  2  0  0  0  0  0  0
  193.7810  176.9370  150.1400 O   0  0  0  0  0  1  0  0  0  0  0  0
  192.6410  177.0670  149.3460 C   0  0  0  0  0  2  0  0  0  0  0  0
  188.3410  176.5350  143.9460 C   0  0  0  0  0  2  0  0  0  0  0  0
  189.4910  176.7400  142.9680 C   0  0  0  0  0  2  0  0  0  0  0  0
  190.4770  175.5830  143.0500 C   0  0  0  0  0  2  0  0  0  0  0  0
  191.8120  175.9610  142.4300 C   0  0  0  0  0  2  0  0  0  0  0  0
  191.6510  177.2160  141.5900 C   0  0  0  0  0  2  0  0  0  0  0  0
  192.9510  177.5140  140.8700 C   0  0  0  0  0  1  0  0  0  0  0  0
  185.7230  180.0800  142.7890 O   0  0  0  0  0  0  0  0  0  0  0  0
  186.9890  179.2590  140.9140 C   0  0  0  0  0  3  0  0  0  0  0  0
  187.0640  178.6020  139.6820 C   0  0  0  0  0  0  0  0  0  0  0  0
  185.7580  179.4220  141.5570 C   0  0  0  0  0  0  0  0  0  0  0  0
  184.6610  178.2570  139.7290 C   0  0  0  0  0  3  0  0  0  0  0  0
  184.5920  178.9170  140.9600 C   0  0  0  0  0  3  0  0  0  0  0  0
  185.8920  178.1030  139.0890 C   0  0  0  0  0  3  0  0  0  0  0  0
  189.3400  177.7120  139.5870 C   0  0  0  0  0  3  0  0  0  0  0  0
  188.3780  178.4440  139.0430 C   0  0  0  0  0  3  0  0  0  0  0  0
  190.6660  177.5830  138.9240 C   0  0  0  0  0  2  0  0  0  0  0  0
  189.9100  176.0260  137.1050 C   0  0  0  0  0  2  0  0  0  0  0  0
  191.3150  173.8920  136.8700 C   0  0  0  0  0  2  0  0  0  0  0  0
  192.1280  175.9040  138.0210 O   0  0  0  0  0  0  0  0  0  0  0  0
  192.2130  174.5000  137.9650 C   0  0  2  0  0  3  0  0  0  0  0  0
  190.7940  176.1880  138.3440 C   0  0  1  0  0  3  0  0  0  0  0  0
  193.6460  174.0800  137.7340 C   0  0  0  0  0  1  0  0  0  0  0  0
  190.4620  174.9480  136.1550 C   0  0  1  0  0  3  0  0  0  0  0  0
  189.3550  174.2900  135.3990 C   0  0  0  0  0  0  0  0  0  0  0  0
  189.1170  172.8880  135.5510 N   0  0  0  0  0  2  0  0  0  0  0  0
  188.6620  174.9680  134.5940 O   0  0  0  0  0  0  0  0  0  0  0  0
  188.2400  172.2220  134.7620 O   0  0  0  0  0  0  0  0  0  0  0  0
  187.0330  172.9090  134.9080 C   0  0  0  0  0  2  0  0  0  0  0  0
  186.5370  172.8110  136.3490 C   0  0  0  0  0  2  0  0  0  0  0  0
  184.8960  174.0680  137.8110 C   0  0  0  0  0  1  0  0  0  0  0  0
  185.0900  173.2800  136.5270 C   0  0  1  0  0  3  0  0  0  0  0  0
  184.4910  174.2270  135.0950 S   0  0  0  0  0  0  0  0  0  0  0  0
  183.0150  173.1880  134.9220 C   0  0  1  0  0  3  0  0  0  0  0  0
  183.3480  171.8760  135.2010 F   0  0  0  0  0  0  0  0  0  0  0  0
  181.9390  173.6440  135.8890 C   0  0  0  0  0  2  0  0  0  0  0  0
  179.3400  172.2340  135.6850 O   0  0  0  0  0  0  0  0  0  0  0  0
  180.2500  173.3740  135.1530 P   0  0  0  0  0  0  0  0  0  0  0  0
  1  8  1  0  0  0  0
  1  4  1  0  0  0  0
  2  4  1  0  0  0  0
  2  9  2  0  0  0  0
  3  7  1  0  0  0  0
  4  3  1  0  0  0  0
  5 20  1  6  0  0  0
  5  7  1  0  0  0  0
  6  2  1  0  0  0  0
  8 40  1  6  0  0  0
  8  5  1  0  0  0  0
 10 12  1  6  0  0  0
 10 11  1  0  0  0  0
 10 17  1  0  0  0  0
 11 17  1  0  0  0  0
 11 16  1  0  0  0  0
 12 15  1  0  0  0  0
 13 19  1  0  0  0  0
 15 18  1  0  0  0  0
 16  6  1  0  0  0  0
 17 14  1  0  0  0  0
 18 14  1  0  0  0  0
 19 11  1  0  0  0  0
 19 16  1  0  0  0  0
 20 21  1  0  0  0  0
 22 27  1  0  0  0  0
 23 21  1  0  0  0  0
 23 25  1  0  0  0  0
 24 25  1  0  0  0  0
 24 29  1  0  0  0  0
 26 27  1  0  0  0  0
 26 23  1  0  0  0  0
 27 24  1  0  0  0  0
 28 27  1  0  0  0  0
 30 29  1  0  0  0  0
 30 31  1  0  0  0  0
 31 33  1  0  0  0  0
 33 32  1  0  0  0  0
 34 26  1  0  0  0  0
 35 36  1  0  0  0  0
 35 34  1  0  0  0  0
 37 36  1  0  0  0  0
 38 37  1  0  0  0  0
 39 38  1  0  0  0  0
 41 43  1  0  0  0  0
 42 41  2  0  0  0  0
 43 40  1  0  0  0  0
 44 45  1  0  0  0  0
 45 43  2  0  0  0  0
 46 42  1  0  0  0  0
 46 44  2  0  0  0  0
 48 47  2  0  0  0  0
 48 42  1  0  0  0  0
 49 47  1  0  0  0  0
 50 54  1  0  0  0  0
 51 53  1  0  0  0  0
 52 54  1  0  0  0  0
 53 52  1  0  0  0  0
 54 49  1  0  0  0  0
 55 53  1  0  0  0  0
 56 51  1  0  0  0  0
 56 50  1  0  0  0  0
 57 58  1  0  0  0  0
 57 56  1  0  0  0  0
 59 57  2  0  0  0  0
 60 61  1  0  0  0  0
 60 58  1  0  0  0  0
 61 62  1  0  0  0  0
 62 64  1  0  0  0  0
 64 63  1  0  0  0  0
 65 64  1  0  0  0  0
 66 65  1  0  0  0  0
 66 67  1  0  0  0  0
 66 68  1  0  0  0  0
 70 69  2  0  0  0  0
 70 68  1  0  0  0  0
M  END
>  <MODEL>
7

>  <REMARK>
 VINA RESULT:      -2.4      4.053     10.231
  Name = 
  27 active torsions:
  status: ('A' for Active; 'I' for Inactive)
    1  A    between atoms: C_5  and  N_32
    2  A    between atoms: C_5  and  O_36
    3  A    between atoms: C_9  and  C_16
    4  A    between atoms: C_10  and  C_11
    5  A    between atoms: C_10  and  S_64
    6  A    between atoms: C_11  and  P_55
    7  A    between atoms: C_14  and  C_23
    8  A    between atoms: C_15  and  C_23
    9  A    between atoms: C_15  and  C_57
   10  A    between atoms: C_16  and  O_36
   11  A    between atoms: C_18  and  C_19
   12  A    between atoms: C_19  and  C_41
   13  A    between atoms: C_20  and  C_65
   14  A    between atoms: N_25  and  O_62
   15  A    between atoms: C_29  and  C_63
   16  A    between atoms: C_30  and  N_31
   17  A    between atoms: N_31  and  C_54
   18  A    between atoms: O_33  and  C_39
   19  A    between atoms: O_33  and  C_58
   20  A    between atoms: C_42  and  C_43
   21  A    between atoms: C_42  and  C_57
   22  A    between atoms: C_45  and  C_54
   23  A    between atoms: N_46  and  C_56
   24  A    between atoms: C_52  and  C_60
   25  A    between atoms: C_52  and  C_61
   26  A    between atoms: C_60  and  S_64
   27  A    between atoms: C_61  and  O_62
                            x       y       z     vdW  Elec       q    Type
                         _______ _______ _______ _____ _____    ______ ____

>  <TORSDO>
F 27

$$$$
=
 OpenBabel10222415553D

 70 76  0  0  1  0  0  0  0  0999 V2000
  182.7410  177.4690  140.8950 C   0  0  0  0  0  2  0  0  0  0  0  0
  184.0490  179.2420  142.0890 C   0  0  0  0  0  0  0  0  0  0  0  0
  181.5460  179.2420  142.2780 C   0  0  0  0  0  2  0  0  0  0  0  0
  182.7800  178.6860  141.7140 N   0  0  0  0  0  0  0  0  0  0  0  0
  180.1980  177.6460  140.8080 C   0  0  2  0  0  3  0  0  0  0  0  0
  185.2590  178.6020  141.6760 N   0  0  0  0  0  2  0  0  0  0  0  0
  180.3970  179.0950  141.2820 C   0  0  0  0  0  2  0  0  0  0  0  0
  181.4160  176.7380  141.0850 C   0  0  1  0  0  3  0  0  0  0  0  0
  184.0980  180.2850  142.7960 O   0  0  0  0  0  0  0  0  0  0  0  0
  188.9680  177.7830  142.5090 C   0  0  1  0  0  3  0  0  0  0  0  0
  187.5780  177.9140  142.0110 C   0  0  2  0  0  0  0  0  0  0  0  0
  189.5230  176.3880  142.1870 C   0  0  0  0  0  2  0  0  0  0  0  0
  186.1270  177.5750  143.8930 O   0  0  0  0  0  1  0  0  0  0  0  0
  188.9100  177.9150  140.0570 C   0  0  0  0  0  2  0  0  0  0  0  0
  190.6850  176.5050  141.2040 C   0  0  0  0  0  2  0  0  0  0  0  0
  186.5770  179.0830  142.0810 C   0  0  2  0  0  3  0  0  0  0  0  0
  188.7080  178.6120  141.3330 N   0  0  2  0  0  0  0  0  0  0  0  0
  190.3210  177.3350  139.9680 C   0  0  0  0  0  2  0  0  0  0  0  0
  187.0500  178.4740  143.3470 C   0  0  2  0  0  3  0  0  0  0  0  0
  179.8130  177.6550  139.3360 C   0  0  0  0  0  2  0  0  0  0  0  0
  179.0530  178.8560  139.0350 N   0  0  0  0  0  2  0  0  0  0  0  0
  181.3210  181.5180  136.2500 O   0  0  0  0  0  1  0  0  0  0  0  0
  179.9920  179.8420  138.5290 C   0  0  2  0  0  3  0  0  0  0  0  0
  179.0620  181.4240  136.9750 N   0  0  0  0  0  0  0  0  0  0  0  0
  179.2900  181.1850  138.3960 C   0  0  0  0  0  2  0  0  0  0  0  0
  180.4000  179.4690  137.1180 C   0  0  1  0  0  3  0  0  0  0  0  0
  180.1620  180.7280  136.2970 C   0  0  0  0  0  0  0  0  0  0  0  0
  179.7800  180.3800  135.0020 O   0  0  0  0  0  1  0  0  0  0  0  0
  179.0830  182.8650  136.7390 C   0  0  0  0  0  2  0  0  0  0  0  0
  179.4170  183.5260  137.9240 O   0  0  0  0  0  0  0  0  0  0  0  0
  180.2310  184.5850  137.5150 C   0  0  0  0  0  2  0  0  0  0  0  0
  181.4780  184.8980  135.5030 O   0  0  0  0  0  1  0  0  0  0  0  0
  181.3390  184.0630  136.6130 C   0  0  0  0  0  2  0  0  0  0  0  0
  181.8360  178.9500  137.0540 C   0  0  0  0  0  2  0  0  0  0  0  0
  182.5880  179.2360  138.3470 C   0  0  0  0  0  2  0  0  0  0  0  0
  184.0140  179.6800  138.0510 C   0  0  0  0  0  2  0  0  0  0  0  0
  184.9860  178.5220  138.2060 C   0  0  0  0  0  2  0  0  0  0  0  0
  186.4070  179.0530  138.2910 C   0  0  0  0  0  2  0  0  0  0  0  0
  187.1140  178.8250  136.9710 C   0  0  0  0  0  1  0  0  0  0  0  0
  181.3890  175.5490  140.2990 O   0  0  0  0  0  0  0  0  0  0  0  0
  182.5440  175.4770  138.1890 C   0  0  0  0  0  3  0  0  0  0  0  0
  182.5400  175.4830  136.7900 C   0  0  0  0  0  0  0  0  0  0  0  0
  181.3450  175.5620  138.9020 C   0  0  0  0  0  0  0  0  0  0  0  0
  180.1180  175.6530  136.8080 C   0  0  0  0  0  3  0  0  0  0  0  0
  180.1290  175.6490  138.2060 C   0  0  0  0  0  3  0  0  0  0  0  0
  181.3190  175.5740  136.1010 C   0  0  0  0  0  3  0  0  0  0  0  0
  184.5390  176.4550  135.7710 C   0  0  0  0  0  3  0  0  0  0  0  0
  183.8210  175.3830  136.0790 C   0  0  0  0  0  3  0  0  0  0  0  0
  185.8260  176.3240  135.0360 C   0  0  0  0  0  2  0  0  0  0  0  0
  187.9970  175.1150  135.3980 C   0  0  0  0  0  2  0  0  0  0  0  0
  187.7730  172.8350  136.5520 C   0  0  0  0  0  2  0  0  0  0  0  0
  186.0260  174.5580  136.6530 O   0  0  0  0  0  0  0  0  0  0  0  0
  186.2750  173.1720  136.6760 C   0  0  2  0  0  3  0  0  0  0  0  0
  186.4700  175.0000  135.4000 C   0  0  1  0  0  3  0  0  0  0  0  0
  185.7240  172.5710  137.9480 C   0  0  0  0  0  1  0  0  0  0  0  0
  188.6420  174.0810  136.3370 C   0  0  1  0  0  3  0  0  0  0  0  0
  189.9950  173.6870  135.8440 C   0  0  0  0  0  0  0  0  0  0  0  0
  191.0410  174.6590  135.7640 N   0  0  0  0  0  2  0  0  0  0  0  0
  190.1960  172.5040  135.4590 O   0  0  0  0  0  0  0  0  0  0  0  0
  192.2260  174.3870  135.1660 O   0  0  0  0  0  0  0  0  0  0  0  0
  193.1030  174.1130  136.2180 C   0  0  0  0  0  2  0  0  0  0  0  0
  194.5090  174.6060  135.8800 C   0  0  0  0  0  2  0  0  0  0  0  0
  195.3220  175.2270  138.1940 C   0  0  0  0  0  1  0  0  0  0  0  0
  195.5320  174.3320  136.9860 C   0  0  1  0  0  3  0  0  0  0  0  0
  195.5620  172.5820  137.4790 S   0  0  0  0  0  0  0  0  0  0  0  0
  197.2620  172.3600  136.8860 C   0  0  1  0  0  3  0  0  0  0  0  0
  198.0940  173.2400  137.5530 F   0  0  0  0  0  0  0  0  0  0  0  0
  197.7260  170.9390  137.1510 C   0  0  0  0  0  2  0  0  0  0  0  0
  195.8840  170.2510  134.9340 O   0  0  0  0  0  0  0  0  0  0  0  0
  196.7560  169.7380  136.1110 P   0  0  0  0  0  0  0  0  0  0  0  0
  1  8  1  0  0  0  0
  1  4  1  0  0  0  0
  2  9  2  0  0  0  0
  4  2  1  0  0  0  0
  4  3  1  0  0  0  0
  5 20  1  6  0  0  0
  5  8  1  0  0  0  0
  5  7  1  0  0  0  0
  6 16  1  0  0  0  0
  6  2  1  0  0  0  0
  7  3  1  0  0  0  0
  8 40  1  6  0  0  0
 10 12  1  6  0  0  0
 11 16  1  0  0  0  0
 11 10  1  0  0  0  0
 11 19  1  0  0  0  0
 14 17  1  0  0  0  0
 15 12  1  0  0  0  0
 16 19  1  0  0  0  0
 17 11  1  0  0  0  0
 17 10  1  0  0  0  0
 18 14  1  0  0  0  0
 18 15  1  0  0  0  0
 19 13  1  0  0  0  0
 21 20  1  0  0  0  0
 22 27  1  0  0  0  0
 23 21  1  0  0  0  0
 24 25  1  0  0  0  0
 25 23  1  0  0  0  0
 26 23  1  0  0  0  0
 27 24  1  0  0  0  0
 27 26  1  0  0  0  0
 28 27  1  0  0  0  0
 29 24  1  0  0  0  0
 29 30  1  0  0  0  0
 31 30  1  0  0  0  0
 32 33  1  0  0  0  0
 33 31  1  0  0  0  0
 34 26  1  0  0  0  0
 34 35  1  0  0  0  0
 36 37  1  0  0  0  0
 36 35  1  0  0  0  0
 37 38  1  0  0  0  0
 39 38  1  0  0  0  0
 41 43  1  0  0  0  0
 42 41  2  0  0  0  0
 43 40  1  0  0  0  0
 44 45  1  0  0  0  0
 45 43  2  0  0  0  0
 46 42  1  0  0  0  0
 46 44  2  0  0  0  0
 47 48  2  0  0  0  0
 48 42  1  0  0  0  0
 49 54  1  0  0  0  0
 49 47  1  0  0  0  0
 50 54  1  0  0  0  0
 50 56  1  0  0  0  0
 51 53  1  0  0  0  0
 52 53  1  0  0  0  0
 53 55  1  0  0  0  0
 54 52  1  0  0  0  0
 56 51  1  0  0  0  0
 57 56  1  0  0  0  0
 58 57  1  0  0  0  0
 59 57  2  0  0  0  0
 60 58  1  0  0  0  0
 60 61  1  0  0  0  0
 62 61  1  0  0  0  0
 62 64  1  0  0  0  0
 64 65  1  0  0  0  0
 64 63  1  0  0  0  0
 66 68  1  0  0  0  0
 66 65  1  0  0  0  0
 66 67  1  0  0  0  0
 69 70  2  0  0  0  0
 70 68  1  0  0  0  0
M  END
>  <MODEL>
8

>  <REMARK>
 VINA RESULT:      -2.1      2.561      6.975
  Name = 
  27 active torsions:
  status: ('A' for Active; 'I' for Inactive)
    1  A    between atoms: C_5  and  N_32
    2  A    between atoms: C_5  and  O_36
    3  A    between atoms: C_9  and  C_16
    4  A    between atoms: C_10  and  C_11
    5  A    between atoms: C_10  and  S_64
    6  A    between atoms: C_11  and  P_55
    7  A    between atoms: C_14  and  C_23
    8  A    between atoms: C_15  and  C_23
    9  A    between atoms: C_15  and  C_57
   10  A    between atoms: C_16  and  O_36
   11  A    between atoms: C_18  and  C_19
   12  A    between atoms: C_19  and  C_41
   13  A    between atoms: C_20  and  C_65
   14  A    between atoms: N_25  and  O_62
   15  A    between atoms: C_29  and  C_63
   16  A    between atoms: C_30  and  N_31
   17  A    between atoms: N_31  and  C_54
   18  A    between atoms: O_33  and  C_39
   19  A    between atoms: O_33  and  C_58
   20  A    between atoms: C_42  and  C_43
   21  A    between atoms: C_42  and  C_57
   22  A    between atoms: C_45  and  C_54
   23  A    between atoms: N_46  and  C_56
   24  A    between atoms: C_52  and  C_60
   25  A    between atoms: C_52  and  C_61
   26  A    between atoms: C_60  and  S_64
   27  A    between atoms: C_61  and  O_62
                            x       y       z     vdW  Elec       q    Type
                         _______ _______ _______ _____ _____    ______ ____

>  <TORSDO>
F 27

$$$$
=
 OpenBabel10222415553D

 70 76  0  0  1  0  0  0  0  0999 V2000
  189.3750  177.5550  139.1830 C   0  0  0  0  0  2  0  0  0  0  0  0
  191.0130  175.9790  138.1300 C   0  0  0  0  0  0  0  0  0  0  0  0
  190.3680  175.6370  140.5310 C   0  0  0  0  0  2  0  0  0  0  0  0
  190.2960  176.4190  139.2920 N   0  0  0  0  0  0  0  0  0  0  0  0
  188.9600  177.4220  141.6960 C   0  0  2  0  0  3  0  0  0  0  0  0
  190.8170  176.6390  136.8770 N   0  0  0  0  0  2  0  0  0  0  0  0
  190.2290  176.5560  141.7430 C   0  0  0  0  0  2  0  0  0  0  0  0
  188.3270  177.5050  140.2900 C   0  0  1  0  0  3  0  0  0  0  0  0
  191.8050  175.0010  138.2080 O   0  0  0  0  0  0  0  0  0  0  0  0
  193.3920  174.2870  135.1580 C   0  0  1  0  0  3  0  0  0  0  0  0
  192.3600  174.9820  135.9640 C   0  0  2  0  0  0  0  0  0  0  0  0
  194.0020  173.1250  135.9550 C   0  0  0  0  0  2  0  0  0  0  0  0
  193.3910  176.9510  136.8690 O   0  0  0  0  0  1  0  0  0  0  0  0
  191.3760  172.9050  135.4050 C   0  0  0  0  0  2  0  0  0  0  0  0
  193.6590  171.7970  135.2840 C   0  0  0  0  0  2  0  0  0  0  0  0
  191.4680  176.1970  135.6470 C   0  0  2  0  0  3  0  0  0  0  0  0
  191.9810  174.1070  134.8170 N   0  0  2  0  0  0  0  0  0  0  0  0
  192.1580  171.6520  135.0140 C   0  0  0  0  0  2  0  0  0  0  0  0
  192.9380  176.3810  135.6740 C   0  0  2  0  0  3  0  0  0  0  0  0
  189.2780  178.7980  142.2630 C   0  0  0  0  0  2  0  0  0  0  0  0
  190.6060  178.7910  142.8530 N   0  0  0  0  0  2  0  0  0  0  0  0
  189.5420  176.8400  146.7320 O   0  0  0  0  0  1  0  0  0  0  0  0
  190.4410  178.5510  144.2760 C   0  0  2  0  0  3  0  0  0  0  0  0
  191.1180  176.3670  145.0200 N   0  0  0  0  0  0  0  0  0  0  0  0
  191.6100  177.7190  144.7850 C   0  0  0  0  0  2  0  0  0  0  0  0
  189.2160  177.6890  144.5020 C   0  0  1  0  0  3  0  0  0  0  0  0
  189.7030  176.5380  145.3710 C   0  0  0  0  0  0  0  0  0  0  0  0
  188.9910  175.3800  145.0600 O   0  0  0  0  0  1  0  0  0  0  0  0
  191.8950  175.7740  146.1050 C   0  0  0  0  0  2  0  0  0  0  0  0
  192.5700  176.7820  146.7990 O   0  0  0  0  0  0  0  0  0  0  0  0
  192.0440  176.7280  148.0920 C   0  0  0  0  0  2  0  0  0  0  0  0
  193.7450  177.3460  149.6500 O   0  0  0  0  0  1  0  0  0  0  0  0
  193.1130  176.2490  149.0620 C   0  0  0  0  0  2  0  0  0  0  0  0
  188.0620  178.4810  145.1140 C   0  0  0  0  0  2  0  0  0  0  0  0
  186.7510  177.7100  145.0270 C   0  0  0  0  0  2  0  0  0  0  0  0
  185.8220  178.1000  146.1680 C   0  0  0  0  0  2  0  0  0  0  0  0
  186.4790  179.1240  147.0780 C   0  0  0  0  0  2  0  0  0  0  0  0
  187.6610  178.4930  147.7940 C   0  0  0  0  0  2  0  0  0  0  0  0
  187.1980  177.8970  149.1080 C   0  0  0  0  0  1  0  0  0  0  0  0
  187.4260  178.6030  140.1700 O   0  0  0  0  0  0  0  0  0  0  0  0
  185.1720  177.7980  140.4270 C   0  0  0  0  0  3  0  0  0  0  0  0
  183.9320  177.8160  141.0740 C   0  0  0  0  0  0  0  0  0  0  0  0
  186.1990  178.6530  140.8380 C   0  0  0  0  0  0  0  0  0  0  0  0
  184.7440  179.5540  142.5620 C   0  0  0  0  0  3  0  0  0  0  0  0
  185.9810  179.5330  141.9100 C   0  0  0  0  0  3  0  0  0  0  0  0
  183.7210  178.7020  142.1440 C   0  0  0  0  0  3  0  0  0  0  0  0
  182.5500  176.7880  139.3380 C   0  0  0  0  0  3  0  0  0  0  0  0
  182.8820  176.8950  140.6170 C   0  0  0  0  0  3  0  0  0  0  0  0
  181.4720  175.8570  138.9070 C   0  0  0  0  0  2  0  0  0  0  0  0
  183.2710  174.4260  137.8970 C   0  0  0  0  0  2  0  0  0  0  0  0
  182.6280  173.3030  135.6820 C   0  0  0  0  0  2  0  0  0  0  0  0
  180.9660  174.1760  137.2670 O   0  0  0  0  0  0  0  0  0  0  0  0
  181.2320  173.9150  135.9080 C   0  0  2  0  0  3  0  0  0  0  0  0
  181.9250  175.1180  137.6640 C   0  0  1  0  0  3  0  0  0  0  0  0
  180.1770  172.9920  135.3460 C   0  0  0  0  0  1  0  0  0  0  0  0
  183.4450  173.2040  136.9780 C   0  0  1  0  0  3  0  0  0  0  0  0
  184.8860  172.9790  136.6600 C   0  0  0  0  0  0  0  0  0  0  0  0
  185.8970  173.3820  137.5890 N   0  0  0  0  0  2  0  0  0  0  0  0
  185.2080  172.4730  135.5520 O   0  0  0  0  0  0  0  0  0  0  0  0
  187.2130  173.3540  137.2700 O   0  0  0  0  0  0  0  0  0  0  0  0
  187.6100  174.6930  137.2690 C   0  0  0  0  0  2  0  0  0  0  0  0
  187.3050  175.3380  135.9180 C   0  0  0  0  0  2  0  0  0  0  0  0
  187.0340  177.8390  136.1860 C   0  0  0  0  0  1  0  0  0  0  0  0
  186.3240  176.5090  136.0110 C   0  0  1  0  0  3  0  0  0  0  0  0
  185.1860  176.5700  134.5940 S   0  0  0  0  0  0  0  0  0  0  0  0
  183.8120  177.1650  135.6170 C   0  0  1  0  0  3  0  0  0  0  0  0
  184.3040  178.0210  136.5850 F   0  0  0  0  0  0  0  0  0  0  0  0
  182.8060  177.9100  134.7590 C   0  0  0  0  0  2  0  0  0  0  0  0
  179.8540  178.1520  134.6930 O   0  0  0  0  0  0  0  0  0  0  0  0
  181.1190  177.8520  135.5420 P   0  0  0  0  0  0  0  0  0  0  0  0
  1  4  1  0  0  0  0
  1  8  1  0  0  0  0
  2  9  2  0  0  0  0
  2  4  1  0  0  0  0
  3  7  1  0  0  0  0
  4  3  1  0  0  0  0
  5  7  1  0  0  0  0
  5 20  1  6  0  0  0
  6  2  1  0  0  0  0
  8 40  1  1  0  0  0
  8  5  1  0  0  0  0
 10 12  1  1  0  0  0
 10 11  1  0  0  0  0
 15 12  1  0  0  0  0
 16 19  1  0  0  0  0
 16 11  1  0  0  0  0
 16  6  1  0  0  0  0
 17 10  1  0  0  0  0
 17 14  1  0  0  0  0
 17 11  1  0  0  0  0
 18 15  1  0  0  0  0
 18 14  1  0  0  0  0
 19 11  1  0  0  0  0
 19 13  1  0  0  0  0
 20 21  1  0  0  0  0
 21 23  1  0  0  0  0
 23 26  1  0  0  0  0
 23 25  1  0  0  0  0
 24 27  1  0  0  0  0
 24 29  1  0  0  0  0
 25 24  1  0  0  0  0
 26 34  1  0  0  0  0
 26 27  1  0  0  0  0
 27 22  1  0  0  0  0
 28 27  1  0  0  0  0
 29 30  1  0  0  0  0
 30 31  1  0  0  0  0
 31 33  1  0  0  0  0
 33 32  1  0  0  0  0
 35 34  1  0  0  0  0
 35 36  1  0  0  0  0
 36 37  1  0  0  0  0
 37 38  1  0  0  0  0
 38 39  1  0  0  0  0
 40 43  1  0  0  0  0
 41 43  2  0  0  0  0
 41 42  1  0  0  0  0
 42 46  2  0  0  0  0
 43 45  1  0  0  0  0
 45 44  2  0  0  0  0
 46 44  1  0  0  0  0
 47 48  2  0  0  0  0
 48 42  1  0  0  0  0
 49 47  1  0  0  0  0
 51 53  1  0  0  0  0
 51 56  1  0  0  0  0
 52 54  1  0  0  0  0
 53 52  1  0  0  0  0
 54 50  1  0  0  0  0
 54 49  1  0  0  0  0
 55 53  1  0  0  0  0
 56 50  1  0  0  0  0
 57 56  1  0  0  0  0
 57 58  1  0  0  0  0
 59 57  2  0  0  0  0
 60 58  1  0  0  0  0
 61 60  1  0  0  0  0
 62 64  1  0  0  0  0
 62 61  1  0  0  0  0
 64 63  1  0  0  0  0
 65 66  1  0  0  0  0
 65 64  1  0  0  0  0
 66 67  1  0  0  0  0
 68 70  1  0  0  0  0
 68 66  1  0  0  0  0
 69 70  2  0  0  0  0
M  END
>  <MODEL>
9

>  <REMARK>
 VINA RESULT:      -1.9      3.987     10.074
  Name = 
  27 active torsions:
  status: ('A' for Active; 'I' for Inactive)
    1  A    between atoms: C_5  and  N_32
    2  A    between atoms: C_5  and  O_36
    3  A    between atoms: C_9  and  C_16
    4  A    between atoms: C_10  and  C_11
    5  A    between atoms: C_10  and  S_64
    6  A    between atoms: C_11  and  P_55
    7  A    between atoms: C_14  and  C_23
    8  A    between atoms: C_15  and  C_23
    9  A    between atoms: C_15  and  C_57
   10  A    between atoms: C_16  and  O_36
   11  A    between atoms: C_18  and  C_19
   12  A    between atoms: C_19  and  C_41
   13  A    between atoms: C_20  and  C_65
   14  A    between atoms: N_25  and  O_62
   15  A    between atoms: C_29  and  C_63
   16  A    between atoms: C_30  and  N_31
   17  A    between atoms: N_31  and  C_54
   18  A    between atoms: O_33  and  C_39
   19  A    between atoms: O_33  and  C_58
   20  A    between atoms: C_42  and  C_43
   21  A    between atoms: C_42  and  C_57
   22  A    between atoms: C_45  and  C_54
   23  A    between atoms: N_46  and  C_56
   24  A    between atoms: C_52  and  C_60
   25  A    between atoms: C_52  and  C_61
   26  A    between atoms: C_60  and  S_64
   27  A    between atoms: C_61  and  O_62
                            x       y       z     vdW  Elec       q    Type
                         _______ _______ _______ _____ _____    ______ ____

>  <TORSDO>
F 27

$$$$
