=
 OpenBabel10222418263D

 26 28  0  0  1  0  0  0  0  0999 V2000
  188.2470  177.4970  144.7290 C   0  0  0  0  0  3  0  0  0  0  0  0
  186.3080  178.0920  143.3910 C   0  0  0  0  0  0  0  0  0  0  0  0
  189.0690  177.5470  143.5970 C   0  0  0  0  0  0  0  0  0  0  0  0
  188.5110  177.8920  142.3500 C   0  0  0  0  0  0  0  0  0  0  0  0
  186.8800  177.7640  144.6290 C   0  0  0  0  0  3  0  0  0  0  0  0
  187.1350  178.1550  142.2610 C   0  0  0  0  0  3  0  0  0  0  0  0
  182.1410  178.9090  143.0700 N   0  0  0  0  0  0  0  0  0  0  0  0
  184.2150  178.3400  142.0330 C   0  0  0  0  0  3  0  0  0  0  0  0
  182.8480  178.6110  141.9480 C   0  0  0  0  0  3  0  0  0  0  0  0
  184.8580  178.3760  143.2800 C   0  0  0  0  0  0  0  0  0  0  0  0
  184.0990  178.6870  144.4190 C   0  0  0  0  0  3  0  0  0  0  0  0
  182.7330  178.9520  144.2920 C   0  0  0  0  0  3  0  0  0  0  0  0
  190.9920  179.5820  144.0530 O   0  0  0  0  0  1  0  0  0  0  0  0
  191.3880  178.2520  143.9690 C   0  0  0  0  0  3  0  0  0  0  0  0
  190.5130  177.2620  143.7500 C   0  0  0  0  0  0  0  0  0  0  0  0
  191.9970  175.5270  144.2520 O   0  0  0  0  0  0  0  0  0  0  0  0
  190.9890  175.9110  143.6230 N   0  0  0  0  0  0  0  0  0  0  0  0
  190.3110  175.0080  142.8360 O   0  0  0  0  0  0  0  0  0  0  0  0
  189.3330  177.9880  141.2200 O   0  0  0  0  0  0  0  0  0  0  0  0
  190.1610  177.4810  139.0300 C   0  0  0  0  0  2  0  0  0  0  0  0
  189.0790  178.5420  138.9000 C   0  0  2  0  0  3  0  0  0  0  0  0
  188.9670  177.4520  139.9550 C   0  0  2  0  0  3  0  0  0  0  0  0
  188.6840  178.1600  136.5120 C   0  0  0  0  0  2  0  0  0  0  0  0
  188.1690  178.2360  137.7380 C   0  0  0  0  0  0  0  0  0  0  0  0
  186.7430  177.7930  137.9230 C   0  0  0  0  0  2  0  0  0  0  0  0
  185.9400  178.8110  138.5830 N   0  0  0  0  0  1  0  0  0  0  0  0
  2  5  2  0  0  0  0
  3 15  1  0  0  0  0
  3  1  2  0  0  0  0
  4  3  1  0  0  0  0
  5  1  1  0  0  0  0
  6  4  2  0  0  0  0
  6  2  1  0  0  0  0
  7 12  1  0  0  0  0
  8 10  2  0  0  0  0
  9  8  1  0  0  0  0
  9  7  2  0  0  0  0
 10  2  1  0  0  0  0
 10 11  1  0  0  0  0
 12 11  2  0  0  0  0
 14 13  1  0  0  0  0
 15 14  2  0  0  0  0
 17 15  1  0  0  0  0
 17 16  2  0  0  0  0
 18 17  2  0  0  0  0
 19  4  1  0  0  0  0
 20 22  1  0  0  0  0
 21 24  1  6  0  0  0
 21 20  1  0  0  0  0
 21 22  1  0  0  0  0
 22 19  1  1  0  0  0
 23 24  2  0  0  0  0
 24 25  1  0  0  0  0
 25 26  1  0  0  0  0
M  END
>  <MODEL>
1

>  <REMARK>
 VINA RESULT:      -8.2      0.000      0.000
  Name = 
  7 active torsions:
  status: ('A' for Active; 'I' for Inactive)
    1  A    between atoms: C_2  and  C_19
    2  A    between atoms: C_3  and  C_26
    3  A    between atoms: C_6  and  O_18
    4  A    between atoms: C_8  and  C_14
    5  A    between atoms: C_8  and  C_22
    6  A    between atoms: N_10  and  C_26
    7  A    between atoms: O_18  and  C_24
                            x       y       z     vdW  Elec       q    Type
                         _______ _______ _______ _____ _____    ______ ____

>  <TORSDO>
F 7

$$$$
=
 OpenBabel10222418263D

 26 28  0  0  1  0  0  0  0  0999 V2000
  188.2380  177.2230  144.8950 C   0  0  0  0  0  3  0  0  0  0  0  0
  186.3670  177.9900  143.5480 C   0  0  0  0  0  0  0  0  0  0  0  0
  189.1000  177.3370  143.7970 C   0  0  0  0  0  0  0  0  0  0  0  0
  188.5970  177.8000  142.5650 C   0  0  0  0  0  0  0  0  0  0  0  0
  186.8850  177.5430  144.7720 C   0  0  0  0  0  3  0  0  0  0  0  0
  187.2340  178.1150  142.4540 C   0  0  0  0  0  3  0  0  0  0  0  0
  182.2410  178.9710  143.1620 N   0  0  0  0  0  0  0  0  0  0  0  0
  184.3050  178.3140  142.1580 C   0  0  0  0  0  3  0  0  0  0  0  0
  182.9510  178.6390  142.0520 C   0  0  0  0  0  3  0  0  0  0  0  0
  184.9310  178.3300  143.4150 C   0  0  0  0  0  0  0  0  0  0  0  0
  184.1680  178.6780  144.5400 C   0  0  0  0  0  3  0  0  0  0  0  0
  182.8170  178.9970  144.3930 C   0  0  0  0  0  3  0  0  0  0  0  0
  190.2200  174.9190  142.8250 O   0  0  0  0  0  1  0  0  0  0  0  0
  191.0190  175.8400  143.4940 C   0  0  0  0  0  3  0  0  0  0  0  0
  190.5290  176.9910  143.9720 C   0  0  0  0  0  0  0  0  0  0  0  0
  191.7730  178.9570  144.1920 O   0  0  0  0  0  0  0  0  0  0  0  0
  191.3930  177.8800  144.6990 N   0  0  0  0  0  0  0  0  0  0  0  0
  191.7770  177.5780  145.9850 O   0  0  0  0  0  0  0  0  0  0  0  0
  189.4610  177.9590  141.4730 O   0  0  0  0  0  0  0  0  0  0  0  0
  190.5030  177.3800  139.3960 C   0  0  0  0  0  2  0  0  0  0  0  0
  189.3780  178.3630  139.1100 C   0  0  2  0  0  3  0  0  0  0  0  0
  189.2370  177.3310  140.2190 C   0  0  2  0  0  3  0  0  0  0  0  0
  189.2380  177.6720  136.7640 C   0  0  0  0  0  2  0  0  0  0  0  0
  188.5910  177.9370  137.8980 C   0  0  0  0  0  0  0  0  0  0  0  0
  187.1320  177.5810  137.9670 C   0  0  0  0  0  2  0  0  0  0  0  0
  186.3530  178.6090  138.6410 N   0  0  0  0  0  1  0  0  0  0  0  0
  2  5  2  0  0  0  0
  3 15  1  0  0  0  0
  3  1  2  0  0  0  0
  4  3  1  0  0  0  0
  5  1  1  0  0  0  0
  6  4  2  0  0  0  0
  6  2  1  0  0  0  0
  7 12  1  0  0  0  0
  8 10  2  0  0  0  0
  9  8  1  0  0  0  0
  9  7  2  0  0  0  0
 10  2  1  0  0  0  0
 10 11  1  0  0  0  0
 12 11  2  0  0  0  0
 13 14  1  0  0  0  0
 14 15  2  0  0  0  0
 15 17  1  0  0  0  0
 16 17  2  0  0  0  0
 17 18  2  0  0  0  0
 19  4  1  0  0  0  0
 20 22  1  0  0  0  0
 21 24  1  6  0  0  0
 21 20  1  0  0  0  0
 21 22  1  0  0  0  0
 22 19  1  1  0  0  0
 23 24  2  0  0  0  0
 24 25  1  0  0  0  0
 25 26  1  0  0  0  0
M  END
>  <MODEL>
2

>  <REMARK>
 VINA RESULT:      -8.1      0.843      1.621
  Name = 
  7 active torsions:
  status: ('A' for Active; 'I' for Inactive)
    1  A    between atoms: C_2  and  C_19
    2  A    between atoms: C_3  and  C_26
    3  A    between atoms: C_6  and  O_18
    4  A    between atoms: C_8  and  C_14
    5  A    between atoms: C_8  and  C_22
    6  A    between atoms: N_10  and  C_26
    7  A    between atoms: O_18  and  C_24
                            x       y       z     vdW  Elec       q    Type
                         _______ _______ _______ _____ _____    ______ ____

>  <TORSDO>
F 7

$$$$
=
 OpenBabel10222418263D

 26 28  0  0  1  0  0  0  0  0999 V2000
  192.0010  177.4460  141.5530 C   0  0  0  0  0  3  0  0  0  0  0  0
  190.3310  177.1570  139.8130 C   0  0  0  0  0  0  0  0  0  0  0  0
  191.0330  177.2430  142.5440 C   0  0  0  0  0  0  0  0  0  0  0  0
  189.7020  176.9750  142.1680 C   0  0  0  0  0  0  0  0  0  0  0  0
  191.6550  177.4070  140.2020 C   0  0  0  0  0  3  0  0  0  0  0  0
  189.3650  176.9410  140.8050 C   0  0  0  0  0  3  0  0  0  0  0  0
  189.2620  177.0360  135.6920 N   0  0  0  0  0  0  0  0  0  0  0  0
  189.3290  178.2110  137.7700 C   0  0  0  0  0  3  0  0  0  0  0  0
  188.9860  178.1520  136.4170 C   0  0  0  0  0  3  0  0  0  0  0  0
  189.9600  177.1140  138.3780 C   0  0  0  0  0  0  0  0  0  0  0  0
  190.2310  175.9780  137.6010 C   0  0  0  0  0  3  0  0  0  0  0  0
  189.8720  175.9580  136.2510 C   0  0  0  0  0  3  0  0  0  0  0  0
  191.2420  179.6690  143.9990 O   0  0  0  0  0  1  0  0  0  0  0  0
  191.5260  178.4560  144.6170 C   0  0  0  0  0  3  0  0  0  0  0  0
  191.4450  177.2890  143.9650 C   0  0  0  0  0  0  0  0  0  0  0  0
  192.0380  175.0290  144.0000 O   0  0  0  0  0  0  0  0  0  0  0  0
  191.8000  176.0720  144.6430 N   0  0  0  0  0  0  0  0  0  0  0  0
  191.9260  176.0530  146.0130 O   0  0  0  0  0  0  0  0  0  0  0  0
  188.7350  176.7260  143.1510 O   0  0  0  0  0  0  0  0  0  0  0  0
  187.9800  177.4830  145.2930 C   0  0  0  0  0  2  0  0  0  0  0  0
  186.7610  177.1900  144.4320 C   0  0  2  0  0  3  0  0  0  0  0  0
  188.0250  177.7650  143.8100 C   0  0  2  0  0  3  0  0  0  0  0  0
  184.7500  178.3730  143.6870 C   0  0  0  0  0  2  0  0  0  0  0  0
  185.7220  178.2700  144.5910 C   0  0  0  0  0  0  0  0  0  0  0  0
  185.6010  179.0970  145.8420 C   0  0  0  0  0  2  0  0  0  0  0  0
  184.5930  178.5670  146.7470 N   0  0  0  0  0  1  0  0  0  0  0  0
  1  3  1  0  0  0  0
  2  5  1  0  0  0  0
  2  6  2  0  0  0  0
  3 15  1  0  0  0  0
  4  3  2  0  0  0  0
  4 19  1  0  0  0  0
  5  1  2  0  0  0  0
  6  4  1  0  0  0  0
  7 12  2  0  0  0  0
  7  9  1  0  0  0  0
  8 10  1  0  0  0  0
  9  8  2  0  0  0  0
 10  2  1  0  0  0  0
 11 10  2  0  0  0  0
 12 11  1  0  0  0  0
 13 14  1  0  0  0  0
 15 14  2  0  0  0  0
 15 17  1  0  0  0  0
 16 17  2  0  0  0  0
 17 18  2  0  0  0  0
 21 24  1  1  0  0  0
 21 20  1  0  0  0  0
 22 19  1  6  0  0  0
 22 21  1  0  0  0  0
 22 20  1  0  0  0  0
 23 24  2  0  0  0  0
 24 25  1  0  0  0  0
 25 26  1  0  0  0  0
M  END
>  <MODEL>
3

>  <REMARK>
 VINA RESULT:      -7.8      1.885      6.128
  Name = 
  7 active torsions:
  status: ('A' for Active; 'I' for Inactive)
    1  A    between atoms: C_2  and  C_19
    2  A    between atoms: C_3  and  C_26
    3  A    between atoms: C_6  and  O_18
    4  A    between atoms: C_8  and  C_14
    5  A    between atoms: C_8  and  C_22
    6  A    between atoms: N_10  and  C_26
    7  A    between atoms: O_18  and  C_24
                            x       y       z     vdW  Elec       q    Type
                         _______ _______ _______ _____ _____    ______ ____

>  <TORSDO>
F 7

$$$$
=
 OpenBabel10222418263D

 26 28  0  0  1  0  0  0  0  0999 V2000
  188.1400  178.4820  141.2720 C   0  0  0  0  0  3  0  0  0  0  0  0
  185.9760  178.3080  142.3620 C   0  0  0  0  0  0  0  0  0  0  0  0
  188.7750  177.9570  142.4050 C   0  0  0  0  0  0  0  0  0  0  0  0
  188.0020  177.5850  143.5230 C   0  0  0  0  0  0  0  0  0  0  0  0
  186.7560  178.6580  141.2500 C   0  0  0  0  0  3  0  0  0  0  0  0
  186.6110  177.7710  143.4900 C   0  0  0  0  0  3  0  0  0  0  0  0
  181.7520  178.8450  142.3020 N   0  0  0  0  0  0  0  0  0  0  0  0
  183.7780  178.3130  141.1550 C   0  0  0  0  0  3  0  0  0  0  0  0
  182.3930  178.4930  141.1560 C   0  0  0  0  0  3  0  0  0  0  0  0
  184.5060  178.4940  142.3420 C   0  0  0  0  0  0  0  0  0  0  0  0
  183.8130  178.8570  143.5070 C   0  0  0  0  0  3  0  0  0  0  0  0
  182.4270  179.0290  143.4660 C   0  0  0  0  0  3  0  0  0  0  0  0
  190.0980  176.3550  140.4740 O   0  0  0  0  0  1  0  0  0  0  0  0
  190.8300  177.0200  141.4510 C   0  0  0  0  0  3  0  0  0  0  0  0
  190.2450  177.7820  142.3830 C   0  0  0  0  0  0  0  0  0  0  0  0
  191.9740  177.7750  143.9560 O   0  0  0  0  0  0  0  0  0  0  0  0
  191.0500  178.4040  143.3980 N   0  0  0  0  0  0  0  0  0  0  0  0
  190.8420  179.7210  143.7380 O   0  0  0  0  0  0  0  0  0  0  0  0
  188.6230  177.0180  144.6430 O   0  0  0  0  0  0  0  0  0  0  0  0
  189.3140  176.7720  146.9230 C   0  0  0  0  0  2  0  0  0  0  0  0
  187.8310  177.1070  146.9060 C   0  0  2  0  0  3  0  0  0  0  0  0
  188.7700  177.7130  145.8740 C   0  0  2  0  0  3  0  0  0  0  0  0
  188.2960  178.2360  149.0300 C   0  0  0  0  0  2  0  0  0  0  0  0
  187.5000  178.1230  147.9680 C   0  0  0  0  0  0  0  0  0  0  0  0
  186.4360  179.1700  147.7820 C   0  0  0  0  0  2  0  0  0  0  0  0
  185.3220  178.6770  146.9870 N   0  0  0  0  0  1  0  0  0  0  0  0
  1  3  1  0  0  0  0
  2  6  2  0  0  0  0
  3  4  2  0  0  0  0
  4 19  1  0  0  0  0
  5  1  2  0  0  0  0
  5  2  1  0  0  0  0
  6  4  1  0  0  0  0
  7 12  1  0  0  0  0
  8  9  1  0  0  0  0
  8 10  2  0  0  0  0
  9  7  2  0  0  0  0
 10  2  1  0  0  0  0
 10 11  1  0  0  0  0
 12 11  2  0  0  0  0
 13 14  1  0  0  0  0
 14 15  2  0  0  0  0
 15  3  1  0  0  0  0
 15 17  1  0  0  0  0
 17 18  2  0  0  0  0
 17 16  2  0  0  0  0
 21 20  1  0  0  0  0
 21 24  1  1  0  0  0
 22 19  1  6  0  0  0
 22 21  1  0  0  0  0
 22 20  1  0  0  0  0
 24 23  2  0  0  0  0
 25 24  1  0  0  0  0
 26 25  1  0  0  0  0
M  END
>  <MODEL>
4

>  <REMARK>
 VINA RESULT:      -7.8      2.275      5.254
  Name = 
  7 active torsions:
  status: ('A' for Active; 'I' for Inactive)
    1  A    between atoms: C_2  and  C_19
    2  A    between atoms: C_3  and  C_26
    3  A    between atoms: C_6  and  O_18
    4  A    between atoms: C_8  and  C_14
    5  A    between atoms: C_8  and  C_22
    6  A    between atoms: N_10  and  C_26
    7  A    between atoms: O_18  and  C_24
                            x       y       z     vdW  Elec       q    Type
                         _______ _______ _______ _____ _____    ______ ____

>  <TORSDO>
F 7

$$$$
=
 OpenBabel10222418263D

 26 28  0  0  1  0  0  0  0  0999 V2000
  186.7170  178.7470  146.3840 C   0  0  0  0  0  3  0  0  0  0  0  0
  185.3720  178.3000  144.4100 C   0  0  0  0  0  0  0  0  0  0  0  0
  187.7120  177.8740  145.9280 C   0  0  0  0  0  0  0  0  0  0  0  0
  187.5470  177.2190  144.6910 C   0  0  0  0  0  0  0  0  0  0  0  0
  185.5580  178.9570  145.6350 C   0  0  0  0  0  3  0  0  0  0  0  0
  186.3750  177.4360  143.9490 C   0  0  0  0  0  3  0  0  0  0  0  0
  181.8380  178.9340  142.1210 N   0  0  0  0  0  0  0  0  0  0  0  0
  182.9290  178.8380  144.2430 C   0  0  0  0  0  3  0  0  0  0  0  0
  181.7800  179.0420  143.4750 C   0  0  0  0  0  3  0  0  0  0  0  0
  184.1430  178.5210  143.6130 C   0  0  0  0  0  0  0  0  0  0  0  0
  184.1670  178.4170  142.2130 C   0  0  0  0  0  3  0  0  0  0  0  0
  182.9960  178.6280  141.4810 C   0  0  0  0  0  3  0  0  0  0  0  0
  187.6140  177.5030  148.7390 O   0  0  0  0  0  1  0  0  0  0  0  0
  188.8370  177.5070  148.0760 C   0  0  0  0  0  3  0  0  0  0  0  0
  188.9270  177.6840  146.7520 C   0  0  0  0  0  0  0  0  0  0  0  0
  191.0700  176.8390  146.3530 O   0  0  0  0  0  0  0  0  0  0  0  0
  190.2220  177.7290  146.1300 N   0  0  0  0  0  0  0  0  0  0  0  0
  190.5310  178.7330  145.2420 O   0  0  0  0  0  0  0  0  0  0  0  0
  188.5560  176.3780  144.2060 O   0  0  0  0  0  0  0  0  0  0  0  0
  190.3000  175.9350  142.6250 C   0  0  0  0  0  2  0  0  0  0  0  0
  189.7690  177.3380  142.3730 C   0  0  2  0  0  3  0  0  0  0  0  0
  188.8310  176.2270  142.8200 C   0  0  2  0  0  3  0  0  0  0  0  0
  190.4760  177.0430  140.0460 C   0  0  0  0  0  2  0  0  0  0  0  0
  189.6100  177.5910  140.8960 C   0  0  0  0  0  0  0  0  0  0  0  0
  188.3890  178.2520  140.3170 C   0  0  0  0  0  2  0  0  0  0  0  0
  188.6770  178.9110  139.0520 N   0  0  0  0  0  1  0  0  0  0  0  0
  2  5  1  0  0  0  0
  3  1  1  0  0  0  0
  3 15  1  0  0  0  0
  4  3  2  0  0  0  0
  5  1  2  0  0  0  0
  6  2  2  0  0  0  0
  6  4  1  0  0  0  0
  7  9  1  0  0  0  0
  9  8  2  0  0  0  0
 10  8  1  0  0  0  0
 10  2  1  0  0  0  0
 11 10  2  0  0  0  0
 12  7  2  0  0  0  0
 12 11  1  0  0  0  0
 14 13  1  0  0  0  0
 15 14  2  0  0  0  0
 17 16  2  0  0  0  0
 17 15  1  0  0  0  0
 18 17  2  0  0  0  0
 19  4  1  0  0  0  0
 20 22  1  0  0  0  0
 21 24  1  6  0  0  0
 21 20  1  0  0  0  0
 21 22  1  0  0  0  0
 22 19  1  1  0  0  0
 23 24  2  0  0  0  0
 25 24  1  0  0  0  0
 26 25  1  0  0  0  0
M  END
>  <MODEL>
5

>  <REMARK>
 VINA RESULT:      -7.7      2.103      3.182
  Name = 
  7 active torsions:
  status: ('A' for Active; 'I' for Inactive)
    1  A    between atoms: C_2  and  C_19
    2  A    between atoms: C_3  and  C_26
    3  A    between atoms: C_6  and  O_18
    4  A    between atoms: C_8  and  C_14
    5  A    between atoms: C_8  and  C_22
    6  A    between atoms: N_10  and  C_26
    7  A    between atoms: O_18  and  C_24
                            x       y       z     vdW  Elec       q    Type
                         _______ _______ _______ _____ _____    ______ ____

>  <TORSDO>
F 7

$$$$
=
 OpenBabel10222418263D

 26 28  0  0  1  0  0  0  0  0999 V2000
  191.3250  177.2220  141.4870 C   0  0  0  0  0  3  0  0  0  0  0  0
  189.2880  177.6640  140.2380 C   0  0  0  0  0  0  0  0  0  0  0  0
  190.5850  177.0060  142.6560 C   0  0  0  0  0  0  0  0  0  0  0  0
  189.1790  177.1010  142.6140 C   0  0  0  0  0  0  0  0  0  0  0  0
  190.6850  177.5500  140.2900 C   0  0  0  0  0  3  0  0  0  0  0  0
  188.5480  177.4350  141.4060 C   0  0  0  0  0  3  0  0  0  0  0  0
  187.3290  178.6660  136.5920 N   0  0  0  0  0  0  0  0  0  0  0  0
  189.3410  178.4670  137.8630 C   0  0  0  0  0  3  0  0  0  0  0  0
  188.6800  178.7900  136.6760 C   0  0  0  0  0  3  0  0  0  0  0  0
  188.6050  178.0120  138.9690 C   0  0  0  0  0  0  0  0  0  0  0  0
  187.2120  177.8950  138.8480 C   0  0  0  0  0  3  0  0  0  0  0  0
  186.5890  178.2290  137.6440 C   0  0  0  0  0  3  0  0  0  0  0  0
  191.2070  174.3310  143.3640 O   0  0  0  0  0  1  0  0  0  0  0  0
  191.5820  175.3800  144.1970 C   0  0  0  0  0  3  0  0  0  0  0  0
  191.3030  176.6560  143.9020 C   0  0  0  0  0  0  0  0  0  0  0  0
  191.6940  177.4760  146.0550 O   0  0  0  0  0  0  0  0  0  0  0  0
  191.6720  177.6940  144.8260 N   0  0  0  0  0  0  0  0  0  0  0  0
  192.0500  178.9330  144.3630 O   0  0  0  0  0  0  0  0  0  0  0  0
  188.4270  176.8440  143.7680 O   0  0  0  0  0  0  0  0  0  0  0  0
  187.9270  177.5050  146.0150 C   0  0  0  0  0  2  0  0  0  0  0  0
  186.6160  177.3330  145.2630 C   0  0  2  0  0  3  0  0  0  0  0  0
  187.8470  177.8770  144.5530 C   0  0  2  0  0  3  0  0  0  0  0  0
  185.6560  178.9670  146.8150 C   0  0  0  0  0  2  0  0  0  0  0  0
  185.6640  178.4550  145.5850 C   0  0  0  0  0  0  0  0  0  0  0  0
  184.8760  179.1760  144.5270 C   0  0  0  0  0  2  0  0  0  0  0  0
  184.2880  178.2550  143.5660 N   0  0  0  0  0  1  0  0  0  0  0  0
  1  3  1  0  0  0  0
  2  5  1  0  0  0  0
  2  6  2  0  0  0  0
  3 15  1  0  0  0  0
  4  3  2  0  0  0  0
  4 19  1  0  0  0  0
  5  1  2  0  0  0  0
  6  4  1  0  0  0  0
  7  9  2  0  0  0  0
  7 12  1  0  0  0  0
  8 10  2  0  0  0  0
  9  8  1  0  0  0  0
 10  2  1  0  0  0  0
 11 10  1  0  0  0  0
 12 11  2  0  0  0  0
 13 14  1  0  0  0  0
 15 14  2  0  0  0  0
 15 17  1  0  0  0  0
 17 16  2  0  0  0  0
 18 17  2  0  0  0  0
 21 24  1  1  0  0  0
 21 20  1  0  0  0  0
 22 19  1  6  0  0  0
 22 21  1  0  0  0  0
 22 20  1  0  0  0  0
 24 23  2  0  0  0  0
 25 24  1  0  0  0  0
 26 25  1  0  0  0  0
M  END
>  <MODEL>
6

>  <REMARK>
 VINA RESULT:      -7.2      1.707      5.726
  Name = 
  7 active torsions:
  status: ('A' for Active; 'I' for Inactive)
    1  A    between atoms: C_2  and  C_19
    2  A    between atoms: C_3  and  C_26
    3  A    between atoms: C_6  and  O_18
    4  A    between atoms: C_8  and  C_14
    5  A    between atoms: C_8  and  C_22
    6  A    between atoms: N_10  and  C_26
    7  A    between atoms: O_18  and  C_24
                            x       y       z     vdW  Elec       q    Type
                         _______ _______ _______ _____ _____    ______ ____

>  <TORSDO>
F 7

$$$$
=
 OpenBabel10222418263D

 26 28  0  0  1  0  0  0  0  0999 V2000
  183.4120  178.6470  142.2000 C   0  0  0  0  0  3  0  0  0  0  0  0
  185.3990  178.4150  143.5790 C   0  0  0  0  0  0  0  0  0  0  0  0
  184.1940  178.6440  141.0380 C   0  0  0  0  0  0  0  0  0  0  0  0
  185.5930  178.5070  141.1440 C   0  0  0  0  0  0  0  0  0  0  0  0
  184.0070  178.5360  143.4580 C   0  0  0  0  0  3  0  0  0  0  0  0
  186.1790  178.3990  142.4150 C   0  0  0  0  0  3  0  0  0  0  0  0
  187.2200  178.0780  147.4140 N   0  0  0  0  0  0  0  0  0  0  0  0
  185.3750  178.7640  146.0620 C   0  0  0  0  0  3  0  0  0  0  0  0
  185.9890  178.6440  147.3110 C   0  0  0  0  0  3  0  0  0  0  0  0
  186.0330  178.2960  144.9130 C   0  0  0  0  0  0  0  0  0  0  0  0
  187.3030  177.7170  145.0550 C   0  0  0  0  0  3  0  0  0  0  0  0
  187.8830  177.6160  146.3210 C   0  0  0  0  0  3  0  0  0  0  0  0
  183.0720  176.4150  139.6910 O   0  0  0  0  0  1  0  0  0  0  0  0
  183.0010  177.6820  139.1240 C   0  0  0  0  0  3  0  0  0  0  0  0
  183.5220  178.7600  139.7240 C   0  0  0  0  0  0  0  0  0  0  0  0
  184.5070  180.6170  138.7030 O   0  0  0  0  0  0  0  0  0  0  0  0
  183.4630  180.0360  139.0650 N   0  0  0  0  0  0  0  0  0  0  0  0
  182.2470  180.6160  138.7850 O   0  0  0  0  0  0  0  0  0  0  0  0
  186.3790  178.4590  139.9860 O   0  0  0  0  0  0  0  0  0  0  0  0
  188.3550  178.2740  138.6450 C   0  0  0  0  0  2  0  0  0  0  0  0
  188.4250  177.2300  139.7490 C   0  0  2  0  0  3  0  0  0  0  0  0
  187.7940  178.5890  140.0120 C   0  0  2  0  0  3  0  0  0  0  0  0
  189.9460  177.2040  141.6700 C   0  0  0  0  0  2  0  0  0  0  0  0
  189.8080  177.1740  140.3450 C   0  0  0  0  0  0  0  0  0  0  0  0
  191.0300  176.8630  139.5250 C   0  0  0  0  0  2  0  0  0  0  0  0
  190.8700  175.6390  138.7550 N   0  0  0  0  0  1  0  0  0  0  0  0
  1  5  1  0  0  0  0
  2 10  1  0  0  0  0
  3  4  1  0  0  0  0
  3  1  2  0  0  0  0
  4  6  2  0  0  0  0
  5  2  2  0  0  0  0
  6  2  1  0  0  0  0
  8  9  2  0  0  0  0
  9  7  1  0  0  0  0
 10 11  2  0  0  0  0
 10  8  1  0  0  0  0
 11 12  1  0  0  0  0
 12  7  2  0  0  0  0
 14 13  1  0  0  0  0
 14 15  2  0  0  0  0
 15  3  1  0  0  0  0
 16 17  2  0  0  0  0
 17 15  1  0  0  0  0
 18 17  2  0  0  0  0
 19  4  1  0  0  0  0
 20 21  1  0  0  0  0
 20 22  1  0  0  0  0
 21 22  1  0  0  0  0
 21 24  1  1  0  0  0
 22 19  1  6  0  0  0
 24 23  2  0  0  0  0
 25 24  1  0  0  0  0
 26 25  1  0  0  0  0
M  END
>  <MODEL>
7

>  <REMARK>
 VINA RESULT:      -7.2      3.198      5.962
  Name = 
  7 active torsions:
  status: ('A' for Active; 'I' for Inactive)
    1  A    between atoms: C_2  and  C_19
    2  A    between atoms: C_3  and  C_26
    3  A    between atoms: C_6  and  O_18
    4  A    between atoms: C_8  and  C_14
    5  A    between atoms: C_8  and  C_22
    6  A    between atoms: N_10  and  C_26
    7  A    between atoms: O_18  and  C_24
                            x       y       z     vdW  Elec       q    Type
                         _______ _______ _______ _____ _____    ______ ____

>  <TORSDO>
F 7

$$$$
=
 OpenBabel10222418263D

 26 28  0  0  1  0  0  0  0  0999 V2000
  183.3740  178.6130  141.9500 C   0  0  0  0  0  3  0  0  0  0  0  0
  185.3740  178.4140  143.3160 C   0  0  0  0  0  0  0  0  0  0  0  0
  184.1520  178.6940  140.7890 C   0  0  0  0  0  0  0  0  0  0  0  0
  185.5560  178.6150  140.8870 C   0  0  0  0  0  0  0  0  0  0  0  0
  183.9780  178.4770  143.2020 C   0  0  0  0  0  3  0  0  0  0  0  0
  186.1500  178.4810  142.1510 C   0  0  0  0  0  3  0  0  0  0  0  0
  187.2240  177.9940  147.1290 N   0  0  0  0  0  0  0  0  0  0  0  0
  187.2520  177.6120  144.7720 C   0  0  0  0  0  3  0  0  0  0  0  0
  187.8430  177.4850  146.0310 C   0  0  0  0  0  3  0  0  0  0  0  0
  186.0180  178.2690  144.6430 C   0  0  0  0  0  0  0  0  0  0  0  0
  185.4060  178.7830  145.7970 C   0  0  0  0  0  3  0  0  0  0  0  0
  186.0290  178.6350  147.0380 C   0  0  0  0  0  3  0  0  0  0  0  0
  183.3870  176.4610  139.2150 O   0  0  0  0  0  1  0  0  0  0  0  0
  183.1220  177.7530  138.7720 C   0  0  0  0  0  3  0  0  0  0  0  0
  183.4710  178.8340  139.4820 C   0  0  0  0  0  0  0  0  0  0  0  0
  184.1570  180.9320  138.7130 O   0  0  0  0  0  0  0  0  0  0  0  0
  183.2170  180.1440  138.9480 N   0  0  0  0  0  0  0  0  0  0  0  0
  181.9320  180.5330  138.6470 O   0  0  0  0  0  0  0  0  0  0  0  0
  186.3400  178.6500  139.7260 O   0  0  0  0  0  0  0  0  0  0  0  0
  188.7010  178.6260  139.3290 C   0  0  0  0  0  2  0  0  0  0  0  0
  188.0070  178.0080  138.1260 C   0  0  2  0  0  3  0  0  0  0  0  0
  187.4560  177.7940  139.5270 C   0  0  2  0  0  3  0  0  0  0  0  0
  188.0730  175.8400  136.9860 C   0  0  0  0  0  2  0  0  0  0  0  0
  188.7390  176.7760  137.6600 C   0  0  0  0  0  0  0  0  0  0  0  0
  190.2360  176.6530  137.7270 C   0  0  0  0  0  2  0  0  0  0  0  0
  190.6550  175.6360  138.6800 N   0  0  0  0  0  1  0  0  0  0  0  0
  1  5  1  0  0  0  0
  2 10  1  0  0  0  0
  3  4  1  0  0  0  0
  3  1  2  0  0  0  0
  4  6  2  0  0  0  0
  5  2  2  0  0  0  0
  6  2  1  0  0  0  0
  8  9  1  0  0  0  0
  9  7  2  0  0  0  0
 10  8  2  0  0  0  0
 10 11  1  0  0  0  0
 11 12  2  0  0  0  0
 12  7  1  0  0  0  0
 14 13  1  0  0  0  0
 14 15  2  0  0  0  0
 15  3  1  0  0  0  0
 16 17  2  0  0  0  0
 17 15  1  0  0  0  0
 18 17  2  0  0  0  0
 19  4  1  0  0  0  0
 20 22  1  0  0  0  0
 21 24  1  1  0  0  0
 21 20  1  0  0  0  0
 21 22  1  0  0  0  0
 22 19  1  6  0  0  0
 23 24  2  0  0  0  0
 24 25  1  0  0  0  0
 25 26  1  0  0  0  0
M  END
>  <MODEL>
8

>  <REMARK>
 VINA RESULT:      -7.2      3.284      5.850
  Name = 
  7 active torsions:
  status: ('A' for Active; 'I' for Inactive)
    1  A    between atoms: C_2  and  C_19
    2  A    between atoms: C_3  and  C_26
    3  A    between atoms: C_6  and  O_18
    4  A    between atoms: C_8  and  C_14
    5  A    between atoms: C_8  and  C_22
    6  A    between atoms: N_10  and  C_26
    7  A    between atoms: O_18  and  C_24
                            x       y       z     vdW  Elec       q    Type
                         _______ _______ _______ _____ _____    ______ ____

>  <TORSDO>
F 7

$$$$
=
 OpenBabel10222418263D

 26 28  0  0  1  0  0  0  0  0999 V2000
  187.1000  178.5050  146.0640 C   0  0  0  0  0  3  0  0  0  0  0  0
  185.6130  178.2120  144.1650 C   0  0  0  0  0  0  0  0  0  0  0  0
  188.1090  177.7860  145.4100 C   0  0  0  0  0  0  0  0  0  0  0  0
  187.8760  177.2890  144.1110 C   0  0  0  0  0  0  0  0  0  0  0  0
  185.8640  178.7140  145.4500 C   0  0  0  0  0  3  0  0  0  0  0  0
  186.6280  177.5040  143.5060 C   0  0  0  0  0  3  0  0  0  0  0  0
  181.8470  178.8480  142.2820 N   0  0  0  0  0  0  0  0  0  0  0  0
  184.1610  178.2800  142.1220 C   0  0  0  0  0  3  0  0  0  0  0  0
  182.9170  178.4930  141.5230 C   0  0  0  0  0  3  0  0  0  0  0  0
  184.3020  178.4330  143.5100 C   0  0  0  0  0  0  0  0  0  0  0  0
  183.1760  178.8000  144.2640 C   0  0  0  0  0  3  0  0  0  0  0  0
  181.9500  179.0040  143.6270 C   0  0  0  0  0  3  0  0  0  0  0  0
  190.4980  179.0540  144.5550 O   0  0  0  0  0  1  0  0  0  0  0  0
  190.5100  178.2120  145.6620 C   0  0  0  0  0  3  0  0  0  0  0  0
  189.4060  177.5910  146.0960 C   0  0  0  0  0  0  0  0  0  0  0  0
  188.4710  176.3850  147.8660 O   0  0  0  0  0  0  0  0  0  0  0  0
  189.4910  176.6930  147.2150 N   0  0  0  0  0  0  0  0  0  0  0  0
  190.6960  176.1240  147.5580 O   0  0  0  0  0  0  0  0  0  0  0  0
  188.8940  176.6070  143.4320 O   0  0  0  0  0  0  0  0  0  0  0  0
  190.3350  176.5030  141.5220 C   0  0  0  0  0  2  0  0  0  0  0  0
  189.4520  177.7340  141.3890 C   0  0  2  0  0  3  0  0  0  0  0  0
  188.9090  176.4600  142.0190 C   0  0  2  0  0  3  0  0  0  0  0  0
  187.7090  178.3400  139.7770 C   0  0  0  0  0  2  0  0  0  0  0  0
  188.9420  177.8760  139.9790 C   0  0  0  0  0  0  0  0  0  0  0  0
  189.8350  177.7280  138.7770 C   0  0  0  0  0  2  0  0  0  0  0  0
  189.5930  176.4790  138.0720 N   0  0  0  0  0  1  0  0  0  0  0  0
  2  5  2  0  0  0  0
  3  1  2  0  0  0  0
  3 15  1  0  0  0  0
  4  3  1  0  0  0  0
  5  1  1  0  0  0  0
  6  4  2  0  0  0  0
  6  2  1  0  0  0  0
  7 12  1  0  0  0  0
  8 10  2  0  0  0  0
  9  8  1  0  0  0  0
  9  7  2  0  0  0  0
 10  2  1  0  0  0  0
 10 11  1  0  0  0  0
 12 11  2  0  0  0  0
 13 14  1  0  0  0  0
 14 15  2  0  0  0  0
 15 17  1  0  0  0  0
 17 18  2  0  0  0  0
 17 16  2  0  0  0  0
 19  4  1  0  0  0  0
 20 22  1  0  0  0  0
 21 24  1  6  0  0  0
 21 20  1  0  0  0  0
 21 22  1  0  0  0  0
 22 19  1  1  0  0  0
 23 24  2  0  0  0  0
 25 24  1  0  0  0  0
 26 25  1  0  0  0  0
M  END
>  <MODEL>
9

>  <REMARK>
 VINA RESULT:      -7.1      2.050      2.568
  Name = 
  7 active torsions:
  status: ('A' for Active; 'I' for Inactive)
    1  A    between atoms: C_2  and  C_19
    2  A    between atoms: C_3  and  C_26
    3  A    between atoms: C_6  and  O_18
    4  A    between atoms: C_8  and  C_14
    5  A    between atoms: C_8  and  C_22
    6  A    between atoms: N_10  and  C_26
    7  A    between atoms: O_18  and  C_24
                            x       y       z     vdW  Elec       q    Type
                         _______ _______ _______ _____ _____    ______ ____

>  <TORSDO>
F 7

$$$$
