=
 OpenBabel10222418573D

 43 49  0  0  1  0  0  0  0  0999 V2000
  189.8080  174.4390  137.1300 C   0  0  0  0  0  0  0  0  0  0  0  0
  183.7120  175.4540  137.4600 C   0  0  0  0  0  0  0  0  0  0  0  0
  182.3320  175.1450  137.9330 C   0  0  0  0  0  1  0  0  0  0  0  0
  186.6250  173.6600  134.9260 C   0  0  0  0  0  0  0  0  0  0  0  0
  189.6990  173.2940  136.1390 C   0  0  1  0  0  3  0  0  0  0  0  0
  188.9270  175.3850  137.3460 C   0  0  0  0  0  0  0  0  0  0  0  0
  185.3870  172.9880  134.8980 O   0  0  0  0  0  0  0  0  0  0  0  0
  185.8610  177.7410  136.3890 F   0  0  0  0  0  0  0  0  0  0  0  0
  187.7550  173.0420  134.5940 C   0  0  0  0  0  3  0  0  0  0  0  0
  184.4110  176.5380  137.8360 C   0  0  0  0  0  3  0  0  0  0  0  0
  191.5960  176.1020  137.4280 N   0  0  0  0  0  2  0  0  0  0  0  0
  189.0190  173.6510  134.8950 N   0  0  0  0  0  2  0  0  0  0  0  0
  185.7730  176.6020  137.1700 C   0  0  2  0  0  0  0  0  0  0  0  0
  186.9190  176.5330  138.2030 C   0  0  0  0  0  2  0  0  0  0  0  0
  192.0080  173.8810  136.6100 N   0  0  0  0  0  0  0  0  0  0  0  0
  186.7110  174.9860  135.5160 C   0  0  0  0  0  3  0  0  0  0  0  0
  185.7500  175.3830  136.3190 C   0  0  0  0  0  0  0  0  0  0  0  0
  193.4440  173.6820  136.7140 C   0  0  0  0  0  1  0  0  0  0  0  0
  191.5520  172.1530  135.0750 O   0  0  0  0  0  0  0  0  0  0  0  0
  191.2380  174.6840  137.5390 C   0  0  2  0  0  3  0  0  0  0  0  0
  184.7710  173.2690  137.2130 C   0  0  0  0  0  2  0  0  0  0  0  0
  191.2140  176.7190  138.6980 C   0  0  0  0  0  2  0  0  0  0  0  0
  188.2990  176.5110  137.5790 C   0  0  0  0  0  0  0  0  0  0  0  0
  189.1530  177.7490  137.4560 C   0  0  2  0  0  3  0  0  0  0  0  0
  184.5250  174.6170  136.5510 C   0  0  1  0  0  0  0  0  0  0  0  0
  191.1370  173.0410  135.8650 C   0  0  0  0  0  0  0  0  0  0  0  0
  184.2820  173.3190  135.7730 C   0  0  1  0  0  3  0  0  0  0  0  0
  190.2540  177.9190  138.5310 C   0  0  1  0  0  3  0  0  0  0  0  0
  188.3530  179.0280  137.2480 C   0  0  0  0  0  1  0  0  0  0  0  0
  189.6020  177.4170  140.8360 C   0  0  0  0  0  0  0  0  0  0  0  0
  189.6580  178.2780  139.8570 C   0  0  0  0  0  3  0  0  0  0  0  0
  189.5420  176.5520  141.8130 C   0  0  0  0  0  3  0  0  0  0  0  0
  189.5680  177.4690  146.6600 C   0  0  0  0  0  2  0  0  0  0  0  0
  191.2180  176.8980  144.3740 C   0  0  0  0  0  2  0  0  0  0  0  0
  187.7590  176.7370  143.3220 O   0  0  0  0  0  0  0  0  0  0  0  0
  191.8300  177.4860  145.5700 N   0  0  0  0  0  2  0  0  0  0  0  0
  189.2170  178.1000  145.3160 C   0  0  0  0  0  2  0  0  0  0  0  0
  191.0660  177.1290  146.7720 C   0  0  2  0  0  3  0  0  0  0  0  0
  189.8220  177.3230  144.2390 N   0  0  0  0  0  0  0  0  0  0  0  0
  189.0000  176.8690  143.1470 C   0  0  0  0  0  0  0  0  0  0  0  0
  191.2420  175.7180  147.0820 N   0  0  0  0  0  2  0  0  0  0  0  0
  192.7430  176.3940  148.4080 O   0  0  0  0  0  1  0  0  0  0  0  0
  192.5410  175.5450  147.4230 O   0  0  0  0  0  0  0  0  0  0  0  0
  1  6  2  0  0  0  0
  2 10  2  0  0  0  0
  2  3  1  0  0  0  0
  4 16  1  0  0  0  0
  5 12  1  6  0  0  0
  5  1  1  0  0  0  0
  6 23  2  0  0  0  0
  7  4  1  0  0  0  0
  7 27  1  0  0  0  0
  9 12  1  0  0  0  0
  9  4  2  0  0  0  0
 11 20  1  0  0  0  0
 11 22  1  0  0  0  0
 13  8  1  6  0  0  0
 13 10  1  0  0  0  0
 13 14  1  0  0  0  0
 15 18  1  0  0  0  0
 15 20  1  0  0  0  0
 16 17  2  0  0  0  0
 17 25  1  0  0  0  0
 17 13  1  0  0  0  0
 19 26  2  0  0  0  0
 20  1  1  6  0  0  0
 23 14  1  0  0  0  0
 24 29  1  1  0  0  0
 24 23  1  0  0  0  0
 24 28  1  0  0  0  0
 25 21  1  1  0  0  0
 25  2  1  0  0  0  0
 26  5  1  0  0  0  0
 26 15  1  0  0  0  0
 27 25  1  0  0  0  0
 27 21  1  1  0  0  0
 28 22  1  0  0  0  0
 28 31  1  1  0  0  0
 30 32  2  0  0  0  0
 31 30  2  0  0  0  0
 32 40  1  0  0  0  0
 33 38  1  0  0  0  0
 34 36  1  0  0  0  0
 36 38  1  0  0  0  0
 37 33  1  0  0  0  0
 38 41  1  6  0  0  0
 39 34  1  0  0  0  0
 39 37  1  0  0  0  0
 40 35  2  0  0  0  0
 40 39  1  0  0  0  0
 41 43  1  0  0  0  0
 43 42  1  0  0  0  0
M  END
>  <MODEL>
1

>  <REMARK>
 VINA RESULT:      -8.3      0.000      0.000
  Name = 
  4 active torsions:
  status: ('A' for Active; 'I' for Inactive)
    1  A    between atoms: N_22  and  C_40
    2  A    between atoms: N_22  and  O_41
    3  A    between atoms: C_27  and  C_38
    4  A    between atoms: C_28  and  C_43
                            x       y       z     vdW  Elec       q    Type
                         _______ _______ _______ _____ _____    ______ ____

>  <TORSDO>
F 4

$$$$
=
 OpenBabel10222418573D

 43 49  0  0  1  0  0  0  0  0999 V2000
  185.7860  177.9040  143.8070 C   0  0  0  0  0  0  0  0  0  0  0  0
  190.9470  176.4120  146.8790 C   0  0  0  0  0  0  0  0  0  0  0  0
  191.7920  175.5030  147.7060 C   0  0  0  0  0  1  0  0  0  0  0  0
  187.3470  178.6340  147.3600 C   0  0  0  0  0  0  0  0  0  0  0  0
  184.9870  178.2520  145.0510 C   0  0  1  0  0  3  0  0  0  0  0  0
  187.0910  177.8790  143.6870 C   0  0  0  0  0  0  0  0  0  0  0  0
  187.7910  178.0440  148.5610 O   0  0  0  0  0  0  0  0  0  0  0  0
  190.8210  178.8780  144.6660 F   0  0  0  0  0  0  0  0  0  0  0  0
  186.0720  178.9650  147.1820 C   0  0  0  0  0  3  0  0  0  0  0  0
  191.2110  176.7300  145.6010 C   0  0  0  0  0  3  0  0  0  0  0  0
  185.6410  178.8240  141.5310 N   0  0  0  0  0  2  0  0  0  0  0  0
  185.5950  179.2990  145.8710 N   0  0  0  0  0  2  0  0  0  0  0  0
  190.1940  177.6990  145.0280 C   0  0  2  0  0  0  0  0  0  0  0  0
  189.4210  177.0810  143.8430 C   0  0  0  0  0  2  0  0  0  0  0  0
  183.7520  178.7090  143.0100 N   0  0  0  0  0  0  0  0  0  0  0  0
  188.2450  178.7040  146.2180 C   0  0  0  0  0  3  0  0  0  0  0  0
  189.2970  177.9170  146.1930 C   0  0  0  0  0  0  0  0  0  0  0  0
  182.5820  178.9200  142.1730 C   0  0  0  0  0  1  0  0  0  0  0  0
  182.7550  179.1910  145.0890 O   0  0  0  0  0  0  0  0  0  0  0  0
  184.9540  178.0360  142.5580 C   0  0  2  0  0  3  0  0  0  0  0  0
  188.6710  175.9910  147.6500 C   0  0  0  0  0  2  0  0  0  0  0  0
  186.4700  177.8810  140.7800 C   0  0  0  0  0  2  0  0  0  0  0  0
  188.3350  177.9830  143.2910 C   0  0  0  0  0  0  0  0  0  0  0  0
  188.5400  178.8390  142.0640 C   0  0  2  0  0  3  0  0  0  0  0  0
  189.6940  177.0670  147.3150 C   0  0  1  0  0  0  0  0  0  0  0  0
  183.7410  178.7680  144.4300 C   0  0  0  0  0  0  0  0  0  0  0  0
  188.9110  177.1290  148.6310 C   0  0  1  0  0  3  0  0  0  0  0  0
  187.9640  178.2730  140.7430 C   0  0  1  0  0  3  0  0  0  0  0  0
  189.9670  179.3430  141.8990 C   0  0  0  0  0  1  0  0  0  0  0  0
  189.0120  176.9320  138.9830 C   0  0  0  0  0  0  0  0  0  0  0  0
  188.7790  177.1160  140.2550 C   0  0  0  0  0  3  0  0  0  0  0  0
  189.2380  176.7460  137.7110 C   0  0  0  0  0  3  0  0  0  0  0  0
  193.3340  174.2780  136.4990 C   0  0  0  0  0  2  0  0  0  0  0  0
  192.3180  176.6860  137.7010 C   0  0  0  0  0  2  0  0  0  0  0  0
  189.5020  174.7870  136.4560 O   0  0  0  0  0  0  0  0  0  0  0  0
  193.7050  176.2860  137.9610 N   0  0  0  0  0  2  0  0  0  0  0  0
  192.0980  174.1980  137.3890 C   0  0  0  0  0  2  0  0  0  0  0  0
  194.2290  175.4810  136.8500 C   0  0  2  0  0  3  0  0  0  0  0  0
  191.4700  175.5130  137.4730 N   0  0  0  0  0  0  0  0  0  0  0  0
  190.0660  175.6460  137.1840 C   0  0  0  0  0  0  0  0  0  0  0  0
  194.4370  176.3160  135.6760 N   0  0  0  0  0  2  0  0  0  0  0  0
  195.4410  178.1660  135.4880 O   0  0  0  0  0  1  0  0  0  0  0  0
  195.6470  176.9080  135.8170 O   0  0  0  0  0  0  0  0  0  0  0  0
  2 25  1  0  0  0  0
  2  3  1  0  0  0  0
  4  7  1  0  0  0  0
  5  1  1  6  0  0  0
  5 12  1  0  0  0  0
  6  1  2  0  0  0  0
  7 27  1  0  0  0  0
  9  4  2  0  0  0  0
 10  2  2  0  0  0  0
 12  9  1  0  0  0  0
 13  8  1  6  0  0  0
 13 10  1  0  0  0  0
 13 17  1  0  0  0  0
 14 13  1  0  0  0  0
 15 26  1  0  0  0  0
 16  4  1  0  0  0  0
 17 16  2  0  0  0  0
 17 25  1  0  0  0  0
 18 15  1  0  0  0  0
 20 11  1  6  0  0  0
 20 15  1  0  0  0  0
 20  1  1  0  0  0  0
 22 11  1  0  0  0  0
 23  6  2  0  0  0  0
 23 14  1  0  0  0  0
 24 29  1  6  0  0  0
 24 23  1  0  0  0  0
 25 21  1  6  0  0  0
 25 27  1  0  0  0  0
 26  5  1  0  0  0  0
 26 19  2  0  0  0  0
 27 21  1  6  0  0  0
 28 31  1  1  0  0  0
 28 22  1  0  0  0  0
 28 24  1  0  0  0  0
 30 31  2  0  0  0  0
 32 30  2  0  0  0  0
 33 38  1  0  0  0  0
 33 37  1  0  0  0  0
 34 36  1  0  0  0  0
 35 40  2  0  0  0  0
 37 39  1  0  0  0  0
 38 41  1  6  0  0  0
 38 36  1  0  0  0  0
 39 34  1  0  0  0  0
 40 39  1  0  0  0  0
 40 32  1  0  0  0  0
 41 43  1  0  0  0  0
 42 43  1  0  0  0  0
M  END
>  <MODEL>
2

>  <REMARK>
 VINA RESULT:      -7.9      3.884     10.118
  Name = 
  4 active torsions:
  status: ('A' for Active; 'I' for Inactive)
    1  A    between atoms: N_22  and  C_40
    2  A    between atoms: N_22  and  O_41
    3  A    between atoms: C_27  and  C_38
    4  A    between atoms: C_28  and  C_43
                            x       y       z     vdW  Elec       q    Type
                         _______ _______ _______ _____ _____    ______ ____

>  <TORSDO>
F 4

$$$$
=
 OpenBabel10222418573D

 43 49  0  0  1  0  0  0  0  0999 V2000
  189.1850  174.2070  136.8550 C   0  0  0  0  0  0  0  0  0  0  0  0
  183.4900  176.4490  137.7760 C   0  0  0  0  0  0  0  0  0  0  0  0
  182.1360  176.4350  138.3990 C   0  0  0  0  0  1  0  0  0  0  0  0
  185.6910  174.0650  135.0190 C   0  0  0  0  0  0  0  0  0  0  0  0
  188.7400  173.0960  135.9200 C   0  0  1  0  0  3  0  0  0  0  0  0
  188.5410  175.3160  137.1270 C   0  0  0  0  0  0  0  0  0  0  0  0
  184.3470  173.6600  135.1430 O   0  0  0  0  0  0  0  0  0  0  0  0
  185.9270  178.2350  136.4110 F   0  0  0  0  0  0  0  0  0  0  0  0
  186.6300  173.2260  134.5940 C   0  0  0  0  0  3  0  0  0  0  0  0
  184.4300  177.3720  138.0400 C   0  0  0  0  0  3  0  0  0  0  0  0
  191.2930  175.4740  136.9080 N   0  0  0  0  0  2  0  0  0  0  0  0
  188.0160  173.5680  134.7410 N   0  0  0  0  0  2  0  0  0  0  0  0
  185.6970  177.1480  137.2350 C   0  0  2  0  0  0  0  0  0  0  0  0
  186.9090  176.8610  138.1470 C   0  0  0  0  0  2  0  0  0  0  0  0
  191.1580  173.2060  136.1300 N   0  0  0  0  0  0  0  0  0  0  0  0
  186.1050  175.3540  135.5500 C   0  0  0  0  0  3  0  0  0  0  0  0
  185.3360  175.9490  136.4340 C   0  0  0  0  0  0  0  0  0  0  0  0
  192.5270  172.7200  136.0920 C   0  0  0  0  0  1  0  0  0  0  0  0
  190.1990  171.5880  134.7110 O   0  0  0  0  0  0  0  0  0  0  0  0
  190.6700  174.1610  137.1050 C   0  0  2  0  0  3  0  0  0  0  0  0
  184.0540  174.0910  137.4970 C   0  0  0  0  0  2  0  0  0  0  0  0
  191.1820  176.1730  138.1890 C   0  0  0  0  0  2  0  0  0  0  0  0
  188.1810  176.5490  137.3840 C   0  0  0  0  0  0  0  0  0  0  0  0
  189.2490  177.5860  137.1300 C   0  0  2  0  0  3  0  0  0  0  0  0
  184.0150  175.4520  136.8170 C   0  0  1  0  0  0  0  0  0  0  0  0
  190.0600  172.5520  135.5090 C   0  0  0  0  0  0  0  0  0  0  0  0
  183.4320  174.2210  136.1140 C   0  0  1  0  0  3  0  0  0  0  0  0
  190.4710  177.5410  138.0800 C   0  0  1  0  0  3  0  0  0  0  0  0
  188.7050  178.9980  136.9620 C   0  0  0  0  0  1  0  0  0  0  0  0
  190.6130  177.4940  140.5230 C   0  0  0  0  0  0  0  0  0  0  0  0
  190.1070  178.0320  139.4470 C   0  0  0  0  0  3  0  0  0  0  0  0
  191.1170  176.9510  141.5990 C   0  0  0  0  0  3  0  0  0  0  0  0
  188.4430  177.8540  145.6450 C   0  0  0  0  0  2  0  0  0  0  0  0
  188.3880  176.7100  143.0060 C   0  0  0  0  0  2  0  0  0  0  0  0
  191.6440  178.2050  143.5060 O   0  0  0  0  0  0  0  0  0  0  0  0
  187.3430  176.3420  143.9680 N   0  0  0  0  0  2  0  0  0  0  0  0
  189.6540  177.0690  145.1510 C   0  0  0  0  0  2  0  0  0  0  0  0
  187.1410  177.4160  144.9490 C   0  0  2  0  0  3  0  0  0  0  0  0
  189.6440  177.0210  143.6930 N   0  0  0  0  0  0  0  0  0  0  0  0
  190.8190  177.4220  142.9640 C   0  0  0  0  0  0  0  0  0  0  0  0
  186.4950  178.5590  144.3210 N   0  0  0  0  0  2  0  0  0  0  0  0
  184.7220  178.5780  145.4710 O   0  0  0  0  0  1  0  0  0  0  0  0
  185.1690  178.2870  144.2680 O   0  0  0  0  0  0  0  0  0  0  0  0
  1  6  2  0  0  0  0
  2 10  2  0  0  0  0
  2  3  1  0  0  0  0
  4  7  1  0  0  0  0
  4 16  1  0  0  0  0
  5 12  1  6  0  0  0
  5  1  1  0  0  0  0
  6 23  2  0  0  0  0
  7 27  1  0  0  0  0
  9 12  1  0  0  0  0
  9  4  2  0  0  0  0
 11 20  1  0  0  0  0
 11 22  1  0  0  0  0
 13  8  1  6  0  0  0
 13 10  1  0  0  0  0
 13 14  1  0  0  0  0
 15 20  1  0  0  0  0
 16 17  2  0  0  0  0
 17 25  1  0  0  0  0
 17 13  1  0  0  0  0
 18 15  1  0  0  0  0
 19 26  2  0  0  0  0
 20  1  1  6  0  0  0
 23 14  1  0  0  0  0
 24 29  1  1  0  0  0
 24 23  1  0  0  0  0
 24 28  1  0  0  0  0
 25 21  1  1  0  0  0
 25  2  1  0  0  0  0
 26  5  1  0  0  0  0
 26 15  1  0  0  0  0
 27 25  1  0  0  0  0
 27 21  1  1  0  0  0
 28 22  1  0  0  0  0
 28 31  1  1  0  0  0
 30 32  2  0  0  0  0
 31 30  2  0  0  0  0
 32 40  1  0  0  0  0
 34 39  1  0  0  0  0
 34 36  1  0  0  0  0
 36 38  1  0  0  0  0
 37 33  1  0  0  0  0
 38 41  1  6  0  0  0
 38 33  1  0  0  0  0
 39 37  1  0  0  0  0
 40 35  2  0  0  0  0
 40 39  1  0  0  0  0
 43 41  1  0  0  0  0
 43 42  1  0  0  0  0
M  END
>  <MODEL>
3

>  <REMARK>
 VINA RESULT:      -7.9      1.714      2.625
  Name = 
  4 active torsions:
  status: ('A' for Active; 'I' for Inactive)
    1  A    between atoms: N_22  and  C_40
    2  A    between atoms: N_22  and  O_41
    3  A    between atoms: C_27  and  C_38
    4  A    between atoms: C_28  and  C_43
                            x       y       z     vdW  Elec       q    Type
                         _______ _______ _______ _____ _____    ______ ____

>  <TORSDO>
F 4

$$$$
=
 OpenBabel10222418573D

 43 49  0  0  1  0  0  0  0  0999 V2000
  187.9490  177.4840  145.7940 C   0  0  0  0  0  0  0  0  0  0  0  0
  188.6230  177.3770  139.6430 C   0  0  0  0  0  0  0  0  0  0  0  0
  188.8580  176.6940  138.3390 C   0  0  0  0  0  1  0  0  0  0  0  0
  190.8330  178.1900  143.1910 C   0  0  0  0  0  0  0  0  0  0  0  0
  189.4340  177.3720  146.0920 C   0  0  1  0  0  3  0  0  0  0  0  0
  187.3950  177.9110  144.6850 C   0  0  0  0  0  0  0  0  0  0  0  0
  191.6230  177.6200  142.1720 O   0  0  0  0  0  0  0  0  0  0  0  0
  187.2850  179.9430  141.2610 F   0  0  0  0  0  0  0  0  0  0  0  0
  191.1840  178.1010  144.4700 C   0  0  0  0  0  3  0  0  0  0  0  0
  187.4560  177.9380  140.0000 C   0  0  0  0  0  3  0  0  0  0  0  0
  186.1660  178.6110  147.0610 N   0  0  0  0  0  2  0  0  0  0  0  0
  190.2390  178.4360  145.4970 N   0  0  0  0  0  2  0  0  0  0  0  0
  187.5240  178.5840  141.3710 C   0  0  2  0  0  0  0  0  0  0  0  0
  186.5520  177.9160  142.3660 C   0  0  0  0  0  2  0  0  0  0  0  0
  188.1130  177.6720  148.1090 N   0  0  0  0  0  0  0  0  0  0  0  0
  189.5130  178.7110  142.8710 C   0  0  0  0  0  3  0  0  0  0  0  0
  188.9380  178.3290  141.7530 C   0  0  0  0  0  0  0  0  0  0  0  0
  187.8010  177.5980  149.5270 C   0  0  0  0  0  1  0  0  0  0  0  0
  190.4560  177.5030  148.2840 O   0  0  0  0  0  0  0  0  0  0  0  0
  187.1280  177.5050  147.0590 C   0  0  2  0  0  3  0  0  0  0  0  0
  189.9800  176.1220  141.2370 C   0  0  0  0  0  2  0  0  0  0  0  0
  184.9670  178.1100  146.3890 C   0  0  0  0  0  2  0  0  0  0  0  0
  186.6440  178.4740  143.7720 C   0  0  0  0  0  0  0  0  0  0  0  0
  185.6810  179.5120  144.2970 C   0  0  2  0  0  3  0  0  0  0  0  0
  189.6050  177.5120  140.7410 C   0  0  1  0  0  0  0  0  0  0  0  0
  189.4200  177.5270  147.5700 C   0  0  0  0  0  0  0  0  0  0  0  0
  191.0780  177.1280  140.9240 C   0  0  1  0  0  3  0  0  0  0  0  0
  184.5320  178.9760  145.1860 C   0  0  1  0  0  3  0  0  0  0  0  0
  185.1800  180.4780  143.2320 C   0  0  0  0  0  1  0  0  0  0  0  0
  182.4110  178.7980  143.9770 C   0  0  0  0  0  0  0  0  0  0  0  0
  183.5220  178.2340  144.3670 C   0  0  0  0  0  3  0  0  0  0  0  0
  181.2980  179.3620  143.5930 C   0  0  0  0  0  3  0  0  0  0  0  0
  179.2330  177.5350  139.5020 C   0  0  0  0  0  2  0  0  0  0  0  0
  181.5520  178.8650  140.5640 C   0  0  0  0  0  2  0  0  0  0  0  0
  179.1380  178.5290  143.2380 O   0  0  0  0  0  0  0  0  0  0  0  0
  181.6460  178.1900  139.2660 N   0  0  0  0  0  2  0  0  0  0  0  0
  179.7620  177.1230  140.8730 C   0  0  0  0  0  2  0  0  0  0  0  0
  180.3330  178.1420  138.6110 C   0  0  2  0  0  3  0  0  0  0  0  0
  180.5720  178.2030  141.4280 N   0  0  0  0  0  0  0  0  0  0  0  0
  180.2900  178.6870  142.7550 C   0  0  0  0  0  0  0  0  0  0  0  0
  179.9430  179.4700  138.1610 N   0  0  0  0  0  2  0  0  0  0  0  0
  181.0860  181.1150  137.4870 O   0  0  0  0  0  1  0  0  0  0  0  0
  180.8390  179.8500  137.2190 O   0  0  0  0  0  0  0  0  0  0  0  0
  1  5  1  0  0  0  0
  2 10  2  0  0  0  0
  2 25  1  0  0  0  0
  3  2  1  0  0  0  0
  4  9  2  0  0  0  0
  5 12  1  6  0  0  0
  5 26  1  0  0  0  0
  6  1  2  0  0  0  0
  7  4  1  0  0  0  0
  9 12  1  0  0  0  0
 10 13  1  0  0  0  0
 13  8  1  6  0  0  0
 13 17  1  0  0  0  0
 13 14  1  0  0  0  0
 14 23  1  0  0  0  0
 15 18  1  0  0  0  0
 16  4  1  0  0  0  0
 17 16  2  0  0  0  0
 20  1  1  6  0  0  0
 20 11  1  0  0  0  0
 20 15  1  0  0  0  0
 22 11  1  0  0  0  0
 23 24  1  0  0  0  0
 23  6  2  0  0  0  0
 24 29  1  6  0  0  0
 24 28  1  0  0  0  0
 25 27  1  0  0  0  0
 25 21  1  1  0  0  0
 25 17  1  0  0  0  0
 26 15  1  0  0  0  0
 26 19  2  0  0  0  0
 27 21  1  1  0  0  0
 27  7  1  0  0  0  0
 28 31  1  6  0  0  0
 28 22  1  0  0  0  0
 30 31  2  0  0  0  0
 32 30  2  0  0  0  0
 33 37  1  0  0  0  0
 34 39  1  0  0  0  0
 36 34  1  0  0  0  0
 37 39  1  0  0  0  0
 38 41  1  1  0  0  0
 38 36  1  0  0  0  0
 38 33  1  0  0  0  0
 39 40  1  0  0  0  0
 40 35  2  0  0  0  0
 40 32  1  0  0  0  0
 43 42  1  0  0  0  0
 43 41  1  0  0  0  0
M  END
>  <MODEL>
4

>  <REMARK>
 VINA RESULT:      -7.3      4.929     10.198
  Name = 
  4 active torsions:
  status: ('A' for Active; 'I' for Inactive)
    1  A    between atoms: N_22  and  C_40
    2  A    between atoms: N_22  and  O_41
    3  A    between atoms: C_27  and  C_38
    4  A    between atoms: C_28  and  C_43
                            x       y       z     vdW  Elec       q    Type
                         _______ _______ _______ _____ _____    ______ ____

>  <TORSDO>
F 4

$$$$
=
 OpenBabel10222418573D

 43 49  0  0  1  0  0  0  0  0999 V2000
  185.0420  177.4840  138.6730 C   0  0  0  0  0  0  0  0  0  0  0  0
  189.9910  176.7520  142.3160 C   0  0  0  0  0  0  0  0  0  0  0  0
  190.7920  176.0360  143.3500 C   0  0  0  0  0  1  0  0  0  0  0  0
  186.3150  178.8920  142.1350 C   0  0  0  0  0  0  0  0  0  0  0  0
  184.1450  178.0190  139.7740 C   0  0  1  0  0  3  0  0  0  0  0  0
  186.3530  177.4850  138.6500 C   0  0  0  0  0  0  0  0  0  0  0  0
  186.6810  178.5420  143.4510 O   0  0  0  0  0  0  0  0  0  0  0  0
  189.9750  178.7770  139.6910 F   0  0  0  0  0  0  0  0  0  0  0  0
  185.0500  179.1400  141.8120 C   0  0  0  0  0  3  0  0  0  0  0  0
  190.3430  176.8450  141.0230 C   0  0  0  0  0  3  0  0  0  0  0  0
  185.0480  177.9770  136.2630 N   0  0  0  0  0  2  0  0  0  0  0  0
  184.6640  179.2160  140.4320 N   0  0  0  0  0  2  0  0  0  0  0  0
  189.3490  177.6590  140.2150 C   0  0  2  0  0  0  0  0  0  0  0  0
  188.6820  176.8120  139.1100 C   0  0  0  0  0  2  0  0  0  0  0  0
  183.0560  178.0600  137.6030 N   0  0  0  0  0  0  0  0  0  0  0  0
  187.2940  178.7890  141.0650 C   0  0  0  0  0  3  0  0  0  0  0  0
  188.3630  178.0490  141.2560 C   0  0  0  0  0  0  0  0  0  0  0  0
  181.9480  178.0760  136.6620 C   0  0  0  0  0  1  0  0  0  0  0  0
  181.8950  178.8680  139.4860 O   0  0  0  0  0  0  0  0  0  0  0  0
  184.3030  177.3600  137.3650 C   0  0  2  0  0  3  0  0  0  0  0  0
  187.6730  176.3930  142.9900 C   0  0  0  0  0  2  0  0  0  0  0  0
  185.9520  176.9460  135.7540 C   0  0  0  0  0  2  0  0  0  0  0  0
  187.6210  177.5610  138.3290 C   0  0  0  0  0  0  0  0  0  0  0  0
  187.8970  178.1920  136.9860 C   0  0  2  0  0  3  0  0  0  0  0  0
  188.6940  177.4280  142.5380 C   0  0  1  0  0  0  0  0  0  0  0  0
  182.9370  178.3710  138.9840 C   0  0  0  0  0  0  0  0  0  0  0  0
  187.8130  177.6960  143.7630 C   0  0  1  0  0  3  0  0  0  0  0  0
  187.4350  177.3790  135.7510 C   0  0  1  0  0  3  0  0  0  0  0  0
  189.3200  178.7090  136.8320 C   0  0  0  0  0  1  0  0  0  0  0  0
  189.6100  176.2590  135.6520 C   0  0  0  0  0  0  0  0  0  0  0  0
  188.3110  176.1830  135.5390 C   0  0  0  0  0  3  0  0  0  0  0  0
  190.9090  176.3390  135.7600 C   0  0  0  0  0  3  0  0  0  0  0  0
  194.9140  173.5360  136.4210 C   0  0  0  0  0  2  0  0  0  0  0  0
  193.6140  175.9840  137.1890 C   0  0  0  0  0  2  0  0  0  0  0  0
  191.6030  174.4100  134.6260 O   0  0  0  0  0  0  0  0  0  0  0  0
  194.6820  175.4440  138.0370 N   0  0  0  0  0  2  0  0  0  0  0  0
  193.4010  173.5420  136.6190 C   0  0  0  0  0  2  0  0  0  0  0  0
  195.6140  174.6340  137.2420 C   0  0  2  0  0  3  0  0  0  0  0  0
  192.8990  174.9070  136.5000 N   0  0  0  0  0  0  0  0  0  0  0  0
  191.8110  175.1840  135.5980 C   0  0  0  0  0  0  0  0  0  0  0  0
  196.4090  175.4870  136.3710 N   0  0  0  0  0  2  0  0  0  0  0  0
  198.4920  175.3970  136.0230 O   0  0  0  0  0  1  0  0  0  0  0  0
  197.6130  175.6550  136.9690 O   0  0  0  0  0  0  0  0  0  0  0  0
  2 25  1  0  0  0  0
  2  3  1  0  0  0  0
  4  7  1  0  0  0  0
  5  1  1  6  0  0  0
  5 12  1  0  0  0  0
  6  1  2  0  0  0  0
  7 27  1  0  0  0  0
  9  4  2  0  0  0  0
 10  2  2  0  0  0  0
 12  9  1  0  0  0  0
 13  8  1  6  0  0  0
 13 10  1  0  0  0  0
 13 17  1  0  0  0  0
 14 13  1  0  0  0  0
 15 26  1  0  0  0  0
 16 17  2  0  0  0  0
 16  4  1  0  0  0  0
 17 25  1  0  0  0  0
 18 15  1  0  0  0  0
 20 11  1  6  0  0  0
 20 15  1  0  0  0  0
 20  1  1  0  0  0  0
 22 11  1  0  0  0  0
 23  6  2  0  0  0  0
 23 14  1  0  0  0  0
 24 29  1  6  0  0  0
 24 23  1  0  0  0  0
 25 21  1  6  0  0  0
 25 27  1  0  0  0  0
 26 19  2  0  0  0  0
 26  5  1  0  0  0  0
 27 21  1  6  0  0  0
 28 31  1  1  0  0  0
 28 22  1  0  0  0  0
 28 24  1  0  0  0  0
 30 32  2  0  0  0  0
 31 30  2  0  0  0  0
 33 37  1  0  0  0  0
 33 38  1  0  0  0  0
 34 36  1  0  0  0  0
 35 40  2  0  0  0  0
 38 41  1  6  0  0  0
 38 36  1  0  0  0  0
 39 37  1  0  0  0  0
 39 34  1  0  0  0  0
 40 32  1  0  0  0  0
 40 39  1  0  0  0  0
 41 43  1  0  0  0  0
 42 43  1  0  0  0  0
M  END
>  <MODEL>
5

>  <REMARK>
 VINA RESULT:      -6.9      3.730      8.369
  Name = 
  4 active torsions:
  status: ('A' for Active; 'I' for Inactive)
    1  A    between atoms: N_22  and  C_40
    2  A    between atoms: N_22  and  O_41
    3  A    between atoms: C_27  and  C_38
    4  A    between atoms: C_28  and  C_43
                            x       y       z     vdW  Elec       q    Type
                         _______ _______ _______ _____ _____    ______ ____

>  <TORSDO>
F 4

$$$$
=
 OpenBabel10222418573D

 43 49  0  0  1  0  0  0  0  0999 V2000
  185.8880  175.4520  137.0460 C   0  0  0  0  0  0  0  0  0  0  0  0
  189.7740  177.8700  141.2120 C   0  0  0  0  0  0  0  0  0  0  0  0
  190.3740  177.9760  142.5730 C   0  0  0  0  0  1  0  0  0  0  0  0
  186.0050  178.6320  139.3860 C   0  0  0  0  0  0  0  0  0  0  0  0
  184.6690  176.2030  137.5510 C   0  0  1  0  0  3  0  0  0  0  0  0
  187.1460  175.7790  137.2200 C   0  0  0  0  0  0  0  0  0  0  0  0
  186.0630  179.0680  140.7250 O   0  0  0  0  0  0  0  0  0  0  0  0
  190.1510  178.2920  137.9450 F   0  0  0  0  0  0  0  0  0  0  0  0
  184.8440  178.3580  138.7970 C   0  0  0  0  0  3  0  0  0  0  0  0
  190.4330  177.4130  140.1330 C   0  0  0  0  0  3  0  0  0  0  0  0
  186.4480  174.7020  134.7710 N   0  0  0  0  0  2  0  0  0  0  0  0
  184.8240  177.6560  137.5460 N   0  0  0  0  0  2  0  0  0  0  0  0
  189.5770  177.4490  138.8810 C   0  0  2  0  0  0  0  0  0  0  0  0
  189.3470  176.0350  138.3050 C   0  0  0  0  0  2  0  0  0  0  0  0
  184.1860  174.9090  135.5530 N   0  0  0  0  0  0  0  0  0  0  0  0
  187.2320  178.2790  138.6900 C   0  0  0  0  0  3  0  0  0  0  0  0
  188.3090  178.0260  139.3990 C   0  0  0  0  0  0  0  0  0  0  0  0
  183.3700  174.1830  134.5940 C   0  0  0  0  0  1  0  0  0  0  0  0
  182.4730  176.1980  136.5280 O   0  0  0  0  0  0  0  0  0  0  0  0
  185.5390  174.5270  135.9080 C   0  0  2  0  0  3  0  0  0  0  0  0
  187.4370  177.3010  141.6210 C   0  0  0  0  0  2  0  0  0  0  0  0
  187.5910  173.8250  135.0250 C   0  0  0  0  0  2  0  0  0  0  0  0
  188.4290  176.0130  137.1000 C   0  0  0  0  0  0  0  0  0  0  0  0
  188.9510  175.9620  135.6840 C   0  0  2  0  0  3  0  0  0  0  0  0
  188.3820  178.2100  140.8480 C   0  0  1  0  0  0  0  0  0  0  0  0
  183.6700  175.8060  136.5260 C   0  0  0  0  0  0  0  0  0  0  0  0
  187.1840  178.8010  141.6010 C   0  0  1  0  0  3  0  0  0  0  0  0
  188.9470  174.5660  135.0130 C   0  0  1  0  0  3  0  0  0  0  0  0
  190.2770  176.6860  135.4930 C   0  0  0  0  0  1  0  0  0  0  0  0
  191.2660  173.8290  135.2730 C   0  0  0  0  0  0  0  0  0  0  0  0
  190.0090  173.6870  135.5970 C   0  0  0  0  0  3  0  0  0  0  0  0
  192.5220  173.9670  134.9440 C   0  0  0  0  0  3  0  0  0  0  0  0
  196.3560  172.8450  137.8390 C   0  0  0  0  0  2  0  0  0  0  0  0
  194.4260  174.8770  137.1870 C   0  0  0  0  0  2  0  0  0  0  0  0
  193.9610  172.1200  134.8910 O   0  0  0  0  0  0  0  0  0  0  0  0
  195.1370  174.9490  138.4680 N   0  0  0  0  0  2  0  0  0  0  0  0
  194.9210  172.4330  137.5250 C   0  0  0  0  0  2  0  0  0  0  0  0
  196.4450  174.2870  138.3730 C   0  0  2  0  0  3  0  0  0  0  0  0
  194.2670  173.4860  136.7560 N   0  0  0  0  0  0  0  0  0  0  0  0
  193.6090  173.1540  135.5180 C   0  0  0  0  0  0  0  0  0  0  0  0
  197.3510  175.0750  137.5520 N   0  0  0  0  0  2  0  0  0  0  0  0
  198.5160  175.9550  139.0810 O   0  0  0  0  0  1  0  0  0  0  0  0
  198.5680  175.0300  138.1460 O   0  0  0  0  0  0  0  0  0  0  0  0
  1  6  2  0  0  0  0
  1  5  1  0  0  0  0
  2  3  1  0  0  0  0
  4  7  1  0  0  0  0
  5 26  1  6  0  0  0
  7 27  1  0  0  0  0
  9  4  2  0  0  0  0
 10  2  2  0  0  0  0
 11 22  1  0  0  0  0
 12  5  1  0  0  0  0
 12  9  1  0  0  0  0
 13  8  1  6  0  0  0
 13 17  1  0  0  0  0
 13 10  1  0  0  0  0
 14 13  1  0  0  0  0
 15 20  1  0  0  0  0
 15 26  1  0  0  0  0
 16  4  1  0  0  0  0
 16 17  2  0  0  0  0
 17 25  1  0  0  0  0
 18 15  1  0  0  0  0
 20 11  1  6  0  0  0
 20  1  1  0  0  0  0
 23  6  2  0  0  0  0
 23 14  1  0  0  0  0
 24 29  1  1  0  0  0
 24 23  1  0  0  0  0
 25  2  1  0  0  0  0
 25 27  1  0  0  0  0
 25 21  1  1  0  0  0
 26 19  2  0  0  0  0
 27 21  1  1  0  0  0
 28 22  1  0  0  0  0
 28 31  1  1  0  0  0
 28 24  1  0  0  0  0
 30 31  2  0  0  0  0
 32 30  2  0  0  0  0
 32 40  1  0  0  0  0
 33 38  1  0  0  0  0
 34 36  1  0  0  0  0
 35 40  2  0  0  0  0
 37 33  1  0  0  0  0
 38 41  1  6  0  0  0
 38 36  1  0  0  0  0
 39 34  1  0  0  0  0
 39 37  1  0  0  0  0
 40 39  1  0  0  0  0
 41 43  1  0  0  0  0
 43 42  1  0  0  0  0
M  END
>  <MODEL>
6

>  <REMARK>
 VINA RESULT:      -6.9      3.821      7.690
  Name = 
  4 active torsions:
  status: ('A' for Active; 'I' for Inactive)
    1  A    between atoms: N_22  and  C_40
    2  A    between atoms: N_22  and  O_41
    3  A    between atoms: C_27  and  C_38
    4  A    between atoms: C_28  and  C_43
                            x       y       z     vdW  Elec       q    Type
                         _______ _______ _______ _____ _____    ______ ____

>  <TORSDO>
F 4

$$$$
=
 OpenBabel10222418573D

 43 49  0  0  1  0  0  0  0  0999 V2000
  186.6460  173.8370  136.8210 C   0  0  0  0  0  0  0  0  0  0  0  0
  182.8810  178.0480  139.3500 C   0  0  0  0  0  0  0  0  0  0  0  0
  182.0560  178.6040  140.4600 C   0  0  0  0  0  1  0  0  0  0  0  0
  182.7840  174.6610  136.7720 C   0  0  0  0  0  0  0  0  0  0  0  0
  185.5460  172.8270  136.5420 C   0  0  1  0  0  3  0  0  0  0  0  0
  186.5070  175.1290  136.9950 C   0  0  0  0  0  0  0  0  0  0  0  0
  181.6260  174.7780  137.5680 O   0  0  0  0  0  0  0  0  0  0  0  0
  184.6630  178.6390  136.6170 F   0  0  0  0  0  0  0  0  0  0  0  0
  183.1570  173.4920  136.2610 C   0  0  0  0  0  3  0  0  0  0  0  0
  184.0160  178.6100  138.9020 C   0  0  0  0  0  3  0  0  0  0  0  0
  188.7340  174.2750  135.5960 N   0  0  0  0  0  2  0  0  0  0  0  0
  184.4690  173.3420  135.6990 N   0  0  0  0  0  2  0  0  0  0  0  0
  184.6210  177.8380  137.7450 C   0  0  2  0  0  0  0  0  0  0  0  0
  186.0180  177.2820  138.0970 C   0  0  0  0  0  2  0  0  0  0  0  0
  187.6950  172.1100  135.6650 N   0  0  0  0  0  0  0  0  0  0  0  0
  183.7000  175.7850  136.6660 C   0  0  0  0  0  3  0  0  0  0  0  0
  183.6380  176.7380  137.5700 C   0  0  0  0  0  0  0  0  0  0  0  0
  188.7040  171.1730  135.1980 C   0  0  0  0  0  1  0  0  0  0  0  0
  185.8060  170.7400  135.3400 O   0  0  0  0  0  0  0  0  0  0  0  0
  187.9990  173.3090  136.4200 C   0  0  2  0  0  3  0  0  0  0  0  0
  182.6530  175.6290  139.5770 C   0  0  0  0  0  2  0  0  0  0  0  0
  189.4430  175.1500  136.5300 C   0  0  0  0  0  2  0  0  0  0  0  0
  186.6270  176.4330  136.9990 C   0  0  0  0  0  0  0  0  0  0  0  0
  187.6390  176.9780  136.0210 C   0  0  2  0  0  3  0  0  0  0  0  0
  182.6060  176.8000  138.6050 C   0  0  1  0  0  0  0  0  0  0  0  0
  186.3140  171.7990  135.7940 C   0  0  0  0  0  0  0  0  0  0  0  0
  181.4780  175.7620  138.6180 C   0  0  1  0  0  3  0  0  0  0  0  0
  189.1210  176.6480  136.3290 C   0  0  1  0  0  3  0  0  0  0  0  0
  187.4380  178.4490  135.6850 C   0  0  0  0  0  1  0  0  0  0  0  0
  190.0930  176.8440  138.5670 C   0  0  0  0  0  0  0  0  0  0  0  0
  189.6110  177.4330  137.5060 C   0  0  0  0  0  3  0  0  0  0  0  0
  190.5690  176.2530  139.6290 C   0  0  0  0  0  3  0  0  0  0  0  0
  190.8140  177.8800  144.2800 C   0  0  0  0  0  2  0  0  0  0  0  0
  189.3320  176.2280  142.4500 C   0  0  0  0  0  2  0  0  0  0  0  0
  191.9590  177.8780  140.5870 O   0  0  0  0  0  0  0  0  0  0  0  0
  189.1560  176.0340  143.8930 N   0  0  0  0  0  2  0  0  0  0  0  0
  191.5730  177.0440  143.2540 C   0  0  0  0  0  2  0  0  0  0  0  0
  189.4390  177.2780  144.6220 C   0  0  2  0  0  3  0  0  0  0  0  0
  190.6840  176.7040  142.1480 N   0  0  0  0  0  0  0  0  0  0  0  0
  191.0990  176.9810  140.7970 C   0  0  0  0  0  0  0  0  0  0  0  0
  188.3860  178.2530  144.3820 N   0  0  0  0  0  2  0  0  0  0  0  0
  186.2990  177.9290  144.2960 O   0  0  0  0  0  1  0  0  0  0  0  0
  187.3180  177.8790  145.1270 O   0  0  0  0  0  0  0  0  0  0  0  0
  1  6  2  0  0  0  0
  2  3  1  0  0  0  0
  4  7  1  0  0  0  0
  5 12  1  6  0  0  0
  5  1  1  0  0  0  0
  6 23  2  0  0  0  0
  7 27  1  0  0  0  0
  9  4  2  0  0  0  0
 10  2  2  0  0  0  0
 11 22  1  0  0  0  0
 12  9  1  0  0  0  0
 13  8  1  6  0  0  0
 13 14  1  0  0  0  0
 13 10  1  0  0  0  0
 15 26  1  0  0  0  0
 15 20  1  0  0  0  0
 16  4  1  0  0  0  0
 16 17  2  0  0  0  0
 17 13  1  0  0  0  0
 17 25  1  0  0  0  0
 18 15  1  0  0  0  0
 19 26  2  0  0  0  0
 20 11  1  6  0  0  0
 20  1  1  0  0  0  0
 23 14  1  0  0  0  0
 24 29  1  1  0  0  0
 24 28  1  0  0  0  0
 24 23  1  0  0  0  0
 25 27  1  0  0  0  0
 25  2  1  0  0  0  0
 25 21  1  1  0  0  0
 26  5  1  0  0  0  0
 27 21  1  1  0  0  0
 28 22  1  0  0  0  0
 28 31  1  1  0  0  0
 30 32  2  0  0  0  0
 31 30  2  0  0  0  0
 32 40  1  0  0  0  0
 33 38  1  0  0  0  0
 34 36  1  0  0  0  0
 35 40  2  0  0  0  0
 36 38  1  0  0  0  0
 37 33  1  0  0  0  0
 38 41  1  6  0  0  0
 39 34  1  0  0  0  0
 39 37  1  0  0  0  0
 40 39  1  0  0  0  0
 41 43  1  0  0  0  0
 42 43  1  0  0  0  0
M  END
>  <MODEL>
7

>  <REMARK>
 VINA RESULT:      -6.8      2.507      3.834
  Name = 
  4 active torsions:
  status: ('A' for Active; 'I' for Inactive)
    1  A    between atoms: N_22  and  C_40
    2  A    between atoms: N_22  and  O_41
    3  A    between atoms: C_27  and  C_38
    4  A    between atoms: C_28  and  C_43
                            x       y       z     vdW  Elec       q    Type
                         _______ _______ _______ _____ _____    ______ ____

>  <TORSDO>
F 4

$$$$
=
 OpenBabel10222418573D

 43 49  0  0  1  0  0  0  0  0999 V2000
  185.7040  177.9450  143.8460 C   0  0  0  0  0  0  0  0  0  0  0  0
  190.8940  176.4580  146.8720 C   0  0  0  0  0  0  0  0  0  0  0  0
  191.7480  175.5480  147.6870 C   0  0  0  0  0  1  0  0  0  0  0  0
  187.2890  178.6630  147.3910 C   0  0  0  0  0  0  0  0  0  0  0  0
  184.9140  178.2840  145.0970 C   0  0  1  0  0  3  0  0  0  0  0  0
  187.0090  177.9260  143.7160 C   0  0  0  0  0  0  0  0  0  0  0  0
  187.7440  178.0690  148.5850 O   0  0  0  0  0  0  0  0  0  0  0  0
  190.7410  178.9340  144.6730 F   0  0  0  0  0  0  0  0  0  0  0  0
  186.0110  178.9900  147.2240 C   0  0  0  0  0  3  0  0  0  0  0  0
  191.1470  176.7830  145.5930 C   0  0  0  0  0  3  0  0  0  0  0  0
  185.5390  178.8760  141.5750 N   0  0  0  0  0  2  0  0  0  0  0  0
  185.5230  179.3280  145.9180 N   0  0  0  0  0  2  0  0  0  0  0  0
  190.1220  177.7510  145.0330 C   0  0  2  0  0  0  0  0  0  0  0  0
  189.3420  177.1360  143.8500 C   0  0  0  0  0  2  0  0  0  0  0  0
  183.6610  178.7460  143.0680 N   0  0  0  0  0  0  0  0  0  0  0  0
  188.1780  178.7420  146.2430 C   0  0  0  0  0  3  0  0  0  0  0  0
  189.2330  177.9600  146.2060 C   0  0  0  0  0  0  0  0  0  0  0  0
  182.4850  178.9570  142.2410 C   0  0  0  0  0  1  0  0  0  0  0  0
  182.6780  179.2130  145.1560 O   0  0  0  0  0  0  0  0  0  0  0  0
  184.8620  178.0800  142.6030 C   0  0  2  0  0  3  0  0  0  0  0  0
  188.6250  176.0240  147.6580 C   0  0  0  0  0  2  0  0  0  0  0  0
  186.3660  177.9400  140.8130 C   0  0  0  0  0  2  0  0  0  0  0  0
  188.2490  178.0360  143.3110 C   0  0  0  0  0  0  0  0  0  0  0  0
  188.4410  178.9000  142.0870 C   0  0  2  0  0  3  0  0  0  0  0  0
  189.6410  177.1050  147.3200 C   0  0  1  0  0  0  0  0  0  0  0  0
  183.6600  178.7980  144.4880 C   0  0  0  0  0  0  0  0  0  0  0  0
  188.8680  177.1580  148.6430 C   0  0  1  0  0  3  0  0  0  0  0  0
  187.8580  178.3380  140.7670 C   0  0  1  0  0  3  0  0  0  0  0  0
  189.8650  179.4100  141.9140 C   0  0  0  0  0  1  0  0  0  0  0  0
  189.3780  177.2730  139.1710 C   0  0  0  0  0  0  0  0  0  0  0  0
  188.6740  177.1860  140.2680 C   0  0  0  0  0  3  0  0  0  0  0  0
  190.0760  177.3590  138.0710 C   0  0  0  0  0  3  0  0  0  0  0  0
  191.3380  173.4330  135.3640 C   0  0  0  0  0  2  0  0  0  0  0  0
  189.2520  175.3400  135.8960 C   0  0  0  0  0  2  0  0  0  0  0  0
  191.9540  175.9670  138.2190 O   0  0  0  0  0  0  0  0  0  0  0  0
  189.2200  174.5740  134.6450 N   0  0  0  0  0  2  0  0  0  0  0  0
  191.7130  174.8890  135.6230 C   0  0  0  0  0  2  0  0  0  0  0  0
  189.9100  173.2880  134.8080 C   0  0  2  0  0  3  0  0  0  0  0  0
  190.6300  175.5510  136.3450 N   0  0  0  0  0  0  0  0  0  0  0  0
  190.9240  176.2680  137.5580 C   0  0  0  0  0  0  0  0  0  0  0  0
  189.1270  172.3980  135.6540 N   0  0  0  0  0  2  0  0  0  0  0  0
  187.0440  172.0410  135.6630 O   0  0  0  0  0  1  0  0  0  0  0  0
  188.1080  171.9250  134.8970 O   0  0  0  0  0  0  0  0  0  0  0  0
  2 25  1  0  0  0  0
  2  3  1  0  0  0  0
  4  7  1  0  0  0  0
  5  1  1  6  0  0  0
  5 12  1  0  0  0  0
  6  1  2  0  0  0  0
  7 27  1  0  0  0  0
  9  4  2  0  0  0  0
 10  2  2  0  0  0  0
 12  9  1  0  0  0  0
 13  8  1  6  0  0  0
 13 10  1  0  0  0  0
 13 17  1  0  0  0  0
 14 13  1  0  0  0  0
 15 26  1  0  0  0  0
 16  4  1  0  0  0  0
 17 16  2  0  0  0  0
 17 25  1  0  0  0  0
 18 15  1  0  0  0  0
 20 11  1  6  0  0  0
 20 15  1  0  0  0  0
 20  1  1  0  0  0  0
 22 11  1  0  0  0  0
 23  6  2  0  0  0  0
 23 14  1  0  0  0  0
 24 29  1  6  0  0  0
 24 23  1  0  0  0  0
 25 21  1  6  0  0  0
 25 27  1  0  0  0  0
 26  5  1  0  0  0  0
 26 19  2  0  0  0  0
 27 21  1  6  0  0  0
 28 31  1  1  0  0  0
 28 22  1  0  0  0  0
 28 24  1  0  0  0  0
 30 31  2  0  0  0  0
 32 30  2  0  0  0  0
 33 37  1  0  0  0  0
 34 39  1  0  0  0  0
 36 38  1  0  0  0  0
 36 34  1  0  0  0  0
 37 39  1  0  0  0  0
 38 33  1  0  0  0  0
 38 41  1  1  0  0  0
 39 40  1  0  0  0  0
 40 32  1  0  0  0  0
 40 35  2  0  0  0  0
 43 41  1  0  0  0  0
 43 42  1  0  0  0  0
M  END
>  <MODEL>
8

>  <REMARK>
 VINA RESULT:      -6.7      3.637     10.460
  Name = 
  4 active torsions:
  status: ('A' for Active; 'I' for Inactive)
    1  A    between atoms: N_22  and  C_40
    2  A    between atoms: N_22  and  O_41
    3  A    between atoms: C_27  and  C_38
    4  A    between atoms: C_28  and  C_43
                            x       y       z     vdW  Elec       q    Type
                         _______ _______ _______ _____ _____    ______ ____

>  <TORSDO>
F 4

$$$$
=
 OpenBabel10222418573D

 43 49  0  0  1  0  0  0  0  0999 V2000
  189.9720  176.6470  139.4080 C   0  0  0  0  0  0  0  0  0  0  0  0
  193.3500  173.6500  135.1760 C   0  0  0  0  0  0  0  0  0  0  0  0
  194.0200  172.4410  134.6160 C   0  0  0  0  0  1  0  0  0  0  0  0
  193.8030  176.1930  138.5600 C   0  0  0  0  0  0  0  0  0  0  0  0
  191.1050  176.7810  140.4110 C   0  0  1  0  0  3  0  0  0  0  0  0
  190.0800  176.4570  138.1150 C   0  0  0  0  0  0  0  0  0  0  0  0
  194.8460  175.2530  138.4380 O   0  0  0  0  0  0  0  0  0  0  0  0
  191.9360  176.5910  134.5940 F   0  0  0  0  0  0  0  0  0  0  0  0
  193.5060  176.7480  139.7310 C   0  0  0  0  0  3  0  0  0  0  0  0
  192.2790  174.2420  134.6200 C   0  0  0  0  0  3  0  0  0  0  0  0
  188.0590  178.1340  138.9820 N   0  0  0  0  0  2  0  0  0  0  0  0
  192.2790  177.4760  139.8890 N   0  0  0  0  0  2  0  0  0  0  0  0
  191.8350  175.4680  135.3950 C   0  0  2  0  0  0  0  0  0  0  0  0
  190.4080  175.3010  135.9600 C   0  0  0  0  0  2  0  0  0  0  0  0
  189.0930  177.9300  141.1400 N   0  0  0  0  0  0  0  0  0  0  0  0
  192.9010  176.4170  137.4420 C   0  0  0  0  0  3  0  0  0  0  0  0
  192.8390  175.5130  136.4900 C   0  0  0  0  0  0  0  0  0  0  0  0
  188.1590  178.5240  142.0830 C   0  0  0  0  0  1  0  0  0  0  0  0
  191.0160  178.0060  142.4990 O   0  0  0  0  0  0  0  0  0  0  0  0
  188.6860  177.2210  139.9430 C   0  0  2  0  0  3  0  0  0  0  0  0
  193.5610  173.3950  137.5930 C   0  0  0  0  0  2  0  0  0  0  0  0
  187.2290  177.3010  138.1110 C   0  0  0  0  0  2  0  0  0  0  0  0
  189.9520  176.4680  136.8120 C   0  0  0  0  0  0  0  0  0  0  0  0
  189.0720  177.5700  136.2720 C   0  0  2  0  0  3  0  0  0  0  0  0
  193.7270  174.3520  136.4220 C   0  0  1  0  0  0  0  0  0  0  0  0
  190.4470  177.6230  141.4430 C   0  0  0  0  0  0  0  0  0  0  0  0
  194.8500  174.1920  137.4530 C   0  0  1  0  0  3  0  0  0  0  0  0
  187.5650  177.4580  136.6120 C   0  0  1  0  0  3  0  0  0  0  0  0
  189.3070  177.8770  134.8000 C   0  0  0  0  0  1  0  0  0  0  0  0
  186.6870  175.1860  136.3640 C   0  0  0  0  0  0  0  0  0  0  0  0
  186.9210  176.3550  135.8300 C   0  0  0  0  0  3  0  0  0  0  0  0
  186.4600  174.0170  136.8970 C   0  0  0  0  0  3  0  0  0  0  0  0
  182.7460  171.2700  135.1660 C   0  0  0  0  0  2  0  0  0  0  0  0
  183.4120  173.6410  136.6510 C   0  0  0  0  0  2  0  0  0  0  0  0
  186.4930  171.9120  135.8690 O   0  0  0  0  0  0  0  0  0  0  0  0
  182.0660  173.5050  136.0860 N   0  0  0  0  0  2  0  0  0  0  0  0
  183.9280  172.1200  134.7130 C   0  0  0  0  0  2  0  0  0  0  0  0
  181.7020  172.0890  135.9470 C   0  0  2  0  0  3  0  0  0  0  0  0
  184.3980  172.9360  135.8280 N   0  0  0  0  0  0  0  0  0  0  0  0
  185.7940  172.9120  136.1830 C   0  0  0  0  0  0  0  0  0  0  0  0
  181.4730  171.4960  137.2570 N   0  0  0  0  0  2  0  0  0  0  0  0
  179.4680  171.1340  136.6950 O   0  0  0  0  0  1  0  0  0  0  0  0
  180.1890  171.7660  137.5960 O   0  0  0  0  0  0  0  0  0  0  0  0
  1 20  1  0  0  0  0
  2 25  1  0  0  0  0
  3  2  1  0  0  0  0
  4  9  2  0  0  0  0
  5  1  1  6  0  0  0
  5 26  1  0  0  0  0
  6  1  2  0  0  0  0
  7  4  1  0  0  0  0
  9 12  1  0  0  0  0
 10  2  2  0  0  0  0
 10 13  1  0  0  0  0
 12  5  1  0  0  0  0
 13  8  1  6  0  0  0
 13 14  1  0  0  0  0
 13 17  1  0  0  0  0
 14 23  1  0  0  0  0
 15 26  1  0  0  0  0
 15 18  1  0  0  0  0
 16  4  1  0  0  0  0
 17 16  2  0  0  0  0
 20 11  1  6  0  0  0
 20 15  1  0  0  0  0
 22 11  1  0  0  0  0
 23  6  2  0  0  0  0
 24 29  1  6  0  0  0
 24 28  1  0  0  0  0
 24 23  1  0  0  0  0
 25 17  1  0  0  0  0
 25 27  1  0  0  0  0
 25 21  1  1  0  0  0
 26 19  2  0  0  0  0
 27 21  1  1  0  0  0
 27  7  1  0  0  0  0
 28 31  1  6  0  0  0
 28 22  1  0  0  0  0
 30 32  2  0  0  0  0
 31 30  2  0  0  0  0
 33 38  1  0  0  0  0
 35 40  2  0  0  0  0
 36 34  1  0  0  0  0
 37 33  1  0  0  0  0
 37 39  1  0  0  0  0
 38 36  1  0  0  0  0
 38 41  1  1  0  0  0
 39 40  1  0  0  0  0
 39 34  1  0  0  0  0
 40 32  1  0  0  0  0
 41 43  1  0  0  0  0
 42 43  1  0  0  0  0
M  END
>  <MODEL>
9

>  <REMARK>
 VINA RESULT:      -6.5      3.223      9.208
  Name = 
  4 active torsions:
  status: ('A' for Active; 'I' for Inactive)
    1  A    between atoms: N_22  and  C_40
    2  A    between atoms: N_22  and  O_41
    3  A    between atoms: C_27  and  C_38
    4  A    between atoms: C_28  and  C_43
                            x       y       z     vdW  Elec       q    Type
                         _______ _______ _______ _____ _____    ______ ____

>  <TORSDO>
F 4

$$$$
