=
 OpenBabel10222421253D

 40 44  0  0  1  0  0  0  0  0999 V2000
  184.9170  179.0630  145.1840 C   0  0  0  0  0  3  0  0  0  0  0  0
  185.6490  178.2750  144.3630 C   0  0  0  0  0  0  0  0  0  0  0  0
  187.6750  176.7200  143.9380 C   0  0  0  0  0  1  0  0  0  0  0  0
  186.5300  178.6450  147.0220 C   0  0  0  0  0  0  0  0  0  0  0  0
  185.2470  179.3120  146.6420 C   0  0  0  0  0  2  0  0  0  0  0  0
  187.1340  178.6800  148.2020 C   0  0  0  0  0  3  0  0  0  0  0  0
  188.3440  177.8410  148.1060 C   0  0  0  0  0  3  0  0  0  0  0  0
  186.8850  177.5990  144.8520 C   0  0  0  0  0  0  0  0  0  0  0  0
  187.2690  177.8050  146.1140 C   0  0  0  0  0  0  0  0  0  0  0  0
  188.4190  177.3340  146.8760 C   0  0  0  0  0  0  0  0  0  0  0  0
  183.4090  178.2820  141.2470 C   0  0  0  0  0  2  0  0  0  0  0  0
  184.1950  179.2500  140.4710 N   0  0  0  0  0  0  0  0  0  0  0  0
  185.5990  178.8320  140.5680 C   0  0  0  0  0  2  0  0  0  0  0  0
  186.0920  178.9850  142.0040 C   0  0  0  0  0  2  0  0  0  0  0  0
  185.2390  178.1160  142.9280 C   0  0  2  0  0  3  0  0  0  0  0  0
  183.7500  178.3960  142.7290 C   0  0  0  0  0  2  0  0  0  0  0  0
  183.7680  179.1910  139.0610 C   0  0  1  0  0  3  0  0  0  0  0  0
  183.5420  177.7320  137.0730 C   0  0  0  0  0  2  0  0  0  0  0  0
  183.9030  177.7700  138.5090 C   0  0  1  0  0  3  0  0  0  0  0  0
  184.8830  177.7530  137.4990 O   0  0  0  0  0  0  0  0  0  0  0  0
  182.2980  179.5970  138.9160 C   0  0  0  0  0  2  0  0  0  0  0  0
  181.2650  181.2580  137.4650 N   0  0  0  0  0  1  0  0  0  0  0  0
  182.1720  181.0730  138.5850 C   0  0  0  0  0  2  0  0  0  0  0  0
  189.4880  176.4000  146.4120 C   0  0  0  0  0  2  0  0  0  0  0  0
  190.7020  176.4750  147.3280 C   0  0  0  0  0  2  0  0  0  0  0  0
  191.9780  176.7220  146.5350 C   0  0  0  0  0  2  0  0  0  0  0  0
  191.4470  178.1700  144.5620 C   0  0  0  0  0  3  0  0  0  0  0  0
  191.1400  178.3250  143.2070 C   0  0  0  0  0  3  0  0  0  0  0  0
  191.2840  175.9300  142.8980 C   0  0  0  0  0  3  0  0  0  0  0  0
  191.0570  177.2070  142.3650 C   0  0  0  0  0  0  0  0  0  0  0  0
  191.6750  176.8940  145.0850 C   0  0  0  0  0  0  0  0  0  0  0  0
  191.5900  175.7730  144.2520 C   0  0  0  0  0  3  0  0  0  0  0  0
  190.7240  177.3750  140.9410 C   0  0  0  0  0  0  0  0  0  0  0  0
  191.6430  177.3740  140.0750 O   0  0  0  0  0  0  0  0  0  0  0  0
  189.3890  177.5340  140.5550 O   0  0  0  0  0  0  0  0  0  0  0  0
  189.0000  178.3760  139.4760 C   0  0  0  0  0  2  0  0  0  0  0  0
  188.3540  177.5610  138.3640 C   0  0  2  0  0  3  0  0  0  0  0  0
  189.0130  176.3420  138.2280 O   0  0  0  0  0  1  0  0  0  0  0  0
  188.3760  178.3180  137.0430 C   0  0  0  0  0  2  0  0  0  0  0  0
  188.6960  179.6620  137.2490 O   0  0  0  0  0  1  0  0  0  0  0  0
  1  5  1  0  0  0  0
  2  8  1  0  0  0  0
  2  1  2  0  0  0  0
  3  8  1  0  0  0  0
  4  6  2  0  0  0  0
  5  4  1  0  0  0  0
  7  6  1  0  0  0  0
  8  9  2  0  0  0  0
  9 10  1  0  0  0  0
  9  4  1  0  0  0  0
 10  7  2  0  0  0  0
 11 16  1  0  0  0  0
 12 13  1  0  0  0  0
 12 11  1  0  0  0  0
 13 14  1  0  0  0  0
 14 15  1  0  0  0  0
 15  2  1  1  0  0  0
 16 15  1  0  0  0  0
 17 21  1  1  0  0  0
 17 12  1  0  0  0  0
 18 20  1  0  0  0  0
 18 19  1  0  0  0  0
 19 17  1  6  0  0  0
 20 19  1  0  0  0  0
 22 23  1  0  0  0  0
 23 21  1  0  0  0  0
 24 10  1  0  0  0  0
 24 25  1  0  0  0  0
 26 25  1  0  0  0  0
 27 31  1  0  0  0  0
 28 27  2  0  0  0  0
 29 32  1  0  0  0  0
 30 29  2  0  0  0  0
 30 28  1  0  0  0  0
 31 26  1  0  0  0  0
 32 31  2  0  0  0  0
 33 30  1  0  0  0  0
 34 33  2  0  0  0  0
 35 33  1  0  0  0  0
 36 35  1  0  0  0  0
 37 38  1  6  0  0  0
 37 36  1  0  0  0  0
 39 40  1  0  0  0  0
 39 37  1  0  0  0  0
M  END
>  <MODEL>
1

>  <REMARK>
 VINA RESULT:      -8.9      0.000      0.000
  Name = 
  14 active torsions:
  status: ('A' for Active; 'I' for Inactive)
    1  A    between atoms: C_1  and  C_24
    2  A    between atoms: C_1  and  C_35
    3  A    between atoms: O_2  and  C_12
    4  A    between atoms: O_2  and  C_25
    5  A    between atoms: N_7  and  C_32
    6  A    between atoms: C_9  and  C_39
    7  A    between atoms: C_12  and  C_17
    8  A    between atoms: C_13  and  C_15
    9  A    between atoms: C_17  and  C_19
   10  A    between atoms: C_21  and  C_32
   11  A    between atoms: C_23  and  C_24
   12  A    between atoms: C_23  and  C_40
   13  A    between atoms: C_25  and  C_34
   14  A    between atoms: C_32  and  C_39
                            x       y       z     vdW  Elec       q    Type
                         _______ _______ _______ _____ _____    ______ ____

>  <TORSDO>
F 14

$$$$
=
 OpenBabel10222421253D

 40 44  0  0  1  0  0  0  0  0999 V2000
  185.0270  179.0100  145.3500 C   0  0  0  0  0  3  0  0  0  0  0  0
  185.7630  178.1890  144.5690 C   0  0  0  0  0  0  0  0  0  0  0  0
  187.7860  176.6090  144.2270 C   0  0  0  0  0  1  0  0  0  0  0  0
  186.6130  178.6510  147.2240 C   0  0  0  0  0  0  0  0  0  0  0  0
  185.3390  179.3110  146.8030 C   0  0  0  0  0  2  0  0  0  0  0  0
  187.2020  178.7260  148.4090 C   0  0  0  0  0  3  0  0  0  0  0  0
  188.4080  177.8770  148.3590 C   0  0  0  0  0  3  0  0  0  0  0  0
  186.9900  177.5250  145.0980 C   0  0  0  0  0  0  0  0  0  0  0  0
  187.3590  177.7740  146.3560 C   0  0  0  0  0  0  0  0  0  0  0  0
  188.4960  177.3250  147.1500 C   0  0  0  0  0  0  0  0  0  0  0  0
  183.5600  178.0780  141.4290 C   0  0  0  0  0  2  0  0  0  0  0  0
  184.3490  179.0250  140.6300 N   0  0  0  0  0  0  0  0  0  0  0  0
  185.7550  178.6180  140.7570 C   0  0  0  0  0  2  0  0  0  0  0  0
  186.2300  178.8220  142.1920 C   0  0  0  0  0  2  0  0  0  0  0  0
  185.3710  177.9790  143.1360 C   0  0  2  0  0  3  0  0  0  0  0  0
  183.8830  178.2450  142.9100 C   0  0  0  0  0  2  0  0  0  0  0  0
  183.9390  178.9160  139.2180 C   0  0  1  0  0  3  0  0  0  0  0  0
  181.8360  179.6910  138.1660 C   0  0  0  0  0  2  0  0  0  0  0  0
  183.1020  180.1270  138.7980 C   0  0  1  0  0  3  0  0  0  0  0  0
  181.8850  180.1190  139.5050 O   0  0  0  0  0  0  0  0  0  0  0  0
  185.1620  178.8680  138.2960 C   0  0  0  0  0  2  0  0  0  0  0  0
  186.4330  176.9420  137.5170 N   0  0  0  0  0  1  0  0  0  0  0  0
  185.1480  177.6150  137.4390 C   0  0  0  0  0  2  0  0  0  0  0  0
  189.5650  176.3690  146.7350 C   0  0  0  0  0  2  0  0  0  0  0  0
  190.9380  176.8810  147.1520 C   0  0  0  0  0  2  0  0  0  0  0  0
  192.0030  176.4950  146.1360 C   0  0  0  0  0  2  0  0  0  0  0  0
  191.2660  175.6020  143.9160 C   0  0  0  0  0  3  0  0  0  0  0  0
  190.8270  175.8000  142.6030 C   0  0  0  0  0  3  0  0  0  0  0  0
  190.8790  178.1950  142.9450 C   0  0  0  0  0  3  0  0  0  0  0  0
  190.6290  177.0970  142.1090 C   0  0  0  0  0  0  0  0  0  0  0  0
  191.5090  176.7010  144.7440 C   0  0  0  0  0  0  0  0  0  0  0  0
  191.3190  177.9980  144.2570 C   0  0  0  0  0  3  0  0  0  0  0  0
  190.1750  177.3000  140.7240 C   0  0  0  0  0  0  0  0  0  0  0  0
  189.2450  178.1180  140.4780 O   0  0  0  0  0  0  0  0  0  0  0  0
  190.7790  176.5850  139.6840 O   0  0  0  0  0  0  0  0  0  0  0  0
  190.6350  176.9540  138.3180 C   0  0  0  0  0  2  0  0  0  0  0  0
  190.8630  175.7530  137.4100 C   0  0  2  0  0  3  0  0  0  0  0  0
  191.1140  174.6200  138.1800 O   0  0  0  0  0  1  0  0  0  0  0  0
  192.0210  176.0000  136.4510 C   0  0  0  0  0  2  0  0  0  0  0  0
  192.0800  174.9980  135.4810 O   0  0  0  0  0  1  0  0  0  0  0  0
  1  5  1  0  0  0  0
  2  8  1  0  0  0  0
  2  1  2  0  0  0  0
  3  8  1  0  0  0  0
  4  6  2  0  0  0  0
  5  4  1  0  0  0  0
  7  6  1  0  0  0  0
  8  9  2  0  0  0  0
  9 10  1  0  0  0  0
  9  4  1  0  0  0  0
 10  7  2  0  0  0  0
 11 16  1  0  0  0  0
 12 13  1  0  0  0  0
 12 11  1  0  0  0  0
 13 14  1  0  0  0  0
 14 15  1  0  0  0  0
 15  2  1  1  0  0  0
 16 15  1  0  0  0  0
 17 21  1  6  0  0  0
 17 12  1  0  0  0  0
 18 19  1  0  0  0  0
 18 20  1  0  0  0  0
 19 17  1  1  0  0  0
 19 20  1  0  0  0  0
 23 22  1  0  0  0  0
 23 21  1  0  0  0  0
 24 10  1  0  0  0  0
 24 25  1  0  0  0  0
 26 25  1  0  0  0  0
 27 31  1  0  0  0  0
 28 27  2  0  0  0  0
 29 32  1  0  0  0  0
 30 28  1  0  0  0  0
 30 29  2  0  0  0  0
 31 26  1  0  0  0  0
 32 31  2  0  0  0  0
 33 30  1  0  0  0  0
 34 33  2  0  0  0  0
 35 33  1  0  0  0  0
 36 35  1  0  0  0  0
 37 38  1  1  0  0  0
 37 36  1  0  0  0  0
 39 37  1  0  0  0  0
 40 39  1  0  0  0  0
M  END
>  <MODEL>
2

>  <REMARK>
 VINA RESULT:      -8.7      1.669      2.375
  Name = 
  14 active torsions:
  status: ('A' for Active; 'I' for Inactive)
    1  A    between atoms: C_1  and  C_24
    2  A    between atoms: C_1  and  C_35
    3  A    between atoms: O_2  and  C_12
    4  A    between atoms: O_2  and  C_25
    5  A    between atoms: N_7  and  C_32
    6  A    between atoms: C_9  and  C_39
    7  A    between atoms: C_12  and  C_17
    8  A    between atoms: C_13  and  C_15
    9  A    between atoms: C_17  and  C_19
   10  A    between atoms: C_21  and  C_32
   11  A    between atoms: C_23  and  C_24
   12  A    between atoms: C_23  and  C_40
   13  A    between atoms: C_25  and  C_34
   14  A    between atoms: C_32  and  C_39
                            x       y       z     vdW  Elec       q    Type
                         _______ _______ _______ _____ _____    ______ ____

>  <TORSDO>
F 14

$$$$
=
 OpenBabel10222421253D

 40 44  0  0  1  0  0  0  0  0999 V2000
  185.3490  178.7060  146.4720 C   0  0  0  0  0  3  0  0  0  0  0  0
  185.7490  178.0650  145.3510 C   0  0  0  0  0  0  0  0  0  0  0  0
  187.5480  176.7800  144.0020 C   0  0  0  0  0  1  0  0  0  0  0  0
  187.5860  178.3420  147.4790 C   0  0  0  0  0  0  0  0  0  0  0  0
  186.2130  178.8880  147.7040 C   0  0  0  0  0  2  0  0  0  0  0  0
  188.6060  178.3610  148.3270 C   0  0  0  0  0  3  0  0  0  0  0  0
  189.7360  177.6710  147.6760 C   0  0  0  0  0  3  0  0  0  0  0  0
  187.1240  177.4980  145.2420 C   0  0  0  0  0  0  0  0  0  0  0  0
  187.9630  177.6560  146.2690 C   0  0  0  0  0  0  0  0  0  0  0  0
  189.3530  177.2640  146.4660 C   0  0  0  0  0  0  0  0  0  0  0  0
  182.6950  178.7350  143.1260 C   0  0  0  0  0  2  0  0  0  0  0  0
  183.4380  179.2010  141.9470 N   0  0  0  0  0  0  0  0  0  0  0  0
  184.5220  178.2360  141.7210 C   0  0  0  0  0  2  0  0  0  0  0  0
  185.5250  178.2970  142.8680 C   0  0  0  0  0  2  0  0  0  0  0  0
  184.8150  177.9630  144.1810 C   0  0  2  0  0  3  0  0  0  0  0  0
  183.5710  178.8310  144.3700 C   0  0  0  0  0  2  0  0  0  0  0  0
  182.5350  179.1980  140.7810 C   0  0  1  0  0  3  0  0  0  0  0  0
  183.0490  180.2360  138.5930 C   0  0  0  0  0  2  0  0  0  0  0  0
  183.3290  179.0820  139.4780 C   0  0  1  0  0  3  0  0  0  0  0  0
  184.2160  180.1700  139.3750 O   0  0  0  0  0  0  0  0  0  0  0  0
  181.5750  178.0060  140.8350 C   0  0  0  0  0  2  0  0  0  0  0  0
  179.8850  178.2010  139.0920 N   0  0  0  0  0  1  0  0  0  0  0  0
  181.1530  177.5830  139.4390 C   0  0  0  0  0  2  0  0  0  0  0  0
  190.2150  176.4890  145.5240 C   0  0  0  0  0  2  0  0  0  0  0  0
  191.4200  177.3160  145.0950 C   0  0  0  0  0  2  0  0  0  0  0  0
  191.0000  178.4950  144.2290 C   0  0  0  0  0  2  0  0  0  0  0  0
  189.5570  178.1350  142.2140 C   0  0  0  0  0  3  0  0  0  0  0  0
  189.3870  177.7160  140.8910 C   0  0  0  0  0  3  0  0  0  0  0  0
  191.7400  177.1700  140.7600 C   0  0  0  0  0  3  0  0  0  0  0  0
  190.4770  177.2320  140.1550 C   0  0  0  0  0  0  0  0  0  0  0  0
  190.8200  178.0740  142.8100 C   0  0  0  0  0  0  0  0  0  0  0  0
  191.9110  177.5870  142.0820 C   0  0  0  0  0  3  0  0  0  0  0  0
  190.2900  176.7830  138.7650 C   0  0  0  0  0  0  0  0  0  0  0  0
  190.2050  175.5500  138.5060 O   0  0  0  0  0  0  0  0  0  0  0  0
  190.2080  177.7280  137.7370 O   0  0  0  0  0  0  0  0  0  0  0  0
  189.0380  178.5030  137.5030 C   0  0  0  0  0  2  0  0  0  0  0  0
  187.9380  177.6460  136.8920 C   0  0  2  0  0  3  0  0  0  0  0  0
  187.7410  178.0100  135.5610 O   0  0  0  0  0  1  0  0  0  0  0  0
  186.6370  177.7830  137.6700 C   0  0  0  0  0  2  0  0  0  0  0  0
  186.8450  178.4850  138.8590 O   0  0  0  0  0  1  0  0  0  0  0  0
  1  5  1  0  0  0  0
  2  1  2  0  0  0  0
  3  8  1  0  0  0  0
  4  5  1  0  0  0  0
  4  6  2  0  0  0  0
  7  6  1  0  0  0  0
  8  2  1  0  0  0  0
  8  9  2  0  0  0  0
  9 10  1  0  0  0  0
  9  4  1  0  0  0  0
 10  7  2  0  0  0  0
 11 16  1  0  0  0  0
 12 11  1  0  0  0  0
 13 12  1  0  0  0  0
 13 14  1  0  0  0  0
 14 15  1  0  0  0  0
 15 16  1  0  0  0  0
 15  2  1  1  0  0  0
 17 21  1  1  0  0  0
 17 12  1  0  0  0  0
 18 20  1  0  0  0  0
 18 19  1  0  0  0  0
 19 17  1  1  0  0  0
 20 19  1  0  0  0  0
 22 23  1  0  0  0  0
 23 21  1  0  0  0  0
 24 10  1  0  0  0  0
 25 24  1  0  0  0  0
 26 25  1  0  0  0  0
 27 31  1  0  0  0  0
 28 27  2  0  0  0  0
 29 32  1  0  0  0  0
 30 29  2  0  0  0  0
 30 28  1  0  0  0  0
 31 26  1  0  0  0  0
 32 31  2  0  0  0  0
 33 30  1  0  0  0  0
 34 33  2  0  0  0  0
 35 33  1  0  0  0  0
 36 35  1  0  0  0  0
 37 38  1  6  0  0  0
 37 36  1  0  0  0  0
 37 39  1  0  0  0  0
 39 40  1  0  0  0  0
M  END
>  <MODEL>
3

>  <REMARK>
 VINA RESULT:      -8.7      1.546      2.248
  Name = 
  14 active torsions:
  status: ('A' for Active; 'I' for Inactive)
    1  A    between atoms: C_1  and  C_24
    2  A    between atoms: C_1  and  C_35
    3  A    between atoms: O_2  and  C_12
    4  A    between atoms: O_2  and  C_25
    5  A    between atoms: N_7  and  C_32
    6  A    between atoms: C_9  and  C_39
    7  A    between atoms: C_12  and  C_17
    8  A    between atoms: C_13  and  C_15
    9  A    between atoms: C_17  and  C_19
   10  A    between atoms: C_21  and  C_32
   11  A    between atoms: C_23  and  C_24
   12  A    between atoms: C_23  and  C_40
   13  A    between atoms: C_25  and  C_34
   14  A    between atoms: C_32  and  C_39
                            x       y       z     vdW  Elec       q    Type
                         _______ _______ _______ _____ _____    ______ ____

>  <TORSDO>
F 14

$$$$
=
 OpenBabel10222421253D

 40 44  0  0  1  0  0  0  0  0999 V2000
  190.8090  177.4770  143.8390 C   0  0  0  0  0  3  0  0  0  0  0  0
  189.5880  177.1690  143.3480 C   0  0  0  0  0  0  0  0  0  0  0  0
  187.0450  176.8060  143.6760 C   0  0  0  0  0  1  0  0  0  0  0  0
  189.8370  177.7100  146.1100 C   0  0  0  0  0  0  0  0  0  0  0  0
  191.0790  177.8310  145.2880 C   0  0  0  0  0  2  0  0  0  0  0  0
  189.7140  177.9100  147.4150 C   0  0  0  0  0  3  0  0  0  0  0  0
  188.2940  177.7120  147.7620 C   0  0  0  0  0  3  0  0  0  0  0  0
  188.3910  177.1330  144.2370 C   0  0  0  0  0  0  0  0  0  0  0  0
  188.5530  177.3890  145.5370 C   0  0  0  0  0  0  0  0  0  0  0  0
  187.6190  177.4020  146.6560 C   0  0  0  0  0  0  0  0  0  0  0  0
  188.3410  177.3260  139.7220 C   0  0  0  0  0  2  0  0  0  0  0  0
  189.6530  177.5380  139.0960 N   0  0  0  0  0  0  0  0  0  0  0  0
  190.5700  176.5570  139.6910 C   0  0  0  0  0  2  0  0  0  0  0  0
  190.7830  176.8680  141.1690 C   0  0  0  0  0  2  0  0  0  0  0  0
  189.4400  176.8130  141.8970 C   0  0  2  0  0  3  0  0  0  0  0  0
  188.3990  177.6900  141.2010 C   0  0  0  0  0  2  0  0  0  0  0  0
  189.5400  177.2810  137.6490 C   0  0  1  0  0  3  0  0  0  0  0  0
  188.0230  178.8450  136.4730 C   0  0  0  0  0  2  0  0  0  0  0  0
  189.4270  178.5930  136.8690 C   0  0  1  0  0  3  0  0  0  0  0  0
  188.6060  179.4880  137.5800 O   0  0  0  0  0  0  0  0  0  0  0  0
  190.7790  176.5470  137.1250 C   0  0  0  0  0  2  0  0  0  0  0  0
  190.8620  174.1140  137.2020 N   0  0  0  0  0  1  0  0  0  0  0  0
  190.3910  175.2520  136.4330 C   0  0  0  0  0  2  0  0  0  0  0  0
  186.1450  177.1690  146.6040 C   0  0  0  0  0  2  0  0  0  0  0  0
  185.3860  178.4630  146.8620 C   0  0  0  0  0  2  0  0  0  0  0  0
  185.5910  179.4580  145.7280 C   0  0  0  0  0  2  0  0  0  0  0  0
  183.2560  178.9430  144.9820 C   0  0  0  0  0  3  0  0  0  0  0  0
  182.3160  178.7270  143.9700 C   0  0  0  0  0  3  0  0  0  0  0  0
  184.0190  179.1270  142.2990 C   0  0  0  0  0  3  0  0  0  0  0  0
  182.6900  178.8190  142.6230 C   0  0  0  0  0  0  0  0  0  0  0  0
  184.5790  179.2530  144.6530 C   0  0  0  0  0  0  0  0  0  0  0  0
  184.9600  179.3420  143.3100 C   0  0  0  0  0  3  0  0  0  0  0  0
  181.6980  178.5820  141.5610 C   0  0  0  0  0  0  0  0  0  0  0  0
  180.5340  178.1940  141.8610 O   0  0  0  0  0  0  0  0  0  0  0  0
  182.0500  178.7890  140.2230 O   0  0  0  0  0  0  0  0  0  0  0  0
  182.3910  177.7200  139.3480 C   0  0  0  0  0  2  0  0  0  0  0  0
  183.2590  178.2200  138.2020 C   0  0  2  0  0  3  0  0  0  0  0  0
  182.9760  177.4960  137.0450 O   0  0  0  0  0  1  0  0  0  0  0  0
  184.7390  178.1050  138.5410 C   0  0  0  0  0  2  0  0  0  0  0  0
  185.2740  179.3580  138.8460 O   0  0  0  0  0  1  0  0  0  0  0  0
  1  5  1  0  0  0  0
  2  1  2  0  0  0  0
  2  8  1  0  0  0  0
  3  8  1  0  0  0  0
  4  6  2  0  0  0  0
  5  4  1  0  0  0  0
  6  7  1  0  0  0  0
  8  9  2  0  0  0  0
  9  4  1  0  0  0  0
  9 10  1  0  0  0  0
 10  7  2  0  0  0  0
 11 16  1  0  0  0  0
 12 13  1  0  0  0  0
 12 11  1  0  0  0  0
 13 14  1  0  0  0  0
 14 15  1  0  0  0  0
 15  2  1  1  0  0  0
 16 15  1  0  0  0  0
 17 21  1  6  0  0  0
 17 12  1  0  0  0  0
 18 19  1  0  0  0  0
 18 20  1  0  0  0  0
 19 20  1  0  0  0  0
 19 17  1  1  0  0  0
 23 21  1  0  0  0  0
 23 22  1  0  0  0  0
 24 10  1  0  0  0  0
 24 25  1  0  0  0  0
 26 25  1  0  0  0  0
 28 27  2  0  0  0  0
 29 30  2  0  0  0  0
 29 32  1  0  0  0  0
 30 28  1  0  0  0  0
 31 27  1  0  0  0  0
 31 26  1  0  0  0  0
 32 31  2  0  0  0  0
 33 34  2  0  0  0  0
 33 30  1  0  0  0  0
 35 33  1  0  0  0  0
 36 35  1  0  0  0  0
 37 38  1  6  0  0  0
 37 39  1  0  0  0  0
 37 36  1  0  0  0  0
 39 40  1  0  0  0  0
M  END
>  <MODEL>
4

>  <REMARK>
 VINA RESULT:      -8.6      2.505      6.377
  Name = 
  14 active torsions:
  status: ('A' for Active; 'I' for Inactive)
    1  A    between atoms: C_1  and  C_24
    2  A    between atoms: C_1  and  C_35
    3  A    between atoms: O_2  and  C_12
    4  A    between atoms: O_2  and  C_25
    5  A    between atoms: N_7  and  C_32
    6  A    between atoms: C_9  and  C_39
    7  A    between atoms: C_12  and  C_17
    8  A    between atoms: C_13  and  C_15
    9  A    between atoms: C_17  and  C_19
   10  A    between atoms: C_21  and  C_32
   11  A    between atoms: C_23  and  C_24
   12  A    between atoms: C_23  and  C_40
   13  A    between atoms: C_25  and  C_34
   14  A    between atoms: C_32  and  C_39
                            x       y       z     vdW  Elec       q    Type
                         _______ _______ _______ _____ _____    ______ ____

>  <TORSDO>
F 14

$$$$
=
 OpenBabel10222421253D

 40 44  0  0  1  0  0  0  0  0999 V2000
  191.4090  177.4880  144.3110 C   0  0  0  0  0  3  0  0  0  0  0  0
  190.3180  177.5520  143.5150 C   0  0  0  0  0  0  0  0  0  0  0  0
  187.7480  177.6130  143.2030 C   0  0  0  0  0  1  0  0  0  0  0  0
  189.9440  177.3340  146.3070 C   0  0  0  0  0  0  0  0  0  0  0  0
  191.3560  177.4150  145.8240 C   0  0  0  0  0  2  0  0  0  0  0  0
  189.5290  177.2250  147.5620 C   0  0  0  0  0  3  0  0  0  0  0  0
  188.0540  177.2230  147.5430 C   0  0  0  0  0  3  0  0  0  0  0  0
  188.9440  177.5270  144.0950 C   0  0  0  0  0  0  0  0  0  0  0  0
  188.8120  177.4170  145.4190 C   0  0  0  0  0  0  0  0  0  0  0  0
  187.6390  177.3310  146.2810 C   0  0  0  0  0  0  0  0  0  0  0  0
  192.0610  177.4770  140.0970 C   0  0  0  0  0  2  0  0  0  0  0  0
  191.3130  176.3400  139.5460 N   0  0  0  0  0  0  0  0  0  0  0  0
  189.8930  176.5900  139.8270 C   0  0  0  0  0  2  0  0  0  0  0  0
  189.6390  176.5370  141.3300 C   0  0  0  0  0  2  0  0  0  0  0  0
  190.4890  177.6020  142.0250 C   0  0  2  0  0  3  0  0  0  0  0  0
  191.9580  177.4860  141.6180 C   0  0  0  0  0  2  0  0  0  0  0  0
  191.5170  176.2950  138.0860 C   0  0  1  0  0  3  0  0  0  0  0  0
  193.5940  176.1970  136.7420 C   0  0  0  0  0  2  0  0  0  0  0  0
  192.7630  175.4790  137.7350 C   0  0  1  0  0  3  0  0  0  0  0  0
  193.9130  176.1990  138.1120 O   0  0  0  0  0  0  0  0  0  0  0  0
  190.3270  175.6290  137.3870 C   0  0  0  0  0  2  0  0  0  0  0  0
  189.3520  173.4380  136.9660 N   0  0  0  0  0  1  0  0  0  0  0  0
  190.6020  174.1590  137.1260 C   0  0  0  0  0  2  0  0  0  0  0  0
  186.2070  177.4050  145.8670 C   0  0  0  0  0  2  0  0  0  0  0  0
  185.7180  178.8470  145.8730 C   0  0  0  0  0  2  0  0  0  0  0  0
  184.1980  178.9150  145.9130 C   0  0  0  0  0  2  0  0  0  0  0  0
  184.4700  178.6780  143.4350 C   0  0  0  0  0  3  0  0  0  0  0  0
  183.9320  178.6310  142.1450 C   0  0  0  0  0  3  0  0  0  0  0  0
  181.7090  178.9070  143.0590 C   0  0  0  0  0  3  0  0  0  0  0  0
  182.5490  178.7440  141.9490 C   0  0  0  0  0  0  0  0  0  0  0  0
  183.6270  178.8380  144.5380 C   0  0  0  0  0  0  0  0  0  0  0  0
  182.2460  178.9560  144.3490 C   0  0  0  0  0  3  0  0  0  0  0  0
  181.9890  178.7030  140.5870 C   0  0  0  0  0  0  0  0  0  0  0  0
  181.0430  179.4760  140.2710 O   0  0  0  0  0  0  0  0  0  0  0  0
  182.5100  177.8050  139.6500 O   0  0  0  0  0  0  0  0  0  0  0  0
  183.1840  178.2340  138.4730 C   0  0  0  0  0  2  0  0  0  0  0  0
  184.6320  178.5880  138.7820 C   0  0  2  0  0  3  0  0  0  0  0  0
  184.7670  179.9700  138.8980 O   0  0  0  0  0  1  0  0  0  0  0  0
  185.5700  178.0600  137.7040 C   0  0  0  0  0  2  0  0  0  0  0  0
  186.7710  178.7720  137.7030 O   0  0  0  0  0  1  0  0  0  0  0  0
  1  5  1  0  0  0  0
  2  8  1  0  0  0  0
  2  1  2  0  0  0  0
  3  8  1  0  0  0  0
  4  6  2  0  0  0  0
  5  4  1  0  0  0  0
  7  6  1  0  0  0  0
  8  9  2  0  0  0  0
  9 10  1  0  0  0  0
  9  4  1  0  0  0  0
 10  7  2  0  0  0  0
 11 16  1  0  0  0  0
 12 13  1  0  0  0  0
 12 11  1  0  0  0  0
 13 14  1  0  0  0  0
 14 15  1  0  0  0  0
 15  2  1  1  0  0  0
 16 15  1  0  0  0  0
 17 21  1  6  0  0  0
 17 12  1  0  0  0  0
 18 19  1  0  0  0  0
 18 20  1  0  0  0  0
 19 17  1  1  0  0  0
 19 20  1  0  0  0  0
 22 23  1  0  0  0  0
 23 21  1  0  0  0  0
 24 25  1  0  0  0  0
 24 10  1  0  0  0  0
 25 26  1  0  0  0  0
 27 31  1  0  0  0  0
 28 27  2  0  0  0  0
 29 32  1  0  0  0  0
 30 28  1  0  0  0  0
 30 29  2  0  0  0  0
 31 26  1  0  0  0  0
 32 31  2  0  0  0  0
 33 30  1  0  0  0  0
 34 33  2  0  0  0  0
 35 33  1  0  0  0  0
 36 37  1  0  0  0  0
 36 35  1  0  0  0  0
 37 38  1  6  0  0  0
 39 37  1  0  0  0  0
 40 39  1  0  0  0  0
M  END
>  <MODEL>
5

>  <REMARK>
 VINA RESULT:      -8.6      2.829      7.047
  Name = 
  14 active torsions:
  status: ('A' for Active; 'I' for Inactive)
    1  A    between atoms: C_1  and  C_24
    2  A    between atoms: C_1  and  C_35
    3  A    between atoms: O_2  and  C_12
    4  A    between atoms: O_2  and  C_25
    5  A    between atoms: N_7  and  C_32
    6  A    between atoms: C_9  and  C_39
    7  A    between atoms: C_12  and  C_17
    8  A    between atoms: C_13  and  C_15
    9  A    between atoms: C_17  and  C_19
   10  A    between atoms: C_21  and  C_32
   11  A    between atoms: C_23  and  C_24
   12  A    between atoms: C_23  and  C_40
   13  A    between atoms: C_25  and  C_34
   14  A    between atoms: C_32  and  C_39
                            x       y       z     vdW  Elec       q    Type
                         _______ _______ _______ _____ _____    ______ ____

>  <TORSDO>
F 14

$$$$
=
 OpenBabel10222421253D

 40 44  0  0  1  0  0  0  0  0999 V2000
  184.6240  179.0060  145.1790 C   0  0  0  0  0  3  0  0  0  0  0  0
  185.3140  178.2650  144.2840 C   0  0  0  0  0  0  0  0  0  0  0  0
  187.3530  176.7960  143.6600 C   0  0  0  0  0  1  0  0  0  0  0  0
  186.3910  178.6070  146.8730 C   0  0  0  0  0  0  0  0  0  0  0  0
  185.0600  179.2350  146.6130 C   0  0  0  0  0  2  0  0  0  0  0  0
  187.0870  178.6370  148.0020 C   0  0  0  0  0  3  0  0  0  0  0  0
  188.3130  177.8450  147.7890 C   0  0  0  0  0  3  0  0  0  0  0  0
  186.6080  177.6240  144.6550 C   0  0  0  0  0  0  0  0  0  0  0  0
  187.0850  177.8150  145.8880 C   0  0  0  0  0  0  0  0  0  0  0  0
  188.3080  177.3690  146.5440 C   0  0  0  0  0  0  0  0  0  0  0  0
  182.8170  178.1640  141.3720 C   0  0  0  0  0  2  0  0  0  0  0  0
  183.4270  179.2420  140.5830 N   0  0  0  0  0  0  0  0  0  0  0  0
  184.8700  178.9730  140.5400 C   0  0  0  0  0  2  0  0  0  0  0  0
  185.4710  179.1170  141.9350 C   0  0  0  0  0  2  0  0  0  0  0  0
  184.7960  178.1230  142.8820 C   0  0  2  0  0  3  0  0  0  0  0  0
  183.2740  178.2520  142.8230 C   0  0  0  0  0  2  0  0  0  0  0  0
  182.8850  179.1980  139.2120 C   0  0  1  0  0  3  0  0  0  0  0  0
  181.3610  180.7160  137.9860 C   0  0  0  0  0  2  0  0  0  0  0  0
  182.6740  180.6100  138.6630 C   0  0  1  0  0  3  0  0  0  0  0  0
  181.5590  181.1940  139.2940 O   0  0  0  0  0  0  0  0  0  0  0  0
  183.8530  178.4820  138.2640 C   0  0  0  0  0  2  0  0  0  0  0  0
  183.5170  176.0700  138.2160 N   0  0  0  0  0  1  0  0  0  0  0  0
  183.1690  177.3210  137.5640 C   0  0  0  0  0  2  0  0  0  0  0  0
  189.3680  176.4860  145.9740 C   0  0  0  0  0  2  0  0  0  0  0  0
  190.7330  176.8460  146.5440 C   0  0  0  0  0  2  0  0  0  0  0  0
  191.4700  177.8210  145.6370 C   0  0  0  0  0  2  0  0  0  0  0  0
  190.4090  178.5770  143.4990 C   0  0  0  0  0  3  0  0  0  0  0  0
  190.0470  178.3520  142.1670 C   0  0  0  0  0  3  0  0  0  0  0  0
  191.0750  176.1640  142.2560 C   0  0  0  0  0  3  0  0  0  0  0  0
  190.3790  177.1450  141.5360 C   0  0  0  0  0  0  0  0  0  0  0  0
  191.1060  177.5960  144.2090 C   0  0  0  0  0  0  0  0  0  0  0  0
  191.4360  176.3870  143.5870 C   0  0  0  0  0  3  0  0  0  0  0  0
  189.9880  176.9100  140.1360 C   0  0  0  0  0  0  0  0  0  0  0  0
  190.5560  176.0020  139.4670 O   0  0  0  0  0  0  0  0  0  0  0  0
  188.9860  177.6940  139.5550 O   0  0  0  0  0  0  0  0  0  0  0  0
  189.2520  178.6230  138.5110 C   0  0  0  0  0  2  0  0  0  0  0  0
  188.3600  178.3510  137.3080 C   0  0  2  0  0  3  0  0  0  0  0  0
  187.1390  179.0030  137.4690 O   0  0  0  0  0  1  0  0  0  0  0  0
  188.1320  176.8570  137.1180 C   0  0  0  0  0  2  0  0  0  0  0  0
  186.7690  176.5760  137.0030 O   0  0  0  0  0  1  0  0  0  0  0  0
  1  5  1  0  0  0  0
  2  8  1  0  0  0  0
  2  1  2  0  0  0  0
  3  8  1  0  0  0  0
  4  6  2  0  0  0  0
  5  4  1  0  0  0  0
  7  6  1  0  0  0  0
  8  9  2  0  0  0  0
  9 10  1  0  0  0  0
  9  4  1  0  0  0  0
 10  7  2  0  0  0  0
 11 16  1  0  0  0  0
 12 11  1  0  0  0  0
 13 12  1  0  0  0  0
 13 14  1  0  0  0  0
 14 15  1  0  0  0  0
 15  2  1  1  0  0  0
 16 15  1  0  0  0  0
 17 21  1  6  0  0  0
 17 12  1  0  0  0  0
 18 19  1  0  0  0  0
 18 20  1  0  0  0  0
 19 17  1  1  0  0  0
 19 20  1  0  0  0  0
 23 22  1  0  0  0  0
 23 21  1  0  0  0  0
 24 25  1  0  0  0  0
 24 10  1  0  0  0  0
 26 25  1  0  0  0  0
 27 31  1  0  0  0  0
 28 27  2  0  0  0  0
 29 32  1  0  0  0  0
 30 28  1  0  0  0  0
 30 29  2  0  0  0  0
 31 26  1  0  0  0  0
 32 31  2  0  0  0  0
 33 30  1  0  0  0  0
 34 33  2  0  0  0  0
 35 33  1  0  0  0  0
 36 35  1  0  0  0  0
 37 38  1  1  0  0  0
 37 36  1  0  0  0  0
 39 37  1  0  0  0  0
 40 39  1  0  0  0  0
M  END
>  <MODEL>
6

>  <REMARK>
 VINA RESULT:      -8.5      1.353      1.966
  Name = 
  14 active torsions:
  status: ('A' for Active; 'I' for Inactive)
    1  A    between atoms: C_1  and  C_24
    2  A    between atoms: C_1  and  C_35
    3  A    between atoms: O_2  and  C_12
    4  A    between atoms: O_2  and  C_25
    5  A    between atoms: N_7  and  C_32
    6  A    between atoms: C_9  and  C_39
    7  A    between atoms: C_12  and  C_17
    8  A    between atoms: C_13  and  C_15
    9  A    between atoms: C_17  and  C_19
   10  A    between atoms: C_21  and  C_32
   11  A    between atoms: C_23  and  C_24
   12  A    between atoms: C_23  and  C_40
   13  A    between atoms: C_25  and  C_34
   14  A    between atoms: C_32  and  C_39
                            x       y       z     vdW  Elec       q    Type
                         _______ _______ _______ _____ _____    ______ ____

>  <TORSDO>
F 14

$$$$
=
 OpenBabel10222421253D

 40 44  0  0  1  0  0  0  0  0999 V2000
  184.7580  178.8850  145.9710 C   0  0  0  0  0  3  0  0  0  0  0  0
  185.0100  178.6670  144.6610 C   0  0  0  0  0  0  0  0  0  0  0  0
  186.5620  177.8220  142.7690 C   0  0  0  0  0  1  0  0  0  0  0  0
  187.0030  178.0040  146.5510 C   0  0  0  0  0  0  0  0  0  0  0  0
  185.7160  178.5370  147.0930 C   0  0  0  0  0  2  0  0  0  0  0  0
  188.0730  177.6330  147.2410 C   0  0  0  0  0  3  0  0  0  0  0  0
  189.0740  177.1400  146.2760 C   0  0  0  0  0  3  0  0  0  0  0  0
  186.3040  178.0720  144.2190 C   0  0  0  0  0  0  0  0  0  0  0  0
  187.2210  177.7780  145.1440 C   0  0  0  0  0  0  0  0  0  0  0  0
  188.5690  177.2320  145.0460 C   0  0  0  0  0  0  0  0  0  0  0  0
  183.0170  178.6460  141.3810 C   0  0  0  0  0  2  0  0  0  0  0  0
  181.6950  178.4320  141.9830 N   0  0  0  0  0  0  0  0  0  0  0  0
  181.5790  179.3790  143.1000 C   0  0  0  0  0  2  0  0  0  0  0  0
  182.5750  179.0170  144.1980 C   0  0  0  0  0  2  0  0  0  0  0  0
  183.9940  179.0710  143.6330 C   0  0  2  0  0  3  0  0  0  0  0  0
  184.1120  178.2330  142.3590 C   0  0  0  0  0  2  0  0  0  0  0  0
  180.6580  178.7370  140.9800 C   0  0  1  0  0  3  0  0  0  0  0  0
  178.9370  177.0030  140.5770 C   0  0  0  0  0  2  0  0  0  0  0  0
  179.3020  178.1730  141.4090 C   0  0  1  0  0  3  0  0  0  0  0  0
  179.4710  176.8530  141.8710 O   0  0  0  0  0  0  0  0  0  0  0  0
  180.4880  180.2510  140.8120 C   0  0  0  0  0  2  0  0  0  0  0  0
  181.4820  181.0400  138.7340 N   0  0  0  0  0  1  0  0  0  0  0  0
  180.2420  180.6120  139.3580 C   0  0  0  0  0  2  0  0  0  0  0  0
  189.2760  176.7880  143.8080 C   0  0  0  0  0  2  0  0  0  0  0  0
  190.1140  177.9220  143.2310 C   0  0  0  0  0  2  0  0  0  0  0  0
  191.1430  177.3970  142.2400 C   0  0  0  0  0  2  0  0  0  0  0  0
  191.3160  176.8420  139.8040 C   0  0  0  0  0  3  0  0  0  0  0  0
  190.8340  176.9250  138.4950 C   0  0  0  0  0  3  0  0  0  0  0  0
  188.9600  178.2480  139.2660 C   0  0  0  0  0  3  0  0  0  0  0  0
  189.6520  177.6270  138.2170 C   0  0  0  0  0  0  0  0  0  0  0  0
  190.6190  177.4610  140.8460 C   0  0  0  0  0  0  0  0  0  0  0  0
  189.4420  178.1670  140.5750 C   0  0  0  0  0  3  0  0  0  0  0  0
  189.1540  177.7180  136.8340 C   0  0  0  0  0  0  0  0  0  0  0  0
  189.7240  177.0690  135.9140 O   0  0  0  0  0  0  0  0  0  0  0  0
  188.0470  178.5250  136.5480 O   0  0  0  0  0  0  0  0  0  0  0  0
  186.7920  177.9880  136.1490 C   0  0  0  0  0  2  0  0  0  0  0  0
  186.1050  177.3000  137.3210 C   0  0  2  0  0  3  0  0  0  0  0  0
  185.4920  176.1270  136.8860 O   0  0  0  0  0  1  0  0  0  0  0  0
  185.0780  178.2160  137.9720 C   0  0  0  0  0  2  0  0  0  0  0  0
  185.6430  178.9070  139.0450 O   0  0  0  0  0  1  0  0  0  0  0  0
  1  5  1  0  0  0  0
  2  1  2  0  0  0  0
  3  8  1  0  0  0  0
  4  5  1  0  0  0  0
  4  6  2  0  0  0  0
  7  6  1  0  0  0  0
  8  2  1  0  0  0  0
  8  9  2  0  0  0  0
  9  4  1  0  0  0  0
 10  9  1  0  0  0  0
 10  7  2  0  0  0  0
 11 12  1  0  0  0  0
 11 16  1  0  0  0  0
 12 13  1  0  0  0  0
 13 14  1  0  0  0  0
 15 14  1  0  0  0  0
 15  2  1  1  0  0  0
 16 15  1  0  0  0  0
 17 21  1  1  0  0  0
 17 12  1  0  0  0  0
 18 19  1  0  0  0  0
 18 20  1  0  0  0  0
 19 17  1  6  0  0  0
 19 20  1  0  0  0  0
 22 23  1  0  0  0  0
 23 21  1  0  0  0  0
 24 10  1  0  0  0  0
 25 24  1  0  0  0  0
 26 25  1  0  0  0  0
 27 31  1  0  0  0  0
 28 27  2  0  0  0  0
 29 32  1  0  0  0  0
 30 28  1  0  0  0  0
 30 29  2  0  0  0  0
 31 26  1  0  0  0  0
 32 31  2  0  0  0  0
 33 30  1  0  0  0  0
 34 33  2  0  0  0  0
 35 33  1  0  0  0  0
 36 35  1  0  0  0  0
 36 37  1  0  0  0  0
 37 38  1  6  0  0  0
 37 39  1  0  0  0  0
 39 40  1  0  0  0  0
M  END
>  <MODEL>
7

>  <REMARK>
 VINA RESULT:      -8.3      2.128      3.586
  Name = 
  14 active torsions:
  status: ('A' for Active; 'I' for Inactive)
    1  A    between atoms: C_1  and  C_24
    2  A    between atoms: C_1  and  C_35
    3  A    between atoms: O_2  and  C_12
    4  A    between atoms: O_2  and  C_25
    5  A    between atoms: N_7  and  C_32
    6  A    between atoms: C_9  and  C_39
    7  A    between atoms: C_12  and  C_17
    8  A    between atoms: C_13  and  C_15
    9  A    between atoms: C_17  and  C_19
   10  A    between atoms: C_21  and  C_32
   11  A    between atoms: C_23  and  C_24
   12  A    between atoms: C_23  and  C_40
   13  A    between atoms: C_25  and  C_34
   14  A    between atoms: C_32  and  C_39
                            x       y       z     vdW  Elec       q    Type
                         _______ _______ _______ _____ _____    ______ ____

>  <TORSDO>
F 14

$$$$
=
 OpenBabel10222421253D

 40 44  0  0  1  0  0  0  0  0999 V2000
  183.7120  178.2420  139.5330 C   0  0  0  0  0  3  0  0  0  0  0  0
  184.8740  178.5380  140.1570 C   0  0  0  0  0  0  0  0  0  0  0  0
  186.1980  179.1560  142.2950 C   0  0  0  0  0  1  0  0  0  0  0  0
  182.4880  178.5480  141.6690 C   0  0  0  0  0  0  0  0  0  0  0  0
  182.3670  178.1670  140.2280 C   0  0  0  0  0  2  0  0  0  0  0  0
  181.5120  178.6250  142.5630 C   0  0  0  0  0  3  0  0  0  0  0  0
  182.1220  178.9990  143.8540 C   0  0  0  0  0  3  0  0  0  0  0  0
  184.9040  178.8460  141.6160 C   0  0  0  0  0  0  0  0  0  0  0  0
  183.7530  178.8450  142.2920 C   0  0  0  0  0  0  0  0  0  0  0  0
  183.4370  179.1310  143.6860 C   0  0  0  0  0  0  0  0  0  0  0  0
  188.5490  177.9650  139.2090 C   0  0  0  0  0  2  0  0  0  0  0  0
  188.2950  177.2700  137.9410 N   0  0  0  0  0  0  0  0  0  0  0  0
  187.2920  178.0630  137.2170 C   0  0  0  0  0  2  0  0  0  0  0  0
  185.9600  178.0260  137.9600 C   0  0  0  0  0  2  0  0  0  0  0  0
  186.1460  178.6040  139.3630 C   0  0  2  0  0  3  0  0  0  0  0  0
  187.3050  177.9220  140.0900 C   0  0  0  0  0  2  0  0  0  0  0  0
  189.5430  177.2350  137.1560 C   0  0  1  0  0  3  0  0  0  0  0  0
  191.6360  176.1060  137.8420 C   0  0  0  0  0  2  0  0  0  0  0  0
  190.2610  175.8960  137.3340 C   0  0  1  0  0  3  0  0  0  0  0  0
  190.5850  175.7190  138.6930 O   0  0  0  0  0  0  0  0  0  0  0  0
  189.2530  177.3990  135.6600 C   0  0  0  0  0  2  0  0  0  0  0  0
  187.9310  175.5600  134.7660 N   0  0  0  0  0  1  0  0  0  0  0  0
  189.2830  176.0570  134.9510 C   0  0  0  0  0  2  0  0  0  0  0  0
  184.3980  179.4630  144.7800 C   0  0  0  0  0  2  0  0  0  0  0  0
  184.6620  178.2430  145.6530 C   0  0  0  0  0  2  0  0  0  0  0  0
  185.3990  178.6260  146.9280 C   0  0  0  0  0  2  0  0  0  0  0  0
  187.3600  177.6850  145.6850 C   0  0  0  0  0  3  0  0  0  0  0  0
  188.6810  177.2290  145.6510 C   0  0  0  0  0  3  0  0  0  0  0  0
  188.9160  177.7280  148.0070 C   0  0  0  0  0  3  0  0  0  0  0  0
  189.4680  177.2490  146.8110 C   0  0  0  0  0  0  0  0  0  0  0  0
  186.8170  178.1640  146.8800 C   0  0  0  0  0  0  0  0  0  0  0  0
  187.5950  178.1820  148.0430 C   0  0  0  0  0  3  0  0  0  0  0  0
  190.8570  176.7600  146.7710 C   0  0  0  0  0  0  0  0  0  0  0  0
  191.3040  176.0540  147.7170 O   0  0  0  0  0  0  0  0  0  0  0  0
  191.6740  177.0810  145.6820 O   0  0  0  0  0  0  0  0  0  0  0  0
  191.6650  176.3310  144.4730 C   0  0  0  0  0  2  0  0  0  0  0  0
  191.6340  177.2580  143.2660 C   0  0  2  0  0  3  0  0  0  0  0  0
  191.7830  178.5790  143.6820 O   0  0  0  0  0  1  0  0  0  0  0  0
  190.3370  177.1000  142.4830 C   0  0  0  0  0  2  0  0  0  0  0  0
  189.6070  178.2900  142.4920 O   0  0  0  0  0  1  0  0  0  0  0  0
  1  2  2  0  0  0  0
  1  5  1  0  0  0  0
  2  8  1  0  0  0  0
  4  9  1  0  0  0  0
  4  6  2  0  0  0  0
  5  4  1  0  0  0  0
  6  7  1  0  0  0  0
  8  9  2  0  0  0  0
  8  3  1  0  0  0  0
  9 10  1  0  0  0  0
 10  7  2  0  0  0  0
 10 24  1  0  0  0  0
 11 16  1  0  0  0  0
 12 11  1  0  0  0  0
 13 12  1  0  0  0  0
 13 14  1  0  0  0  0
 14 15  1  0  0  0  0
 15 16  1  0  0  0  0
 15  2  1  1  0  0  0
 17 21  1  6  0  0  0
 17 12  1  0  0  0  0
 18 20  1  0  0  0  0
 19 17  1  1  0  0  0
 19 18  1  0  0  0  0
 19 20  1  0  0  0  0
 22 23  1  0  0  0  0
 23 21  1  0  0  0  0
 24 25  1  0  0  0  0
 25 26  1  0  0  0  0
 27 31  1  0  0  0  0
 28 27  2  0  0  0  0
 28 30  1  0  0  0  0
 29 32  1  0  0  0  0
 30 29  2  0  0  0  0
 31 26  1  0  0  0  0
 31 32  2  0  0  0  0
 33 30  1  0  0  0  0
 33 34  2  0  0  0  0
 35 33  1  0  0  0  0
 36 35  1  0  0  0  0
 37 38  1  1  0  0  0
 37 36  1  0  0  0  0
 39 40  1  0  0  0  0
 39 37  1  0  0  0  0
M  END
>  <MODEL>
8

>  <REMARK>
 VINA RESULT:      -8.2      2.607      6.127
  Name = 
  14 active torsions:
  status: ('A' for Active; 'I' for Inactive)
    1  A    between atoms: C_1  and  C_24
    2  A    between atoms: C_1  and  C_35
    3  A    between atoms: O_2  and  C_12
    4  A    between atoms: O_2  and  C_25
    5  A    between atoms: N_7  and  C_32
    6  A    between atoms: C_9  and  C_39
    7  A    between atoms: C_12  and  C_17
    8  A    between atoms: C_13  and  C_15
    9  A    between atoms: C_17  and  C_19
   10  A    between atoms: C_21  and  C_32
   11  A    between atoms: C_23  and  C_24
   12  A    between atoms: C_23  and  C_40
   13  A    between atoms: C_25  and  C_34
   14  A    between atoms: C_32  and  C_39
                            x       y       z     vdW  Elec       q    Type
                         _______ _______ _______ _____ _____    ______ ____

>  <TORSDO>
F 14

$$$$
=
 OpenBabel10222421253D

 40 44  0  0  1  0  0  0  0  0999 V2000
  183.0560  178.9860  143.6380 C   0  0  0  0  0  3  0  0  0  0  0  0
  184.0940  178.6220  142.8510 C   0  0  0  0  0  0  0  0  0  0  0  0
  186.5390  177.8220  142.5620 C   0  0  0  0  0  1  0  0  0  0  0  0
  184.4720  178.6700  145.6500 C   0  0  0  0  0  0  0  0  0  0  0  0
  183.1050  179.0130  145.1530 C   0  0  0  0  0  2  0  0  0  0  0  0
  184.8810  178.6310  146.9110 C   0  0  0  0  0  3  0  0  0  0  0  0
  186.2930  178.2040  146.9060 C   0  0  0  0  0  3  0  0  0  0  0  0
  185.4070  178.2360  143.4440 C   0  0  0  0  0  0  0  0  0  0  0  0
  185.5440  178.2780  144.7710 C   0  0  0  0  0  0  0  0  0  0  0  0
  186.6780  178.0030  145.6460 C   0  0  0  0  0  0  0  0  0  0  0  0
  185.0370  179.0050  139.1510 C   0  0  0  0  0  2  0  0  0  0  0  0
  184.6630  177.6470  138.7350 N   0  0  0  0  0  0  0  0  0  0  0  0
  183.3340  177.3810  139.3020 C   0  0  0  0  0  2  0  0  0  0  0  0
  183.4170  177.3180  140.8240 C   0  0  0  0  0  2  0  0  0  0  0  0
  183.9390  178.6530  141.3580 C   0  0  2  0  0  3  0  0  0  0  0  0
  185.2390  179.0550  140.6610 C   0  0  0  0  0  2  0  0  0  0  0  0
  184.5800  177.6040  137.2640 C   0  0  1  0  0  3  0  0  0  0  0  0
  186.2370  176.3270  135.9400 C   0  0  0  0  0  2  0  0  0  0  0  0
  184.9910  176.2280  136.7350 C   0  0  1  0  0  3  0  0  0  0  0  0
  186.2450  175.8780  137.2730 O   0  0  0  0  0  0  0  0  0  0  0  0
  183.1460  177.8620  136.7890 C   0  0  0  0  0  2  0  0  0  0  0  0
  181.6720  177.4260  134.9000 N   0  0  0  0  0  1  0  0  0  0  0  0
  182.7450  176.8730  135.7080 C   0  0  0  0  0  2  0  0  0  0  0  0
  188.0330  177.5230  145.2440 C   0  0  0  0  0  2  0  0  0  0  0  0
  188.8480  177.1240  146.4670 C   0  0  0  0  0  2  0  0  0  0  0  0
  190.3400  177.2770  146.2100 C   0  0  0  0  0  2  0  0  0  0  0  0
  190.5200  176.0380  144.0420 C   0  0  0  0  0  3  0  0  0  0  0  0
  190.8210  176.0000  142.6770 C   0  0  0  0  0  3  0  0  0  0  0  0
  191.3530  178.3600  142.7260 C   0  0  0  0  0  3  0  0  0  0  0  0
  191.2380  177.1600  142.0100 C   0  0  0  0  0  0  0  0  0  0  0  0
  190.6340  177.2380  144.7490 C   0  0  0  0  0  0  0  0  0  0  0  0
  191.0550  178.3990  144.0910 C   0  0  0  0  0  3  0  0  0  0  0  0
  191.5620  177.1130  140.5740 C   0  0  0  0  0  0  0  0  0  0  0  0
  192.5910  177.7010  140.1400 O   0  0  0  0  0  0  0  0  0  0  0  0
  190.7250  176.4140  139.6970 O   0  0  0  0  0  0  0  0  0  0  0  0
  189.3860  176.8150  139.4350 C   0  0  0  0  0  2  0  0  0  0  0  0
  189.3240  178.3030  139.1160 C   0  0  2  0  0  3  0  0  0  0  0  0
  188.6660  178.9780  140.1420 O   0  0  0  0  0  1  0  0  0  0  0  0
  188.6180  178.5520  137.7900 C   0  0  0  0  0  2  0  0  0  0  0  0
  189.0530  179.7500  137.2180 O   0  0  0  0  0  1  0  0  0  0  0  0
  1  5  1  0  0  0  0
  2  8  1  0  0  0  0
  2  1  2  0  0  0  0
  3  8  1  0  0  0  0
  4  6  2  0  0  0  0
  5  4  1  0  0  0  0
  7  6  1  0  0  0  0
  8  9  2  0  0  0  0
  9 10  1  0  0  0  0
  9  4  1  0  0  0  0
 10  7  2  0  0  0  0
 11 16  1  0  0  0  0
 12 11  1  0  0  0  0
 12 13  1  0  0  0  0
 13 14  1  0  0  0  0
 14 15  1  0  0  0  0
 15  2  1  1  0  0  0
 16 15  1  0  0  0  0
 17 21  1  1  0  0  0
 17 12  1  0  0  0  0
 18 19  1  0  0  0  0
 18 20  1  0  0  0  0
 19 17  1  1  0  0  0
 19 20  1  0  0  0  0
 22 23  1  0  0  0  0
 23 21  1  0  0  0  0
 24 10  1  0  0  0  0
 24 25  1  0  0  0  0
 26 25  1  0  0  0  0
 27 31  1  0  0  0  0
 28 27  2  0  0  0  0
 29 32  1  0  0  0  0
 30 28  1  0  0  0  0
 30 29  2  0  0  0  0
 31 26  1  0  0  0  0
 32 31  2  0  0  0  0
 33 30  1  0  0  0  0
 34 33  2  0  0  0  0
 35 33  1  0  0  0  0
 36 35  1  0  0  0  0
 37 36  1  0  0  0  0
 37 38  1  1  0  0  0
 39 37  1  0  0  0  0
 40 39  1  0  0  0  0
M  END
>  <MODEL>
9

>  <REMARK>
 VINA RESULT:      -8.0      1.514      2.477
  Name = 
  14 active torsions:
  status: ('A' for Active; 'I' for Inactive)
    1  A    between atoms: C_1  and  C_24
    2  A    between atoms: C_1  and  C_35
    3  A    between atoms: O_2  and  C_12
    4  A    between atoms: O_2  and  C_25
    5  A    between atoms: N_7  and  C_32
    6  A    between atoms: C_9  and  C_39
    7  A    between atoms: C_12  and  C_17
    8  A    between atoms: C_13  and  C_15
    9  A    between atoms: C_17  and  C_19
   10  A    between atoms: C_21  and  C_32
   11  A    between atoms: C_23  and  C_24
   12  A    between atoms: C_23  and  C_40
   13  A    between atoms: C_25  and  C_34
   14  A    between atoms: C_32  and  C_39
                            x       y       z     vdW  Elec       q    Type
                         _______ _______ _______ _____ _____    ______ ____

>  <TORSDO>
F 14

$$$$
