=
 OpenBabel10222420563D

 56 60  0  0  1  0  0  0  0  0999 V2000
  188.6980  177.5040  137.6420 O   0  0  0  0  0  0  0  0  0  0  0  0
  188.2750  175.0830  137.3080 C   0  0  1  0  0  3  0  0  0  0  0  0
  189.7650  174.7450  137.1670 C   0  0  2  0  0  3  0  0  0  0  0  0
  186.9370  174.8180  134.9180 C   0  0  1  0  0  3  0  0  0  0  0  0
  189.9830  173.4030  137.4790 O   0  0  0  0  0  1  0  0  0  0  0  0
  188.1140  176.7940  135.4410 C   0  0  1  0  0  3  0  0  0  0  0  0
  187.9280  176.5430  136.9440 C   0  0  2  0  0  3  0  0  0  0  0  0
  188.0250  175.6600  134.5940 O   0  0  0  0  0  0  0  0  0  0  0  0
  190.7030  175.6110  138.0420 C   0  0  2  0  0  3  0  0  0  0  0  0
  188.8020  177.1290  138.9910 C   0  0  0  0  0  2  0  0  0  0  0  0
  190.1180  176.3790  139.2480 C   0  0  0  0  0  2  0  0  0  0  0  0
  187.1790  173.8840  136.4690 S   0  0  0  0  0  0  0  0  0  0  0  0
  184.4140  174.8190  134.8590 C   0  0  0  0  0  0  0  0  0  0  0  0
  185.6590  175.5180  134.9080 N   0  0  0  0  0  2  0  0  0  0  0  0
  184.3830  173.5750  134.6640 O   0  0  0  0  0  0  0  0  0  0  0  0
  183.1400  175.5640  135.0710 C   0  0  0  0  0  2  0  0  0  0  0  0
  182.6020  175.5140  138.8190 C   0  0  0  0  0  3  0  0  0  0  0  0
  182.7800  176.8660  139.1460 C   0  0  0  0  0  0  0  0  0  0  0  0
  182.7270  175.0890  137.4940 C   0  0  0  0  0  3  0  0  0  0  0  0
  183.1010  177.7850  138.1400 C   0  0  0  0  0  3  0  0  0  0  0  0
  183.2280  177.3590  136.8140 C   0  0  0  0  0  3  0  0  0  0  0  0
  183.0430  176.0110  136.4900 C   0  0  0  0  0  0  0  0  0  0  0  0
  182.6640  177.3490  140.5590 C   0  0  2  0  0  3  0  0  0  0  0  0
  181.2530  179.3520  140.7640 N   0  0  0  0  0  0  0  0  0  0  0  0
  179.1340  178.3620  141.1110 C   0  0  0  0  0  3  0  0  0  0  0  0
  180.1700  177.4110  140.9540 O   0  0  0  0  0  0  0  0  0  0  0  0
  181.3640  178.0700  140.7720 C   0  0  0  0  0  0  0  0  0  0  0  0
  179.8540  179.7060  140.9650 C   0  0  0  0  0  3  0  0  0  0  0  0
  183.8720  178.1890  140.9590 C   0  0  0  0  0  2  0  0  0  0  0  0
  183.6830  178.7690  142.3510 C   0  0  0  0  0  2  0  0  0  0  0  0
  184.7740  178.2660  143.2810 C   0  0  0  0  0  2  0  0  0  0  0  0
  185.6340  178.5830  145.5480 N   0  0  0  0  0  1  0  0  0  0  0  0
  185.0520  179.2580  144.4030 C   0  0  0  0  0  2  0  0  0  0  0  0
  191.9570  175.9450  135.8390 C   0  0  0  0  0  1  0  0  0  0  0  0
  191.7990  176.3790  137.2910 C   0  0  2  0  0  3  0  0  0  0  0  0
  193.1350  176.3660  138.0360 C   0  0  1  0  0  3  0  0  0  0  0  0
  194.2050  176.4800  137.1350 O   0  0  0  0  0  1  0  0  0  0  0  0
  193.1690  177.4580  139.0060 N   0  0  0  0  0  2  0  0  0  0  0  0
  193.4210  176.9020  140.3270 C   0  0  0  0  0  2  0  0  0  0  0  0
  192.5570  177.5870  141.3750 C   0  0  0  0  0  2  0  0  0  0  0  0
  191.3030  176.9670  141.4890 O   0  0  0  0  0  0  0  0  0  0  0  0
  188.9430  177.3040  144.4310 C   0  0  0  0  0  0  0  0  0  0  0  0
  188.8360  175.9680  142.4520 O   0  0  0  0  0  1  0  0  0  0  0  0
  191.6190  175.9370  143.6590 C   0  0  0  0  0  2  0  0  0  0  0  0
  189.5700  178.3020  145.3790 C   0  0  0  0  0  2  0  0  0  0  0  0
  191.7010  176.8680  145.7410 C   0  0  1  0  0  3  0  0  0  0  0  0
  188.8760  178.3220  142.1970 C   0  0  0  0  0  1  0  0  0  0  0  0
  187.9990  176.6470  144.8440 O   0  0  0  0  0  0  0  0  0  0  0  0
  191.1170  175.8460  144.9690 O   0  0  0  0  0  0  0  0  0  0  0  0
  191.1010  178.2540  145.4360 C   0  0  0  0  0  2  0  0  0  0  0  0
  189.3970  177.1330  142.9870 C   0  0  1  0  0  0  0  0  0  0  0  0
  190.9350  177.0600  142.8410 C   0  0  2  0  0  3  0  0  0  0  0  0
  191.5330  176.5790  147.0930 O   0  0  0  0  0  1  0  0  0  0  0  0
  187.2950  177.9790  134.9400 C   0  0  0  0  0  2  0  0  0  0  0  0
  186.6460  178.7150  136.0990 C   0  0  0  0  0  2  0  0  0  0  0  0
  187.4490  179.7900  136.4890 O   0  0  0  0  0  1  0  0  0  0  0  0
  1 10  1  0  0  0  0
  2 12  1  6  0  0  0
  3  2  1  0  0  0  0
  3  5  1  1  0  0  0
  3  9  1  0  0  0  0
  4 14  1  1  0  0  0
  4 12  1  0  0  0  0
  6 54  1  6  0  0  0
  6  7  1  0  0  0  0
  7  2  1  0  0  0  0
  7  1  1  1  0  0  0
  8  4  1  0  0  0  0
  8  6  1  0  0  0  0
  9 35  1  6  0  0  0
  9 11  1  0  0  0  0
 10 11  1  0  0  0  0
 13 14  1  0  0  0  0
 13 16  1  0  0  0  0
 15 13  2  0  0  0  0
 16 22  1  0  0  0  0
 17 18  1  0  0  0  0
 18 23  1  0  0  0  0
 19 17  2  0  0  0  0
 20 18  2  0  0  0  0
 21 20  1  0  0  0  0
 22 21  2  0  0  0  0
 22 19  1  0  0  0  0
 23 27  1  0  0  0  0
 23 29  1  6  0  0  0
 24 27  2  0  0  0  0
 24 28  1  0  0  0  0
 26 25  1  0  0  0  0
 27 26  1  0  0  0  0
 28 25  2  0  0  0  0
 29 30  1  0  0  0  0
 30 31  1  0  0  0  0
 31 33  1  0  0  0  0
 33 32  1  0  0  0  0
 35 34  1  6  0  0  0
 35 36  1  0  0  0  0
 36 37  1  6  0  0  0
 36 38  1  0  0  0  0
 38 39  1  0  0  0  0
 39 40  1  0  0  0  0
 40 41  1  0  0  0  0
 42 48  2  0  0  0  0
 42 45  1  0  0  0  0
 43 51  1  0  0  0  0
 44 49  1  0  0  0  0
 45 50  1  0  0  0  0
 46 53  1  1  0  0  0
 49 46  1  0  0  0  0
 50 46  1  0  0  0  0
 51 47  1  6  0  0  0
 51 42  1  0  0  0  0
 52 41  1  6  0  0  0
 52 51  1  0  0  0  0
 52 44  1  0  0  0  0
 54 55  1  0  0  0  0
 55 56  1  0  0  0  0
M  END
>  <MODEL>
1

>  <REMARK>
 VINA RESULT:      -6.6      0.000      0.000
  Name = 
  18 active torsions:
  status: ('A' for Active; 'I' for Inactive)
    1  A    between atoms: C_5  and  C_31
    2  A    between atoms: N_7  and  C_29
    3  A    between atoms: C_11  and  C_27
    4  A    between atoms: C_12  and  C_33
    5  A    between atoms: C_12  and  N_50
    6  A    between atoms: C_16  and  N_50
    7  A    between atoms: C_16  and  C_53
    8  A    between atoms: C_19  and  C_22
    9  A    between atoms: C_19  and  C_38
   10  A    between atoms: C_22  and  C_37
   11  A    between atoms: C_25  and  C_37
   12  A    between atoms: C_27  and  C_41
   13  A    between atoms: C_31  and  C_52
   14  A    between atoms: C_32  and  C_37
   15  A    between atoms: C_33  and  C_46
   16  A    between atoms: C_38  and  C_42
   17  A    between atoms: C_47  and  O_56
   18  A    between atoms: C_53  and  O_56
                            x       y       z     vdW  Elec       q    Type
                         _______ _______ _______ _____ _____    ______ ____

>  <TORSDO>
F 18

$$$$
=
 OpenBabel10222420563D

 56 60  0  0  1  0  0  0  0  0999 V2000
  189.6010  178.1090  143.7670 O   0  0  0  0  0  0  0  0  0  0  0  0
  188.4680  178.3670  145.9590 C   0  0  1  0  0  3  0  0  0  0  0  0
  189.2920  177.2550  146.6230 C   0  0  2  0  0  3  0  0  0  0  0  0
  185.8430  177.6210  145.6070 C   0  0  1  0  0  3  0  0  0  0  0  0
  189.3140  177.4360  148.0060 O   0  0  0  0  0  1  0  0  0  0  0  0
  187.5030  177.0090  144.0460 C   0  0  1  0  0  3  0  0  0  0  0  0
  188.3530  178.2290  144.4250 C   0  0  2  0  0  3  0  0  0  0  0  0
  186.5680  176.5610  145.0150 O   0  0  0  0  0  0  0  0  0  0  0  0
  190.7510  177.1520  146.1170 C   0  0  2  0  0  3  0  0  0  0  0  0
  190.5090  179.0280  144.3170 C   0  0  0  0  0  2  0  0  0  0  0  0
  191.3850  178.3550  145.3840 C   0  0  0  0  0  2  0  0  0  0  0  0
  186.8420  178.6330  146.7520 S   0  0  0  0  0  0  0  0  0  0  0  0
  183.8700  179.0220  144.8920 C   0  0  0  0  0  0  0  0  0  0  0  0
  185.1510  178.4470  144.6260 N   0  0  0  0  0  2  0  0  0  0  0  0
  183.2250  178.7060  145.9270 O   0  0  0  0  0  0  0  0  0  0  0  0
  183.3040  180.0310  143.9510 C   0  0  0  0  0  2  0  0  0  0  0  0
  180.1390  178.7320  142.3280 C   0  0  0  0  0  3  0  0  0  0  0  0
  180.6550  178.0420  141.2200 C   0  0  0  0  0  0  0  0  0  0  0  0
  181.0010  179.3870  143.2120 C   0  0  0  0  0  3  0  0  0  0  0  0
  182.0370  178.0270  140.9970 C   0  0  0  0  0  3  0  0  0  0  0  0
  182.8990  178.6840  141.8810 C   0  0  0  0  0  3  0  0  0  0  0  0
  182.3820  179.3650  142.9880 C   0  0  0  0  0  0  0  0  0  0  0  0
  179.7560  177.3420  140.2490 C   0  0  2  0  0  3  0  0  0  0  0  0
  180.1170  174.9490  139.8180 N   0  0  0  0  0  0  0  0  0  0  0  0
  179.1520  174.0030  141.7580 C   0  0  0  0  0  3  0  0  0  0  0  0
  179.0840  175.4170  141.7390 O   0  0  0  0  0  0  0  0  0  0  0  0
  179.6530  175.8800  140.5750 C   0  0  0  0  0  0  0  0  0  0  0  0
  179.8770  173.6600  140.4540 C   0  0  0  0  0  3  0  0  0  0  0  0
  180.1920  177.5920  138.8100 C   0  0  0  0  0  2  0  0  0  0  0  0
  179.6720  178.9330  138.3200 C   0  0  0  0  0  2  0  0  0  0  0  0
  180.8300  179.8260  137.9090 C   0  0  0  0  0  2  0  0  0  0  0  0
  181.3360  182.2060  138.1670 N   0  0  0  0  0  1  0  0  0  0  0  0
  181.0140  180.9840  138.8820 C   0  0  0  0  0  2  0  0  0  0  0  0
  191.9390  174.9270  146.5400 C   0  0  0  0  0  1  0  0  0  0  0  0
  191.1680  175.7900  145.5480 C   0  0  2  0  0  3  0  0  0  0  0  0
  191.9040  175.9160  144.2130 C   0  0  1  0  0  3  0  0  0  0  0  0
  192.7340  174.8040  143.9990 O   0  0  0  0  0  1  0  0  0  0  0  0
  190.9360  176.0440  143.1260 N   0  0  0  0  0  2  0  0  0  0  0  0
  191.5780  176.7190  142.0070 C   0  0  0  0  0  2  0  0  0  0  0  0
  190.6210  176.8380  140.8290 C   0  0  0  0  0  2  0  0  0  0  0  0
  191.2980  176.7110  139.6060 O   0  0  0  0  0  0  0  0  0  0  0  0
  189.5890  176.1930  136.2670 C   0  0  0  0  0  0  0  0  0  0  0  0
  190.4180  174.6430  137.8880 O   0  0  0  0  0  1  0  0  0  0  0  0
  188.9190  176.9270  139.2060 C   0  0  0  0  0  2  0  0  0  0  0  0
  189.2930  177.5680  135.7130 C   0  0  0  0  0  2  0  0  0  0  0  0
  187.7820  178.2290  137.7150 C   0  0  1  0  0  3  0  0  0  0  0  0
  191.9670  176.1230  136.8790 C   0  0  0  0  0  1  0  0  0  0  0  0
  189.0590  175.2360  135.7220 O   0  0  0  0  0  0  0  0  0  0  0  0
  187.9160  176.9210  138.2190 O   0  0  0  0  0  0  0  0  0  0  0  0
  188.9340  178.6190  136.7690 C   0  0  0  0  0  2  0  0  0  0  0  0
  190.5560  175.9540  137.4190 C   0  0  1  0  0  0  0  0  0  0  0  0
  190.3440  176.9310  138.6000 C   0  0  2  0  0  3  0  0  0  0  0  0
  186.5700  178.3390  137.0360 O   0  0  0  0  0  1  0  0  0  0  0  0
  186.9030  177.1240  142.6480 C   0  0  0  0  0  2  0  0  0  0  0  0
  187.0920  178.5270  142.0950 C   0  0  0  0  0  2  0  0  0  0  0  0
  186.3640  178.6730  140.9120 O   0  0  0  0  0  1  0  0  0  0  0  0
  1 10  1  0  0  0  0
  2  3  1  0  0  0  0
  2 12  1  1  0  0  0
  3  5  1  1  0  0  0
  4 14  1  6  0  0  0
  4 12  1  0  0  0  0
  6 54  1  6  0  0  0
  6  7  1  0  0  0  0
  6  8  1  0  0  0  0
  7  1  1  6  0  0  0
  7  2  1  0  0  0  0
  8  4  1  0  0  0  0
  9 35  1  6  0  0  0
  9  3  1  0  0  0  0
 10 11  1  0  0  0  0
 11  9  1  0  0  0  0
 13 15  2  0  0  0  0
 14 13  1  0  0  0  0
 16 13  1  0  0  0  0
 17 19  1  0  0  0  0
 18 17  2  0  0  0  0
 20 18  1  0  0  0  0
 20 21  2  0  0  0  0
 21 22  1  0  0  0  0
 22 19  2  0  0  0  0
 22 16  1  0  0  0  0
 23 29  1  6  0  0  0
 23 27  1  0  0  0  0
 23 18  1  0  0  0  0
 24 28  1  0  0  0  0
 24 27  2  0  0  0  0
 26 25  1  0  0  0  0
 27 26  1  0  0  0  0
 28 25  2  0  0  0  0
 30 29  1  0  0  0  0
 31 30  1  0  0  0  0
 31 33  1  0  0  0  0
 32 33  1  0  0  0  0
 35 34  1  1  0  0  0
 36 37  1  6  0  0  0
 36 35  1  0  0  0  0
 38 36  1  0  0  0  0
 39 38  1  0  0  0  0
 40 39  1  0  0  0  0
 41 40  1  0  0  0  0
 42 51  1  0  0  0  0
 45 42  1  0  0  0  0
 45 50  1  0  0  0  0
 46 53  1  6  0  0  0
 46 49  1  0  0  0  0
 48 42  2  0  0  0  0
 49 44  1  0  0  0  0
 50 46  1  0  0  0  0
 51 47  1  6  0  0  0
 51 43  1  0  0  0  0
 51 52  1  0  0  0  0
 52 44  1  0  0  0  0
 52 41  1  1  0  0  0
 55 54  1  0  0  0  0
 56 55  1  0  0  0  0
M  END
>  <MODEL>
2

>  <REMARK>
 VINA RESULT:      -6.2      2.991      7.512
  Name = 
  18 active torsions:
  status: ('A' for Active; 'I' for Inactive)
    1  A    between atoms: C_5  and  C_31
    2  A    between atoms: N_7  and  C_29
    3  A    between atoms: C_11  and  C_27
    4  A    between atoms: C_12  and  C_33
    5  A    between atoms: C_12  and  N_50
    6  A    between atoms: C_16  and  N_50
    7  A    between atoms: C_16  and  C_53
    8  A    between atoms: C_19  and  C_22
    9  A    between atoms: C_19  and  C_38
   10  A    between atoms: C_22  and  C_37
   11  A    between atoms: C_25  and  C_37
   12  A    between atoms: C_27  and  C_41
   13  A    between atoms: C_31  and  C_52
   14  A    between atoms: C_32  and  C_37
   15  A    between atoms: C_33  and  C_46
   16  A    between atoms: C_38  and  C_42
   17  A    between atoms: C_47  and  O_56
   18  A    between atoms: C_53  and  O_56
                            x       y       z     vdW  Elec       q    Type
                         _______ _______ _______ _____ _____    ______ ____

>  <TORSDO>
F 18

$$$$
=
 OpenBabel10222420563D

 56 60  0  0  1  0  0  0  0  0999 V2000
  189.6300  174.5030  137.7200 O   0  0  0  0  0  0  0  0  0  0  0  0
  188.8190  176.5270  136.5370 C   0  0  1  0  0  3  0  0  0  0  0  0
  190.1270  176.7100  135.7560 C   0  0  2  0  0  3  0  0  0  0  0  0
  188.4780  178.4910  138.4340 C   0  0  1  0  0  3  0  0  0  0  0  0
  189.8910  177.4450  134.5940 O   0  0  0  0  0  1  0  0  0  0  0  0
  189.7880  176.5800  138.8820 C   0  0  1  0  0  3  0  0  0  0  0  0
  188.9870  175.7550  137.8650 C   0  0  2  0  0  3  0  0  0  0  0  0
  189.7710  177.9890  138.7090 O   0  0  0  0  0  0  0  0  0  0  0  0
  190.8300  175.3880  135.3670 C   0  0  2  0  0  3  0  0  0  0  0  0
  189.1190  173.8420  136.5920 C   0  0  0  0  0  2  0  0  0  0  0  0
  190.0230  174.0710  135.3710 C   0  0  0  0  0  2  0  0  0  0  0  0
  187.8840  178.0830  136.7560 S   0  0  0  0  0  0  0  0  0  0  0  0
  187.4570  178.7780  140.7230 C   0  0  0  0  0  0  0  0  0  0  0  0
  187.5030  178.1260  139.4520 N   0  0  0  0  0  2  0  0  0  0  0  0
  188.3620  179.5850  141.0650 O   0  0  0  0  0  0  0  0  0  0  0  0
  186.3110  178.5240  141.6430 C   0  0  0  0  0  2  0  0  0  0  0  0
  183.8260  179.3770  138.9160 C   0  0  0  0  0  3  0  0  0  0  0  0
  182.6050  179.2050  139.5850 C   0  0  0  0  0  0  0  0  0  0  0  0
  185.0320  179.1470  139.5830 C   0  0  0  0  0  3  0  0  0  0  0  0
  182.6010  178.7860  140.9210 C   0  0  0  0  0  3  0  0  0  0  0  0
  183.8080  178.5540  141.5880 C   0  0  0  0  0  3  0  0  0  0  0  0
  185.0250  178.7330  140.9190 C   0  0  0  0  0  0  0  0  0  0  0  0
  181.2960  179.4320  138.8930 C   0  0  2  0  0  3  0  0  0  0  0  0
  180.5940  177.9370  137.0720 N   0  0  0  0  0  0  0  0  0  0  0  0
  179.9780  176.0120  138.2990 C   0  0  0  0  0  3  0  0  0  0  0  0
  180.4390  177.0680  139.1210 O   0  0  0  0  0  0  0  0  0  0  0  0
  180.7610  178.1480  138.3310 C   0  0  0  0  0  0  0  0  0  0  0  0
  180.0950  176.5820  136.8820 C   0  0  0  0  0  3  0  0  0  0  0  0
  181.4090  180.5300  137.8410 C   0  0  0  0  0  2  0  0  0  0  0  0
  180.7360  181.8040  138.3240 C   0  0  0  0  0  2  0  0  0  0  0  0
  180.4450  182.7210  137.1480 C   0  0  0  0  0  2  0  0  0  0  0  0
  182.0490  184.5510  137.3970 N   0  0  0  0  0  1  0  0  0  0  0  0
  180.6500  184.1850  137.5180 C   0  0  0  0  0  2  0  0  0  0  0  0
  192.5720  173.8510  136.4360 C   0  0  0  0  0  1  0  0  0  0  0  0
  192.2760  175.2290  135.8550 C   0  0  2  0  0  3  0  0  0  0  0  0
  192.6960  176.3490  136.8080 C   0  0  1  0  0  3  0  0  0  0  0  0
  192.7060  175.8920  138.1350 O   0  0  0  0  0  1  0  0  0  0  0  0
  194.0170  176.8460  136.4320 N   0  0  0  0  0  2  0  0  0  0  0  0
  194.3710  176.2960  135.1320 C   0  0  0  0  0  2  0  0  0  0  0  0
  195.8810  176.2790  134.9460 C   0  0  0  0  0  2  0  0  0  0  0  0
  196.3550  174.9750  134.7290 O   0  0  0  0  0  0  0  0  0  0  0  0
  196.6450  172.1140  137.1910 C   0  0  0  0  0  0  0  0  0  0  0  0
  197.8170  172.5920  135.1640 O   0  0  0  0  0  1  0  0  0  0  0  0
  197.4890  175.0810  136.8660 C   0  0  0  0  0  2  0  0  0  0  0  0
  195.6370  172.3800  138.2870 C   0  0  0  0  0  2  0  0  0  0  0  0
  196.7260  174.6320  138.9700 C   0  0  1  0  0  3  0  0  0  0  0  0
  195.4760  172.2630  135.0370 C   0  0  0  0  0  1  0  0  0  0  0  0
  197.4790  171.2420  137.3880 O   0  0  0  0  0  0  0  0  0  0  0  0
  197.7660  174.3810  138.0540 O   0  0  0  0  0  0  0  0  0  0  0  0
  195.4370  173.8610  138.6270 C   0  0  0  0  0  2  0  0  0  0  0  0
  196.6240  172.8370  135.8510 C   0  0  1  0  0  0  0  0  0  0  0  0
  196.4320  174.3660  135.9910 C   0  0  2  0  0  3  0  0  0  0  0  0
  197.1460  174.2820  140.2520 O   0  0  0  0  0  1  0  0  0  0  0  0
  189.5230  176.1520  140.3220 C   0  0  0  0  0  2  0  0  0  0  0  0
  190.5570  176.7500  141.2600 C   0  0  0  0  0  2  0  0  0  0  0  0
  189.9790  176.9990  142.5070 O   0  0  0  0  0  1  0  0  0  0  0  0
  2 12  1  1  0  0  0
  2  7  1  0  0  0  0
  3  5  1  6  0  0  0
  3  2  1  0  0  0  0
  4  8  1  0  0  0  0
  4 14  1  1  0  0  0
  6 54  1  1  0  0  0
  7  1  1  6  0  0  0
  7  6  1  0  0  0  0
  8  6  1  0  0  0  0
  9 11  1  0  0  0  0
  9  3  1  0  0  0  0
  9 35  1  1  0  0  0
 10  1  1  0  0  0  0
 11 10  1  0  0  0  0
 12  4  1  0  0  0  0
 13 15  2  0  0  0  0
 13 16  1  0  0  0  0
 14 13  1  0  0  0  0
 17 19  2  0  0  0  0
 17 18  1  0  0  0  0
 18 20  2  0  0  0  0
 19 22  1  0  0  0  0
 20 21  1  0  0  0  0
 22 21  2  0  0  0  0
 22 16  1  0  0  0  0
 23 29  1  6  0  0  0
 23 18  1  0  0  0  0
 24 27  2  0  0  0  0
 25 26  1  0  0  0  0
 27 23  1  0  0  0  0
 27 26  1  0  0  0  0
 28 24  1  0  0  0  0
 28 25  2  0  0  0  0
 29 30  1  0  0  0  0
 31 33  1  0  0  0  0
 31 30  1  0  0  0  0
 32 33  1  0  0  0  0
 35 34  1  1  0  0  0
 35 36  1  0  0  0  0
 36 37  1  1  0  0  0
 38 36  1  0  0  0  0
 39 38  1  0  0  0  0
 40 39  1  0  0  0  0
 41 40  1  0  0  0  0
 42 48  2  0  0  0  0
 42 45  1  0  0  0  0
 43 51  1  0  0  0  0
 44 49  1  0  0  0  0
 45 50  1  0  0  0  0
 46 53  1  1  0  0  0
 49 46  1  0  0  0  0
 50 46  1  0  0  0  0
 51 47  1  6  0  0  0
 51 52  1  0  0  0  0
 51 42  1  0  0  0  0
 52 41  1  6  0  0  0
 52 44  1  0  0  0  0
 54 55  1  0  0  0  0
 55 56  1  0  0  0  0
M  END
>  <MODEL>
3

>  <REMARK>
 VINA RESULT:      -5.8      3.361      6.812
  Name = 
  18 active torsions:
  status: ('A' for Active; 'I' for Inactive)
    1  A    between atoms: C_5  and  C_31
    2  A    between atoms: N_7  and  C_29
    3  A    between atoms: C_11  and  C_27
    4  A    between atoms: C_12  and  C_33
    5  A    between atoms: C_12  and  N_50
    6  A    between atoms: C_16  and  N_50
    7  A    between atoms: C_16  and  C_53
    8  A    between atoms: C_19  and  C_22
    9  A    between atoms: C_19  and  C_38
   10  A    between atoms: C_22  and  C_37
   11  A    between atoms: C_25  and  C_37
   12  A    between atoms: C_27  and  C_41
   13  A    between atoms: C_31  and  C_52
   14  A    between atoms: C_32  and  C_37
   15  A    between atoms: C_33  and  C_46
   16  A    between atoms: C_38  and  C_42
   17  A    between atoms: C_47  and  O_56
   18  A    between atoms: C_53  and  O_56
                            x       y       z     vdW  Elec       q    Type
                         _______ _______ _______ _____ _____    ______ ____

>  <TORSDO>
F 18

$$$$
=
 OpenBabel10222420563D

 56 60  0  0  1  0  0  0  0  0999 V2000
  189.5120  178.3090  143.5400 O   0  0  0  0  0  0  0  0  0  0  0  0
  188.5280  178.4290  145.8140 C   0  0  1  0  0  3  0  0  0  0  0  0
  189.3570  177.2480  146.3380 C   0  0  2  0  0  3  0  0  0  0  0  0
  185.8640  177.7820  145.5790 C   0  0  1  0  0  3  0  0  0  0  0  0
  189.4720  177.3230  147.7260 O   0  0  0  0  0  1  0  0  0  0  0  0
  187.4020  177.2470  143.8720 C   0  0  1  0  0  3  0  0  0  0  0  0
  188.3130  178.4120  144.2850 C   0  0  2  0  0  3  0  0  0  0  0  0
  186.5170  176.7520  144.8640 O   0  0  0  0  0  0  0  0  0  0  0  0
  190.7780  177.1450  145.7320 C   0  0  2  0  0  3  0  0  0  0  0  0
  190.4820  179.1590  144.0960 C   0  0  0  0  0  2  0  0  0  0  0  0
  191.4020  178.3830  145.0510 C   0  0  0  0  0  2  0  0  0  0  0  0
  186.9650  178.6770  146.7290 S   0  0  0  0  0  0  0  0  0  0  0  0
  183.7140  178.8090  144.7500 C   0  0  0  0  0  0  0  0  0  0  0  0
  185.1380  178.6990  144.7100 N   0  0  0  0  0  2  0  0  0  0  0  0
  183.0250  178.0020  145.4300 O   0  0  0  0  0  0  0  0  0  0  0  0
  183.0370  179.9090  144.0040 C   0  0  0  0  0  2  0  0  0  0  0  0
  179.9710  178.9650  141.9910 C   0  0  0  0  0  3  0  0  0  0  0  0
  180.5370  178.1930  140.9650 C   0  0  0  0  0  0  0  0  0  0  0  0
  180.7870  179.5300  142.9760 C   0  0  0  0  0  3  0  0  0  0  0  0
  181.9240  178.0070  140.9230 C   0  0  0  0  0  3  0  0  0  0  0  0
  182.7390  178.5740  141.9060 C   0  0  0  0  0  3  0  0  0  0  0  0
  182.1720  179.3380  142.9330 C   0  0  0  0  0  0  0  0  0  0  0  0
  179.6900  177.5850  139.8890 C   0  0  2  0  0  3  0  0  0  0  0  0
  179.7610  175.2040  139.2800 N   0  0  0  0  0  0  0  0  0  0  0  0
  178.9310  174.2200  141.2640 C   0  0  0  0  0  3  0  0  0  0  0  0
  179.0030  175.6320  141.3350 O   0  0  0  0  0  0  0  0  0  0  0  0
  179.4800  176.1200  140.1400 C   0  0  0  0  0  0  0  0  0  0  0  0
  179.4680  173.9020  139.8650 C   0  0  0  0  0  3  0  0  0  0  0  0
  180.2650  177.8670  138.5060 C   0  0  0  0  0  2  0  0  0  0  0  0
  180.0880  179.3310  138.1420 C   0  0  0  0  0  2  0  0  0  0  0  0
  181.2000  179.7770  137.2070 C   0  0  0  0  0  2  0  0  0  0  0  0
  181.8310  178.3210  135.3460 N   0  0  0  0  0  1  0  0  0  0  0  0
  180.9170  179.3650  135.7680 C   0  0  0  0  0  2  0  0  0  0  0  0
  192.0410  174.9250  145.8520 C   0  0  0  0  0  1  0  0  0  0  0  0
  191.1150  175.8200  145.0370 C   0  0  2  0  0  3  0  0  0  0  0  0
  191.6320  176.0240  143.6110 C   0  0  1  0  0  3  0  0  0  0  0  0
  192.7220  175.1780  143.3550 O   0  0  0  0  0  1  0  0  0  0  0  0
  190.5560  175.7690  142.6560 N   0  0  0  0  0  2  0  0  0  0  0  0
  190.8230  176.5240  141.4400 C   0  0  0  0  0  2  0  0  0  0  0  0
  189.5910  176.5630  140.5480 C   0  0  0  0  0  2  0  0  0  0  0  0
  189.6510  177.6310  139.6390 O   0  0  0  0  0  0  0  0  0  0  0  0
  188.0790  177.3420  136.2060 C   0  0  0  0  0  0  0  0  0  0  0  0
  188.9230  179.2230  137.4160 O   0  0  0  0  0  1  0  0  0  0  0  0
  190.7790  176.8360  137.6480 C   0  0  0  0  0  2  0  0  0  0  0  0
  187.7620  175.8790  135.9950 C   0  0  0  0  0  2  0  0  0  0  0  0
  190.2380  175.1400  136.2180 C   0  0  1  0  0  3  0  0  0  0  0  0
  187.1140  178.0220  138.3600 C   0  0  0  0  0  1  0  0  0  0  0  0
  188.0150  178.0820  135.2350 O   0  0  0  0  0  0  0  0  0  0  0  0
  190.6120  176.4960  136.2930 O   0  0  0  0  0  0  0  0  0  0  0  0
  188.7690  174.9090  136.6230 C   0  0  0  0  0  2  0  0  0  0  0  0
  188.4100  177.9310  137.5720 C   0  0  1  0  0  0  0  0  0  0  0  0
  189.4300  177.0810  138.3660 C   0  0  2  0  0  3  0  0  0  0  0  0
  190.4370  174.6780  134.9190 O   0  0  0  0  0  1  0  0  0  0  0  0
  186.7200  177.4850  142.5290 C   0  0  0  0  0  2  0  0  0  0  0  0
  187.1180  178.8340  141.9540 C   0  0  0  0  0  2  0  0  0  0  0  0
  185.9980  179.4680  141.4110 O   0  0  0  0  0  1  0  0  0  0  0  0
  1 10  1  0  0  0  0
  2  3  1  0  0  0  0
  2 12  1  1  0  0  0
  3  5  1  1  0  0  0
  4 14  1  6  0  0  0
  4 12  1  0  0  0  0
  6 54  1  6  0  0  0
  6  7  1  0  0  0  0
  6  8  1  0  0  0  0
  7  1  1  6  0  0  0
  7  2  1  0  0  0  0
  8  4  1  0  0  0  0
  9 35  1  6  0  0  0
  9  3  1  0  0  0  0
 10 11  1  0  0  0  0
 11  9  1  0  0  0  0
 13 15  2  0  0  0  0
 14 13  1  0  0  0  0
 16 13  1  0  0  0  0
 17 19  1  0  0  0  0
 18 17  2  0  0  0  0
 20 18  1  0  0  0  0
 20 21  2  0  0  0  0
 21 22  1  0  0  0  0
 22 19  2  0  0  0  0
 22 16  1  0  0  0  0
 23 29  1  6  0  0  0
 23 27  1  0  0  0  0
 23 18  1  0  0  0  0
 24 28  1  0  0  0  0
 24 27  2  0  0  0  0
 25 26  1  0  0  0  0
 27 26  1  0  0  0  0
 28 25  2  0  0  0  0
 30 29  1  0  0  0  0
 31 30  1  0  0  0  0
 32 33  1  0  0  0  0
 33 31  1  0  0  0  0
 35 34  1  1  0  0  0
 36 37  1  6  0  0  0
 36 35  1  0  0  0  0
 38 36  1  0  0  0  0
 39 38  1  0  0  0  0
 40 39  1  0  0  0  0
 41 40  1  0  0  0  0
 42 51  1  0  0  0  0
 43 51  1  0  0  0  0
 44 52  1  0  0  0  0
 45 42  1  0  0  0  0
 45 50  1  0  0  0  0
 46 53  1  6  0  0  0
 46 49  1  0  0  0  0
 46 50  1  0  0  0  0
 48 42  2  0  0  0  0
 49 44  1  0  0  0  0
 51 47  1  1  0  0  0
 51 52  1  0  0  0  0
 52 41  1  1  0  0  0
 55 54  1  0  0  0  0
 56 55  1  0  0  0  0
M  END
>  <MODEL>
4

>  <REMARK>
 VINA RESULT:      -5.6      2.879      7.597
  Name = 
  18 active torsions:
  status: ('A' for Active; 'I' for Inactive)
    1  A    between atoms: C_5  and  C_31
    2  A    between atoms: N_7  and  C_29
    3  A    between atoms: C_11  and  C_27
    4  A    between atoms: C_12  and  C_33
    5  A    between atoms: C_12  and  N_50
    6  A    between atoms: C_16  and  N_50
    7  A    between atoms: C_16  and  C_53
    8  A    between atoms: C_19  and  C_22
    9  A    between atoms: C_19  and  C_38
   10  A    between atoms: C_22  and  C_37
   11  A    between atoms: C_25  and  C_37
   12  A    between atoms: C_27  and  C_41
   13  A    between atoms: C_31  and  C_52
   14  A    between atoms: C_32  and  C_37
   15  A    between atoms: C_33  and  C_46
   16  A    between atoms: C_38  and  C_42
   17  A    between atoms: C_47  and  O_56
   18  A    between atoms: C_53  and  O_56
                            x       y       z     vdW  Elec       q    Type
                         _______ _______ _______ _____ _____    ______ ____

>  <TORSDO>
F 18

$$$$
=
 OpenBabel10222420563D

 56 60  0  0  1  0  0  0  0  0999 V2000
  188.7250  176.3490  142.2810 O   0  0  0  0  0  0  0  0  0  0  0  0
  190.2920  176.7790  140.4060 C   0  0  1  0  0  3  0  0  0  0  0  0
  191.2290  177.6420  141.2630 C   0  0  2  0  0  3  0  0  0  0  0  0
  188.9340  178.2820  138.5440 C   0  0  1  0  0  3  0  0  0  0  0  0
  192.5080  177.6560  140.7060 O   0  0  0  0  0  1  0  0  0  0  0  0
  188.1550  178.0990  140.7640 C   0  0  1  0  0  3  0  0  0  0  0  0
  188.8370  176.7330  140.9240 C   0  0  2  0  0  3  0  0  0  0  0  0
  188.6780  178.9560  139.7610 O   0  0  0  0  0  0  0  0  0  0  0  0
  191.3400  177.1940  142.7400 C   0  0  2  0  0  3  0  0  0  0  0  0
  189.5870  175.2690  142.5340 C   0  0  0  0  0  2  0  0  0  0  0  0
  190.9140  175.7610  143.1300 C   0  0  0  0  0  2  0  0  0  0  0  0
  190.3790  177.1680  138.6220 S   0  0  0  0  0  0  0  0  0  0  0  0
  186.9570  178.1650  136.9810 C   0  0  0  0  0  0  0  0  0  0  0  0
  187.7580  177.6000  138.0200 N   0  0  0  0  0  2  0  0  0  0  0  0
  187.1510  179.3480  136.5910 O   0  0  0  0  0  0  0  0  0  0  0  0
  185.9010  177.3380  136.3300 C   0  0  0  0  0  2  0  0  0  0  0  0
  183.1100  175.8660  138.4240 C   0  0  0  0  0  3  0  0  0  0  0  0
  182.4410  177.0220  138.8510 C   0  0  0  0  0  0  0  0  0  0  0  0
  184.2420  175.9690  137.6100 C   0  0  0  0  0  3  0  0  0  0  0  0
  182.9220  178.2810  138.4720 C   0  0  0  0  0  3  0  0  0  0  0  0
  184.0550  178.3840  137.6590 C   0  0  0  0  0  3  0  0  0  0  0  0
  184.7170  177.2290  137.2290 C   0  0  0  0  0  0  0  0  0  0  0  0
  181.2330  176.9430  139.7340 C   0  0  2  0  0  3  0  0  0  0  0  0
  180.1810  174.7580  140.1340 N   0  0  0  0  0  0  0  0  0  0  0  0
  178.9690  174.4810  138.1220 C   0  0  0  0  0  3  0  0  0  0  0  0
  179.6930  175.6960  138.1690 O   0  0  0  0  0  0  0  0  0  0  0  0
  180.3760  175.7690  139.3620 C   0  0  0  0  0  0  0  0  0  0  0  0
  179.2750  173.8270  139.4730 C   0  0  0  0  0  3  0  0  0  0  0  0
  180.4600  178.2570  139.7340 C   0  0  0  0  0  2  0  0  0  0  0  0
  179.8590  178.5230  141.1040 C   0  0  0  0  0  2  0  0  0  0  0  0
  180.8860  178.2470  142.1890 C   0  0  0  0  0  2  0  0  0  0  0  0
  180.0350  180.4500  142.8290 N   0  0  0  0  0  1  0  0  0  0  0  0
  180.9480  179.3850  143.2010 C   0  0  0  0  0  2  0  0  0  0  0  0
  190.5840  179.5950  143.1860 C   0  0  0  0  0  1  0  0  0  0  0  0
  190.9830  178.2530  143.7890 C   0  0  2  0  0  3  0  0  0  0  0  0
  192.0710  178.4110  144.8530 C   0  0  1  0  0  3  0  0  0  0  0  0
  192.7130  179.6520  144.7250 O   0  0  0  0  0  1  0  0  0  0  0  0
  191.4820  178.2780  146.1840 N   0  0  0  0  0  2  0  0  0  0  0  0
  191.2710  176.8650  146.4620 C   0  0  0  0  0  2  0  0  0  0  0  0
  189.8680  176.4390  146.0560 C   0  0  0  0  0  2  0  0  0  0  0  0
  189.0080  176.3870  147.1650 O   0  0  0  0  0  0  0  0  0  0  0  0
  186.2730  178.9700  147.5950 C   0  0  0  0  0  0  0  0  0  0  0  0
  188.6280  179.0660  147.9930 O   0  0  0  0  0  1  0  0  0  0  0  0
  188.0030  177.6710  145.3730 C   0  0  0  0  0  2  0  0  0  0  0  0
  184.9810  178.3110  147.1640 C   0  0  0  0  0  2  0  0  0  0  0  0
  185.8180  177.8790  144.7470 C   0  0  1  0  0  3  0  0  0  0  0  0
  187.3600  177.4970  149.2330 C   0  0  0  0  0  1  0  0  0  0  0  0
  186.2640  180.1810  147.7570 O   0  0  0  0  0  0  0  0  0  0  0  0
  186.9930  178.5940  145.0500 O   0  0  0  0  0  0  0  0  0  0  0  0
  185.1270  177.3190  146.0040 C   0  0  0  0  0  2  0  0  0  0  0  0
  187.5450  178.1860  147.8910 C   0  0  1  0  0  0  0  0  0  0  0  0
  187.8640  177.1230  146.8140 C   0  0  2  0  0  3  0  0  0  0  0  0
  184.9340  178.7120  144.0660 O   0  0  0  0  0  1  0  0  0  0  0  0
  186.6340  177.9930  140.7240 C   0  0  0  0  0  2  0  0  0  0  0  0
  185.9920  179.2250  141.3390 C   0  0  0  0  0  2  0  0  0  0  0  0
  185.0440  179.7550  140.4600 O   0  0  0  0  0  1  0  0  0  0  0  0
  1 10  1  0  0  0  0
  2 12  1  6  0  0  0
  2  7  1  0  0  0  0
  2  3  1  0  0  0  0
  3  5  1  6  0  0  0
  3  9  1  0  0  0  0
  4 14  1  1  0  0  0
  4 12  1  0  0  0  0
  4  8  1  0  0  0  0
  6 54  1  6  0  0  0
  6  7  1  0  0  0  0
  7  1  1  1  0  0  0
  8  6  1  0  0  0  0
  9 11  1  0  0  0  0
  9 35  1  1  0  0  0
 10 11  1  0  0  0  0
 13 14  1  0  0  0  0
 15 13  2  0  0  0  0
 16 13  1  0  0  0  0
 16 22  1  0  0  0  0
 17 18  1  0  0  0  0
 18 23  1  0  0  0  0
 19 17  2  0  0  0  0
 20 18  2  0  0  0  0
 21 20  1  0  0  0  0
 22 19  1  0  0  0  0
 22 21  2  0  0  0  0
 23 29  1  6  0  0  0
 25 26  1  0  0  0  0
 25 28  2  0  0  0  0
 26 27  1  0  0  0  0
 27 23  1  0  0  0  0
 27 24  2  0  0  0  0
 28 24  1  0  0  0  0
 29 30  1  0  0  0  0
 30 31  1  0  0  0  0
 31 33  1  0  0  0  0
 32 33  1  0  0  0  0
 35 34  1  6  0  0  0
 35 36  1  0  0  0  0
 36 37  1  1  0  0  0
 36 38  1  0  0  0  0
 38 39  1  0  0  0  0
 40 39  1  0  0  0  0
 40 41  1  0  0  0  0
 42 48  2  0  0  0  0
 42 51  1  0  0  0  0
 44 52  1  0  0  0  0
 45 42  1  0  0  0  0
 46 53  1  1  0  0  0
 46 49  1  0  0  0  0
 46 50  1  0  0  0  0
 49 44  1  0  0  0  0
 50 45  1  0  0  0  0
 51 43  1  0  0  0  0
 51 47  1  1  0  0  0
 52 41  1  1  0  0  0
 52 51  1  0  0  0  0
 54 55  1  0  0  0  0
 56 55  1  0  0  0  0
M  END
>  <MODEL>
5

>  <REMARK>
 VINA RESULT:      -5.5      2.819      5.168
  Name = 
  18 active torsions:
  status: ('A' for Active; 'I' for Inactive)
    1  A    between atoms: C_5  and  C_31
    2  A    between atoms: N_7  and  C_29
    3  A    between atoms: C_11  and  C_27
    4  A    between atoms: C_12  and  C_33
    5  A    between atoms: C_12  and  N_50
    6  A    between atoms: C_16  and  N_50
    7  A    between atoms: C_16  and  C_53
    8  A    between atoms: C_19  and  C_22
    9  A    between atoms: C_19  and  C_38
   10  A    between atoms: C_22  and  C_37
   11  A    between atoms: C_25  and  C_37
   12  A    between atoms: C_27  and  C_41
   13  A    between atoms: C_31  and  C_52
   14  A    between atoms: C_32  and  C_37
   15  A    between atoms: C_33  and  C_46
   16  A    between atoms: C_38  and  C_42
   17  A    between atoms: C_47  and  O_56
   18  A    between atoms: C_53  and  O_56
                            x       y       z     vdW  Elec       q    Type
                         _______ _______ _______ _____ _____    ______ ____

>  <TORSDO>
F 18

$$$$
=
 OpenBabel10222420563D

 56 60  0  0  1  0  0  0  0  0999 V2000
  188.6170  176.3870  142.4120 O   0  0  0  0  0  0  0  0  0  0  0  0
  190.1040  176.7630  140.4620 C   0  0  1  0  0  3  0  0  0  0  0  0
  191.0850  177.6350  141.2580 C   0  0  2  0  0  3  0  0  0  0  0  0
  188.6780  178.2400  138.6300 C   0  0  1  0  0  3  0  0  0  0  0  0
  192.3380  177.6240  140.6450 O   0  0  0  0  0  1  0  0  0  0  0  0
  187.9970  178.1110  140.8850 C   0  0  1  0  0  3  0  0  0  0  0  0
  188.6730  176.7420  141.0430 C   0  0  2  0  0  3  0  0  0  0  0  0
  188.4830  178.9420  139.8420 O   0  0  0  0  0  0  0  0  0  0  0  0
  191.2570  177.2160  142.7380 C   0  0  2  0  0  3  0  0  0  0  0  0
  189.4800  175.3050  142.6500 C   0  0  0  0  0  2  0  0  0  0  0  0
  190.8370  175.7960  143.1770 C   0  0  0  0  0  2  0  0  0  0  0  0
  190.1160  177.1140  138.6680 S   0  0  0  0  0  0  0  0  0  0  0  0
  186.4780  178.2250  137.3950 C   0  0  0  0  0  0  0  0  0  0  0  0
  187.4750  177.5590  138.1720 N   0  0  0  0  0  2  0  0  0  0  0  0
  186.5320  179.4700  137.2120 O   0  0  0  0  0  0  0  0  0  0  0  0
  185.3800  177.4350  136.7680 C   0  0  0  0  0  2  0  0  0  0  0  0
  182.8670  176.5720  139.4670 C   0  0  0  0  0  3  0  0  0  0  0  0
  181.8490  177.5030  139.2100 C   0  0  0  0  0  0  0  0  0  0  0  0
  184.0200  176.5560  138.6770 C   0  0  0  0  0  3  0  0  0  0  0  0
  182.0030  178.4270  138.1690 C   0  0  0  0  0  3  0  0  0  0  0  0
  183.1570  178.4110  137.3810 C   0  0  0  0  0  3  0  0  0  0  0  0
  184.1670  177.4770  137.6340 C   0  0  0  0  0  0  0  0  0  0  0  0
  180.6080  177.5530  140.0470 C   0  0  2  0  0  3  0  0  0  0  0  0
  179.9430  178.5580  142.1900 N   0  0  0  0  0  0  0  0  0  0  0  0
  182.0440  179.2650  143.0120 C   0  0  0  0  0  3  0  0  0  0  0  0
  182.1290  178.6290  141.7510 O   0  0  0  0  0  0  0  0  0  0  0  0
  180.8670  178.2650  141.3430 C   0  0  0  0  0  0  0  0  0  0  0  0
  180.5500  179.2100  143.3430 C   0  0  0  0  0  3  0  0  0  0  0  0
  180.0200  176.1620  140.2490 C   0  0  0  0  0  2  0  0  0  0  0  0
  179.2940  175.7010  138.9970 C   0  0  0  0  0  2  0  0  0  0  0  0
  179.5250  174.2150  138.7740 C   0  0  0  0  0  2  0  0  0  0  0  0
  180.4680  172.7430  137.0630 N   0  0  0  0  0  1  0  0  0  0  0  0
  180.6800  173.9680  137.8120 C   0  0  0  0  0  2  0  0  0  0  0  0
  190.5550  179.6370  143.1650 C   0  0  0  0  0  1  0  0  0  0  0  0
  190.9560  178.3010  143.7790 C   0  0  2  0  0  3  0  0  0  0  0  0
  192.0860  178.4610  144.7990 C   0  0  1  0  0  3  0  0  0  0  0  0
  192.6490  179.7440  144.7160 O   0  0  0  0  0  1  0  0  0  0  0  0
  191.5730  178.2160  146.1450 N   0  0  0  0  0  2  0  0  0  0  0  0
  191.4990  176.7790  146.3620 C   0  0  0  0  0  2  0  0  0  0  0  0
  190.0540  176.3030  146.3380 C   0  0  0  0  0  2  0  0  0  0  0  0
  189.3660  176.6960  147.4970 O   0  0  0  0  0  0  0  0  0  0  0  0
  186.3690  179.0030  147.6640 C   0  0  0  0  0  0  0  0  0  0  0  0
  188.6900  179.3780  148.0930 O   0  0  0  0  0  1  0  0  0  0  0  0
  188.2820  177.7180  145.5880 C   0  0  0  0  0  2  0  0  0  0  0  0
  185.1640  178.1800  147.2660 C   0  0  0  0  0  2  0  0  0  0  0  0
  186.1040  177.6440  144.9080 C   0  0  1  0  0  3  0  0  0  0  0  0
  187.5590  177.7900  149.4370 C   0  0  0  0  0  1  0  0  0  0  0  0
  186.2310  180.2160  147.7240 O   0  0  0  0  0  0  0  0  0  0  0  0
  187.1900  178.5010  145.1710 O   0  0  0  0  0  0  0  0  0  0  0  0
  185.4410  177.1180  146.1960 C   0  0  0  0  0  2  0  0  0  0  0  0
  187.7070  178.3840  148.0460 C   0  0  1  0  0  0  0  0  0  0  0  0
  188.1630  177.2760  147.0660 C   0  0  2  0  0  3  0  0  0  0  0  0
  185.1560  178.3220  144.1450 O   0  0  0  0  0  1  0  0  0  0  0  0
  186.4740  178.0190  140.9140 C   0  0  0  0  0  2  0  0  0  0  0  0
  185.8580  179.3740  141.2190 C   0  0  0  0  0  2  0  0  0  0  0  0
  184.9320  179.7080  140.2280 O   0  0  0  0  0  1  0  0  0  0  0  0
  1 10  1  0  0  0  0
  2 12  1  6  0  0  0
  2  7  1  0  0  0  0
  2  3  1  0  0  0  0
  3  5  1  6  0  0  0
  3  9  1  0  0  0  0
  4 14  1  1  0  0  0
  4 12  1  0  0  0  0
  4  8  1  0  0  0  0
  6 54  1  6  0  0  0
  6  7  1  0  0  0  0
  7  1  1  1  0  0  0
  8  6  1  0  0  0  0
  9 11  1  0  0  0  0
  9 35  1  1  0  0  0
 10 11  1  0  0  0  0
 13 14  1  0  0  0  0
 15 13  2  0  0  0  0
 16 13  1  0  0  0  0
 16 22  1  0  0  0  0
 18 17  1  0  0  0  0
 18 23  1  0  0  0  0
 19 17  2  0  0  0  0
 20 18  2  0  0  0  0
 21 22  2  0  0  0  0
 21 20  1  0  0  0  0
 22 19  1  0  0  0  0
 23 29  1  1  0  0  0
 23 27  1  0  0  0  0
 24 28  1  0  0  0  0
 25 28  2  0  0  0  0
 26 25  1  0  0  0  0
 27 26  1  0  0  0  0
 27 24  2  0  0  0  0
 30 29  1  0  0  0  0
 31 30  1  0  0  0  0
 32 33  1  0  0  0  0
 33 31  1  0  0  0  0
 35 34  1  6  0  0  0
 35 36  1  0  0  0  0
 36 37  1  1  0  0  0
 36 38  1  0  0  0  0
 38 39  1  0  0  0  0
 40 39  1  0  0  0  0
 40 41  1  0  0  0  0
 42 48  2  0  0  0  0
 42 51  1  0  0  0  0
 44 52  1  0  0  0  0
 45 42  1  0  0  0  0
 46 53  1  1  0  0  0
 46 49  1  0  0  0  0
 46 50  1  0  0  0  0
 49 44  1  0  0  0  0
 50 45  1  0  0  0  0
 51 43  1  0  0  0  0
 51 47  1  1  0  0  0
 52 41  1  1  0  0  0
 52 51  1  0  0  0  0
 54 55  1  0  0  0  0
 56 55  1  0  0  0  0
M  END
>  <MODEL>
6

>  <REMARK>
 VINA RESULT:      -5.5      2.931      5.448
  Name = 
  18 active torsions:
  status: ('A' for Active; 'I' for Inactive)
    1  A    between atoms: C_5  and  C_31
    2  A    between atoms: N_7  and  C_29
    3  A    between atoms: C_11  and  C_27
    4  A    between atoms: C_12  and  C_33
    5  A    between atoms: C_12  and  N_50
    6  A    between atoms: C_16  and  N_50
    7  A    between atoms: C_16  and  C_53
    8  A    between atoms: C_19  and  C_22
    9  A    between atoms: C_19  and  C_38
   10  A    between atoms: C_22  and  C_37
   11  A    between atoms: C_25  and  C_37
   12  A    between atoms: C_27  and  C_41
   13  A    between atoms: C_31  and  C_52
   14  A    between atoms: C_32  and  C_37
   15  A    between atoms: C_33  and  C_46
   16  A    between atoms: C_38  and  C_42
   17  A    between atoms: C_47  and  O_56
   18  A    between atoms: C_53  and  O_56
                            x       y       z     vdW  Elec       q    Type
                         _______ _______ _______ _____ _____    ______ ____

>  <TORSDO>
F 18

$$$$
=
 OpenBabel10222420563D

 56 60  0  0  1  0  0  0  0  0999 V2000
  186.4860  177.9540  138.1370 O   0  0  0  0  0  0  0  0  0  0  0  0
  186.3400  176.8860  135.9030 C   0  0  1  0  0  3  0  0  0  0  0  0
  185.0450  176.1350  136.2420 C   0  0  2  0  0  3  0  0  0  0  0  0
  188.4850  175.1760  135.6810 C   0  0  1  0  0  3  0  0  0  0  0  0
  184.3550  175.8190  135.0710 O   0  0  0  0  0  1  0  0  0  0  0  0
  187.7840  175.9840  137.7840 C   0  0  1  0  0  3  0  0  0  0  0  0
  187.1940  177.2460  137.1380 C   0  0  2  0  0  3  0  0  0  0  0  0
  187.9340  174.8520  136.9420 O   0  0  0  0  0  0  0  0  0  0  0  0
  184.0880  176.9030  137.1840 C   0  0  2  0  0  3  0  0  0  0  0  0
  185.6860  178.9380  137.5340 C   0  0  0  0  0  2  0  0  0  0  0  0
  184.2480  178.4310  137.3450 C   0  0  0  0  0  2  0  0  0  0  0  0
  187.3250  176.0750  134.5940 S   0  0  0  0  0  0  0  0  0  0  0  0
  190.9470  175.3590  135.1600 C   0  0  0  0  0  0  0  0  0  0  0  0
  189.7650  175.8640  135.7850 N   0  0  0  0  0  2  0  0  0  0  0  0
  190.9550  174.2160  134.6300 O   0  0  0  0  0  0  0  0  0  0  0  0
  192.1740  176.2040  135.1100 C   0  0  0  0  0  2  0  0  0  0  0  0
  195.6220  174.8050  135.8160 C   0  0  0  0  0  3  0  0  0  0  0  0
  195.4020  174.1090  137.0150 C   0  0  0  0  0  0  0  0  0  0  0  0
  194.5730  175.4940  135.2010 C   0  0  0  0  0  3  0  0  0  0  0  0
  194.1300  174.1220  137.5990 C   0  0  0  0  0  3  0  0  0  0  0  0
  193.0810  174.8130  136.9840 C   0  0  0  0  0  3  0  0  0  0  0  0
  193.3020  175.5010  135.7860 C   0  0  0  0  0  0  0  0  0  0  0  0
  196.5090  173.3720  137.7030 C   0  0  2  0  0  3  0  0  0  0  0  0
  196.4470  174.5310  139.8700 N   0  0  0  0  0  0  0  0  0  0  0  0
  198.6500  175.3870  139.9720 C   0  0  0  0  0  3  0  0  0  0  0  0
  198.3970  174.6480  138.7910 O   0  0  0  0  0  0  0  0  0  0  0  0
  197.0950  174.2020  138.8080 C   0  0  0  0  0  0  0  0  0  0  0  0
  197.3270  175.3020  140.7390 C   0  0  0  0  0  3  0  0  0  0  0  0
  197.5600  172.8950  136.7080 C   0  0  0  0  0  2  0  0  0  0  0  0
  197.5420  171.3790  136.5970 C   0  0  0  0  0  2  0  0  0  0  0  0
  196.4200  170.8050  137.4460 C   0  0  0  0  0  2  0  0  0  0  0  0
  194.2390  169.6980  137.4120 N   0  0  0  0  0  1  0  0  0  0  0  0
  195.2900  170.2600  136.5830 C   0  0  0  0  0  2  0  0  0  0  0  0
  183.2060  174.7570  138.2590 C   0  0  0  0  0  1  0  0  0  0  0  0
  183.7030  176.1810  138.4820 C   0  0  2  0  0  3  0  0  0  0  0  0
  182.7310  176.9950  139.3370 C   0  0  1  0  0  3  0  0  0  0  0  0
  181.4710  176.3770  139.3780 O   0  0  0  0  0  1  0  0  0  0  0  0
  183.2680  177.1430  140.6870 N   0  0  0  0  0  2  0  0  0  0  0  0
  183.5420  178.5520  140.9290 C   0  0  0  0  0  2  0  0  0  0  0  0
  184.2750  178.7420  142.2490 C   0  0  0  0  0  2  0  0  0  0  0  0
  185.2910  177.7870  142.4120 O   0  0  0  0  0  0  0  0  0  0  0  0
  187.9140  177.7920  145.1420 C   0  0  0  0  0  0  0  0  0  0  0  0
  187.9700  178.5670  142.8810 O   0  0  0  0  0  1  0  0  0  0  0  0
  185.3830  179.3530  144.2580 C   0  0  0  0  0  2  0  0  0  0  0  0
  187.2720  177.1740  146.3630 C   0  0  0  0  0  2  0  0  0  0  0  0
  185.4210  178.9850  146.5100 C   0  0  1  0  0  3  0  0  0  0  0  0
  187.5710  176.2620  143.2520 C   0  0  0  0  0  1  0  0  0  0  0  0
  188.9840  178.3640  145.2930 O   0  0  0  0  0  0  0  0  0  0  0  0
  186.0460  179.6770  145.4550 O   0  0  0  0  0  0  0  0  0  0  0  0
  185.7800  177.4870  146.5290 C   0  0  0  0  0  2  0  0  0  0  0  0
  187.3200  177.6780  143.7440 C   0  0  1  0  0  0  0  0  0  0  0  0
  185.8000  177.9670  143.7080 C   0  0  2  0  0  3  0  0  0  0  0  0
  185.7880  179.5630  147.7230 O   0  0  0  0  0  1  0  0  0  0  0  0
  189.0280  176.2790  138.6160 C   0  0  0  0  0  2  0  0  0  0  0  0
  189.1650  177.7700  138.8710 C   0  0  0  0  0  2  0  0  0  0  0  0
  189.1090  178.0240  140.2440 O   0  0  0  0  0  1  0  0  0  0  0  0
  2 12  1  6  0  0  0
  2  3  1  0  0  0  0
  2  7  1  0  0  0  0
  3  5  1  6  0  0  0
  3  9  1  0  0  0  0
  4 14  1  1  0  0  0
  4  8  1  0  0  0  0
  6 54  1  6  0  0  0
  7  6  1  0  0  0  0
  7  1  1  1  0  0  0
  8  6  1  0  0  0  0
  9 11  1  0  0  0  0
  9 35  1  1  0  0  0
 10  1  1  0  0  0  0
 11 10  1  0  0  0  0
 12  4  1  0  0  0  0
 13 14  1  0  0  0  0
 15 13  2  0  0  0  0
 16 13  1  0  0  0  0
 16 22  1  0  0  0  0
 17 18  1  0  0  0  0
 18 20  2  0  0  0  0
 18 23  1  0  0  0  0
 19 22  1  0  0  0  0
 19 17  2  0  0  0  0
 21 20  1  0  0  0  0
 22 21  2  0  0  0  0
 23 29  1  6  0  0  0
 23 27  1  0  0  0  0
 24 28  1  0  0  0  0
 25 28  2  0  0  0  0
 26 27  1  0  0  0  0
 26 25  1  0  0  0  0
 27 24  2  0  0  0  0
 30 29  1  0  0  0  0
 30 31  1  0  0  0  0
 33 32  1  0  0  0  0
 33 31  1  0  0  0  0
 35 34  1  6  0  0  0
 35 36  1  0  0  0  0
 36 37  1  1  0  0  0
 36 38  1  0  0  0  0
 38 39  1  0  0  0  0
 39 40  1  0  0  0  0
 40 41  1  0  0  0  0
 42 48  2  0  0  0  0
 42 45  1  0  0  0  0
 43 51  1  0  0  0  0
 44 49  1  0  0  0  0
 45 50  1  0  0  0  0
 46 50  1  0  0  0  0
 46 53  1  1  0  0  0
 49 46  1  0  0  0  0
 51 47  1  6  0  0  0
 51 42  1  0  0  0  0
 52 41  1  6  0  0  0
 52 51  1  0  0  0  0
 52 44  1  0  0  0  0
 54 55  1  0  0  0  0
 55 56  1  0  0  0  0
M  END
>  <MODEL>
7

>  <REMARK>
 VINA RESULT:      -5.5      3.266      9.731
  Name = 
  18 active torsions:
  status: ('A' for Active; 'I' for Inactive)
    1  A    between atoms: C_5  and  C_31
    2  A    between atoms: N_7  and  C_29
    3  A    between atoms: C_11  and  C_27
    4  A    between atoms: C_12  and  C_33
    5  A    between atoms: C_12  and  N_50
    6  A    between atoms: C_16  and  N_50
    7  A    between atoms: C_16  and  C_53
    8  A    between atoms: C_19  and  C_22
    9  A    between atoms: C_19  and  C_38
   10  A    between atoms: C_22  and  C_37
   11  A    between atoms: C_25  and  C_37
   12  A    between atoms: C_27  and  C_41
   13  A    between atoms: C_31  and  C_52
   14  A    between atoms: C_32  and  C_37
   15  A    between atoms: C_33  and  C_46
   16  A    between atoms: C_38  and  C_42
   17  A    between atoms: C_47  and  O_56
   18  A    between atoms: C_53  and  O_56
                            x       y       z     vdW  Elec       q    Type
                         _______ _______ _______ _____ _____    ______ ____

>  <TORSDO>
F 18

$$$$
=
 OpenBabel10222420563D

 56 60  0  0  1  0  0  0  0  0999 V2000
  186.1260  178.6390  138.5730 O   0  0  0  0  0  0  0  0  0  0  0  0
  185.5620  177.4300  136.4810 C   0  0  1  0  0  3  0  0  0  0  0  0
  184.3050  176.7860  137.0800 C   0  0  2  0  0  3  0  0  0  0  0  0
  187.5540  175.5800  136.0530 C   0  0  1  0  0  3  0  0  0  0  0  0
  183.4170  176.4340  136.0630 O   0  0  0  0  0  1  0  0  0  0  0  0
  187.2490  176.5730  138.1720 C   0  0  1  0  0  3  0  0  0  0  0  0
  186.6250  177.8210  137.5310 C   0  0  2  0  0  3  0  0  0  0  0  0
  187.2020  175.3780  137.4070 O   0  0  0  0  0  0  0  0  0  0  0  0
  183.5550  177.6750  138.1010 C   0  0  2  0  0  3  0  0  0  0  0  0
  185.2880  179.6260  138.0310 C   0  0  0  0  0  2  0  0  0  0  0  0
  183.8160  179.1970  138.1140 C   0  0  0  0  0  2  0  0  0  0  0  0
  186.2770  176.4710  135.0980 S   0  0  0  0  0  0  0  0  0  0  0  0
  189.9260  175.5400  135.1940 C   0  0  0  0  0  0  0  0  0  0  0  0
  188.8660  176.1930  135.8960 N   0  0  0  0  0  2  0  0  0  0  0  0
  189.8080  174.3420  134.8210 O   0  0  0  0  0  0  0  0  0  0  0  0
  191.1720  176.2930  134.8730 C   0  0  0  0  0  2  0  0  0  0  0  0
  194.7530  175.3780  135.6970 C   0  0  0  0  0  3  0  0  0  0  0  0
  194.5770  174.2120  136.4580 C   0  0  0  0  0  0  0  0  0  0  0  0
  193.6440  176.0590  135.1890 C   0  0  0  0  0  3  0  0  0  0  0  0
  193.2830  173.7450  136.7180 C   0  0  0  0  0  3  0  0  0  0  0  0
  192.1740  174.4280  136.2110 C   0  0  0  0  0  3  0  0  0  0  0  0
  192.3530  175.5870  135.4470 C   0  0  0  0  0  0  0  0  0  0  0  0
  195.7450  173.4660  137.0260 C   0  0  2  0  0  3  0  0  0  0  0  0
  196.0730  171.7420  135.3050 N   0  0  0  0  0  0  0  0  0  0  0  0
  195.6430  169.7840  136.5590 C   0  0  0  0  0  3  0  0  0  0  0  0
  195.5240  170.9690  137.3250 O   0  0  0  0  0  0  0  0  0  0  0  0
  195.7760  172.0540  136.5180 C   0  0  0  0  0  0  0  0  0  0  0  0
  196.0400  170.2920  135.1700 C   0  0  0  0  0  3  0  0  0  0  0  0
  195.7620  173.5420  138.5490 C   0  0  0  0  0  2  0  0  0  0  0  0
  195.0810  174.8120  139.0280 C   0  0  0  0  0  2  0  0  0  0  0  0
  195.9000  175.4620  140.1310 C   0  0  0  0  0  2  0  0  0  0  0  0
  198.1210  175.6710  139.1300 N   0  0  0  0  0  1  0  0  0  0  0  0
  197.3390  174.9620  140.1260 C   0  0  0  0  0  2  0  0  0  0  0  0
  182.2850  175.9820  139.5360 C   0  0  0  0  0  1  0  0  0  0  0  0
  183.3530  177.0690  139.4950 C   0  0  2  0  0  3  0  0  0  0  0  0
  183.1190  178.1350  140.5670 C   0  0  1  0  0  3  0  0  0  0  0  0
  181.7520  178.2440  140.8660 O   0  0  0  0  0  1  0  0  0  0  0  0
  183.8770  177.8000  141.7690 N   0  0  0  0  0  2  0  0  0  0  0  0
  184.9730  178.7480  141.9100 C   0  0  0  0  0  2  0  0  0  0  0  0
  186.1180  178.1360  142.7030 C   0  0  0  0  0  2  0  0  0  0  0  0
  186.1280  178.5990  144.0280 O   0  0  0  0  0  0  0  0  0  0  0  0
  188.4070  177.3590  146.7860 C   0  0  0  0  0  0  0  0  0  0  0  0
  186.1580  176.7940  146.2070 O   0  0  0  0  0  1  0  0  0  0  0  0
  187.9180  176.9920  143.7450 C   0  0  0  0  0  2  0  0  0  0  0  0
  189.7210  178.0890  146.6250 C   0  0  0  0  0  2  0  0  0  0  0  0
  190.1400  177.1490  144.2440 C   0  0  1  0  0  3  0  0  0  0  0  0
  186.6120  179.0350  146.8210 C   0  0  0  0  0  1  0  0  0  0  0  0
  188.3800  176.4020  147.5470 O   0  0  0  0  0  0  0  0  0  0  0  0
  188.9920  176.3460  144.3840 O   0  0  0  0  0  0  0  0  0  0  0  0
  190.1180  178.3780  145.1730 C   0  0  0  0  0  2  0  0  0  0  0  0
  187.1230  177.8010  146.0970 C   0  0  1  0  0  0  0  0  0  0  0  0
  187.3250  178.1370  144.6000 C   0  0  2  0  0  3  0  0  0  0  0  0
  191.2730  176.3850  144.5170 O   0  0  0  0  0  1  0  0  0  0  0  0
  188.6250  176.8460  138.7680 C   0  0  0  0  0  2  0  0  0  0  0  0
  188.5320  177.8550  139.9000 C   0  0  0  0  0  2  0  0  0  0  0  0
  189.3670  177.4690  140.9510 O   0  0  0  0  0  1  0  0  0  0  0  0
  2 12  1  6  0  0  0
  2  3  1  0  0  0  0
  2  7  1  0  0  0  0
  3  5  1  6  0  0  0
  3  9  1  0  0  0  0
  4 14  1  1  0  0  0
  4  8  1  0  0  0  0
  6 54  1  6  0  0  0
  7  6  1  0  0  0  0
  7  1  1  1  0  0  0
  8  6  1  0  0  0  0
  9 11  1  0  0  0  0
  9 35  1  1  0  0  0
 10 11  1  0  0  0  0
 10  1  1  0  0  0  0
 12  4  1  0  0  0  0
 13 14  1  0  0  0  0
 15 13  2  0  0  0  0
 16 13  1  0  0  0  0
 16 22  1  0  0  0  0
 17 18  1  0  0  0  0
 18 20  2  0  0  0  0
 18 23  1  0  0  0  0
 19 22  1  0  0  0  0
 19 17  2  0  0  0  0
 21 20  1  0  0  0  0
 22 21  2  0  0  0  0
 23 29  1  1  0  0  0
 24 27  2  0  0  0  0
 25 26  1  0  0  0  0
 27 23  1  0  0  0  0
 27 26  1  0  0  0  0
 28 24  1  0  0  0  0
 28 25  2  0  0  0  0
 29 30  1  0  0  0  0
 30 31  1  0  0  0  0
 32 33  1  0  0  0  0
 33 31  1  0  0  0  0
 35 34  1  6  0  0  0
 35 36  1  0  0  0  0
 36 37  1  1  0  0  0
 36 38  1  0  0  0  0
 38 39  1  0  0  0  0
 39 40  1  0  0  0  0
 40 41  1  0  0  0  0
 42 48  2  0  0  0  0
 44 49  1  0  0  0  0
 44 52  1  0  0  0  0
 45 42  1  0  0  0  0
 46 49  1  0  0  0  0
 46 53  1  1  0  0  0
 46 50  1  0  0  0  0
 50 45  1  0  0  0  0
 51 43  1  0  0  0  0
 51 42  1  0  0  0  0
 51 47  1  1  0  0  0
 52 41  1  6  0  0  0
 52 51  1  0  0  0  0
 54 55  1  0  0  0  0
 55 56  1  0  0  0  0
M  END
>  <MODEL>
8

>  <REMARK>
 VINA RESULT:      -5.4      2.969      9.181
  Name = 
  18 active torsions:
  status: ('A' for Active; 'I' for Inactive)
    1  A    between atoms: C_5  and  C_31
    2  A    between atoms: N_7  and  C_29
    3  A    between atoms: C_11  and  C_27
    4  A    between atoms: C_12  and  C_33
    5  A    between atoms: C_12  and  N_50
    6  A    between atoms: C_16  and  N_50
    7  A    between atoms: C_16  and  C_53
    8  A    between atoms: C_19  and  C_22
    9  A    between atoms: C_19  and  C_38
   10  A    between atoms: C_22  and  C_37
   11  A    between atoms: C_25  and  C_37
   12  A    between atoms: C_27  and  C_41
   13  A    between atoms: C_31  and  C_52
   14  A    between atoms: C_32  and  C_37
   15  A    between atoms: C_33  and  C_46
   16  A    between atoms: C_38  and  C_42
   17  A    between atoms: C_47  and  O_56
   18  A    between atoms: C_53  and  O_56
                            x       y       z     vdW  Elec       q    Type
                         _______ _______ _______ _____ _____    ______ ____

>  <TORSDO>
F 18

$$$$
=
 OpenBabel10222420563D

 56 60  0  0  1  0  0  0  0  0999 V2000
  188.9390  176.0880  141.8100 O   0  0  0  0  0  0  0  0  0  0  0  0
  191.1210  176.6370  140.7650 C   0  0  1  0  0  3  0  0  0  0  0  0
  191.4690  177.6930  141.8230 C   0  0  2  0  0  3  0  0  0  0  0  0
  190.5830  177.7790  138.3200 C   0  0  1  0  0  3  0  0  0  0  0  0
  192.8510  177.8740  141.8810 O   0  0  0  0  0  1  0  0  0  0  0  0
  188.9170  177.6210  139.9830 C   0  0  1  0  0  3  0  0  0  0  0  0
  189.6050  176.3950  140.5990 C   0  0  2  0  0  3  0  0  0  0  0  0
  189.7340  178.4820  139.2050 O   0  0  0  0  0  0  0  0  0  0  0  0
  190.9550  177.3670  143.2460 C   0  0  2  0  0  3  0  0  0  0  0  0
  189.7120  175.1780  142.5500 C   0  0  0  0  0  2  0  0  0  0  0  0
  190.5650  175.9130  143.5950 C   0  0  0  0  0  2  0  0  0  0  0  0
  191.9550  176.9170  139.1620 S   0  0  0  0  0  0  0  0  0  0  0  0
  189.3450  177.3240  136.1690 C   0  0  0  0  0  0  0  0  0  0  0  0
  189.8540  176.8850  137.4300 N   0  0  0  0  0  2  0  0  0  0  0  0
  189.3730  178.5430  135.8530 O   0  0  0  0  0  0  0  0  0  0  0  0
  188.8010  176.3250  135.2040 C   0  0  0  0  0  2  0  0  0  0  0  0
  185.2140  175.6450  136.2110 C   0  0  0  0  0  3  0  0  0  0  0  0
  185.3500  174.4570  136.9450 C   0  0  0  0  0  0  0  0  0  0  0  0
  186.3370  176.2490  135.6380 C   0  0  0  0  0  3  0  0  0  0  0  0
  186.6140  173.8700  137.0850 C   0  0  0  0  0  3  0  0  0  0  0  0
  187.7360  174.4730  136.5100 C   0  0  0  0  0  3  0  0  0  0  0  0
  187.5990  175.6620  135.7840 C   0  0  0  0  0  0  0  0  0  0  0  0
  184.1640  173.7810  137.5610 C   0  0  2  0  0  3  0  0  0  0  0  0
  183.0670  171.6060  137.2270 N   0  0  0  0  0  0  0  0  0  0  0  0
  183.5030  171.2440  134.9310 C   0  0  0  0  0  3  0  0  0  0  0  0
  184.0360  172.4650  135.4100 O   0  0  0  0  0  0  0  0  0  0  0  0
  183.7490  172.5870  136.7500 C   0  0  0  0  0  0  0  0  0  0  0  0
  182.8140  170.6450  136.1610 C   0  0  0  0  0  3  0  0  0  0  0  0
  183.0200  174.7630  137.7840 C   0  0  0  0  0  2  0  0  0  0  0  0
  182.0530  174.7330  136.6130 C   0  0  0  0  0  2  0  0  0  0  0  0
  180.6210  174.6760  137.1160 C   0  0  0  0  0  2  0  0  0  0  0  0
  179.2830  175.4270  139.0210 N   0  0  0  0  0  1  0  0  0  0  0  0
  180.5540  174.8480  138.6290 C   0  0  0  0  0  2  0  0  0  0  0  0
  190.7970  179.6700  144.3430 C   0  0  0  0  0  1  0  0  0  0  0  0
  190.0480  178.4230  143.8890 C   0  0  2  0  0  3  0  0  0  0  0  0
  189.1780  177.8440  145.0060 C   0  0  1  0  0  3  0  0  0  0  0  0
  189.7360  178.1240  146.2630 O   0  0  0  0  0  1  0  0  0  0  0  0
  187.8280  178.3940  144.9150 N   0  0  0  0  0  2  0  0  0  0  0  0
  187.0090  177.4930  144.1180 C   0  0  0  0  0  2  0  0  0  0  0  0
  186.0140  178.2740  143.2720 C   0  0  0  0  0  2  0  0  0  0  0  0
  184.7220  178.2180  143.8190 O   0  0  0  0  0  0  0  0  0  0  0  0
  181.4810  179.0890  142.0660 C   0  0  0  0  0  0  0  0  0  0  0  0
  182.8090  180.2960  143.6450 O   0  0  0  0  0  1  0  0  0  0  0  0
  184.5340  178.9770  141.5270 C   0  0  0  0  0  2  0  0  0  0  0  0
  181.1430  177.9170  141.1710 C   0  0  0  0  0  2  0  0  0  0  0  0
  183.3240  178.1350  139.7840 C   0  0  1  0  0  3  0  0  0  0  0  0
  181.8990  178.2180  144.3240 C   0  0  0  0  0  1  0  0  0  0  0  0
  180.8530  180.1240  141.9050 O   0  0  0  0  0  0  0  0  0  0  0  0
  183.6340  179.3080  140.4980 O   0  0  0  0  0  0  0  0  0  0  0  0
  182.3570  177.2140  140.5520 C   0  0  0  0  0  2  0  0  0  0  0  0
  182.5150  179.0090  143.1820 C   0  0  1  0  0  0  0  0  0  0  0  0
  183.8300  178.3230  142.7400 C   0  0  2  0  0  3  0  0  0  0  0  0
  182.7590  178.4770  138.5570 O   0  0  0  0  0  1  0  0  0  0  0  0
  187.5980  177.2720  139.3000 C   0  0  0  0  0  2  0  0  0  0  0  0
  186.7650  178.5200  139.0670 C   0  0  0  0  0  2  0  0  0  0  0  0
  186.5180  178.6780  137.7010 O   0  0  0  0  0  1  0  0  0  0  0  0
  1 10  1  0  0  0  0
  2 12  1  6  0  0  0
  2  3  1  0  0  0  0
  3  5  1  1  0  0  0
  3  9  1  0  0  0  0
  4 14  1  1  0  0  0
  4 12  1  0  0  0  0
  4  8  1  0  0  0  0
  6 54  1  6  0  0  0
  6  7  1  0  0  0  0
  7  2  1  0  0  0  0
  7  1  1  1  0  0  0
  8  6  1  0  0  0  0
  9 11  1  0  0  0  0
  9 35  1  6  0  0  0
 10 11  1  0  0  0  0
 13 14  1  0  0  0  0
 15 13  2  0  0  0  0
 16 22  1  0  0  0  0
 16 13  1  0  0  0  0
 17 18  1  0  0  0  0
 18 20  2  0  0  0  0
 18 23  1  0  0  0  0
 19 22  1  0  0  0  0
 19 17  2  0  0  0  0
 21 20  1  0  0  0  0
 22 21  2  0  0  0  0
 23 29  1  6  0  0  0
 25 26  1  0  0  0  0
 25 28  2  0  0  0  0
 26 27  1  0  0  0  0
 27 24  2  0  0  0  0
 27 23  1  0  0  0  0
 28 24  1  0  0  0  0
 30 31  1  0  0  0  0
 30 29  1  0  0  0  0
 31 33  1  0  0  0  0
 33 32  1  0  0  0  0
 35 34  1  1  0  0  0
 35 36  1  0  0  0  0
 36 37  1  1  0  0  0
 38 36  1  0  0  0  0
 39 38  1  0  0  0  0
 40 41  1  0  0  0  0
 40 39  1  0  0  0  0
 42 51  1  0  0  0  0
 44 52  1  0  0  0  0
 45 42  1  0  0  0  0
 46 53  1  6  0  0  0
 46 49  1  0  0  0  0
 46 50  1  0  0  0  0
 48 42  2  0  0  0  0
 49 44  1  0  0  0  0
 50 45  1  0  0  0  0
 51 43  1  0  0  0  0
 51 47  1  1  0  0  0
 52 51  1  0  0  0  0
 52 41  1  1  0  0  0
 55 54  1  0  0  0  0
 56 55  1  0  0  0  0
M  END
>  <MODEL>
9

>  <REMARK>
 VINA RESULT:      -5.4      2.461      7.154
  Name = 
  18 active torsions:
  status: ('A' for Active; 'I' for Inactive)
    1  A    between atoms: C_5  and  C_31
    2  A    between atoms: N_7  and  C_29
    3  A    between atoms: C_11  and  C_27
    4  A    between atoms: C_12  and  C_33
    5  A    between atoms: C_12  and  N_50
    6  A    between atoms: C_16  and  N_50
    7  A    between atoms: C_16  and  C_53
    8  A    between atoms: C_19  and  C_22
    9  A    between atoms: C_19  and  C_38
   10  A    between atoms: C_22  and  C_37
   11  A    between atoms: C_25  and  C_37
   12  A    between atoms: C_27  and  C_41
   13  A    between atoms: C_31  and  C_52
   14  A    between atoms: C_32  and  C_37
   15  A    between atoms: C_33  and  C_46
   16  A    between atoms: C_38  and  C_42
   17  A    between atoms: C_47  and  O_56
   18  A    between atoms: C_53  and  O_56
                            x       y       z     vdW  Elec       q    Type
                         _______ _______ _______ _____ _____    ______ ____

>  <TORSDO>
F 18

$$$$
