=
 OpenBabel10222415463D

 44 50  0  0  1  0  0  0  0  0999 V2000
  186.9780  178.1530  142.5300 C   0  0  2  0  0  3  0  0  0  0  0  0
  187.9110  177.8030  141.6060 C   0  0  0  0  0  0  0  0  0  0  0  0
  185.6930  178.7120  142.1700 N   0  0  2  0  0  0  0  0  0  0  0  0
  186.0600  178.0320  144.8780 C   0  0  0  0  0  0  0  0  0  0  0  0
  190.0760  177.3760  137.6060 N   0  0  0  0  0  0  0  0  0  0  0  0
  187.3170  178.0670  144.0150 C   0  0  1  0  0  3  0  0  0  0  0  0
  189.8680  177.0660  139.7540 C   0  0  0  0  0  0  0  0  0  0  0  0
  188.9530  177.9320  137.9350 C   0  0  0  0  0  0  0  0  0  0  0  0
  184.9880  178.6390  144.4610 N   0  0  0  0  0  0  0  0  0  0  0  0
  184.9420  179.4020  143.2160 C   0  0  0  0  0  2  0  0  0  0  0  0
  190.0510  176.6840  141.0780 C   0  0  0  0  0  3  0  0  0  0  0  0
  189.0680  177.0620  142.0110 C   0  0  0  0  0  0  0  0  0  0  0  0
  189.1800  176.5690  143.3900 C   0  0  0  0  0  3  0  0  0  0  0  0
  188.7660  177.7660  139.3590 C   0  0  0  0  0  0  0  0  0  0  0  0
  190.6540  176.8150  138.7600 N   0  0  0  0  0  2  0  0  0  0  0  0
  186.0250  177.4590  146.1930 N   0  0  0  0  0  2  0  0  0  0  0  0
  187.7680  178.1530  140.2430 C   0  0  0  0  0  3  0  0  0  0  0  0
  188.3270  176.9920  144.3180 C   0  0  0  0  0  3  0  0  0  0  0  0
  185.0240  179.4050  139.8920 C   0  0  2  0  0  3  0  0  0  0  0  0
  183.9000  179.4090  138.8440 C   0  0  1  0  0  3  0  0  0  0  0  0
  185.2310  178.7630  138.5290 C   0  0  0  0  0  2  0  0  0  0  0  0
  183.0030  177.2480  140.0030 C   0  0  0  0  0  2  0  0  0  0  0  0
  182.7650  178.3670  138.9890 C   0  0  1  0  0  3  0  0  0  0  0  0
  184.9890  178.2990  140.9550 C   0  0  2  0  0  3  0  0  0  0  0  0
  183.5900  177.8140  141.2780 C   0  0  0  0  0  2  0  0  0  0  0  0
  181.2360  178.9210  136.8600 O   0  0  0  0  0  1  0  0  0  0  0  0
  180.6990  179.2440  138.1130 C   0  0  2  0  0  0  0  0  0  0  0  0
  181.5090  179.0470  139.2950 N   0  0  1  0  0  0  0  0  0  0  0  0
  180.4820  178.1800  138.9180 O   0  0  0  0  0  0  0  0  0  0  0  0
  179.6810  180.2790  138.2100 N   0  0  0  0  0  2  0  0  0  0  0  0
  179.7740  181.5460  137.5510 C   0  0  0  0  0  0  0  0  0  0  0  0
  178.9320  181.8650  136.1800 S   0  0  0  0  0  0  0  0  0  0  0  0
  180.6260  183.8370  137.2470 C   0  0  0  0  0  1  0  0  0  0  0  0
  180.7120  182.5730  138.0820 C   0  0  0  0  0  2  0  0  0  0  0  0
  187.1790  177.0010  146.9520 C   0  0  0  0  0  2  0  0  0  0  0  0
  187.7670  178.1400  147.7100 C   0  0  0  0  0  0  0  0  0  0  0  0
  187.0650  179.0860  148.0340 O   0  0  0  0  0  0  0  0  0  0  0  0
  189.2130  178.1160  148.0770 C   0  0  0  0  0  2  0  0  0  0  0  0
  189.8570  176.8180  147.6160 C   0  0  0  0  0  2  0  0  0  0  0  0
  191.0670  177.1090  146.7470 C   0  0  0  0  0  2  0  0  0  0  0  0
  192.0130  175.9210  146.7410 C   0  0  0  0  0  1  0  0  0  0  0  0
  188.0730  178.6800  136.9880 C   0  0  0  0  0  2  0  0  0  0  0  0
  186.9980  176.6780  136.0650 C   0  0  0  0  0  2  0  0  0  0  0  0
  187.6630  177.8100  135.8460 C   0  0  0  0  0  3  0  0  0  0  0  0
  1  2  1  6  0  0  0
  1  6  1  0  0  0  0
  2 12  1  0  0  0  0
  3  1  1  0  0  0  0
  3 10  1  1  0  0  0
  4 16  1  0  0  0  0
  5  8  2  0  0  0  0
  5 15  1  0  0  0  0
  6 18  1  6  0  0  0
  6  4  1  0  0  0  0
  7 11  1  0  0  0  0
  8 14  1  0  0  0  0
  9  4  2  0  0  0  0
 10  9  1  0  0  0  0
 11 12  2  0  0  0  0
 12 13  1  0  0  0  0
 13 18  2  0  0  0  0
 14  7  2  0  0  0  0
 14 17  1  0  0  0  0
 15  7  1  0  0  0  0
 16 35  1  0  0  0  0
 17  2  2  0  0  0  0
 19 21  1  6  0  0  0
 19 24  1  0  0  0  0
 20 21  1  6  0  0  0
 20 23  1  0  0  0  0
 20 19  1  0  0  0  0
 22 25  1  0  0  0  0
 23 28  1  0  0  0  0
 23 22  1  1  0  0  0
 24 25  1  1  0  0  0
 24  3  1  0  0  0  0
 27 26  1  6  0  0  0
 27 30  1  0  0  0  0
 27 29  1  0  0  0  0
 27 28  1  0  0  0  0
 28 29  1  1  0  0  0
 31 34  1  0  0  0  0
 31 30  1  0  0  0  0
 32 31  2  0  0  0  0
 33 34  1  0  0  0  0
 35 36  1  0  0  0  0
 36 37  2  0  0  0  0
 36 38  1  0  0  0  0
 39 38  1  0  0  0  0
 40 39  1  0  0  0  0
 41 40  1  0  0  0  0
 42  8  1  0  0  0  0
 44 43  2  0  0  0  0
 44 42  1  0  0  0  0
M  END
>  <MODEL>
1

>  <REMARK>
 VINA RESULT:      -7.9      0.000      0.000
  Name = 
  12 active torsions:
  status: ('A' for Active; 'I' for Inactive)
    1  A    between atoms: N_4  and  C_41
    2  A    between atoms: C_5  and  N_9
    3  A    between atoms: C_5  and  C_17
    4  A    between atoms: C_8  and  C_11
    5  A    between atoms: C_8  and  C_14
    6  A    between atoms: N_9  and  C_21
    7  A    between atoms: C_11  and  C_38
    8  A    between atoms: C_12  and  C_38
    9  A    between atoms: C_14  and  N_35
   10  A    between atoms: C_19  and  C_23
   11  A    between atoms: C_23  and  C_40
   12  A    between atoms: N_30  and  C_39
                            x       y       z     vdW  Elec       q    Type
                         _______ _______ _______ _____ _____    ______ ____

>  <TORSDO>
F 12

$$$$
=
 OpenBabel10222415463D

 44 50  0  0  1  0  0  0  0  0999 V2000
  186.0080  178.2460  139.2020 C   0  0  2  0  0  3  0  0  0  0  0  0
  187.3040  177.9280  138.9440 C   0  0  0  0  0  0  0  0  0  0  0  0
  184.9450  178.0360  138.2430 N   0  0  2  0  0  0  0  0  0  0  0  0
  184.1690  178.8070  140.8380 C   0  0  0  0  0  0  0  0  0  0  0  0
  191.0780  176.6960  136.6830 N   0  0  0  0  0  0  0  0  0  0  0  0
  185.6500  178.9540  140.5050 C   0  0  1  0  0  3  0  0  0  0  0  0
  189.9830  177.2970  138.4710 C   0  0  0  0  0  0  0  0  0  0  0  0
  189.8470  176.8480  136.3090 C   0  0  0  0  0  0  0  0  0  0  0  0
  183.3100  178.6950  139.8680 N   0  0  0  0  0  0  0  0  0  0  0  0
  183.6920  178.7540  138.4590 C   0  0  0  0  0  2  0  0  0  0  0  0
  189.6160  177.6340  139.7680 C   0  0  0  0  0  3  0  0  0  0  0  0
  188.2670  177.9590  140.0040 C   0  0  0  0  0  0  0  0  0  0  0  0
  187.8330  178.2030  141.3860 C   0  0  0  0  0  3  0  0  0  0  0  0
  189.0710  177.2580  137.4580 C   0  0  0  0  0  0  0  0  0  0  0  0
  191.1650  176.9710  138.0610 N   0  0  0  0  0  2  0  0  0  0  0  0
  183.6500  178.9000  142.1720 N   0  0  0  0  0  2  0  0  0  0  0  0
  187.7300  177.5630  137.6460 C   0  0  0  0  0  3  0  0  0  0  0  0
  186.5920  178.6130  141.6290 C   0  0  0  0  0  3  0  0  0  0  0  0
  184.3240  177.2680  135.9760 C   0  0  2  0  0  3  0  0  0  0  0  0
  183.7240  176.1250  135.1420 C   0  0  1  0  0  3  0  0  0  0  0  0
  185.1300  176.6110  134.8660 C   0  0  0  0  0  2  0  0  0  0  0  0
  184.5350  174.5110  137.0270 C   0  0  0  0  0  2  0  0  0  0  0  0
  183.7060  174.7050  135.7570 C   0  0  1  0  0  3  0  0  0  0  0  0
  184.9550  176.8970  137.3240 C   0  0  2  0  0  3  0  0  0  0  0  0
  184.3280  175.6760  137.9700 C   0  0  0  0  0  2  0  0  0  0  0  0
  182.9950  172.3990  134.5940 O   0  0  0  0  0  1  0  0  0  0  0  0
  182.0350  173.0050  135.4150 C   0  0  2  0  0  0  0  0  0  0  0  0
  182.3270  174.2930  136.0040 N   0  0  1  0  0  0  0  0  0  0  0  0
  182.3890  173.0940  136.7160 O   0  0  0  0  0  0  0  0  0  0  0  0
  180.6250  172.7130  135.2020 N   0  0  0  0  0  2  0  0  0  0  0  0
  179.7670  172.1710  136.2090 C   0  0  0  0  0  0  0  0  0  0  0  0
  178.9470  173.1360  137.2510 S   0  0  0  0  0  0  0  0  0  0  0  0
  179.6950  170.0260  135.0000 C   0  0  0  0  0  1  0  0  0  0  0  0
  179.6710  170.6920  136.3620 C   0  0  0  0  0  2  0  0  0  0  0  0
  184.3990  179.3120  143.3490 C   0  0  0  0  0  2  0  0  0  0  0  0
  183.6750  178.8910  144.5810 C   0  0  0  0  0  0  0  0  0  0  0  0
  182.4670  178.7120  144.5470 O   0  0  0  0  0  0  0  0  0  0  0  0
  184.4330  178.6830  145.8490 C   0  0  0  0  0  2  0  0  0  0  0  0
  185.9270  178.8140  145.6030 C   0  0  0  0  0  2  0  0  0  0  0  0
  186.6120  177.4730  145.7950 C   0  0  0  0  0  2  0  0  0  0  0  0
  187.9400  177.4450  145.0570 C   0  0  0  0  0  1  0  0  0  0  0  0
  189.3690  176.6960  134.9020 C   0  0  0  0  0  2  0  0  0  0  0  0
  189.1140  174.2700  135.1570 C   0  0  0  0  0  2  0  0  0  0  0  0
  188.6030  175.4250  134.7370 C   0  0  0  0  0  3  0  0  0  0  0  0
  1  2  1  6  0  0  0
  1  6  1  0  0  0  0
  2 12  1  0  0  0  0
  3 10  1  1  0  0  0
  3  1  1  0  0  0  0
  4 16  1  0  0  0  0
  5 15  1  0  0  0  0
  6  4  1  0  0  0  0
  6 18  1  1  0  0  0
  7 11  1  0  0  0  0
  8  5  2  0  0  0  0
  8 14  1  0  0  0  0
  9  4  2  0  0  0  0
 10  9  1  0  0  0  0
 11 12  2  0  0  0  0
 12 13  1  0  0  0  0
 13 18  2  0  0  0  0
 14 17  1  0  0  0  0
 14  7  2  0  0  0  0
 15  7  1  0  0  0  0
 16 35  1  0  0  0  0
 17  2  2  0  0  0  0
 19 21  1  6  0  0  0
 19 24  1  0  0  0  0
 20 21  1  6  0  0  0
 20 23  1  0  0  0  0
 20 19  1  0  0  0  0
 22 25  1  0  0  0  0
 23 28  1  0  0  0  0
 23 22  1  1  0  0  0
 24 25  1  1  0  0  0
 24  3  1  0  0  0  0
 27 26  1  6  0  0  0
 27 28  1  0  0  0  0
 27 29  1  0  0  0  0
 28 29  1  1  0  0  0
 30 27  1  0  0  0  0
 30 31  1  0  0  0  0
 31 34  1  0  0  0  0
 31 32  2  0  0  0  0
 33 34  1  0  0  0  0
 35 36  1  0  0  0  0
 36 38  1  0  0  0  0
 37 36  2  0  0  0  0
 39 40  1  0  0  0  0
 39 38  1  0  0  0  0
 41 40  1  0  0  0  0
 42  8  1  0  0  0  0
 44 42  1  0  0  0  0
 44 43  2  0  0  0  0
M  END
>  <MODEL>
2

>  <REMARK>
 VINA RESULT:      -7.1      3.907      5.405
  Name = 
  12 active torsions:
  status: ('A' for Active; 'I' for Inactive)
    1  A    between atoms: N_4  and  C_41
    2  A    between atoms: C_5  and  N_9
    3  A    between atoms: C_5  and  C_17
    4  A    between atoms: C_8  and  C_11
    5  A    between atoms: C_8  and  C_14
    6  A    between atoms: N_9  and  C_21
    7  A    between atoms: C_11  and  C_38
    8  A    between atoms: C_12  and  C_38
    9  A    between atoms: C_14  and  N_35
   10  A    between atoms: C_19  and  C_23
   11  A    between atoms: C_23  and  C_40
   12  A    between atoms: N_30  and  C_39
                            x       y       z     vdW  Elec       q    Type
                         _______ _______ _______ _____ _____    ______ ____

>  <TORSDO>
F 12

$$$$
=
 OpenBabel10222415463D

 44 50  0  0  1  0  0  0  0  0999 V2000
  191.8680  175.7990  138.1800 C   0  0  2  0  0  3  0  0  0  0  0  0
  190.8700  175.2230  137.4600 C   0  0  0  0  0  0  0  0  0  0  0  0
  191.6250  176.8180  139.1780 N   0  0  2  0  0  0  0  0  0  0  0  0
  194.2450  175.7990  139.0280 C   0  0  0  0  0  0  0  0  0  0  0  0
  186.7370  174.4170  135.6870 N   0  0  0  0  0  0  0  0  0  0  0  0
  193.3220  175.4560  137.8650 C   0  0  1  0  0  3  0  0  0  0  0  0
  188.8620  174.0030  135.9490 C   0  0  0  0  0  0  0  0  0  0  0  0
  187.1700  175.3100  136.5210 C   0  0  0  0  0  0  0  0  0  0  0  0
  193.9370  176.7900  139.8120 N   0  0  0  0  0  0  0  0  0  0  0  0
  192.7620  177.6320  139.6010 C   0  0  0  0  0  2  0  0  0  0  0  0
  190.1390  173.4580  135.8910 C   0  0  0  0  0  3  0  0  0  0  0  0
  191.1520  174.0770  136.6470 C   0  0  0  0  0  0  0  0  0  0  0  0
  192.4790  173.4500  136.6940 C   0  0  0  0  0  3  0  0  0  0  0  0
  188.5840  175.0900  136.7260 C   0  0  0  0  0  0  0  0  0  0  0  0
  187.8100  173.5780  135.3310 N   0  0  0  0  0  0  0  0  0  0  0  0
  195.5100  175.1570  139.2440 N   0  0  0  0  0  2  0  0  0  0  0  0
  189.5490  175.7280  137.4930 C   0  0  0  0  0  2  0  0  0  0  0  0
  193.4820  174.0640  137.3130 C   0  0  0  0  0  3  0  0  0  0  0  0
  189.8040  178.2070  140.1130 C   0  0  2  0  0  3  0  0  0  0  0  0
  188.9410  178.5060  141.3490 C   0  0  1  0  0  3  0  0  0  0  0  0
  188.2900  178.0770  140.0530 C   0  0  0  0  0  2  0  0  0  0  0  0
  189.3740  176.0360  142.0760 C   0  0  0  0  0  2  0  0  0  0  0  0
  188.8360  177.4180  142.4450 C   0  0  1  0  0  3  0  0  0  0  0  0
  190.4200  176.8050  140.0090 C   0  0  2  0  0  3  0  0  0  0  0  0
  190.6980  176.1660  141.3560 C   0  0  0  0  0  2  0  0  0  0  0  0
  187.5200  176.8430  144.7070 O   0  0  0  0  0  1  0  0  0  0  0  0
  188.7630  177.4740  144.8520 C   0  0  2  0  0  0  0  0  0  0  0  0
  189.4830  177.8860  143.6670 N   0  0  1  0  0  0  0  0  0  0  0  0
  189.8120  176.7480  144.4060 O   0  0  0  0  0  0  0  0  0  0  0  0
  189.0390  178.2400  146.0580 N   0  0  0  0  0  2  0  0  0  0  0  0
  189.3990  177.6470  147.3090 C   0  0  0  0  0  0  0  0  0  0  0  0
  190.8820  176.9910  147.5540 S   0  0  0  0  0  0  0  0  0  0  0  0
  187.1650  178.3920  148.0290 C   0  0  0  0  0  1  0  0  0  0  0  0
  188.3790  177.5570  148.3900 C   0  0  0  0  0  2  0  0  0  0  0  0
  196.1660  174.2420  138.3220 C   0  0  0  0  0  2  0  0  0  0  0  0
  197.4660  174.8190  137.8780 C   0  0  0  0  0  0  0  0  0  0  0  0
  198.0960  175.5510  138.6260 O   0  0  0  0  0  0  0  0  0  0  0  0
  197.9940  174.4940  136.5210 C   0  0  0  0  0  2  0  0  0  0  0  0
  196.9580  174.8170  135.4560 C   0  0  0  0  0  2  0  0  0  0  0  0
  196.8830  176.3160  135.2320 C   0  0  0  0  0  2  0  0  0  0  0  0
  195.4350  176.7640  135.1220 C   0  0  0  0  0  1  0  0  0  0  0  0
  186.3350  176.4120  137.0850 C   0  0  0  0  0  2  0  0  0  0  0  0
  187.2250  178.2690  135.7510 C   0  0  0  0  0  2  0  0  0  0  0  0
  186.1810  177.5190  136.0950 C   0  0  0  0  0  3  0  0  0  0  0  0
  1  2  1  6  0  0  0
  1  3  1  0  0  0  0
  2 17  1  0  0  0  0
  3 10  1  1  0  0  0
  3 24  1  0  0  0  0
  4 16  1  0  0  0  0
  4  9  2  0  0  0  0
  5  8  1  0  0  0  0
  6 18  1  1  0  0  0
  6  1  1  0  0  0  0
  6  4  1  0  0  0  0
  7 14  1  0  0  0  0
  8 14  2  0  0  0  0
  8 42  1  0  0  0  0
 10  9  1  0  0  0  0
 11  7  2  0  0  0  0
 11 12  1  0  0  0  0
 12 13  1  0  0  0  0
 12  2  2  0  0  0  0
 13 18  2  0  0  0  0
 14 17  1  0  0  0  0
 15  5  2  0  0  0  0
 15  7  1  0  0  0  0
 19 21  1  6  0  0  0
 19 20  1  0  0  0  0
 20 21  1  6  0  0  0
 20 23  1  0  0  0  0
 23 22  1  6  0  0  0
 23 28  1  0  0  0  0
 24 19  1  0  0  0  0
 24 25  1  1  0  0  0
 25 22  1  0  0  0  0
 27 26  1  6  0  0  0
 27 30  1  0  0  0  0
 28 29  1  1  0  0  0
 28 27  1  0  0  0  0
 29 27  1  0  0  0  0
 30 31  1  0  0  0  0
 31 32  2  0  0  0  0
 31 34  1  0  0  0  0
 33 34  1  0  0  0  0
 35 16  1  0  0  0  0
 36 35  1  0  0  0  0
 36 37  2  0  0  0  0
 38 36  1  0  0  0  0
 39 38  1  0  0  0  0
 40 39  1  0  0  0  0
 41 40  1  0  0  0  0
 43 44  2  0  0  0  0
 44 42  1  0  0  0  0
M  END
>  <MODEL>
3

>  <REMARK>
 VINA RESULT:      -7.0      5.373      9.579
  Name = 
  12 active torsions:
  status: ('A' for Active; 'I' for Inactive)
    1  A    between atoms: N_4  and  C_41
    2  A    between atoms: C_5  and  N_9
    3  A    between atoms: C_5  and  C_17
    4  A    between atoms: C_8  and  C_11
    5  A    between atoms: C_8  and  C_14
    6  A    between atoms: N_9  and  C_21
    7  A    between atoms: C_11  and  C_38
    8  A    between atoms: C_12  and  C_38
    9  A    between atoms: C_14  and  N_35
   10  A    between atoms: C_19  and  C_23
   11  A    between atoms: C_23  and  C_40
   12  A    between atoms: N_30  and  C_39
                            x       y       z     vdW  Elec       q    Type
                         _______ _______ _______ _____ _____    ______ ____

>  <TORSDO>
F 12

$$$$
=
 OpenBabel10222415463D

 44 50  0  0  1  0  0  0  0  0999 V2000
  186.6670  178.3820  140.4800 C   0  0  2  0  0  3  0  0  0  0  0  0
  186.9750  178.0920  141.7720 C   0  0  0  0  0  0  0  0  0  0  0  0
  187.6290  178.2770  139.4040 N   0  0  2  0  0  0  0  0  0  0  0  0
  184.9560  178.7670  138.6660 C   0  0  0  0  0  0  0  0  0  0  0  0
  189.4080  177.1060  145.5110 N   0  0  0  0  0  0  0  0  0  0  0  0
  185.2910  178.9480  140.1410 C   0  0  1  0  0  3  0  0  0  0  0  0
  187.5510  177.5130  144.4430 C   0  0  0  0  0  0  0  0  0  0  0  0
  189.7470  177.2970  144.2760 C   0  0  0  0  0  0  0  0  0  0  0  0
  185.9200  178.7590  137.7930 N   0  0  0  0  0  0  0  0  0  0  0  0
  187.3200  178.9680  138.1550 C   0  0  0  0  0  2  0  0  0  0  0  0
  186.2200  177.7110  144.0940 C   0  0  0  0  0  3  0  0  0  0  0  0
  185.9320  178.0090  142.7490 C   0  0  0  0  0  0  0  0  0  0  0  0
  184.5270  178.1050  142.3350 C   0  0  0  0  0  3  0  0  0  0  0  0
  188.5500  177.5840  143.5170 C   0  0  0  0  0  0  0  0  0  0  0  0
  188.0100  177.2320  145.6180 N   0  0  0  0  0  2  0  0  0  0  0  0
  183.6120  178.7170  138.1640 N   0  0  0  0  0  2  0  0  0  0  0  0
  188.3110  177.8680  142.1790 C   0  0  0  0  0  3  0  0  0  0  0  0
  184.2230  178.4880  141.0990 C   0  0  0  0  0  3  0  0  0  0  0  0
  190.0340  177.8270  139.7630 C   0  0  2  0  0  3  0  0  0  0  0  0
  191.2760  177.0780  139.2540 C   0  0  1  0  0  3  0  0  0  0  0  0
  190.7630  176.8350  140.6560 C   0  0  0  0  0  2  0  0  0  0  0  0
  189.6310  175.3290  138.2310 C   0  0  0  0  0  2  0  0  0  0  0  0
  191.0630  175.8540  138.3320 C   0  0  1  0  0  3  0  0  0  0  0  0
  188.6630  177.2410  139.3980 C   0  0  2  0  0  3  0  0  0  0  0  0
  188.6600  176.4800  138.0870 C   0  0  0  0  0  2  0  0  0  0  0  0
  193.5460  174.9710  137.8550 O   0  0  0  0  0  1  0  0  0  0  0  0
  192.8830  175.5770  136.7800 C   0  0  2  0  0  0  0  0  0  0  0  0
  191.5730  176.1490  136.9960 N   0  0  1  0  0  0  0  0  0  0  0  0
  191.7770  174.9200  136.3660 O   0  0  0  0  0  0  0  0  0  0  0  0
  193.6610  176.1690  135.7010 N   0  0  0  0  0  2  0  0  0  0  0  0
  194.8520  175.5820  135.1690 C   0  0  0  0  0  0  0  0  0  0  0  0
  194.9220  173.9950  134.7620 S   0  0  0  0  0  0  0  0  0  0  0  0
  195.7060  177.8830  134.9600 C   0  0  0  0  0  1  0  0  0  0  0  0
  196.0810  176.4160  135.0500 C   0  0  0  0  0  2  0  0  0  0  0  0
  182.4090  179.0020  138.9310 C   0  0  0  0  0  2  0  0  0  0  0  0
  181.6150  180.0620  138.2480 C   0  0  0  0  0  0  0  0  0  0  0  0
  180.7580  179.7530  137.4340 O   0  0  0  0  0  0  0  0  0  0  0  0
  181.8680  181.4970  138.5690 C   0  0  0  0  0  2  0  0  0  0  0  0
  181.0080  182.3960  137.6970 C   0  0  0  0  0  2  0  0  0  0  0  0
  181.7000  183.7290  137.4720 C   0  0  0  0  0  2  0  0  0  0  0  0
  180.7930  184.6740  136.7010 C   0  0  0  0  0  1  0  0  0  0  0  0
  191.1550  177.2970  143.7780 C   0  0  0  0  0  2  0  0  0  0  0  0
  191.2650  179.7360  144.0200 C   0  0  0  0  0  2  0  0  0  0  0  0
  191.8570  178.5540  144.1740 C   0  0  0  0  0  3  0  0  0  0  0  0
  1  2  1  1  0  0  0
  2 17  2  0  0  0  0
  2 12  1  0  0  0  0
  3 10  1  6  0  0  0
  3  1  1  0  0  0  0
  4  6  1  0  0  0  0
  5 15  1  0  0  0  0
  6  1  1  0  0  0  0
  6 18  1  1  0  0  0
  7 15  1  0  0  0  0
  8  5  2  0  0  0  0
  9 10  1  0  0  0  0
  9  4  2  0  0  0  0
 11  7  1  0  0  0  0
 12 11  2  0  0  0  0
 13 12  1  0  0  0  0
 14  8  1  0  0  0  0
 14  7  2  0  0  0  0
 16  4  1  0  0  0  0
 16 35  1  0  0  0  0
 17 14  1  0  0  0  0
 18 13  2  0  0  0  0
 19 21  1  1  0  0  0
 20 19  1  0  0  0  0
 20 21  1  1  0  0  0
 23 22  1  6  0  0  0
 23 20  1  0  0  0  0
 24 25  1  6  0  0  0
 24  3  1  0  0  0  0
 24 19  1  0  0  0  0
 25 22  1  0  0  0  0
 27 28  1  0  0  0  0
 27 26  1  1  0  0  0
 28 29  1  6  0  0  0
 28 23  1  0  0  0  0
 29 27  1  0  0  0  0
 30 27  1  0  0  0  0
 31 30  1  0  0  0  0
 32 31  2  0  0  0  0
 33 34  1  0  0  0  0
 34 31  1  0  0  0  0
 36 38  1  0  0  0  0
 36 35  1  0  0  0  0
 37 36  2  0  0  0  0
 39 38  1  0  0  0  0
 40 39  1  0  0  0  0
 41 40  1  0  0  0  0
 42 44  1  0  0  0  0
 42  8  1  0  0  0  0
 43 44  2  0  0  0  0
M  END
>  <MODEL>
4

>  <REMARK>
 VINA RESULT:      -7.0      4.604      9.858
  Name = 
  12 active torsions:
  status: ('A' for Active; 'I' for Inactive)
    1  A    between atoms: N_4  and  C_41
    2  A    between atoms: C_5  and  N_9
    3  A    between atoms: C_5  and  C_17
    4  A    between atoms: C_8  and  C_11
    5  A    between atoms: C_8  and  C_14
    6  A    between atoms: N_9  and  C_21
    7  A    between atoms: C_11  and  C_38
    8  A    between atoms: C_12  and  C_38
    9  A    between atoms: C_14  and  N_35
   10  A    between atoms: C_19  and  C_23
   11  A    between atoms: C_23  and  C_40
   12  A    between atoms: N_30  and  C_39
                            x       y       z     vdW  Elec       q    Type
                         _______ _______ _______ _____ _____    ______ ____

>  <TORSDO>
F 12

$$$$
=
 OpenBabel10222415463D

 44 50  0  0  1  0  0  0  0  0999 V2000
  186.7260  178.3630  140.6230 C   0  0  2  0  0  3  0  0  0  0  0  0
  187.0860  178.0650  141.9000 C   0  0  0  0  0  0  0  0  0  0  0  0
  187.6490  178.2820  139.5120 N   0  0  2  0  0  0  0  0  0  0  0  0
  184.9450  178.7430  138.8770 C   0  0  0  0  0  0  0  0  0  0  0  0
  189.6660  177.0750  145.5370 N   0  0  0  0  0  0  0  0  0  0  0  0
  185.3310  178.9140  140.3410 C   0  0  1  0  0  3  0  0  0  0  0  0
  187.7660  177.4670  144.5420 C   0  0  0  0  0  0  0  0  0  0  0  0
  189.9570  177.2830  144.2920 C   0  0  0  0  0  0  0  0  0  0  0  0
  185.8760  178.7580  137.9690 N   0  0  0  0  0  0  0  0  0  0  0  0
  187.2850  178.9820  138.2820 C   0  0  0  0  0  2  0  0  0  0  0  0
  186.4210  177.6500  144.2440 C   0  0  0  0  0  3  0  0  0  0  0  0
  186.0800  177.9580  142.9140 C   0  0  0  0  0  0  0  0  0  0  0  0
  184.6590  178.0400  142.5520 C   0  0  0  0  0  3  0  0  0  0  0  0
  188.7290  177.5610  143.5810 C   0  0  0  0  0  0  0  0  0  0  0  0
  188.2710  177.1810  145.6960 N   0  0  0  0  0  2  0  0  0  0  0  0
  183.5840  178.6810  138.4240 N   0  0  0  0  0  2  0  0  0  0  0  0
  188.4380  177.8550  142.2550 C   0  0  0  0  0  3  0  0  0  0  0  0
  184.3060  178.4300  141.3320 C   0  0  0  0  0  3  0  0  0  0  0  0
  190.0840  177.8800  139.6700 C   0  0  2  0  0  3  0  0  0  0  0  0
  191.2880  177.1250  139.0840 C   0  0  1  0  0  3  0  0  0  0  0  0
  190.9070  176.9390  140.5360 C   0  0  0  0  0  2  0  0  0  0  0  0
  189.5870  175.3100  138.2920 C   0  0  0  0  0  2  0  0  0  0  0  0
  191.0130  175.8580  138.2400 C   0  0  1  0  0  3  0  0  0  0  0  0
  188.6960  177.2610  139.4570 C   0  0  2  0  0  3  0  0  0  0  0  0
  188.5880  176.4420  138.1860 C   0  0  0  0  0  2  0  0  0  0  0  0
  193.2920  174.6740  137.4780 O   0  0  0  0  0  1  0  0  0  0  0  0
  192.5890  175.3680  136.4850 C   0  0  2  0  0  0  0  0  0  0  0  0
  191.3950  176.0990  136.8510 N   0  0  1  0  0  0  0  0  0  0  0  0
  191.3680  174.8600  136.2080 O   0  0  0  0  0  0  0  0  0  0  0  0
  193.3030  175.8680  135.3190 N   0  0  0  0  0  2  0  0  0  0  0  0
  194.7250  176.0150  135.2640 C   0  0  0  0  0  0  0  0  0  0  0  0
  195.4310  177.4830  135.0760 S   0  0  0  0  0  0  0  0  0  0  0  0
  197.0380  175.1920  135.4600 C   0  0  0  0  0  1  0  0  0  0  0  0
  195.5820  174.7970  135.3050 C   0  0  0  0  0  2  0  0  0  0  0  0
  182.4060  178.9410  139.2370 C   0  0  0  0  0  2  0  0  0  0  0  0
  181.5150  177.7470  139.2300 C   0  0  0  0  0  0  0  0  0  0  0  0
  181.7460  176.8180  138.4710 O   0  0  0  0  0  0  0  0  0  0  0  0
  180.3460  177.6920  140.1560 C   0  0  0  0  0  2  0  0  0  0  0  0
  180.4570  178.7730  141.2180 C   0  0  0  0  0  2  0  0  0  0  0  0
  180.3130  178.1680  142.6030 C   0  0  0  0  0  2  0  0  0  0  0  0
  181.0580  179.0070  143.6280 C   0  0  0  0  0  1  0  0  0  0  0  0
  191.3460  177.3060  143.7430 C   0  0  0  0  0  2  0  0  0  0  0  0
  191.3020  179.7490  143.9690 C   0  0  0  0  0  2  0  0  0  0  0  0
  192.0020  178.6180  144.0210 C   0  0  0  0  0  3  0  0  0  0  0  0
  1  2  1  1  0  0  0
  2 17  2  0  0  0  0
  2 12  1  0  0  0  0
  3 10  1  6  0  0  0
  3  1  1  0  0  0  0
  4  6  1  0  0  0  0
  5 15  1  0  0  0  0
  6  1  1  0  0  0  0
  6 18  1  1  0  0  0
  7 15  1  0  0  0  0
  8  5  2  0  0  0  0
  9 10  1  0  0  0  0
  9  4  2  0  0  0  0
 11  7  1  0  0  0  0
 12 11  2  0  0  0  0
 13 12  1  0  0  0  0
 14  8  1  0  0  0  0
 14  7  2  0  0  0  0
 16  4  1  0  0  0  0
 16 35  1  0  0  0  0
 17 14  1  0  0  0  0
 18 13  2  0  0  0  0
 19 21  1  1  0  0  0
 20 19  1  0  0  0  0
 20 21  1  1  0  0  0
 23 22  1  6  0  0  0
 23 20  1  0  0  0  0
 24 25  1  6  0  0  0
 24  3  1  0  0  0  0
 24 19  1  0  0  0  0
 25 22  1  0  0  0  0
 27 28  1  0  0  0  0
 27 26  1  1  0  0  0
 28 29  1  6  0  0  0
 28 23  1  0  0  0  0
 29 27  1  0  0  0  0
 30 27  1  0  0  0  0
 31 34  1  0  0  0  0
 31 30  1  0  0  0  0
 32 31  2  0  0  0  0
 34 33  1  0  0  0  0
 36 35  1  0  0  0  0
 36 38  1  0  0  0  0
 37 36  2  0  0  0  0
 38 39  1  0  0  0  0
 39 40  1  0  0  0  0
 40 41  1  0  0  0  0
 42 44  1  0  0  0  0
 42  8  1  0  0  0  0
 43 44  2  0  0  0  0
M  END
>  <MODEL>
5

>  <REMARK>
 VINA RESULT:      -6.8      4.663      9.404
  Name = 
  12 active torsions:
  status: ('A' for Active; 'I' for Inactive)
    1  A    between atoms: N_4  and  C_41
    2  A    between atoms: C_5  and  N_9
    3  A    between atoms: C_5  and  C_17
    4  A    between atoms: C_8  and  C_11
    5  A    between atoms: C_8  and  C_14
    6  A    between atoms: N_9  and  C_21
    7  A    between atoms: C_11  and  C_38
    8  A    between atoms: C_12  and  C_38
    9  A    between atoms: C_14  and  N_35
   10  A    between atoms: C_19  and  C_23
   11  A    between atoms: C_23  and  C_40
   12  A    between atoms: N_30  and  C_39
                            x       y       z     vdW  Elec       q    Type
                         _______ _______ _______ _____ _____    ______ ____

>  <TORSDO>
F 12

$$$$
=
 OpenBabel10222415463D

 44 50  0  0  1  0  0  0  0  0999 V2000
  186.8480  178.3800  142.1830 C   0  0  2  0  0  3  0  0  0  0  0  0
  187.8060  177.9920  141.3010 C   0  0  0  0  0  0  0  0  0  0  0  0
  185.6190  179.0230  141.7710 N   0  0  2  0  0  0  0  0  0  0  0  0
  185.8020  178.2680  144.4780 C   0  0  0  0  0  0  0  0  0  0  0  0
  190.1500  177.5140  137.4090 N   0  0  0  0  0  0  0  0  0  0  0  0
  187.1020  178.2440  143.6820 C   0  0  1  0  0  3  0  0  0  0  0  0
  189.8100  177.1740  139.5360 C   0  0  0  0  0  0  0  0  0  0  0  0
  189.0460  178.1310  137.6920 C   0  0  0  0  0  0  0  0  0  0  0  0
  184.7910  178.9470  144.0200 N   0  0  0  0  0  0  0  0  0  0  0  0
  184.8560  179.7360  142.7930 C   0  0  0  0  0  2  0  0  0  0  0  0
  189.9000  176.7550  140.8580 C   0  0  0  0  0  3  0  0  0  0  0  0
  188.8930  177.1740  141.7480 C   0  0  0  0  0  0  0  0  0  0  0  0
  188.9030  176.6480  143.1190 C   0  0  0  0  0  3  0  0  0  0  0  0
  188.7750  177.9480  139.1000 C   0  0  0  0  0  0  0  0  0  0  0  0
  190.6320  176.8960  138.5780 N   0  0  0  0  0  2  0  0  0  0  0  0
  185.6630  177.6720  145.7750 N   0  0  0  0  0  2  0  0  0  0  0  0
  187.7560  178.3770  139.9410 C   0  0  0  0  0  3  0  0  0  0  0  0
  188.0290  177.1030  144.0110 C   0  0  0  0  0  3  0  0  0  0  0  0
  183.8120  179.6510  140.2030 C   0  0  2  0  0  3  0  0  0  0  0  0
  182.6780  179.1390  139.3010 C   0  0  1  0  0  3  0  0  0  0  0  0
  183.8140  179.9460  138.7110 C   0  0  0  0  0  2  0  0  0  0  0  0
  184.0210  176.9080  139.1160 C   0  0  0  0  0  2  0  0  0  0  0  0
  182.7160  177.6590  138.8510 C   0  0  1  0  0  3  0  0  0  0  0  0
  184.9570  178.6780  140.5120 C   0  0  2  0  0  3  0  0  0  0  0  0
  184.5330  177.2220  140.5050 C   0  0  0  0  0  2  0  0  0  0  0  0
  181.2020  176.2860  137.1200 O   0  0  0  0  0  1  0  0  0  0  0  0
  180.8750  176.1520  138.4760 C   0  0  2  0  0  0  0  0  0  0  0  0
  181.6010  176.9330  139.4530 N   0  0  1  0  0  0  0  0  0  0  0  0
  181.8400  175.5760  139.2270 O   0  0  0  0  0  0  0  0  0  0  0  0
  179.5220  175.7700  138.8520 N   0  0  0  0  0  2  0  0  0  0  0  0
  179.1820  174.4930  139.4000 C   0  0  0  0  0  0  0  0  0  0  0  0
  179.1380  174.2370  141.0200 S   0  0  0  0  0  0  0  0  0  0  0  0
  180.2150  172.9710  137.7630 C   0  0  0  0  0  1  0  0  0  0  0  0
  178.9330  173.3500  138.4780 C   0  0  0  0  0  2  0  0  0  0  0  0
  186.7460  177.1300  146.5820 C   0  0  0  0  0  2  0  0  0  0  0  0
  187.3230  178.2030  147.4390 C   0  0  0  0  0  0  0  0  0  0  0  0
  186.6430  179.1720  147.7430 O   0  0  0  0  0  0  0  0  0  0  0  0
  188.7280  178.0850  147.9260 C   0  0  0  0  0  2  0  0  0  0  0  0
  189.3240  176.7500  147.5120 C   0  0  0  0  0  2  0  0  0  0  0  0
  190.5330  176.9670  146.6200 C   0  0  0  0  0  2  0  0  0  0  0  0
  191.6880  176.0880  147.0690 C   0  0  0  0  0  1  0  0  0  0  0  0
  188.2640  178.9500  136.7190 C   0  0  0  0  0  2  0  0  0  0  0  0
  186.7750  177.0490  136.2850 C   0  0  0  0  0  2  0  0  0  0  0  0
  186.9120  178.3560  136.4930 C   0  0  0  0  0  3  0  0  0  0  0  0
  1  2  1  1  0  0  0
  1  6  1  0  0  0  0
  2 12  1  0  0  0  0
  3  1  1  0  0  0  0
  3 10  1  1  0  0  0
  4 16  1  0  0  0  0
  5  8  2  0  0  0  0
  5 15  1  0  0  0  0
  6 18  1  6  0  0  0
  6  4  1  0  0  0  0
  7 11  1  0  0  0  0
  8 14  1  0  0  0  0
  9  4  2  0  0  0  0
 10  9  1  0  0  0  0
 11 12  2  0  0  0  0
 12 13  1  0  0  0  0
 13 18  2  0  0  0  0
 14  7  2  0  0  0  0
 14 17  1  0  0  0  0
 15  7  1  0  0  0  0
 16 35  1  0  0  0  0
 17  2  2  0  0  0  0
 19 21  1  6  0  0  0
 19 24  1  0  0  0  0
 20 21  1  6  0  0  0
 20 19  1  0  0  0  0
 22 25  1  0  0  0  0
 23 22  1  1  0  0  0
 23 20  1  0  0  0  0
 23 28  1  0  0  0  0
 24 25  1  1  0  0  0
 24  3  1  0  0  0  0
 27 26  1  6  0  0  0
 27 30  1  0  0  0  0
 27 29  1  0  0  0  0
 27 28  1  0  0  0  0
 28 29  1  1  0  0  0
 30 31  1  0  0  0  0
 31 32  2  0  0  0  0
 33 34  1  0  0  0  0
 34 31  1  0  0  0  0
 35 36  1  0  0  0  0
 36 37  2  0  0  0  0
 36 38  1  0  0  0  0
 39 38  1  0  0  0  0
 40 41  1  0  0  0  0
 40 39  1  0  0  0  0
 42  8  1  0  0  0  0
 43 44  2  0  0  0  0
 44 42  1  0  0  0  0
M  END
>  <MODEL>
6

>  <REMARK>
 VINA RESULT:      -6.7      2.268      3.056
  Name = 
  12 active torsions:
  status: ('A' for Active; 'I' for Inactive)
    1  A    between atoms: N_4  and  C_41
    2  A    between atoms: C_5  and  N_9
    3  A    between atoms: C_5  and  C_17
    4  A    between atoms: C_8  and  C_11
    5  A    between atoms: C_8  and  C_14
    6  A    between atoms: N_9  and  C_21
    7  A    between atoms: C_11  and  C_38
    8  A    between atoms: C_12  and  C_38
    9  A    between atoms: C_14  and  N_35
   10  A    between atoms: C_19  and  C_23
   11  A    between atoms: C_23  and  C_40
   12  A    between atoms: N_30  and  C_39
                            x       y       z     vdW  Elec       q    Type
                         _______ _______ _______ _____ _____    ______ ____

>  <TORSDO>
F 12

$$$$
=
 OpenBabel10222415463D

 44 50  0  0  1  0  0  0  0  0999 V2000
  186.8490  178.3080  140.6720 C   0  0  2  0  0  3  0  0  0  0  0  0
  187.1730  178.0100  141.9570 C   0  0  0  0  0  0  0  0  0  0  0  0
  187.8060  178.2490  139.5890 N   0  0  2  0  0  0  0  0  0  0  0  0
  185.1150  178.6640  138.8720 C   0  0  0  0  0  0  0  0  0  0  0  0
  189.6580  177.0480  145.6690 N   0  0  0  0  0  0  0  0  0  0  0  0
  185.4530  178.8340  140.3490 C   0  0  1  0  0  3  0  0  0  0  0  0
  187.7820  177.4110  144.6160 C   0  0  0  0  0  0  0  0  0  0  0  0
  189.9830  177.2680  144.4340 C   0  0  0  0  0  0  0  0  0  0  0  0
  186.0740  178.7000  137.9940 N   0  0  0  0  0  0  0  0  0  0  0  0
  187.4680  178.9490  138.3520 C   0  0  0  0  0  2  0  0  0  0  0  0
  186.4440  177.5700  144.2780 C   0  0  0  0  0  3  0  0  0  0  0  0
  186.1390  177.8790  142.9390 C   0  0  0  0  0  0  0  0  0  0  0  0
  184.7290  177.9350  142.5340 C   0  0  0  0  0  3  0  0  0  0  0  0
  188.7740  177.5270  143.6860 C   0  0  0  0  0  0  0  0  0  0  0  0
  188.2570  177.1270  145.7840 N   0  0  0  0  0  2  0  0  0  0  0  0
  183.7710  178.5780  138.3770 N   0  0  0  0  0  2  0  0  0  0  0  0
  188.5180  177.8220  142.3540 C   0  0  0  0  0  3  0  0  0  0  0  0
  184.4060  178.3260  141.3050 C   0  0  0  0  0  3  0  0  0  0  0  0
  190.2190  177.8630  139.9680 C   0  0  2  0  0  3  0  0  0  0  0  0
  191.4920  177.1730  139.4520 C   0  0  1  0  0  3  0  0  0  0  0  0
  190.9680  176.8640  140.8370 C   0  0  0  0  0  2  0  0  0  0  0  0
  189.9190  175.4100  138.3430 C   0  0  0  0  0  2  0  0  0  0  0  0
  191.3310  175.9770  138.4850 C   0  0  1  0  0  3  0  0  0  0  0  0
  188.8740  177.2480  139.5620 C   0  0  2  0  0  3  0  0  0  0  0  0
  188.9140  176.5350  138.2250 C   0  0  0  0  0  2  0  0  0  0  0  0
  193.8000  175.0750  137.9640 O   0  0  0  0  0  1  0  0  0  0  0  0
  193.1510  175.7520  136.9220 C   0  0  2  0  0  0  0  0  0  0  0  0
  191.8510  176.3350  137.1670 N   0  0  1  0  0  0  0  0  0  0  0  0
  192.0340  175.1390  136.4710 O   0  0  0  0  0  0  0  0  0  0  0  0
  193.9430  176.3880  135.8800 N   0  0  0  0  0  2  0  0  0  0  0  0
  195.1040  175.7940  135.2930 C   0  0  0  0  0  0  0  0  0  0  0  0
  195.1250  174.2210  134.8310 S   0  0  0  0  0  0  0  0  0  0  0  0
  195.9960  178.0660  134.9630 C   0  0  0  0  0  1  0  0  0  0  0  0
  196.3480  176.6040  135.1660 C   0  0  0  0  0  2  0  0  0  0  0  0
  182.5630  178.8130  139.1550 C   0  0  0  0  0  2  0  0  0  0  0  0
  181.6950  177.6030  139.1130 C   0  0  0  0  0  0  0  0  0  0  0  0
  181.0220  177.3010  140.0870 O   0  0  0  0  0  0  0  0  0  0  0  0
  181.6470  176.7690  137.8760 C   0  0  0  0  0  2  0  0  0  0  0  0
  182.1980  175.3800  138.1510 C   0  0  0  0  0  2  0  0  0  0  0  0
  183.1650  174.9710  137.0540 C   0  0  0  0  0  2  0  0  0  0  0  0
  184.2060  174.0070  137.5970 C   0  0  0  0  0  1  0  0  0  0  0  0
  191.3880  177.3200  143.9290 C   0  0  0  0  0  2  0  0  0  0  0  0
  191.3000  179.7720  143.9720 C   0  0  0  0  0  2  0  0  0  0  0  0
  191.9960  178.6590  144.1920 C   0  0  0  0  0  3  0  0  0  0  0  0
  1  2  1  1  0  0  0
  2 17  2  0  0  0  0
  2 12  1  0  0  0  0
  3 10  1  6  0  0  0
  3  1  1  0  0  0  0
  4  6  1  0  0  0  0
  5 15  1  0  0  0  0
  6  1  1  0  0  0  0
  6 18  1  1  0  0  0
  7 15  1  0  0  0  0
  8  5  2  0  0  0  0
  9 10  1  0  0  0  0
  9  4  2  0  0  0  0
 11  7  1  0  0  0  0
 12 11  2  0  0  0  0
 13 12  1  0  0  0  0
 14  8  1  0  0  0  0
 14  7  2  0  0  0  0
 16  4  1  0  0  0  0
 16 35  1  0  0  0  0
 17 14  1  0  0  0  0
 18 13  2  0  0  0  0
 19 21  1  1  0  0  0
 20 19  1  0  0  0  0
 20 21  1  1  0  0  0
 23 22  1  6  0  0  0
 23 20  1  0  0  0  0
 24 25  1  6  0  0  0
 24  3  1  0  0  0  0
 24 19  1  0  0  0  0
 25 22  1  0  0  0  0
 27 28  1  0  0  0  0
 27 26  1  1  0  0  0
 28 29  1  6  0  0  0
 28 23  1  0  0  0  0
 29 27  1  0  0  0  0
 30 27  1  0  0  0  0
 31 30  1  0  0  0  0
 32 31  2  0  0  0  0
 33 34  1  0  0  0  0
 34 31  1  0  0  0  0
 36 35  1  0  0  0  0
 36 37  2  0  0  0  0
 38 39  1  0  0  0  0
 38 36  1  0  0  0  0
 40 41  1  0  0  0  0
 40 39  1  0  0  0  0
 42 44  1  0  0  0  0
 42  8  1  0  0  0  0
 43 44  2  0  0  0  0
M  END
>  <MODEL>
7

>  <REMARK>
 VINA RESULT:      -6.7      4.749      9.524
  Name = 
  12 active torsions:
  status: ('A' for Active; 'I' for Inactive)
    1  A    between atoms: N_4  and  C_41
    2  A    between atoms: C_5  and  N_9
    3  A    between atoms: C_5  and  C_17
    4  A    between atoms: C_8  and  C_11
    5  A    between atoms: C_8  and  C_14
    6  A    between atoms: N_9  and  C_21
    7  A    between atoms: C_11  and  C_38
    8  A    between atoms: C_12  and  C_38
    9  A    between atoms: C_14  and  N_35
   10  A    between atoms: C_19  and  C_23
   11  A    between atoms: C_23  and  C_40
   12  A    between atoms: N_30  and  C_39
                            x       y       z     vdW  Elec       q    Type
                         _______ _______ _______ _____ _____    ______ ____

>  <TORSDO>
F 12

$$$$
=
 OpenBabel10222415463D

 44 50  0  0  1  0  0  0  0  0999 V2000
  191.1990  176.3570  137.7910 C   0  0  2  0  0  3  0  0  0  0  0  0
  190.0920  176.0510  137.0660 C   0  0  0  0  0  0  0  0  0  0  0  0
  191.1480  177.1420  139.0050 N   0  0  2  0  0  0  0  0  0  0  0  0
  193.6200  175.9490  138.3790 C   0  0  0  0  0  0  0  0  0  0  0  0
  185.7720  176.0470  135.5800 N   0  0  0  0  0  0  0  0  0  0  0  0
  192.5780  175.9630  137.2670 C   0  0  1  0  0  3  0  0  0  0  0  0
  187.8510  175.3920  135.5340 C   0  0  0  0  0  0  0  0  0  0  0  0
  186.3630  176.6850  136.5400 C   0  0  0  0  0  0  0  0  0  0  0  0
  193.4840  176.7610  139.3850 N   0  0  0  0  0  0  0  0  0  0  0  0
  192.3970  177.7320  139.4800 C   0  0  0  0  0  2  0  0  0  0  0  0
  189.0510  174.7600  135.2330 C   0  0  0  0  0  3  0  0  0  0  0  0
  190.1810  175.0980  136.0010 C   0  0  0  0  0  0  0  0  0  0  0  0
  191.4300  174.3580  135.7790 C   0  0  0  0  0  3  0  0  0  0  0  0
  187.7560  176.2960  136.5510 C   0  0  0  0  0  0  0  0  0  0  0  0
  186.7140  175.2160  134.9460 N   0  0  0  0  0  0  0  0  0  0  0  0
  194.8190  175.1620  138.3240 N   0  0  0  0  0  2  0  0  0  0  0  0
  188.8420  176.6540  137.3390 C   0  0  0  0  0  2  0  0  0  0  0  0
  192.5400  174.7220  136.4140 C   0  0  0  0  0  3  0  0  0  0  0  0
  189.3580  178.4230  140.1340 C   0  0  2  0  0  3  0  0  0  0  0  0
  188.5890  178.6440  141.4460 C   0  0  1  0  0  3  0  0  0  0  0  0
  187.8500  178.2340  140.1910 C   0  0  0  0  0  2  0  0  0  0  0  0
  189.1720  176.1710  142.0430 C   0  0  0  0  0  2  0  0  0  0  0  0
  188.6140  177.5170  142.5050 C   0  0  1  0  0  3  0  0  0  0  0  0
  190.0160  177.0520  139.9290 C   0  0  2  0  0  3  0  0  0  0  0  0
  190.4270  176.3780  141.2240 C   0  0  0  0  0  2  0  0  0  0  0  0
  187.4830  176.8550  144.8420 O   0  0  0  0  0  1  0  0  0  0  0  0
  188.7190  177.5100  144.9120 C   0  0  2  0  0  0  0  0  0  0  0  0
  189.3410  177.9680  143.6890 N   0  0  1  0  0  0  0  0  0  0  0  0
  189.7470  176.8200  144.3710 O   0  0  0  0  0  0  0  0  0  0  0  0
  189.0690  178.2520  146.1140 N   0  0  0  0  0  2  0  0  0  0  0  0
  189.4350  177.6310  147.3500 C   0  0  0  0  0  0  0  0  0  0  0  0
  190.8410  176.8040  147.5130 S   0  0  0  0  0  0  0  0  0  0  0  0
  187.1640  178.2800  148.0500 C   0  0  0  0  0  1  0  0  0  0  0  0
  188.4820  177.6750  148.4940 C   0  0  0  0  0  2  0  0  0  0  0  0
  195.2970  174.4220  137.1660 C   0  0  0  0  0  2  0  0  0  0  0  0
  196.2650  175.2560  136.4000 C   0  0  0  0  0  0  0  0  0  0  0  0
  195.8680  176.2100  135.7490 O   0  0  0  0  0  0  0  0  0  0  0  0
  197.7190  174.9220  136.4380 C   0  0  0  0  0  2  0  0  0  0  0  0
  198.0390  174.0770  137.6600 C   0  0  0  0  0  2  0  0  0  0  0  0
  198.8140  174.8950  138.6780 C   0  0  0  0  0  2  0  0  0  0  0  0
  197.9610  175.1600  139.9070 C   0  0  0  0  0  1  0  0  0  0  0  0
  185.7010  177.7030  137.4090 C   0  0  0  0  0  2  0  0  0  0  0  0
  183.6010  177.8340  138.6700 C   0  0  0  0  0  2  0  0  0  0  0  0
  184.2600  177.3710  137.6110 C   0  0  0  0  0  3  0  0  0  0  0  0
  1  2  1  6  0  0  0
  1  3  1  0  0  0  0
  2 17  1  0  0  0  0
  3 10  1  1  0  0  0
  3 24  1  0  0  0  0
  4  9  2  0  0  0  0
  5  8  1  0  0  0  0
  6 18  1  1  0  0  0
  6  1  1  0  0  0  0
  6  4  1  0  0  0  0
  7 14  1  0  0  0  0
  8 14  2  0  0  0  0
  8 42  1  0  0  0  0
  9 10  1  0  0  0  0
 11  7  2  0  0  0  0
 11 12  1  0  0  0  0
 12  2  2  0  0  0  0
 13 12  1  0  0  0  0
 13 18  2  0  0  0  0
 14 17  1  0  0  0  0
 15  7  1  0  0  0  0
 15  5  2  0  0  0  0
 16  4  1  0  0  0  0
 19 21  1  6  0  0  0
 19 20  1  0  0  0  0
 20 21  1  6  0  0  0
 20 23  1  0  0  0  0
 23 22  1  6  0  0  0
 23 28  1  0  0  0  0
 24 19  1  0  0  0  0
 24 25  1  1  0  0  0
 25 22  1  0  0  0  0
 27 26  1  6  0  0  0
 27 30  1  0  0  0  0
 28 29  1  6  0  0  0
 28 27  1  0  0  0  0
 29 27  1  0  0  0  0
 30 31  1  0  0  0  0
 31 32  2  0  0  0  0
 31 34  1  0  0  0  0
 33 34  1  0  0  0  0
 35 16  1  0  0  0  0
 36 38  1  0  0  0  0
 36 35  1  0  0  0  0
 37 36  2  0  0  0  0
 38 39  1  0  0  0  0
 39 40  1  0  0  0  0
 40 41  1  0  0  0  0
 42 44  1  0  0  0  0
 44 43  2  0  0  0  0
M  END
>  <MODEL>
8

>  <REMARK>
 VINA RESULT:      -6.6      5.245      9.422
  Name = 
  12 active torsions:
  status: ('A' for Active; 'I' for Inactive)
    1  A    between atoms: N_4  and  C_41
    2  A    between atoms: C_5  and  N_9
    3  A    between atoms: C_5  and  C_17
    4  A    between atoms: C_8  and  C_11
    5  A    between atoms: C_8  and  C_14
    6  A    between atoms: N_9  and  C_21
    7  A    between atoms: C_11  and  C_38
    8  A    between atoms: C_12  and  C_38
    9  A    between atoms: C_14  and  N_35
   10  A    between atoms: C_19  and  C_23
   11  A    between atoms: C_23  and  C_40
   12  A    between atoms: N_30  and  C_39
                            x       y       z     vdW  Elec       q    Type
                         _______ _______ _______ _____ _____    ______ ____

>  <TORSDO>
F 12

$$$$
=
 OpenBabel10222415463D

 44 50  0  0  1  0  0  0  0  0999 V2000
  187.6380  177.7550  138.8010 C   0  0  2  0  0  3  0  0  0  0  0  0
  188.9360  177.3640  138.7040 C   0  0  0  0  0  0  0  0  0  0  0  0
  186.6600  177.4820  137.7700 N   0  0  2  0  0  0  0  0  0  0  0  0
  185.6840  178.5580  140.1830 C   0  0  0  0  0  0  0  0  0  0  0  0
  192.8410  175.7570  136.9600 N   0  0  0  0  0  0  0  0  0  0  0  0
  187.1940  178.6140  139.9820 C   0  0  1  0  0  3  0  0  0  0  0  0
  191.6150  176.5870  138.5610 C   0  0  0  0  0  0  0  0  0  0  0  0
  191.6580  175.9120  136.4540 C   0  0  0  0  0  0  0  0  0  0  0  0
  184.9140  178.3730  139.1510 N   0  0  0  0  0  0  0  0  0  0  0  0
  185.4270  178.2650  137.7870 C   0  0  0  0  0  2  0  0  0  0  0  0
  191.1460  177.0770  139.7740 C   0  0  0  0  0  3  0  0  0  0  0  0
  189.7970  177.4740  139.8430 C   0  0  0  0  0  0  0  0  0  0  0  0
  189.2500  177.8830  141.1430 C   0  0  0  0  0  3  0  0  0  0  0  0
  190.8000  176.4730  137.4740 C   0  0  0  0  0  0  0  0  0  0  0  0
  192.8130  176.1760  138.3040 N   0  0  0  0  0  2  0  0  0  0  0  0
  185.0490  178.8140  141.4430 N   0  0  0  0  0  2  0  0  0  0  0  0
  189.4620  176.8450  137.4980 C   0  0  0  0  0  3  0  0  0  0  0  0
  188.0120  178.3620  141.2210 C   0  0  0  0  0  3  0  0  0  0  0  0
  186.4150  176.5320  135.5000 C   0  0  2  0  0  3  0  0  0  0  0  0
  185.8470  175.3760  134.6610 C   0  0  1  0  0  3  0  0  0  0  0  0
  187.3320  175.6630  134.6540 C   0  0  0  0  0  2  0  0  0  0  0  0
  186.0290  173.9100  136.8140 C   0  0  0  0  0  2  0  0  0  0  0  0
  185.5100  174.0490  135.3820 C   0  0  1  0  0  3  0  0  0  0  0  0
  186.7010  176.2500  136.9810 C   0  0  2  0  0  3  0  0  0  0  0  0
  185.7950  175.1920  137.5810 C   0  0  0  0  0  2  0  0  0  0  0  0
  184.7620  171.5600  134.7350 O   0  0  0  0  0  1  0  0  0  0  0  0
  183.7360  172.4480  135.0820 C   0  0  2  0  0  0  0  0  0  0  0  0
  184.0670  173.8290  135.3600 N   0  0  1  0  0  0  0  0  0  0  0  0
  183.7900  172.8920  136.3580 O   0  0  0  0  0  0  0  0  0  0  0  0
  182.3860  172.2090  134.5940 N   0  0  0  0  0  2  0  0  0  0  0  0
  181.4810  171.2750  135.1900 C   0  0  0  0  0  0  0  0  0  0  0  0
  181.4000  169.7160  134.6900 S   0  0  0  0  0  0  0  0  0  0  0  0
  180.2860  173.2360  136.0810 C   0  0  0  0  0  1  0  0  0  0  0  0
  180.5390  171.7500  136.2420 C   0  0  0  0  0  2  0  0  0  0  0  0
  185.7050  179.3240  142.6380 C   0  0  0  0  0  2  0  0  0  0  0  0
  185.4650  178.3970  143.7790 C   0  0  0  0  0  0  0  0  0  0  0  0
  184.3290  178.2090  144.1850 O   0  0  0  0  0  0  0  0  0  0  0  0
  186.6180  177.6960  144.4170 C   0  0  0  0  0  2  0  0  0  0  0  0
  186.7420  178.0970  145.8770 C   0  0  0  0  0  2  0  0  0  0  0  0
  188.0230  177.5380  146.4700 C   0  0  0  0  0  2  0  0  0  0  0  0
  188.1330  177.9080  147.9400 C   0  0  0  0  0  1  0  0  0  0  0  0
  191.3050  175.6260  135.0320 C   0  0  0  0  0  2  0  0  0  0  0  0
  190.6700  173.2830  135.3810 C   0  0  0  0  0  2  0  0  0  0  0  0
  191.4280  174.1670  134.7380 C   0  0  0  0  0  3  0  0  0  0  0  0
  1  2  1  6  0  0  0
  1  6  1  0  0  0  0
  2 12  1  0  0  0  0
  3 10  1  1  0  0  0
  3  1  1  0  0  0  0
  4 16  1  0  0  0  0
  5 15  1  0  0  0  0
  6  4  1  0  0  0  0
  6 18  1  1  0  0  0
  7 11  1  0  0  0  0
  8  5  2  0  0  0  0
  8 14  1  0  0  0  0
  9  4  2  0  0  0  0
 10  9  1  0  0  0  0
 11 12  2  0  0  0  0
 12 13  1  0  0  0  0
 13 18  2  0  0  0  0
 14 17  1  0  0  0  0
 14  7  2  0  0  0  0
 15  7  1  0  0  0  0
 16 35  1  0  0  0  0
 17  2  2  0  0  0  0
 19 21  1  6  0  0  0
 19 24  1  0  0  0  0
 20 21  1  6  0  0  0
 20 23  1  0  0  0  0
 20 19  1  0  0  0  0
 22 25  1  0  0  0  0
 23 22  1  1  0  0  0
 24 25  1  1  0  0  0
 24  3  1  0  0  0  0
 27 26  1  6  0  0  0
 27 28  1  0  0  0  0
 27 29  1  0  0  0  0
 28 23  1  0  0  0  0
 28 29  1  1  0  0  0
 30 27  1  0  0  0  0
 30 31  1  0  0  0  0
 31 34  1  0  0  0  0
 32 31  2  0  0  0  0
 33 34  1  0  0  0  0
 35 36  1  0  0  0  0
 36 37  2  0  0  0  0
 36 38  1  0  0  0  0
 38 39  1  0  0  0  0
 39 40  1  0  0  0  0
 40 41  1  0  0  0  0
 42  8  1  0  0  0  0
 44 42  1  0  0  0  0
 44 43  2  0  0  0  0
M  END
>  <MODEL>
9

>  <REMARK>
 VINA RESULT:      -6.6      4.197      5.837
  Name = 
  12 active torsions:
  status: ('A' for Active; 'I' for Inactive)
    1  A    between atoms: N_4  and  C_41
    2  A    between atoms: C_5  and  N_9
    3  A    between atoms: C_5  and  C_17
    4  A    between atoms: C_8  and  C_11
    5  A    between atoms: C_8  and  C_14
    6  A    between atoms: N_9  and  C_21
    7  A    between atoms: C_11  and  C_38
    8  A    between atoms: C_12  and  C_38
    9  A    between atoms: C_14  and  N_35
   10  A    between atoms: C_19  and  C_23
   11  A    between atoms: C_23  and  C_40
   12  A    between atoms: N_30  and  C_39
                            x       y       z     vdW  Elec       q    Type
                         _______ _______ _______ _____ _____    ______ ____

>  <TORSDO>
F 12

$$$$
