=
 OpenBabel10222420203D

 27 30  0  0  1  0  0  0  0  0999 V2000
  186.8780  178.6510  139.3910 F   0  0  0  0  0  0  0  0  0  0  0  0
  189.9710  176.9760  140.6430 C   0  0  2  0  0  3  0  0  0  0  0  0
  188.1210  177.8350  141.8260 N   0  0  0  0  0  0  0  0  0  0  0  0
  186.3880  177.8780  144.2490 N   0  0  0  0  0  2  0  0  0  0  0  0
  184.0000  178.8740  141.6020 C   0  0  0  0  0  3  0  0  0  0  0  0
  190.9450  176.4740  142.7980 O   0  0  0  0  0  1  0  0  0  0  0  0
  187.6780  177.5220  144.7720 C   0  0  0  0  0  0  0  0  0  0  0  0
  188.5230  176.6580  142.5690 C   0  0  2  0  0  3  0  0  0  0  0  0
  186.7380  178.2270  141.7690 C   0  0  0  0  0  0  0  0  0  0  0  0
  189.1000  178.1990  140.8160 C   0  0  0  0  0  2  0  0  0  0  0  0
  188.6400  176.9850  144.0180 C   0  0  0  0  0  3  0  0  0  0  0  0
  184.5590  178.4970  142.8180 C   0  0  0  0  0  3  0  0  0  0  0  0
  189.8570  176.1960  141.9570 C   0  0  1  0  0  3  0  0  0  0  0  0
  186.1540  178.6170  140.5370 C   0  0  0  0  0  0  0  0  0  0  0  0
  185.9150  178.1690  142.9240 C   0  0  0  0  0  0  0  0  0  0  0  0
  184.2420  179.3010  139.2810 F   0  0  0  0  0  0  0  0  0  0  0  0
  184.7950  178.9380  140.4640 C   0  0  0  0  0  0  0  0  0  0  0  0
  187.9530  177.7370  146.2190 C   0  0  0  0  0  0  0  0  0  0  0  0
  188.5450  178.1540  148.8840 N   0  0  0  0  0  0  0  0  0  0  0  0
  189.2440  177.5080  146.7120 C   0  0  0  0  0  3  0  0  0  0  0  0
  187.3080  178.3720  148.4380 N   0  0  0  0  0  0  0  0  0  0  0  0
  186.9700  178.1810  147.1340 C   0  0  0  0  0  0  0  0  0  0  0  0
  189.5290  177.7230  148.0560 C   0  0  0  0  0  3  0  0  0  0  0  0
  185.5490  178.4040  146.7410 C   0  0  0  0  0  1  0  0  0  0  0  0
  191.3910  177.3640  140.2410 C   0  0  0  0  0  2  0  0  0  0  0  0
  191.7810  176.7200  138.9210 C   0  0  0  0  0  2  0  0  0  0  0  0
  190.8940  175.6080  138.6290 N   0  0  0  0  0  1  0  0  0  0  0  0
  1 14  1  0  0  0  0
  2 25  1  1  0  0  0
  2 10  1  0  0  0  0
  2 13  1  0  0  0  0
  3  8  1  0  0  0  0
  4  7  1  0  0  0  0
  5 12  1  0  0  0  0
  7 18  1  0  0  0  0
  8 11  1  1  0  0  0
  9  3  1  0  0  0  0
  9 15  1  0  0  0  0
 10  3  1  0  0  0  0
 11  7  2  0  0  0  0
 12 15  2  0  0  0  0
 13  8  1  0  0  0  0
 13  6  1  1  0  0  0
 14  9  2  0  0  0  0
 15  4  1  0  0  0  0
 16 17  1  0  0  0  0
 17 14  1  0  0  0  0
 17  5  2  0  0  0  0
 18 20  2  0  0  0  0
 18 22  1  0  0  0  0
 20 23  1  0  0  0  0
 21 19  1  0  0  0  0
 22 21  2  0  0  0  0
 23 19  2  0  0  0  0
 24 22  1  0  0  0  0
 26 25  1  0  0  0  0
 27 26  1  0  0  0  0
M  END
>  <MODEL>
1

>  <REMARK>
 VINA RESULT:      -9.4      0.000      0.000
  Name = 
  3 active torsions:
  status: ('A' for Active; 'I' for Inactive)
    1  A    between atoms: C_1  and  C_17
    2  A    between atoms: C_3  and  C_9
    3  A    between atoms: C_4  and  C_17
                            x       y       z     vdW  Elec       q    Type
                         _______ _______ _______ _____ _____    ______ ____

>  <TORSDO>
F 3

$$$$
=
 OpenBabel10222420203D

 27 30  0  0  1  0  0  0  0  0999 V2000
  190.5990  176.4150  143.7530 F   0  0  0  0  0  0  0  0  0  0  0  0
  189.5130  177.5870  140.3780 C   0  0  2  0  0  3  0  0  0  0  0  0
  188.3130  177.4600  142.4030 N   0  0  0  0  0  0  0  0  0  0  0  0
  186.0720  178.3610  144.1480 N   0  0  0  0  0  2  0  0  0  0  0  0
  188.6100  177.3560  146.6480 C   0  0  0  0  0  3  0  0  0  0  0  0
  187.4510  178.3320  139.3590 O   0  0  0  0  0  1  0  0  0  0  0  0
  185.5440  178.5260  142.8220 C   0  0  0  0  0  0  0  0  0  0  0  0
  187.8130  178.6530  141.7500 C   0  0  2  0  0  3  0  0  0  0  0  0
  188.3850  177.3870  143.8380 C   0  0  0  0  0  0  0  0  0  0  0  0
  189.1440  176.6640  141.5180 C   0  0  0  0  0  2  0  0  0  0  0  0
  186.3230  178.6450  141.7450 C   0  0  0  0  0  3  0  0  0  0  0  0
  187.4660  177.8630  146.0410 C   0  0  0  0  0  3  0  0  0  0  0  0
  188.4100  178.6500  140.3320 C   0  0  1  0  0  3  0  0  0  0  0  0
  189.5430  176.8700  144.4720 C   0  0  0  0  0  0  0  0  0  0  0  0
  187.3340  177.8910  144.6480 C   0  0  0  0  0  0  0  0  0  0  0  0
  190.7600  176.3690  146.4640 F   0  0  0  0  0  0  0  0  0  0  0  0
  189.6450  176.8570  145.8660 C   0  0  0  0  0  0  0  0  0  0  0  0
  184.0680  178.5880  142.6360 C   0  0  0  0  0  0  0  0  0  0  0  0
  181.3390  178.6520  142.2230 N   0  0  0  0  0  0  0  0  0  0  0  0
  183.5330  178.4260  141.3510 C   0  0  0  0  0  3  0  0  0  0  0  0
  181.8270  178.8150  143.4530 N   0  0  0  0  0  0  0  0  0  0  0  0
  183.1640  178.7900  143.7050 C   0  0  0  0  0  0  0  0  0  0  0  0
  182.1560  178.4590  141.1580 C   0  0  0  0  0  3  0  0  0  0  0  0
  183.6150  179.0320  145.1050 C   0  0  0  0  0  1  0  0  0  0  0  0
  189.7160  176.8070  139.0820 C   0  0  0  0  0  2  0  0  0  0  0  0
  191.1770  176.4310  138.8940 C   0  0  0  0  0  2  0  0  0  0  0  0
  191.2780  175.1180  138.2810 N   0  0  0  0  0  1  0  0  0  0  0  0
  1 14  1  0  0  0  0
  2 25  1  6  0  0  0
  2 10  1  0  0  0  0
  3  9  1  0  0  0  0
  4 15  1  0  0  0  0
  7  4  1  0  0  0  0
  8 11  1  6  0  0  0
  8  3  1  0  0  0  0
  9 14  2  0  0  0  0
  9 15  1  0  0  0  0
 10  3  1  0  0  0  0
 11  7  2  0  0  0  0
 12  5  1  0  0  0  0
 13  6  1  6  0  0  0
 13  2  1  0  0  0  0
 13  8  1  0  0  0  0
 14 17  1  0  0  0  0
 15 12  2  0  0  0  0
 17 16  1  0  0  0  0
 17  5  2  0  0  0  0
 18  7  1  0  0  0  0
 18 22  1  0  0  0  0
 19 21  1  0  0  0  0
 20 18  2  0  0  0  0
 21 22  2  0  0  0  0
 22 24  1  0  0  0  0
 23 20  1  0  0  0  0
 23 19  2  0  0  0  0
 26 25  1  0  0  0  0
 27 26  1  0  0  0  0
M  END
>  <MODEL>
2

>  <REMARK>
 VINA RESULT:      -9.3      2.817      5.315
  Name = 
  3 active torsions:
  status: ('A' for Active; 'I' for Inactive)
    1  A    between atoms: C_1  and  C_17
    2  A    between atoms: C_3  and  C_9
    3  A    between atoms: C_4  and  C_17
                            x       y       z     vdW  Elec       q    Type
                         _______ _______ _______ _____ _____    ______ ____

>  <TORSDO>
F 3

$$$$
=
 OpenBabel10222420203D

 27 30  0  0  1  0  0  0  0  0999 V2000
  192.0580  175.6020  144.0340 F   0  0  0  0  0  0  0  0  0  0  0  0
  190.3870  177.0900  141.0440 C   0  0  2  0  0  3  0  0  0  0  0  0
  189.6600  176.9530  143.2830 N   0  0  0  0  0  0  0  0  0  0  0  0
  187.9750  177.9570  145.5260 N   0  0  0  0  0  2  0  0  0  0  0  0
  190.8770  176.5470  147.3410 C   0  0  0  0  0  3  0  0  0  0  0  0
  188.2460  178.0980  140.5520 O   0  0  0  0  0  1  0  0  0  0  0  0
  187.1880  178.2580  144.3620 C   0  0  0  0  0  0  0  0  0  0  0  0
  189.1630  178.2280  142.8090 C   0  0  2  0  0  3  0  0  0  0  0  0
  190.0400  176.7810  144.6600 C   0  0  0  0  0  0  0  0  0  0  0  0
  190.1800  176.1370  142.2000 C   0  0  0  0  0  2  0  0  0  0  0  0
  187.7170  178.3690  143.1420 C   0  0  0  0  0  3  0  0  0  0  0  0
  189.6910  177.2030  147.0310 C   0  0  0  0  0  3  0  0  0  0  0  0
  189.4270  178.2570  141.2930 C   0  0  1  0  0  3  0  0  0  0  0  0
  191.2450  176.1120  144.9920 C   0  0  0  0  0  0  0  0  0  0  0  0
  189.2570  177.3330  145.7070 C   0  0  0  0  0  0  0  0  0  0  0  0
  192.8100  175.3660  146.6340 F   0  0  0  0  0  0  0  0  0  0  0  0
  191.6520  175.9990  146.3250 C   0  0  0  0  0  0  0  0  0  0  0  0
  185.7250  178.4780  144.5200 C   0  0  0  0  0  0  0  0  0  0  0  0
  182.9960  178.8390  144.7410 N   0  0  0  0  0  0  0  0  0  0  0  0
  184.9020  178.4460  143.3860 C   0  0  0  0  0  3  0  0  0  0  0  0
  183.7610  178.8800  145.8320 N   0  0  0  0  0  0  0  0  0  0  0  0
  185.1090  178.7070  145.7720 C   0  0  0  0  0  0  0  0  0  0  0  0
  183.5290  178.6280  143.5120 C   0  0  0  0  0  3  0  0  0  0  0  0
  185.8850  178.8200  147.0410 C   0  0  0  0  0  1  0  0  0  0  0  0
  190.2090  176.3780  139.7060 C   0  0  0  0  0  2  0  0  0  0  0  0
  191.5020  176.3870  138.9060 C   0  0  0  0  0  2  0  0  0  0  0  0
  191.6030  175.1780  138.1080 N   0  0  0  0  0  1  0  0  0  0  0  0
  1 14  1  0  0  0  0
  2 25  1  6  0  0  0
  2 13  1  0  0  0  0
  2 10  1  0  0  0  0
  3  9  1  0  0  0  0
  4 15  1  0  0  0  0
  7 18  1  0  0  0  0
  7  4  1  0  0  0  0
  8 11  1  6  0  0  0
  8  3  1  0  0  0  0
  9 14  2  0  0  0  0
  9 15  1  0  0  0  0
 10  3  1  0  0  0  0
 11  7  2  0  0  0  0
 12  5  1  0  0  0  0
 13  6  1  6  0  0  0
 13  8  1  0  0  0  0
 14 17  1  0  0  0  0
 15 12  2  0  0  0  0
 17 16  1  0  0  0  0
 17  5  2  0  0  0  0
 18 22  1  0  0  0  0
 19 21  1  0  0  0  0
 20 23  1  0  0  0  0
 20 18  2  0  0  0  0
 22 21  2  0  0  0  0
 22 24  1  0  0  0  0
 23 19  2  0  0  0  0
 26 25  1  0  0  0  0
 27 26  1  0  0  0  0
M  END
>  <MODEL>
3

>  <REMARK>
 VINA RESULT:      -9.3      3.007      5.214
  Name = 
  3 active torsions:
  status: ('A' for Active; 'I' for Inactive)
    1  A    between atoms: C_1  and  C_17
    2  A    between atoms: C_3  and  C_9
    3  A    between atoms: C_4  and  C_17
                            x       y       z     vdW  Elec       q    Type
                         _______ _______ _______ _____ _____    ______ ____

>  <TORSDO>
F 3

$$$$
=
 OpenBabel10222420203D

 27 30  0  0  1  0  0  0  0  0999 V2000
  187.0170  177.7120  146.1210 F   0  0  0  0  0  0  0  0  0  0  0  0
  190.6520  177.5590  145.2820 C   0  0  2  0  0  3  0  0  0  0  0  0
  188.7630  177.5430  143.8710 N   0  0  0  0  0  0  0  0  0  0  0  0
  187.5100  178.0350  141.2120 N   0  0  0  0  0  2  0  0  0  0  0  0
  184.6600  178.6140  143.5020 C   0  0  0  0  0  3  0  0  0  0  0  0
  191.9800  177.2770  143.2820 O   0  0  0  0  0  1  0  0  0  0  0  0
  188.8600  177.6720  140.8790 C   0  0  0  0  0  0  0  0  0  0  0  0
  189.7650  178.2910  143.1400 C   0  0  2  0  0  3  0  0  0  0  0  0
  187.3670  177.8620  143.7320 C   0  0  0  0  0  0  0  0  0  0  0  0
  189.3220  176.8830  145.0380 C   0  0  0  0  0  2  0  0  0  0  0  0
  189.8700  177.7760  141.7450 C   0  0  0  0  0  3  0  0  0  0  0  0
  185.4640  178.5330  142.3710 C   0  0  0  0  0  3  0  0  0  0  0  0
  191.0780  178.1350  143.9280 C   0  0  1  0  0  3  0  0  0  0  0  0
  186.5340  177.9460  144.8760 C   0  0  0  0  0  0  0  0  0  0  0  0
  186.8110  178.1640  142.4610 C   0  0  0  0  0  0  0  0  0  0  0  0
  184.4040  178.4050  145.8520 F   0  0  0  0  0  0  0  0  0  0  0  0
  185.1910  178.3180  144.7520 C   0  0  0  0  0  0  0  0  0  0  0  0
  189.1550  177.1800  139.5060 C   0  0  0  0  0  0  0  0  0  0  0  0
  189.7520  176.2050  136.9920 N   0  0  0  0  0  0  0  0  0  0  0  0
  190.3540  176.4960  139.2670 C   0  0  0  0  0  3  0  0  0  0  0  0
  188.6080  176.8600  137.1950 N   0  0  0  0  0  0  0  0  0  0  0  0
  188.2710  177.3570  138.4160 C   0  0  0  0  0  0  0  0  0  0  0  0
  190.6410  176.0080  137.9970 C   0  0  0  0  0  3  0  0  0  0  0  0
  186.9940  178.1170  138.5320 C   0  0  0  0  0  1  0  0  0  0  0  0
  191.6500  176.5960  145.9190 C   0  0  0  0  0  2  0  0  0  0  0  0
  191.4130  176.4760  147.4160 C   0  0  0  0  0  2  0  0  0  0  0  0
  192.6310  176.0480  148.0800 N   0  0  0  0  0  1  0  0  0  0  0  0
  2 25  1  6  0  0  0
  3 10  1  0  0  0  0
  4 15  1  0  0  0  0
  5 17  1  0  0  0  0
  7  4  1  0  0  0  0
  7 11  2  0  0  0  0
  8 11  1  6  0  0  0
  8  3  1  0  0  0  0
  8 13  1  0  0  0  0
  9  3  1  0  0  0  0
  9 14  1  0  0  0  0
 10  2  1  0  0  0  0
 12 15  1  0  0  0  0
 12  5  2  0  0  0  0
 13  6  1  6  0  0  0
 13  2  1  0  0  0  0
 14  1  1  0  0  0  0
 15  9  2  0  0  0  0
 17 14  2  0  0  0  0
 17 16  1  0  0  0  0
 18  7  1  0  0  0  0
 19 21  2  0  0  0  0
 19 23  1  0  0  0  0
 20 18  1  0  0  0  0
 21 22  1  0  0  0  0
 22 24  1  0  0  0  0
 22 18  2  0  0  0  0
 23 20  2  0  0  0  0
 25 26  1  0  0  0  0
 26 27  1  0  0  0  0
M  END
>  <MODEL>
4

>  <REMARK>
 VINA RESULT:      -9.2      2.717      6.290
  Name = 
  3 active torsions:
  status: ('A' for Active; 'I' for Inactive)
    1  A    between atoms: C_1  and  C_17
    2  A    between atoms: C_3  and  C_9
    3  A    between atoms: C_4  and  C_17
                            x       y       z     vdW  Elec       q    Type
                         _______ _______ _______ _____ _____    ______ ____

>  <TORSDO>
F 3

$$$$
=
 OpenBabel10222420203D

 27 30  0  0  1  0  0  0  0  0999 V2000
  184.9840  179.3760  141.7750 F   0  0  0  0  0  0  0  0  0  0  0  0
  188.1400  177.8560  140.4840 C   0  0  2  0  0  3  0  0  0  0  0  0
  187.3970  178.1680  142.7000 N   0  0  0  0  0  0  0  0  0  0  0  0
  187.4540  177.4160  145.5820 N   0  0  0  0  0  2  0  0  0  0  0  0
  184.0030  178.7030  145.2110 C   0  0  0  0  0  3  0  0  0  0  0  0
  190.1840  176.9840  141.4350 O   0  0  0  0  0  1  0  0  0  0  0  0
  188.7850  177.1110  145.1350 C   0  0  0  0  0  0  0  0  0  0  0  0
  188.1130  176.9100  142.7220 C   0  0  2  0  0  3  0  0  0  0  0  0
  186.2710  178.3860  143.5680 C   0  0  0  0  0  0  0  0  0  0  0  0
  187.5960  178.8830  141.4510 C   0  0  0  0  0  2  0  0  0  0  0  0
  189.0850  176.8950  143.8530 C   0  0  0  0  0  3  0  0  0  0  0  0
  185.1600  178.1210  145.7170 C   0  0  0  0  0  3  0  0  0  0  0  0
  188.7990  176.7790  141.3510 C   0  0  1  0  0  3  0  0  0  0  0  0
  185.0850  178.9800  143.0680 C   0  0  0  0  0  0  0  0  0  0  0  0
  186.2970  177.9520  144.9190 C   0  0  0  0  0  0  0  0  0  0  0  0
  182.8320  179.6960  143.4030 F   0  0  0  0  0  0  0  0  0  0  0  0
  183.9650  179.1360  143.8910 C   0  0  0  0  0  0  0  0  0  0  0  0
  189.8770  177.0100  146.1420 C   0  0  0  0  0  0  0  0  0  0  0  0
  191.9600  176.8190  147.9450 N   0  0  0  0  0  0  0  0  0  0  0  0
  191.0780  176.3800  145.7880 C   0  0  0  0  0  3  0  0  0  0  0  0
  190.8240  177.4160  148.3050 N   0  0  0  0  0  0  0  0  0  0  0  0
  189.7720  177.5340  147.4510 C   0  0  0  0  0  0  0  0  0  0  0  0
  192.1190  176.2930  146.7050 C   0  0  0  0  0  3  0  0  0  0  0  0
  188.5250  178.1740  147.9620 C   0  0  0  0  0  1  0  0  0  0  0  0
  189.0560  178.5050  139.4500 C   0  0  0  0  0  2  0  0  0  0  0  0
  188.5750  178.2150  138.0360 C   0  0  0  0  0  2  0  0  0  0  0  0
  188.6380  179.4230  137.2320 N   0  0  0  0  0  1  0  0  0  0  0  0
  1 14  1  0  0  0  0
  2 25  1  6  0  0  0
  2 13  1  0  0  0  0
  2 10  1  0  0  0  0
  3  8  1  0  0  0  0
  3  9  1  0  0  0  0
  5 12  1  0  0  0  0
  7  4  1  0  0  0  0
  7 18  1  0  0  0  0
  8 11  1  1  0  0  0
  9 15  1  0  0  0  0
 10  3  1  0  0  0  0
 11  7  2  0  0  0  0
 13  6  1  1  0  0  0
 13  8  1  0  0  0  0
 14  9  2  0  0  0  0
 14 17  1  0  0  0  0
 15  4  1  0  0  0  0
 15 12  2  0  0  0  0
 16 17  1  0  0  0  0
 17  5  2  0  0  0  0
 18 22  1  0  0  0  0
 19 21  1  0  0  0  0
 20 18  2  0  0  0  0
 20 23  1  0  0  0  0
 22 24  1  0  0  0  0
 22 21  2  0  0  0  0
 23 19  2  0  0  0  0
 26 25  1  0  0  0  0
 27 26  1  0  0  0  0
M  END
>  <MODEL>
5

>  <REMARK>
 VINA RESULT:      -9.0      2.108      2.762
  Name = 
  3 active torsions:
  status: ('A' for Active; 'I' for Inactive)
    1  A    between atoms: C_1  and  C_17
    2  A    between atoms: C_3  and  C_9
    3  A    between atoms: C_4  and  C_17
                            x       y       z     vdW  Elec       q    Type
                         _______ _______ _______ _____ _____    ______ ____

>  <TORSDO>
F 3

$$$$
=
 OpenBabel10222420203D

 27 30  0  0  1  0  0  0  0  0999 V2000
  187.1370  177.4760  146.7910 F   0  0  0  0  0  0  0  0  0  0  0  0
  190.6370  177.4990  145.4920 C   0  0  2  0  0  3  0  0  0  0  0  0
  188.5850  177.6100  144.3370 N   0  0  0  0  0  0  0  0  0  0  0  0
  187.0040  178.3830  141.9330 N   0  0  0  0  0  2  0  0  0  0  0  0
  184.4620  178.6290  144.6140 C   0  0  0  0  0  3  0  0  0  0  0  0
  191.7040  177.4820  143.3230 O   0  0  0  0  0  1  0  0  0  0  0  0
  188.3020  178.0900  141.3930 C   0  0  0  0  0  0  0  0  0  0  0  0
  189.4830  178.4580  143.5810 C   0  0  2  0  0  3  0  0  0  0  0  0
  187.1810  177.9130  144.4120 C   0  0  0  0  0  0  0  0  0  0  0  0
  189.2910  176.8290  145.3380 C   0  0  0  0  0  2  0  0  0  0  0  0
  189.4130  178.1130  142.1320 C   0  0  0  0  0  3  0  0  0  0  0  0
  185.1170  178.6980  143.3890 C   0  0  0  0  0  3  0  0  0  0  0  0
  190.8860  178.2390  144.1740 C   0  0  1  0  0  3  0  0  0  0  0  0
  186.4990  177.8440  145.6530 C   0  0  0  0  0  0  0  0  0  0  0  0
  186.4660  178.3500  143.2660 C   0  0  0  0  0  0  0  0  0  0  0  0
  184.5070  178.1410  146.9350 F   0  0  0  0  0  0  0  0  0  0  0  0
  185.1490  178.2000  145.7440 C   0  0  0  0  0  0  0  0  0  0  0  0
  188.4240  177.7690  139.9450 C   0  0  0  0  0  0  0  0  0  0  0  0
  188.5980  177.2400  137.2400 N   0  0  0  0  0  0  0  0  0  0  0  0
  187.3830  178.1220  139.0760 C   0  0  0  0  0  3  0  0  0  0  0  0
  189.5970  176.8900  138.0500 N   0  0  0  0  0  0  0  0  0  0  0  0
  189.5570  177.1310  139.3880 C   0  0  0  0  0  0  0  0  0  0  0  0
  187.4850  177.8510  137.7160 C   0  0  0  0  0  3  0  0  0  0  0  0
  190.7010  176.6570  140.2180 C   0  0  0  0  0  1  0  0  0  0  0  0
  191.7140  176.4890  145.8810 C   0  0  0  0  0  2  0  0  0  0  0  0
  191.5330  176.0240  147.3170 C   0  0  0  0  0  2  0  0  0  0  0  0
  192.3240  176.8510  148.2110 N   0  0  0  0  0  1  0  0  0  0  0  0
  2 25  1  6  0  0  0
  3  9  1  0  0  0  0
  3 10  1  0  0  0  0
  4 15  1  0  0  0  0
  5 17  1  0  0  0  0
  7  4  1  0  0  0  0
  7 11  2  0  0  0  0
  8 11  1  6  0  0  0
  8 13  1  0  0  0  0
  8  3  1  0  0  0  0
  9 14  1  0  0  0  0
 10  2  1  0  0  0  0
 12  5  2  0  0  0  0
 13  6  1  6  0  0  0
 13  2  1  0  0  0  0
 14 17  2  0  0  0  0
 14  1  1  0  0  0  0
 15 12  1  0  0  0  0
 15  9  2  0  0  0  0
 17 16  1  0  0  0  0
 18  7  1  0  0  0  0
 19 23  2  0  0  0  0
 19 21  1  0  0  0  0
 20 18  2  0  0  0  0
 21 22  2  0  0  0  0
 22 18  1  0  0  0  0
 22 24  1  0  0  0  0
 23 20  1  0  0  0  0
 25 26  1  0  0  0  0
 26 27  1  0  0  0  0
M  END
>  <MODEL>
6

>  <REMARK>
 VINA RESULT:      -9.0      2.825      6.345
  Name = 
  3 active torsions:
  status: ('A' for Active; 'I' for Inactive)
    1  A    between atoms: C_1  and  C_17
    2  A    between atoms: C_3  and  C_9
    3  A    between atoms: C_4  and  C_17
                            x       y       z     vdW  Elec       q    Type
                         _______ _______ _______ _____ _____    ______ ____

>  <TORSDO>
F 3

$$$$
=
 OpenBabel10222420203D

 27 30  0  0  1  0  0  0  0  0999 V2000
  188.6180  177.3880  145.3690 F   0  0  0  0  0  0  0  0  0  0  0  0
  188.9580  177.8280  141.6770 C   0  0  2  0  0  3  0  0  0  0  0  0
  187.0320  177.8160  143.0360 N   0  0  0  0  0  0  0  0  0  0  0  0
  184.1940  178.5880  143.5160 N   0  0  0  0  0  2  0  0  0  0  0  0
  185.5180  178.4180  146.9680 C   0  0  0  0  0  3  0  0  0  0  0  0
  187.4620  178.0520  139.7920 O   0  0  0  0  0  1  0  0  0  0  0  0
  184.2630  178.4560  142.0870 C   0  0  0  0  0  0  0  0  0  0  0  0
  186.7520  178.7940  142.0050 C   0  0  2  0  0  3  0  0  0  0  0  0
  186.4980  177.9790  144.3620 C   0  0  0  0  0  0  0  0  0  0  0  0
  188.2260  177.0440  142.7420 C   0  0  0  0  0  2  0  0  0  0  0  0
  185.4100  178.5370  141.4090 C   0  0  0  0  0  3  0  0  0  0  0  0
  184.6980  178.6280  145.8660 C   0  0  0  0  0  3  0  0  0  0  0  0
  187.8890  178.6720  140.9750 C   0  0  1  0  0  3  0  0  0  0  0  0
  187.3210  177.7660  145.4970 C   0  0  0  0  0  0  0  0  0  0  0  0
  185.1630  178.4180  144.5630 C   0  0  0  0  0  0  0  0  0  0  0  0
  187.6230  177.7880  147.8650 F   0  0  0  0  0  0  0  0  0  0  0  0
  186.8260  177.9850  146.7860 C   0  0  0  0  0  0  0  0  0  0  0  0
  183.0040  178.2420  141.3220 C   0  0  0  0  0  0  0  0  0  0  0  0
  180.7060  177.7760  139.8650 N   0  0  0  0  0  0  0  0  0  0  0  0
  183.0620  177.6050  140.0750 C   0  0  0  0  0  3  0  0  0  0  0  0
  180.6290  178.3900  141.0460 N   0  0  0  0  0  0  0  0  0  0  0  0
  181.7330  178.6400  141.7990 C   0  0  0  0  0  0  0  0  0  0  0  0
  181.8950  177.3750  139.3530 C   0  0  0  0  0  3  0  0  0  0  0  0
  181.5520  179.3770  143.0820 C   0  0  0  0  0  1  0  0  0  0  0  0
  189.7560  176.9030  140.7630 C   0  0  0  0  0  2  0  0  0  0  0  0
  191.2090  177.3430  140.6740 C   0  0  0  0  0  2  0  0  0  0  0  0
  191.7630  177.5020  142.0060 N   0  0  0  0  0  1  0  0  0  0  0  0
  1 14  1  0  0  0  0
  2 25  1  6  0  0  0
  2 10  1  0  0  0  0
  3  9  1  0  0  0  0
  4 15  1  0  0  0  0
  7  4  1  0  0  0  0
  8 11  1  6  0  0  0
  8  3  1  0  0  0  0
  9 15  2  0  0  0  0
  9 14  1  0  0  0  0
 10  3  1  0  0  0  0
 11  7  2  0  0  0  0
 12  5  2  0  0  0  0
 13  6  1  6  0  0  0
 13  2  1  0  0  0  0
 13  8  1  0  0  0  0
 14 17  2  0  0  0  0
 15 12  1  0  0  0  0
 17  5  1  0  0  0  0
 17 16  1  0  0  0  0
 18 22  1  0  0  0  0
 18  7  1  0  0  0  0
 19 21  1  0  0  0  0
 20 18  2  0  0  0  0
 21 22  2  0  0  0  0
 22 24  1  0  0  0  0
 23 19  2  0  0  0  0
 23 20  1  0  0  0  0
 26 25  1  0  0  0  0
 26 27  1  0  0  0  0
M  END
>  <MODEL>
7

>  <REMARK>
 VINA RESULT:      -8.9      3.323      5.981
  Name = 
  3 active torsions:
  status: ('A' for Active; 'I' for Inactive)
    1  A    between atoms: C_1  and  C_17
    2  A    between atoms: C_3  and  C_9
    3  A    between atoms: C_4  and  C_17
                            x       y       z     vdW  Elec       q    Type
                         _______ _______ _______ _____ _____    ______ ____

>  <TORSDO>
F 3

$$$$
=
 OpenBabel10222420203D

 27 30  0  0  1  0  0  0  0  0999 V2000
  186.5530  177.5120  145.4810 F   0  0  0  0  0  0  0  0  0  0  0  0
  190.0920  177.3400  144.3040 C   0  0  2  0  0  3  0  0  0  0  0  0
  188.0970  177.6490  143.0860 N   0  0  0  0  0  0  0  0  0  0  0  0
  186.6650  178.6390  140.6680 N   0  0  0  0  0  2  0  0  0  0  0  0
  184.0490  178.9490  143.2690 C   0  0  0  0  0  3  0  0  0  0  0  0
  191.2350  177.3410  142.1730 O   0  0  0  0  0  1  0  0  0  0  0  0
  187.9590  178.2780  140.1590 C   0  0  0  0  0  0  0  0  0  0  0  0
  189.0800  178.4630  142.4010 C   0  0  2  0  0  3  0  0  0  0  0  0
  186.7160  178.0480  143.1270 C   0  0  0  0  0  0  0  0  0  0  0  0
  188.7090  176.7750  144.0720 C   0  0  0  0  0  2  0  0  0  0  0  0
  189.0400  178.1870  140.9360 C   0  0  0  0  0  3  0  0  0  0  0  0
  184.7520  179.0250  142.0720 C   0  0  0  0  0  3  0  0  0  0  0  0
  190.4410  178.1180  143.0310 C   0  0  1  0  0  3  0  0  0  0  0  0
  185.9850  177.9750  144.3390 C   0  0  0  0  0  0  0  0  0  0  0  0
  186.0770  178.5860  141.9790 C   0  0  0  0  0  0  0  0  0  0  0  0
  183.9720  178.3570  145.5660 F   0  0  0  0  0  0  0  0  0  0  0  0
  184.6620  178.4220  144.4000 C   0  0  0  0  0  0  0  0  0  0  0  0
  188.1120  178.0130  138.7030 C   0  0  0  0  0  0  0  0  0  0  0  0
  188.4680  177.4760  136.0180 N   0  0  0  0  0  0  0  0  0  0  0  0
  189.3920  177.7840  138.1800 C   0  0  0  0  0  3  0  0  0  0  0  0
  187.2420  177.6980  136.4930 N   0  0  0  0  0  0  0  0  0  0  0  0
  187.0180  177.9650  137.8080 C   0  0  0  0  0  0  0  0  0  0  0  0
  189.5560  177.5130  136.8260 C   0  0  0  0  0  3  0  0  0  0  0  0
  185.6180  178.2490  138.2340 C   0  0  0  0  0  1  0  0  0  0  0  0
  191.0790  176.2390  144.6820 C   0  0  0  0  0  2  0  0  0  0  0  0
  191.7070  176.5110  146.0390 C   0  0  0  0  0  2  0  0  0  0  0  0
  190.6730  176.7980  147.0170 N   0  0  0  0  0  1  0  0  0  0  0  0
  2 25  1  6  0  0  0
  3  9  1  0  0  0  0
  3 10  1  0  0  0  0
  4 15  1  0  0  0  0
  5 17  1  0  0  0  0
  7  4  1  0  0  0  0
  7 11  2  0  0  0  0
  8 11  1  6  0  0  0
  8 13  1  0  0  0  0
  8  3  1  0  0  0  0
  9 14  1  0  0  0  0
 10  2  1  0  0  0  0
 12  5  2  0  0  0  0
 13  6  1  6  0  0  0
 13  2  1  0  0  0  0
 14 17  2  0  0  0  0
 14  1  1  0  0  0  0
 15 12  1  0  0  0  0
 15  9  2  0  0  0  0
 17 16  1  0  0  0  0
 18  7  1  0  0  0  0
 19 21  2  0  0  0  0
 19 23  1  0  0  0  0
 20 18  1  0  0  0  0
 21 22  1  0  0  0  0
 22 24  1  0  0  0  0
 22 18  2  0  0  0  0
 23 20  2  0  0  0  0
 25 26  1  0  0  0  0
 26 27  1  0  0  0  0
M  END
>  <MODEL>
8

>  <REMARK>
 VINA RESULT:      -8.8      2.754      6.291
  Name = 
  3 active torsions:
  status: ('A' for Active; 'I' for Inactive)
    1  A    between atoms: C_1  and  C_17
    2  A    between atoms: C_3  and  C_9
    3  A    between atoms: C_4  and  C_17
                            x       y       z     vdW  Elec       q    Type
                         _______ _______ _______ _____ _____    ______ ____

>  <TORSDO>
F 3

$$$$
=
 OpenBabel10222420203D

 27 30  0  0  1  0  0  0  0  0999 V2000
  186.1620  178.8170  147.6440 F   0  0  0  0  0  0  0  0  0  0  0  0
  184.4060  178.6130  144.3550 C   0  0  2  0  0  3  0  0  0  0  0  0
  186.6800  178.2890  144.8880 N   0  0  0  0  0  0  0  0  0  0  0  0
  189.3430  177.1060  144.2680 N   0  0  0  0  0  2  0  0  0  0  0  0
  189.4450  177.2860  147.9640 C   0  0  0  0  0  3  0  0  0  0  0  0
  185.0390  178.2780  142.0460 O   0  0  0  0  0  1  0  0  0  0  0  0
  188.7660  177.3180  142.9700 C   0  0  0  0  0  0  0  0  0  0  0  0
  186.4060  177.3350  143.8330 C   0  0  2  0  0  3  0  0  0  0  0  0
  187.6400  177.9880  145.9170 C   0  0  0  0  0  0  0  0  0  0  0  0
  185.5910  179.2340  145.0610 C   0  0  0  0  0  2  0  0  0  0  0  0
  187.4510  177.4320  142.7740 C   0  0  0  0  0  3  0  0  0  0  0  0
  189.7540  177.0200  146.6350 C   0  0  0  0  0  3  0  0  0  0  0  0
  184.9980  177.6660  143.3070 C   0  0  1  0  0  3  0  0  0  0  0  0
  187.3410  178.2560  147.2760 C   0  0  0  0  0  0  0  0  0  0  0  0
  188.8720  177.3570  145.6020 C   0  0  0  0  0  0  0  0  0  0  0  0
  187.9460  178.1580  149.5840 F   0  0  0  0  0  0  0  0  0  0  0  0
  188.2430  177.9060  148.2850 C   0  0  0  0  0  0  0  0  0  0  0  0
  189.6650  177.3930  141.7860 C   0  0  0  0  0  0  0  0  0  0  0  0
  191.2700  177.5730  139.5460 N   0  0  0  0  0  0  0  0  0  0  0  0
  189.1030  177.4750  140.5040 C   0  0  0  0  0  3  0  0  0  0  0  0
  191.8260  177.4900  140.7550 N   0  0  0  0  0  0  0  0  0  0  0  0
  191.0760  177.4000  141.8860 C   0  0  0  0  0  0  0  0  0  0  0  0
  189.9240  177.5670  139.3850 C   0  0  0  0  0  3  0  0  0  0  0  0
  191.7890  177.2600  143.1880 C   0  0  0  0  0  1  0  0  0  0  0  0
  183.4710  179.6860  143.8030 C   0  0  0  0  0  2  0  0  0  0  0  0
  182.0520  179.1560  143.6670 C   0  0  0  0  0  2  0  0  0  0  0  0
  181.7230  178.9700  142.2650 N   0  0  0  0  0  1  0  0  0  0  0  0
  2 25  1  6  0  0  0
  2 10  1  0  0  0  0
  3 10  1  0  0  0  0
  3  9  1  0  0  0  0
  4 15  1  0  0  0  0
  5 17  1  0  0  0  0
  7  4  1  0  0  0  0
  8 11  1  6  0  0  0
  8  3  1  0  0  0  0
  9 14  1  0  0  0  0
 11  7  2  0  0  0  0
 12  5  2  0  0  0  0
 13  6  1  6  0  0  0
 13  8  1  0  0  0  0
 13  2  1  0  0  0  0
 14  1  1  0  0  0  0
 14 17  2  0  0  0  0
 15  9  2  0  0  0  0
 15 12  1  0  0  0  0
 17 16  1  0  0  0  0
 18 22  1  0  0  0  0
 18  7  1  0  0  0  0
 19 21  1  0  0  0  0
 20 18  2  0  0  0  0
 21 22  2  0  0  0  0
 22 24  1  0  0  0  0
 23 19  2  0  0  0  0
 23 20  1  0  0  0  0
 26 25  1  0  0  0  0
 27 26  1  0  0  0  0
M  END
>  <MODEL>
9

>  <REMARK>
 VINA RESULT:      -8.7      3.343      7.109
  Name = 
  3 active torsions:
  status: ('A' for Active; 'I' for Inactive)
    1  A    between atoms: C_1  and  C_17
    2  A    between atoms: C_3  and  C_9
    3  A    between atoms: C_4  and  C_17
                            x       y       z     vdW  Elec       q    Type
                         _______ _______ _______ _____ _____    ______ ____

>  <TORSDO>
F 3

$$$$
