=
 OpenBabel10222421013D

 38 40  0  0  1  0  0  0  0  0999 V2000
  191.4850  177.2590  142.4360 C   0  0  0  0  0  0  0  0  0  0  0  0
  189.1680  177.3610  144.3210 C   0  0  2  0  0  3  0  0  0  0  0  0
  189.7990  176.1570  141.3560 C   0  0  0  0  0  2  0  0  0  0  0  0
  188.6730  176.7540  141.7530 C   0  0  1  0  0  3  0  0  0  0  0  0
  191.4700  177.5590  140.0930 O   0  0  0  0  0  0  0  0  0  0  0  0
  191.0140  176.9510  141.2670 C   0  0  0  0  0  0  0  0  0  0  0  0
  188.0900  176.1970  143.3640 S   0  0  0  0  0  0  0  0  0  0  0  0
  188.9910  178.7890  140.2060 C   0  0  0  0  0  2  0  0  0  0  0  0
  190.5850  176.8190  144.6020 C   0  0  0  0  0  2  0  0  0  0  0  0
  188.2650  178.0530  141.2490 N   0  0  0  0  0  0  0  0  0  0  0  0
  191.6300  177.4430  143.7130 C   0  0  0  0  0  3  0  0  0  0  0  0
  189.2660  177.9100  138.9880 C   0  0  0  0  0  2  0  0  0  0  0  0
  190.7490  177.5280  138.8530 C   0  0  2  0  0  3  0  0  0  0  0  0
  189.2900  177.8880  146.7580 C   0  0  0  0  0  3  0  0  0  0  0  0
  187.3180  178.4540  148.0420 C   0  0  0  0  0  3  0  0  0  0  0  0
  188.5110  177.7570  145.6040 C   0  0  0  0  0  0  0  0  0  0  0  0
  185.0640  178.5340  146.9670 C   0  0  0  0  0  1  0  0  0  0  0  0
  186.5300  178.3100  146.8950 C   0  0  0  0  0  0  0  0  0  0  0  0
  189.5350  178.3900  149.1920 C   0  0  0  0  0  1  0  0  0  0  0  0
  187.1240  177.9600  145.6800 C   0  0  0  0  0  3  0  0  0  0  0  0
  188.6980  178.2420  147.9720 C   0  0  0  0  0  0  0  0  0  0  0  0
  192.0660  174.5790  137.1110 O   0  0  0  0  0  0  0  0  0  0  0  0
  192.0610  175.7240  137.6330 C   0  0  0  0  0  0  0  0  0  0  0  0
  190.8590  176.2140  138.2340 N   0  0  0  0  0  2  0  0  0  0  0  0
  193.2970  176.5620  137.5670 C   0  0  0  0  0  2  0  0  0  0  0  0
  194.9030  175.0920  138.5430 O   0  0  0  0  0  0  0  0  0  0  0  0
  194.5100  175.6970  137.5120 C   0  0  0  0  0  0  0  0  0  0  0  0
  195.2180  175.5450  136.2870 N   0  0  0  0  0  1  0  0  0  0  0  0
  186.9670  178.5940  141.6300 C   0  0  0  0  0  2  0  0  0  0  0  0
  185.9920  178.5270  140.4680 C   0  0  0  0  0  2  0  0  0  0  0  0
  185.0120  179.5920  140.5800 N   0  0  0  0  0  2  0  0  0  0  0  0
  184.0680  179.4110  139.4910 C   0  0  0  0  0  2  0  0  0  0  0  0
  183.0240  178.3750  139.8790 C   0  0  0  0  0  2  0  0  0  0  0  0
  181.7850  179.0290  140.2760 N   0  0  0  0  0  2  0  0  0  0  0  0
  181.3080  178.3640  141.4800 C   0  0  0  0  0  2  0  0  0  0  0  0
  181.2500  179.3530  142.6280 C   0  0  0  0  0  2  0  0  0  0  0  0
  181.9230  178.7710  143.8580 C   0  0  0  0  0  2  0  0  0  0  0  0
  183.4250  178.9090  143.7220 C   0  0  0  0  0  1  0  0  0  0  0  0
  1 11  2  0  0  0  0
  2  9  1  0  0  0  0
  2 16  1  1  0  0  0
  4  3  1  1  0  0  0
  4  7  1  0  0  0  0
  5  6  1  0  0  0  0
  6  3  1  0  0  0  0
  6  1  2  0  0  0  0
  7  2  1  0  0  0  0
  8 10  1  0  0  0  0
 10 29  1  0  0  0  0
 10  4  1  0  0  0  0
 11  9  1  0  0  0  0
 12  8  1  0  0  0  0
 13 24  1  1  0  0  0
 13 12  1  0  0  0  0
 13  5  1  0  0  0  0
 14 21  1  0  0  0  0
 16 20  1  0  0  0  0
 16 14  2  0  0  0  0
 18 17  1  0  0  0  0
 18 15  1  0  0  0  0
 20 18  2  0  0  0  0
 21 15  2  0  0  0  0
 21 19  1  0  0  0  0
 22 23  2  0  0  0  0
 23 24  1  0  0  0  0
 25 23  1  0  0  0  0
 27 25  1  0  0  0  0
 27 26  2  0  0  0  0
 28 27  1  0  0  0  0
 30 31  1  0  0  0  0
 30 29  1  0  0  0  0
 32 33  1  0  0  0  0
 32 31  1  0  0  0  0
 33 34  1  0  0  0  0
 34 35  1  0  0  0  0
 35 36  1  0  0  0  0
 36 37  1  0  0  0  0
 38 37  1  0  0  0  0
M  END
>  <MODEL>
1

>  <REMARK>
 VINA RESULT:      -7.6      0.000      0.000
  Name = 
  13 active torsions:
  status: ('A' for Active; 'I' for Inactive)
    1  A    between atoms: N_2  and  C_3
    2  A    between atoms: N_2  and  C_15
    3  A    between atoms: C_3  and  C_8
    4  A    between atoms: C_5  and  C_9
    5  A    between atoms: C_8  and  N_33
    6  A    between atoms: C_15  and  C_30
    7  A    between atoms: C_16  and  C_27
    8  A    between atoms: C_19  and  C_27
    9  A    between atoms: C_20  and  C_30
   10  A    between atoms: N_24  and  C_29
   11  A    between atoms: C_29  and  C_37
   12  A    between atoms: C_31  and  N_38
   13  A    between atoms: N_33  and  C_37
                            x       y       z     vdW  Elec       q    Type
                         _______ _______ _______ _____ _____    ______ ____

>  <TORSDO>
F 13

$$$$
=
 OpenBabel10222421013D

 38 40  0  0  1  0  0  0  0  0999 V2000
  191.4880  177.2220  142.3360 C   0  0  0  0  0  0  0  0  0  0  0  0
  189.2390  177.3140  144.3010 C   0  0  2  0  0  3  0  0  0  0  0  0
  189.7610  176.1360  141.3050 C   0  0  0  0  0  2  0  0  0  0  0  0
  188.6520  176.7330  141.7460 C   0  0  1  0  0  3  0  0  0  0  0  0
  191.3930  177.5450  139.9980 O   0  0  0  0  0  0  0  0  0  0  0  0
  190.9760  176.9270  141.1810 C   0  0  0  0  0  0  0  0  0  0  0  0
  188.1230  176.1620  143.3710 S   0  0  0  0  0  0  0  0  0  0  0  0
  188.9230  178.7810  140.2080 C   0  0  0  0  0  2  0  0  0  0  0  0
  190.6630  176.7650  144.5280 C   0  0  0  0  0  2  0  0  0  0  0  0
  188.2310  178.0380  141.2690 N   0  0  0  0  0  0  0  0  0  0  0  0
  191.6770  177.3940  143.6090 C   0  0  0  0  0  3  0  0  0  0  0  0
  189.1530  177.9130  138.9730 C   0  0  0  0  0  2  0  0  0  0  0  0
  190.6290  177.5270  138.7830 C   0  0  2  0  0  3  0  0  0  0  0  0
  187.2550  177.9650  145.6700 C   0  0  0  0  0  3  0  0  0  0  0  0
  187.4440  178.4670  148.0310 C   0  0  0  0  0  3  0  0  0  0  0  0
  188.6270  177.6990  145.6100 C   0  0  0  0  0  0  0  0  0  0  0  0
  189.6500  178.3500  149.1980 C   0  0  0  0  0  1  0  0  0  0  0  0
  188.8180  178.2170  147.9740 C   0  0  0  0  0  0  0  0  0  0  0  0
  185.2030  178.6110  146.9360 C   0  0  0  0  0  1  0  0  0  0  0  0
  189.4100  177.8370  146.7670 C   0  0  0  0  0  3  0  0  0  0  0  0
  186.6630  178.3410  146.8780 C   0  0  0  0  0  0  0  0  0  0  0  0
  191.8770  174.5890  136.9750 O   0  0  0  0  0  0  0  0  0  0  0  0
  191.8940  175.7290  137.5080 C   0  0  0  0  0  0  0  0  0  0  0  0
  190.7130  176.2200  138.1480 N   0  0  0  0  0  2  0  0  0  0  0  0
  193.1330  176.5600  137.4130 C   0  0  0  0  0  2  0  0  0  0  0  0
  194.8750  175.5930  136.1010 O   0  0  0  0  0  0  0  0  0  0  0  0
  194.3300  175.6910  137.2310 C   0  0  0  0  0  0  0  0  0  0  0  0
  194.8670  174.9820  138.3410 N   0  0  0  0  0  1  0  0  0  0  0  0
  186.9490  178.5790  141.7000 C   0  0  0  0  0  2  0  0  0  0  0  0
  186.0190  178.7720  140.5150 C   0  0  0  0  0  2  0  0  0  0  0  0
  184.7340  179.2730  140.9690 N   0  0  0  0  0  2  0  0  0  0  0  0
  184.7510  179.2160  142.4200 C   0  0  0  0  0  2  0  0  0  0  0  0
  183.3600  178.8870  142.9410 C   0  0  0  0  0  2  0  0  0  0  0  0
  182.4870  178.4990  141.8430 N   0  0  0  0  0  2  0  0  0  0  0  0
  181.2360  179.2250  142.0040 C   0  0  0  0  0  2  0  0  0  0  0  0
  180.1420  178.2770  142.4560 C   0  0  0  0  0  2  0  0  0  0  0  0
  180.0020  178.3190  143.9670 C   0  0  0  0  0  2  0  0  0  0  0  0
  178.9320  179.3210  144.3450 C   0  0  0  0  0  1  0  0  0  0  0  0
  1 11  2  0  0  0  0
  2  9  1  0  0  0  0
  2 16  1  1  0  0  0
  4  3  1  1  0  0  0
  4  7  1  0  0  0  0
  5  6  1  0  0  0  0
  6  3  1  0  0  0  0
  6  1  2  0  0  0  0
  7  2  1  0  0  0  0
  8 10  1  0  0  0  0
 10 29  1  0  0  0  0
 10  4  1  0  0  0  0
 11  9  1  0  0  0  0
 12  8  1  0  0  0  0
 13 24  1  1  0  0  0
 13 12  1  0  0  0  0
 13  5  1  0  0  0  0
 14 21  1  0  0  0  0
 16 14  2  0  0  0  0
 16 20  1  0  0  0  0
 18 15  1  0  0  0  0
 18 17  1  0  0  0  0
 20 18  2  0  0  0  0
 21 19  1  0  0  0  0
 21 15  2  0  0  0  0
 22 23  2  0  0  0  0
 23 24  1  0  0  0  0
 25 23  1  0  0  0  0
 26 27  2  0  0  0  0
 27 25  1  0  0  0  0
 27 28  1  0  0  0  0
 30 31  1  0  0  0  0
 30 29  1  0  0  0  0
 31 32  1  0  0  0  0
 32 33  1  0  0  0  0
 34 35  1  0  0  0  0
 34 33  1  0  0  0  0
 35 36  1  0  0  0  0
 36 37  1  0  0  0  0
 37 38  1  0  0  0  0
M  END
>  <MODEL>
2

>  <REMARK>
 VINA RESULT:      -7.3      0.948      1.887
  Name = 
  13 active torsions:
  status: ('A' for Active; 'I' for Inactive)
    1  A    between atoms: N_2  and  C_3
    2  A    between atoms: N_2  and  C_15
    3  A    between atoms: C_3  and  C_8
    4  A    between atoms: C_5  and  C_9
    5  A    between atoms: C_8  and  N_33
    6  A    between atoms: C_15  and  C_30
    7  A    between atoms: C_16  and  C_27
    8  A    between atoms: C_19  and  C_27
    9  A    between atoms: C_20  and  C_30
   10  A    between atoms: N_24  and  C_29
   11  A    between atoms: C_29  and  C_37
   12  A    between atoms: C_31  and  N_38
   13  A    between atoms: N_33  and  C_37
                            x       y       z     vdW  Elec       q    Type
                         _______ _______ _______ _____ _____    ______ ____

>  <TORSDO>
F 13

$$$$
=
 OpenBabel10222421013D

 38 40  0  0  1  0  0  0  0  0999 V2000
  188.8880  175.0270  136.9830 C   0  0  0  0  0  0  0  0  0  0  0  0
  186.5680  176.8890  137.2620 C   0  0  2  0  0  3  0  0  0  0  0  0
  189.8110  177.1180  137.0140 C   0  0  0  0  0  2  0  0  0  0  0  0
  189.0170  177.8450  137.8030 C   0  0  1  0  0  3  0  0  0  0  0  0
  190.9880  175.1480  138.0580 O   0  0  0  0  0  0  0  0  0  0  0  0
  189.9550  175.6970  137.2920 C   0  0  0  0  0  0  0  0  0  0  0  0
  187.5330  178.4450  136.9760 S   0  0  0  0  0  0  0  0  0  0  0  0
  189.9730  176.8610  139.9830 C   0  0  0  0  0  2  0  0  0  0  0  0
  186.7810  175.8090  136.1810 C   0  0  0  0  0  2  0  0  0  0  0  0
  189.0350  177.7210  139.2490 N   0  0  0  0  0  0  0  0  0  0  0  0
  187.6790  174.6930  136.6490 C   0  0  0  0  0  3  0  0  0  0  0  0
  191.4150  177.1010  139.5430 C   0  0  0  0  0  2  0  0  0  0  0  0
  191.9890  175.9350  138.7210 C   0  0  2  0  0  3  0  0  0  0  0  0
  184.7040  178.2350  138.2360 C   0  0  0  0  0  3  0  0  0  0  0  0
  182.3860  177.7640  137.7240 C   0  0  0  0  0  3  0  0  0  0  0  0
  185.1090  177.1900  137.4000 C   0  0  0  0  0  0  0  0  0  0  0  0
  181.7630  175.8970  136.1850 C   0  0  0  0  0  1  0  0  0  0  0  0
  182.7830  176.7090  136.8970 C   0  0  0  0  0  0  0  0  0  0  0  0
  182.9260  179.6460  139.2760 C   0  0  0  0  0  1  0  0  0  0  0  0
  184.1410  176.4200  136.7370 C   0  0  0  0  0  3  0  0  0  0  0  0
  183.3470  178.5260  138.3940 C   0  0  0  0  0  0  0  0  0  0  0  0
  194.7400  176.1550  136.3030 O   0  0  0  0  0  0  0  0  0  0  0  0
  193.9370  175.6290  137.1160 C   0  0  0  0  0  0  0  0  0  0  0  0
  192.9540  176.4470  137.7580 N   0  0  0  0  0  2  0  0  0  0  0  0
  194.0640  174.1730  137.4290 C   0  0  0  0  0  2  0  0  0  0  0  0
  195.5050  174.9320  139.1720 O   0  0  0  0  0  0  0  0  0  0  0  0
  195.0760  173.9570  138.5020 C   0  0  0  0  0  0  0  0  0  0  0  0
  195.5470  172.6430  138.7780 N   0  0  0  0  0  1  0  0  0  0  0  0
  188.2310  178.6290  140.0580 C   0  0  0  0  0  2  0  0  0  0  0  0
  188.4130  178.3390  141.5370 C   0  0  0  0  0  2  0  0  0  0  0  0
  187.1400  177.9750  142.1310 N   0  0  0  0  0  2  0  0  0  0  0  0
  186.1450  178.8770  141.5780 C   0  0  0  0  0  2  0  0  0  0  0  0
  185.1560  179.2830  142.6600 C   0  0  0  0  0  2  0  0  0  0  0  0
  185.0220  178.2220  143.6480 N   0  0  0  0  0  2  0  0  0  0  0  0
  184.5960  178.8390  144.8950 C   0  0  0  0  0  2  0  0  0  0  0  0
  185.7330  178.8180  145.8980 C   0  0  0  0  0  2  0  0  0  0  0  0
  186.5990  177.5900  145.6860 C   0  0  0  0  0  2  0  0  0  0  0  0
  187.8550  177.7100  146.5230 C   0  0  0  0  0  1  0  0  0  0  0  0
  1  6  2  0  0  0  0
  2 16  1  6  0  0  0
  3  6  1  0  0  0  0
  4  3  1  6  0  0  0
  4 10  1  0  0  0  0
  5 13  1  0  0  0  0
  6  5  1  0  0  0  0
  7  2  1  0  0  0  0
  7  4  1  0  0  0  0
  9 11  1  0  0  0  0
  9  2  1  0  0  0  0
 10  8  1  0  0  0  0
 10 29  1  0  0  0  0
 11  1  2  0  0  0  0
 12  8  1  0  0  0  0
 13 24  1  6  0  0  0
 13 12  1  0  0  0  0
 14 21  1  0  0  0  0
 15 21  2  0  0  0  0
 16 14  2  0  0  0  0
 17 18  1  0  0  0  0
 18 15  1  0  0  0  0
 20 18  2  0  0  0  0
 20 16  1  0  0  0  0
 21 19  1  0  0  0  0
 22 23  2  0  0  0  0
 23 25  1  0  0  0  0
 23 24  1  0  0  0  0
 25 27  1  0  0  0  0
 27 28  1  0  0  0  0
 27 26  2  0  0  0  0
 29 30  1  0  0  0  0
 30 31  1  0  0  0  0
 32 31  1  0  0  0  0
 32 33  1  0  0  0  0
 33 34  1  0  0  0  0
 34 35  1  0  0  0  0
 35 36  1  0  0  0  0
 37 36  1  0  0  0  0
 37 38  1  0  0  0  0
M  END
>  <MODEL>
3

>  <REMARK>
 VINA RESULT:      -7.0      2.613      6.320
  Name = 
  13 active torsions:
  status: ('A' for Active; 'I' for Inactive)
    1  A    between atoms: N_2  and  C_3
    2  A    between atoms: N_2  and  C_15
    3  A    between atoms: C_3  and  C_8
    4  A    between atoms: C_5  and  C_9
    5  A    between atoms: C_8  and  N_33
    6  A    between atoms: C_15  and  C_30
    7  A    between atoms: C_16  and  C_27
    8  A    between atoms: C_19  and  C_27
    9  A    between atoms: C_20  and  C_30
   10  A    between atoms: N_24  and  C_29
   11  A    between atoms: C_29  and  C_37
   12  A    between atoms: C_31  and  N_38
   13  A    between atoms: N_33  and  C_37
                            x       y       z     vdW  Elec       q    Type
                         _______ _______ _______ _____ _____    ______ ____

>  <TORSDO>
F 13

$$$$
=
 OpenBabel10222421013D

 38 40  0  0  1  0  0  0  0  0999 V2000
  191.5360  177.6050  142.7230 C   0  0  0  0  0  0  0  0  0  0  0  0
  189.0140  177.4480  144.3180 C   0  0  2  0  0  3  0  0  0  0  0  0
  190.1760  176.2000  141.5380 C   0  0  0  0  0  2  0  0  0  0  0  0
  188.9340  176.6370  141.7610 C   0  0  1  0  0  3  0  0  0  0  0  0
  191.7660  177.7750  140.3780 O   0  0  0  0  0  0  0  0  0  0  0  0
  191.2630  177.1670  141.5320 C   0  0  0  0  0  0  0  0  0  0  0  0
  188.2450  176.0820  143.3300 S   0  0  0  0  0  0  0  0  0  0  0  0
  189.1380  178.6120  140.1200 C   0  0  0  0  0  2  0  0  0  0  0  0
  190.4500  177.1470  144.7970 C   0  0  0  0  0  2  0  0  0  0  0  0
  188.4050  177.8290  141.1230 N   0  0  0  0  0  0  0  0  0  0  0  0
  191.4920  177.8770  143.9920 C   0  0  0  0  0  3  0  0  0  0  0  0
  189.6880  177.7230  139.0060 C   0  0  0  0  0  2  0  0  0  0  0  0
  191.2160  177.5670  139.0680 C   0  0  2  0  0  3  0  0  0  0  0  0
  186.8030  178.1060  145.2730 C   0  0  0  0  0  3  0  0  0  0  0  0
  186.5070  178.5210  147.6400 C   0  0  0  0  0  3  0  0  0  0  0  0
  188.1520  177.8050  145.4870 C   0  0  0  0  0  0  0  0  0  0  0  0
  188.4200  178.3030  149.2320 C   0  0  0  0  0  1  0  0  0  0  0  0
  187.8580  178.2350  147.8590 C   0  0  0  0  0  0  0  0  0  0  0  0
  184.5450  178.7650  146.1120 C   0  0  0  0  0  1  0  0  0  0  0  0
  188.6800  177.8800  146.7850 C   0  0  0  0  0  3  0  0  0  0  0  0
  185.9810  178.4570  146.3470 C   0  0  0  0  0  0  0  0  0  0  0  0
  191.7260  174.6850  136.8560 O   0  0  0  0  0  0  0  0  0  0  0  0
  191.3780  175.8410  137.2090 C   0  0  0  0  0  0  0  0  0  0  0  0
  191.5930  176.2550  138.5610 N   0  0  0  0  0  2  0  0  0  0  0  0
  190.7020  176.7340  136.2190 C   0  0  0  0  0  2  0  0  0  0  0  0
  189.7740  175.2550  134.5940 O   0  0  0  0  0  0  0  0  0  0  0  0
  189.5650  176.0240  135.5680 C   0  0  0  0  0  0  0  0  0  0  0  0
  188.2420  176.2050  136.0580 N   0  0  0  0  0  1  0  0  0  0  0  0
  187.0040  178.1830  141.3130 C   0  0  0  0  0  2  0  0  0  0  0  0
  186.3700  178.6020  140.0000 C   0  0  0  0  0  2  0  0  0  0  0  0
  185.1150  179.2880  140.2510 N   0  0  0  0  0  2  0  0  0  0  0  0
  184.7210  178.9560  141.6090 C   0  0  0  0  0  2  0  0  0  0  0  0
  183.2380  178.6190  141.6500 C   0  0  0  0  0  2  0  0  0  0  0  0
  182.7530  178.3050  140.3130 N   0  0  0  0  0  2  0  0  0  0  0  0
  181.2990  178.3450  140.3560 C   0  0  0  0  0  2  0  0  0  0  0  0
  180.7950  179.5910  139.6540 C   0  0  0  0  0  2  0  0  0  0  0  0
  181.8080  180.0620  138.6270 C   0  0  0  0  0  2  0  0  0  0  0  0
  181.6830  181.5600  138.4470 C   0  0  0  0  0  1  0  0  0  0  0  0
  1 11  2  0  0  0  0
  2  9  1  0  0  0  0
  2 16  1  1  0  0  0
  4  3  1  1  0  0  0
  4  7  1  0  0  0  0
  5  6  1  0  0  0  0
  6  3  1  0  0  0  0
  6  1  2  0  0  0  0
  7  2  1  0  0  0  0
  8 10  1  0  0  0  0
 10 29  1  0  0  0  0
 10  4  1  0  0  0  0
 11  9  1  0  0  0  0
 12 13  1  0  0  0  0
 12  8  1  0  0  0  0
 13 24  1  1  0  0  0
 13  5  1  0  0  0  0
 14 16  2  0  0  0  0
 14 21  1  0  0  0  0
 15 18  1  0  0  0  0
 16 20  1  0  0  0  0
 18 17  1  0  0  0  0
 19 21  1  0  0  0  0
 20 18  2  0  0  0  0
 21 15  2  0  0  0  0
 22 23  2  0  0  0  0
 23 24  1  0  0  0  0
 25 23  1  0  0  0  0
 26 27  2  0  0  0  0
 27 28  1  0  0  0  0
 27 25  1  0  0  0  0
 30 31  1  0  0  0  0
 30 29  1  0  0  0  0
 31 32  1  0  0  0  0
 32 33  1  0  0  0  0
 34 35  1  0  0  0  0
 34 33  1  0  0  0  0
 36 35  1  0  0  0  0
 37 36  1  0  0  0  0
 38 37  1  0  0  0  0
M  END
>  <MODEL>
4

>  <REMARK>
 VINA RESULT:      -6.8      1.477      2.792
  Name = 
  13 active torsions:
  status: ('A' for Active; 'I' for Inactive)
    1  A    between atoms: N_2  and  C_3
    2  A    between atoms: N_2  and  C_15
    3  A    between atoms: C_3  and  C_8
    4  A    between atoms: C_5  and  C_9
    5  A    between atoms: C_8  and  N_33
    6  A    between atoms: C_15  and  C_30
    7  A    between atoms: C_16  and  C_27
    8  A    between atoms: C_19  and  C_27
    9  A    between atoms: C_20  and  C_30
   10  A    between atoms: N_24  and  C_29
   11  A    between atoms: C_29  and  C_37
   12  A    between atoms: C_31  and  N_38
   13  A    between atoms: N_33  and  C_37
                            x       y       z     vdW  Elec       q    Type
                         _______ _______ _______ _____ _____    ______ ____

>  <TORSDO>
F 13

$$$$
=
 OpenBabel10222421013D

 38 40  0  0  1  0  0  0  0  0999 V2000
  188.8230  175.0410  136.8480 C   0  0  0  0  0  0  0  0  0  0  0  0
  186.6140  177.0250  137.1850 C   0  0  2  0  0  3  0  0  0  0  0  0
  189.8650  177.0730  136.9370 C   0  0  0  0  0  2  0  0  0  0  0  0
  189.1150  177.8220  137.7480 C   0  0  1  0  0  3  0  0  0  0  0  0
  190.9270  175.0090  137.9210 O   0  0  0  0  0  0  0  0  0  0  0  0
  189.9270  175.6390  137.1740 C   0  0  0  0  0  0  0  0  0  0  0  0
  187.6680  178.5300  136.9420 S   0  0  0  0  0  0  0  0  0  0  0  0
  190.0120  176.7210  139.8970 C   0  0  0  0  0  2  0  0  0  0  0  0
  186.7640  175.9660  136.0730 C   0  0  0  0  0  2  0  0  0  0  0  0
  189.1260  177.6550  139.1900 N   0  0  0  0  0  0  0  0  0  0  0  0
  187.5960  174.7870  136.5070 C   0  0  0  0  0  3  0  0  0  0  0  0
  191.4660  176.8900  139.4620 C   0  0  0  0  0  2  0  0  0  0  0  0
  191.9710  175.7170  138.6050 C   0  0  2  0  0  3  0  0  0  0  0  0
  184.2630  177.0250  136.3440 C   0  0  0  0  0  3  0  0  0  0  0  0
  182.4780  178.1330  137.5470 C   0  0  0  0  0  3  0  0  0  0  0  0
  185.1750  177.4060  137.3340 C   0  0  0  0  0  0  0  0  0  0  0  0
  182.9230  179.3270  139.6960 C   0  0  0  0  0  1  0  0  0  0  0  0
  183.3870  178.5290  138.5320 C   0  0  0  0  0  0  0  0  0  0  0  0
  181.9520  176.9640  135.4020 C   0  0  0  0  0  1  0  0  0  0  0  0
  184.7340  178.1690  138.4260 C   0  0  0  0  0  3  0  0  0  0  0  0
  182.9170  177.3820  136.4530 C   0  0  0  0  0  0  0  0  0  0  0  0
  194.9150  175.9310  136.4250 O   0  0  0  0  0  0  0  0  0  0  0  0
  194.0990  175.4330  137.2440 C   0  0  0  0  0  0  0  0  0  0  0  0
  192.9640  176.2000  137.6550 N   0  0  0  0  0  2  0  0  0  0  0  0
  194.3650  174.0730  137.8040 C   0  0  0  0  0  2  0  0  0  0  0  0
  196.5410  173.2670  138.3560 O   0  0  0  0  0  0  0  0  0  0  0  0
  195.6160  174.0790  138.6140 C   0  0  0  0  0  0  0  0  0  0  0  0
  195.7680  175.0150  139.6750 N   0  0  0  0  0  1  0  0  0  0  0  0
  188.3760  178.5840  140.0260 C   0  0  0  0  0  2  0  0  0  0  0  0
  188.5990  178.2860  141.4980 C   0  0  0  0  0  2  0  0  0  0  0  0
  187.3630  177.8200  142.1020 N   0  0  0  0  0  2  0  0  0  0  0  0
  187.6610  177.5260  143.4920 C   0  0  0  0  0  2  0  0  0  0  0  0
  189.1580  177.6450  143.7370 C   0  0  0  0  0  2  0  0  0  0  0  0
  189.4130  178.2200  145.0490 N   0  0  0  0  0  2  0  0  0  0  0  0
  190.3160  177.3200  145.7520 C   0  0  0  0  0  2  0  0  0  0  0  0
  189.6060  176.6970  146.9380 C   0  0  0  0  0  2  0  0  0  0  0  0
  188.3920  177.5240  147.3180 C   0  0  0  0  0  2  0  0  0  0  0  0
  188.6520  178.2250  148.6350 C   0  0  0  0  0  1  0  0  0  0  0  0
  1  6  2  0  0  0  0
  2 16  1  6  0  0  0
  3  6  1  0  0  0  0
  4  3  1  6  0  0  0
  4 10  1  0  0  0  0
  5 13  1  0  0  0  0
  6  5  1  0  0  0  0
  7  2  1  0  0  0  0
  7  4  1  0  0  0  0
  9 11  1  0  0  0  0
  9  2  1  0  0  0  0
 10  8  1  0  0  0  0
 10 29  1  0  0  0  0
 11  1  2  0  0  0  0
 12  8  1  0  0  0  0
 13 24  1  6  0  0  0
 13 12  1  0  0  0  0
 14 21  2  0  0  0  0
 14 16  1  0  0  0  0
 15 18  2  0  0  0  0
 16 20  2  0  0  0  0
 18 17  1  0  0  0  0
 19 21  1  0  0  0  0
 20 18  1  0  0  0  0
 21 15  1  0  0  0  0
 22 23  2  0  0  0  0
 23 24  1  0  0  0  0
 23 25  1  0  0  0  0
 25 27  1  0  0  0  0
 26 27  2  0  0  0  0
 27 28  1  0  0  0  0
 29 30  1  0  0  0  0
 30 31  1  0  0  0  0
 31 32  1  0  0  0  0
 32 33  1  0  0  0  0
 33 34  1  0  0  0  0
 34 35  1  0  0  0  0
 35 36  1  0  0  0  0
 36 37  1  0  0  0  0
 37 38  1  0  0  0  0
M  END
>  <MODEL>
5

>  <REMARK>
 VINA RESULT:      -6.7      2.651      7.082
  Name = 
  13 active torsions:
  status: ('A' for Active; 'I' for Inactive)
    1  A    between atoms: N_2  and  C_3
    2  A    between atoms: N_2  and  C_15
    3  A    between atoms: C_3  and  C_8
    4  A    between atoms: C_5  and  C_9
    5  A    between atoms: C_8  and  N_33
    6  A    between atoms: C_15  and  C_30
    7  A    between atoms: C_16  and  C_27
    8  A    between atoms: C_19  and  C_27
    9  A    between atoms: C_20  and  C_30
   10  A    between atoms: N_24  and  C_29
   11  A    between atoms: C_29  and  C_37
   12  A    between atoms: C_31  and  N_38
   13  A    between atoms: N_33  and  C_37
                            x       y       z     vdW  Elec       q    Type
                         _______ _______ _______ _____ _____    ______ ____

>  <TORSDO>
F 13

$$$$
=
 OpenBabel10222421013D

 38 40  0  0  1  0  0  0  0  0999 V2000
  189.3800  177.2020  135.3050 C   0  0  0  0  0  0  0  0  0  0  0  0
  191.8100  175.8450  136.3900 C   0  0  2  0  0  3  0  0  0  0  0  0
  188.6240  175.9680  137.0750 C   0  0  0  0  0  2  0  0  0  0  0  0
  189.6300  175.9540  137.9520 C   0  0  1  0  0  3  0  0  0  0  0  0
  187.6140  178.2080  136.5100 O   0  0  0  0  0  0  0  0  0  0  0  0
  188.4630  177.1350  136.2200 C   0  0  0  0  0  0  0  0  0  0  0  0
  190.9040  174.7390  137.5690 S   0  0  0  0  0  0  0  0  0  0  0  0
  189.1710  178.3440  138.7960 C   0  0  0  0  0  2  0  0  0  0  0  0
  191.2740  175.7970  134.9440 C   0  0  0  0  0  2  0  0  0  0  0  0
  189.9550  177.1020  138.7790 N   0  0  0  0  0  0  0  0  0  0  0  0
  190.4490  177.0080  134.5940 C   0  0  0  0  0  3  0  0  0  0  0  0
  187.6830  178.0650  138.9950 C   0  0  0  0  0  2  0  0  0  0  0  0
  186.8560  178.3150  137.7230 C   0  0  2  0  0  3  0  0  0  0  0  0
  193.7770  174.6380  137.3420 C   0  0  0  0  0  3  0  0  0  0  0  0
  196.0170  174.9720  136.4860 C   0  0  0  0  0  3  0  0  0  0  0  0
  193.2750  175.5410  136.4000 C   0  0  0  0  0  0  0  0  0  0  0  0
  196.4490  176.5490  134.5980 C   0  0  0  0  0  1  0  0  0  0  0  0
  195.5230  175.8860  135.5510 C   0  0  0  0  0  0  0  0  0  0  0  0
  195.6680  173.3800  138.3800 C   0  0  0  0  0  1  0  0  0  0  0  0
  194.1560  176.1730  135.5090 C   0  0  0  0  0  3  0  0  0  0  0  0
  195.1430  174.3490  137.3820 C   0  0  0  0  0  0  0  0  0  0  0  0
  183.4890  176.9060  138.1010 O   0  0  0  0  0  0  0  0  0  0  0  0
  184.4130  177.7590  138.1530 C   0  0  0  0  0  0  0  0  0  0  0  0
  185.7200  177.4040  137.6940 N   0  0  0  0  0  2  0  0  0  0  0  0
  184.1320  179.1050  138.7390 C   0  0  0  0  0  2  0  0  0  0  0  0
  185.2350  179.5630  140.8040 O   0  0  0  0  0  0  0  0  0  0  0  0
  184.2380  179.0590  140.2250 C   0  0  0  0  0  0  0  0  0  0  0  0
  183.2030  178.4540  140.9910 N   0  0  0  0  0  1  0  0  0  0  0  0
  190.9860  176.9800  139.8020 C   0  0  0  0  0  2  0  0  0  0  0  0
  190.4070  177.2240  141.1830 C   0  0  0  0  0  2  0  0  0  0  0  0
  191.4770  177.3370  142.1580 N   0  0  0  0  0  2  0  0  0  0  0  0
  190.8490  177.5600  143.4480 C   0  0  0  0  0  2  0  0  0  0  0  0
  189.3520  177.3070  143.3440 C   0  0  0  0  0  2  0  0  0  0  0  0
  188.6520  177.9570  144.4430 N   0  0  0  0  0  2  0  0  0  0  0  0
  187.2410  177.6230  144.3180 C   0  0  0  0  0  2  0  0  0  0  0  0
  186.6240  177.4600  145.6940 C   0  0  0  0  0  2  0  0  0  0  0  0
  185.8060  178.6860  146.0530 C   0  0  0  0  0  2  0  0  0  0  0  0
  184.9600  179.0920  144.8650 C   0  0  0  0  0  1  0  0  0  0  0  0
  1  6  2  0  0  0  0
  2 16  1  6  0  0  0
  2  7  1  0  0  0  0
  4  3  1  6  0  0  0
  4 10  1  0  0  0  0
  5 13  1  0  0  0  0
  6  5  1  0  0  0  0
  6  3  1  0  0  0  0
  7  4  1  0  0  0  0
  8 12  1  0  0  0  0
  9  2  1  0  0  0  0
 10  8  1  0  0  0  0
 10 29  1  0  0  0  0
 11  9  1  0  0  0  0
 11  1  2  0  0  0  0
 13 24  1  6  0  0  0
 13 12  1  0  0  0  0
 14 21  1  0  0  0  0
 15 21  2  0  0  0  0
 16 14  2  0  0  0  0
 17 18  1  0  0  0  0
 18 15  1  0  0  0  0
 20 18  2  0  0  0  0
 20 16  1  0  0  0  0
 21 19  1  0  0  0  0
 22 23  2  0  0  0  0
 23 25  1  0  0  0  0
 24 23  1  0  0  0  0
 25 27  1  0  0  0  0
 27 26  2  0  0  0  0
 27 28  1  0  0  0  0
 29 30  1  0  0  0  0
 30 31  1  0  0  0  0
 31 32  1  0  0  0  0
 33 32  1  0  0  0  0
 33 34  1  0  0  0  0
 35 34  1  0  0  0  0
 35 36  1  0  0  0  0
 36 37  1  0  0  0  0
 38 37  1  0  0  0  0
M  END
>  <MODEL>
6

>  <REMARK>
 VINA RESULT:      -6.5      3.052      8.892
  Name = 
  13 active torsions:
  status: ('A' for Active; 'I' for Inactive)
    1  A    between atoms: N_2  and  C_3
    2  A    between atoms: N_2  and  C_15
    3  A    between atoms: C_3  and  C_8
    4  A    between atoms: C_5  and  C_9
    5  A    between atoms: C_8  and  N_33
    6  A    between atoms: C_15  and  C_30
    7  A    between atoms: C_16  and  C_27
    8  A    between atoms: C_19  and  C_27
    9  A    between atoms: C_20  and  C_30
   10  A    between atoms: N_24  and  C_29
   11  A    between atoms: C_29  and  C_37
   12  A    between atoms: C_31  and  N_38
   13  A    between atoms: N_33  and  C_37
                            x       y       z     vdW  Elec       q    Type
                         _______ _______ _______ _____ _____    ______ ____

>  <TORSDO>
F 13

$$$$
=
 OpenBabel10222421013D

 38 40  0  0  1  0  0  0  0  0999 V2000
  191.6450  177.7120  142.4650 C   0  0  0  0  0  0  0  0  0  0  0  0
  189.2240  177.4400  144.1950 C   0  0  2  0  0  3  0  0  0  0  0  0
  190.2980  176.2290  141.3640 C   0  0  0  0  0  2  0  0  0  0  0  0
  189.0500  176.6040  141.6500 C   0  0  1  0  0  3  0  0  0  0  0  0
  191.7410  177.8740  140.1100 O   0  0  0  0  0  0  0  0  0  0  0  0
  191.3320  177.2510  141.2940 C   0  0  0  0  0  0  0  0  0  0  0  0
  188.4740  176.0280  143.2570 S   0  0  0  0  0  0  0  0  0  0  0  0
  189.0640  178.5730  139.9890 C   0  0  0  0  0  2  0  0  0  0  0  0
  190.6960  177.2160  144.5980 C   0  0  0  0  0  2  0  0  0  0  0  0
  188.4260  177.7620  141.0340 N   0  0  0  0  0  0  0  0  0  0  0  0
  191.6560  177.9910  143.7330 C   0  0  0  0  0  3  0  0  0  0  0  0
  189.5990  177.7040  138.8530 C   0  0  0  0  0  2  0  0  0  0  0  0
  191.1340  177.6270  138.8340 C   0  0  2  0  0  3  0  0  0  0  0  0
  187.0400  178.0150  145.2600 C   0  0  0  0  0  3  0  0  0  0  0  0
  186.8470  178.4110  147.6400 C   0  0  0  0  0  3  0  0  0  0  0  0
  188.4080  177.7610  145.4060 C   0  0  0  0  0  0  0  0  0  0  0  0
  188.8410  178.2570  149.1360 C   0  0  0  0  0  1  0  0  0  0  0  0
  188.2160  178.1730  147.7910 C   0  0  0  0  0  0  0  0  0  0  0  0
  184.8040  178.5900  146.2120 C   0  0  0  0  0  1  0  0  0  0  0  0
  188.9960  177.8520  146.6770 C   0  0  0  0  0  3  0  0  0  0  0  0
  186.2600  178.3320  146.3740 C   0  0  0  0  0  0  0  0  0  0  0  0
  191.2030  174.4500  137.0000 O   0  0  0  0  0  0  0  0  0  0  0  0
  190.7720  175.5660  137.3910 C   0  0  0  0  0  0  0  0  0  0  0  0
  191.5510  176.3320  138.3140 N   0  0  0  0  0  2  0  0  0  0  0  0
  189.4340  176.0380  136.9200 C   0  0  0  0  0  2  0  0  0  0  0  0
  190.3790  176.8520  134.8870 O   0  0  0  0  0  0  0  0  0  0  0  0
  189.4400  176.2260  135.4420 C   0  0  0  0  0  0  0  0  0  0  0  0
  188.3860  175.6840  134.6540 N   0  0  0  0  0  1  0  0  0  0  0  0
  187.0210  178.0450  141.2980 C   0  0  0  0  0  2  0  0  0  0  0  0
  186.3460  178.6200  140.0660 C   0  0  0  0  0  2  0  0  0  0  0  0
  185.2520  179.4890  140.4590 N   0  0  0  0  0  2  0  0  0  0  0  0
  184.2050  179.3210  139.4670 C   0  0  0  0  0  2  0  0  0  0  0  0
  183.7790  177.8620  139.4070 C   0  0  0  0  0  2  0  0  0  0  0  0
  182.9560  177.6230  138.2300 N   0  0  0  0  0  2  0  0  0  0  0  0
  183.5670  176.5310  137.4860 C   0  0  0  0  0  2  0  0  0  0  0  0
  182.5120  175.8090  136.6690 C   0  0  0  0  0  2  0  0  0  0  0  0
  182.9280  175.7480  135.2110 C   0  0  0  0  0  2  0  0  0  0  0  0
  183.4340  177.1070  134.7740 C   0  0  0  0  0  1  0  0  0  0  0  0
  1 11  2  0  0  0  0
  2  9  1  0  0  0  0
  2 16  1  1  0  0  0
  4  3  1  1  0  0  0
  4  7  1  0  0  0  0
  5  6  1  0  0  0  0
  6  3  1  0  0  0  0
  6  1  2  0  0  0  0
  7  2  1  0  0  0  0
  8 10  1  0  0  0  0
 10 29  1  0  0  0  0
 10  4  1  0  0  0  0
 11  9  1  0  0  0  0
 12  8  1  0  0  0  0
 13 24  1  1  0  0  0
 13 12  1  0  0  0  0
 13  5  1  0  0  0  0
 14 16  2  0  0  0  0
 14 21  1  0  0  0  0
 15 18  1  0  0  0  0
 16 20  1  0  0  0  0
 18 17  1  0  0  0  0
 19 21  1  0  0  0  0
 20 18  2  0  0  0  0
 21 15  2  0  0  0  0
 22 23  2  0  0  0  0
 23 24  1  0  0  0  0
 25 23  1  0  0  0  0
 26 27  2  0  0  0  0
 27 25  1  0  0  0  0
 28 27  1  0  0  0  0
 30 31  1  0  0  0  0
 30 29  1  0  0  0  0
 32 31  1  0  0  0  0
 33 32  1  0  0  0  0
 34 33  1  0  0  0  0
 35 34  1  0  0  0  0
 36 35  1  0  0  0  0
 37 36  1  0  0  0  0
 38 37  1  0  0  0  0
M  END
>  <MODEL>
7

>  <REMARK>
 VINA RESULT:      -5.9      2.000      3.494
  Name = 
  13 active torsions:
  status: ('A' for Active; 'I' for Inactive)
    1  A    between atoms: N_2  and  C_3
    2  A    between atoms: N_2  and  C_15
    3  A    between atoms: C_3  and  C_8
    4  A    between atoms: C_5  and  C_9
    5  A    between atoms: C_8  and  N_33
    6  A    between atoms: C_15  and  C_30
    7  A    between atoms: C_16  and  C_27
    8  A    between atoms: C_19  and  C_27
    9  A    between atoms: C_20  and  C_30
   10  A    between atoms: N_24  and  C_29
   11  A    between atoms: C_29  and  C_37
   12  A    between atoms: C_31  and  N_38
   13  A    between atoms: N_33  and  C_37
                            x       y       z     vdW  Elec       q    Type
                         _______ _______ _______ _____ _____    ______ ____

>  <TORSDO>
F 13

$$$$
=
 OpenBabel10222421013D

 38 40  0  0  1  0  0  0  0  0999 V2000
  187.9950  176.6310  143.5410 C   0  0  0  0  0  0  0  0  0  0  0  0
  188.9010  177.2360  140.7580 C   0  0  2  0  0  3  0  0  0  0  0  0
  187.4730  178.8330  143.2160 C   0  0  0  0  0  2  0  0  0  0  0  0
  187.1840  178.9430  141.9180 C   0  0  1  0  0  3  0  0  0  0  0  0
  186.0050  177.3280  144.6070 O   0  0  0  0  0  0  0  0  0  0  0  0
  187.1800  177.5780  143.8920 C   0  0  0  0  0  0  0  0  0  0  0  0
  188.6390  179.0670  140.8630 S   0  0  0  0  0  0  0  0  0  0  0  0
  184.8330  177.9190  142.1680 C   0  0  0  0  0  2  0  0  0  0  0  0
  189.7400  176.6520  141.9140 C   0  0  0  0  0  2  0  0  0  0  0  0
  185.9280  178.4730  141.3610 N   0  0  0  0  0  0  0  0  0  0  0  0
  188.8980  175.9260  142.9300 C   0  0  0  0  0  3  0  0  0  0  0  0
  184.4810  178.8350  143.3390 C   0  0  0  0  0  2  0  0  0  0  0  0
  184.9170  178.2590  144.6960 C   0  0  2  0  0  3  0  0  0  0  0  0
  190.9010  176.7040  139.3620 C   0  0  0  0  0  3  0  0  0  0  0  0
  190.7140  176.2110  137.0000 C   0  0  0  0  0  3  0  0  0  0  0  0
  189.5140  176.8640  139.4450 C   0  0  0  0  0  0  0  0  0  0  0  0
  188.4920  176.2110  135.8580 C   0  0  0  0  0  1  0  0  0  0  0  0
  189.3280  176.3830  137.0730 C   0  0  0  0  0  0  0  0  0  0  0  0
  192.9730  176.1940  138.0660 C   0  0  0  0  0  1  0  0  0  0  0  0
  188.7290  176.7110  138.2920 C   0  0  0  0  0  3  0  0  0  0  0  0
  191.5000  176.3720  138.1440 C   0  0  0  0  0  0  0  0  0  0  0  0
  186.1890  180.1580  147.5670 O   0  0  0  0  0  0  0  0  0  0  0  0
  185.9460  179.1610  146.8390 C   0  0  0  0  0  0  0  0  0  0  0  0
  185.2540  179.3490  145.6010 N   0  0  0  0  0  2  0  0  0  0  0  0
  186.3430  177.7990  147.3110 C   0  0  0  0  0  2  0  0  0  0  0  0
  187.9730  177.9340  149.0470 O   0  0  0  0  0  0  0  0  0  0  0  0
  187.7450  177.8100  147.8160 C   0  0  0  0  0  0  0  0  0  0  0  0
  188.8280  177.6680  146.9040 N   0  0  0  0  0  1  0  0  0  0  0  0
  185.6240  178.7310  139.9590 C   0  0  0  0  0  2  0  0  0  0  0  0
  184.1310  178.6340  139.7040 C   0  0  0  0  0  2  0  0  0  0  0  0
  183.6050  179.9360  139.3350 N   0  0  0  0  0  2  0  0  0  0  0  0
  182.2770  179.7130  138.7890 C   0  0  0  0  0  2  0  0  0  0  0  0
  181.6980  181.0260  138.2840 C   0  0  0  0  0  2  0  0  0  0  0  0
  180.9220  180.8040  137.0730 N   0  0  0  0  0  2  0  0  0  0  0  0
  180.6680  182.1060  136.4730 C   0  0  0  0  0  2  0  0  0  0  0  0
  180.7860  183.1920  137.5250 C   0  0  0  0  0  2  0  0  0  0  0  0
  181.4810  184.4100  136.9480 C   0  0  0  0  0  2  0  0  0  0  0  0
  180.8350  184.7810  135.6300 C   0  0  0  0  0  1  0  0  0  0  0  0
  1  6  2  0  0  0  0
  2 16  1  6  0  0  0
  2  7  1  0  0  0  0
  2  9  1  0  0  0  0
  3  6  1  0  0  0  0
  4  3  1  1  0  0  0
  5 13  1  0  0  0  0
  6  5  1  0  0  0  0
  7  4  1  0  0  0  0
  8 12  1  0  0  0  0
  9 11  1  0  0  0  0
 10  4  1  0  0  0  0
 10  8  1  0  0  0  0
 11  1  2  0  0  0  0
 12 13  1  0  0  0  0
 13 24  1  1  0  0  0
 14 16  1  0  0  0  0
 15 18  2  0  0  0  0
 15 21  1  0  0  0  0
 17 18  1  0  0  0  0
 18 20  1  0  0  0  0
 19 21  1  0  0  0  0
 20 16  2  0  0  0  0
 21 14  2  0  0  0  0
 23 25  1  0  0  0  0
 23 22  2  0  0  0  0
 24 23  1  0  0  0  0
 25 27  1  0  0  0  0
 27 26  2  0  0  0  0
 28 27  1  0  0  0  0
 29 10  1  0  0  0  0
 30 29  1  0  0  0  0
 31 30  1  0  0  0  0
 32 31  1  0  0  0  0
 33 32  1  0  0  0  0
 34 33  1  0  0  0  0
 35 34  1  0  0  0  0
 35 36  1  0  0  0  0
 37 36  1  0  0  0  0
 38 37  1  0  0  0  0
M  END
>  <MODEL>
8

>  <REMARK>
 VINA RESULT:      -5.9      3.789      7.989
  Name = 
  13 active torsions:
  status: ('A' for Active; 'I' for Inactive)
    1  A    between atoms: N_2  and  C_3
    2  A    between atoms: N_2  and  C_15
    3  A    between atoms: C_3  and  C_8
    4  A    between atoms: C_5  and  C_9
    5  A    between atoms: C_8  and  N_33
    6  A    between atoms: C_15  and  C_30
    7  A    between atoms: C_16  and  C_27
    8  A    between atoms: C_19  and  C_27
    9  A    between atoms: C_20  and  C_30
   10  A    between atoms: N_24  and  C_29
   11  A    between atoms: C_29  and  C_37
   12  A    between atoms: C_31  and  N_38
   13  A    between atoms: N_33  and  C_37
                            x       y       z     vdW  Elec       q    Type
                         _______ _______ _______ _____ _____    ______ ____

>  <TORSDO>
F 13

$$$$
=
 OpenBabel10222421013D

 38 40  0  0  1  0  0  0  0  0999 V2000
  187.9780  176.6920  143.4660 C   0  0  0  0  0  0  0  0  0  0  0  0
  188.8410  177.2830  140.6670 C   0  0  2  0  0  3  0  0  0  0  0  0
  187.3940  178.8750  143.1180 C   0  0  0  0  0  2  0  0  0  0  0  0
  187.0900  178.9580  141.8220 C   0  0  1  0  0  3  0  0  0  0  0  0
  185.9810  177.3490  144.5430 O   0  0  0  0  0  0  0  0  0  0  0  0
  187.1420  177.6210  143.8130 C   0  0  0  0  0  0  0  0  0  0  0  0
  188.5310  179.1080  140.7510 S   0  0  0  0  0  0  0  0  0  0  0  0
  184.7700  177.8750  142.1080 C   0  0  0  0  0  2  0  0  0  0  0  0
  189.7070  176.7380  141.8230 C   0  0  0  0  0  2  0  0  0  0  0  0
  185.8420  178.4470  141.2830 N   0  0  0  0  0  0  0  0  0  0  0  0
  188.8950  176.0040  142.8570 C   0  0  0  0  0  3  0  0  0  0  0  0
  184.4050  178.7960  143.2700 C   0  0  0  0  0  2  0  0  0  0  0  0
  184.8690  178.2520  144.6300 C   0  0  2  0  0  3  0  0  0  0  0  0
  190.8390  176.7520  139.2680 C   0  0  0  0  0  3  0  0  0  0  0  0
  190.6480  176.2550  136.9060 C   0  0  0  0  0  3  0  0  0  0  0  0
  189.4530  176.9100  139.3540 C   0  0  0  0  0  0  0  0  0  0  0  0
  188.4230  176.2520  135.7690 C   0  0  0  0  0  1  0  0  0  0  0  0
  189.2620  176.4260  136.9830 C   0  0  0  0  0  0  0  0  0  0  0  0
  192.9100  176.2430  137.9680 C   0  0  0  0  0  1  0  0  0  0  0  0
  188.6650  176.7550  138.2030 C   0  0  0  0  0  3  0  0  0  0  0  0
  191.4360  176.4190  138.0490 C   0  0  0  0  0  0  0  0  0  0  0  0
  186.0880  180.2180  147.4780 O   0  0  0  0  0  0  0  0  0  0  0  0
  185.8630  179.2050  146.7670 C   0  0  0  0  0  0  0  0  0  0  0  0
  185.1850  179.3620  145.5180 N   0  0  0  0  0  2  0  0  0  0  0  0
  186.2670  177.8560  147.2700 C   0  0  0  0  0  2  0  0  0  0  0  0
  187.9380  177.9040  148.9730 O   0  0  0  0  0  0  0  0  0  0  0  0
  187.6810  177.8790  147.7410 C   0  0  0  0  0  0  0  0  0  0  0  0
  188.7440  177.8580  146.7950 N   0  0  0  0  0  1  0  0  0  0  0  0
  185.5180  178.6780  139.8810 C   0  0  0  0  0  2  0  0  0  0  0  0
  184.1540  179.3300  139.7430 C   0  0  0  0  0  2  0  0  0  0  0  0
  183.5080  178.8760  138.5240 N   0  0  0  0  0  2  0  0  0  0  0  0
  183.8230  177.4650  138.3840 C   0  0  0  0  0  2  0  0  0  0  0  0
  182.6330  176.6240  138.8190 C   0  0  0  0  0  2  0  0  0  0  0  0
  182.7800  175.2550  138.3460 N   0  0  0  0  0  2  0  0  0  0  0  0
  184.0560  175.1690  137.6520 C   0  0  0  0  0  2  0  0  0  0  0  0
  184.2280  173.7840  137.0570 C   0  0  0  0  0  2  0  0  0  0  0  0
  185.2760  173.0060  137.8300 C   0  0  0  0  0  2  0  0  0  0  0  0
  186.6370  173.2370  137.2080 C   0  0  0  0  0  1  0  0  0  0  0  0
  1  6  2  0  0  0  0
  2 16  1  6  0  0  0
  2  7  1  0  0  0  0
  2  9  1  0  0  0  0
  3  6  1  0  0  0  0
  4  3  1  1  0  0  0
  5 13  1  0  0  0  0
  6  5  1  0  0  0  0
  7  4  1  0  0  0  0
  8 12  1  0  0  0  0
  9 11  1  0  0  0  0
 10  4  1  0  0  0  0
 10  8  1  0  0  0  0
 11  1  2  0  0  0  0
 12 13  1  0  0  0  0
 13 24  1  1  0  0  0
 14 16  1  0  0  0  0
 15 18  2  0  0  0  0
 15 21  1  0  0  0  0
 17 18  1  0  0  0  0
 18 20  1  0  0  0  0
 19 21  1  0  0  0  0
 20 16  2  0  0  0  0
 21 14  2  0  0  0  0
 23 25  1  0  0  0  0
 23 22  2  0  0  0  0
 24 23  1  0  0  0  0
 25 27  1  0  0  0  0
 27 26  2  0  0  0  0
 28 27  1  0  0  0  0
 29 10  1  0  0  0  0
 30 29  1  0  0  0  0
 31 30  1  0  0  0  0
 32 31  1  0  0  0  0
 32 33  1  0  0  0  0
 34 33  1  0  0  0  0
 35 34  1  0  0  0  0
 36 35  1  0  0  0  0
 36 37  1  0  0  0  0
 38 37  1  0  0  0  0
M  END
>  <MODEL>
9

>  <REMARK>
 VINA RESULT:      -5.7      3.802      8.016
  Name = 
  13 active torsions:
  status: ('A' for Active; 'I' for Inactive)
    1  A    between atoms: N_2  and  C_3
    2  A    between atoms: N_2  and  C_15
    3  A    between atoms: C_3  and  C_8
    4  A    between atoms: C_5  and  C_9
    5  A    between atoms: C_8  and  N_33
    6  A    between atoms: C_15  and  C_30
    7  A    between atoms: C_16  and  C_27
    8  A    between atoms: C_19  and  C_27
    9  A    between atoms: C_20  and  C_30
   10  A    between atoms: N_24  and  C_29
   11  A    between atoms: C_29  and  C_37
   12  A    between atoms: C_31  and  N_38
   13  A    between atoms: N_33  and  C_37
                            x       y       z     vdW  Elec       q    Type
                         _______ _______ _______ _____ _____    ______ ____

>  <TORSDO>
F 13

$$$$
