=
 OpenBabel10222417563D

 33 37  0  0  1  0  0  0  0  0999 V2000
  191.4670  177.4640  141.4020 C   0  0  0  0  0  3  0  0  0  0  0  0
  189.4610  177.1970  140.0470 C   0  0  0  0  0  3  0  0  0  0  0  0
  191.1480  176.3520  136.9790 C   0  0  0  0  0  3  0  0  0  0  0  0
  190.0590  177.4910  141.2830 C   0  0  0  0  0  0  0  0  0  0  0  0
  189.9620  176.5630  137.6770 C   0  0  0  0  0  0  0  0  0  0  0  0
  190.2970  176.8830  138.9750 C   0  0  0  0  0  0  0  0  0  0  0  0
  191.6300  176.8670  139.1180 N   0  0  0  0  0  0  0  0  0  0  0  0
  192.1560  176.5470  137.9230 C   0  0  0  0  0  0  0  0  0  0  0  0
  192.2570  177.1450  140.2890 C   0  0  0  0  0  3  0  0  0  0  0  0
  193.5670  176.4420  137.6900 N   0  0  0  0  0  2  0  0  0  0  0  0
  194.9370  172.9680  137.3670 C   0  0  0  0  0  3  0  0  0  0  0  0
  196.1220  173.9140  137.2010 C   0  0  0  0  0  3  0  0  0  0  0  0
  195.5790  175.2520  137.3270 N   0  0  0  0  0  0  0  0  0  0  0  0
  194.3120  175.2280  137.5340 C   0  0  0  0  0  0  0  0  0  0  0  0
  193.7290  173.8660  137.5910 C   0  0  0  0  0  2  0  0  0  0  0  0
  188.5750  175.6490  143.0290 O   0  0  0  0  0  0  0  0  0  0  0  0
  188.4980  176.8930  143.2310 C   0  0  0  0  0  0  0  0  0  0  0  0
  189.2130  177.8140  142.3930 N   0  0  0  0  0  2  0  0  0  0  0  0
  187.6690  177.4030  144.3360 C   0  0  0  0  0  0  0  0  0  0  0  0
  187.3900  177.9080  146.6620 N   0  0  0  0  0  0  0  0  0  0  0  0
  188.1640  177.4360  145.6470 C   0  0  0  0  0  3  0  0  0  0  0  0
  185.5910  178.3450  145.1540 C   0  0  0  0  0  3  0  0  0  0  0  0
  185.3850  178.8230  147.4780 F   0  0  0  0  0  0  0  0  0  0  0  0
  186.1260  178.3590  146.4430 C   0  0  0  0  0  0  0  0  0  0  0  0
  186.3690  177.8640  144.1000 C   0  0  0  0  0  3  0  0  0  0  0  0
  188.5900  176.5180  137.0950 C   0  0  0  0  0  2  0  0  0  0  0  0
  188.3740  177.7140  136.1890 C   0  0  0  0  0  2  0  0  0  0  0  0
  187.2330  178.5540  136.7260 C   0  0  0  0  0  2  0  0  0  0  0  0
  185.0780  177.6320  137.4840 C   0  0  0  0  0  3  0  0  0  0  0  0
  186.5170  177.8140  137.8420 C   0  0  2  0  0  3  0  0  0  0  0  0
  185.2300  178.9130  139.3170 N   0  0  0  0  0  0  0  0  0  0  0  0
  184.3650  178.2930  138.3810 C   0  0  0  0  0  3  0  0  0  0  0  0
  186.4370  178.6540  139.0280 N   0  0  0  0  0  0  0  0  0  0  0  0
  2  4  2  0  0  0  0
  3  5  1  0  0  0  0
  3  8  2  0  0  0  0
  4  1  1  0  0  0  0
  4 18  1  0  0  0  0
  5  6  2  0  0  0  0
  6  7  1  0  0  0  0
  6  2  1  0  0  0  0
  7  9  1  0  0  0  0
  8  7  1  0  0  0  0
  9  1  2  0  0  0  0
 10  8  1  0  0  0  0
 11 15  1  0  0  0  0
 12 13  1  0  0  0  0
 12 11  2  0  0  0  0
 13 14  2  0  0  0  0
 14 15  1  0  0  0  0
 14 10  1  0  0  0  0
 16 17  2  0  0  0  0
 17 19  1  0  0  0  0
 18 17  1  0  0  0  0
 19 21  1  0  0  0  0
 21 20  2  0  0  0  0
 22 24  2  0  0  0  0
 24 20  1  0  0  0  0
 24 23  1  0  0  0  0
 25 19  2  0  0  0  0
 25 22  1  0  0  0  0
 26  5  1  0  0  0  0
 27 28  1  0  0  0  0
 27 26  1  0  0  0  0
 29 30  1  0  0  0  0
 29 32  2  0  0  0  0
 30 28  1  6  0  0  0
 30 33  1  0  0  0  0
 32 31  1  0  0  0  0
 33 31  2  0  0  0  0
M  END
>  <MODEL>
1

>  <REMARK>
 VINA RESULT:      -8.7      0.000      0.000
  Name = 
  7 active torsions:
  status: ('A' for Active; 'I' for Inactive)
    1  A    between atoms: C_3  and  C_12
    2  A    between atoms: N_4  and  C_32
    3  A    between atoms: C_5  and  C_25
    4  A    between atoms: C_19  and  N_27
    5  A    between atoms: C_21  and  C_31
    6  A    between atoms: C_25  and  C_30
    7  A    between atoms: C_30  and  C_31
                            x       y       z     vdW  Elec       q    Type
                         _______ _______ _______ _____ _____    ______ ____

>  <TORSDO>
F 7

$$$$
=
 OpenBabel10222417563D

 33 37  0  0  1  0  0  0  0  0999 V2000
  192.1820  177.4700  140.4960 C   0  0  0  0  0  3  0  0  0  0  0  0
  190.2480  176.3050  139.5840 C   0  0  0  0  0  3  0  0  0  0  0  0
  191.7630  175.3900  136.4470 C   0  0  0  0  0  3  0  0  0  0  0  0
  190.8460  177.0300  140.6270 C   0  0  0  0  0  0  0  0  0  0  0  0
  190.6630  175.3650  137.3000 C   0  0  0  0  0  0  0  0  0  0  0  0
  191.0140  176.0450  138.4470 C   0  0  0  0  0  0  0  0  0  0  0  0
  192.2790  176.4760  138.3510 N   0  0  0  0  0  0  0  0  0  0  0  0
  192.7440  176.0880  137.1500 C   0  0  0  0  0  0  0  0  0  0  0  0
  192.9020  177.1820  139.3280 C   0  0  0  0  0  3  0  0  0  0  0  0
  194.0700  176.3810  136.6900 N   0  0  0  0  0  2  0  0  0  0  0  0
  196.4600  173.4960  136.5820 C   0  0  0  0  0  3  0  0  0  0  0  0
  197.2350  174.7140  136.0910 C   0  0  0  0  0  3  0  0  0  0  0  0
  196.3010  175.8210  136.1370 N   0  0  0  0  0  0  0  0  0  0  0  0
  195.1490  175.4470  136.5640 C   0  0  0  0  0  0  0  0  0  0  0  0
  195.0610  174.0050  136.8960 C   0  0  0  0  0  2  0  0  0  0  0  0
  190.2870  175.2370  142.8900 O   0  0  0  0  0  0  0  0  0  0  0  0
  189.8140  176.4080  142.8940 C   0  0  0  0  0  0  0  0  0  0  0  0
  190.0720  177.3030  141.8010 N   0  0  0  0  0  2  0  0  0  0  0  0
  188.9910  176.8590  144.0300 C   0  0  0  0  0  0  0  0  0  0  0  0
  188.8160  177.6070  146.2990 N   0  0  0  0  0  0  0  0  0  0  0  0
  189.5840  177.1920  145.2550 C   0  0  0  0  0  3  0  0  0  0  0  0
  186.8310  177.3910  144.9900 C   0  0  0  0  0  3  0  0  0  0  0  0
  186.7310  178.1290  147.2510 F   0  0  0  0  0  0  0  0  0  0  0  0
  187.4640  177.7120  146.1910 C   0  0  0  0  0  0  0  0  0  0  0  0
  187.6010  176.9620  143.9070 C   0  0  0  0  0  3  0  0  0  0  0  0
  189.3320  174.7690  136.9880 C   0  0  0  0  0  2  0  0  0  0  0  0
  188.4600  175.7930  136.2900 C   0  0  0  0  0  2  0  0  0  0  0  0
  187.3770  176.2650  137.2390 C   0  0  0  0  0  2  0  0  0  0  0  0
  188.4320  178.3460  136.4470 C   0  0  0  0  0  3  0  0  0  0  0  0
  187.2770  177.7800  137.2090 C   0  0  2  0  0  3  0  0  0  0  0  0
  188.5310  179.0480  138.5730 N   0  0  0  0  0  0  0  0  0  0  0  0
  189.1340  179.0830  137.2910 C   0  0  0  0  0  3  0  0  0  0  0  0
  187.4920  178.3230  138.5420 N   0  0  0  0  0  0  0  0  0  0  0  0
  1  4  1  0  0  0  0
  2  4  2  0  0  0  0
  3  8  2  0  0  0  0
  3  5  1  0  0  0  0
  4 18  1  0  0  0  0
  5  6  2  0  0  0  0
  6  2  1  0  0  0  0
  7  6  1  0  0  0  0
  7  9  1  0  0  0  0
  8  7  1  0  0  0  0
  9  1  2  0  0  0  0
 10  8  1  0  0  0  0
 11 15  1  0  0  0  0
 12 13  1  0  0  0  0
 12 11  2  0  0  0  0
 13 14  2  0  0  0  0
 14 10  1  0  0  0  0
 14 15  1  0  0  0  0
 16 17  2  0  0  0  0
 17 19  1  0  0  0  0
 18 17  1  0  0  0  0
 19 21  1  0  0  0  0
 21 20  2  0  0  0  0
 22 24  2  0  0  0  0
 24 20  1  0  0  0  0
 24 23  1  0  0  0  0
 25 19  2  0  0  0  0
 25 22  1  0  0  0  0
 26  5  1  0  0  0  0
 27 26  1  0  0  0  0
 27 28  1  0  0  0  0
 29 30  1  0  0  0  0
 29 32  2  0  0  0  0
 30 28  1  1  0  0  0
 30 33  1  0  0  0  0
 32 31  1  0  0  0  0
 33 31  2  0  0  0  0
M  END
>  <MODEL>
2

>  <REMARK>
 VINA RESULT:      -8.5      1.384      1.856
  Name = 
  7 active torsions:
  status: ('A' for Active; 'I' for Inactive)
    1  A    between atoms: C_3  and  C_12
    2  A    between atoms: N_4  and  C_32
    3  A    between atoms: C_5  and  C_25
    4  A    between atoms: C_19  and  N_27
    5  A    between atoms: C_21  and  C_31
    6  A    between atoms: C_25  and  C_30
    7  A    between atoms: C_30  and  C_31
                            x       y       z     vdW  Elec       q    Type
                         _______ _______ _______ _____ _____    ______ ____

>  <TORSDO>
F 7

$$$$
=
 OpenBabel10222417563D

 33 37  0  0  1  0  0  0  0  0999 V2000
  189.1620  177.5410  137.7810 C   0  0  0  0  0  3  0  0  0  0  0  0
  189.9880  177.3850  140.0670 C   0  0  0  0  0  3  0  0  0  0  0  0
  186.9800  178.5520  141.6680 C   0  0  0  0  0  3  0  0  0  0  0  0
  190.2000  177.2290  138.6880 C   0  0  0  0  0  0  0  0  0  0  0  0
  188.2870  178.0810  141.7680 C   0  0  0  0  0  0  0  0  0  0  0  0
  188.7390  177.8460  140.4870 C   0  0  0  0  0  0  0  0  0  0  0  0
  187.7740  178.1330  139.6030 N   0  0  0  0  0  0  0  0  0  0  0  0
  186.7070  178.5600  140.3010 C   0  0  0  0  0  0  0  0  0  0  0  0
  187.9290  178.0020  138.2610 C   0  0  0  0  0  3  0  0  0  0  0  0
  185.4780  178.9680  139.6850 N   0  0  0  0  0  2  0  0  0  0  0  0
  182.3700  178.5140  141.7290 C   0  0  0  0  0  3  0  0  0  0  0  0
  181.9260  179.1190  140.4010 C   0  0  0  0  0  3  0  0  0  0  0  0
  183.1350  179.2890  139.6210 N   0  0  0  0  0  0  0  0  0  0  0  0
  184.1720  178.8910  140.2670 C   0  0  0  0  0  0  0  0  0  0  0  0
  183.8800  178.3680  141.6230 C   0  0  0  0  0  2  0  0  0  0  0  0
  190.9620  174.4880  137.9450 O   0  0  0  0  0  0  0  0  0  0  0  0
  191.8230  175.4090  137.8850 C   0  0  0  0  0  0  0  0  0  0  0  0
  191.4780  176.7570  138.2420 N   0  0  0  0  0  2  0  0  0  0  0  0
  193.1940  175.1000  137.4430 C   0  0  0  0  0  0  0  0  0  0  0  0
  195.2060  175.7400  136.3120 N   0  0  0  0  0  0  0  0  0  0  0  0
  193.9400  176.0360  136.7170 C   0  0  0  0  0  3  0  0  0  0  0  0
  195.0760  173.5780  137.3150 C   0  0  0  0  0  3  0  0  0  0  0  0
  197.0440  174.2820  136.1760 F   0  0  0  0  0  0  0  0  0  0  0  0
  195.7820  174.5420  136.5940 C   0  0  0  0  0  0  0  0  0  0  0  0
  193.7760  173.8620  137.7390 C   0  0  0  0  0  3  0  0  0  0  0  0
  189.0650  177.9330  143.0310 C   0  0  0  0  0  2  0  0  0  0  0  0
  188.3090  177.0470  144.0010 C   0  0  0  0  0  2  0  0  0  0  0  0
  188.1350  177.7750  145.3190 C   0  0  0  0  0  2  0  0  0  0  0  0
  185.7330  178.1440  144.9140 C   0  0  0  0  0  3  0  0  0  0  0  0
  186.7320  177.5570  145.8570 C   0  0  2  0  0  3  0  0  0  0  0  0
  185.6150  179.2150  146.8790 N   0  0  0  0  0  0  0  0  0  0  0  0
  185.1030  179.1100  145.5620 C   0  0  0  0  0  3  0  0  0  0  0  0
  186.5270  178.3530  147.0580 N   0  0  0  0  0  0  0  0  0  0  0  0
  1  9  2  0  0  0  0
  1  4  1  0  0  0  0
  2  6  1  0  0  0  0
  3  5  1  0  0  0  0
  4  2  2  0  0  0  0
  5 26  1  0  0  0  0
  6  5  2  0  0  0  0
  7  8  1  0  0  0  0
  7  6  1  0  0  0  0
  8  3  2  0  0  0  0
  9  7  1  0  0  0  0
 10 14  1  0  0  0  0
 10  8  1  0  0  0  0
 12 11  2  0  0  0  0
 13 14  2  0  0  0  0
 13 12  1  0  0  0  0
 14 15  1  0  0  0  0
 15 11  1  0  0  0  0
 17 16  2  0  0  0  0
 17 18  1  0  0  0  0
 18  4  1  0  0  0  0
 19 25  1  0  0  0  0
 19 17  1  0  0  0  0
 20 24  2  0  0  0  0
 20 21  1  0  0  0  0
 21 19  2  0  0  0  0
 22 25  2  0  0  0  0
 23 24  1  0  0  0  0
 24 22  1  0  0  0  0
 26 27  1  0  0  0  0
 27 28  1  0  0  0  0
 29 32  2  0  0  0  0
 29 30  1  0  0  0  0
 30 28  1  6  0  0  0
 30 33  1  0  0  0  0
 31 33  2  0  0  0  0
 32 31  1  0  0  0  0
M  END
>  <MODEL>
3

>  <REMARK>
 VINA RESULT:      -8.4      3.507      9.287
  Name = 
  7 active torsions:
  status: ('A' for Active; 'I' for Inactive)
    1  A    between atoms: C_3  and  C_12
    2  A    between atoms: N_4  and  C_32
    3  A    between atoms: C_5  and  C_25
    4  A    between atoms: C_19  and  N_27
    5  A    between atoms: C_21  and  C_31
    6  A    between atoms: C_25  and  C_30
    7  A    between atoms: C_30  and  C_31
                            x       y       z     vdW  Elec       q    Type
                         _______ _______ _______ _____ _____    ______ ____

>  <TORSDO>
F 7

$$$$
=
 OpenBabel10222417563D

 33 37  0  0  1  0  0  0  0  0999 V2000
  189.2490  177.5200  138.8550 C   0  0  0  0  0  3  0  0  0  0  0  0
  190.6330  177.3070  140.8470 C   0  0  0  0  0  3  0  0  0  0  0  0
  188.0560  178.1240  143.2260 C   0  0  0  0  0  3  0  0  0  0  0  0
  190.5010  177.2470  139.4510 C   0  0  0  0  0  0  0  0  0  0  0  0
  189.3740  177.7600  142.9630 C   0  0  0  0  0  0  0  0  0  0  0  0
  189.5030  177.6360  141.5960 C   0  0  0  0  0  0  0  0  0  0  0  0
  188.3290  177.8900  141.0020 N   0  0  0  0  0  0  0  0  0  0  0  0
  187.4460  178.1850  141.9730 C   0  0  0  0  0  0  0  0  0  0  0  0
  188.1490  177.8480  139.6580 C   0  0  0  0  0  3  0  0  0  0  0  0
  186.0760  178.5220  141.7120 N   0  0  0  0  0  2  0  0  0  0  0  0
  183.8310  178.7560  144.7030 C   0  0  0  0  0  3  0  0  0  0  0  0
  182.9620  179.0680  143.4890 C   0  0  0  0  0  3  0  0  0  0  0  0
  183.8410  178.9740  142.3410 N   0  0  0  0  0  0  0  0  0  0  0  0
  185.0390  178.6670  142.6890 C   0  0  0  0  0  0  0  0  0  0  0  0
  185.2220  178.4890  144.1490 C   0  0  0  0  0  2  0  0  0  0  0  0
  191.1220  174.6870  138.1440 O   0  0  0  0  0  0  0  0  0  0  0  0
  191.9320  175.6490  138.0400 C   0  0  0  0  0  0  0  0  0  0  0  0
  191.6540  176.9100  138.6680 N   0  0  0  0  0  2  0  0  0  0  0  0
  193.1740  175.4770  137.2660 C   0  0  0  0  0  0  0  0  0  0  0  0
  195.5050  174.9340  137.1740 N   0  0  0  0  0  0  0  0  0  0  0  0
  194.3630  175.0890  137.8980 C   0  0  0  0  0  3  0  0  0  0  0  0
  194.3720  175.5350  135.1610 C   0  0  0  0  0  3  0  0  0  0  0  0
  196.6880  174.9820  135.1440 F   0  0  0  0  0  0  0  0  0  0  0  0
  195.5330  175.1470  135.8320 C   0  0  0  0  0  0  0  0  0  0  0  0
  193.1900  175.7010  135.8850 C   0  0  0  0  0  3  0  0  0  0  0  0
  190.4530  177.6080  143.9790 C   0  0  0  0  0  2  0  0  0  0  0  0
  189.9940  176.6770  145.0840 C   0  0  0  0  0  2  0  0  0  0  0  0
  190.1960  177.3500  146.4270 C   0  0  0  0  0  2  0  0  0  0  0  0
  187.7510  177.2290  146.7120 C   0  0  0  0  0  3  0  0  0  0  0  0
  189.0670  176.9780  147.3740 C   0  0  2  0  0  3  0  0  0  0  0  0
  187.9440  178.5560  148.5090 N   0  0  0  0  0  0  0  0  0  0  0  0
  187.1300  178.1600  147.4170 C   0  0  0  0  0  3  0  0  0  0  0  0
  189.0300  177.9030  148.4960 N   0  0  0  0  0  0  0  0  0  0  0  0
  1  4  1  0  0  0  0
  1  9  2  0  0  0  0
  2  6  1  0  0  0  0
  4  2  2  0  0  0  0
  5  3  1  0  0  0  0
  5 26  1  0  0  0  0
  6  5  2  0  0  0  0
  7  6  1  0  0  0  0
  7  8  1  0  0  0  0
  8  3  2  0  0  0  0
  9  7  1  0  0  0  0
 10  8  1  0  0  0  0
 10 14  1  0  0  0  0
 12 11  2  0  0  0  0
 13 14  2  0  0  0  0
 13 12  1  0  0  0  0
 14 15  1  0  0  0  0
 15 11  1  0  0  0  0
 17 16  2  0  0  0  0
 17 18  1  0  0  0  0
 18  4  1  0  0  0  0
 19 21  1  0  0  0  0
 19 17  1  0  0  0  0
 20 21  2  0  0  0  0
 22 24  2  0  0  0  0
 22 25  1  0  0  0  0
 23 24  1  0  0  0  0
 24 20  1  0  0  0  0
 25 19  2  0  0  0  0
 26 27  1  0  0  0  0
 27 28  1  0  0  0  0
 29 30  1  0  0  0  0
 29 32  2  0  0  0  0
 30 28  1  6  0  0  0
 30 33  1  0  0  0  0
 32 31  1  0  0  0  0
 33 31  2  0  0  0  0
M  END
>  <MODEL>
4

>  <REMARK>
 VINA RESULT:      -8.3      3.665      9.705
  Name = 
  7 active torsions:
  status: ('A' for Active; 'I' for Inactive)
    1  A    between atoms: C_3  and  C_12
    2  A    between atoms: N_4  and  C_32
    3  A    between atoms: C_5  and  C_25
    4  A    between atoms: C_19  and  N_27
    5  A    between atoms: C_21  and  C_31
    6  A    between atoms: C_25  and  C_30
    7  A    between atoms: C_30  and  C_31
                            x       y       z     vdW  Elec       q    Type
                         _______ _______ _______ _____ _____    ______ ____

>  <TORSDO>
F 7

$$$$
=
 OpenBabel10222417563D

 33 37  0  0  1  0  0  0  0  0999 V2000
  186.0870  178.9510  141.2360 C   0  0  0  0  0  3  0  0  0  0  0  0
  186.9770  177.8540  143.2210 C   0  0  0  0  0  3  0  0  0  0  0  0
  184.2230  178.6520  145.3990 C   0  0  0  0  0  3  0  0  0  0  0  0
  187.1100  178.2080  141.8680 C   0  0  0  0  0  0  0  0  0  0  0  0
  185.4570  178.0380  145.2010 C   0  0  0  0  0  0  0  0  0  0  0  0
  185.8210  178.2560  143.8890 C   0  0  0  0  0  0  0  0  0  0  0  0
  184.8680  178.9600  143.2630 N   0  0  0  0  0  0  0  0  0  0  0  0
  183.8970  179.2060  144.1610 C   0  0  0  0  0  0  0  0  0  0  0  0
  184.9480  179.3290  141.9600 C   0  0  0  0  0  3  0  0  0  0  0  0
  182.7100  179.9480  143.8500 N   0  0  0  0  0  2  0  0  0  0  0  0
  180.0590  178.1090  141.9450 C   0  0  0  0  0  3  0  0  0  0  0  0
  179.5220  179.5180  142.1760 C   0  0  0  0  0  3  0  0  0  0  0  0
  180.5550  180.2170  142.9130 N   0  0  0  0  0  0  0  0  0  0  0  0
  181.5690  179.4610  143.1350 C   0  0  0  0  0  0  0  0  0  0  0  0
  181.4340  178.0870  142.5940 C   0  0  0  0  0  2  0  0  0  0  0  0
  187.6910  178.4500  138.9960 O   0  0  0  0  0  0  0  0  0  0  0  0
  188.5510  177.9330  139.7610 C   0  0  0  0  0  0  0  0  0  0  0  0
  188.2930  177.8020  141.1680 N   0  0  0  0  0  2  0  0  0  0  0  0
  189.8310  177.4590  139.2060 C   0  0  0  0  0  0  0  0  0  0  0  0
  191.1280  176.6810  137.3490 N   0  0  0  0  0  0  0  0  0  0  0  0
  189.9420  177.1180  137.8520 C   0  0  0  0  0  3  0  0  0  0  0  0
  192.1690  176.8890  139.4870 C   0  0  0  0  0  3  0  0  0  0  0  0
  193.3980  176.1230  137.5970 F   0  0  0  0  0  0  0  0  0  0  0  0
  192.2330  176.5610  138.1320 C   0  0  0  0  0  0  0  0  0  0  0  0
  190.9610  177.3390  140.0230 C   0  0  0  0  0  3  0  0  0  0  0  0
  186.2590  177.3400  146.2460 C   0  0  0  0  0  2  0  0  0  0  0  0
  187.5470  178.0960  146.5000 C   0  0  0  0  0  2  0  0  0  0  0  0
  188.6300  177.1230  146.9180 C   0  0  0  0  0  2  0  0  0  0  0  0
  190.2410  177.6090  145.1180 C   0  0  0  0  0  3  0  0  0  0  0  0
  190.0010  177.6910  146.5910 C   0  0  2  0  0  3  0  0  0  0  0  0
  191.7460  176.3380  146.1870 N   0  0  0  0  0  0  0  0  0  0  0  0
  191.2760  176.8060  144.9350 C   0  0  0  0  0  3  0  0  0  0  0  0
  191.0420  176.8240  147.1220 N   0  0  0  0  0  0  0  0  0  0  0  0
  1  4  1  0  0  0  0
  1  9  2  0  0  0  0
  2  6  1  0  0  0  0
  4  2  2  0  0  0  0
  5  3  1  0  0  0  0
  5 26  1  0  0  0  0
  6  5  2  0  0  0  0
  7  6  1  0  0  0  0
  7  8  1  0  0  0  0
  8  3  2  0  0  0  0
  9  7  1  0  0  0  0
 10  8  1  0  0  0  0
 11 12  2  0  0  0  0
 11 15  1  0  0  0  0
 12 13  1  0  0  0  0
 13 14  2  0  0  0  0
 14 10  1  0  0  0  0
 15 14  1  0  0  0  0
 16 17  2  0  0  0  0
 17 18  1  0  0  0  0
 18  4  1  0  0  0  0
 19 17  1  0  0  0  0
 19 25  1  0  0  0  0
 20 21  1  0  0  0  0
 20 24  2  0  0  0  0
 21 19  2  0  0  0  0
 22 25  2  0  0  0  0
 23 24  1  0  0  0  0
 24 22  1  0  0  0  0
 26 27  1  0  0  0  0
 27 28  1  0  0  0  0
 29 30  1  0  0  0  0
 30 28  1  6  0  0  0
 30 33  1  0  0  0  0
 31 33  2  0  0  0  0
 32 29  2  0  0  0  0
 32 31  1  0  0  0  0
M  END
>  <MODEL>
5

>  <REMARK>
 VINA RESULT:      -8.1      3.867     10.142
  Name = 
  7 active torsions:
  status: ('A' for Active; 'I' for Inactive)
    1  A    between atoms: C_3  and  C_12
    2  A    between atoms: N_4  and  C_32
    3  A    between atoms: C_5  and  C_25
    4  A    between atoms: C_19  and  N_27
    5  A    between atoms: C_21  and  C_31
    6  A    between atoms: C_25  and  C_30
    7  A    between atoms: C_30  and  C_31
                            x       y       z     vdW  Elec       q    Type
                         _______ _______ _______ _____ _____    ______ ____

>  <TORSDO>
F 7

$$$$
=
 OpenBabel10222417563D

 33 37  0  0  1  0  0  0  0  0999 V2000
  187.8470  178.3850  140.5340 C   0  0  0  0  0  3  0  0  0  0  0  0
  190.0580  177.3720  140.6630 C   0  0  0  0  0  3  0  0  0  0  0  0
  190.5140  176.9320  137.1180 C   0  0  0  0  0  3  0  0  0  0  0  0
  188.9390  177.9270  141.3050 C   0  0  0  0  0  0  0  0  0  0  0  0
  191.0020  176.8030  138.4160 C   0  0  0  0  0  0  0  0  0  0  0  0
  190.0410  177.2990  139.2700 C   0  0  0  0  0  0  0  0  0  0  0  0
  188.9900  177.7410  138.5660 N   0  0  0  0  0  0  0  0  0  0  0  0
  189.2610  177.5270  137.2660 C   0  0  0  0  0  0  0  0  0  0  0  0
  187.8850  178.2830  139.1370 C   0  0  0  0  0  3  0  0  0  0  0  0
  188.3540  177.8690  136.2090 N   0  0  0  0  0  2  0  0  0  0  0  0
  185.5320  175.4770  135.6120 C   0  0  0  0  0  3  0  0  0  0  0  0
  185.3660  176.6000  134.5940 C   0  0  0  0  0  3  0  0  0  0  0  0
  186.4620  177.5160  134.8350 N   0  0  0  0  0  0  0  0  0  0  0  0
  187.2090  177.1130  135.7990 C   0  0  0  0  0  0  0  0  0  0  0  0
  186.7740  175.8360  136.4130 C   0  0  0  0  0  2  0  0  0  0  0  0
  188.0510  175.8990  143.2410 O   0  0  0  0  0  0  0  0  0  0  0  0
  188.5010  177.0010  143.6600 C   0  0  0  0  0  0  0  0  0  0  0  0
  188.9420  178.0090  142.7360 N   0  0  0  0  0  2  0  0  0  0  0  0
  188.5770  177.2560  145.1090 C   0  0  0  0  0  0  0  0  0  0  0  0
  189.8550  177.3850  147.1310 N   0  0  0  0  0  0  0  0  0  0  0  0
  189.7960  177.1490  145.7910 C   0  0  0  0  0  3  0  0  0  0  0  0
  187.5140  177.8460  147.2050 C   0  0  0  0  0  3  0  0  0  0  0  0
  188.8470  177.9570  149.1750 F   0  0  0  0  0  0  0  0  0  0  0  0
  188.7500  177.7280  147.8440 C   0  0  0  0  0  0  0  0  0  0  0  0
  187.4320  177.6080  145.8320 C   0  0  0  0  0  3  0  0  0  0  0  0
  192.2990  176.1760  138.7980 C   0  0  0  0  0  2  0  0  0  0  0  0
  193.0770  175.7980  137.5530 C   0  0  0  0  0  2  0  0  0  0  0  0
  193.1710  174.2880  137.4550 C   0  0  0  0  0  2  0  0  0  0  0  0
  195.1350  173.0080  138.2130 C   0  0  0  0  0  2  0  0  0  0  0  0
  194.5930  173.8720  137.1210 C   0  0  2  0  0  3  0  0  0  0  0  0
  196.3500  174.8870  138.0810 N   0  0  0  0  0  0  0  0  0  0  0  0
  196.1650  173.6470  138.7420 C   0  0  0  0  0  3  0  0  0  0  0  0
  195.4770  175.0270  137.1720 N   0  0  0  0  0  2  0  0  0  0  0  0
  1  4  1  0  0  0  0
  2  4  2  0  0  0  0
  3  8  2  0  0  0  0
  3  5  1  0  0  0  0
  4 18  1  0  0  0  0
  5 26  1  0  0  0  0
  5  6  2  0  0  0  0
  6  2  1  0  0  0  0
  7  9  1  0  0  0  0
  7  6  1  0  0  0  0
  8  7  1  0  0  0  0
  9  1  2  0  0  0  0
 10  8  1  0  0  0  0
 11 15  1  0  0  0  0
 12 13  1  0  0  0  0
 12 11  2  0  0  0  0
 13 14  2  0  0  0  0
 14 10  1  0  0  0  0
 14 15  1  0  0  0  0
 16 17  2  0  0  0  0
 17 19  1  0  0  0  0
 18 17  1  0  0  0  0
 19 21  2  0  0  0  0
 19 25  1  0  0  0  0
 20 24  2  0  0  0  0
 21 20  1  0  0  0  0
 22 24  1  0  0  0  0
 24 23  1  0  0  0  0
 25 22  2  0  0  0  0
 27 26  1  0  0  0  0
 28 27  1  0  0  0  0
 29 32  1  0  0  0  0
 30 33  1  0  0  0  0
 30 28  1  1  0  0  0
 30 29  1  0  0  0  0
 31 32  2  0  0  0  0
 33 31  1  0  0  0  0
M  END
>  <MODEL>
6

>  <REMARK>
 VINA RESULT:      -8.0      1.901      6.217
  Name = 
  7 active torsions:
  status: ('A' for Active; 'I' for Inactive)
    1  A    between atoms: C_3  and  C_12
    2  A    between atoms: N_4  and  C_32
    3  A    between atoms: C_5  and  C_25
    4  A    between atoms: C_19  and  N_27
    5  A    between atoms: C_21  and  C_31
    6  A    between atoms: C_25  and  C_30
    7  A    between atoms: C_30  and  C_31
                            x       y       z     vdW  Elec       q    Type
                         _______ _______ _______ _____ _____    ______ ____

>  <TORSDO>
F 7

$$$$
=
 OpenBabel10222417563D

 33 37  0  0  1  0  0  0  0  0999 V2000
  190.7170  177.1160  140.8990 C   0  0  0  0  0  3  0  0  0  0  0  0
  188.4330  177.8570  140.4900 C   0  0  0  0  0  3  0  0  0  0  0  0
  188.5460  177.5650  136.9020 C   0  0  0  0  0  3  0  0  0  0  0  0
  189.4730  177.5730  141.3900 C   0  0  0  0  0  0  0  0  0  0  0  0
  187.8350  177.8740  138.0590 C   0  0  0  0  0  0  0  0  0  0  0  0
  188.6780  177.6680  139.1300 C   0  0  0  0  0  0  0  0  0  0  0  0
  189.8690  177.2340  138.6940 N   0  0  0  0  0  0  0  0  0  0  0  0
  189.8030  177.1660  137.3520 C   0  0  0  0  0  0  0  0  0  0  0  0
  190.9060  176.9480  139.5210 C   0  0  0  0  0  3  0  0  0  0  0  0
  190.9030  176.7460  136.5330 N   0  0  0  0  0  2  0  0  0  0  0  0
  191.3270  173.0470  136.1040 C   0  0  0  0  0  3  0  0  0  0  0  0
  192.4480  173.7040  135.3030 C   0  0  0  0  0  3  0  0  0  0  0  0
  192.2720  175.1310  135.4780 N   0  0  0  0  0  0  0  0  0  0  0  0
  191.2630  175.3940  136.2270 C   0  0  0  0  0  0  0  0  0  0  0  0
  190.5410  174.1950  136.7180 C   0  0  0  0  0  2  0  0  0  0  0  0
  187.9480  175.8480  143.2190 O   0  0  0  0  0  0  0  0  0  0  0  0
  188.4850  176.9010  143.6630 C   0  0  0  0  0  0  0  0  0  0  0  0
  189.2350  177.7610  142.7910 N   0  0  0  0  0  2  0  0  0  0  0  0
  188.3430  177.2490  145.0870 C   0  0  0  0  0  0  0  0  0  0  0  0
  186.9950  178.0190  146.9120 N   0  0  0  0  0  0  0  0  0  0  0  0
  187.1170  177.6980  145.5940 C   0  0  0  0  0  3  0  0  0  0  0  0
  189.2850  177.4730  147.3080 C   0  0  0  0  0  3  0  0  0  0  0  0
  187.8870  178.2430  149.0750 F   0  0  0  0  0  0  0  0  0  0  0  0
  188.0450  177.9160  147.7700 C   0  0  0  0  0  0  0  0  0  0  0  0
  189.4310  177.1400  145.9600 C   0  0  0  0  0  3  0  0  0  0  0  0
  186.4400  178.3990  138.1090 C   0  0  0  0  0  2  0  0  0  0  0  0
  185.4750  177.3490  137.5980 C   0  0  0  0  0  2  0  0  0  0  0  0
  184.0520  177.7990  137.8620 C   0  0  0  0  0  2  0  0  0  0  0  0
  183.0360  177.3360  140.0590 C   0  0  0  0  0  2  0  0  0  0  0  0
  183.9120  178.2770  139.2970 C   0  0  2  0  0  3  0  0  0  0  0  0
  182.0650  179.3540  139.9810 N   0  0  0  0  0  0  0  0  0  0  0  0
  181.9680  178.0160  140.4400 C   0  0  0  0  0  3  0  0  0  0  0  0
  183.1470  179.5140  139.3400 N   0  0  0  0  0  2  0  0  0  0  0  0
  1  4  1  0  0  0  0
  2  4  2  0  0  0  0
  3  8  2  0  0  0  0
  3  5  1  0  0  0  0
  4 18  1  0  0  0  0
  5 26  1  0  0  0  0
  5  6  2  0  0  0  0
  6  2  1  0  0  0  0
  7  6  1  0  0  0  0
  7  9  1  0  0  0  0
  8  7  1  0  0  0  0
  9  1  2  0  0  0  0
 10  8  1  0  0  0  0
 11 15  1  0  0  0  0
 12 13  1  0  0  0  0
 12 11  2  0  0  0  0
 13 14  2  0  0  0  0
 14 10  1  0  0  0  0
 14 15  1  0  0  0  0
 16 17  2  0  0  0  0
 17 19  1  0  0  0  0
 18 17  1  0  0  0  0
 19 21  2  0  0  0  0
 19 25  1  0  0  0  0
 20 24  2  0  0  0  0
 21 20  1  0  0  0  0
 22 24  1  0  0  0  0
 24 23  1  0  0  0  0
 25 22  2  0  0  0  0
 27 28  1  0  0  0  0
 27 26  1  0  0  0  0
 29 32  1  0  0  0  0
 30 28  1  6  0  0  0
 30 33  1  0  0  0  0
 30 29  1  0  0  0  0
 31 32  2  0  0  0  0
 33 31  1  0  0  0  0
M  END
>  <MODEL>
7

>  <REMARK>
 VINA RESULT:      -7.8      1.952      2.721
  Name = 
  7 active torsions:
  status: ('A' for Active; 'I' for Inactive)
    1  A    between atoms: C_3  and  C_12
    2  A    between atoms: N_4  and  C_32
    3  A    between atoms: C_5  and  C_25
    4  A    between atoms: C_19  and  N_27
    5  A    between atoms: C_21  and  C_31
    6  A    between atoms: C_25  and  C_30
    7  A    between atoms: C_30  and  C_31
                            x       y       z     vdW  Elec       q    Type
                         _______ _______ _______ _____ _____    ______ ____

>  <TORSDO>
F 7

$$$$
=
 OpenBabel10222417563D

 33 37  0  0  1  0  0  0  0  0999 V2000
  190.3670  177.9570  143.1420 C   0  0  0  0  0  3  0  0  0  0  0  0
  187.9360  177.8330  143.2170 C   0  0  0  0  0  3  0  0  0  0  0  0
  187.6380  177.7990  146.8050 C   0  0  0  0  0  3  0  0  0  0  0  0
  189.1250  177.8940  142.4720 C   0  0  0  0  0  0  0  0  0  0  0  0
  187.0330  177.7860  145.5510 C   0  0  0  0  0  0  0  0  0  0  0  0
  188.0370  177.8400  144.6080 C   0  0  0  0  0  0  0  0  0  0  0  0
  189.2300  177.8990  145.2160 N   0  0  0  0  0  0  0  0  0  0  0  0
  189.0050  177.8760  146.5410 C   0  0  0  0  0  0  0  0  0  0  0  0
  190.4070  177.9570  144.5430 C   0  0  0  0  0  3  0  0  0  0  0  0
  190.0560  177.9170  147.5160 N   0  0  0  0  0  2  0  0  0  0  0  0
  192.7000  175.2790  147.2090 C   0  0  0  0  0  3  0  0  0  0  0  0
  193.0850  176.1350  148.4120 C   0  0  0  0  0  3  0  0  0  0  0  0
  192.0560  177.1490  148.5190 N   0  0  0  0  0  0  0  0  0  0  0  0
  191.1680  177.0180  147.6000 C   0  0  0  0  0  0  0  0  0  0  0  0
  191.4110  175.8850  146.6760 C   0  0  0  0  0  2  0  0  0  0  0  0
  191.0640  176.8220  140.5390 O   0  0  0  0  0  0  0  0  0  0  0  0
  190.0010  177.3570  140.1190 C   0  0  0  0  0  0  0  0  0  0  0  0
  189.0370  177.8890  141.0410 N   0  0  0  0  0  2  0  0  0  0  0  0
  189.7460  177.4360  138.6700 C   0  0  0  0  0  0  0  0  0  0  0  0
  190.2870  176.7900  136.4280 N   0  0  0  0  0  0  0  0  0  0  0  0
  190.5300  176.7090  137.7650 C   0  0  0  0  0  3  0  0  0  0  0  0
  188.4830  178.3090  136.7950 C   0  0  0  0  0  3  0  0  0  0  0  0
  189.0760  177.6230  134.5940 F   0  0  0  0  0  0  0  0  0  0  0  0
  189.2900  177.5680  135.9300 C   0  0  0  0  0  0  0  0  0  0  0  0
  188.7160  178.2410  138.1700 C   0  0  0  0  0  3  0  0  0  0  0  0
  185.5700  177.6650  145.2920 C   0  0  0  0  0  2  0  0  0  0  0  0
  184.9090  179.0230  145.4170 C   0  0  0  0  0  2  0  0  0  0  0  0
  184.5740  179.5500  144.0360 C   0  0  0  0  0  2  0  0  0  0  0  0
  184.7090  178.6290  141.7550 C   0  0  0  0  0  2  0  0  0  0  0  0
  184.1570  178.4080  143.1260 C   0  0  2  0  0  3  0  0  0  0  0  0
  182.4690  178.6500  141.6660 N   0  0  0  0  0  0  0  0  0  0  0  0
  183.6790  178.7630  140.9360 C   0  0  0  0  0  3  0  0  0  0  0  0
  182.7210  178.4520  142.8920 N   0  0  0  0  0  2  0  0  0  0  0  0
  1  9  2  0  0  0  0
  2  6  1  0  0  0  0
  4  1  1  0  0  0  0
  4  2  2  0  0  0  0
  5  3  1  0  0  0  0
  6  7  1  0  0  0  0
  6  5  2  0  0  0  0
  7  8  1  0  0  0  0
  8  3  2  0  0  0  0
  8 10  1  0  0  0  0
  9  7  1  0  0  0  0
 10 14  1  0  0  0  0
 11 12  2  0  0  0  0
 12 13  1  0  0  0  0
 14 13  2  0  0  0  0
 15 11  1  0  0  0  0
 15 14  1  0  0  0  0
 17 16  2  0  0  0  0
 17 18  1  0  0  0  0
 18  4  1  0  0  0  0
 19 17  1  0  0  0  0
 20 21  1  0  0  0  0
 21 19  2  0  0  0  0
 22 25  2  0  0  0  0
 23 24  1  0  0  0  0
 24 20  2  0  0  0  0
 24 22  1  0  0  0  0
 25 19  1  0  0  0  0
 26 27  1  0  0  0  0
 26  5  1  0  0  0  0
 28 27  1  0  0  0  0
 29 30  1  0  0  0  0
 30 28  1  1  0  0  0
 31 33  1  0  0  0  0
 32 31  2  0  0  0  0
 32 29  1  0  0  0  0
 33 30  1  0  0  0  0
M  END
>  <MODEL>
8

>  <REMARK>
 VINA RESULT:      -7.7      3.653      7.991
  Name = 
  7 active torsions:
  status: ('A' for Active; 'I' for Inactive)
    1  A    between atoms: C_3  and  C_12
    2  A    between atoms: N_4  and  C_32
    3  A    between atoms: C_5  and  C_25
    4  A    between atoms: C_19  and  N_27
    5  A    between atoms: C_21  and  C_31
    6  A    between atoms: C_25  and  C_30
    7  A    between atoms: C_30  and  C_31
                            x       y       z     vdW  Elec       q    Type
                         _______ _______ _______ _____ _____    ______ ____

>  <TORSDO>
F 7

$$$$
=
 OpenBabel10222417563D

 33 37  0  0  1  0  0  0  0  0999 V2000
  189.9310  177.4990  140.6480 C   0  0  0  0  0  3  0  0  0  0  0  0
  187.6230  178.2730  140.7070 C   0  0  0  0  0  3  0  0  0  0  0  0
  187.0650  178.1690  137.1510 C   0  0  0  0  0  3  0  0  0  0  0  0
  188.8070  177.9370  141.3830 C   0  0  0  0  0  0  0  0  0  0  0  0
  186.5850  178.4210  138.4330 C   0  0  0  0  0  0  0  0  0  0  0  0
  187.6090  178.1550  139.3170 C   0  0  0  0  0  0  0  0  0  0  0  0
  188.6920  177.7380  138.6470 N   0  0  0  0  0  0  0  0  0  0  0  0
  188.3790  177.7400  137.3390 C   0  0  0  0  0  0  0  0  0  0  0  0
  189.8600  177.4030  139.2520 C   0  0  0  0  0  3  0  0  0  0  0  0
  189.3010  177.3580  136.3100 N   0  0  0  0  0  2  0  0  0  0  0  0
  189.7670  173.6760  135.7910 C   0  0  0  0  0  3  0  0  0  0  0  0
  190.6730  174.3700  134.7790 C   0  0  0  0  0  3  0  0  0  0  0  0
  190.4840  175.7910  134.9900 N   0  0  0  0  0  0  0  0  0  0  0  0
  189.6410  176.0190  135.9320 C   0  0  0  0  0  0  0  0  0  0  0  0
  189.0810  174.7960  136.5570 C   0  0  0  0  0  2  0  0  0  0  0  0
  187.8520  176.0010  143.3800 O   0  0  0  0  0  0  0  0  0  0  0  0
  188.3610  177.0900  143.7650 C   0  0  0  0  0  0  0  0  0  0  0  0
  188.8350  178.0530  142.8110 N   0  0  0  0  0  2  0  0  0  0  0  0
  188.4710  177.3740  145.2060 C   0  0  0  0  0  0  0  0  0  0  0  0
  187.4650  178.0490  147.2730 N   0  0  0  0  0  0  0  0  0  0  0  0
  187.3530  177.7880  145.9420 C   0  0  0  0  0  3  0  0  0  0  0  0
  189.7900  177.5100  147.2350 C   0  0  0  0  0  3  0  0  0  0  0  0
  188.7240  178.1880  149.2530 F   0  0  0  0  0  0  0  0  0  0  0  0
  188.6490  177.9200  147.9270 C   0  0  0  0  0  0  0  0  0  0  0  0
  189.6960  177.2380  145.8690 C   0  0  0  0  0  3  0  0  0  0  0  0
  185.2320  178.9500  138.7680 C   0  0  0  0  0  2  0  0  0  0  0  0
  184.5920  178.0900  139.8390 C   0  0  0  0  0  2  0  0  0  0  0  0
  183.8870  178.9780  140.8450 C   0  0  0  0  0  2  0  0  0  0  0  0
  182.7760  179.0000  143.0440 C   0  0  0  0  0  3  0  0  0  0  0  0
  183.7170  178.2440  142.1630 C   0  0  2  0  0  3  0  0  0  0  0  0
  184.7960  178.9210  144.0110 N   0  0  0  0  0  0  0  0  0  0  0  0
  183.4560  179.3740  144.1150 C   0  0  0  0  0  3  0  0  0  0  0  0
  184.9560  178.2890  142.9250 N   0  0  0  0  0  0  0  0  0  0  0  0
  1  4  1  0  0  0  0
  2  4  2  0  0  0  0
  3  8  2  0  0  0  0
  3  5  1  0  0  0  0
  4 18  1  0  0  0  0
  5 26  1  0  0  0  0
  5  6  2  0  0  0  0
  6  2  1  0  0  0  0
  7  9  1  0  0  0  0
  7  6  1  0  0  0  0
  8  7  1  0  0  0  0
  9  1  2  0  0  0  0
 10  8  1  0  0  0  0
 11 15  1  0  0  0  0
 12 13  1  0  0  0  0
 12 11  2  0  0  0  0
 13 14  2  0  0  0  0
 14 10  1  0  0  0  0
 14 15  1  0  0  0  0
 16 17  2  0  0  0  0
 17 19  1  0  0  0  0
 18 17  1  0  0  0  0
 19 25  2  0  0  0  0
 19 21  1  0  0  0  0
 20 24  1  0  0  0  0
 21 20  2  0  0  0  0
 22 24  2  0  0  0  0
 24 23  1  0  0  0  0
 25 22  1  0  0  0  0
 26 27  1  0  0  0  0
 27 28  1  0  0  0  0
 29 32  2  0  0  0  0
 30 28  1  6  0  0  0
 30 33  1  0  0  0  0
 30 29  1  0  0  0  0
 31 32  1  0  0  0  0
 33 31  2  0  0  0  0
M  END
>  <MODEL>
9

>  <REMARK>
 VINA RESULT:      -7.7      2.705      4.021
  Name = 
  7 active torsions:
  status: ('A' for Active; 'I' for Inactive)
    1  A    between atoms: C_3  and  C_12
    2  A    between atoms: N_4  and  C_32
    3  A    between atoms: C_5  and  C_25
    4  A    between atoms: C_19  and  N_27
    5  A    between atoms: C_21  and  C_31
    6  A    between atoms: C_25  and  C_30
    7  A    between atoms: C_30  and  C_31
                            x       y       z     vdW  Elec       q    Type
                         _______ _______ _______ _____ _____    ______ ____

>  <TORSDO>
F 7

$$$$
