=
 OpenBabel10222416393D

 30 35  0  0  1  0  0  0  0  0999 V2000
  190.3350  176.9390  138.7330 C   0  0  1  0  0  3  0  0  0  0  0  0
  190.7240  176.5720  142.2490 C   0  0  0  0  0  0  0  0  0  0  0  0
  191.7320  177.7180  140.6590 N   0  0  0  0  0  0  0  0  0  0  0  0
  190.7190  176.9690  140.1770 C   0  0  0  0  0  0  0  0  0  0  0  0
  190.0750  176.2530  141.1160 N   0  0  0  0  0  0  0  0  0  0  0  0
  191.7390  177.4710  141.9830 C   0  0  0  0  0  2  0  0  0  0  0  0
  188.8210  177.8900  146.1200 C   0  0  0  0  0  3  0  0  0  0  0  0
  189.0410  176.5600  144.0570 C   0  0  0  0  0  0  0  0  0  0  0  0
  187.4350  177.9330  145.8280 C   0  0  0  0  0  3  0  0  0  0  0  0
  191.3000  176.7180  144.8610 S   0  0  0  0  0  0  0  0  0  0  0  0
  186.8840  177.3040  144.6680 C   0  0  0  0  0  3  0  0  0  0  0  0
  189.5890  177.1910  145.2050 C   0  0  0  0  0  0  0  0  0  0  0  0
  190.3460  176.0200  143.5930 C   0  0  2  0  0  3  0  0  0  0  0  0
  187.6920  176.5940  143.7490 C   0  0  0  0  0  3  0  0  0  0  0  0
  189.5910  178.1430  138.3910 N   0  0  0  0  0  2  0  0  0  0  0  0
  189.1630  178.0280  137.0060 C   0  0  0  0  0  2  0  0  0  0  0  0
  187.7240  178.4940  136.8710 C   0  0  1  0  0  0  0  0  0  0  0  0
  187.1680  178.2670  135.4800 C   0  0  0  0  0  2  0  0  0  0  0  0
  186.8870  177.2590  136.5740 C   0  0  2  0  0  3  0  0  0  0  0  0
  186.8270  177.9100  137.9400 C   0  0  2  0  0  3  0  0  0  0  0  0
  185.6250  178.7190  138.0530 N   0  0  0  0  0  2  0  0  0  0  0  0
  183.9890  179.3990  139.6280 C   0  0  2  0  0  3  0  0  0  0  0  0
  185.0200  178.4100  139.3360 C   0  0  2  0  0  3  0  0  0  0  0  0
  185.3890  178.8670  141.6120 C   0  0  0  0  0  1  0  0  0  0  0  0
  185.3240  179.4900  140.2920 N   0  0  0  0  0  0  0  0  0  0  0  0
  182.0730  178.2950  141.0630 N   0  0  0  0  0  0  0  0  0  0  0  0
  182.9160  178.7830  140.4350 C   0  0  0  0  0  0  0  0  0  0  0  0
  191.4860  176.8590  137.9460 O   0  0  0  0  0  0  0  0  0  0  0  0
  193.2710  175.3160  137.6490 C   0  0  0  0  0  1  0  0  0  0  0  0
  191.7870  175.4980  137.8880 C   0  0  0  0  0  2  0  0  0  0  0  0
  1 28  1  6  0  0  0
  1  4  1  0  0  0  0
  3  6  1  0  0  0  0
  4  3  2  0  0  0  0
  4  5  1  0  0  0  0
  5  2  2  0  0  0  0
  6  2  1  0  0  0  0
  8 12  1  0  0  0  0
  9  7  1  0  0  0  0
 10 12  1  0  0  0  0
 11  9  2  0  0  0  0
 12  7  2  0  0  0  0
 13  2  1  6  0  0  0
 13  8  1  0  0  0  0
 13 10  1  0  0  0  0
 14  8  2  0  0  0  0
 14 11  1  0  0  0  0
 15  1  1  0  0  0  0
 16 15  1  0  0  0  0
 17 16  1  1  0  0  0
 17 20  1  0  0  0  0
 18 17  1  0  0  0  0
 19 18  1  6  0  0  0
 19 17  1  0  0  0  0
 19 20  1  0  0  0  0
 20 21  1  6  0  0  0
 22 25  1  0  0  0  0
 22 27  1  1  0  0  0
 23 21  1  6  0  0  0
 23 22  1  0  0  0  0
 23 25  1  0  0  0  0
 25 24  1  0  0  0  0
 27 26  3  0  0  0  0
 29 30  1  0  0  0  0
 30 28  1  0  0  0  0
M  END
>  <MODEL>
1

>  <REMARK>
 VINA RESULT:      -7.4      0.000      0.000
  Name = 
  10 active torsions:
  status: ('A' for Active; 'I' for Inactive)
    1  A    between atoms: C_1  and  C_18
    2  A    between atoms: C_3  and  N_21
    3  A    between atoms: C_7  and  C_24
    4  A    between atoms: C_8  and  C_28
    5  A    between atoms: N_11  and  C_28
    6  A    between atoms: N_11  and  C_29
    7  A    between atoms: C_14  and  C_29
    8  A    between atoms: N_21  and  C_27
    9  A    between atoms: O_23  and  C_29
   10  A    between atoms: O_23  and  C_30
                            x       y       z     vdW  Elec       q    Type
                         _______ _______ _______ _____ _____    ______ ____

>  <TORSDO>
F 10

$$$$
=
 OpenBabel10222416393D

 30 35  0  0  1  0  0  0  0  0999 V2000
  190.3280  177.3530  142.0150 C   0  0  1  0  0  3  0  0  0  0  0  0
  189.4210  177.6860  138.5920 C   0  0  0  0  0  0  0  0  0  0  0  0
  190.6810  176.3110  139.7650 N   0  0  0  0  0  0  0  0  0  0  0  0
  190.1180  177.2630  140.5380 C   0  0  0  0  0  0  0  0  0  0  0  0
  189.3380  178.1240  139.8600 N   0  0  0  0  0  0  0  0  0  0  0  0
  190.2380  176.5740  138.5220 C   0  0  0  0  0  2  0  0  0  0  0  0
  186.1200  176.8040  135.6480 C   0  0  0  0  0  3  0  0  0  0  0  0
  187.2400  178.0140  137.4800 C   0  0  0  0  0  0  0  0  0  0  0  0
  184.9310  176.9600  136.4040 C   0  0  0  0  0  3  0  0  0  0  0  0
  189.0290  177.5460  135.9460 S   0  0  0  0  0  0  0  0  0  0  0  0
  184.9180  177.6240  137.6690 C   0  0  0  0  0  3  0  0  0  0  0  0
  187.2540  177.3480  136.2250 C   0  0  0  0  0  0  0  0  0  0  0  0
  188.6910  178.3350  137.4520 C   0  0  2  0  0  3  0  0  0  0  0  0
  186.0920  178.1720  138.2370 C   0  0  0  0  0  3  0  0  0  0  0  0
  190.0380  176.0680  142.6380 N   0  0  0  0  0  2  0  0  0  0  0  0
  188.6000  175.9760  142.8250 C   0  0  0  0  0  2  0  0  0  0  0  0
  188.0900  177.2190  143.5330 C   0  0  1  0  0  0  0  0  0  0  0  0
  186.8790  177.8210  142.8520 C   0  0  0  0  0  2  0  0  0  0  0  0
  186.6920  176.8970  144.0370 C   0  0  2  0  0  3  0  0  0  0  0  0
  187.8510  176.9840  145.0090 C   0  0  2  0  0  3  0  0  0  0  0  0
  187.8260  178.2610  145.7000 N   0  0  0  0  0  2  0  0  0  0  0  0
  189.2830  176.8710  146.9520 C   0  0  2  0  0  3  0  0  0  0  0  0
  188.9190  178.2520  146.6560 C   0  0  2  0  0  3  0  0  0  0  0  0
  189.2210  178.2980  148.9870 C   0  0  0  0  0  1  0  0  0  0  0  0
  188.4570  177.6530  147.9210 N   0  0  0  0  0  0  0  0  0  0  0  0
  191.8550  176.7180  147.5040 N   0  0  0  0  0  0  0  0  0  0  0  0
  190.7240  176.7870  147.2650 C   0  0  0  0  0  0  0  0  0  0  0  0
  191.6520  177.7120  142.2750 O   0  0  0  0  0  0  0  0  0  0  0  0
  191.1770  179.2850  143.9950 C   0  0  0  0  0  1  0  0  0  0  0  0
  191.7050  177.9060  143.6560 C   0  0  0  0  0  2  0  0  0  0  0  0
  1 28  1  6  0  0  0
  1 15  1  0  0  0  0
  2  5  2  0  0  0  0
  3  4  2  0  0  0  0
  4  1  1  0  0  0  0
  5  4  1  0  0  0  0
  6  2  1  0  0  0  0
  6  3  1  0  0  0  0
  7 12  2  0  0  0  0
  7  9  1  0  0  0  0
  8 14  2  0  0  0  0
  9 11  2  0  0  0  0
 10 12  1  0  0  0  0
 10 13  1  0  0  0  0
 11 14  1  0  0  0  0
 12  8  1  0  0  0  0
 13  8  1  0  0  0  0
 13  2  1  1  0  0  0
 15 16  1  0  0  0  0
 17 16  1  6  0  0  0
 17 19  1  0  0  0  0
 17 20  1  0  0  0  0
 18 17  1  0  0  0  0
 19 18  1  1  0  0  0
 19 20  1  0  0  0  0
 20 21  1  1  0  0  0
 22 27  1  1  0  0  0
 22 25  1  0  0  0  0
 23 21  1  6  0  0  0
 23 22  1  0  0  0  0
 23 25  1  0  0  0  0
 25 24  1  0  0  0  0
 27 26  3  0  0  0  0
 28 30  1  0  0  0  0
 30 29  1  0  0  0  0
M  END
>  <MODEL>
2

>  <REMARK>
 VINA RESULT:      -7.3      3.084      7.352
  Name = 
  10 active torsions:
  status: ('A' for Active; 'I' for Inactive)
    1  A    between atoms: C_1  and  C_18
    2  A    between atoms: C_3  and  N_21
    3  A    between atoms: C_7  and  C_24
    4  A    between atoms: C_8  and  C_28
    5  A    between atoms: N_11  and  C_28
    6  A    between atoms: N_11  and  C_29
    7  A    between atoms: C_14  and  C_29
    8  A    between atoms: N_21  and  C_27
    9  A    between atoms: O_23  and  C_29
   10  A    between atoms: O_23  and  C_30
                            x       y       z     vdW  Elec       q    Type
                         _______ _______ _______ _____ _____    ______ ____

>  <TORSDO>
F 10

$$$$
=
 OpenBabel10222416393D

 30 35  0  0  1  0  0  0  0  0999 V2000
  187.0280  177.3890  145.7990 C   0  0  1  0  0  3  0  0  0  0  0  0
  184.5030  178.9300  143.8260 C   0  0  0  0  0  0  0  0  0  0  0  0
  184.7690  178.4560  145.9600 N   0  0  0  0  0  0  0  0  0  0  0  0
  185.8250  178.0600  145.2210 C   0  0  0  0  0  0  0  0  0  0  0  0
  185.7040  178.3320  143.9080 N   0  0  0  0  0  0  0  0  0  0  0  0
  183.9220  179.0140  145.0760 C   0  0  0  0  0  2  0  0  0  0  0  0
  182.0120  177.5010  140.3470 C   0  0  0  0  0  3  0  0  0  0  0  0
  182.5620  178.9030  142.2980 C   0  0  0  0  0  0  0  0  0  0  0  0
  180.6870  177.4910  140.8500 C   0  0  0  0  0  3  0  0  0  0  0  0
  184.6680  178.6780  141.1640 S   0  0  0  0  0  0  0  0  0  0  0  0
  180.3290  178.1730  142.0540 C   0  0  0  0  0  3  0  0  0  0  0  0
  182.9190  178.2200  141.1050 C   0  0  0  0  0  0  0  0  0  0  0  0
  183.9280  179.4370  142.5350 C   0  0  2  0  0  3  0  0  0  0  0  0
  181.2750  178.9030  142.8100 C   0  0  0  0  0  3  0  0  0  0  0  0
  188.2290  177.8370  145.1070 N   0  0  0  0  0  2  0  0  0  0  0  0
  188.6760  176.7580  144.2410 C   0  0  0  0  0  2  0  0  0  0  0  0
  190.0630  177.0680  143.7050 C   0  0  1  0  0  0  0  0  0  0  0  0
  191.1630  176.6020  144.6350 C   0  0  0  0  0  2  0  0  0  0  0  0
  190.7510  175.7330  143.4650 C   0  0  2  0  0  3  0  0  0  0  0  0
  190.2610  176.5590  142.2940 C   0  0  2  0  0  3  0  0  0  0  0  0
  191.3750  177.2630  141.6820 N   0  0  0  0  0  2  0  0  0  0  0  0
  189.5900  177.5110  140.1420 C   0  0  2  0  0  3  0  0  0  0  0  0
  191.0400  177.4600  140.2830 C   0  0  2  0  0  3  0  0  0  0  0  0
  190.6740  176.1580  138.3600 C   0  0  0  0  0  1  0  0  0  0  0  0
  190.3350  176.2680  139.7770 N   0  0  0  0  0  0  0  0  0  0  0  0
  188.9370  179.0760  138.1240 N   0  0  0  0  0  0  0  0  0  0  0  0
  189.2260  178.3910  139.0130 C   0  0  0  0  0  0  0  0  0  0  0  0
  187.1260  177.6990  147.1570 O   0  0  0  0  0  0  0  0  0  0  0  0
  189.0110  178.1960  148.5190 C   0  0  0  0  0  1  0  0  0  0  0  0
  188.3810  177.2250  147.5420 C   0  0  0  0  0  2  0  0  0  0  0  0
  1 15  1  6  0  0  0
  1 28  1  0  0  0  0
  2  5  2  0  0  0  0
  2  6  1  0  0  0  0
  4  1  1  0  0  0  0
  4  3  2  0  0  0  0
  5  4  1  0  0  0  0
  6  3  1  0  0  0  0
  7  9  2  0  0  0  0
  7 12  1  0  0  0  0
  8 13  1  0  0  0  0
  8 14  1  0  0  0  0
  9 11  1  0  0  0  0
 10 13  1  0  0  0  0
 11 14  2  0  0  0  0
 12 10  1  0  0  0  0
 12  8  2  0  0  0  0
 13  2  1  1  0  0  0
 16 15  1  0  0  0  0
 17 16  1  1  0  0  0
 17 18  1  0  0  0  0
 19 17  1  0  0  0  0
 19 18  1  6  0  0  0
 20 21  1  6  0  0  0
 20 19  1  0  0  0  0
 20 17  1  0  0  0  0
 22 27  1  6  0  0  0
 22 23  1  0  0  0  0
 23 21  1  1  0  0  0
 24 25  1  0  0  0  0
 25 22  1  0  0  0  0
 25 23  1  0  0  0  0
 26 27  3  0  0  0  0
 28 30  1  0  0  0  0
 30 29  1  0  0  0  0
M  END
>  <MODEL>
3

>  <REMARK>
 VINA RESULT:      -7.2      3.225      7.811
  Name = 
  10 active torsions:
  status: ('A' for Active; 'I' for Inactive)
    1  A    between atoms: C_1  and  C_18
    2  A    between atoms: C_3  and  N_21
    3  A    between atoms: C_7  and  C_24
    4  A    between atoms: C_8  and  C_28
    5  A    between atoms: N_11  and  C_28
    6  A    between atoms: N_11  and  C_29
    7  A    between atoms: C_14  and  C_29
    8  A    between atoms: N_21  and  C_27
    9  A    between atoms: O_23  and  C_29
   10  A    between atoms: O_23  and  C_30
                            x       y       z     vdW  Elec       q    Type
                         _______ _______ _______ _____ _____    ______ ____

>  <TORSDO>
F 10

$$$$
=
 OpenBabel10222416393D

 30 35  0  0  1  0  0  0  0  0999 V2000
  185.4010  179.4400  141.6710 C   0  0  1  0  0  3  0  0  0  0  0  0
  188.1300  177.2500  142.3070 C   0  0  0  0  0  0  0  0  0  0  0  0
  187.6050  178.7040  140.7370 N   0  0  0  0  0  0  0  0  0  0  0  0
  186.6530  178.6240  141.6900 C   0  0  0  0  0  0  0  0  0  0  0  0
  186.9350  177.7460  142.6700 N   0  0  0  0  0  0  0  0  0  0  0  0
  188.5520  177.8300  141.1270 C   0  0  0  0  0  2  0  0  0  0  0  0
  191.4360  176.9870  145.3640 C   0  0  0  0  0  3  0  0  0  0  0  0
  189.1470  176.7130  144.4930 C   0  0  0  0  0  0  0  0  0  0  0  0
  190.8220  177.3950  146.5740 C   0  0  0  0  0  3  0  0  0  0  0  0
  190.5290  176.1010  142.6260 S   0  0  0  0  0  0  0  0  0  0  0  0
  189.4020  177.4600  146.7200 C   0  0  0  0  0  3  0  0  0  0  0  0
  190.5580  176.6550  144.3470 C   0  0  0  0  0  0  0  0  0  0  0  0
  188.8710  176.2250  143.1160 C   0  0  2  0  0  3  0  0  0  0  0  0
  188.5260  177.1140  145.6640 C   0  0  0  0  0  3  0  0  0  0  0  0
  184.8950  179.5420  140.3090 N   0  0  0  0  0  2  0  0  0  0  0  0
  183.6730  178.7610  140.2240 C   0  0  0  0  0  2  0  0  0  0  0  0
  183.8880  177.5630  139.3160 C   0  0  1  0  0  0  0  0  0  0  0  0
  182.6180  176.7710  139.0870 C   0  0  0  0  0  2  0  0  0  0  0  0
  183.0530  177.8010  138.0670 C   0  0  2  0  0  3  0  0  0  0  0  0
  184.5600  177.9410  138.0140 C   0  0  2  0  0  3  0  0  0  0  0  0
  185.1490  176.7560  137.4150 N   0  0  0  0  0  2  0  0  0  0  0  0
  186.8310  178.1770  136.5370 C   0  0  2  0  0  3  0  0  0  0  0  0
  186.5810  176.9830  137.3350 C   0  0  2  0  0  3  0  0  0  0  0  0
  188.3970  176.3230  135.9960 C   0  0  0  0  0  1  0  0  0  0  0  0
  187.0240  176.8210  135.9390 N   0  0  0  0  0  0  0  0  0  0  0  0
  189.0260  179.3760  137.3700 N   0  0  0  0  0  0  0  0  0  0  0  0
  188.0600  178.8480  137.0070 C   0  0  0  0  0  0  0  0  0  0  0  0
  184.4400  178.8360  142.4840 O   0  0  0  0  0  0  0  0  0  0  0  0
  183.4920  178.9710  144.6610 C   0  0  0  0  0  1  0  0  0  0  0  0
  184.4220  179.6050  143.6480 C   0  0  0  0  0  2  0  0  0  0  0  0
  1 15  1  6  0  0  0
  1  4  1  0  0  0  0
  1 28  1  0  0  0  0
  2  5  2  0  0  0  0
  3  6  1  0  0  0  0
  3  4  2  0  0  0  0
  4  5  1  0  0  0  0
  6  2  1  0  0  0  0
  7  9  1  0  0  0  0
  8 14  2  0  0  0  0
  9 11  2  0  0  0  0
 10 13  1  0  0  0  0
 10 12  1  0  0  0  0
 12  8  1  0  0  0  0
 12  7  2  0  0  0  0
 13  2  1  6  0  0  0
 13  8  1  0  0  0  0
 14 11  1  0  0  0  0
 16 15  1  0  0  0  0
 17 16  1  1  0  0  0
 18 17  1  0  0  0  0
 19 18  1  6  0  0  0
 19 17  1  0  0  0  0
 20 21  1  6  0  0  0
 20 19  1  0  0  0  0
 20 17  1  0  0  0  0
 22 27  1  1  0  0  0
 22 23  1  0  0  0  0
 23 21  1  6  0  0  0
 25 24  1  0  0  0  0
 25 22  1  0  0  0  0
 25 23  1  0  0  0  0
 27 26  3  0  0  0  0
 28 30  1  0  0  0  0
 30 29  1  0  0  0  0
M  END
>  <MODEL>
4

>  <REMARK>
 VINA RESULT:      -7.1      2.702      5.331
  Name = 
  10 active torsions:
  status: ('A' for Active; 'I' for Inactive)
    1  A    between atoms: C_1  and  C_18
    2  A    between atoms: C_3  and  N_21
    3  A    between atoms: C_7  and  C_24
    4  A    between atoms: C_8  and  C_28
    5  A    between atoms: N_11  and  C_28
    6  A    between atoms: N_11  and  C_29
    7  A    between atoms: C_14  and  C_29
    8  A    between atoms: N_21  and  C_27
    9  A    between atoms: O_23  and  C_29
   10  A    between atoms: O_23  and  C_30
                            x       y       z     vdW  Elec       q    Type
                         _______ _______ _______ _____ _____    ______ ____

>  <TORSDO>
F 10

$$$$
=
 OpenBabel10222416393D

 30 35  0  0  1  0  0  0  0  0999 V2000
  185.5710  178.7640  141.3720 C   0  0  1  0  0  3  0  0  0  0  0  0
  188.5550  178.2460  139.5090 C   0  0  0  0  0  0  0  0  0  0  0  0
  187.9630  178.0680  141.6230 N   0  0  0  0  0  0  0  0  0  0  0  0
  186.9400  178.4780  140.8460 C   0  0  0  0  0  0  0  0  0  0  0  0
  187.2590  178.5990  139.5440 N   0  0  0  0  0  0  0  0  0  0  0  0
  188.9980  177.9160  140.7750 C   0  0  0  0  0  2  0  0  0  0  0  0
  188.6810  176.0900  135.5500 C   0  0  0  0  0  3  0  0  0  0  0  0
  188.4910  178.0370  137.0480 C   0  0  0  0  0  0  0  0  0  0  0  0
  187.6480  176.6950  134.7910 C   0  0  0  0  0  3  0  0  0  0  0  0
  190.2170  176.7140  138.0700 S   0  0  0  0  0  0  0  0  0  0  0  0
  187.0580  177.9400  135.1730 C   0  0  0  0  0  3  0  0  0  0  0  0
  189.0730  176.7970  136.6730 C   0  0  0  0  0  0  0  0  0  0  0  0
  189.3600  178.2110  138.2420 C   0  0  2  0  0  3  0  0  0  0  0  0
  187.4770  178.6430  136.3260 C   0  0  0  0  0  3  0  0  0  0  0  0
  185.6650  179.4260  142.6670 N   0  0  0  0  0  2  0  0  0  0  0  0
  185.2400  178.4810  143.6860 C   0  0  0  0  0  2  0  0  0  0  0  0
  186.1390  178.5980  144.9040 C   0  0  1  0  0  0  0  0  0  0  0  0
  185.3600  178.8260  146.1820 C   0  0  0  0  0  2  0  0  0  0  0  0
  185.8030  177.4250  145.8130 C   0  0  2  0  0  3  0  0  0  0  0  0
  187.0970  177.4320  145.0260 C   0  0  2  0  0  3  0  0  0  0  0  0
  188.2020  177.8080  145.8900 N   0  0  0  0  0  2  0  0  0  0  0  0
  190.5530  177.5340  146.0350 C   0  0  2  0  0  3  0  0  0  0  0  0
  189.3110  176.9250  145.5740 C   0  0  2  0  0  3  0  0  0  0  0  0
  190.7740  176.5060  143.7820 C   0  0  0  0  0  1  0  0  0  0  0  0
  190.1890  177.5770  144.5860 N   0  0  0  0  0  0  0  0  0  0  0  0
  192.2670  175.6550  146.7250 N   0  0  0  0  0  0  0  0  0  0  0  0
  191.5160  176.4820  146.4200 C   0  0  0  0  0  0  0  0  0  0  0  0
  184.8880  179.5850  140.4730 O   0  0  0  0  0  0  0  0  0  0  0  0
  183.2260  179.2500  138.8060 C   0  0  0  0  0  1  0  0  0  0  0  0
  183.6980  178.9090  140.2050 C   0  0  0  0  0  2  0  0  0  0  0  0
  1 28  1  6  0  0  0
  1 15  1  0  0  0  0
  2  5  2  0  0  0  0
  2  6  1  0  0  0  0
  4  1  1  0  0  0  0
  4  3  2  0  0  0  0
  5  4  1  0  0  0  0
  6  3  1  0  0  0  0
  7 12  1  0  0  0  0
  8 13  1  0  0  0  0
  9 11  1  0  0  0  0
  9  7  2  0  0  0  0
 10 13  1  0  0  0  0
 11 14  2  0  0  0  0
 12  8  2  0  0  0  0
 12 10  1  0  0  0  0
 13  2  1  1  0  0  0
 14  8  1  0  0  0  0
 15 16  1  0  0  0  0
 17 16  1  6  0  0  0
 17 20  1  0  0  0  0
 17 19  1  0  0  0  0
 17 18  1  0  0  0  0
 19 18  1  1  0  0  0
 20 19  1  0  0  0  0
 20 21  1  1  0  0  0
 22 27  1  6  0  0  0
 23 21  1  1  0  0  0
 23 22  1  0  0  0  0
 24 25  1  0  0  0  0
 25 23  1  0  0  0  0
 25 22  1  0  0  0  0
 27 26  3  0  0  0  0
 29 30  1  0  0  0  0
 30 28  1  0  0  0  0
M  END
>  <MODEL>
5

>  <REMARK>
 VINA RESULT:      -7.1      2.905      8.030
  Name = 
  10 active torsions:
  status: ('A' for Active; 'I' for Inactive)
    1  A    between atoms: C_1  and  C_18
    2  A    between atoms: C_3  and  N_21
    3  A    between atoms: C_7  and  C_24
    4  A    between atoms: C_8  and  C_28
    5  A    between atoms: N_11  and  C_28
    6  A    between atoms: N_11  and  C_29
    7  A    between atoms: C_14  and  C_29
    8  A    between atoms: N_21  and  C_27
    9  A    between atoms: O_23  and  C_29
   10  A    between atoms: O_23  and  C_30
                            x       y       z     vdW  Elec       q    Type
                         _______ _______ _______ _____ _____    ______ ____

>  <TORSDO>
F 10

$$$$
=
 OpenBabel10222416393D

 30 35  0  0  1  0  0  0  0  0999 V2000
  185.2230  178.2540  144.0740 C   0  0  1  0  0  3  0  0  0  0  0  0
  182.7750  178.6550  141.5260 C   0  0  0  0  0  0  0  0  0  0  0  0
  182.8290  178.8950  143.7150 N   0  0  0  0  0  0  0  0  0  0  0  0
  184.0190  178.4940  143.2220 C   0  0  0  0  0  0  0  0  0  0  0  0
  184.0300  178.3360  141.8860 N   0  0  0  0  0  0  0  0  0  0  0  0
  182.0310  179.0030  142.6370 C   0  0  0  0  0  2  0  0  0  0  0  0
  184.1190  177.2720  137.4490 C   0  0  0  0  0  3  0  0  0  0  0  0
  182.6470  177.3650  139.4230 C   0  0  0  0  0  0  0  0  0  0  0  0
  183.8870  175.8740  137.4630 C   0  0  0  0  0  3  0  0  0  0  0  0
  183.2820  179.6590  139.0950 S   0  0  0  0  0  0  0  0  0  0  0  0
  183.0560  175.2540  138.4460 C   0  0  0  0  0  3  0  0  0  0  0  0
  183.4780  177.9810  138.4500 C   0  0  0  0  0  0  0  0  0  0  0  0
  182.3030  178.6430  140.1010 C   0  0  2  0  0  3  0  0  0  0  0  0
  182.4110  176.0010  139.4590 C   0  0  0  0  0  3  0  0  0  0  0  0
  186.4250  178.2640  143.2510 N   0  0  0  0  0  2  0  0  0  0  0  0
  187.1940  177.0720  143.5670 C   0  0  0  0  0  2  0  0  0  0  0  0
  188.6760  177.3500  143.3800 C   0  0  1  0  0  0  0  0  0  0  0  0
  189.5170  176.8090  144.5170 C   0  0  0  0  0  2  0  0  0  0  0  0
  189.3640  176.0000  143.2460 C   0  0  2  0  0  3  0  0  0  0  0  0
  189.1830  176.8880  142.0320 C   0  0  2  0  0  3  0  0  0  0  0  0
  190.4270  177.5720  141.7270 N   0  0  0  0  0  2  0  0  0  0  0  0
  189.1180  177.7670  139.7600 C   0  0  2  0  0  3  0  0  0  0  0  0
  190.4770  177.7470  140.2860 C   0  0  2  0  0  3  0  0  0  0  0  0
  190.6630  176.4170  138.3560 C   0  0  0  0  0  1  0  0  0  0  0  0
  189.9540  176.5360  139.6280 N   0  0  0  0  0  0  0  0  0  0  0  0
  189.0070  179.3060  137.6230 N   0  0  0  0  0  0  0  0  0  0  0  0
  189.0560  178.6270  138.5600 C   0  0  0  0  0  0  0  0  0  0  0  0
  185.3120  179.2530  145.0470 O   0  0  0  0  0  0  0  0  0  0  0  0
  186.4860  178.4350  146.9460 C   0  0  0  0  0  1  0  0  0  0  0  0
  185.1440  178.5850  146.2600 C   0  0  0  0  0  2  0  0  0  0  0  0
  1 15  1  6  0  0  0
  1 28  1  0  0  0  0
  2  5  2  0  0  0  0
  2  6  1  0  0  0  0
  4  3  2  0  0  0  0
  4  1  1  0  0  0  0
  5  4  1  0  0  0  0
  6  3  1  0  0  0  0
  7  9  2  0  0  0  0
  7 12  1  0  0  0  0
  8 14  1  0  0  0  0
  8 13  1  0  0  0  0
  9 11  1  0  0  0  0
 10 13  1  0  0  0  0
 11 14  2  0  0  0  0
 12 10  1  0  0  0  0
 12  8  2  0  0  0  0
 13  2  1  1  0  0  0
 15 16  1  0  0  0  0
 17 16  1  1  0  0  0
 17 18  1  0  0  0  0
 19 17  1  0  0  0  0
 19 18  1  1  0  0  0
 20 21  1  1  0  0  0
 20 19  1  0  0  0  0
 20 17  1  0  0  0  0
 22 27  1  6  0  0  0
 22 23  1  0  0  0  0
 23 21  1  1  0  0  0
 24 25  1  0  0  0  0
 25 22  1  0  0  0  0
 25 23  1  0  0  0  0
 26 27  3  0  0  0  0
 28 30  1  0  0  0  0
 30 29  1  0  0  0  0
M  END
>  <MODEL>
6

>  <REMARK>
 VINA RESULT:      -6.9      3.243      8.085
  Name = 
  10 active torsions:
  status: ('A' for Active; 'I' for Inactive)
    1  A    between atoms: C_1  and  C_18
    2  A    between atoms: C_3  and  N_21
    3  A    between atoms: C_7  and  C_24
    4  A    between atoms: C_8  and  C_28
    5  A    between atoms: N_11  and  C_28
    6  A    between atoms: N_11  and  C_29
    7  A    between atoms: C_14  and  C_29
    8  A    between atoms: N_21  and  C_27
    9  A    between atoms: O_23  and  C_29
   10  A    between atoms: O_23  and  C_30
                            x       y       z     vdW  Elec       q    Type
                         _______ _______ _______ _____ _____    ______ ____

>  <TORSDO>
F 10

$$$$
=
 OpenBabel10222416393D

 30 35  0  0  1  0  0  0  0  0999 V2000
  186.0550  179.1650  141.7220 C   0  0  1  0  0  3  0  0  0  0  0  0
  183.2850  178.7810  139.5260 C   0  0  0  0  0  0  0  0  0  0  0  0
  185.4780  178.7800  139.3160 N   0  0  0  0  0  0  0  0  0  0  0  0
  185.0930  178.9780  140.5940 C   0  0  0  0  0  0  0  0  0  0  0  0
  183.7590  178.9840  140.7670 N   0  0  0  0  0  0  0  0  0  0  0  0
  184.3280  178.6510  138.6290 C   0  0  0  0  0  2  0  0  0  0  0  0
  179.4750  181.1230  140.1090 C   0  0  0  0  0  3  0  0  0  0  0  0
  181.2620  180.0150  138.8250 C   0  0  0  0  0  0  0  0  0  0  0  0
  179.5460  182.1500  139.1350 C   0  0  0  0  0  3  0  0  0  0  0  0
  180.8700  178.5030  140.6510 S   0  0  0  0  0  0  0  0  0  0  0  0
  180.4660  182.0960  138.0420 C   0  0  0  0  0  3  0  0  0  0  0  0
  180.3530  180.0710  139.9140 C   0  0  0  0  0  0  0  0  0  0  0  0
  181.8190  178.6920  139.2130 C   0  0  2  0  0  3  0  0  0  0  0  0
  181.3540  181.0090  137.8660 C   0  0  0  0  0  3  0  0  0  0  0  0
  185.3300  179.2780  142.9810 N   0  0  0  0  0  2  0  0  0  0  0  0
  185.5980  178.0830  143.7620 C   0  0  0  0  0  2  0  0  0  0  0  0
  186.3480  178.4520  145.0300 C   0  0  1  0  0  0  0  0  0  0  0  0
  185.4400  178.5380  146.2390 C   0  0  0  0  0  2  0  0  0  0  0  0
  186.2230  177.2690  145.9770 C   0  0  2  0  0  3  0  0  0  0  0  0
  187.5380  177.5510  145.2790 C   0  0  2  0  0  3  0  0  0  0  0  0
  188.4550  178.2080  146.1930 N   0  0  0  0  0  2  0  0  0  0  0  0
  189.7510  176.9840  144.6300 C   0  0  2  0  0  3  0  0  0  0  0  0
  189.7970  177.9940  145.6810 C   0  0  2  0  0  3  0  0  0  0  0  0
  191.6780  176.6710  146.1690 C   0  0  0  0  0  1  0  0  0  0  0  0
  190.2280  176.6200  145.9990 N   0  0  0  0  0  0  0  0  0  0  0  0
  191.6400  177.4460  142.8510 N   0  0  0  0  0  0  0  0  0  0  0  0
  190.8100  177.2460  143.6340 C   0  0  0  0  0  0  0  0  0  0  0  0
  186.9240  178.0730  141.7790 O   0  0  0  0  0  0  0  0  0  0  0  0
  188.8540  177.5870  140.4770 C   0  0  0  0  0  1  0  0  0  0  0  0
  188.1630  178.5820  141.3860 C   0  0  0  0  0  2  0  0  0  0  0  0
  1 28  1  1  0  0  0
  1 15  1  0  0  0  0
  2  5  2  0  0  0  0
  3  4  2  0  0  0  0
  4  5  1  0  0  0  0
  4  1  1  0  0  0  0
  6  3  1  0  0  0  0
  6  2  1  0  0  0  0
  8 13  1  0  0  0  0
  8 12  2  0  0  0  0
  9  7  2  0  0  0  0
 11  9  1  0  0  0  0
 12  7  1  0  0  0  0
 12 10  1  0  0  0  0
 13  2  1  1  0  0  0
 13 10  1  0  0  0  0
 14 11  2  0  0  0  0
 14  8  1  0  0  0  0
 15 16  1  0  0  0  0
 17 16  1  6  0  0  0
 17 20  1  0  0  0  0
 17 19  1  0  0  0  0
 17 18  1  0  0  0  0
 19 18  1  1  0  0  0
 20 19  1  0  0  0  0
 20 21  1  1  0  0  0
 22 27  1  6  0  0  0
 22 23  1  0  0  0  0
 22 25  1  0  0  0  0
 23 25  1  0  0  0  0
 23 21  1  1  0  0  0
 25 24  1  0  0  0  0
 26 27  3  0  0  0  0
 29 30  1  0  0  0  0
 30 28  1  0  0  0  0
M  END
>  <MODEL>
7

>  <REMARK>
 VINA RESULT:      -6.7      3.511      8.641
  Name = 
  10 active torsions:
  status: ('A' for Active; 'I' for Inactive)
    1  A    between atoms: C_1  and  C_18
    2  A    between atoms: C_3  and  N_21
    3  A    between atoms: C_7  and  C_24
    4  A    between atoms: C_8  and  C_28
    5  A    between atoms: N_11  and  C_28
    6  A    between atoms: N_11  and  C_29
    7  A    between atoms: C_14  and  C_29
    8  A    between atoms: N_21  and  C_27
    9  A    between atoms: O_23  and  C_29
   10  A    between atoms: O_23  and  C_30
                            x       y       z     vdW  Elec       q    Type
                         _______ _______ _______ _____ _____    ______ ____

>  <TORSDO>
F 10

$$$$
=
 OpenBabel10222416393D

 30 35  0  0  1  0  0  0  0  0999 V2000
  188.1730  178.2100  138.9020 C   0  0  1  0  0  3  0  0  0  0  0  0
  189.8350  176.7640  141.6940 C   0  0  0  0  0  0  0  0  0  0  0  0
  190.4550  177.7060  139.8010 N   0  0  0  0  0  0  0  0  0  0  0  0
  189.1130  177.6660  139.9290 C   0  0  0  0  0  0  0  0  0  0  0  0
  188.6910  177.0990  141.0740 N   0  0  0  0  0  0  0  0  0  0  0  0
  190.9230  177.1330  140.9260 C   0  0  0  0  0  2  0  0  0  0  0  0
  189.4120  177.7920  146.0650 C   0  0  0  0  0  3  0  0  0  0  0  0
  188.8390  176.6600  143.9520 C   0  0  0  0  0  0  0  0  0  0  0  0
  188.0140  177.9340  146.2540 C   0  0  0  0  0  3  0  0  0  0  0  0
  191.2410  176.6230  143.9700 S   0  0  0  0  0  0  0  0  0  0  0  0
  187.0670  177.4490  145.2990 C   0  0  0  0  0  3  0  0  0  0  0  0
  189.7810  177.1470  144.8970 C   0  0  0  0  0  0  0  0  0  0  0  0
  189.8740  176.1030  143.0420 C   0  0  2  0  0  3  0  0  0  0  0  0
  187.4710  176.7930  144.1130 C   0  0  0  0  0  3  0  0  0  0  0  0
  186.9330  178.6360  139.5380 N   0  0  0  0  0  2  0  0  0  0  0  0
  185.8410  177.8920  138.9330 C   0  0  0  0  0  2  0  0  0  0  0  0
  184.5210  178.5820  139.2290 C   0  0  1  0  0  0  0  0  0  0  0  0
  183.6090  178.6360  138.0210 C   0  0  0  0  0  2  0  0  0  0  0  0
  183.4280  177.5390  139.0500 C   0  0  2  0  0  3  0  0  0  0  0  0
  183.8240  177.9970  140.4380 C   0  0  2  0  0  3  0  0  0  0  0  0
  182.8530  178.9530  140.9420 N   0  0  0  0  0  2  0  0  0  0  0  0
  181.3870  179.3690  142.7580 C   0  0  2  0  0  3  0  0  0  0  0  0
  182.4070  178.4680  142.2360 C   0  0  2  0  0  3  0  0  0  0  0  0
  183.0170  178.6650  144.4970 C   0  0  0  0  0  1  0  0  0  0  0  0
  182.7860  179.4380  143.2790 N   0  0  0  0  0  0  0  0  0  0  0  0
  179.6800  178.0300  144.2550 N   0  0  0  0  0  0  0  0  0  0  0  0
  180.4300  178.6160  143.5950 C   0  0  0  0  0  0  0  0  0  0  0  0
  188.7660  179.2970  138.2570 O   0  0  0  0  0  0  0  0  0  0  0  0
  188.7850  177.5370  136.6570 C   0  0  0  0  0  1  0  0  0  0  0  0
  188.6250  179.0240  136.8960 C   0  0  0  0  0  2  0  0  0  0  0  0
  1 28  1  1  0  0  0
  1 15  1  0  0  0  0
  1  4  1  0  0  0  0
  3  4  2  0  0  0  0
  3  6  1  0  0  0  0
  4  5  1  0  0  0  0
  5  2  2  0  0  0  0
  6  2  1  0  0  0  0
  7  9  1  0  0  0  0
  8 14  2  0  0  0  0
  8 12  1  0  0  0  0
 10 12  1  0  0  0  0
 11  9  2  0  0  0  0
 12  7  2  0  0  0  0
 13  2  1  6  0  0  0
 13  8  1  0  0  0  0
 13 10  1  0  0  0  0
 14 11  1  0  0  0  0
 16 15  1  0  0  0  0
 17 16  1  6  0  0  0
 17 20  1  0  0  0  0
 18 17  1  0  0  0  0
 19 18  1  6  0  0  0
 19 17  1  0  0  0  0
 19 20  1  0  0  0  0
 20 21  1  6  0  0  0
 22 25  1  0  0  0  0
 22 27  1  1  0  0  0
 23 21  1  6  0  0  0
 23 22  1  0  0  0  0
 23 25  1  0  0  0  0
 25 24  1  0  0  0  0
 27 26  3  0  0  0  0
 29 30  1  0  0  0  0
 30 28  1  0  0  0  0
M  END
>  <MODEL>
8

>  <REMARK>
 VINA RESULT:      -6.7      1.914      3.081
  Name = 
  10 active torsions:
  status: ('A' for Active; 'I' for Inactive)
    1  A    between atoms: C_1  and  C_18
    2  A    between atoms: C_3  and  N_21
    3  A    between atoms: C_7  and  C_24
    4  A    between atoms: C_8  and  C_28
    5  A    between atoms: N_11  and  C_28
    6  A    between atoms: N_11  and  C_29
    7  A    between atoms: C_14  and  C_29
    8  A    between atoms: N_21  and  C_27
    9  A    between atoms: O_23  and  C_29
   10  A    between atoms: O_23  and  C_30
                            x       y       z     vdW  Elec       q    Type
                         _______ _______ _______ _____ _____    ______ ____

>  <TORSDO>
F 10

$$$$
=
 OpenBabel10222416393D

 30 35  0  0  1  0  0  0  0  0999 V2000
  188.0080  178.7590  141.1090 C   0  0  1  0  0  3  0  0  0  0  0  0
  184.4670  178.7710  140.7830 C   0  0  0  0  0  0  0  0  0  0  0  0
  185.9050  178.2360  142.3630 N   0  0  0  0  0  0  0  0  0  0  0  0
  186.5230  178.6610  141.2420 C   0  0  0  0  0  0  0  0  0  0  0  0
  185.6790  179.0000  140.2500 N   0  0  0  0  0  0  0  0  0  0  0  0
  184.5910  178.3060  142.0770 C   0  0  0  0  0  2  0  0  0  0  0  0
  180.3980  176.9230  140.1750 C   0  0  0  0  0  3  0  0  0  0  0  0
  182.0000  178.6640  140.8620 C   0  0  0  0  0  0  0  0  0  0  0  0
  179.6900  177.2420  141.3600 C   0  0  0  0  0  3  0  0  0  0  0  0
  182.9210  177.8440  138.8010 S   0  0  0  0  0  0  0  0  0  0  0  0
  180.1470  178.2490  142.2670 C   0  0  0  0  0  3  0  0  0  0  0  0
  181.5490  177.6600  139.9640 C   0  0  0  0  0  0  0  0  0  0  0  0
  183.1860  179.0240  140.0410 C   0  0  2  0  0  3  0  0  0  0  0  0
  181.3290  178.9890  142.0290 C   0  0  0  0  0  3  0  0  0  0  0  0
  188.6430  177.6370  141.7880 N   0  0  0  0  0  2  0  0  0  0  0  0
  189.6900  178.1670  142.6460 C   0  0  0  0  0  2  0  0  0  0  0  0
  189.9640  177.1980  143.7820 C   0  0  1  0  0  0  0  0  0  0  0  0
  191.3690  176.6350  143.7400 C   0  0  0  0  0  2  0  0  0  0  0  0
  191.0620  177.8180  144.6340 C   0  0  2  0  0  3  0  0  0  0  0  0
  189.6330  177.7900  145.1360 C   0  0  2  0  0  3  0  0  0  0  0  0
  189.4660  176.7170  146.1000 N   0  0  0  0  0  2  0  0  0  0  0  0
  187.7930  178.3490  146.5000 C   0  0  2  0  0  3  0  0  0  0  0  0
  188.3350  177.0700  146.9410 C   0  0  2  0  0  3  0  0  0  0  0  0
  187.9310  178.1750  148.9760 C   0  0  0  0  0  1  0  0  0  0  0  0
  188.6610  178.2820  147.7140 N   0  0  0  0  0  0  0  0  0  0  0  0
  185.1990  178.4260  146.9610 N   0  0  0  0  0  0  0  0  0  0  0  0
  186.3390  178.3940  146.7560 C   0  0  0  0  0  0  0  0  0  0  0  0
  188.3560  178.7460  139.7560 O   0  0  0  0  0  0  0  0  0  0  0  0
  188.1510  176.9250  138.2410 C   0  0  0  0  0  1  0  0  0  0  0  0
  188.7920  177.4440  139.5110 C   0  0  0  0  0  2  0  0  0  0  0  0
  1 28  1  6  0  0  0
  1  4  1  0  0  0  0
  1 15  1  0  0  0  0
  2  6  1  0  0  0  0
  4  3  2  0  0  0  0
  5  2  2  0  0  0  0
  5  4  1  0  0  0  0
  6  3  1  0  0  0  0
  7  9  1  0  0  0  0
  8 14  2  0  0  0  0
  9 11  2  0  0  0  0
 10 12  1  0  0  0  0
 10 13  1  0  0  0  0
 12  7  2  0  0  0  0
 12  8  1  0  0  0  0
 13  2  1  1  0  0  0
 13  8  1  0  0  0  0
 14 11  1  0  0  0  0
 15 16  1  0  0  0  0
 17 16  1  6  0  0  0
 17 19  1  0  0  0  0
 17 20  1  0  0  0  0
 18 17  1  0  0  0  0
 19 18  1  1  0  0  0
 19 20  1  0  0  0  0
 20 21  1  1  0  0  0
 22 27  1  1  0  0  0
 22 23  1  0  0  0  0
 22 25  1  0  0  0  0
 23 21  1  6  0  0  0
 23 25  1  0  0  0  0
 25 24  1  0  0  0  0
 27 26  3  0  0  0  0
 29 30  1  0  0  0  0
 30 28  1  0  0  0  0
M  END
>  <MODEL>
9

>  <REMARK>
 VINA RESULT:      -6.7      3.371      7.436
  Name = 
  10 active torsions:
  status: ('A' for Active; 'I' for Inactive)
    1  A    between atoms: C_1  and  C_18
    2  A    between atoms: C_3  and  N_21
    3  A    between atoms: C_7  and  C_24
    4  A    between atoms: C_8  and  C_28
    5  A    between atoms: N_11  and  C_28
    6  A    between atoms: N_11  and  C_29
    7  A    between atoms: C_14  and  C_29
    8  A    between atoms: N_21  and  C_27
    9  A    between atoms: O_23  and  C_29
   10  A    between atoms: O_23  and  C_30
                            x       y       z     vdW  Elec       q    Type
                         _______ _______ _______ _____ _____    ______ ____

>  <TORSDO>
F 10

$$$$
