=
 OpenBabel10222416533D

 28 32  0  0  1  0  0  0  0  0999 V2000
  185.7710  178.7020  143.0330 C   0  0  0  0  0  0  0  0  0  0  0  0
  186.8360  178.3860  140.4530 C   0  0  0  0  0  3  0  0  0  0  0  0
  192.0700  176.2340  145.7010 N   0  0  0  0  0  0  0  0  0  0  0  0
  190.3320  176.7740  147.2550 C   0  0  0  0  0  3  0  0  0  0  0  0
  187.6250  178.1250  141.5710 C   0  0  0  0  0  3  0  0  0  0  0  0
  185.5030  178.7830  140.6060 C   0  0  0  0  0  0  0  0  0  0  0  0
  187.4200  178.0120  145.3370 C   0  0  0  0  0  0  0  0  0  0  0  0
  191.2910  176.6060  144.6480 C   0  0  0  0  0  3  0  0  0  0  0  0
  187.1040  178.2710  142.8620 C   0  0  0  0  0  0  0  0  0  0  0  0
  189.5170  177.1600  146.1910 C   0  0  0  0  0  0  0  0  0  0  0  0
  189.2050  177.4500  143.8350 N   0  0  0  0  0  0  0  0  0  0  0  0
  189.9970  177.0780  144.8730 C   0  0  0  0  0  0  0  0  0  0  0  0
  185.1990  178.8810  144.4230 C   0  0  2  0  0  0  0  0  0  0  0  0
  191.6230  176.3080  146.9840 C   0  0  0  0  0  0  0  0  0  0  0  0
  184.1790  179.9720  144.6970 C   0  0  0  0  0  1  0  0  0  0  0  0
  188.2260  177.6320  146.4150 C   0  0  0  0  0  3  0  0  0  0  0  0
  186.0540  178.5590  145.6420 C   0  0  1  0  0  3  0  0  0  0  0  0
  192.4710  175.9090  148.0540 N   0  0  0  0  0  1  0  0  0  0  0  0
  187.9360  177.9160  144.0270 C   0  0  0  0  0  0  0  0  0  0  0  0
  184.9650  177.5940  145.1830 C   0  0  0  0  0  2  0  0  0  0  0  0
  183.6670  179.2870  142.0270 F   0  0  0  0  0  0  0  0  0  0  0  0
  184.9700  178.9290  141.8940 C   0  0  0  0  0  0  0  0  0  0  0  0
  184.6670  179.0400  139.4660 N   0  0  0  0  0  2  0  0  0  0  0  0
  183.2990  177.0350  139.7650 C   0  0  0  0  0  1  0  0  0  0  0  0
  183.8120  178.0720  138.7790 C   0  0  0  0  0  0  0  0  0  0  0  0
  182.6410  178.7840  138.1210 C   0  0  0  0  0  1  0  0  0  0  0  0
  184.6410  177.3770  137.7080 C   0  0  0  0  0  2  0  0  0  0  0  0
  185.7090  178.1650  137.3100 F   0  0  0  0  0  0  0  0  0  0  0  0
  1 13  1  0  0  0  0
  2  6  2  0  0  0  0
  2  5  1  0  0  0  0
  3 14  1  0  0  0  0
  5  9  2  0  0  0  0
  6 22  1  0  0  0  0
  7 17  1  0  0  0  0
  7 16  1  0  0  0  0
  8 12  1  0  0  0  0
  8  3  2  0  0  0  0
  9  1  1  0  0  0  0
  9 19  1  0  0  0  0
 10 16  2  0  0  0  0
 10  4  1  0  0  0  0
 11 19  1  0  0  0  0
 11 12  2  0  0  0  0
 12 10  1  0  0  0  0
 13 15  1  1  0  0  0
 13 20  1  0  0  0  0
 13 17  1  0  0  0  0
 14  4  2  0  0  0  0
 14 18  1  0  0  0  0
 17 20  1  1  0  0  0
 19  7  2  0  0  0  0
 22 21  1  0  0  0  0
 22  1  2  0  0  0  0
 23  6  1  0  0  0  0
 25 23  1  0  0  0  0
 25 24  1  0  0  0  0
 26 25  1  0  0  0  0
 27 25  1  0  0  0  0
 28 27  1  0  0  0  0
M  END
>  <MODEL>
1

>  <REMARK>
 VINA RESULT:      -8.8      0.000      0.000
  Name = 
  3 active torsions:
  status: ('A' for Active; 'I' for Inactive)
    1  A    between atoms: N_3  and  C_7
    2  A    between atoms: N_3  and  C_11
    3  A    between atoms: C_11  and  C_21
                            x       y       z     vdW  Elec       q    Type
                         _______ _______ _______ _____ _____    ______ ____

>  <TORSDO>
F 3

$$$$
=
 OpenBabel10222416533D

 28 32  0  0  1  0  0  0  0  0999 V2000
  188.0040  177.7990  140.8930 C   0  0  0  0  0  0  0  0  0  0  0  0
  185.6640  178.8800  142.0080 C   0  0  0  0  0  3  0  0  0  0  0  0
  190.5190  176.8300  147.6470 N   0  0  0  0  0  0  0  0  0  0  0  0
  191.9410  176.2110  145.8250 C   0  0  0  0  0  3  0  0  0  0  0  0
  186.6640  178.3740  142.8370 C   0  0  0  0  0  3  0  0  0  0  0  0
  185.8290  178.8760  140.6190 C   0  0  0  0  0  0  0  0  0  0  0  0
  190.1230  176.8770  142.6710 C   0  0  0  0  0  0  0  0  0  0  0  0
  189.5310  177.2100  146.7910 C   0  0  0  0  0  3  0  0  0  0  0  0
  187.8380  177.8400  142.2930 C   0  0  0  0  0  0  0  0  0  0  0  0
  190.9430  176.5960  144.9300 C   0  0  0  0  0  0  0  0  0  0  0  0
  188.7500  177.4770  144.5450 N   0  0  0  0  0  0  0  0  0  0  0  0
  189.7240  177.1000  145.4130 C   0  0  0  0  0  0  0  0  0  0  0  0
  189.2610  177.2090  140.2900 C   0  0  2  0  0  0  0  0  0  0  0  0
  191.7060  176.3380  147.1980 C   0  0  0  0  0  0  0  0  0  0  0  0
  189.2020  176.4700  138.9640 C   0  0  0  0  0  1  0  0  0  0  0  0
  191.1330  176.4850  143.5550 C   0  0  0  0  0  3  0  0  0  0  0  0
  190.3670  176.6900  141.2010 C   0  0  1  0  0  3  0  0  0  0  0  0
  192.7110  175.9520  148.1270 N   0  0  0  0  0  1  0  0  0  0  0  0
  188.9120  177.3790  143.1930 C   0  0  0  0  0  0  0  0  0  0  0  0
  190.5110  178.0360  140.4950 C   0  0  0  0  0  2  0  0  0  0  0  0
  187.1600  178.3760  138.7160 F   0  0  0  0  0  0  0  0  0  0  0  0
  187.0010  178.3470  140.0640 C   0  0  0  0  0  0  0  0  0  0  0  0
  184.8180  179.4100  139.7480 N   0  0  0  0  0  2  0  0  0  0  0  0
  183.9530  178.0100  137.9390 C   0  0  0  0  0  1  0  0  0  0  0  0
  183.6350  178.7060  139.2530 C   0  0  0  0  0  0  0  0  0  0  0  0
  183.1680  177.6850  140.2790 C   0  0  0  0  0  1  0  0  0  0  0  0
  182.5310  179.7280  139.0250 C   0  0  0  0  0  2  0  0  0  0  0  0
  183.0550  180.9730  138.7140 F   0  0  0  0  0  0  0  0  0  0  0  0
  1  9  1  0  0  0  0
  2  5  1  0  0  0  0
  4 14  2  0  0  0  0
  6  2  2  0  0  0  0
  7 19  2  0  0  0  0
  7 16  1  0  0  0  0
  8  3  2  0  0  0  0
  9  5  2  0  0  0  0
  9 19  1  0  0  0  0
 10 12  1  0  0  0  0
 10  4  1  0  0  0  0
 11 12  2  0  0  0  0
 12  8  1  0  0  0  0
 13 15  1  6  0  0  0
 13 20  1  0  0  0  0
 13  1  1  0  0  0  0
 13 17  1  0  0  0  0
 14  3  1  0  0  0  0
 14 18  1  0  0  0  0
 16 10  2  0  0  0  0
 17 20  1  6  0  0  0
 17  7  1  0  0  0  0
 19 11  1  0  0  0  0
 21 22  1  0  0  0  0
 22  6  1  0  0  0  0
 22  1  2  0  0  0  0
 23  6  1  0  0  0  0
 24 25  1  0  0  0  0
 25 23  1  0  0  0  0
 25 26  1  0  0  0  0
 27 25  1  0  0  0  0
 28 27  1  0  0  0  0
M  END
>  <MODEL>
2

>  <REMARK>
 VINA RESULT:      -8.6      1.661      3.546
  Name = 
  3 active torsions:
  status: ('A' for Active; 'I' for Inactive)
    1  A    between atoms: N_3  and  C_7
    2  A    between atoms: N_3  and  C_11
    3  A    between atoms: C_11  and  C_21
                            x       y       z     vdW  Elec       q    Type
                         _______ _______ _______ _____ _____    ______ ____

>  <TORSDO>
F 3

$$$$
=
 OpenBabel10222416533D

 28 32  0  0  1  0  0  0  0  0999 V2000
  185.3000  178.4860  143.8690 C   0  0  0  0  0  0  0  0  0  0  0  0
  183.5600  179.0790  141.7450 C   0  0  0  0  0  3  0  0  0  0  0  0
  190.6190  177.6170  138.9880 N   0  0  0  0  0  0  0  0  0  0  0  0
  191.1420  177.2380  141.2920 C   0  0  0  0  0  3  0  0  0  0  0  0
  184.9120  178.8480  141.4980 C   0  0  0  0  0  3  0  0  0  0  0  0
  183.0560  178.9950  143.0470 C   0  0  0  0  0  0  0  0  0  0  0  0
  188.0900  177.8760  143.2830 C   0  0  0  0  0  0  0  0  0  0  0  0
  189.3340  177.9410  139.2980 C   0  0  0  0  0  3  0  0  0  0  0  0
  185.7870  178.5430  142.5470 C   0  0  0  0  0  0  0  0  0  0  0  0
  189.8300  177.5650  141.6320 C   0  0  0  0  0  0  0  0  0  0  0  0
  187.6340  178.2380  140.9560 N   0  0  0  0  0  0  0  0  0  0  0  0
  188.9130  177.9220  140.6290 C   0  0  0  0  0  0  0  0  0  0  0  0
  186.2370  178.1750  145.0160 C   0  0  2  0  0  0  0  0  0  0  0  0
  191.5220  177.2710  139.9460 C   0  0  0  0  0  0  0  0  0  0  0  0
  186.0150  178.8040  146.3800 C   0  0  0  0  0  1  0  0  0  0  0  0
  189.4100  177.5480  142.9600 C   0  0  0  0  0  3  0  0  0  0  0  0
  187.7070  177.8870  144.7360 C   0  0  1  0  0  3  0  0  0  0  0  0
  192.8550  176.9400  139.5770 N   0  0  0  0  0  1  0  0  0  0  0  0
  187.1970  178.2290  142.2490 C   0  0  0  0  0  0  0  0  0  0  0  0
  186.7400  176.7480  145.0550 C   0  0  0  0  0  2  0  0  0  0  0  0
  183.4130  178.5790  145.3590 F   0  0  0  0  0  0  0  0  0  0  0  0
  183.9220  178.6870  144.1050 C   0  0  0  0  0  0  0  0  0  0  0  0
  181.6620  179.2120  143.3210 N   0  0  0  0  0  2  0  0  0  0  0  0
  180.0340  180.1690  141.7690 C   0  0  0  0  0  1  0  0  0  0  0  0
  180.5420  178.9000  142.4340 C   0  0  0  0  0  0  0  0  0  0  0  0
  180.9770  177.9000  141.3750 C   0  0  0  0  0  1  0  0  0  0  0  0
  179.4250  178.2910  143.2690 C   0  0  0  0  0  2  0  0  0  0  0  0
  179.9350  177.5210  144.3030 F   0  0  0  0  0  0  0  0  0  0  0  0
  1 22  1  0  0  0  0
  1 13  1  0  0  0  0
  2  6  1  0  0  0  0
  3  8  2  0  0  0  0
  3 14  1  0  0  0  0
  4 10  1  0  0  0  0
  5  2  2  0  0  0  0
  5  9  1  0  0  0  0
  6 23  1  0  0  0  0
  6 22  2  0  0  0  0
  7 17  1  0  0  0  0
  8 12  1  0  0  0  0
  9  1  2  0  0  0  0
 10 16  2  0  0  0  0
 11 19  1  0  0  0  0
 12 11  2  0  0  0  0
 12 10  1  0  0  0  0
 13 20  1  0  0  0  0
 13 15  1  1  0  0  0
 14  4  2  0  0  0  0
 16  7  1  0  0  0  0
 17 13  1  0  0  0  0
 17 20  1  6  0  0  0
 18 14  1  0  0  0  0
 19  9  1  0  0  0  0
 19  7  2  0  0  0  0
 22 21  1  0  0  0  0
 24 25  1  0  0  0  0
 25 27  1  0  0  0  0
 25 23  1  0  0  0  0
 26 25  1  0  0  0  0
 27 28  1  0  0  0  0
M  END
>  <MODEL>
3

>  <REMARK>
 VINA RESULT:      -8.4      3.456      4.695
  Name = 
  3 active torsions:
  status: ('A' for Active; 'I' for Inactive)
    1  A    between atoms: N_3  and  C_7
    2  A    between atoms: N_3  and  C_11
    3  A    between atoms: C_11  and  C_21
                            x       y       z     vdW  Elec       q    Type
                         _______ _______ _______ _____ _____    ______ ____

>  <TORSDO>
F 3

$$$$
=
 OpenBabel10222416533D

 28 32  0  0  1  0  0  0  0  0999 V2000
  187.8180  177.8150  146.3270 C   0  0  0  0  0  0  0  0  0  0  0  0
  189.6200  176.9240  144.3650 C   0  0  0  0  0  3  0  0  0  0  0  0
  182.8110  178.5190  141.1010 N   0  0  0  0  0  0  0  0  0  0  0  0
  182.1980  179.1440  143.3280 C   0  0  0  0  0  3  0  0  0  0  0  0
  188.2990  177.2080  144.0230 C   0  0  0  0  0  3  0  0  0  0  0  0
  190.0640  177.1040  145.6800 C   0  0  0  0  0  0  0  0  0  0  0  0
  185.1040  178.5250  145.5350 C   0  0  0  0  0  0  0  0  0  0  0  0
  184.0560  178.1530  141.5100 C   0  0  0  0  0  3  0  0  0  0  0  0
  187.3940  177.6610  144.9900 C   0  0  0  0  0  0  0  0  0  0  0  0
  183.4700  178.7770  143.7690 C   0  0  0  0  0  0  0  0  0  0  0  0
  185.6500  177.9180  143.2790 N   0  0  0  0  0  0  0  0  0  0  0  0
  184.4110  178.2750  142.8540 C   0  0  0  0  0  0  0  0  0  0  0  0
  186.8460  178.2870  147.3870 C   0  0  2  0  0  0  0  0  0  0  0  0
  181.8850  179.0060  141.9720 C   0  0  0  0  0  0  0  0  0  0  0  0
  186.9610  177.7780  148.8130 C   0  0  0  0  0  1  0  0  0  0  0  0
  183.8240  178.8960  145.1100 C   0  0  0  0  0  3  0  0  0  0  0  0
  185.4130  178.6310  147.0010 C   0  0  1  0  0  3  0  0  0  0  0  0
  180.5940  179.3750  141.5020 N   0  0  0  0  0  1  0  0  0  0  0  0
  186.0220  178.0250  144.5880 C   0  0  0  0  0  0  0  0  0  0  0  0
  186.4310  179.7370  147.2660 C   0  0  0  0  0  2  0  0  0  0  0  0
  189.6190  177.7560  147.9200 F   0  0  0  0  0  0  0  0  0  0  0  0
  189.1670  177.5590  146.6550 C   0  0  0  0  0  0  0  0  0  0  0  0
  191.4260  176.8340  146.0490 N   0  0  0  0  0  2  0  0  0  0  0  0
  192.9870  176.0030  147.7380 C   0  0  0  0  0  1  0  0  0  0  0  0
  191.9250  175.6310  146.7150 C   0  0  0  0  0  0  0  0  0  0  0  0
  190.7810  174.9000  147.3990 C   0  0  0  0  0  1  0  0  0  0  0  0
  192.5410  174.7220  145.6620 C   0  0  0  0  0  2  0  0  0  0  0  0
  192.2790  175.1860  144.3820 F   0  0  0  0  0  0  0  0  0  0  0  0
  1 22  1  0  0  0  0
  1 13  1  0  0  0  0
  2  6  1  0  0  0  0
  3  8  2  0  0  0  0
  3 14  1  0  0  0  0
  4 10  1  0  0  0  0
  5  2  2  0  0  0  0
  5  9  1  0  0  0  0
  6 23  1  0  0  0  0
  6 22  2  0  0  0  0
  7 17  1  0  0  0  0
  8 12  1  0  0  0  0
  9  1  2  0  0  0  0
 10 16  2  0  0  0  0
 11 19  1  0  0  0  0
 12 11  2  0  0  0  0
 12 10  1  0  0  0  0
 13 15  1  1  0  0  0
 14  4  2  0  0  0  0
 16  7  1  0  0  0  0
 17 20  1  6  0  0  0
 17 13  1  0  0  0  0
 18 14  1  0  0  0  0
 19  9  1  0  0  0  0
 19  7  2  0  0  0  0
 20 13  1  0  0  0  0
 22 21  1  0  0  0  0
 23 25  1  0  0  0  0
 25 26  1  0  0  0  0
 25 24  1  0  0  0  0
 27 25  1  0  0  0  0
 28 27  1  0  0  0  0
M  END
>  <MODEL>
4

>  <REMARK>
 VINA RESULT:      -8.4      3.158      7.964
  Name = 
  3 active torsions:
  status: ('A' for Active; 'I' for Inactive)
    1  A    between atoms: N_3  and  C_7
    2  A    between atoms: N_3  and  C_11
    3  A    between atoms: C_11  and  C_21
                            x       y       z     vdW  Elec       q    Type
                         _______ _______ _______ _____ _____    ______ ____

>  <TORSDO>
F 3

$$$$
=
 OpenBabel10222416533D

 28 32  0  0  1  0  0  0  0  0999 V2000
  186.6340  178.2300  141.3300 C   0  0  0  0  0  0  0  0  0  0  0  0
  184.2250  178.5010  142.7480 C   0  0  0  0  0  3  0  0  0  0  0  0
  189.9450  176.8270  147.6510 N   0  0  0  0  0  0  0  0  0  0  0  0
  191.2900  176.8860  145.6730 C   0  0  0  0  0  3  0  0  0  0  0  0
  185.3900  178.1300  143.4160 C   0  0  0  0  0  3  0  0  0  0  0  0
  184.2510  178.7640  141.3740 C   0  0  0  0  0  0  0  0  0  0  0  0
  189.0710  177.5860  142.7950 C   0  0  0  0  0  0  0  0  0  0  0  0
  188.8170  177.0850  146.9330 C   0  0  0  0  0  3  0  0  0  0  0  0
  186.5980  178.0000  142.7220 C   0  0  0  0  0  0  0  0  0  0  0  0
  190.1480  177.1520  144.9170 C   0  0  0  0  0  0  0  0  0  0  0  0
  187.7830  177.5130  144.8180 N   0  0  0  0  0  0  0  0  0  0  0  0
  188.8970  177.2520  145.5500 C   0  0  0  0  0  0  0  0  0  0  0  0
  187.9300  178.0770  140.5630 C   0  0  2  0  0  0  0  0  0  0  0  0
  191.1650  176.7250  147.0570 C   0  0  0  0  0  0  0  0  0  0  0  0
  187.9180  177.5730  139.1310 C   0  0  0  0  0  1  0  0  0  0  0  0
  190.2260  177.3180  143.5370 C   0  0  0  0  0  3  0  0  0  0  0  0
  189.2090  177.7070  141.3040 C   0  0  1  0  0  3  0  0  0  0  0  0
  192.3170  176.4540  147.8450 N   0  0  0  0  0  1  0  0  0  0  0  0
  187.8330  177.6790  143.4640 C   0  0  0  0  0  0  0  0  0  0  0  0
  188.9650  179.1430  140.8480 C   0  0  0  0  0  2  0  0  0  0  0  0
  185.4720  178.9280  139.3430 F   0  0  0  0  0  0  0  0  0  0  0  0
  185.4560  178.6400  140.6700 C   0  0  0  0  0  0  0  0  0  0  0  0
  183.0640  179.1650  140.6700 N   0  0  0  0  0  2  0  0  0  0  0  0
  182.0380  178.8190  138.4780 C   0  0  0  0  0  1  0  0  0  0  0  0
  182.1740  178.2970  139.8990 C   0  0  0  0  0  0  0  0  0  0  0  0
  182.7180  176.8780  139.8790 C   0  0  0  0  0  1  0  0  0  0  0  0
  180.8070  178.3000  140.5670 C   0  0  0  0  0  2  0  0  0  0  0  0
  180.9200  178.1840  141.9430 F   0  0  0  0  0  0  0  0  0  0  0  0
  1  9  1  0  0  0  0
  2  5  1  0  0  0  0
  4 14  2  0  0  0  0
  6  2  2  0  0  0  0
  7 19  2  0  0  0  0
  7 16  1  0  0  0  0
  8  3  2  0  0  0  0
  9  5  2  0  0  0  0
  9 19  1  0  0  0  0
 10 12  1  0  0  0  0
 10  4  1  0  0  0  0
 11 12  2  0  0  0  0
 12  8  1  0  0  0  0
 13 15  1  6  0  0  0
 13 20  1  0  0  0  0
 13 17  1  0  0  0  0
 13  1  1  0  0  0  0
 14  3  1  0  0  0  0
 14 18  1  0  0  0  0
 16 10  2  0  0  0  0
 17 20  1  1  0  0  0
 17  7  1  0  0  0  0
 19 11  1  0  0  0  0
 21 22  1  0  0  0  0
 22  1  2  0  0  0  0
 22  6  1  0  0  0  0
 23  6  1  0  0  0  0
 24 25  1  0  0  0  0
 25 27  1  0  0  0  0
 25 23  1  0  0  0  0
 26 25  1  0  0  0  0
 27 28  1  0  0  0  0
M  END
>  <MODEL>
5

>  <REMARK>
 VINA RESULT:      -8.4      1.542      3.393
  Name = 
  3 active torsions:
  status: ('A' for Active; 'I' for Inactive)
    1  A    between atoms: N_3  and  C_7
    2  A    between atoms: N_3  and  C_11
    3  A    between atoms: C_11  and  C_21
                            x       y       z     vdW  Elec       q    Type
                         _______ _______ _______ _____ _____    ______ ____

>  <TORSDO>
F 3

$$$$
=
 OpenBabel10222416533D

 28 32  0  0  1  0  0  0  0  0999 V2000
  186.5000  177.8020  144.7070 C   0  0  0  0  0  0  0  0  0  0  0  0
  188.0910  177.1020  142.5010 C   0  0  0  0  0  3  0  0  0  0  0  0
  181.0770  179.2180  140.0750 N   0  0  0  0  0  0  0  0  0  0  0  0
  180.6850  179.5970  142.4050 C   0  0  0  0  0  3  0  0  0  0  0  0
  186.7560  177.4530  142.3160 C   0  0  0  0  0  3  0  0  0  0  0  0
  188.6550  177.1180  143.7810 C   0  0  0  0  0  0  0  0  0  0  0  0
  183.7520  178.6620  144.2520 C   0  0  0  0  0  0  0  0  0  0  0  0
  182.3410  178.7780  140.3240 C   0  0  0  0  0  3  0  0  0  0  0  0
  185.9550  177.8120  143.4060 C   0  0  0  0  0  0  0  0  0  0  0  0
  181.9770  179.1520  142.6830 C   0  0  0  0  0  0  0  0  0  0  0  0
  184.0760  178.3050  141.9020 N   0  0  0  0  0  0  0  0  0  0  0  0
  182.8170  178.7370  141.6360 C   0  0  0  0  0  0  0  0  0  0  0  0
  185.6430  178.1720  145.8980 C   0  0  2  0  0  0  0  0  0  0  0  0
  180.2480  179.6220  141.0760 C   0  0  0  0  0  0  0  0  0  0  0  0
  185.8660  177.5000  147.2420 C   0  0  0  0  0  1  0  0  0  0  0  0
  182.4530  179.1080  143.9920 C   0  0  0  0  0  3  0  0  0  0  0  0
  184.1930  178.5910  145.6870 C   0  0  1  0  0  3  0  0  0  0  0  0
  178.9340  180.0730  140.7710 N   0  0  0  0  0  1  0  0  0  0  0  0
  184.5660  178.2520  143.1750 C   0  0  0  0  0  0  0  0  0  0  0  0
  185.2670  179.6350  145.9800 C   0  0  0  0  0  2  0  0  0  0  0  0
  188.4320  177.5190  146.1120 F   0  0  0  0  0  0  0  0  0  0  0  0
  187.8630  177.4790  144.8800 C   0  0  0  0  0  0  0  0  0  0  0  0
  190.0350  176.7770  143.9910 N   0  0  0  0  0  2  0  0  0  0  0  0
  192.0210  177.4910  142.7570 C   0  0  0  0  0  1  0  0  0  0  0  0
  191.1680  177.7010  143.9980 C   0  0  0  0  0  0  0  0  0  0  0  0
  190.6720  179.1370  144.0480 C   0  0  0  0  0  1  0  0  0  0  0  0
  192.0080  177.4190  145.2360 C   0  0  0  0  0  2  0  0  0  0  0  0
  191.4470  176.4100  146.0040 F   0  0  0  0  0  0  0  0  0  0  0  0
  1 22  1  0  0  0  0
  1 13  1  0  0  0  0
  2  6  1  0  0  0  0
  3  8  2  0  0  0  0
  3 14  1  0  0  0  0
  4 10  1  0  0  0  0
  5  2  2  0  0  0  0
  5  9  1  0  0  0  0
  6 23  1  0  0  0  0
  6 22  2  0  0  0  0
  7 17  1  0  0  0  0
  8 12  1  0  0  0  0
  9  1  2  0  0  0  0
 10 16  2  0  0  0  0
 11 19  1  0  0  0  0
 12 11  2  0  0  0  0
 12 10  1  0  0  0  0
 13 20  1  0  0  0  0
 13 15  1  1  0  0  0
 14  4  2  0  0  0  0
 16  7  1  0  0  0  0
 17 13  1  0  0  0  0
 17 20  1  6  0  0  0
 18 14  1  0  0  0  0
 19  9  1  0  0  0  0
 19  7  2  0  0  0  0
 22 21  1  0  0  0  0
 23 25  1  0  0  0  0
 24 25  1  0  0  0  0
 25 26  1  0  0  0  0
 25 27  1  0  0  0  0
 27 28  1  0  0  0  0
M  END
>  <MODEL>
6

>  <REMARK>
 VINA RESULT:      -8.2      3.117      7.850
  Name = 
  3 active torsions:
  status: ('A' for Active; 'I' for Inactive)
    1  A    between atoms: N_3  and  C_7
    2  A    between atoms: N_3  and  C_11
    3  A    between atoms: C_11  and  C_21
                            x       y       z     vdW  Elec       q    Type
                         _______ _______ _______ _____ _____    ______ ____

>  <TORSDO>
F 3

$$$$
=
 OpenBabel10222416533D

 28 32  0  0  1  0  0  0  0  0999 V2000
  184.8260  178.5830  142.6450 C   0  0  0  0  0  0  0  0  0  0  0  0
  182.9600  179.0000  144.7020 C   0  0  0  0  0  3  0  0  0  0  0  0
  189.7480  176.9380  147.7390 N   0  0  0  0  0  0  0  0  0  0  0  0
  190.4560  176.9210  145.4530 C   0  0  0  0  0  3  0  0  0  0  0  0
  184.2440  178.5520  145.0040 C   0  0  0  0  0  3  0  0  0  0  0  0
  182.5990  179.2680  143.3770 C   0  0  0  0  0  0  0  0  0  0  0  0
  187.5400  177.7760  143.3420 C   0  0  0  0  0  0  0  0  0  0  0  0
  188.4780  177.2700  147.3790 C   0  0  0  0  0  3  0  0  0  0  0  0
  185.1850  178.3480  143.9890 C   0  0  0  0  0  0  0  0  0  0  0  0
  189.1620  177.2630  145.0620 C   0  0  0  0  0  0  0  0  0  0  0  0
  186.8990  177.7750  145.6530 N   0  0  0  0  0  0  0  0  0  0  0  0
  188.1600  177.4400  146.0310 C   0  0  0  0  0  0  0  0  0  0  0  0
  185.8280  178.3510  141.5350 C   0  0  2  0  0  0  0  0  0  0  0  0
  190.7320  176.7610  146.8150 C   0  0  0  0  0  0  0  0  0  0  0  0
  185.3660  177.8570  140.1760 C   0  0  0  0  0  1  0  0  0  0  0  0
  188.8420  177.4300  143.7160 C   0  0  0  0  0  3  0  0  0  0  0  0
  187.2420  177.8960  141.8740 C   0  0  1  0  0  3  0  0  0  0  0  0
  192.0450  176.4120  147.2350 N   0  0  0  0  0  1  0  0  0  0  0  0
  186.5600  177.9450  144.3420 C   0  0  0  0  0  0  0  0  0  0  0  0
  186.9670  179.3470  141.4890 C   0  0  0  0  0  2  0  0  0  0  0  0
  183.1790  179.3640  141.0760 F   0  0  0  0  0  0  0  0  0  0  0  0
  183.5340  179.0710  142.3530 C   0  0  0  0  0  0  0  0  0  0  0  0
  181.2860  179.7490  143.0460 N   0  0  0  0  0  2  0  0  0  0  0  0
  180.2170  177.8030  144.0720 C   0  0  0  0  0  1  0  0  0  0  0  0
  180.0330  179.0020  143.1560 C   0  0  0  0  0  0  0  0  0  0  0  0
  178.9330  179.9030  143.6960 C   0  0  0  0  0  1  0  0  0  0  0  0
  179.6430  178.5150  141.7670 C   0  0  0  0  0  2  0  0  0  0  0  0
  180.6610  177.7700  141.1920 F   0  0  0  0  0  0  0  0  0  0  0  0
  1  9  1  0  0  0  0
  2  5  1  0  0  0  0
  4 14  1  0  0  0  0
  6  2  2  0  0  0  0
  7 16  2  0  0  0  0
  7 19  1  0  0  0  0
  8  3  1  0  0  0  0
  9 19  1  0  0  0  0
  9  5  2  0  0  0  0
 10  4  2  0  0  0  0
 10 12  1  0  0  0  0
 11 12  1  0  0  0  0
 12  8  2  0  0  0  0
 13 15  1  6  0  0  0
 13 17  1  0  0  0  0
 13  1  1  0  0  0  0
 14 18  1  0  0  0  0
 14  3  2  0  0  0  0
 16 10  1  0  0  0  0
 17 20  1  1  0  0  0
 17  7  1  0  0  0  0
 19 11  2  0  0  0  0
 20 13  1  0  0  0  0
 21 22  1  0  0  0  0
 22  1  2  0  0  0  0
 22  6  1  0  0  0  0
 23 25  1  0  0  0  0
 23  6  1  0  0  0  0
 25 26  1  0  0  0  0
 25 24  1  0  0  0  0
 27 25  1  0  0  0  0
 28 27  1  0  0  0  0
M  END
>  <MODEL>
7

>  <REMARK>
 VINA RESULT:      -7.9      2.455      3.928
  Name = 
  3 active torsions:
  status: ('A' for Active; 'I' for Inactive)
    1  A    between atoms: N_3  and  C_7
    2  A    between atoms: N_3  and  C_11
    3  A    between atoms: C_11  and  C_21
                            x       y       z     vdW  Elec       q    Type
                         _______ _______ _______ _____ _____    ______ ____

>  <TORSDO>
F 3

$$$$
=
 OpenBabel10222416533D

 28 32  0  0  1  0  0  0  0  0999 V2000
  190.4770  177.1840  141.8550 C   0  0  0  0  0  0  0  0  0  0  0  0
  190.1550  177.4000  139.0730 C   0  0  0  0  0  3  0  0  0  0  0  0
  183.4330  178.8360  142.5810 N   0  0  0  0  0  0  0  0  0  0  0  0
  184.7120  178.4920  144.5740 C   0  0  0  0  0  3  0  0  0  0  0  0
  189.0560  177.5500  139.9170 C   0  0  0  0  0  3  0  0  0  0  0  0
  191.4280  177.1660  139.6040 C   0  0  0  0  0  0  0  0  0  0  0  0
  188.1740  177.6410  143.5840 C   0  0  0  0  0  0  0  0  0  0  0  0
  184.5160  178.5740  141.8000 C   0  0  0  0  0  3  0  0  0  0  0  0
  189.2060  177.4530  141.3050 C   0  0  0  0  0  0  0  0  0  0  0  0
  185.8350  178.2220  143.7920 C   0  0  0  0  0  0  0  0  0  0  0  0
  186.8320  177.9990  141.6270 N   0  0  0  0  0  0  0  0  0  0  0  0
  185.7400  178.2600  142.3910 C   0  0  0  0  0  0  0  0  0  0  0  0
  190.6510  177.0600  143.3530 C   0  0  2  0  0  0  0  0  0  0  0  0
  183.5040  178.8020  143.9400 C   0  0  0  0  0  0  0  0  0  0  0  0
  191.6750  176.0970  143.9290 C   0  0  0  0  0  1  0  0  0  0  0  0
  187.0570  177.9070  144.3820 C   0  0  0  0  0  3  0  0  0  0  0  0
  189.4530  177.2600  144.2740 C   0  0  1  0  0  3  0  0  0  0  0  0
  182.3470  179.0810  144.7180 N   0  0  0  0  0  1  0  0  0  0  0  0
  188.0410  177.6890  142.1800 C   0  0  0  0  0  0  0  0  0  0  0  0
  190.5040  178.3560  144.1190 C   0  0  0  0  0  2  0  0  0  0  0  0
  192.8350  176.8720  141.4960 F   0  0  0  0  0  0  0  0  0  0  0  0
  191.5890  177.0700  140.9930 C   0  0  0  0  0  0  0  0  0  0  0  0
  192.5760  177.0260  138.7530 N   0  0  0  0  0  2  0  0  0  0  0  0
  194.2050  175.2530  138.3270 C   0  0  0  0  0  1  0  0  0  0  0  0
  192.8910  175.8830  137.8960 C   0  0  0  0  0  0  0  0  0  0  0  0
  191.7750  174.8530  137.9680 C   0  0  0  0  0  1  0  0  0  0  0  0
  193.0200  176.3810  136.4630 C   0  0  0  0  0  2  0  0  0  0  0  0
  194.3230  176.7570  136.1780 F   0  0  0  0  0  0  0  0  0  0  0  0
  1 13  1  0  0  0  0
  2  6  2  0  0  0  0
  2  5  1  0  0  0  0
  3 14  1  0  0  0  0
  5  9  2  0  0  0  0
  6 22  1  0  0  0  0
  7 17  1  0  0  0  0
  7 16  1  0  0  0  0
  8 12  1  0  0  0  0
  8  3  2  0  0  0  0
  9  1  1  0  0  0  0
  9 19  1  0  0  0  0
 10 16  2  0  0  0  0
 10  4  1  0  0  0  0
 11 19  1  0  0  0  0
 11 12  2  0  0  0  0
 12 10  1  0  0  0  0
 13 15  1  1  0  0  0
 13 20  1  0  0  0  0
 13 17  1  0  0  0  0
 14  4  2  0  0  0  0
 14 18  1  0  0  0  0
 17 20  1  1  0  0  0
 19  7  2  0  0  0  0
 22 21  1  0  0  0  0
 22  1  2  0  0  0  0
 23  6  1  0  0  0  0
 25 26  1  0  0  0  0
 25 24  1  0  0  0  0
 25 23  1  0  0  0  0
 27 25  1  0  0  0  0
 28 27  1  0  0  0  0
M  END
>  <MODEL>
8

>  <REMARK>
 VINA RESULT:      -7.9      4.272      7.012
  Name = 
  3 active torsions:
  status: ('A' for Active; 'I' for Inactive)
    1  A    between atoms: N_3  and  C_7
    2  A    between atoms: N_3  and  C_11
    3  A    between atoms: C_11  and  C_21
                            x       y       z     vdW  Elec       q    Type
                         _______ _______ _______ _____ _____    ______ ____

>  <TORSDO>
F 3

$$$$
=
 OpenBabel10222416533D

 28 32  0  0  1  0  0  0  0  0999 V2000
  186.1560  178.4690  139.9360 C   0  0  0  0  0  0  0  0  0  0  0  0
  188.6950  178.0260  138.8210 C   0  0  0  0  0  3  0  0  0  0  0  0
  189.0990  177.4520  146.5070 N   0  0  0  0  0  0  0  0  0  0  0  0
  186.7470  177.8750  146.3880 C   0  0  0  0  0  3  0  0  0  0  0  0
  188.5330  178.0410  140.2050 C   0  0  0  0  0  3  0  0  0  0  0  0
  187.5940  178.2070  137.9780 C   0  0  0  0  0  0  0  0  0  0  0  0
  185.8440  178.3560  142.8320 C   0  0  0  0  0  0  0  0  0  0  0  0
  189.2200  177.5560  145.1550 C   0  0  0  0  0  3  0  0  0  0  0  0
  187.2710  178.2530  140.7720 C   0  0  0  0  0  0  0  0  0  0  0  0
  186.8480  177.9830  145.0010 C   0  0  0  0  0  0  0  0  0  0  0  0
  188.1970  177.9270  143.0240 N   0  0  0  0  0  0  0  0  0  0  0  0
  188.0950  177.8240  144.3740 C   0  0  0  0  0  0  0  0  0  0  0  0
  184.7880  178.7160  140.5350 C   0  0  2  0  0  0  0  0  0  0  0  0
  187.9000  177.6050  147.1330 C   0  0  0  0  0  0  0  0  0  0  0  0
  183.8040  179.6430  139.8430 C   0  0  0  0  0  1  0  0  0  0  0  0
  185.7250  178.2530  144.2220 C   0  0  0  0  0  3  0  0  0  0  0  0
  184.6080  178.6960  142.0470 C   0  0  1  0  0  3  0  0  0  0  0  0
  187.8190  177.4900  148.5480 N   0  0  0  0  0  1  0  0  0  0  0  0
  187.1120  178.1900  142.2380 C   0  0  0  0  0  0  0  0  0  0  0  0
  184.1580  177.5100  141.1980 C   0  0  0  0  0  2  0  0  0  0  0  0
  185.2600  178.5600  137.7050 F   0  0  0  0  0  0  0  0  0  0  0  0
  186.3250  178.4160  138.5350 C   0  0  0  0  0  0  0  0  0  0  0  0
  187.7370  178.1760  136.5490 N   0  0  0  0  0  2  0  0  0  0  0  0
  187.3140  175.7680  136.5220 C   0  0  0  0  0  1  0  0  0  0  0  0
  187.6610  176.9930  135.6920 C   0  0  0  0  0  0  0  0  0  0  0  0
  186.6130  177.1980  134.6090 C   0  0  0  0  0  1  0  0  0  0  0  0
  189.0200  176.7870  135.0400 C   0  0  0  0  0  2  0  0  0  0  0  0
  190.0500  177.0410  135.9330 F   0  0  0  0  0  0  0  0  0  0  0  0
  1 13  1  0  0  0  0
  1  9  1  0  0  0  0
  2  5  1  0  0  0  0
  3 14  1  0  0  0  0
  4 14  2  0  0  0  0
  5  9  2  0  0  0  0
  6 22  1  0  0  0  0
  6  2  2  0  0  0  0
  7 16  1  0  0  0  0
  8  3  2  0  0  0  0
  9 19  1  0  0  0  0
 10  4  1  0  0  0  0
 11 12  2  0  0  0  0
 12 10  1  0  0  0  0
 12  8  1  0  0  0  0
 13 15  1  6  0  0  0
 13 20  1  0  0  0  0
 13 17  1  0  0  0  0
 14 18  1  0  0  0  0
 16 10  2  0  0  0  0
 17 20  1  6  0  0  0
 17  7  1  0  0  0  0
 19  7  2  0  0  0  0
 19 11  1  0  0  0  0
 21 22  1  0  0  0  0
 22  1  2  0  0  0  0
 23  6  1  0  0  0  0
 25 24  1  0  0  0  0
 25 23  1  0  0  0  0
 26 25  1  0  0  0  0
 27 25  1  0  0  0  0
 27 28  1  0  0  0  0
M  END
>  <MODEL>
9

>  <REMARK>
 VINA RESULT:      -7.8      2.478      3.795
  Name = 
  3 active torsions:
  status: ('A' for Active; 'I' for Inactive)
    1  A    between atoms: N_3  and  C_7
    2  A    between atoms: N_3  and  C_11
    3  A    between atoms: C_11  and  C_21
                            x       y       z     vdW  Elec       q    Type
                         _______ _______ _______ _____ _____    ______ ____

>  <TORSDO>
F 3

$$$$
