=
 OpenBabel10222416043D

 32 37  0  0  1  0  0  0  0  0999 V2000
  186.4890  178.2610  144.9710 C   0  0  0  0  0  0  0  0  0  0  0  0
  185.2160  178.4990  142.9230 C   0  0  0  0  0  0  0  0  0  0  0  0
  186.4920  178.2670  146.3720 C   0  0  0  0  0  3  0  0  0  0  0  0
  185.2660  178.4860  144.2800 C   0  0  0  0  0  0  0  0  0  0  0  0
  184.0080  178.7250  142.2150 C   0  0  0  0  0  0  0  0  0  0  0  0
  187.5700  178.6950  138.6920 N   0  0  0  0  0  2  0  0  0  0  0  0
  186.4010  178.2870  142.1930 C   0  0  2  0  0  3  0  0  0  0  0  0
  185.1210  178.6700  138.6350 C   0  0  0  0  0  2  0  0  0  0  0  0
  185.1700  178.5510  140.1320 C   0  0  0  0  0  0  0  0  0  0  0  0
  184.0970  178.7050  145.0350 C   0  0  0  0  0  0  0  0  0  0  0  0
  184.0330  178.7410  140.8510 N   0  0  0  0  0  0  0  0  0  0  0  0
  182.7740  178.9370  144.3710 C   0  0  0  0  0  3  0  0  0  0  0  0
  184.1510  178.7100  146.3940 N   0  0  0  0  0  0  0  0  0  0  0  0
  187.5940  178.0410  142.8820 O   0  0  0  0  0  0  0  0  0  0  0  0
  187.6270  178.0410  144.2800 C   0  0  0  0  0  0  0  0  0  0  0  0
  186.3870  178.3290  140.7960 C   0  0  0  0  0  0  0  0  0  0  0  0
  182.8430  178.9380  142.8640 C   0  0  0  0  0  0  0  0  0  0  0  0
  185.3090  178.4970  147.0680 C   0  0  0  0  0  3  0  0  0  0  0  0
  186.4090  178.1620  137.9850 C   0  0  0  0  0  2  0  0  0  0  0  0
  187.6380  178.0560  140.0050 C   0  0  0  0  0  2  0  0  0  0  0  0
  191.1510  176.5700  144.4790 C   0  0  0  0  0  0  0  0  0  0  0  0
  191.6900  177.1310  148.1230 O   0  0  0  0  0  1  0  0  0  0  0  0
  191.4970  175.5960  143.8320 O   0  0  0  0  0  0  0  0  0  0  0  0
  189.7030  176.5420  146.9760 C   0  0  0  0  0  3  0  0  0  0  0  0
  188.9340  177.7770  144.9690 C   0  0  1  0  0  3  0  0  0  0  0  0
  191.8900  176.8840  145.7560 C   0  0  0  0  0  2  0  0  0  0  0  0
  188.7490  176.7560  146.0620 C   0  0  0  0  0  3  0  0  0  0  0  0
  190.0310  177.4300  143.9480 C   0  0  1  0  0  3  0  0  0  0  0  0
  190.6960  178.9230  143.2440 Cl  0  0  0  0  0  0  0  0  0  0  0  0
  190.9970  177.3040  146.9270 C   0  0  2  0  0  3  0  0  0  0  0  0
  181.5880  179.2080  142.0770 C   0  0  0  0  0  2  0  0  0  0  0  0
  180.7080  180.0300  142.7820 O   0  0  0  0  0  1  0  0  0  0  0  0
  1  3  1  0  0  0  0
  2  4  2  0  0  0  0
  3 18  2  0  0  0  0
  4  1  1  0  0  0  0
  4 10  1  0  0  0  0
  5 17  1  0  0  0  0
  5  2  1  0  0  0  0
  6 20  1  0  0  0  0
  7 16  1  1  0  0  0
  7 14  1  0  0  0  0
  7  2  1  0  0  0  0
  8  9  1  0  0  0  0
  9 16  2  0  0  0  0
  9 11  1  0  0  0  0
 10 13  2  0  0  0  0
 11  5  2  0  0  0  0
 12 10  1  0  0  0  0
 13 18  1  0  0  0  0
 14 15  1  0  0  0  0
 15  1  2  0  0  0  0
 17 12  2  0  0  0  0
 19  8  1  0  0  0  0
 19  6  1  0  0  0  0
 20 16  1  0  0  0  0
 21 26  1  0  0  0  0
 23 21  2  0  0  0  0
 25 15  1  6  0  0  0
 25 27  1  0  0  0  0
 26 30  1  0  0  0  0
 27 24  2  0  0  0  0
 28 29  1  1  0  0  0
 28 21  1  0  0  0  0
 28 25  1  0  0  0  0
 30 24  1  0  0  0  0
 30 22  1  1  0  0  0
 31 32  1  0  0  0  0
 31 17  1  0  0  0  0
M  END
>  <MODEL>
1

>  <REMARK>
 VINA RESULT:     -11.3      0.000      0.000
  Name = 
  2 active torsions:
  status: ('A' for Active; 'I' for Inactive)
    1  A    between atoms: C_13  and  C_29
    2  A    between atoms: C_16  and  C_27
                            x       y       z     vdW  Elec       q    Type
                         _______ _______ _______ _____ _____    ______ ____

>  <TORSDO>
F 2

$$$$
=
 OpenBabel10222416043D

 32 37  0  0  1  0  0  0  0  0999 V2000
  184.2310  178.5590  142.7370 C   0  0  0  0  0  0  0  0  0  0  0  0
  186.4580  178.1140  143.5820 C   0  0  0  0  0  0  0  0  0  0  0  0
  182.8870  178.8320  143.0240 C   0  0  0  0  0  3  0  0  0  0  0  0
  185.1480  178.3900  143.8110 C   0  0  0  0  0  0  0  0  0  0  0  0
  187.3870  177.9380  144.6390 C   0  0  0  0  0  0  0  0  0  0  0  0
  189.9200  176.7210  140.4910 N   0  0  0  0  0  2  0  0  0  0  0  0
  186.9100  177.9930  142.2540 C   0  0  2  0  0  3  0  0  0  0  0  0
  190.5610  177.1080  142.8240 C   0  0  0  0  0  2  0  0  0  0  0  0
  189.1340  177.5140  143.0610 C   0  0  0  0  0  0  0  0  0  0  0  0
  184.6670  178.5070  145.1300 C   0  0  0  0  0  0  0  0  0  0  0  0
  188.6850  177.6460  144.3370 N   0  0  0  0  0  0  0  0  0  0  0  0
  185.5810  178.3510  146.3080 C   0  0  0  0  0  3  0  0  0  0  0  0
  183.3520  178.7650  145.3590 N   0  0  0  0  0  0  0  0  0  0  0  0
  186.0050  178.1860  141.2040 O   0  0  0  0  0  0  0  0  0  0  0  0
  184.6580  178.4610  141.4600 C   0  0  0  0  0  0  0  0  0  0  0  0
  188.2450  177.6750  141.9880 C   0  0  0  0  0  0  0  0  0  0  0  0
  187.0080  178.0390  145.9310 C   0  0  0  0  0  0  0  0  0  0  0  0
  182.4650  178.9290  144.3460 C   0  0  0  0  0  3  0  0  0  0  0  0
  190.9590  177.2730  141.3560 C   0  0  0  0  0  2  0  0  0  0  0  0
  188.7480  177.5920  140.5720 C   0  0  0  0  0  2  0  0  0  0  0  0
  183.3200  177.6220  137.9780 C   0  0  0  0  0  0  0  0  0  0  0  0
  181.1500  180.6240  137.5720 O   0  0  0  0  0  1  0  0  0  0  0  0
  184.0050  177.0960  137.1170 O   0  0  0  0  0  0  0  0  0  0  0  0
  183.2570  180.4320  138.6360 C   0  0  0  0  0  3  0  0  0  0  0  0
  183.7280  178.6540  140.2970 C   0  0  1  0  0  3  0  0  0  0  0  0
  182.1330  178.4480  137.5460 C   0  0  0  0  0  2  0  0  0  0  0  0
  184.0850  179.9130  139.5500 C   0  0  0  0  0  3  0  0  0  0  0  0
  183.6720  177.3880  139.4250 C   0  0  1  0  0  3  0  0  0  0  0  0
  182.5440  176.2120  140.1400 Cl  0  0  0  0  0  0  0  0  0  0  0  0
  181.9520  179.7610  138.3130 C   0  0  2  0  0  3  0  0  0  0  0  0
  188.0180  177.8120  147.0250 C   0  0  0  0  0  2  0  0  0  0  0  0
  187.6620  178.4790  148.1980 O   0  0  0  0  0  1  0  0  0  0  0  0
  1  3  1  0  0  0  0
  1  4  1  0  0  0  0
  2  4  2  0  0  0  0
  2  5  1  0  0  0  0
  3 18  2  0  0  0  0
  4 10  1  0  0  0  0
  5 17  1  0  0  0  0
  6 20  1  0  0  0  0
  6 19  1  0  0  0  0
  7 14  1  1  0  0  0
  7  2  1  0  0  0  0
  8  9  1  0  0  0  0
  9 11  1  0  0  0  0
 10 13  2  0  0  0  0
 10 12  1  0  0  0  0
 11  5  2  0  0  0  0
 14 15  1  0  0  0  0
 15  1  2  0  0  0  0
 16  7  1  0  0  0  0
 16  9  2  0  0  0  0
 17 12  2  0  0  0  0
 17 31  1  0  0  0  0
 18 13  1  0  0  0  0
 19  8  1  0  0  0  0
 20 16  1  0  0  0  0
 21 28  1  0  0  0  0
 23 21  2  0  0  0  0
 24 27  2  0  0  0  0
 25 15  1  1  0  0  0
 26 21  1  0  0  0  0
 26 30  1  0  0  0  0
 27 25  1  0  0  0  0
 28 29  1  1  0  0  0
 28 25  1  0  0  0  0
 30 22  1  6  0  0  0
 30 24  1  0  0  0  0
 31 32  1  0  0  0  0
M  END
>  <MODEL>
2

>  <REMARK>
 VINA RESULT:     -10.4      3.005      7.092
  Name = 
  2 active torsions:
  status: ('A' for Active; 'I' for Inactive)
    1  A    between atoms: C_13  and  C_29
    2  A    between atoms: C_16  and  C_27
                            x       y       z     vdW  Elec       q    Type
                         _______ _______ _______ _____ _____    ______ ____

>  <TORSDO>
F 2

$$$$
=
 OpenBabel10222416043D

 32 37  0  0  1  0  0  0  0  0999 V2000
  184.9540  178.3310  143.5470 C   0  0  0  0  0  0  0  0  0  0  0  0
  187.2460  177.9720  144.2460 C   0  0  0  0  0  0  0  0  0  0  0  0
  183.6280  178.5870  143.9180 C   0  0  0  0  0  3  0  0  0  0  0  0
  185.9500  178.2290  144.5580 C   0  0  0  0  0  0  0  0  0  0  0  0
  188.2530  177.8630  145.2390 C   0  0  0  0  0  0  0  0  0  0  0  0
  190.5110  176.5160  140.9750 N   0  0  0  0  0  2  0  0  0  0  0  0
  187.6040  177.8010  142.8950 C   0  0  2  0  0  3  0  0  0  0  0  0
  191.3080  177.0210  143.2350 C   0  0  0  0  0  2  0  0  0  0  0  0
  189.8920  177.4060  143.5590 C   0  0  0  0  0  0  0  0  0  0  0  0
  185.5620  178.3960  145.9020 C   0  0  0  0  0  0  0  0  0  0  0  0
  189.5320  177.5860  144.8570 N   0  0  0  0  0  0  0  0  0  0  0  0
  186.5620  178.3130  147.0160 C   0  0  0  0  0  3  0  0  0  0  0  0
  184.2610  178.6350  146.2150 N   0  0  0  0  0  0  0  0  0  0  0  0
  186.6220  177.9280  141.9070 O   0  0  0  0  0  0  0  0  0  0  0  0
  185.2900  178.1850  142.2480 C   0  0  0  0  0  0  0  0  0  0  0  0
  188.9240  177.5000  142.5470 C   0  0  0  0  0  0  0  0  0  0  0  0
  187.9650  178.0140  146.5500 C   0  0  0  0  0  0  0  0  0  0  0  0
  183.3000  178.7340  145.2620 C   0  0  0  0  0  3  0  0  0  0  0  0
  191.5950  177.1280  141.7370 C   0  0  0  0  0  2  0  0  0  0  0  0
  189.3270  177.3640  141.1030 C   0  0  0  0  0  2  0  0  0  0  0  0
  183.8760  179.7510  139.0590 C   0  0  0  0  0  0  0  0  0  0  0  0
  180.5300  178.1150  139.1760 O   0  0  0  0  0  1  0  0  0  0  0  0
  184.1150  180.8990  138.7260 O   0  0  0  0  0  0  0  0  0  0  0  0
  181.8770  178.8990  140.9600 C   0  0  0  0  0  3  0  0  0  0  0  0
  184.2760  178.3060  141.1490 C   0  0  1  0  0  3  0  0  0  0  0  0
  182.6120  179.1040  138.5500 C   0  0  0  0  0  2  0  0  0  0  0  0
  183.0050  178.9200  141.6780 C   0  0  0  0  0  3  0  0  0  0  0  0
  184.8740  179.0280  139.9280 C   0  0  1  0  0  3  0  0  0  0  0  0
  185.8120  177.8780  138.9460 Cl  0  0  0  0  0  0  0  0  0  0  0  0
  181.8490  178.2800  139.5910 C   0  0  2  0  0  3  0  0  0  0  0  0
  189.0560  177.8580  147.5760 C   0  0  0  0  0  2  0  0  0  0  0  0
  188.6250  178.2450  148.8460 O   0  0  0  0  0  1  0  0  0  0  0  0
  1  3  1  0  0  0  0
  1  4  1  0  0  0  0
  2  4  2  0  0  0  0
  2  5  1  0  0  0  0
  3 18  2  0  0  0  0
  4 10  1  0  0  0  0
  5 17  1  0  0  0  0
  6 20  1  0  0  0  0
  6 19  1  0  0  0  0
  7 14  1  1  0  0  0
  7  2  1  0  0  0  0
  8  9  1  0  0  0  0
  9 11  1  0  0  0  0
 10 13  2  0  0  0  0
 10 12  1  0  0  0  0
 11  5  2  0  0  0  0
 14 15  1  0  0  0  0
 15  1  2  0  0  0  0
 16  7  1  0  0  0  0
 16  9  2  0  0  0  0
 17 12  2  0  0  0  0
 17 31  1  0  0  0  0
 18 13  1  0  0  0  0
 19  8  1  0  0  0  0
 20 16  1  0  0  0  0
 21 28  1  0  0  0  0
 23 21  2  0  0  0  0
 24 27  2  0  0  0  0
 25 27  1  0  0  0  0
 25 15  1  1  0  0  0
 26 21  1  0  0  0  0
 26 30  1  0  0  0  0
 28 29  1  6  0  0  0
 28 25  1  0  0  0  0
 30 22  1  6  0  0  0
 30 24  1  0  0  0  0
 31 32  1  0  0  0  0
M  END
>  <MODEL>
3

>  <REMARK>
 VINA RESULT:     -10.2      2.522      6.901
  Name = 
  2 active torsions:
  status: ('A' for Active; 'I' for Inactive)
    1  A    between atoms: C_13  and  C_29
    2  A    between atoms: C_16  and  C_27
                            x       y       z     vdW  Elec       q    Type
                         _______ _______ _______ _____ _____    ______ ____

>  <TORSDO>
F 2

$$$$
=
 OpenBabel10222416043D

 32 37  0  0  1  0  0  0  0  0999 V2000
  187.7620  178.1610  141.0380 C   0  0  0  0  0  0  0  0  0  0  0  0
  188.8050  177.6350  138.9150 C   0  0  0  0  0  0  0  0  0  0  0  0
  186.6300  178.6280  141.7180 C   0  0  0  0  0  3  0  0  0  0  0  0
  187.7290  178.0720  139.6180 C   0  0  0  0  0  0  0  0  0  0  0  0
  188.7940  177.5430  137.5000 C   0  0  0  0  0  0  0  0  0  0  0  0
  193.5300  176.5670  138.8090 N   0  0  0  0  0  2  0  0  0  0  0  0
  189.9730  177.2650  139.6100 C   0  0  0  0  0  0  0  0  0  0  0  0
  192.2710  176.3780  136.7160 C   0  0  0  0  0  2  0  0  0  0  0  0
  191.0550  176.7620  137.5110 C   0  0  0  0  0  0  0  0  0  0  0  0
  186.5510  178.4570  138.9470 C   0  0  0  0  0  0  0  0  0  0  0  0
  189.9160  177.1110  136.8560 N   0  0  0  0  0  0  0  0  0  0  0  0
  186.4450  178.3780  137.4550 C   0  0  0  0  0  2  0  0  0  0  0  0
  185.4810  178.9120  139.6510 N   0  0  0  0  0  0  0  0  0  0  0  0
  189.9860  177.3320  141.0070 O   0  0  0  0  0  0  0  0  0  0  0  0
  188.8700  177.7930  141.7140 C   0  0  0  0  0  0  0  0  0  0  0  0
  191.1070  176.8440  138.9110 C   0  0  0  0  0  0  0  0  0  0  0  0
  187.7030  177.8880  136.7820 C   0  0  0  0  0  0  0  0  0  0  0  0
  185.4960  179.0030  141.0040 C   0  0  0  0  0  3  0  0  0  0  0  0
  193.3550  175.7630  137.6030 C   0  0  0  0  0  2  0  0  0  0  0  0
  192.3440  176.4010  139.6460 C   0  0  0  0  0  2  0  0  0  0  0  0
  190.5900  177.2170  145.0800 C   0  0  0  0  0  0  0  0  0  0  0  0
  187.6250  177.8720  147.2410 O   0  0  0  0  0  1  0  0  0  0  0  0
  191.4390  176.3590  145.2490 O   0  0  0  0  0  0  0  0  0  0  0  0
  187.7300  176.8270  145.1180 C   0  0  0  0  0  3  0  0  0  0  0  0
  188.9390  177.8500  143.2120 C   0  0  1  0  0  3  0  0  0  0  0  0
  189.8020  177.6930  146.2770 C   0  0  0  0  0  2  0  0  0  0  0  0
  188.0330  176.8080  143.8140 C   0  0  0  0  0  3  0  0  0  0  0  0
  190.3990  177.7840  143.6960 C   0  0  1  0  0  3  0  0  0  0  0  0
  191.1430  179.3970  143.5930 Cl  0  0  0  0  0  0  0  0  0  0  0  0
  188.3030  177.8790  146.0250 C   0  0  2  0  0  3  0  0  0  0  0  0
  187.7430  177.8080  135.2790 C   0  0  0  0  0  2  0  0  0  0  0  0
  186.4640  177.8940  134.7270 O   0  0  0  0  0  1  0  0  0  0  0  0
  1 15  2  0  0  0  0
  1  3  1  0  0  0  0
  2  7  1  0  0  0  0
  2  4  2  0  0  0  0
  4  1  1  0  0  0  0
  5  2  1  0  0  0  0
  6 20  1  0  0  0  0
  7 14  1  0  0  0  0
  8  9  1  0  0  0  0
  8 19  1  0  0  0  0
  9 16  1  0  0  0  0
 10  4  1  0  0  0  0
 10 13  2  0  0  0  0
 11  5  1  0  0  0  0
 11  9  2  0  0  0  0
 12 10  1  0  0  0  0
 13 18  1  0  0  0  0
 14 15  1  0  0  0  0
 16  7  2  0  0  0  0
 16 20  1  0  0  0  0
 17 12  1  0  0  0  0
 17  5  2  0  0  0  0
 18  3  2  0  0  0  0
 19  6  1  0  0  0  0
 21 23  2  0  0  0  0
 21 26  1  0  0  0  0
 24 30  1  0  0  0  0
 25 15  1  6  0  0  0
 25 28  1  0  0  0  0
 25 27  1  0  0  0  0
 27 24  2  0  0  0  0
 28 29  1  1  0  0  0
 28 21  1  0  0  0  0
 30 26  1  0  0  0  0
 30 22  1  1  0  0  0
 31 17  1  0  0  0  0
 32 31  1  0  0  0  0
M  END
>  <MODEL>
4

>  <REMARK>
 VINA RESULT:     -10.0      3.251      5.530
  Name = 
  2 active torsions:
  status: ('A' for Active; 'I' for Inactive)
    1  A    between atoms: C_13  and  C_29
    2  A    between atoms: C_16  and  C_27
                            x       y       z     vdW  Elec       q    Type
                         _______ _______ _______ _____ _____    ______ ____

>  <TORSDO>
F 2

$$$$
=
 OpenBabel10222416043D

 32 37  0  0  1  0  0  0  0  0999 V2000
  186.9580  177.8680  144.4430 C   0  0  0  0  0  0  0  0  0  0  0  0
  185.0740  178.4760  143.0470 C   0  0  0  0  0  0  0  0  0  0  0  0
  187.4680  177.6970  145.7370 C   0  0  0  0  0  3  0  0  0  0  0  0
  185.6080  178.2870  144.2800 C   0  0  0  0  0  0  0  0  0  0  0  0
  183.7320  178.8960  142.8630 C   0  0  0  0  0  0  0  0  0  0  0  0
  185.7440  178.9970  138.2760 N   0  0  0  0  0  2  0  0  0  0  0  0
  185.8760  178.2540  141.9120 C   0  0  2  0  0  3  0  0  0  0  0  0
  183.4580  179.1960  139.1350 C   0  0  0  0  0  2  0  0  0  0  0  0
  184.0300  178.8850  140.4900 C   0  0  0  0  0  0  0  0  0  0  0  0
  184.8300  178.5100  145.4340 C   0  0  0  0  0  0  0  0  0  0  0  0
  183.2650  179.0830  141.5950 N   0  0  0  0  0  0  0  0  0  0  0  0
  183.3980  178.9410  145.3340 C   0  0  0  0  0  3  0  0  0  0  0  0
  185.3710  178.3380  146.6690 N   0  0  0  0  0  0  0  0  0  0  0  0
  187.1950  177.8180  142.0820 O   0  0  0  0  0  0  0  0  0  0  0  0
  187.7310  177.6370  143.3610 C   0  0  0  0  0  0  0  0  0  0  0  0
  185.3640  178.4740  140.6300 C   0  0  0  0  0  0  0  0  0  0  0  0
  182.9180  179.1270  143.9160 C   0  0  0  0  0  0  0  0  0  0  0  0
  186.6570  177.9400  146.8410 C   0  0  0  0  0  3  0  0  0  0  0  0
  184.3480  178.6640  138.0110 C   0  0  0  0  0  2  0  0  0  0  0  0
  186.1990  178.1930  139.4090 C   0  0  0  0  0  2  0  0  0  0  0  0
  191.4160  177.5960  142.3410 C   0  0  0  0  0  0  0  0  0  0  0  0
  192.4280  174.6270  144.3540 O   0  0  0  0  0  1  0  0  0  0  0  0
  191.7920  177.8760  141.2160 O   0  0  0  0  0  0  0  0  0  0  0  0
  190.3910  175.0440  143.2190 C   0  0  0  0  0  3  0  0  0  0  0  0
  189.1530  177.1740  143.4880 C   0  0  1  0  0  3  0  0  0  0  0  0
  192.2930  176.7090  143.1920 C   0  0  0  0  0  2  0  0  0  0  0  0
  189.2870  175.7610  142.9810 C   0  0  0  0  0  3  0  0  0  0  0  0
  190.1170  178.1810  142.8360 C   0  0  1  0  0  3  0  0  0  0  0  0
  190.4450  179.5190  143.9630 Cl  0  0  0  0  0  0  0  0  0  0  0  0
  191.5410  175.6350  143.9840 C   0  0  2  0  0  3  0  0  0  0  0  0
  181.5100  179.6050  143.6800 C   0  0  0  0  0  2  0  0  0  0  0  0
  180.6180  178.5370  143.5690 O   0  0  0  0  0  1  0  0  0  0  0  0
  1  3  1  0  0  0  0
  2  4  2  0  0  0  0
  3 18  2  0  0  0  0
  4  1  1  0  0  0  0
  4 10  1  0  0  0  0
  5  2  1  0  0  0  0
  5 17  1  0  0  0  0
  6 20  1  0  0  0  0
  7 16  1  1  0  0  0
  7 14  1  0  0  0  0
  7  2  1  0  0  0  0
  8  9  1  0  0  0  0
  9 16  2  0  0  0  0
  9 11  1  0  0  0  0
 10 13  2  0  0  0  0
 11  5  2  0  0  0  0
 12 10  1  0  0  0  0
 13 18  1  0  0  0  0
 14 15  1  0  0  0  0
 15  1  2  0  0  0  0
 17 12  2  0  0  0  0
 19  6  1  0  0  0  0
 19  8  1  0  0  0  0
 20 16  1  0  0  0  0
 21 28  1  0  0  0  0
 21 26  1  0  0  0  0
 23 21  2  0  0  0  0
 24 30  1  0  0  0  0
 25 15  1  6  0  0  0
 26 30  1  0  0  0  0
 27 24  2  0  0  0  0
 27 25  1  0  0  0  0
 28 25  1  0  0  0  0
 28 29  1  1  0  0  0
 30 22  1  6  0  0  0
 31 17  1  0  0  0  0
 32 31  1  0  0  0  0
M  END
>  <MODEL>
5

>  <REMARK>
 VINA RESULT:      -9.8      1.604      1.984
  Name = 
  2 active torsions:
  status: ('A' for Active; 'I' for Inactive)
    1  A    between atoms: C_13  and  C_29
    2  A    between atoms: C_16  and  C_27
                            x       y       z     vdW  Elec       q    Type
                         _______ _______ _______ _____ _____    ______ ____

>  <TORSDO>
F 2

$$$$
=
 OpenBabel10222416043D

 32 37  0  0  1  0  0  0  0  0999 V2000
  186.5100  178.3160  143.9130 C   0  0  0  0  0  0  0  0  0  0  0  0
  185.8760  178.4550  141.5780 C   0  0  0  0  0  0  0  0  0  0  0  0
  186.1090  178.3660  145.2540 C   0  0  0  0  0  3  0  0  0  0  0  0
  185.5340  178.4850  142.8920 C   0  0  0  0  0  0  0  0  0  0  0  0
  184.9190  178.6250  140.5460 C   0  0  0  0  0  0  0  0  0  0  0  0
  189.3440  178.5850  138.1960 N   0  0  0  0  0  2  0  0  0  0  0  0
  187.2250  178.2530  141.2270 C   0  0  0  0  0  0  0  0  0  0  0  0
  187.0160  178.4900  137.4400 C   0  0  0  0  0  2  0  0  0  0  0  0
  186.6340  178.4190  138.8920 C   0  0  0  0  0  0  0  0  0  0  0  0
  184.1930  178.6940  143.2710 C   0  0  0  0  0  0  0  0  0  0  0  0
  185.3350  178.6000  139.2470 N   0  0  0  0  0  0  0  0  0  0  0  0
  183.1130  178.8680  142.2470 C   0  0  0  0  0  2  0  0  0  0  0  0
  183.8530  178.7430  144.5870 N   0  0  0  0  0  0  0  0  0  0  0  0
  188.1730  178.0630  142.2390 O   0  0  0  0  0  0  0  0  0  0  0  0
  187.8020  178.1070  143.5860 C   0  0  0  0  0  0  0  0  0  0  0  0
  187.6120  178.2520  139.8840 C   0  0  0  0  0  0  0  0  0  0  0  0
  183.6130  178.8250  140.8250 C   0  0  0  0  0  0  0  0  0  0  0  0
  184.7720  178.5840  145.5720 C   0  0  0  0  0  3  0  0  0  0  0  0
  188.4450  177.9990  137.2070 C   0  0  0  0  0  2  0  0  0  0  0  0
  189.0430  177.9890  139.4970 C   0  0  0  0  0  2  0  0  0  0  0  0
  191.1440  176.7400  144.8440 C   0  0  0  0  0  0  0  0  0  0  0  0
  190.6030  177.4330  148.4660 O   0  0  0  0  0  1  0  0  0  0  0  0
  191.6780  175.7550  144.3630 O   0  0  0  0  0  0  0  0  0  0  0  0
  189.0400  176.7540  146.8210 C   0  0  0  0  0  3  0  0  0  0  0  0
  188.8600  177.9020  144.6310 C   0  0  1  0  0  3  0  0  0  0  0  0
  191.4800  177.1150  146.2670 C   0  0  0  0  0  2  0  0  0  0  0  0
  188.3860  176.9110  145.6640 C   0  0  0  0  0  3  0  0  0  0  0  0
  190.2100  177.5510  143.9820 C   0  0  1  0  0  3  0  0  0  0  0  0
  191.0240  179.0380  143.4400 Cl  0  0  0  0  0  0  0  0  0  0  0  0
  190.2810  177.5480  147.1160 C   0  0  2  0  0  3  0  0  0  0  0  0
  182.6330  179.0350  139.7010 C   0  0  0  0  0  2  0  0  0  0  0  0
  181.3420  179.2610  140.1810 O   0  0  0  0  0  1  0  0  0  0  0  0
  1  3  1  0  0  0  0
  2  4  2  0  0  0  0
  3 18  2  0  0  0  0
  4 10  1  0  0  0  0
  4  1  1  0  0  0  0
  5 17  2  0  0  0  0
  5  2  1  0  0  0  0
  6 20  1  0  0  0  0
  7  2  1  0  0  0  0
  7 14  1  0  0  0  0
  8  9  1  0  0  0  0
  9 11  2  0  0  0  0
  9 16  1  0  0  0  0
 10 13  2  0  0  0  0
 11  5  1  0  0  0  0
 12 10  1  0  0  0  0
 13 18  1  0  0  0  0
 14 15  1  0  0  0  0
 15  1  2  0  0  0  0
 16  7  2  0  0  0  0
 17 12  1  0  0  0  0
 19  8  1  0  0  0  0
 19  6  1  0  0  0  0
 20 16  1  0  0  0  0
 21 26  1  0  0  0  0
 23 21  2  0  0  0  0
 24 30  1  0  0  0  0
 25 15  1  6  0  0  0
 25 27  1  0  0  0  0
 26 30  1  0  0  0  0
 27 24  2  0  0  0  0
 28 29  1  1  0  0  0
 28 25  1  0  0  0  0
 28 21  1  0  0  0  0
 30 22  1  1  0  0  0
 31 32  1  0  0  0  0
 31 17  1  0  0  0  0
M  END
>  <MODEL>
6

>  <REMARK>
 VINA RESULT:      -9.6      1.218      1.543
  Name = 
  2 active torsions:
  status: ('A' for Active; 'I' for Inactive)
    1  A    between atoms: C_13  and  C_29
    2  A    between atoms: C_16  and  C_27
                            x       y       z     vdW  Elec       q    Type
                         _______ _______ _______ _____ _____    ______ ____

>  <TORSDO>
F 2

$$$$
=
 OpenBabel10222416043D

 32 37  0  0  1  0  0  0  0  0999 V2000
  185.6570  178.0870  144.1680 C   0  0  0  0  0  0  0  0  0  0  0  0
  187.9280  177.8950  143.3460 C   0  0  0  0  0  0  0  0  0  0  0  0
  184.7990  178.1570  145.2730 C   0  0  0  0  0  3  0  0  0  0  0  0
  187.0590  177.9760  144.3860 C   0  0  0  0  0  0  0  0  0  0  0  0
  189.3280  177.7800  143.5410 C   0  0  0  0  0  0  0  0  0  0  0  0
  188.6710  177.1810  138.6110 N   0  0  0  0  0  2  0  0  0  0  0  0
  187.4270  177.9200  142.0310 C   0  0  2  0  0  3  0  0  0  0  0  0
  190.6360  177.5030  140.0380 C   0  0  0  0  0  2  0  0  0  0  0  0
  189.6740  177.6960  141.1770 C   0  0  0  0  0  0  0  0  0  0  0  0
  187.5330  177.9440  145.7120 C   0  0  0  0  0  0  0  0  0  0  0  0
  190.1430  177.6860  142.4520 N   0  0  0  0  0  0  0  0  0  0  0  0
  188.9970  177.8400  146.0120 C   0  0  0  0  0  3  0  0  0  0  0  0
  186.6600  178.0070  146.7530 N   0  0  0  0  0  0  0  0  0  0  0  0
  186.0490  178.0550  141.8280 O   0  0  0  0  0  0  0  0  0  0  0  0
  185.1680  178.1280  142.9110 C   0  0  0  0  0  0  0  0  0  0  0  0
  188.2950  177.8030  140.9420 C   0  0  0  0  0  0  0  0  0  0  0  0
  189.8640  177.7480  144.7810 C   0  0  0  0  0  0  0  0  0  0  0  0
  185.3210  178.1130  146.5620 C   0  0  0  0  0  3  0  0  0  0  0  0
  189.9850  177.8120  138.6890 C   0  0  0  0  0  2  0  0  0  0  0  0
  187.7740  177.8780  139.5310 C   0  0  0  0  0  2  0  0  0  0  0  0
  182.1730  179.1380  140.7590 C   0  0  0  0  0  0  0  0  0  0  0  0
  179.5580  178.7680  143.3890 O   0  0  0  0  0  1  0  0  0  0  0  0
  182.2350  180.0110  139.9100 O   0  0  0  0  0  0  0  0  0  0  0  0
  181.7920  179.5290  143.5940 C   0  0  0  0  0  3  0  0  0  0  0  0
  183.6990  178.2670  142.6370 C   0  0  1  0  0  3  0  0  0  0  0  0
  180.8280  178.8210  141.3670 C   0  0  0  0  0  2  0  0  0  0  0  0
  183.1160  179.3780  143.4720 C   0  0  0  0  0  3  0  0  0  0  0  0
  183.4340  178.3960  141.1270 C   0  0  1  0  0  3  0  0  0  0  0  0
  183.4290  176.7830  140.3750 Cl  0  0  0  0  0  0  0  0  0  0  0  0
  180.8450  178.6040  142.8830 C   0  0  2  0  0  3  0  0  0  0  0  0
  191.3520  177.5910  144.9470 C   0  0  0  0  0  2  0  0  0  0  0  0
  191.6800  177.1280  146.2220 O   0  0  0  0  0  1  0  0  0  0  0  0
  1  4  1  0  0  0  0
  1  3  1  0  0  0  0
  2  5  1  0  0  0  0
  2  4  2  0  0  0  0
  3 18  2  0  0  0  0
  4 10  1  0  0  0  0
  5 17  1  0  0  0  0
  6 19  1  0  0  0  0
  6 20  1  0  0  0  0
  7 16  1  1  0  0  0
  7  2  1  0  0  0  0
  8  9  1  0  0  0  0
  9 11  1  0  0  0  0
 10 12  1  0  0  0  0
 10 13  2  0  0  0  0
 11  5  2  0  0  0  0
 14  7  1  0  0  0  0
 14 15  1  0  0  0  0
 15  1  2  0  0  0  0
 16  9  2  0  0  0  0
 17 31  1  0  0  0  0
 17 12  2  0  0  0  0
 18 13  1  0  0  0  0
 19  8  1  0  0  0  0
 20 16  1  0  0  0  0
 21 28  1  0  0  0  0
 21 26  1  0  0  0  0
 23 21  2  0  0  0  0
 25 15  1  6  0  0  0
 25 27  1  0  0  0  0
 26 30  1  0  0  0  0
 27 24  2  0  0  0  0
 28 29  1  1  0  0  0
 28 25  1  0  0  0  0
 30 22  1  1  0  0  0
 30 24  1  0  0  0  0
 31 32  1  0  0  0  0
M  END
>  <MODEL>
7

>  <REMARK>
 VINA RESULT:      -9.6      2.272      6.806
  Name = 
  2 active torsions:
  status: ('A' for Active; 'I' for Inactive)
    1  A    between atoms: C_13  and  C_29
    2  A    between atoms: C_16  and  C_27
                            x       y       z     vdW  Elec       q    Type
                         _______ _______ _______ _____ _____    ______ ____

>  <TORSDO>
F 2

$$$$
=
 OpenBabel10222416043D

 32 37  0  0  1  0  0  0  0  0999 V2000
  189.8130  177.3760  142.0250 C   0  0  0  0  0  0  0  0  0  0  0  0
  187.8250  177.7900  143.3480 C   0  0  0  0  0  0  0  0  0  0  0  0
  191.1870  177.1080  142.0040 C   0  0  0  0  0  3  0  0  0  0  0  0
  189.1540  177.5200  143.2780 C   0  0  0  0  0  0  0  0  0  0  0  0
  187.1510  177.9410  144.5870 C   0  0  0  0  0  0  0  0  0  0  0  0
  183.7630  179.2130  141.1230 N   0  0  0  0  0  2  0  0  0  0  0  0
  187.0920  177.9310  142.1550 C   0  0  2  0  0  3  0  0  0  0  0  0
  183.6520  178.7800  143.5310 C   0  0  0  0  0  2  0  0  0  0  0  0
  185.0980  178.3800  143.4410 C   0  0  0  0  0  0  0  0  0  0  0  0
  189.9140  177.3820  144.4560 C   0  0  0  0  0  0  0  0  0  0  0  0
  185.8180  178.2290  144.5840 N   0  0  0  0  0  0  0  0  0  0  0  0
  189.2820  177.5100  145.8090 C   0  0  0  0  0  3  0  0  0  0  0  0
  191.2480  177.1300  144.3850 N   0  0  0  0  0  0  0  0  0  0  0  0
  187.7440  177.7630  140.9280 O   0  0  0  0  0  0  0  0  0  0  0  0
  189.1150  177.4940  140.8760 C   0  0  0  0  0  0  0  0  0  0  0  0
  185.7300  178.2440  142.1960 C   0  0  0  0  0  0  0  0  0  0  0  0
  187.8060  177.8190  145.7620 C   0  0  0  0  0  0  0  0  0  0  0  0
  191.8910  176.9900  143.1980 C   0  0  0  0  0  3  0  0  0  0  0  0
  182.9420  178.6390  142.1850 C   0  0  0  0  0  2  0  0  0  0  0  0
  184.9270  178.3490  140.9270 C   0  0  0  0  0  2  0  0  0  0  0  0
  189.0540  177.1060  137.0720 C   0  0  0  0  0  0  0  0  0  0  0  0
  192.6340  176.1670  136.6370 O   0  0  0  0  0  1  0  0  0  0  0  0
  188.1000  176.6420  136.4720 O   0  0  0  0  0  0  0  0  0  0  0  0
  191.1420  175.6120  138.3910 C   0  0  0  0  0  3  0  0  0  0  0  0
  189.7660  177.3280  139.5340 C   0  0  1  0  0  3  0  0  0  0  0  0
  190.4160  177.0290  136.4280 C   0  0  0  0  0  2  0  0  0  0  0  0
  190.3050  175.9280  139.3860 C   0  0  0  0  0  3  0  0  0  0  0  0
  188.8150  177.7680  138.4060 C   0  0  1  0  0  3  0  0  0  0  0  0
  188.8750  179.5380  138.2240 Cl  0  0  0  0  0  0  0  0  0  0  0  0
  191.5530  176.6420  137.3770 C   0  0  2  0  0  3  0  0  0  0  0  0
  187.0620  178.0200  147.0550 C   0  0  0  0  0  2  0  0  0  0  0  0
  187.8130  177.5920  148.1510 O   0  0  0  0  0  1  0  0  0  0  0  0
  1  4  1  0  0  0  0
  2  5  1  0  0  0  0
  3  1  1  0  0  0  0
  3 18  2  0  0  0  0
  4  2  2  0  0  0  0
  4 10  1  0  0  0  0
  5 17  1  0  0  0  0
  6 19  1  0  0  0  0
  7 14  1  6  0  0  0
  7 16  1  0  0  0  0
  7  2  1  0  0  0  0
  9  8  1  0  0  0  0
  9 11  1  0  0  0  0
 10 12  1  0  0  0  0
 11  5  2  0  0  0  0
 13 10  2  0  0  0  0
 15 14  1  0  0  0  0
 15  1  2  0  0  0  0
 16  9  2  0  0  0  0
 17 12  2  0  0  0  0
 17 31  1  0  0  0  0
 18 13  1  0  0  0  0
 19  8  1  0  0  0  0
 20  6  1  0  0  0  0
 20 16  1  0  0  0  0
 21 28  1  0  0  0  0
 23 21  2  0  0  0  0
 24 27  2  0  0  0  0
 25 15  1  1  0  0  0
 26 21  1  0  0  0  0
 26 30  1  0  0  0  0
 27 25  1  0  0  0  0
 28 29  1  6  0  0  0
 28 25  1  0  0  0  0
 30 22  1  6  0  0  0
 30 24  1  0  0  0  0
 31 32  1  0  0  0  0
M  END
>  <MODEL>
8

>  <REMARK>
 VINA RESULT:      -9.2      3.161      6.302
  Name = 
  2 active torsions:
  status: ('A' for Active; 'I' for Inactive)
    1  A    between atoms: C_13  and  C_29
    2  A    between atoms: C_16  and  C_27
                            x       y       z     vdW  Elec       q    Type
                         _______ _______ _______ _____ _____    ______ ____

>  <TORSDO>
F 2

$$$$
=
 OpenBabel10222416043D

 32 37  0  0  1  0  0  0  0  0999 V2000
  189.3090  177.6280  141.3270 C   0  0  0  0  0  0  0  0  0  0  0  0
  188.1330  177.8430  143.4350 C   0  0  0  0  0  0  0  0  0  0  0  0
  190.5240  177.4100  140.6650 C   0  0  0  0  0  3  0  0  0  0  0  0
  189.2850  177.6260  142.7500 C   0  0  0  0  0  0  0  0  0  0  0  0
  188.0890  177.8480  144.8520 C   0  0  0  0  0  0  0  0  0  0  0  0
  183.5240  179.3380  143.4240 N   0  0  0  0  0  2  0  0  0  0  0  0
  186.9440  178.0760  142.7180 C   0  0  2  0  0  3  0  0  0  0  0  0
  184.5000  178.6680  145.5680 C   0  0  0  0  0  2  0  0  0  0  0  0
  185.7470  178.3290  144.7990 C   0  0  0  0  0  0  0  0  0  0  0  0
  190.4910  177.4000  143.4420 C   0  0  0  0  0  0  0  0  0  0  0  0
  186.9000  178.0900  145.4760 N   0  0  0  0  0  0  0  0  0  0  0  0
  190.5350  177.3730  144.9400 C   0  0  0  0  0  3  0  0  0  0  0  0
  191.6480  177.2000  142.7550 N   0  0  0  0  0  0  0  0  0  0  0  0
  186.9730  178.0510  141.3190 O   0  0  0  0  0  0  0  0  0  0  0  0
  188.1720  177.8340  140.6310 C   0  0  0  0  0  0  0  0  0  0  0  0
  185.7500  178.3370  143.3960 C   0  0  0  0  0  0  0  0  0  0  0  0
  189.2000  177.6350  145.5910 C   0  0  0  0  0  0  0  0  0  0  0  0
  191.6870  177.2000  141.3990 C   0  0  0  0  0  3  0  0  0  0  0  0
  183.2590  178.6360  144.6750 C   0  0  0  0  0  2  0  0  0  0  0  0
  184.4640  178.5380  142.6400 C   0  0  0  0  0  2  0  0  0  0  0  0
  186.6670  176.8970  137.2430 C   0  0  0  0  0  0  0  0  0  0  0  0
  189.5890  177.8700  135.1450 O   0  0  0  0  0  1  0  0  0  0  0  0
  185.9490  175.9240  137.0870 O   0  0  0  0  0  0  0  0  0  0  0  0
  189.5530  176.9030  137.3070 C   0  0  0  0  0  3  0  0  0  0  0  0
  188.1480  177.8230  139.1310 C   0  0  1  0  0  3  0  0  0  0  0  0
  187.4230  177.4300  136.0510 C   0  0  0  0  0  2  0  0  0  0  0  0
  189.2100  176.8930  138.6010 C   0  0  0  0  0  3  0  0  0  0  0  0
  186.7290  177.5370  138.6070 C   0  0  1  0  0  3  0  0  0  0  0  0
  185.7690  179.0350  138.6180 Cl  0  0  0  0  0  0  0  0  0  0  0  0
  188.8730  177.8300  136.3390 C   0  0  2  0  0  3  0  0  0  0  0  0
  189.1180  177.6820  147.0930 C   0  0  0  0  0  2  0  0  0  0  0  0
  190.3160  177.2790  147.6850 O   0  0  0  0  0  1  0  0  0  0  0  0
  1  4  1  0  0  0  0
  2  5  1  0  0  0  0
  3  1  1  0  0  0  0
  3 18  2  0  0  0  0
  4  2  2  0  0  0  0
  4 10  1  0  0  0  0
  5 11  2  0  0  0  0
  5 17  1  0  0  0  0
  6 19  1  0  0  0  0
  7 14  1  6  0  0  0
  7 16  1  0  0  0  0
  7  2  1  0  0  0  0
  9 11  1  0  0  0  0
  9  8  1  0  0  0  0
 10 12  1  0  0  0  0
 12 17  2  0  0  0  0
 13 10  2  0  0  0  0
 15 14  1  0  0  0  0
 15  1  2  0  0  0  0
 16  9  2  0  0  0  0
 17 31  1  0  0  0  0
 18 13  1  0  0  0  0
 19  8  1  0  0  0  0
 20 16  1  0  0  0  0
 20  6  1  0  0  0  0
 21 28  1  0  0  0  0
 23 21  2  0  0  0  0
 24 27  2  0  0  0  0
 25 15  1  1  0  0  0
 26 30  1  0  0  0  0
 26 21  1  0  0  0  0
 27 25  1  0  0  0  0
 28 29  1  6  0  0  0
 28 25  1  0  0  0  0
 30 22  1  6  0  0  0
 30 24  1  0  0  0  0
 31 32  1  0  0  0  0
M  END
>  <MODEL>
9

>  <REMARK>
 VINA RESULT:      -9.2      2.943      7.279
  Name = 
  2 active torsions:
  status: ('A' for Active; 'I' for Inactive)
    1  A    between atoms: C_13  and  C_29
    2  A    between atoms: C_16  and  C_27
                            x       y       z     vdW  Elec       q    Type
                         _______ _______ _______ _____ _____    ______ ____

>  <TORSDO>
F 2

$$$$
