=
 OpenBabel10222419483D

 33 35  0  0  1  0  0  0  0  0999 V2000
  186.5230  177.9870  143.8230 C   0  0  1  0  0  3  0  0  0  0  0  0
  183.1350  178.7560  142.4320 N   0  0  0  0  0  0  0  0  0  0  0  0
  183.9010  178.5330  141.4160 C   0  0  0  0  0  0  0  0  0  0  0  0
  185.2450  178.2190  141.7570 N   0  0  0  0  0  0  0  0  0  0  0  0
  185.2710  178.2310  143.0450 C   0  0  0  0  0  0  0  0  0  0  0  0
  183.9400  178.5740  143.6290 C   0  0  0  0  0  2  0  0  0  0  0  0
  184.5840  178.9540  139.0970 C   0  0  0  0  0  3  0  0  0  0  0  0
  185.8090  177.7500  136.9780 Cl  0  0  0  0  0  0  0  0  0  0  0  0
  184.6290  177.9360  138.2580 C   0  0  0  0  0  0  0  0  0  0  0  0
  183.4250  178.6830  140.0080 C   0  0  1  0  0  3  0  0  0  0  0  0
  183.6020  177.0010  138.5230 N   0  0  0  0  0  0  0  0  0  0  0  0
  182.9150  177.4110  139.5080 N   0  0  0  0  0  0  0  0  0  0  0  0
  186.1950  177.3890  145.1850 C   0  0  0  0  0  2  0  0  0  0  0  0
  185.4020  179.0570  146.8630 C   0  0  0  0  0  1  0  0  0  0  0  0
  186.6130  178.3290  146.3120 C   0  0  1  0  0  3  0  0  0  0  0  0
  187.3940  177.6090  147.4180 C   0  0  0  0  0  2  0  0  0  0  0  0
  189.4250  178.3070  148.7090 C   0  0  0  0  0  1  0  0  0  0  0  0
  188.9030  177.8470  147.3600 C   0  0  1  0  0  3  0  0  0  0  0  0
  189.6960  176.6570  146.7890 C   0  0  0  0  0  2  0  0  0  0  0  0
  190.7410  176.9740  145.7070 C   0  0  2  0  0  3  0  0  0  0  0  0
  192.0430  176.9400  146.2160 O   0  0  0  0  0  0  0  0  0  0  0  0
  192.0690  175.8400  147.0750 C   0  0  0  0  0  1  0  0  0  0  0  0
  190.4600  178.3060  145.0250 C   0  0  0  0  0  2  0  0  0  0  0  0
  191.5920  178.6670  144.0830 C   0  0  0  0  0  1  0  0  0  0  0  0
  187.4460  177.0590  143.0560 C   0  0  0  0  0  2  0  0  0  0  0  0
  188.5590  177.8190  142.5050 N   0  0  0  0  0  2  0  0  0  0  0  0
  189.0150  177.6630  141.1590 C   0  0  0  0  0  0  0  0  0  0  0  0
  189.1400  178.4590  138.7580 C   0  0  0  0  0  2  0  0  0  0  0  0
  189.9800  176.7610  140.9000 C   0  0  0  0  0  0  0  0  0  0  0  0
  190.5470  176.5660  139.5170 C   0  0  0  0  0  2  0  0  0  0  0  0
  190.5280  176.0200  141.9400 O   0  0  0  0  0  1  0  0  0  0  0  0
  189.6060  177.0540  138.4210 C   0  0  0  0  0  2  0  0  0  0  0  0
  188.3250  178.4210  140.0470 C   0  0  0  0  0  2  0  0  0  0  0  0
  1 25  1  6  0  0  0
  1 13  1  0  0  0  0
  2  6  1  0  0  0  0
  3  4  1  0  0  0  0
  3  2  2  0  0  0  0
  4  5  2  0  0  0  0
  5  6  1  0  0  0  0
  5  1  1  0  0  0  0
  7 10  1  0  0  0  0
  8  9  1  0  0  0  0
  9 11  1  0  0  0  0
  9  7  2  0  0  0  0
 10  3  1  1  0  0  0
 11 12  2  0  0  0  0
 12 10  1  0  0  0  0
 13 15  1  0  0  0  0
 15 14  1  1  0  0  0
 15 16  1  0  0  0  0
 18 16  1  0  0  0  0
 18 17  1  1  0  0  0
 19 18  1  0  0  0  0
 20 23  1  1  0  0  0
 20 21  1  0  0  0  0
 20 19  1  0  0  0  0
 21 22  1  0  0  0  0
 24 23  1  0  0  0  0
 26 25  1  0  0  0  0
 27 26  1  0  0  0  0
 28 33  1  0  0  0  0
 29 27  2  0  0  0  0
 29 31  1  0  0  0  0
 30 29  1  0  0  0  0
 32 28  1  0  0  0  0
 32 30  1  0  0  0  0
 33 27  1  0  0  0  0
M  END
>  <MODEL>
1

>  <REMARK>
 VINA RESULT:      -8.0      0.000      0.000
  Name = 
  13 active torsions:
  status: ('A' for Active; 'I' for Inactive)
    1  A    between atoms: C_3  and  N_28
    2  A    between atoms: C_4  and  C_17
    3  A    between atoms: C_4  and  C_27
    4  A    between atoms: C_6  and  C_14
    5  A    between atoms: C_8  and  O_10
    6  A    between atoms: C_8  and  C_20
    7  A    between atoms: C_8  and  C_29
    8  A    between atoms: C_16  and  C_17
    9  A    between atoms: C_16  and  N_28
   10  A    between atoms: C_17  and  C_25
   11  A    between atoms: C_22  and  C_23
   12  A    between atoms: C_22  and  C_29
   13  A    between atoms: C_23  and  C_27
                            x       y       z     vdW  Elec       q    Type
                         _______ _______ _______ _____ _____    ______ ____

>  <TORSDO>
F 13

$$$$
=
 OpenBabel10222419483D

 33 35  0  0  1  0  0  0  0  0999 V2000
  184.9900  178.8070  142.8770 C   0  0  1  0  0  3  0  0  0  0  0  0
  181.3250  178.9860  143.6130 N   0  0  0  0  0  0  0  0  0  0  0  0
  181.4290  178.7520  142.3470 C   0  0  0  0  0  0  0  0  0  0  0  0
  182.7680  178.6490  141.8810 N   0  0  0  0  0  0  0  0  0  0  0  0
  183.4970  178.8040  142.9310 C   0  0  0  0  0  0  0  0  0  0  0  0
  182.6740  179.0390  144.1550 C   0  0  0  0  0  2  0  0  0  0  0  0
  180.5690  177.9080  140.2100 C   0  0  0  0  0  3  0  0  0  0  0  0
  179.7490  175.6070  138.9960 Cl  0  0  0  0  0  0  0  0  0  0  0  0
  179.7710  176.8560  140.2220 C   0  0  0  0  0  0  0  0  0  0  0  0
  180.2390  178.6870  141.4460 C   0  0  1  0  0  3  0  0  0  0  0  0
  178.9310  176.8570  141.3600 N   0  0  0  0  0  0  0  0  0  0  0  0
  179.1850  177.8860  142.0590 N   0  0  0  0  0  0  0  0  0  0  0  0
  185.5560  177.6890  143.7440 C   0  0  0  0  0  2  0  0  0  0  0  0
  185.5970  178.7840  145.9850 C   0  0  0  0  0  1  0  0  0  0  0  0
  186.4470  178.2490  144.8480 C   0  0  1  0  0  3  0  0  0  0  0  0
  187.4790  177.2300  145.3440 C   0  0  0  0  0  2  0  0  0  0  0  0
  188.4590  176.8600  147.6200 C   0  0  0  0  0  1  0  0  0  0  0  0
  188.4230  177.7800  146.4140 C   0  0  1  0  0  3  0  0  0  0  0  0
  189.8270  178.1240  145.8840 C   0  0  0  0  0  2  0  0  0  0  0  0
  190.8620  176.9880  145.8710 C   0  0  2  0  0  3  0  0  0  0  0  0
  191.7220  177.0570  146.9720 O   0  0  0  0  0  0  0  0  0  0  0  0
  192.1110  175.7380  147.2120 C   0  0  0  0  0  1  0  0  0  0  0  0
  191.6510  176.9600  144.5700 C   0  0  0  0  0  2  0  0  0  0  0  0
  191.8560  178.3680  144.0440 C   0  0  0  0  0  1  0  0  0  0  0  0
  185.4640  178.6450  141.4440 C   0  0  0  0  0  2  0  0  0  0  0  0
  186.8070  179.1890  141.3080 N   0  0  0  0  0  2  0  0  0  0  0  0
  187.9340  178.3890  140.9390 C   0  0  0  0  0  0  0  0  0  0  0  0
  189.7890  176.7700  141.5340 C   0  0  0  0  0  2  0  0  0  0  0  0
  188.1830  178.1790  139.6330 C   0  0  0  0  0  0  0  0  0  0  0  0
  189.3220  177.3130  139.1620 C   0  0  0  0  0  2  0  0  0  0  0  0
  187.3340  178.7200  138.6740 O   0  0  0  0  0  1  0  0  0  0  0  0
  190.4200  177.1620  140.2090 C   0  0  0  0  0  2  0  0  0  0  0  0
  188.8830  177.9010  142.0110 C   0  0  0  0  0  2  0  0  0  0  0  0
  1 25  1  6  0  0  0
  1  5  1  0  0  0  0
  1 13  1  0  0  0  0
  2  6  1  0  0  0  0
  3  2  2  0  0  0  0
  4  3  1  0  0  0  0
  4  5  2  0  0  0  0
  5  6  1  0  0  0  0
  7  9  2  0  0  0  0
  7 10  1  0  0  0  0
  8  9  1  0  0  0  0
  9 11  1  0  0  0  0
 10 12  1  0  0  0  0
 10  3  1  1  0  0  0
 11 12  2  0  0  0  0
 13 15  1  0  0  0  0
 15 16  1  0  0  0  0
 15 14  1  1  0  0  0
 16 18  1  0  0  0  0
 18 17  1  1  0  0  0
 19 18  1  0  0  0  0
 20 23  1  6  0  0  0
 20 19  1  0  0  0  0
 20 21  1  0  0  0  0
 21 22  1  0  0  0  0
 24 23  1  0  0  0  0
 26 25  1  0  0  0  0
 27 26  1  0  0  0  0
 27 33  1  0  0  0  0
 28 33  1  0  0  0  0
 29 27  2  0  0  0  0
 30 29  1  0  0  0  0
 30 32  1  0  0  0  0
 31 29  1  0  0  0  0
 32 28  1  0  0  0  0
M  END
>  <MODEL>
2

>  <REMARK>
 VINA RESULT:      -7.8      2.360      2.909
  Name = 
  13 active torsions:
  status: ('A' for Active; 'I' for Inactive)
    1  A    between atoms: C_3  and  N_28
    2  A    between atoms: C_4  and  C_17
    3  A    between atoms: C_4  and  C_27
    4  A    between atoms: C_6  and  C_14
    5  A    between atoms: C_8  and  O_10
    6  A    between atoms: C_8  and  C_20
    7  A    between atoms: C_8  and  C_29
    8  A    between atoms: C_16  and  C_17
    9  A    between atoms: C_16  and  N_28
   10  A    between atoms: C_17  and  C_25
   11  A    between atoms: C_22  and  C_23
   12  A    between atoms: C_22  and  C_29
   13  A    between atoms: C_23  and  C_27
                            x       y       z     vdW  Elec       q    Type
                         _______ _______ _______ _____ _____    ______ ____

>  <TORSDO>
F 13

$$$$
=
 OpenBabel10222419483D

 33 35  0  0  1  0  0  0  0  0999 V2000
  186.1810  178.1870  143.6260 C   0  0  1  0  0  3  0  0  0  0  0  0
  182.6760  178.9060  142.5280 N   0  0  0  0  0  0  0  0  0  0  0  0
  183.2640  178.3510  141.5210 C   0  0  0  0  0  0  0  0  0  0  0  0
  184.6210  178.0030  141.7580 N   0  0  0  0  0  0  0  0  0  0  0  0
  184.8430  178.3450  142.9790 C   0  0  0  0  0  0  0  0  0  0  0  0
  183.6410  178.9610  143.6150 C   0  0  0  0  0  2  0  0  0  0  0  0
  183.5260  178.5520  139.0900 C   0  0  0  0  0  3  0  0  0  0  0  0
  184.7210  177.3360  136.9610 Cl  0  0  0  0  0  0  0  0  0  0  0  0
  183.7040  177.4520  138.3810 C   0  0  0  0  0  0  0  0  0  0  0  0
  182.5900  178.1770  140.1990 C   0  0  1  0  0  3  0  0  0  0  0  0
  182.9700  176.3680  138.9160 N   0  0  0  0  0  0  0  0  0  0  0  0
  182.3370  176.7640  139.9420 N   0  0  0  0  0  0  0  0  0  0  0  0
  186.0430  177.4800  144.9680 C   0  0  0  0  0  2  0  0  0  0  0  0
  185.7790  179.0080  146.9230 C   0  0  0  0  0  1  0  0  0  0  0  0
  186.7730  178.2450  146.0680 C   0  0  1  0  0  3  0  0  0  0  0  0
  187.6720  177.3380  146.9170 C   0  0  0  0  0  2  0  0  0  0  0  0
  189.2830  178.2610  148.5990 C   0  0  0  0  0  1  0  0  0  0  0  0
  189.0760  177.8990  147.1390 C   0  0  1  0  0  3  0  0  0  0  0  0
  190.1970  177.0010  146.5840 C   0  0  0  0  0  2  0  0  0  0  0  0
  190.4800  177.0950  145.0760 C   0  0  2  0  0  3  0  0  0  0  0  0
  191.7860  176.7020  144.7670 O   0  0  0  0  0  0  0  0  0  0  0  0
  191.6430  175.6150  143.9030 C   0  0  0  0  0  1  0  0  0  0  0  0
  190.1910  178.4880  144.5340 C   0  0  0  0  0  2  0  0  0  0  0  0
  191.4690  179.1400  144.0420 C   0  0  0  0  0  1  0  0  0  0  0  0
  187.1130  177.4040  142.7190 C   0  0  0  0  0  2  0  0  0  0  0  0
  187.8780  178.3250  141.8900 N   0  0  0  0  0  2  0  0  0  0  0  0
  188.6530  177.8970  140.7670 C   0  0  0  0  0  0  0  0  0  0  0  0
  190.5910  176.6000  139.7800 C   0  0  0  0  0  2  0  0  0  0  0  0
  188.1590  178.0830  139.5290 C   0  0  0  0  0  0  0  0  0  0  0  0
  188.8910  177.6210  138.2950 C   0  0  0  0  0  2  0  0  0  0  0  0
  186.9070  178.6630  139.3650 O   0  0  0  0  0  1  0  0  0  0  0  0
  190.3870  177.4390  138.5310 C   0  0  0  0  0  2  0  0  0  0  0  0
  190.0490  177.3590  140.9880 C   0  0  0  0  0  2  0  0  0  0  0  0
  1 25  1  6  0  0  0
  1 13  1  0  0  0  0
  2  6  1  0  0  0  0
  3  4  1  0  0  0  0
  3  2  2  0  0  0  0
  4  5  2  0  0  0  0
  5  6  1  0  0  0  0
  5  1  1  0  0  0  0
  7 10  1  0  0  0  0
  8  9  1  0  0  0  0
  9 11  1  0  0  0  0
  9  7  2  0  0  0  0
 10  3  1  1  0  0  0
 11 12  2  0  0  0  0
 12 10  1  0  0  0  0
 13 15  1  0  0  0  0
 15 16  1  0  0  0  0
 15 14  1  1  0  0  0
 16 18  1  0  0  0  0
 18 17  1  1  0  0  0
 19 18  1  0  0  0  0
 20 23  1  1  0  0  0
 20 19  1  0  0  0  0
 21 20  1  0  0  0  0
 22 21  1  0  0  0  0
 24 23  1  0  0  0  0
 26 25  1  0  0  0  0
 27 33  1  0  0  0  0
 27 26  1  0  0  0  0
 28 33  1  0  0  0  0
 29 27  2  0  0  0  0
 30 32  1  0  0  0  0
 30 29  1  0  0  0  0
 31 29  1  0  0  0  0
 32 28  1  0  0  0  0
M  END
>  <MODEL>
3

>  <REMARK>
 VINA RESULT:      -7.6      1.224      1.522
  Name = 
  13 active torsions:
  status: ('A' for Active; 'I' for Inactive)
    1  A    between atoms: C_3  and  N_28
    2  A    between atoms: C_4  and  C_17
    3  A    between atoms: C_4  and  C_27
    4  A    between atoms: C_6  and  C_14
    5  A    between atoms: C_8  and  O_10
    6  A    between atoms: C_8  and  C_20
    7  A    between atoms: C_8  and  C_29
    8  A    between atoms: C_16  and  C_17
    9  A    between atoms: C_16  and  N_28
   10  A    between atoms: C_17  and  C_25
   11  A    between atoms: C_22  and  C_23
   12  A    between atoms: C_22  and  C_29
   13  A    between atoms: C_23  and  C_27
                            x       y       z     vdW  Elec       q    Type
                         _______ _______ _______ _____ _____    ______ ____

>  <TORSDO>
F 13

$$$$
=
 OpenBabel10222419483D

 33 35  0  0  1  0  0  0  0  0999 V2000
  186.5060  178.2570  143.0780 C   0  0  1  0  0  3  0  0  0  0  0  0
  184.0460  179.0960  140.3860 N   0  0  0  0  0  0  0  0  0  0  0  0
  183.3580  178.6090  141.3650 C   0  0  0  0  0  0  0  0  0  0  0  0
  184.1370  178.2300  142.4920 N   0  0  0  0  0  0  0  0  0  0  0  0
  185.3480  178.5320  142.1750 C   0  0  0  0  0  0  0  0  0  0  0  0
  185.4390  179.1150  140.8030 C   0  0  0  0  0  2  0  0  0  0  0  0
  181.2760  178.3840  142.6420 C   0  0  0  0  0  3  0  0  0  0  0  0
  179.4590  179.8600  144.0430 Cl  0  0  0  0  0  0  0  0  0  0  0  0
  180.4360  179.4040  142.6640 C   0  0  0  0  0  0  0  0  0  0  0  0
  181.8840  178.3850  141.2730 C   0  0  1  0  0  3  0  0  0  0  0  0
  180.4260  180.0930  141.4290 N   0  0  0  0  0  0  0  0  0  0  0  0
  181.2390  179.5280  140.6350 N   0  0  0  0  0  0  0  0  0  0  0  0
  186.0300  177.6090  144.3720 C   0  0  0  0  0  2  0  0  0  0  0  0
  185.3010  179.2670  146.0870 C   0  0  0  0  0  1  0  0  0  0  0  0
  186.4600  178.4280  145.5850 C   0  0  1  0  0  3  0  0  0  0  0  0
  187.0540  177.5580  146.7000 C   0  0  0  0  0  2  0  0  0  0  0  0
  188.7440  178.1920  148.4380 C   0  0  0  0  0  1  0  0  0  0  0  0
  188.5310  177.8380  146.9780 C   0  0  1  0  0  3  0  0  0  0  0  0
  189.4750  176.7240  146.4910 C   0  0  0  0  0  2  0  0  0  0  0  0
  190.5540  177.1220  145.4720 C   0  0  2  0  0  3  0  0  0  0  0  0
  191.8140  177.2360  146.0680 O   0  0  0  0  0  0  0  0  0  0  0  0
  191.8980  176.1570  146.9490 C   0  0  0  0  0  1  0  0  0  0  0  0
  190.1870  178.4020  144.7330 C   0  0  0  0  0  2  0  0  0  0  0  0
  191.3940  178.9560  144.0010 C   0  0  0  0  0  1  0  0  0  0  0  0
  187.5110  177.3560  142.3830 C   0  0  0  0  0  2  0  0  0  0  0  0
  188.5040  178.1690  141.6950 N   0  0  0  0  0  2  0  0  0  0  0  0
  189.1040  177.7770  140.4570 C   0  0  0  0  0  0  0  0  0  0  0  0
  189.4780  178.1130  137.9750 C   0  0  0  0  0  2  0  0  0  0  0  0
  190.1010  176.8740  140.4760 C   0  0  0  0  0  0  0  0  0  0  0  0
  190.8160  176.4410  139.2210 C   0  0  0  0  0  2  0  0  0  0  0  0
  190.5420  176.3580  141.6890 O   0  0  0  0  0  1  0  0  0  0  0  0
  189.9930  176.6850  137.9610 C   0  0  0  0  0  2  0  0  0  0  0  0
  188.5290  178.2920  139.1560 C   0  0  0  0  0  2  0  0  0  0  0  0
  1 25  1  6  0  0  0
  1 13  1  0  0  0  0
  2  6  1  0  0  0  0
  2  3  2  0  0  0  0
  3  4  1  0  0  0  0
  5  4  2  0  0  0  0
  5  1  1  0  0  0  0
  6  5  1  0  0  0  0
  7  9  2  0  0  0  0
  9  8  1  0  0  0  0
 10  3  1  1  0  0  0
 10  7  1  0  0  0  0
 11  9  1  0  0  0  0
 12 10  1  0  0  0  0
 12 11  2  0  0  0  0
 13 15  1  0  0  0  0
 15 14  1  1  0  0  0
 15 16  1  0  0  0  0
 16 18  1  0  0  0  0
 18 17  1  1  0  0  0
 19 18  1  0  0  0  0
 20 23  1  1  0  0  0
 20 21  1  0  0  0  0
 20 19  1  0  0  0  0
 21 22  1  0  0  0  0
 24 23  1  0  0  0  0
 26 25  1  0  0  0  0
 27 29  2  0  0  0  0
 27 26  1  0  0  0  0
 28 33  1  0  0  0  0
 29 31  1  0  0  0  0
 30 29  1  0  0  0  0
 32 28  1  0  0  0  0
 32 30  1  0  0  0  0
 33 27  1  0  0  0  0
M  END
>  <MODEL>
4

>  <REMARK>
 VINA RESULT:      -7.5      2.182      2.620
  Name = 
  13 active torsions:
  status: ('A' for Active; 'I' for Inactive)
    1  A    between atoms: C_3  and  N_28
    2  A    between atoms: C_4  and  C_17
    3  A    between atoms: C_4  and  C_27
    4  A    between atoms: C_6  and  C_14
    5  A    between atoms: C_8  and  O_10
    6  A    between atoms: C_8  and  C_20
    7  A    between atoms: C_8  and  C_29
    8  A    between atoms: C_16  and  C_17
    9  A    between atoms: C_16  and  N_28
   10  A    between atoms: C_17  and  C_25
   11  A    between atoms: C_22  and  C_23
   12  A    between atoms: C_22  and  C_29
   13  A    between atoms: C_23  and  C_27
                            x       y       z     vdW  Elec       q    Type
                         _______ _______ _______ _____ _____    ______ ____

>  <TORSDO>
F 13

$$$$
=
 OpenBabel10222419483D

 33 35  0  0  1  0  0  0  0  0999 V2000
  188.1510  177.7790  141.1740 C   0  0  1  0  0  3  0  0  0  0  0  0
  189.4440  178.2520  137.6940 N   0  0  0  0  0  0  0  0  0  0  0  0
  189.6850  177.0210  138.0050 C   0  0  0  0  0  0  0  0  0  0  0  0
  189.2550  176.6560  139.3100 N   0  0  0  0  0  0  0  0  0  0  0  0
  188.7070  177.7180  139.7880 C   0  0  0  0  0  0  0  0  0  0  0  0
  188.7620  178.8590  138.8260 C   0  0  0  0  0  2  0  0  0  0  0  0
  191.9040  176.3480  137.2050 C   0  0  0  0  0  3  0  0  0  0  0  0
  194.1300  174.9760  137.9820 Cl  0  0  0  0  0  0  0  0  0  0  0  0
  192.4260  175.2250  137.6650 C   0  0  0  0  0  0  0  0  0  0  0  0
  190.4300  176.0980  137.0970 C   0  0  1  0  0  3  0  0  0  0  0  0
  191.4330  174.2410  137.8770 N   0  0  0  0  0  0  0  0  0  0  0  0
  190.3020  174.7210  137.5600 N   0  0  0  0  0  0  0  0  0  0  0  0
  189.2270  178.2090  142.1620 C   0  0  0  0  0  2  0  0  0  0  0  0
  188.4710  175.9980  143.0360 C   0  0  0  0  0  1  0  0  0  0  0  0
  189.4420  177.1460  143.2350 C   0  0  1  0  0  3  0  0  0  0  0  0
  190.8940  176.6560  143.2940 C   0  0  0  0  0  2  0  0  0  0  0  0
  191.7190  178.6180  144.6160 C   0  0  0  0  0  1  0  0  0  0  0  0
  191.6430  177.1040  144.5490 C   0  0  1  0  0  3  0  0  0  0  0  0
  191.1070  176.4770  145.8490 C   0  0  0  0  0  2  0  0  0  0  0  0
  191.1160  177.3640  147.1040 C   0  0  2  0  0  3  0  0  0  0  0  0
  192.0520  176.9230  148.0440 O   0  0  0  0  0  0  0  0  0  0  0  0
  192.3840  175.6270  147.6470 C   0  0  0  0  0  1  0  0  0  0  0  0
  189.7310  177.4710  147.7280 C   0  0  0  0  0  2  0  0  0  0  0  0
  188.6660  177.0720  146.7250 C   0  0  0  0  0  1  0  0  0  0  0  0
  186.9800  178.7440  141.2270 C   0  0  0  0  0  2  0  0  0  0  0  0
  185.8120  178.0680  141.7730 N   0  0  0  0  0  2  0  0  0  0  0  0
  185.2390  178.4100  143.0380 C   0  0  0  0  0  0  0  0  0  0  0  0
  185.4800  179.0120  145.4860 C   0  0  0  0  0  2  0  0  0  0  0  0
  183.9390  178.7510  143.0920 C   0  0  0  0  0  0  0  0  0  0  0  0
  183.2700  179.1660  144.3770 C   0  0  0  0  0  2  0  0  0  0  0  0
  183.1860  178.7860  141.9240 O   0  0  0  0  0  1  0  0  0  0  0  0
  184.0080  178.6640  145.6140 C   0  0  0  0  0  2  0  0  0  0  0  0
  186.0700  178.2650  144.2940 C   0  0  0  0  0  2  0  0  0  0  0  0
  1 25  1  6  0  0  0
  1 13  1  0  0  0  0
  2  3  2  0  0  0  0
  2  6  1  0  0  0  0
  3  4  1  0  0  0  0
  4  5  2  0  0  0  0
  5  1  1  0  0  0  0
  6  5  1  0  0  0  0
  7  9  2  0  0  0  0
  9 11  1  0  0  0  0
  9  8  1  0  0  0  0
 10  7  1  0  0  0  0
 10 12  1  0  0  0  0
 10  3  1  1  0  0  0
 12 11  2  0  0  0  0
 13 15  1  0  0  0  0
 15 14  1  6  0  0  0
 15 16  1  0  0  0  0
 16 18  1  0  0  0  0
 18 17  1  1  0  0  0
 18 19  1  0  0  0  0
 20 19  1  6  0  0  0
 20 23  1  0  0  0  0
 20 21  1  0  0  0  0
 22 21  1  0  0  0  0
 24 23  1  0  0  0  0
 25 26  1  0  0  0  0
 26 27  1  0  0  0  0
 27 29  2  0  0  0  0
 27 33  1  0  0  0  0
 28 32  1  0  0  0  0
 29 30  1  0  0  0  0
 30 32  1  0  0  0  0
 31 29  1  0  0  0  0
 33 28  1  0  0  0  0
M  END
>  <MODEL>
5

>  <REMARK>
 VINA RESULT:      -7.5      3.073      6.002
  Name = 
  13 active torsions:
  status: ('A' for Active; 'I' for Inactive)
    1  A    between atoms: C_3  and  N_28
    2  A    between atoms: C_4  and  C_17
    3  A    between atoms: C_4  and  C_27
    4  A    between atoms: C_6  and  C_14
    5  A    between atoms: C_8  and  O_10
    6  A    between atoms: C_8  and  C_20
    7  A    between atoms: C_8  and  C_29
    8  A    between atoms: C_16  and  C_17
    9  A    between atoms: C_16  and  N_28
   10  A    between atoms: C_17  and  C_25
   11  A    between atoms: C_22  and  C_23
   12  A    between atoms: C_22  and  C_29
   13  A    between atoms: C_23  and  C_27
                            x       y       z     vdW  Elec       q    Type
                         _______ _______ _______ _____ _____    ______ ____

>  <TORSDO>
F 13

$$$$
=
 OpenBabel10222419483D

 33 35  0  0  1  0  0  0  0  0999 V2000
  185.3510  179.0010  143.1250 C   0  0  1  0  0  3  0  0  0  0  0  0
  181.6330  178.8400  142.7350 N   0  0  0  0  0  0  0  0  0  0  0  0
  182.1290  178.6330  141.5600 C   0  0  0  0  0  0  0  0  0  0  0  0
  183.5490  178.6580  141.5150 N   0  0  0  0  0  0  0  0  0  0  0  0
  183.9160  178.8640  142.7320 C   0  0  0  0  0  0  0  0  0  0  0  0
  182.7490  179.0070  143.6530 C   0  0  0  0  0  2  0  0  0  0  0  0
  180.8340  179.8160  139.8440 C   0  0  0  0  0  3  0  0  0  0  0  0
  181.1470  181.3240  137.5930 Cl  0  0  0  0  0  0  0  0  0  0  0  0
  181.3490  179.9310  138.6330 C   0  0  0  0  0  0  0  0  0  0  0  0
  181.2710  178.4730  140.3480 C   0  0  1  0  0  3  0  0  0  0  0  0
  182.0960  178.7840  138.2770 N   0  0  0  0  0  0  0  0  0  0  0  0
  182.0590  177.9530  139.2360 N   0  0  0  0  0  0  0  0  0  0  0  0
  185.7690  177.8490  144.0290 C   0  0  0  0  0  2  0  0  0  0  0  0
  185.1360  179.0100  146.1430 C   0  0  0  0  0  1  0  0  0  0  0  0
  186.2710  178.3620  145.3740 C   0  0  1  0  0  3  0  0  0  0  0  0
  186.9630  177.2690  146.1990 C   0  0  0  0  0  2  0  0  0  0  0  0
  187.9740  178.1020  148.3350 C   0  0  0  0  0  1  0  0  0  0  0  0
  188.2450  177.7370  146.8870 C   0  0  1  0  0  3  0  0  0  0  0  0
  189.4240  176.7600  146.7300 C   0  0  0  0  0  2  0  0  0  0  0  0
  190.4900  177.1180  145.6820 C   0  0  2  0  0  3  0  0  0  0  0  0
  191.7750  177.1390  146.2350 O   0  0  0  0  0  0  0  0  0  0  0  0
  191.7130  176.2770  147.3310 C   0  0  0  0  0  1  0  0  0  0  0  0
  190.1770  178.4360  144.9890 C   0  0  0  0  0  2  0  0  0  0  0  0
  191.3160  178.8350  144.0690 C   0  0  0  0  0  1  0  0  0  0  0  0
  186.2320  179.0390  141.8890 C   0  0  0  0  0  2  0  0  0  0  0  0
  187.2870  178.0430  142.0080 N   0  0  0  0  0  2  0  0  0  0  0  0
  188.2870  177.8480  141.0040 C   0  0  0  0  0  0  0  0  0  0  0  0
  189.4020  178.5180  138.8310 C   0  0  0  0  0  2  0  0  0  0  0  0
  189.3100  177.0120  141.2600 C   0  0  0  0  0  0  0  0  0  0  0  0
  190.4280  176.7850  140.2750 C   0  0  0  0  0  2  0  0  0  0  0  0
  189.3870  176.3730  142.4930 O   0  0  0  0  0  1  0  0  0  0  0  0
  190.0320  177.1370  138.8450 C   0  0  0  0  0  2  0  0  0  0  0  0
  188.1120  178.4880  139.6450 C   0  0  0  0  0  2  0  0  0  0  0  0
  1 25  1  6  0  0  0
  1 13  1  0  0  0  0
  2  6  1  0  0  0  0
  3  2  2  0  0  0  0
  4  3  1  0  0  0  0
  4  5  2  0  0  0  0
  5  1  1  0  0  0  0
  5  6  1  0  0  0  0
  7 10  1  0  0  0  0
  8  9  1  0  0  0  0
  9  7  2  0  0  0  0
 10  3  1  1  0  0  0
 11  9  1  0  0  0  0
 11 12  2  0  0  0  0
 12 10  1  0  0  0  0
 13 15  1  0  0  0  0
 15 14  1  1  0  0  0
 15 16  1  0  0  0  0
 16 18  1  0  0  0  0
 18 17  1  1  0  0  0
 19 18  1  0  0  0  0
 20 23  1  1  0  0  0
 20 21  1  0  0  0  0
 20 19  1  0  0  0  0
 21 22  1  0  0  0  0
 24 23  1  0  0  0  0
 25 26  1  0  0  0  0
 27 29  2  0  0  0  0
 27 26  1  0  0  0  0
 28 32  1  0  0  0  0
 28 33  1  0  0  0  0
 29 31  1  0  0  0  0
 30 29  1  0  0  0  0
 32 30  1  0  0  0  0
 33 27  1  0  0  0  0
M  END
>  <MODEL>
6

>  <REMARK>
 VINA RESULT:      -7.4      1.694      1.858
  Name = 
  13 active torsions:
  status: ('A' for Active; 'I' for Inactive)
    1  A    between atoms: C_3  and  N_28
    2  A    between atoms: C_4  and  C_17
    3  A    between atoms: C_4  and  C_27
    4  A    between atoms: C_6  and  C_14
    5  A    between atoms: C_8  and  O_10
    6  A    between atoms: C_8  and  C_20
    7  A    between atoms: C_8  and  C_29
    8  A    between atoms: C_16  and  C_17
    9  A    between atoms: C_16  and  N_28
   10  A    between atoms: C_17  and  C_25
   11  A    between atoms: C_22  and  C_23
   12  A    between atoms: C_22  and  C_29
   13  A    between atoms: C_23  and  C_27
                            x       y       z     vdW  Elec       q    Type
                         _______ _______ _______ _____ _____    ______ ____

>  <TORSDO>
F 13

$$$$
=
 OpenBabel10222419483D

 33 35  0  0  1  0  0  0  0  0999 V2000
  185.3660  178.6980  141.6640 C   0  0  1  0  0  3  0  0  0  0  0  0
  188.9840  177.8430  141.2310 N   0  0  0  0  0  0  0  0  0  0  0  0
  188.5680  178.2520  140.0780 C   0  0  0  0  0  0  0  0  0  0  0  0
  187.1970  178.6260  140.0520 N   0  0  0  0  0  0  0  0  0  0  0  0
  186.7840  178.4550  141.2600 C   0  0  0  0  0  0  0  0  0  0  0  0
  187.8630  177.9360  142.1530 C   0  0  0  0  0  2  0  0  0  0  0  0
  189.2660  176.9570  138.1150 C   0  0  0  0  0  3  0  0  0  0  0  0
  188.3870  176.1580  135.6590 Cl  0  0  0  0  0  0  0  0  0  0  0  0
  188.7810  177.2920  136.9330 C   0  0  0  0  0  0  0  0  0  0  0  0
  189.4400  178.2430  138.8650 C   0  0  1  0  0  3  0  0  0  0  0  0
  188.6120  178.6920  136.8210 N   0  0  0  0  0  0  0  0  0  0  0  0
  188.9810  179.2400  137.9050 N   0  0  0  0  0  0  0  0  0  0  0  0
  185.2990  179.7490  142.7650 C   0  0  0  0  0  2  0  0  0  0  0  0
  183.1350  178.9060  143.6750 C   0  0  0  0  0  1  0  0  0  0  0  0
  184.5850  179.2060  143.9990 C   0  0  1  0  0  3  0  0  0  0  0  0
  185.2960  177.9870  144.5980 C   0  0  0  0  0  2  0  0  0  0  0  0
  185.7250  178.6280  146.9820 C   0  0  0  0  0  1  0  0  0  0  0  0
  186.3620  178.3440  145.6350 C   0  0  1  0  0  3  0  0  0  0  0  0
  187.5090  177.3210  145.7220 C   0  0  0  0  0  2  0  0  0  0  0  0
  188.9060  177.8690  146.0520 C   0  0  2  0  0  3  0  0  0  0  0  0
  189.8170  177.6250  145.0200 O   0  0  0  0  0  0  0  0  0  0  0  0
  190.8670  176.9260  145.6190 C   0  0  0  0  0  1  0  0  0  0  0  0
  189.4270  177.3240  147.3750 C   0  0  0  0  0  2  0  0  0  0  0  0
  189.0530  178.2530  148.5140 C   0  0  0  0  0  1  0  0  0  0  0  0
  184.5480  179.1460  140.4660 C   0  0  0  0  0  2  0  0  0  0  0  0
  183.6120  178.0950  140.0920 N   0  0  0  0  0  2  0  0  0  0  0  0
  183.7740  177.2940  138.9180 C   0  0  0  0  0  0  0  0  0  0  0  0
  185.0270  176.7020  136.7980 C   0  0  0  0  0  2  0  0  0  0  0  0
  183.0610  176.1590  138.8020 C   0  0  0  0  0  0  0  0  0  0  0  0
  183.2050  175.2370  137.6190 C   0  0  0  0  0  2  0  0  0  0  0  0
  182.2040  175.7750  139.8270 O   0  0  0  0  0  1  0  0  0  0  0  0
  183.7790  175.9380  136.3930 C   0  0  0  0  0  2  0  0  0  0  0  0
  184.6440  177.7980  137.7880 C   0  0  0  0  0  2  0  0  0  0  0  0
  1 25  1  6  0  0  0
  1 13  1  0  0  0  0
  2  6  1  0  0  0  0
  3  2  2  0  0  0  0
  4  3  1  0  0  0  0
  4  5  2  0  0  0  0
  5  1  1  0  0  0  0
  5  6  1  0  0  0  0
  7 10  1  0  0  0  0
  8  9  1  0  0  0  0
  9  7  2  0  0  0  0
 10  3  1  1  0  0  0
 11  9  1  0  0  0  0
 11 12  2  0  0  0  0
 12 10  1  0  0  0  0
 13 15  1  0  0  0  0
 15 14  1  6  0  0  0
 15 16  1  0  0  0  0
 16 18  1  0  0  0  0
 18 19  1  0  0  0  0
 18 17  1  1  0  0  0
 20 19  1  6  0  0  0
 20 23  1  0  0  0  0
 21 22  1  0  0  0  0
 21 20  1  0  0  0  0
 23 24  1  0  0  0  0
 26 25  1  0  0  0  0
 27 26  1  0  0  0  0
 28 33  1  0  0  0  0
 29 27  2  0  0  0  0
 29 31  1  0  0  0  0
 30 29  1  0  0  0  0
 32 28  1  0  0  0  0
 32 30  1  0  0  0  0
 33 27  1  0  0  0  0
M  END
>  <MODEL>
7

>  <REMARK>
 VINA RESULT:      -7.2      2.517      4.763
  Name = 
  13 active torsions:
  status: ('A' for Active; 'I' for Inactive)
    1  A    between atoms: C_3  and  N_28
    2  A    between atoms: C_4  and  C_17
    3  A    between atoms: C_4  and  C_27
    4  A    between atoms: C_6  and  C_14
    5  A    between atoms: C_8  and  O_10
    6  A    between atoms: C_8  and  C_20
    7  A    between atoms: C_8  and  C_29
    8  A    between atoms: C_16  and  C_17
    9  A    between atoms: C_16  and  N_28
   10  A    between atoms: C_17  and  C_25
   11  A    between atoms: C_22  and  C_23
   12  A    between atoms: C_22  and  C_29
   13  A    between atoms: C_23  and  C_27
                            x       y       z     vdW  Elec       q    Type
                         _______ _______ _______ _____ _____    ______ ____

>  <TORSDO>
F 13

$$$$
=
 OpenBabel10222419483D

 33 35  0  0  1  0  0  0  0  0999 V2000
  186.6220  178.6990  142.4980 C   0  0  1  0  0  3  0  0  0  0  0  0
  189.3950  177.1300  140.5360 N   0  0  0  0  0  0  0  0  0  0  0  0
  188.7960  177.9430  139.7290 C   0  0  0  0  0  0  0  0  0  0  0  0
  187.7010  178.6380  140.3110 N   0  0  0  0  0  0  0  0  0  0  0  0
  187.6640  178.2370  141.5330 C   0  0  0  0  0  0  0  0  0  0  0  0
  188.7300  177.2310  141.8250 C   0  0  0  0  0  2  0  0  0  0  0  0
  188.3210  177.1620  137.4530 C   0  0  0  0  0  2  0  0  0  0  0  0
  186.4870  177.4090  135.4480 Cl  0  0  0  0  0  0  0  0  0  0  0  0
  187.6450  177.9560  136.6420 C   0  0  0  0  0  0  0  0  0  0  0  0
  189.1760  178.0650  138.2900 C   0  0  1  0  0  3  0  0  0  0  0  0
  187.9700  179.3160  136.8600 N   0  0  0  0  0  0  0  0  0  0  0  0
  188.8330  179.3900  137.7870 N   0  0  0  0  0  2  0  0  0  0  0  0
  185.4030  179.2280  141.7530 C   0  0  0  0  0  2  0  0  0  0  0  0
  183.1320  178.9690  142.7540 C   0  0  0  0  0  1  0  0  0  0  0  0
  184.2080  178.2950  141.9250 C   0  0  1  0  0  3  0  0  0  0  0  0
  183.6590  177.7920  140.5840 C   0  0  0  0  0  2  0  0  0  0  0  0
  184.3160  177.7450  138.1670 C   0  0  0  0  0  1  0  0  0  0  0  0
  184.1050  178.6270  139.3840 C   0  0  1  0  0  3  0  0  0  0  0  0
  183.1930  179.8330  139.0950 C   0  0  0  0  0  2  0  0  0  0  0  0
  181.7310  179.5280  138.7320 C   0  0  2  0  0  3  0  0  0  0  0  0
  181.3520  180.1500  137.5380 O   0  0  0  0  0  0  0  0  0  0  0  0
  181.0850  179.1040  136.6530 C   0  0  0  0  0  1  0  0  0  0  0  0
  180.7810  179.9000  139.8620 C   0  0  0  0  0  2  0  0  0  0  0  0
  180.0940  178.6620  140.4060 C   0  0  0  0  0  1  0  0  0  0  0  0
  186.2160  177.5620  143.4180 C   0  0  0  0  0  2  0  0  0  0  0  0
  186.0330  178.0670  144.7710 N   0  0  0  0  0  0  0  0  0  0  0  0
  187.0220  177.9220  145.7940 C   0  0  0  0  0  0  0  0  0  0  0  0
  189.4090  177.4870  146.5190 C   0  0  0  0  0  2  0  0  0  0  0  0
  186.7220  178.3110  147.0470 C   0  0  1  0  0  3  0  0  0  0  0  0
  187.7220  178.2330  148.1720 C   0  0  0  0  0  2  0  0  0  0  0  0
  185.4750  178.8620  147.3190 O   0  0  0  0  0  1  0  0  0  0  0  0
  188.8370  177.2300  147.9010 C   0  0  0  0  0  2  0  0  0  0  0  0
  188.3280  177.2310  145.4730 C   0  0  0  0  0  2  0  0  0  0  0  0
  1 13  1  6  0  0  0
  1 25  1  0  0  0  0
  2  6  1  0  0  0  0
  3  4  1  0  0  0  0
  3  2  2  0  0  0  0
  4  5  2  0  0  0  0
  5  6  1  0  0  0  0
  5  1  1  0  0  0  0
  7 10  1  0  0  0  0
  8  9  1  0  0  0  0
  9 11  2  0  0  0  0
  9  7  1  0  0  0  0
 10  3  1  1  0  0  0
 11 12  1  0  0  0  0
 12 10  1  0  0  0  0
 13 15  1  0  0  0  0
 15 14  1  6  0  0  0
 16 15  1  0  0  0  0
 18 17  1  6  0  0  0
 18 16  1  0  0  0  0
 19 18  1  0  0  0  0
 20 19  1  1  0  0  0
 20 23  1  0  0  0  0
 21 20  1  0  0  0  0
 22 21  1  0  0  0  0
 23 24  1  0  0  0  0
 25 26  1  0  0  0  0
 26 27  2  0  0  0  0
 27 29  1  0  0  0  0
 28 32  1  0  0  0  0
 29 31  1  6  0  0  0
 29 30  1  0  0  0  0
 32 30  1  0  0  0  0
 33 27  1  0  0  0  0
 33 28  1  0  0  0  0
M  END
>  <MODEL>
8

>  <REMARK>
 VINA RESULT:      -7.2      3.107      7.755
  Name = 
  13 active torsions:
  status: ('A' for Active; 'I' for Inactive)
    1  A    between atoms: C_3  and  N_28
    2  A    between atoms: C_4  and  C_17
    3  A    between atoms: C_4  and  C_27
    4  A    between atoms: C_6  and  C_14
    5  A    between atoms: C_8  and  O_10
    6  A    between atoms: C_8  and  C_20
    7  A    between atoms: C_8  and  C_29
    8  A    between atoms: C_16  and  C_17
    9  A    between atoms: C_16  and  N_28
   10  A    between atoms: C_17  and  C_25
   11  A    between atoms: C_22  and  C_23
   12  A    between atoms: C_22  and  C_29
   13  A    between atoms: C_23  and  C_27
                            x       y       z     vdW  Elec       q    Type
                         _______ _______ _______ _____ _____    ______ ____

>  <TORSDO>
F 13

$$$$
=
 OpenBabel10222419483D

 33 35  0  0  1  0  0  0  0  0999 V2000
  187.7220  178.3760  142.4770 C   0  0  1  0  0  3  0  0  0  0  0  0
  190.1660  177.4020  139.8160 N   0  0  0  0  0  0  0  0  0  0  0  0
  189.1840  177.9830  139.2100 C   0  0  0  0  0  0  0  0  0  0  0  0
  188.1470  178.4280  140.0750 N   0  0  0  0  0  0  0  0  0  0  0  0
  188.5470  178.1170  141.2590 C   0  0  0  0  0  0  0  0  0  0  0  0
  189.8720  177.4280  141.2400 C   0  0  0  0  0  2  0  0  0  0  0  0
  188.0300  177.2080  137.1890 C   0  0  0  0  0  3  0  0  0  0  0  0
  185.6840  177.4920  135.8260 Cl  0  0  0  0  0  0  0  0  0  0  0  0
  187.1590  178.0150  136.6110 C   0  0  0  0  0  0  0  0  0  0  0  0
  189.1160  178.0930  137.7210 C   0  0  1  0  0  3  0  0  0  0  0  0
  187.5630  179.3680  136.7080 N   0  0  0  0  0  0  0  0  0  0  0  0
  188.6660  179.4250  137.3330 N   0  0  0  0  0  0  0  0  0  0  0  0
  186.4060  179.0440  142.0980 C   0  0  0  0  0  2  0  0  0  0  0  0
  184.5820  179.1230  143.7980 C   0  0  0  0  0  1  0  0  0  0  0  0
  185.2200  178.2970  142.6970 C   0  0  1  0  0  3  0  0  0  0  0  0
  184.1940  177.8770  141.6370 C   0  0  0  0  0  2  0  0  0  0  0  0
  184.5960  178.6290  139.2810 C   0  0  0  0  0  1  0  0  0  0  0  0
  183.9100  178.9580  140.5940 C   0  0  1  0  0  3  0  0  0  0  0  0
  182.4140  179.2750  140.4210 C   0  0  0  0  0  2  0  0  0  0  0  0
  181.4160  178.2310  140.9480 C   0  0  2  0  0  3  0  0  0  0  0  0
  180.7580  177.5700  139.9060 O   0  0  0  0  0  0  0  0  0  0  0  0
  181.3820  176.3250  139.8130 C   0  0  0  0  0  1  0  0  0  0  0  0
  180.4170  178.8450  141.9170 C   0  0  0  0  0  2  0  0  0  0  0  0
  181.0390  179.0020  143.2910 C   0  0  0  0  0  1  0  0  0  0  0  0
  187.4520  177.0770  143.2140 C   0  0  0  0  0  2  0  0  0  0  0  0
  188.5350  176.8110  144.1510 N   0  0  0  0  0  2  0  0  0  0  0  0
  188.4880  177.2110  145.5240 C   0  0  0  0  0  0  0  0  0  0  0  0
  187.1860  177.8290  147.6060 C   0  0  0  0  0  2  0  0  0  0  0  0
  189.6130  177.1410  146.2600 C   0  0  0  0  0  0  0  0  0  0  0  0
  189.6390  177.5010  147.7230 C   0  0  0  0  0  2  0  0  0  0  0  0
  190.7850  176.6650  145.6840 O   0  0  0  0  0  1  0  0  0  0  0  0
  188.4870  178.4150  148.1250 C   0  0  0  0  0  2  0  0  0  0  0  0
  187.2170  177.8120  146.0810 C   0  0  0  0  0  2  0  0  0  0  0  0
  1 13  1  6  0  0  0
  1 25  1  0  0  0  0
  2  6  1  0  0  0  0
  3  2  2  0  0  0  0
  3  4  1  0  0  0  0
  4  5  2  0  0  0  0
  5  1  1  0  0  0  0
  6  5  1  0  0  0  0
  7 10  1  0  0  0  0
  8  9  1  0  0  0  0
  9 11  1  0  0  0  0
  9  7  2  0  0  0  0
 10  3  1  1  0  0  0
 11 12  2  0  0  0  0
 12 10  1  0  0  0  0
 13 15  1  0  0  0  0
 15 14  1  1  0  0  0
 16 15  1  0  0  0  0
 18 17  1  6  0  0  0
 18 16  1  0  0  0  0
 19 18  1  0  0  0  0
 20 19  1  6  0  0  0
 20 23  1  0  0  0  0
 21 20  1  0  0  0  0
 22 21  1  0  0  0  0
 23 24  1  0  0  0  0
 25 26  1  0  0  0  0
 26 27  1  0  0  0  0
 27 33  1  0  0  0  0
 27 29  2  0  0  0  0
 28 32  1  0  0  0  0
 29 30  1  0  0  0  0
 30 32  1  0  0  0  0
 31 29  1  0  0  0  0
 33 28  1  0  0  0  0
M  END
>  <MODEL>
9

>  <REMARK>
 VINA RESULT:      -7.1      2.732      7.143
  Name = 
  13 active torsions:
  status: ('A' for Active; 'I' for Inactive)
    1  A    between atoms: C_3  and  N_28
    2  A    between atoms: C_4  and  C_17
    3  A    between atoms: C_4  and  C_27
    4  A    between atoms: C_6  and  C_14
    5  A    between atoms: C_8  and  O_10
    6  A    between atoms: C_8  and  C_20
    7  A    between atoms: C_8  and  C_29
    8  A    between atoms: C_16  and  C_17
    9  A    between atoms: C_16  and  N_28
   10  A    between atoms: C_17  and  C_25
   11  A    between atoms: C_22  and  C_23
   12  A    between atoms: C_22  and  C_29
   13  A    between atoms: C_23  and  C_27
                            x       y       z     vdW  Elec       q    Type
                         _______ _______ _______ _____ _____    ______ ____

>  <TORSDO>
F 13

$$$$
