=
 OpenBabel10222417003D

 30 34  0  0  1  0  0  0  0  0999 V2000
  186.8050  178.8430  147.2580 C   0  0  0  0  0  1  0  0  0  0  0  0
  188.6760  177.6970  146.0370 C   0  0  0  0  0  0  0  0  0  0  0  0
  189.6320  176.2620  138.4930 C   0  0  0  0  0  2  0  0  0  0  0  0
  190.4400  176.5030  147.1550 N   0  0  0  0  0  0  0  0  0  0  0  0
  186.7170  178.7100  141.3370 N   0  0  0  0  0  2  0  0  0  0  0  0
  190.4580  175.7730  140.7770 O   0  0  0  0  0  0  0  0  0  0  0  0
  186.1900  177.0440  144.0220 C   0  0  0  0  0  2  0  0  0  0  0  0
  187.9190  178.8560  139.3030 C   0  0  0  0  0  0  0  0  0  0  0  0
  186.2890  177.1000  145.5380 C   0  0  0  0  0  2  0  0  0  0  0  0
  186.8150  178.6120  139.9420 N   0  0  0  0  0  0  0  0  0  0  0  0
  188.2750  176.4500  148.0560 F   0  0  0  0  0  0  0  0  0  0  0  0
  191.9880  178.3060  143.8780 S   0  0  0  0  0  0  0  0  0  0  0  0
  187.2570  178.1940  145.9610 C   0  0  1  0  0  3  0  0  0  0  0  0
  185.4890  178.2870  143.4960 C   0  0  0  0  0  2  0  0  0  0  0  0
  189.5990  178.0520  145.0440 C   0  0  0  0  0  0  0  0  0  0  0  0
  188.1330  176.0940  138.2710 C   0  0  0  0  0  2  0  0  0  0  0  0
  189.1300  176.8760  147.0920 C   0  0  0  0  0  0  0  0  0  0  0  0
  185.5290  178.2980  142.0100 C   0  0  0  0  0  0  0  0  0  0  0  0
  189.7750  177.8420  140.5550 C   0  0  0  0  0  0  0  0  0  0  0  0
  190.2960  177.6320  141.8140 C   0  0  0  0  0  0  0  0  0  0  0  0
  190.9240  177.7010  145.1620 C   0  0  0  0  0  0  0  0  0  0  0  0
  189.2700  178.7860  143.7920 C   0  0  0  0  0  2  0  0  0  0  0  0
  187.5570  177.2340  137.4250 C   0  0  0  0  0  2  0  0  0  0  0  0
  191.3470  176.9020  146.2210 C   0  0  0  0  0  3  0  0  0  0  0  0
  189.9370  176.6180  139.9180 C   0  0  0  0  0  0  0  0  0  0  0  0
  188.0110  178.5290  137.9190 N   0  0  0  0  0  2  0  0  0  0  0  0
  189.1990  179.1250  140.0280 C   0  0  0  0  0  2  0  0  0  0  0  0
  190.4930  178.6760  142.8760 C   0  0  1  0  0  3  0  0  0  0  0  0
  190.6870  176.3450  141.9260 N   0  0  0  0  0  0  0  0  0  0  0  0
  184.5300  177.9010  141.3560 O   0  0  0  0  0  0  0  0  0  0  0  0
  2 17  1  0  0  0  0
  3 25  1  0  0  0  0
  5 18  1  0  0  0  0
  6 29  1  0  0  0  0
  7  9  1  0  0  0  0
  8 10  2  0  0  0  0
  8 27  1  0  0  0  0
  9 13  1  0  0  0  0
 10  5  1  0  0  0  0
 12 21  1  0  0  0  0
 13  2  1  0  0  0  0
 13  1  1  1  0  0  0
 14  7  1  0  0  0  0
 15 21  1  0  0  0  0
 15  2  2  0  0  0  0
 16  3  1  0  0  0  0
 17  4  2  0  0  0  0
 17 11  1  0  0  0  0
 18 14  1  0  0  0  0
 19 20  1  0  0  0  0
 20 29  2  0  0  0  0
 20 28  1  0  0  0  0
 21 24  2  0  0  0  0
 22 15  1  0  0  0  0
 23 26  1  0  0  0  0
 23 16  1  0  0  0  0
 24  4  1  0  0  0  0
 25 19  2  0  0  0  0
 25  6  1  0  0  0  0
 26  8  1  0  0  0  0
 27 19  1  0  0  0  0
 28 22  1  1  0  0  0
 28 12  1  0  0  0  0
 30 18  2  0  0  0  0
M  END
>  <MODEL>
1

>  <REMARK>
 VINA RESULT:      -7.7      0.000      0.000
  Name = 
  0 active torsions:
  status: ('A' for Active; 'I' for Inactive)
                            x       y       z     vdW  Elec       q    Type
                         _______ _______ _______ _____ _____    ______ ____

>  <TORSDO>
F 0

$$$$
=
 OpenBabel10222417003D

 30 34  0  0  1  0  0  0  0  0999 V2000
  192.1460  177.8780  140.0400 C   0  0  0  0  0  1  0  0  0  0  0  0
  190.5050  176.8600  138.4350 C   0  0  0  0  0  0  0  0  0  0  0  0
  182.7670  176.8410  138.4850 C   0  0  0  0  0  2  0  0  0  0  0  0
  191.1480  175.3520  136.6750 N   0  0  0  0  0  0  0  0  0  0  0  0
  186.3630  178.8940  140.8140 N   0  0  0  0  0  2  0  0  0  0  0  0
  184.7970  175.8650  137.4530 O   0  0  0  0  0  0  0  0  0  0  0  0
  188.7440  176.7830  141.1850 C   0  0  0  0  0  2  0  0  0  0  0  0
  184.2510  179.3450  139.8440 C   0  0  0  0  0  0  0  0  0  0  0  0
  190.2190  176.5390  140.9100 C   0  0  0  0  0  2  0  0  0  0  0  0
  184.9730  179.0600  140.8860 N   0  0  0  0  0  0  0  0  0  0  0  0
  192.2970  175.2780  138.7190 F   0  0  0  0  0  0  0  0  0  0  0  0
  188.0830  177.6380  135.3490 S   0  0  0  0  0  0  0  0  0  0  0  0
  190.7060  177.4600  139.8010 C   0  0  1  0  0  3  0  0  0  0  0  0
  188.5490  178.1510  141.8220 C   0  0  0  0  0  2  0  0  0  0  0  0
  189.4820  177.3340  137.6020 C   0  0  0  0  0  0  0  0  0  0  0  0
  182.7140  176.8250  140.0080 C   0  0  0  0  0  2  0  0  0  0  0  0
  191.3250  175.8210  137.9440 C   0  0  0  0  0  0  0  0  0  0  0  0
  187.0980  178.4440  141.9510 C   0  0  0  0  0  0  0  0  0  0  0  0
  185.0460  177.9800  137.9600 C   0  0  0  0  0  0  0  0  0  0  0  0
  186.1670  177.4950  137.3210 C   0  0  0  0  0  0  0  0  0  0  0  0
  189.3620  176.8740  136.3110 C   0  0  0  0  0  0  0  0  0  0  0  0
  188.4390  178.3160  138.0030 C   0  0  0  0  0  2  0  0  0  0  0  0
  182.1720  178.1450  140.5670 C   0  0  0  0  0  2  0  0  0  0  0  0
  190.1930  175.8580  135.8470 C   0  0  0  0  0  3  0  0  0  0  0  0
  184.1800  176.8940  137.9870 C   0  0  0  0  0  0  0  0  0  0  0  0
  182.8310  179.2840  139.9410 N   0  0  0  0  0  2  0  0  0  0  0  0
  184.8410  179.3780  138.4700 C   0  0  0  0  0  2  0  0  0  0  0  0
  187.3670  178.2990  136.9070 C   0  0  1  0  0  3  0  0  0  0  0  0
  185.9900  176.1870  137.0420 N   0  0  0  0  0  0  0  0  0  0  0  0
  186.5180  178.2530  143.0510 O   0  0  0  0  0  0  0  0  0  0  0  0
  2 13  1  0  0  0  0
  3 16  1  0  0  0  0
  4 17  2  0  0  0  0
  5 10  1  0  0  0  0
  5 18  1  0  0  0  0
  6 25  1  0  0  0  0
  7 14  1  0  0  0  0
  8 26  1  0  0  0  0
  8 10  2  0  0  0  0
  9  7  1  0  0  0  0
 12 21  1  0  0  0  0
 12 28  1  0  0  0  0
 13  1  1  1  0  0  0
 13  9  1  0  0  0  0
 14 18  1  0  0  0  0
 15 22  1  0  0  0  0
 15  2  2  0  0  0  0
 16 23  1  0  0  0  0
 17  2  1  0  0  0  0
 17 11  1  0  0  0  0
 18 30  2  0  0  0  0
 19 25  2  0  0  0  0
 19 27  1  0  0  0  0
 20 19  1  0  0  0  0
 21 15  1  0  0  0  0
 24 21  2  0  0  0  0
 24  4  1  0  0  0  0
 25  3  1  0  0  0  0
 26 23  1  0  0  0  0
 27  8  1  0  0  0  0
 28 20  1  0  0  0  0
 28 22  1  1  0  0  0
 29 20  2  0  0  0  0
 29  6  1  0  0  0  0
M  END
>  <MODEL>
2

>  <REMARK>
 VINA RESULT:      -6.8      4.223      6.766
  Name = 
  0 active torsions:
  status: ('A' for Active; 'I' for Inactive)
                            x       y       z     vdW  Elec       q    Type
                         _______ _______ _______ _____ _____    ______ ____

>  <TORSDO>
F 0

$$$$
=
 OpenBabel10222417003D

 30 34  0  0  1  0  0  0  0  0999 V2000
  190.1380  178.5720  143.3740 C   0  0  0  0  0  1  0  0  0  0  0  0
  189.4990  177.4540  141.2180 C   0  0  0  0  0  0  0  0  0  0  0  0
  182.5960  176.6640  137.8120 C   0  0  0  0  0  2  0  0  0  0  0  0
  191.0120  176.0820  139.9480 N   0  0  0  0  0  0  0  0  0  0  0  0
  184.5430  178.9790  141.4750 N   0  0  0  0  0  2  0  0  0  0  0  0
  184.9630  175.9320  137.8050 O   0  0  0  0  0  0  0  0  0  0  0  0
  186.7180  177.1030  142.8950 C   0  0  0  0  0  2  0  0  0  0  0  0
  183.0480  179.2510  139.6600 C   0  0  0  0  0  0  0  0  0  0  0  0
  188.1780  177.0170  143.3090 C   0  0  0  0  0  2  0  0  0  0  0  0
  183.2570  179.0030  140.9170 N   0  0  0  0  0  0  0  0  0  0  0  0
  191.1330  176.0500  142.2900 F   0  0  0  0  0  0  0  0  0  0  0  0
  188.6340  178.0990  137.3660 S   0  0  0  0  0  0  0  0  0  0  0  0
  189.0070  178.0220  142.5230 C   0  0  1  0  0  3  0  0  0  0  0  0
  186.1170  178.4210  143.3610 C   0  0  0  0  0  2  0  0  0  0  0  0
  188.9090  177.8540  140.0110 C   0  0  0  0  0  0  0  0  0  0  0  0
  181.8730  176.5870  139.1520 C   0  0  0  0  0  2  0  0  0  0  0  0
  190.5560  176.5210  141.1560 C   0  0  0  0  0  0  0  0  0  0  0  0
  184.7380  178.5630  142.8260 C   0  0  0  0  0  0  0  0  0  0  0  0
  184.7370  178.0420  138.3450 C   0  0  0  0  0  0  0  0  0  0  0  0
  186.0690  177.6940  138.2790 C   0  0  0  0  0  0  0  0  0  0  0  0
  189.4250  177.4310  138.8070 C   0  0  0  0  0  0  0  0  0  0  0  0
  187.7000  178.7120  139.8920 C   0  0  0  0  0  2  0  0  0  0  0  0
  181.0040  177.8250  139.3950 C   0  0  0  0  0  2  0  0  0  0  0  0
  190.4780  176.5210  138.7750 C   0  0  0  0  0  3  0  0  0  0  0  0
  184.0690  176.8740  137.9960 C   0  0  0  0  0  0  0  0  0  0  0  0
  181.7480  179.0460  139.1140 N   0  0  0  0  0  2  0  0  0  0  0  0
  184.1800  179.3930  138.6930 C   0  0  0  0  0  2  0  0  0  0  0  0
  187.2360  178.6280  138.4340 C   0  0  1  0  0  3  0  0  0  0  0  0
  186.1730  176.3860  137.9660 N   0  0  0  0  0  0  0  0  0  0  0  0
  183.7530  178.2750  143.5540 O   0  0  0  0  0  0  0  0  0  0  0  0
  2 13  1  0  0  0  0
  3 25  1  0  0  0  0
  3 16  1  0  0  0  0
  4 17  2  0  0  0  0
  5 18  1  0  0  0  0
  6 29  1  0  0  0  0
  6 25  1  0  0  0  0
  7  9  1  0  0  0  0
  7 14  1  0  0  0  0
  8 10  2  0  0  0  0
 10  5  1  0  0  0  0
 12 28  1  0  0  0  0
 12 21  1  0  0  0  0
 13  9  1  0  0  0  0
 13  1  1  1  0  0  0
 15  2  2  0  0  0  0
 16 23  1  0  0  0  0
 17  2  1  0  0  0  0
 17 11  1  0  0  0  0
 18 14  1  0  0  0  0
 18 30  2  0  0  0  0
 19 27  1  0  0  0  0
 20 19  1  0  0  0  0
 20 28  1  0  0  0  0
 21 15  1  0  0  0  0
 22 15  1  0  0  0  0
 24 21  2  0  0  0  0
 24  4  1  0  0  0  0
 25 19  2  0  0  0  0
 26 23  1  0  0  0  0
 26  8  1  0  0  0  0
 27  8  1  0  0  0  0
 28 22  1  1  0  0  0
 29 20  2  0  0  0  0
M  END
>  <MODEL>
3

>  <REMARK>
 VINA RESULT:      -6.4      3.265      5.362
  Name = 
  0 active torsions:
  status: ('A' for Active; 'I' for Inactive)
                            x       y       z     vdW  Elec       q    Type
                         _______ _______ _______ _____ _____    ______ ____

>  <TORSDO>
F 0

$$$$
=
 OpenBabel10222417003D

 30 34  0  0  1  0  0  0  0  0999 V2000
  183.2840  179.8340  139.2920 C   0  0  0  0  0  1  0  0  0  0  0  0
  185.0870  178.1740  138.7470 C   0  0  0  0  0  0  0  0  0  0  0  0
  184.6270  171.0090  135.8580 C   0  0  0  0  0  2  0  0  0  0  0  0
  187.3860  178.4700  139.3890 N   0  0  0  0  0  0  0  0  0  0  0  0
  181.8010  174.7470  136.6460 N   0  0  0  0  0  2  0  0  0  0  0  0
  186.1100  172.6780  136.9340 O   0  0  0  0  0  0  0  0  0  0  0  0
  182.6160  176.1440  139.4120 C   0  0  0  0  0  2  0  0  0  0  0  0
  182.3200  173.0890  135.0380 C   0  0  0  0  0  0  0  0  0  0  0  0
  183.0550  177.4570  140.0380 C   0  0  0  0  0  2  0  0  0  0  0  0
  181.5830  173.5120  136.0200 N   0  0  0  0  0  0  0  0  0  0  0  0
  185.6930  179.2260  140.8250 F   0  0  0  0  0  0  0  0  0  0  0  0
  187.2870  176.6350  135.7820 S   0  0  0  0  0  0  0  0  0  0  0  0
  183.6130  178.3870  138.9720 C   0  0  1  0  0  3  0  0  0  0  0  0
  181.3930  176.3640  138.5340 C   0  0  0  0  0  2  0  0  0  0  0  0
  185.5340  177.5120  137.5960 C   0  0  0  0  0  0  0  0  0  0  0  0
  183.2960  170.7470  136.5550 C   0  0  0  0  0  2  0  0  0  0  0  0
  186.0600  178.6280  139.6640 C   0  0  0  0  0  0  0  0  0  0  0  0
  181.0600  175.1100  137.8090 C   0  0  0  0  0  0  0  0  0  0  0  0
  184.6680  173.5940  135.5640 C   0  0  0  0  0  0  0  0  0  0  0  0
  185.5220  174.5440  136.0830 C   0  0  0  0  0  0  0  0  0  0  0  0
  186.8790  177.4130  137.3240 C   0  0  0  0  0  0  0  0  0  0  0  0
  184.6560  176.8430  136.5980 C   0  0  0  0  0  2  0  0  0  0  0  0
  182.1460  170.6410  135.5490 C   0  0  0  0  0  2  0  0  0  0  0  0
  187.8170  177.8820  138.2390 C   0  0  0  0  0  3  0  0  0  0  0  0
  185.1160  172.4030  136.1220 C   0  0  0  0  0  0  0  0  0  0  0  0
  182.1860  171.7420  134.5940 N   0  0  0  0  0  2  0  0  0  0  0  0
  183.5410  173.8340  134.6010 C   0  0  0  0  0  2  0  0  0  0  0  0
  185.5660  175.9960  135.7010 C   0  0  1  0  0  3  0  0  0  0  0  0
  186.3820  173.9520  136.9370 N   0  0  0  0  0  0  0  0  0  0  0  0
  180.1550  174.3550  138.2510 O   0  0  0  0  0  0  0  0  0  0  0  0
  2 13  1  0  0  0  0
  2 17  1  0  0  0  0
  3 25  1  0  0  0  0
  3 16  1  0  0  0  0
  4 17  2  0  0  0  0
  5 18  1  0  0  0  0
  6 29  1  0  0  0  0
  7  9  1  0  0  0  0
  8 10  2  0  0  0  0
 10  5  1  0  0  0  0
 12 21  1  0  0  0  0
 13  1  1  1  0  0  0
 13  9  1  0  0  0  0
 14  7  1  0  0  0  0
 15  2  2  0  0  0  0
 17 11  1  0  0  0  0
 18 30  2  0  0  0  0
 18 14  1  0  0  0  0
 19 20  1  0  0  0  0
 19 25  2  0  0  0  0
 20 29  2  0  0  0  0
 21 15  1  0  0  0  0
 21 24  2  0  0  0  0
 22 15  1  0  0  0  0
 23 16  1  0  0  0  0
 24  4  1  0  0  0  0
 25  6  1  0  0  0  0
 26  8  1  0  0  0  0
 26 23  1  0  0  0  0
 27  8  1  0  0  0  0
 27 19  1  0  0  0  0
 28 12  1  0  0  0  0
 28 20  1  0  0  0  0
 28 22  1  1  0  0  0
M  END
>  <MODEL>
4

>  <REMARK>
 VINA RESULT:      -6.3      5.702      8.098
  Name = 
  0 active torsions:
  status: ('A' for Active; 'I' for Inactive)
                            x       y       z     vdW  Elec       q    Type
                         _______ _______ _______ _____ _____    ______ ____

>  <TORSDO>
F 0

$$$$
=
 OpenBabel10222417003D

 30 34  0  0  1  0  0  0  0  0999 V2000
  185.1680  179.7040  144.0770 C   0  0  0  0  0  1  0  0  0  0  0  0
  186.9320  178.1200  143.2530 C   0  0  0  0  0  0  0  0  0  0  0  0
  188.6170  175.7500  136.0810 C   0  0  0  0  0  2  0  0  0  0  0  0
  188.2620  176.7530  144.7190 N   0  0  0  0  0  0  0  0  0  0  0  0
  185.8680  178.9670  138.2430 N   0  0  0  0  0  2  0  0  0  0  0  0
  189.0130  175.3640  138.4970 O   0  0  0  0  0  0  0  0  0  0  0  0
  184.6670  177.7140  140.9360 C   0  0  0  0  0  2  0  0  0  0  0  0
  187.3420  178.6800  136.4130 C   0  0  0  0  0  0  0  0  0  0  0  0
  184.5650  177.9110  142.4400 C   0  0  0  0  0  2  0  0  0  0  0  0
  186.1350  178.7070  136.8910 N   0  0  0  0  0  0  0  0  0  0  0  0
  186.0250  177.1840  145.2760 F   0  0  0  0  0  0  0  0  0  0  0  0
  190.5630  177.8940  141.5900 S   0  0  0  0  0  0  0  0  0  0  0  0
  185.6600  178.8520  142.9210 C   0  0  1  0  0  3  0  0  0  0  0  0
  184.2980  179.0010  140.2120 C   0  0  0  0  0  2  0  0  0  0  0  0
  188.0340  178.1970  142.3890 C   0  0  0  0  0  0  0  0  0  0  0  0
  187.1580  175.8310  135.6450 C   0  0  0  0  0  2  0  0  0  0  0  0
  187.0700  177.3460  144.4260 C   0  0  0  0  0  0  0  0  0  0  0  0
  184.5420  178.8470  138.7550 C   0  0  0  0  0  0  0  0  0  0  0  0
  188.7790  177.4870  138.0120 C   0  0  0  0  0  0  0  0  0  0  0  0
  189.0720  177.3200  139.3480 C   0  0  0  0  0  0  0  0  0  0  0  0
  189.2370  177.6280  142.7380 C   0  0  0  0  0  0  0  0  0  0  0  0
  188.0260  178.8420  141.0490 C   0  0  0  0  0  2  0  0  0  0  0  0
  186.9350  176.9610  134.6340 C   0  0  0  0  0  2  0  0  0  0  0  0
  189.3480  176.8820  143.9080 C   0  0  0  0  0  3  0  0  0  0  0  0
  188.7870  176.1930  137.5040 C   0  0  0  0  0  0  0  0  0  0  0  0
  187.5580  178.1980  135.0900 N   0  0  0  0  0  2  0  0  0  0  0  0
  188.5380  178.7900  137.3040 C   0  0  0  0  0  2  0  0  0  0  0  0
  189.3190  178.4180  140.3430 C   0  0  1  0  0  3  0  0  0  0  0  0
  189.1880  176.0030  139.6190 N   0  0  0  0  0  0  0  0  0  0  0  0
  183.5840  178.5700  137.9870 O   0  0  0  0  0  0  0  0  0  0  0  0
  2 17  1  0  0  0  0
  3 25  1  0  0  0  0
  5 18  1  0  0  0  0
  6 29  1  0  0  0  0
  7  9  1  0  0  0  0
  8 10  2  0  0  0  0
  8 27  1  0  0  0  0
  9 13  1  0  0  0  0
 10  5  1  0  0  0  0
 12 21  1  0  0  0  0
 13  2  1  0  0  0  0
 13  1  1  1  0  0  0
 14  7  1  0  0  0  0
 15 21  1  0  0  0  0
 15  2  2  0  0  0  0
 16  3  1  0  0  0  0
 17  4  2  0  0  0  0
 17 11  1  0  0  0  0
 18 14  1  0  0  0  0
 19 20  1  0  0  0  0
 20 29  2  0  0  0  0
 20 28  1  0  0  0  0
 21 24  2  0  0  0  0
 22 15  1  0  0  0  0
 23 26  1  0  0  0  0
 23 16  1  0  0  0  0
 24  4  1  0  0  0  0
 25 19  2  0  0  0  0
 25  6  1  0  0  0  0
 26  8  1  0  0  0  0
 27 19  1  0  0  0  0
 28 22  1  1  0  0  0
 28 12  1  0  0  0  0
 30 18  2  0  0  0  0
M  END
>  <MODEL>
5

>  <REMARK>
 VINA RESULT:      -6.1      2.208      3.127
  Name = 
  0 active torsions:
  status: ('A' for Active; 'I' for Inactive)
                            x       y       z     vdW  Elec       q    Type
                         _______ _______ _______ _____ _____    ______ ____

>  <TORSDO>
F 0

$$$$
=
 OpenBabel10222417003D

 30 34  0  0  1  0  0  0  0  0999 V2000
  182.0520  171.4680  135.4080 C   0  0  0  0  0  1  0  0  0  0  0  0
  182.1040  173.7080  136.5400 C   0  0  0  0  0  0  0  0  0  0  0  0
  188.0510  178.3780  138.1890 C   0  0  0  0  0  2  0  0  0  0  0  0
  180.1970  174.6670  137.6490 N   0  0  0  0  0  0  0  0  0  0  0  0
  187.1850  174.4040  135.7330 N   0  0  0  0  0  2  0  0  0  0  0  0
  185.6450  177.9310  138.5820 O   0  0  0  0  0  0  0  0  0  0  0  0
  185.0730  172.5970  137.3260 C   0  0  0  0  0  2  0  0  0  0  0  0
  188.3320  176.4720  135.6190 C   0  0  0  0  0  0  0  0  0  0  0  0
  183.7210  171.9110  137.2190 C   0  0  0  0  0  2  0  0  0  0  0  0
  188.3320  175.1990  135.8720 N   0  0  0  0  0  0  0  0  0  0  0  0
  180.5190  172.3460  137.7320 F   0  0  0  0  0  0  0  0  0  0  0  0
  182.3050  177.6530  135.9100 S   0  0  0  0  0  0  0  0  0  0  0  0
  182.9110  172.5210  136.0850 C   0  0  1  0  0  3  0  0  0  0  0  0
  185.9340  172.2530  136.1190 C   0  0  0  0  0  2  0  0  0  0  0  0
  182.5050  175.0060  136.1920 C   0  0  0  0  0  0  0  0  0  0  0  0
  188.9960  177.2010  138.4060 C   0  0  0  0  0  2  0  0  0  0  0  0
  180.9320  173.5680  137.3140 C   0  0  0  0  0  0  0  0  0  0  0  0
  187.1920  173.0420  136.1560 C   0  0  0  0  0  0  0  0  0  0  0  0
  186.2690  177.4410  136.5410 C   0  0  0  0  0  0  0  0  0  0  0  0
  184.9120  177.2510  136.6960 C   0  0  0  0  0  0  0  0  0  0  0  0
  181.7150  176.0890  136.5020 C   0  0  0  0  0  0  0  0  0  0  0  0
  183.7800  175.3530  135.5080 C   0  0  0  0  0  2  0  0  0  0  0  0
  190.0630  177.1280  137.3090 C   0  0  0  0  0  2  0  0  0  0  0  0
  180.5560  175.9200  137.2550 C   0  0  0  0  0  3  0  0  0  0  0  0
  186.6840  177.9140  137.7800 C   0  0  0  0  0  0  0  0  0  0  0  0
  189.4620  177.2580  135.9880 N   0  0  0  0  0  2  0  0  0  0  0  0
  187.0690  177.2040  135.2920 C   0  0  0  0  0  2  0  0  0  0  0  0
  183.9430  176.8730  135.6140 C   0  0  1  0  0  3  0  0  0  0  0  0
  184.5650  177.5400  137.9680 N   0  0  0  0  0  0  0  0  0  0  0  0
  188.2460  172.5170  136.6000 O   0  0  0  0  0  0  0  0  0  0  0  0
  2 17  1  0  0  0  0
  3 16  1  0  0  0  0
  5 10  1  0  0  0  0
  5 18  1  0  0  0  0
  8 10  2  0  0  0  0
  8 26  1  0  0  0  0
  9  7  1  0  0  0  0
 12 21  1  0  0  0  0
 13  1  1  1  0  0  0
 13  2  1  0  0  0  0
 13  9  1  0  0  0  0
 14 18  1  0  0  0  0
 14  7  1  0  0  0  0
 15 21  1  0  0  0  0
 15  2  2  0  0  0  0
 17  4  2  0  0  0  0
 17 11  1  0  0  0  0
 18 30  2  0  0  0  0
 19 20  1  0  0  0  0
 19 25  2  0  0  0  0
 20 29  2  0  0  0  0
 21 24  2  0  0  0  0
 22 15  1  0  0  0  0
 23 16  1  0  0  0  0
 24  4  1  0  0  0  0
 25  3  1  0  0  0  0
 25  6  1  0  0  0  0
 26 23  1  0  0  0  0
 27  8  1  0  0  0  0
 27 19  1  0  0  0  0
 28 22  1  1  0  0  0
 28 12  1  0  0  0  0
 28 20  1  0  0  0  0
 29  6  1  0  0  0  0
M  END
>  <MODEL>
6

>  <REMARK>
 VINA RESULT:      -5.7      6.473      9.430
  Name = 
  0 active torsions:
  status: ('A' for Active; 'I' for Inactive)
                            x       y       z     vdW  Elec       q    Type
                         _______ _______ _______ _____ _____    ______ ____

>  <TORSDO>
F 0

$$$$
=
 OpenBabel10222417003D

 30 34  0  0  1  0  0  0  0  0999 V2000
  181.9880  172.7270  135.2610 C   0  0  0  0  0  1  0  0  0  0  0  0
  181.6850  174.3480  137.1540 C   0  0  0  0  0  0  0  0  0  0  0  0
  186.8390  178.7600  140.8760 C   0  0  0  0  0  2  0  0  0  0  0  0
  179.6360  174.5510  138.3990 N   0  0  0  0  0  0  0  0  0  0  0  0
  186.6200  175.9560  137.0470 N   0  0  0  0  0  2  0  0  0  0  0  0
  184.5200  177.8880  140.8930 O   0  0  0  0  0  0  0  0  0  0  0  0
  184.7710  173.4180  137.6810 C   0  0  0  0  0  2  0  0  0  0  0  0
  187.4480  178.0400  137.8060 C   0  0  0  0  0  0  0  0  0  0  0  0
  183.5380  172.6550  137.2230 C   0  0  0  0  0  2  0  0  0  0  0  0
  187.6330  176.7780  137.5600 N   0  0  0  0  0  0  0  0  0  0  0  0
  180.2980  172.4380  137.6250 F   0  0  0  0  0  0  0  0  0  0  0  0
  181.3090  178.2220  138.0740 S   0  0  0  0  0  0  0  0  0  0  0  0
  182.6670  173.5420  136.3470 C   0  0  1  0  0  3  0  0  0  0  0  0
  185.6960  173.6770  136.5010 C   0  0  0  0  0  2  0  0  0  0  0  0
  181.8940  175.7200  137.3510 C   0  0  0  0  0  0  0  0  0  0  0  0
  187.9440  177.7240  140.7030 C   0  0  0  0  0  2  0  0  0  0  0  0
  180.5320  173.7700  137.7300 C   0  0  0  0  0  0  0  0  0  0  0  0
  186.8210  174.5490  136.9250 C   0  0  0  0  0  0  0  0  0  0  0  0
  185.2470  178.3040  138.8690 C   0  0  0  0  0  0  0  0  0  0  0  0
  183.9310  177.8930  138.8410 C   0  0  0  0  0  0  0  0  0  0  0  0
  180.9470  176.4880  137.9880 C   0  0  0  0  0  0  0  0  0  0  0  0
  183.1160  176.4660  136.9450 C   0  0  0  0  0  2  0  0  0  0  0  0
  189.0310  178.2170  139.7420 C   0  0  0  0  0  2  0  0  0  0  0  0
  179.8120  175.8940  138.5330 C   0  0  0  0  0  3  0  0  0  0  0  0
  185.5650  178.3150  140.2220 C   0  0  0  0  0  0  0  0  0  0  0  0
  188.4410  178.7640  138.5260 N   0  0  0  0  0  2  0  0  0  0  0  0
  186.0960  178.6690  137.6860 C   0  0  0  0  0  2  0  0  0  0  0  0
  183.0490  177.8360  137.6270 C   0  0  1  0  0  3  0  0  0  0  0  0
  183.5210  177.6250  140.0990 N   0  0  0  0  0  0  0  0  0  0  0  0
  187.9330  174.0360  137.2150 O   0  0  0  0  0  0  0  0  0  0  0  0
  2 15  2  0  0  0  0
  2 17  1  0  0  0  0
  4 24  1  0  0  0  0
  5 10  1  0  0  0  0
  8 26  1  0  0  0  0
  9  7  1  0  0  0  0
 10  8  2  0  0  0  0
 11 17  1  0  0  0  0
 13  1  1  6  0  0  0
 13  2  1  0  0  0  0
 13  9  1  0  0  0  0
 14 18  1  0  0  0  0
 14  7  1  0  0  0  0
 15 21  1  0  0  0  0
 16  3  1  0  0  0  0
 17  4  2  0  0  0  0
 18  5  1  0  0  0  0
 18 30  2  0  0  0  0
 19 25  2  0  0  0  0
 20 19  1  0  0  0  0
 20 29  2  0  0  0  0
 21 12  1  0  0  0  0
 21 24  2  0  0  0  0
 22 15  1  0  0  0  0
 23 16  1  0  0  0  0
 25  3  1  0  0  0  0
 25  6  1  0  0  0  0
 26 23  1  0  0  0  0
 27  8  1  0  0  0  0
 27 19  1  0  0  0  0
 28 22  1  1  0  0  0
 28 12  1  0  0  0  0
 28 20  1  0  0  0  0
 29  6  1  0  0  0  0
M  END
>  <MODEL>
7

>  <REMARK>
 VINA RESULT:      -5.6      5.566      8.976
  Name = 
  0 active torsions:
  status: ('A' for Active; 'I' for Inactive)
                            x       y       z     vdW  Elec       q    Type
                         _______ _______ _______ _____ _____    ______ ____

>  <TORSDO>
F 0

$$$$
=
 OpenBabel10222417003D

 30 34  0  0  1  0  0  0  0  0999 V2000
  188.0920  178.5970  146.5780 C   0  0  0  0  0  1  0  0  0  0  0  0
  189.5020  177.3590  144.9100 C   0  0  0  0  0  0  0  0  0  0  0  0
  188.4350  176.1320  137.3440 C   0  0  0  0  0  2  0  0  0  0  0  0
  191.3830  175.9950  145.5310 N   0  0  0  0  0  0  0  0  0  0  0  0
  186.5290  178.6870  140.8660 N   0  0  0  0  0  2  0  0  0  0  0  0
  189.7590  175.4990  139.3400 O   0  0  0  0  0  0  0  0  0  0  0  0
  186.5490  176.9690  143.5700 C   0  0  0  0  0  2  0  0  0  0  0  0
  187.1960  178.8160  138.5990 C   0  0  0  0  0  0  0  0  0  0  0  0
  187.0240  176.9620  145.0140 C   0  0  0  0  0  2  0  0  0  0  0  0
  186.2690  178.6330  139.4900 N   0  0  0  0  0  0  0  0  0  0  0  0
  189.5130  176.0730  146.9430 F   0  0  0  0  0  0  0  0  0  0  0  0
  192.2130  177.7940  142.0010 S   0  0  0  0  0  0  0  0  0  0  0  0
  188.1540  177.9640  145.2000 C   0  0  1  0  0  3  0  0  0  0  0  0
  185.8440  178.2800  143.2560 C   0  0  0  0  0  2  0  0  0  0  0  0
  190.1760  177.6790  143.7230 C   0  0  0  0  0  0  0  0  0  0  0  0
  186.9190  176.0850  137.5020 C   0  0  0  0  0  2  0  0  0  0  0  0
  190.1340  176.4680  145.8040 C   0  0  0  0  0  0  0  0  0  0  0  0
  185.5150  178.3420  141.8090 C   0  0  0  0  0  0  0  0  0  0  0  0
  189.2150  177.6200  139.3300 C   0  0  0  0  0  0  0  0  0  0  0  0
  190.0130  177.3250  140.4150 C   0  0  0  0  0  0  0  0  0  0  0  0
  191.4550  177.2250  143.5000 C   0  0  0  0  0  0  0  0  0  0  0  0
  189.6070  178.4810  142.6060 C   0  0  0  0  0  2  0  0  0  0  0  0
  186.2480  177.2960  136.8450 C   0  0  0  0  0  2  0  0  0  0  0  0
  192.0600  176.3580  144.4070 C   0  0  0  0  0  3  0  0  0  0  0  0
  189.1120  176.4110  138.6530 C   0  0  0  0  0  0  0  0  0  0  0  0
  186.9150  178.5340  137.2310 N   0  0  0  0  0  2  0  0  0  0  0  0
  188.6330  178.9610  138.9850 C   0  0  0  0  0  2  0  0  0  0  0  0
  190.5520  178.3120  141.4110 C   0  0  1  0  0  3  0  0  0  0  0  0
  190.3120  176.0090  140.4040 N   0  0  0  0  0  0  0  0  0  0  0  0
  184.3550  178.0460  141.4190 O   0  0  0  0  0  0  0  0  0  0  0  0
  2 13  1  0  0  0  0
  2 17  1  0  0  0  0
  3 16  1  0  0  0  0
  3 25  1  0  0  0  0
  4 17  2  0  0  0  0
  5 18  1  0  0  0  0
  6 29  1  0  0  0  0
  7  9  1  0  0  0  0
  8 27  1  0  0  0  0
  8 10  2  0  0  0  0
  9 13  1  0  0  0  0
 10  5  1  0  0  0  0
 12 21  1  0  0  0  0
 13  1  1  1  0  0  0
 14  7  1  0  0  0  0
 15  2  2  0  0  0  0
 17 11  1  0  0  0  0
 18 14  1  0  0  0  0
 19 20  1  0  0  0  0
 20 28  1  0  0  0  0
 21 15  1  0  0  0  0
 21 24  2  0  0  0  0
 22 15  1  0  0  0  0
 23 26  1  0  0  0  0
 23 16  1  0  0  0  0
 24  4  1  0  0  0  0
 25 19  2  0  0  0  0
 25  6  1  0  0  0  0
 26  8  1  0  0  0  0
 27 19  1  0  0  0  0
 28 12  1  0  0  0  0
 28 22  1  1  0  0  0
 29 20  2  0  0  0  0
 30 18  2  0  0  0  0
M  END
>  <MODEL>
8

>  <REMARK>
 VINA RESULT:      -5.4      1.204      1.382
  Name = 
  0 active torsions:
  status: ('A' for Active; 'I' for Inactive)
                            x       y       z     vdW  Elec       q    Type
                         _______ _______ _______ _____ _____    ______ ____

>  <TORSDO>
F 0

$$$$
=
 OpenBabel10222417003D

 30 34  0  0  1  0  0  0  0  0999 V2000
  183.0650  174.2710  136.0130 C   0  0  0  0  0  1  0  0  0  0  0  0
  184.6640  175.7850  137.2200 C   0  0  0  0  0  0  0  0  0  0  0  0
  192.3900  175.6500  137.6260 C   0  0  0  0  0  2  0  0  0  0  0  0
  183.9580  177.4450  138.8100 N   0  0  0  0  0  0  0  0  0  0  0  0
  188.8870  173.5050  135.2390 N   0  0  0  0  0  2  0  0  0  0  0  0
  190.3210  176.6350  138.5670 O   0  0  0  0  0  0  0  0  0  0  0  0
  186.3970  173.0170  137.1970 C   0  0  0  0  0  2  0  0  0  0  0  0
  191.0260  174.4800  134.9640 C   0  0  0  0  0  0  0  0  0  0  0  0
  184.9140  173.2910  137.3850 C   0  0  0  0  0  2  0  0  0  0  0  0
  190.2830  173.4290  135.1390 N   0  0  0  0  0  0  0  0  0  0  0  0
  182.7910  175.4150  138.6850 F   0  0  0  0  0  0  0  0  0  0  0  0
  187.1460  178.8900  136.7770 S   0  0  0  0  0  0  0  0  0  0  0  0
  184.4840  174.4650  136.5180 C   0  0  1  0  0  3  0  0  0  0  0  0
  186.6580  172.4720  135.8010 C   0  0  0  0  0  2  0  0  0  0  0  0
  185.7160  176.6370  136.8560 C   0  0  0  0  0  0  0  0  0  0  0  0
  192.4310  174.1280  137.5410 C   0  0  0  0  0  2  0  0  0  0  0  0
  183.7950  176.2140  138.2470 C   0  0  0  0  0  0  0  0  0  0  0  0
  188.1210  172.3480  135.5730 C   0  0  0  0  0  0  0  0  0  0  0  0
  190.1760  176.2760  136.4120 C   0  0  0  0  0  0  0  0  0  0  0  0
  189.0360  176.8930  136.8820 C   0  0  0  0  0  0  0  0  0  0  0  0
  185.8220  177.8920  137.4080 C   0  0  0  0  0  0  0  0  0  0  0  0
  186.8050  176.2930  135.9030 C   0  0  0  0  0  2  0  0  0  0  0  0
  193.0350  173.6540  136.2150 C   0  0  0  0  0  2  0  0  0  0  0  0
  184.9430  178.2950  138.4100 C   0  0  0  0  0  3  0  0  0  0  0  0
  190.9850  176.1650  137.5370 C   0  0  0  0  0  0  0  0  0  0  0  0
  192.4400  174.3630  135.0890 N   0  0  0  0  0  2  0  0  0  0  0  0
  190.4480  175.8590  134.9950 C   0  0  0  0  0  2  0  0  0  0  0  0
  187.8820  177.3720  136.0490 C   0  0  1  0  0  3  0  0  0  0  0  0
  189.1480  177.0800  138.2140 N   0  0  0  0  0  0  0  0  0  0  0  0
  188.6830  171.2310  135.7180 O   0  0  0  0  0  0  0  0  0  0  0  0
  2 17  1  0  0  0  0
  5 18  1  0  0  0  0
  7  9  1  0  0  0  0
  8 27  1  0  0  0  0
  8 26  1  0  0  0  0
  8 10  2  0  0  0  0
 10  5  1  0  0  0  0
 12 21  1  0  0  0  0
 13  1  1  1  0  0  0
 13  2  1  0  0  0  0
 13  9  1  0  0  0  0
 14  7  1  0  0  0  0
 15  2  2  0  0  0  0
 15 21  1  0  0  0  0
 16  3  1  0  0  0  0
 17 11  1  0  0  0  0
 17  4  2  0  0  0  0
 18 30  2  0  0  0  0
 18 14  1  0  0  0  0
 19 20  1  0  0  0  0
 19 25  2  0  0  0  0
 20 29  2  0  0  0  0
 21 24  2  0  0  0  0
 22 15  1  0  0  0  0
 23 16  1  0  0  0  0
 24  4  1  0  0  0  0
 25  3  1  0  0  0  0
 25  6  1  0  0  0  0
 26 23  1  0  0  0  0
 27 19  1  0  0  0  0
 28 22  1  1  0  0  0
 28 12  1  0  0  0  0
 28 20  1  0  0  0  0
 29  6  1  0  0  0  0
M  END
>  <MODEL>
9

>  <REMARK>
 VINA RESULT:      -5.4      6.231      8.198
  Name = 
  0 active torsions:
  status: ('A' for Active; 'I' for Inactive)
                            x       y       z     vdW  Elec       q    Type
                         _______ _______ _______ _____ _____    ______ ____

>  <TORSDO>
F 0

$$$$
