=
 OpenBabel10222420133D

 63 68  0  0  1  0  0  0  0  0999 V2000
  186.7970  177.8820  144.0440 C   0  0  2  0  0  3  0  0  0  0  0  0
  185.6600  178.4870  141.9000 C   0  0  0  0  0  3  0  0  0  0  0  0
  183.2740  178.8870  141.7920 C   0  0  0  0  0  3  0  0  0  0  0  0
  184.3120  178.3350  143.9050 C   0  0  0  0  0  3  0  0  0  0  0  0
  183.1640  178.6600  143.1670 C   0  0  0  0  0  0  0  0  0  0  0  0
  184.5180  178.8070  141.1580 C   0  0  0  0  0  0  0  0  0  0  0  0
  185.5630  178.2520  143.2750 C   0  0  0  0  0  0  0  0  0  0  0  0
  181.8420  178.7520  143.7980 C   0  0  0  0  0  3  0  0  0  0  0  0
  180.8670  179.5170  143.3190 C   0  0  0  0  0  2  0  0  0  0  0  0
  184.6110  179.0190  139.6820 C   0  0  0  0  0  2  0  0  0  0  0  0
  183.3250  179.6180  139.1240 C   0  0  0  0  0  2  0  0  0  0  0  0
  182.9100  178.9040  137.9260 N   0  0  0  0  0  2  0  0  0  0  0  0
  183.1740  177.4890  138.1360 C   0  0  1  0  0  3  0  0  0  0  0  0
  182.8000  174.7740  135.7820 C   0  0  0  0  0  2  0  0  0  0  0  0
  181.9210  176.6700  137.8180 C   0  0  0  0  0  2  0  0  0  0  0  0
  182.8240  174.3220  137.2540 C   0  0  2  0  0  3  0  0  0  0  0  0
  184.0460  176.9970  135.8080 C   0  0  0  0  0  2  0  0  0  0  0  0
  182.0460  175.2090  138.2480 C   0  0  2  0  0  3  0  0  0  0  0  0
  184.3790  177.0700  137.2940 C   0  0  0  0  0  2  0  0  0  0  0  0
  184.0460  175.5490  135.3340 C   0  0  0  0  0  2  0  0  0  0  0  0
  184.2050  173.9120  137.7630 C   0  0  0  0  0  2  0  0  0  0  0  0
  185.9300  172.4880  136.5950 N   0  0  0  0  0  1  0  0  0  0  0  0
  184.6330  172.6150  137.1700 C   0  0  0  0  0  0  0  0  0  0  0  0
  183.8540  171.6280  137.1810 O   0  0  0  0  0  0  0  0  0  0  0  0
  180.6460  174.6460  138.4500 C   0  0  0  0  0  2  0  0  0  0  0  0
  179.4570  172.8800  137.1540 C   0  0  0  0  0  1  0  0  0  0  0  0
  178.9350  175.1820  136.8870 O   0  0  0  0  0  1  0  0  0  0  0  0
  179.9880  174.3010  137.1230 C   0  0  1  0  0  3  0  0  0  0  0  0
  187.5680  177.7410  146.4180 C   0  0  1  0  0  3  0  0  0  0  0  0
  186.0550  177.8070  146.5040 C   0  0  2  0  0  3  0  0  0  0  0  0
  185.5150  176.6020  146.0450 O   0  0  0  0  0  1  0  0  0  0  0  0
  186.8020  178.5730  145.4090 C   0  0  2  0  0  3  0  0  0  0  0  0
  188.1560  178.0300  148.7210 O   0  0  0  0  0  0  0  0  0  0  0  0
  189.4230  178.1750  148.1220 C   0  0  2  0  0  3  0  0  0  0  0  0
  188.1740  178.6680  147.4650 C   0  0  1  0  0  3  0  0  0  0  0  0
  189.9210  176.8110  147.6590 C   0  0  0  0  0  2  0  0  0  0  0  0
  192.2450  176.3950  147.9320 O   0  0  0  0  0  1  0  0  0  0  0  0
  191.3090  176.9530  147.0670 C   0  0  0  0  0  2  0  0  0  0  0  0
  188.0700  178.2430  143.2790 C   0  0  0  0  0  2  0  0  0  0  0  0
  189.0400  177.1010  143.2570 C   0  0  0  0  0  0  0  0  0  0  0  0
  189.7180  177.4630  140.8310 C   0  0  0  0  0  0  0  0  0  0  0  0
  189.2340  176.4590  144.3240 O   0  0  0  0  0  0  0  0  0  0  0  0
  190.5040  175.5890  142.1110 O   0  0  0  0  0  1  0  0  0  0  0  0
  189.7440  176.7110  142.0600 N   0  0  0  0  0  0  0  0  0  0  0  0
  189.0300  178.5110  140.7180 O   0  0  0  0  0  0  0  0  0  0  0  0
  190.5280  177.0080  139.6610 C   0  0  0  0  0  2  0  0  0  0  0  0
  189.7780  177.2260  138.4360 N   0  0  0  0  0  2  0  0  0  0  0  0
  190.4480  176.4770  137.3870 C   0  0  0  0  0  2  0  0  0  0  0  0
  191.6440  175.7550  137.9780 C   0  0  0  0  0  2  0  0  0  0  0  0
  193.3880  174.1160  137.3550 C   0  0  0  0  0  2  0  0  0  0  0  0
  195.4200  173.6020  135.9190 N   0  0  2  0  0  0  0  0  0  0  0  0
  195.3750  175.9620  135.1600 C   0  0  1  0  0  3  0  0  0  0  0  0
  196.2050  172.7070  136.7680 C   0  0  0  0  0  2  0  0  0  0  0  0
  196.0300  171.2500  136.3240 C   0  0  0  0  0  2  0  0  0  0  0  0
  195.8450  174.9680  136.2240 C   0  0  0  0  0  2  0  0  0  0  0  0
  193.5980  171.8860  136.2320 C   0  0  0  0  0  2  0  0  0  0  0  0
  193.5110  176.4130  136.6290 O   0  0  0  0  0  0  0  0  0  0  0  0
  192.6260  175.3550  136.8910 C   0  0  2  0  0  3  0  0  0  0  0  0
  193.9670  173.3760  136.1450 C   0  0  1  0  0  3  0  0  0  0  0  0
  193.8800  176.2640  135.2850 C   0  0  0  0  0  2  0  0  0  0  0  0
  194.6880  171.0100  135.6250 C   0  0  0  0  0  2  0  0  0  0  0  0
  196.1510  177.2370  135.2690 C   0  0  0  0  0  3  0  0  0  0  0  0
  195.6040  178.3130  135.0940 O   0  0  0  0  0  0  0  0  0  0  0  0
  1 39  1  6  0  0  0
  2  7  1  0  0  0  0
  3  5  2  0  0  0  0
  5  8  1  0  0  0  0
  5  4  1  0  0  0  0
  6  3  1  0  0  0  0
  6  2  2  0  0  0  0
  7  4  2  0  0  0  0
  7  1  1  0  0  0  0
  9  8  2  0  0  0  0
 10  6  1  0  0  0  0
 11 10  1  0  0  0  0
 12 11  1  0  0  0  0
 13 12  1  6  0  0  0
 14 16  1  0  0  0  0
 15 13  1  0  0  0  0
 15 18  1  0  0  0  0
 16 21  1  1  0  0  0
 16 18  1  0  0  0  0
 17 19  1  0  0  0  0
 18 25  1  6  0  0  0
 19 13  1  0  0  0  0
 20 14  1  0  0  0  0
 20 17  1  0  0  0  0
 22 23  1  0  0  0  0
 23 24  2  0  0  0  0
 23 21  1  0  0  0  0
 27 28  1  0  0  0  0
 28 26  1  1  0  0  0
 28 25  1  0  0  0  0
 29 30  1  0  0  0  0
 29 35  1  1  0  0  0
 30 31  1  6  0  0  0
 32  1  1  6  0  0  0
 32 29  1  0  0  0  0
 32 30  1  0  0  0  0
 34 36  1  6  0  0  0
 34 33  1  0  0  0  0
 35 34  1  0  0  0  0
 35 33  1  1  0  0  0
 38 36  1  0  0  0  0
 38 37  1  0  0  0  0
 40 39  1  0  0  0  0
 40 42  2  0  0  0  0
 41 44  1  0  0  0  0
 44 43  1  0  0  0  0
 44 40  1  0  0  0  0
 45 41  2  0  0  0  0
 46 41  1  0  0  0  0
 47 46  1  0  0  0  0
 48 49  1  0  0  0  0
 48 47  1  0  0  0  0
 51 59  1  0  0  0  0
 51 55  1  1  0  0  0
 51 53  1  0  0  0  0
 52 62  1  1  0  0  0
 52 60  1  0  0  0  0
 52 55  1  0  0  0  0
 54 53  1  0  0  0  0
 57 58  1  0  0  0  0
 58 50  1  0  0  0  0
 58 49  1  1  0  0  0
 59 56  1  1  0  0  0
 59 50  1  0  0  0  0
 60 57  1  0  0  0  0
 61 56  1  0  0  0  0
 61 54  1  0  0  0  0
 63 62  2  0  0  0  0
M  END
>  <MODEL>
1

>  <REMARK>
 VINA RESULT:      -7.1      0.000      0.000
  Name = 
  22 active torsions:
  status: ('A' for Active; 'I' for Inactive)
    1  A    between atoms: C_1  and  C_50
    2  A    between atoms: C_2  and  N_8
    3  A    between atoms: C_4  and  C_17
    4  A    between atoms: C_4  and  C_54
    5  A    between atoms: C_6  and  C_43
    6  A    between atoms: C_7  and  C_31
    7  A    between atoms: N_8  and  C_59
    8  A    between atoms: C_12  and  C_48
    9  A    between atoms: C_14  and  C_46
   10  A    between atoms: C_14  and  C_61
   11  A    between atoms: C_16  and  C_40
   12  A    between atoms: C_19  and  C_42
   13  A    between atoms: C_24  and  C_27
   14  A    between atoms: C_24  and  C_38
   15  A    between atoms: C_27  and  N_53
   16  A    between atoms: C_33  and  C_51
   17  A    between atoms: C_33  and  C_59
   18  A    between atoms: C_35  and  C_42
   19  A    between atoms: C_43  and  N_53
   20  A    between atoms: C_50  and  C_60
   21  A    between atoms: C_55  and  C_60
   22  A    between atoms: C_58  and  C_60
                            x       y       z     vdW  Elec       q    Type
                         _______ _______ _______ _____ _____    ______ ____

>  <TORSDO>
F 22

$$$$
=
 OpenBabel10222420133D

 63 68  0  0  1  0  0  0  0  0999 V2000
  186.9920  177.8070  144.5790 C   0  0  2  0  0  3  0  0  0  0  0  0
  185.6510  178.0970  142.4880 C   0  0  0  0  0  3  0  0  0  0  0  0
  183.3060  178.6970  142.5520 C   0  0  0  0  0  3  0  0  0  0  0  0
  184.5500  178.4630  144.6120 C   0  0  0  0  0  3  0  0  0  0  0  0
  183.3470  178.7490  143.9470 C   0  0  0  0  0  0  0  0  0  0  0  0
  184.4540  178.3780  141.8200 C   0  0  0  0  0  0  0  0  0  0  0  0
  185.7050  178.1400  143.8840 C   0  0  0  0  0  0  0  0  0  0  0  0
  182.1220  179.0890  144.6820 C   0  0  0  0  0  3  0  0  0  0  0  0
  180.9080  178.9360  144.1650 C   0  0  0  0  0  2  0  0  0  0  0  0
  184.3830  178.2930  140.3300 C   0  0  0  0  0  2  0  0  0  0  0  0
  185.7110  178.6800  139.6870 C   0  0  0  0  0  2  0  0  0  0  0  0
  185.6390  178.5290  138.2420 N   0  0  0  0  0  2  0  0  0  0  0  0
  184.4890  177.6910  137.9380 C   0  0  1  0  0  3  0  0  0  0  0  0
  182.7980  177.2840  134.7710 C   0  0  0  0  0  2  0  0  0  0  0  0
  183.3650  178.5430  137.3420 C   0  0  0  0  0  2  0  0  0  0  0  0
  181.9500  176.8660  135.9880 C   0  0  2  0  0  3  0  0  0  0  0  0
  185.1980  177.0460  135.5930 C   0  0  0  0  0  2  0  0  0  0  0  0
  182.0450  177.7800  137.2270 C   0  0  2  0  0  3  0  0  0  0  0  0
  184.9210  176.5570  137.0100 C   0  0  0  0  0  2  0  0  0  0  0  0
  184.1290  176.5340  134.6360 C   0  0  0  0  0  2  0  0  0  0  0  0
  182.0290  175.3780  136.3270 C   0  0  0  0  0  2  0  0  0  0  0  0
  182.2770  175.1390  138.8280 N   0  0  0  0  0  1  0  0  0  0  0  0
  181.4480  175.1020  137.6710 C   0  0  0  0  0  0  0  0  0  0  0  0
  180.2220  174.8440  137.7860 O   0  0  0  0  0  0  0  0  0  0  0  0
  180.9060  178.7910  137.2060 C   0  0  0  0  0  2  0  0  0  0  0  0
  180.6780  178.5240  139.6730 C   0  0  0  0  0  1  0  0  0  0  0  0
  178.9950  179.5860  138.3770 O   0  0  0  0  0  1  0  0  0  0  0  0
  179.9340  178.5570  138.3520 C   0  0  1  0  0  3  0  0  0  0  0  0
  187.9500  177.6300  146.8820 C   0  0  1  0  0  3  0  0  0  0  0  0
  186.4520  177.4950  147.0730 C   0  0  2  0  0  3  0  0  0  0  0  0
  186.0330  176.2590  146.5710 O   0  0  0  0  0  1  0  0  0  0  0  0
  187.0130  178.4130  145.9830 C   0  0  2  0  0  3  0  0  0  0  0  0
  188.8110  177.8280  149.1070 O   0  0  0  0  0  0  0  0  0  0  0  0
  189.9190  178.2920  148.3710 C   0  0  2  0  0  3  0  0  0  0  0  0
  188.5120  178.5660  147.9450 C   0  0  1  0  0  3  0  0  0  0  0  0
  190.6010  177.1130  147.6880 C   0  0  0  0  0  2  0  0  0  0  0  0
  192.6360  175.8900  147.5980 O   0  0  0  0  0  1  0  0  0  0  0  0
  192.0230  176.9870  148.1950 C   0  0  0  0  0  2  0  0  0  0  0  0
  188.2050  178.2960  143.7880 C   0  0  0  0  0  2  0  0  0  0  0  0
  189.1170  177.1650  143.4240 C   0  0  0  0  0  0  0  0  0  0  0  0
  189.3320  177.8590  140.9850 C   0  0  0  0  0  0  0  0  0  0  0  0
  189.4900  176.3790  144.3360 O   0  0  0  0  0  0  0  0  0  0  0  0
  190.2880  175.8220  141.8220 O   0  0  0  0  0  1  0  0  0  0  0  0
  189.5680  176.9430  142.0720 N   0  0  0  0  0  0  0  0  0  0  0  0
  188.6680  178.9150  141.1510 O   0  0  0  0  0  0  0  0  0  0  0  0
  189.8890  177.5680  139.6300 C   0  0  0  0  0  2  0  0  0  0  0  0
  189.1050  178.2610  138.6220 N   0  0  0  0  0  2  0  0  0  0  0  0
  189.2620  177.5260  137.3790 C   0  0  0  0  0  2  0  0  0  0  0  0
  190.0470  176.2560  137.6490 C   0  0  0  0  0  2  0  0  0  0  0  0
  188.8720  174.2760  136.7450 C   0  0  0  0  0  2  0  0  0  0  0  0
  188.9280  172.3090  135.1390 N   0  0  2  0  0  0  0  0  0  0  0  0
  191.2880  172.8890  134.6440 C   0  0  1  0  0  3  0  0  0  0  0  0
  188.1410  171.2920  135.8370 C   0  0  0  0  0  2  0  0  0  0  0  0
  186.7280  171.2070  135.2490 C   0  0  0  0  0  2  0  0  0  0  0  0
  190.3190  172.1430  135.5630 C   0  0  0  0  0  2  0  0  0  0  0  0
  186.8500  173.7160  135.3780 C   0  0  0  0  0  2  0  0  0  0  0  0
  191.2020  174.6780  136.2660 O   0  0  0  0  0  0  0  0  0  0  0  0
  189.9640  175.3070  136.4670 C   0  0  2  0  0  3  0  0  0  0  0  0
  188.3860  173.6630  135.4290 C   0  0  1  0  0  3  0  0  0  0  0  0
  191.2590  174.3990  134.8940 C   0  0  0  0  0  2  0  0  0  0  0  0
  186.2800  172.5270  134.6130 C   0  0  0  0  0  2  0  0  0  0  0  0
  192.6810  172.3790  134.8420 C   0  0  0  0  0  3  0  0  0  0  0  0
  192.8800  171.2020  135.0890 O   0  0  0  0  0  0  0  0  0  0  0  0
  1 39  1  6  0  0  0
  2  7  1  0  0  0  0
  3  5  2  0  0  0  0
  5  4  1  0  0  0  0
  5  8  1  0  0  0  0
  6  2  2  0  0  0  0
  6  3  1  0  0  0  0
  7  1  1  0  0  0  0
  7  4  2  0  0  0  0
  9  8  2  0  0  0  0
 10  6  1  0  0  0  0
 11 10  1  0  0  0  0
 12 11  1  0  0  0  0
 13 12  1  6  0  0  0
 14 16  1  0  0  0  0
 15 13  1  0  0  0  0
 16 21  1  1  0  0  0
 16 18  1  0  0  0  0
 17 19  1  0  0  0  0
 18 25  1  6  0  0  0
 18 15  1  0  0  0  0
 19 13  1  0  0  0  0
 20 14  1  0  0  0  0
 20 17  1  0  0  0  0
 21 23  1  0  0  0  0
 23 24  2  0  0  0  0
 23 22  1  0  0  0  0
 25 28  1  0  0  0  0
 28 27  1  0  0  0  0
 28 26  1  1  0  0  0
 29 30  1  0  0  0  0
 29 35  1  1  0  0  0
 30 31  1  6  0  0  0
 32  1  1  6  0  0  0
 32 29  1  0  0  0  0
 32 30  1  0  0  0  0
 34 36  1  6  0  0  0
 34 33  1  0  0  0  0
 35 34  1  0  0  0  0
 35 33  1  1  0  0  0
 36 38  1  0  0  0  0
 37 38  1  0  0  0  0
 40 39  1  0  0  0  0
 40 42  2  0  0  0  0
 41 45  2  0  0  0  0
 41 44  1  0  0  0  0
 43 44  1  0  0  0  0
 44 40  1  0  0  0  0
 46 41  1  0  0  0  0
 47 46  1  0  0  0  0
 48 49  1  0  0  0  0
 48 47  1  0  0  0  0
 51 59  1  0  0  0  0
 51 55  1  1  0  0  0
 51 53  1  0  0  0  0
 52 62  1  1  0  0  0
 52 60  1  0  0  0  0
 52 55  1  0  0  0  0
 54 53  1  0  0  0  0
 57 58  1  0  0  0  0
 58 50  1  0  0  0  0
 58 49  1  1  0  0  0
 59 56  1  1  0  0  0
 59 50  1  0  0  0  0
 60 57  1  0  0  0  0
 61 54  1  0  0  0  0
 61 56  1  0  0  0  0
 62 63  2  0  0  0  0
M  END
>  <MODEL>
2

>  <REMARK>
 VINA RESULT:      -6.4      2.322      3.581
  Name = 
  22 active torsions:
  status: ('A' for Active; 'I' for Inactive)
    1  A    between atoms: C_1  and  C_50
    2  A    between atoms: C_2  and  N_8
    3  A    between atoms: C_4  and  C_17
    4  A    between atoms: C_4  and  C_54
    5  A    between atoms: C_6  and  C_43
    6  A    between atoms: C_7  and  C_31
    7  A    between atoms: N_8  and  C_59
    8  A    between atoms: C_12  and  C_48
    9  A    between atoms: C_14  and  C_46
   10  A    between atoms: C_14  and  C_61
   11  A    between atoms: C_16  and  C_40
   12  A    between atoms: C_19  and  C_42
   13  A    between atoms: C_24  and  C_27
   14  A    between atoms: C_24  and  C_38
   15  A    between atoms: C_27  and  N_53
   16  A    between atoms: C_33  and  C_51
   17  A    between atoms: C_33  and  C_59
   18  A    between atoms: C_35  and  C_42
   19  A    between atoms: C_43  and  N_53
   20  A    between atoms: C_50  and  C_60
   21  A    between atoms: C_55  and  C_60
   22  A    between atoms: C_58  and  C_60
                            x       y       z     vdW  Elec       q    Type
                         _______ _______ _______ _____ _____    ______ ____

>  <TORSDO>
F 22

$$$$
=
 OpenBabel10222420133D

 63 68  0  0  1  0  0  0  0  0999 V2000
  190.7070  174.7100  136.0290 C   0  0  2  0  0  3  0  0  0  0  0  0
  188.4850  175.7570  135.5600 C   0  0  0  0  0  3  0  0  0  0  0  0
  186.5780  174.4390  134.8620 C   0  0  0  0  0  3  0  0  0  0  0  0
  188.6890  173.3570  135.3260 C   0  0  0  0  0  3  0  0  0  0  0  0
  187.3420  173.2730  134.9420 C   0  0  0  0  0  0  0  0  0  0  0  0
  187.1420  175.6800  135.1740 C   0  0  0  0  0  0  0  0  0  0  0  0
  189.2620  174.5980  135.6400 C   0  0  0  0  0  0  0  0  0  0  0  0
  186.7150  171.9880  134.6060 C   0  0  0  0  0  3  0  0  0  0  0  0
  185.8110  171.4030  135.3850 C   0  0  0  0  0  2  0  0  0  0  0  0
  186.3200  176.9200  135.0500 C   0  0  0  0  0  2  0  0  0  0  0  0
  185.6530  177.2810  136.3730 C   0  0  0  0  0  2  0  0  0  0  0  0
  184.2340  176.9630  136.3300 N   0  0  0  0  0  2  0  0  0  0  0  0
  183.5650  177.7750  137.3350 C   0  0  1  0  0  3  0  0  0  0  0  0
  180.5780  176.9920  139.2110 C   0  0  0  0  0  2  0  0  0  0  0  0
  182.1040  178.0000  136.9370 C   0  0  0  0  0  2  0  0  0  0  0  0
  180.9090  178.4950  139.1670 C   0  0  2  0  0  3  0  0  0  0  0  0
  182.8290  175.8620  138.8250 C   0  0  0  0  0  2  0  0  0  0  0  0
  181.4080  179.0410  137.8140 C   0  0  2  0  0  3  0  0  0  0  0  0
  183.7050  177.1040  138.7010 C   0  0  0  0  0  2  0  0  0  0  0  0
  181.6870  176.1130  139.8020 C   0  0  0  0  0  2  0  0  0  0  0  0
  181.7280  178.9930  140.3580 C   0  0  0  0  0  2  0  0  0  0  0  0
  181.1410  178.8850  142.8100 N   0  0  0  0  0  1  0  0  0  0  0  0
  180.8460  179.3610  141.5000 C   0  0  0  0  0  0  0  0  0  0  0  0
  179.8450  180.0980  141.3120 O   0  0  0  0  0  0  0  0  0  0  0  0
  180.2360  179.6210  137.0330 C   0  0  0  0  0  2  0  0  0  0  0  0
  178.9360  181.6970  137.4910 C   0  0  0  0  0  1  0  0  0  0  0  0
  181.2760  181.5840  137.8820 O   0  0  0  0  0  1  0  0  0  0  0  0
  180.2690  181.1410  137.0270 C   0  0  1  0  0  3  0  0  0  0  0  0
  192.8360  173.4030  136.1400 C   0  0  1  0  0  3  0  0  0  0  0  0
  192.8240  174.0070  134.7500 C   0  0  2  0  0  3  0  0  0  0  0  0
  193.0370  175.3860  134.8450 O   0  0  0  0  0  1  0  0  0  0  0  0
  191.5160  173.5680  135.4130 C   0  0  2  0  0  3  0  0  0  0  0  0
  194.5750  171.8770  135.5270 O   0  0  0  0  0  0  0  0  0  0  0  0
  194.4460  171.5670  136.8950 C   0  0  2  0  0  3  0  0  0  0  0  0
  193.2700  171.9450  136.0530 C   0  0  1  0  0  3  0  0  0  0  0  0
  195.0550  172.6910  137.7260 C   0  0  0  0  0  2  0  0  0  0  0  0
  197.2390  171.7740  137.5420 O   0  0  0  0  0  1  0  0  0  0  0  0
  196.4890  172.9200  137.2950 C   0  0  0  0  0  2  0  0  0  0  0  0
  190.8870  174.7110  137.5470 C   0  0  0  0  0  2  0  0  0  0  0  0
  191.3280  176.0520  138.0480 C   0  0  0  0  0  0  0  0  0  0  0  0
  188.9910  176.7840  138.7400 C   0  0  0  0  0  0  0  0  0  0  0  0
  192.5590  176.3220  138.0320 O   0  0  0  0  0  0  0  0  0  0  0  0
  190.8780  178.2650  138.8470 O   0  0  0  0  0  1  0  0  0  0  0  0
  190.3950  177.0380  138.5330 N   0  0  0  0  0  0  0  0  0  0  0  0
  188.4800  175.6670  138.4650 O   0  0  0  0  0  0  0  0  0  0  0  0
  188.1140  177.8550  139.3010 C   0  0  0  0  0  2  0  0  0  0  0  0
  188.0690  177.7380  140.7490 N   0  0  0  0  0  2  0  0  0  0  0  0
  187.0780  178.6890  141.2230 C   0  0  0  0  0  2  0  0  0  0  0  0
  186.3660  178.1040  142.4290 C   0  0  0  0  0  2  0  0  0  0  0  0
  187.4130  178.1760  144.6680 C   0  0  0  0  0  2  0  0  0  0  0  0
  189.3650  177.4770  146.1360 N   0  0  2  0  0  0  0  0  0  0  0  0
  190.4530  176.5580  144.1060 C   0  0  1  0  0  3  0  0  0  0  0  0
  189.4880  178.5940  147.0730 C   0  0  0  0  0  2  0  0  0  0  0  0
  188.8690  178.2330  148.4270 C   0  0  0  0  0  2  0  0  0  0  0  0
  190.2050  177.7900  144.9800 C   0  0  0  0  0  2  0  0  0  0  0  0
  186.9980  177.3510  146.9970 C   0  0  0  0  0  2  0  0  0  0  0  0
  188.6150  177.3450  142.7490 O   0  0  0  0  0  0  0  0  0  0  0  0
  187.3490  177.4060  143.3510 C   0  0  2  0  0  3  0  0  0  0  0  0
  187.9360  177.2640  145.7810 C   0  0  1  0  0  3  0  0  0  0  0  0
  189.2220  176.1950  143.2730 C   0  0  0  0  0  2  0  0  0  0  0  0
  187.7660  177.1780  148.3030 C   0  0  0  0  0  2  0  0  0  0  0  0
  191.6160  176.8000  143.1960 C   0  0  0  0  0  3  0  0  0  0  0  0
  191.4850  176.7140  141.9870 O   0  0  0  0  0  0  0  0  0  0  0  0
  1 39  1  1  0  0  0
  2  7  1  0  0  0  0
  3  5  2  0  0  0  0
  3  6  1  0  0  0  0
  4  7  2  0  0  0  0
  5  4  1  0  0  0  0
  6  2  2  0  0  0  0
  7  1  1  0  0  0  0
  8  5  1  0  0  0  0
  8  9  2  0  0  0  0
 10  6  1  0  0  0  0
 10 11  1  0  0  0  0
 12 11  1  0  0  0  0
 13 12  1  6  0  0  0
 13 19  1  0  0  0  0
 14 20  1  0  0  0  0
 15 13  1  0  0  0  0
 15 18  1  0  0  0  0
 16 14  1  0  0  0  0
 16 21  1  1  0  0  0
 17 20  1  0  0  0  0
 18 25  1  6  0  0  0
 18 16  1  0  0  0  0
 19 17  1  0  0  0  0
 21 23  1  0  0  0  0
 23 22  1  0  0  0  0
 24 23  2  0  0  0  0
 28 25  1  0  0  0  0
 28 26  1  1  0  0  0
 28 27  1  0  0  0  0
 29 35  1  6  0  0  0
 30 31  1  1  0  0  0
 30 32  1  0  0  0  0
 30 29  1  0  0  0  0
 32  1  1  1  0  0  0
 32 29  1  0  0  0  0
 33 34  1  0  0  0  0
 34 36  1  1  0  0  0
 35 33  1  6  0  0  0
 35 34  1  0  0  0  0
 38 37  1  0  0  0  0
 38 36  1  0  0  0  0
 39 40  1  0  0  0  0
 40 44  1  0  0  0  0
 41 46  1  0  0  0  0
 42 40  2  0  0  0  0
 44 41  1  0  0  0  0
 44 43  1  0  0  0  0
 45 41  2  0  0  0  0
 46 47  1  0  0  0  0
 47 48  1  0  0  0  0
 48 49  1  0  0  0  0
 51 55  1  6  0  0  0
 51 53  1  0  0  0  0
 52 62  1  6  0  0  0
 52 55  1  0  0  0  0
 53 54  1  0  0  0  0
 56 61  1  0  0  0  0
 57 60  1  0  0  0  0
 57 58  1  0  0  0  0
 58 49  1  6  0  0  0
 58 50  1  0  0  0  0
 59 50  1  6  0  0  0
 59 51  1  0  0  0  0
 59 56  1  0  0  0  0
 60 52  1  0  0  0  0
 61 54  1  0  0  0  0
 63 62  2  0  0  0  0
M  END
>  <MODEL>
3

>  <REMARK>
 VINA RESULT:      -5.8      2.826      9.348
  Name = 
  22 active torsions:
  status: ('A' for Active; 'I' for Inactive)
    1  A    between atoms: C_1  and  C_50
    2  A    between atoms: C_2  and  N_8
    3  A    between atoms: C_4  and  C_17
    4  A    between atoms: C_4  and  C_54
    5  A    between atoms: C_6  and  C_43
    6  A    between atoms: C_7  and  C_31
    7  A    between atoms: N_8  and  C_59
    8  A    between atoms: C_12  and  C_48
    9  A    between atoms: C_14  and  C_46
   10  A    between atoms: C_14  and  C_61
   11  A    between atoms: C_16  and  C_40
   12  A    between atoms: C_19  and  C_42
   13  A    between atoms: C_24  and  C_27
   14  A    between atoms: C_24  and  C_38
   15  A    between atoms: C_27  and  N_53
   16  A    between atoms: C_33  and  C_51
   17  A    between atoms: C_33  and  C_59
   18  A    between atoms: C_35  and  C_42
   19  A    between atoms: C_43  and  N_53
   20  A    between atoms: C_50  and  C_60
   21  A    between atoms: C_55  and  C_60
   22  A    between atoms: C_58  and  C_60
                            x       y       z     vdW  Elec       q    Type
                         _______ _______ _______ _____ _____    ______ ____

>  <TORSDO>
F 22

$$$$
=
 OpenBabel10222420133D

 63 68  0  0  1  0  0  0  0  0999 V2000
  186.1800  178.6780  143.9120 C   0  0  2  0  0  3  0  0  0  0  0  0
  187.2990  178.3190  141.7050 C   0  0  0  0  0  3  0  0  0  0  0  0
  189.7050  178.1350  141.5110 C   0  0  0  0  0  3  0  0  0  0  0  0
  188.6890  178.4530  143.6810 C   0  0  0  0  0  3  0  0  0  0  0  0
  189.8370  178.2790  142.8940 C   0  0  0  0  0  0  0  0  0  0  0  0
  188.4400  178.1490  140.9140 C   0  0  0  0  0  0  0  0  0  0  0  0
  187.4170  178.4690  143.0890 C   0  0  0  0  0  0  0  0  0  0  0  0
  191.1810  178.2600  143.4850 C   0  0  0  0  0  3  0  0  0  0  0  0
  191.6710  179.2720  144.1920 C   0  0  0  0  0  2  0  0  0  0  0  0
  188.3200  178.0270  139.4300 C   0  0  0  0  0  2  0  0  0  0  0  0
  188.9500  176.7340  138.9250 C   0  0  0  0  0  2  0  0  0  0  0  0
  190.3480  176.9490  138.5830 N   0  0  0  0  0  2  0  0  0  0  0  0
  190.8610  175.7150  138.0080 C   0  0  1  0  0  3  0  0  0  0  0  0
  193.1350  175.3250  135.2270 C   0  0  0  0  0  2  0  0  0  0  0  0
  190.5370  175.6610  136.5130 C   0  0  0  0  0  2  0  0  0  0  0  0
  192.3100  174.0630  135.5380 C   0  0  2  0  0  3  0  0  0  0  0  0
  193.1720  176.5870  137.4410 C   0  0  0  0  0  2  0  0  0  0  0  0
  190.8270  174.2920  135.8970 C   0  0  2  0  0  3  0  0  0  0  0  0
  192.3600  175.6140  138.2880 C   0  0  0  0  0  2  0  0  0  0  0  0
  193.9870  175.8330  136.3980 C   0  0  0  0  0  2  0  0  0  0  0  0
  193.0080  173.0680  136.4660 C   0  0  0  0  0  2  0  0  0  0  0  0
  194.8610  171.6670  135.4800 N   0  0  0  0  0  1  0  0  0  0  0  0
  193.4710  171.8680  135.7150 C   0  0  0  0  0  0  0  0  0  0  0  0
  192.6360  171.0260  135.2940 O   0  0  0  0  0  0  0  0  0  0  0  0
  189.9690  174.1360  134.6490 C   0  0  0  0  0  2  0  0  0  0  0  0
  188.7600  172.6610  136.2530 C   0  0  0  0  0  1  0  0  0  0  0  0
  187.6500  174.4150  135.1000 O   0  0  0  0  0  1  0  0  0  0  0  0
  188.6480  173.4520  134.9640 C   0  0  1  0  0  3  0  0  0  0  0  0
  187.8440  177.7850  145.5510 C   0  0  1  0  0  3  0  0  0  0  0  0
  186.8120  176.6830  145.4060 C   0  0  2  0  0  3  0  0  0  0  0  0
  186.9390  176.0980  144.1420 O   0  0  0  0  0  1  0  0  0  0  0  0
  186.3890  178.1530  145.3330 C   0  0  2  0  0  3  0  0  0  0  0  0
  188.3050  176.7020  147.6360 O   0  0  0  0  0  0  0  0  0  0  0  0
  189.5050  177.4180  147.4580 C   0  0  2  0  0  3  0  0  0  0  0  0
  188.1830  177.9660  147.0260 C   0  0  1  0  0  3  0  0  0  0  0  0
  190.3340  176.7500  146.3680 C   0  0  0  0  0  2  0  0  0  0  0  0
  191.9930  177.1300  148.0260 O   0  0  0  0  0  1  0  0  0  0  0  0
  191.6720  176.3240  146.9380 C   0  0  0  0  0  2  0  0  0  0  0  0
  184.9620  178.0010  143.2850 C   0  0  0  0  0  2  0  0  0  0  0  0
  183.6880  178.6760  143.6910 C   0  0  0  0  0  0  0  0  0  0  0  0
  182.6520  178.5600  141.3690 C   0  0  0  0  0  0  0  0  0  0  0  0
  183.5310  178.9810  144.9040 O   0  0  0  0  0  0  0  0  0  0  0  0
  181.5900  179.7180  143.1850 O   0  0  0  0  0  1  0  0  0  0  0  0
  182.6490  178.9960  142.7430 N   0  0  0  0  0  0  0  0  0  0  0  0
  183.6080  177.8890  140.8970 O   0  0  0  0  0  0  0  0  0  0  0  0
  181.5010  178.8930  140.4780 C   0  0  0  0  0  2  0  0  0  0  0  0
  181.9800  179.6220  139.3170 N   0  0  0  0  0  2  0  0  0  0  0  0
  181.2700  179.1010  138.1620 C   0  0  0  0  0  2  0  0  0  0  0  0
  181.0750  177.6060  138.3320 C   0  0  0  0  0  2  0  0  0  0  0  0
  182.2650  175.4800  137.9090 C   0  0  0  0  0  2  0  0  0  0  0  0
  184.0500  174.2610  136.5750 N   0  0  2  0  0  0  0  0  0  0  0  0
  184.6850  176.4470  135.5890 C   0  0  1  0  0  3  0  0  0  0  0  0
  184.5490  173.2670  137.5240 C   0  0  0  0  0  2  0  0  0  0  0  0
  183.9570  171.8860  137.2190 C   0  0  0  0  0  2  0  0  0  0  0  0
  184.8550  175.4700  136.7540 C   0  0  0  0  0  2  0  0  0  0  0  0
  181.8130  173.1850  137.0130 C   0  0  0  0  0  2  0  0  0  0  0  0
  183.0420  177.5600  136.9670 O   0  0  0  0  0  0  0  0  0  0  0  0
  181.8910  176.8340  137.3110 C   0  0  2  0  0  3  0  0  0  0  0  0
  182.5960  174.4890  136.7900 C   0  0  1  0  0  3  0  0  0  0  0  0
  183.3430  177.1780  135.6520 C   0  0  0  0  0  2  0  0  0  0  0  0
  182.5980  171.9750  136.5180 C   0  0  0  0  0  2  0  0  0  0  0  0
  185.7980  177.4480  135.5910 C   0  0  0  0  0  3  0  0  0  0  0  0
  186.2590  177.8600  136.6410 O   0  0  0  0  0  0  0  0  0  0  0  0
  1 39  1  6  0  0  0
  2  7  1  0  0  0  0
  3  5  2  0  0  0  0
  5  8  1  0  0  0  0
  5  4  1  0  0  0  0
  6  3  1  0  0  0  0
  6  2  2  0  0  0  0
  7  4  2  0  0  0  0
  7  1  1  0  0  0  0
  8  9  2  0  0  0  0
 10  6  1  0  0  0  0
 11 10  1  0  0  0  0
 12 11  1  0  0  0  0
 13 19  1  0  0  0  0
 13 12  1  6  0  0  0
 14 16  1  0  0  0  0
 14 20  1  0  0  0  0
 15 13  1  0  0  0  0
 16 18  1  0  0  0  0
 16 21  1  1  0  0  0
 17 19  1  0  0  0  0
 18 25  1  6  0  0  0
 18 15  1  0  0  0  0
 20 17  1  0  0  0  0
 22 23  1  0  0  0  0
 23 21  1  0  0  0  0
 24 23  2  0  0  0  0
 25 28  1  0  0  0  0
 28 27  1  0  0  0  0
 28 26  1  1  0  0  0
 29 35  1  1  0  0  0
 30 31  1  6  0  0  0
 30 29  1  0  0  0  0
 32  1  1  6  0  0  0
 32 30  1  0  0  0  0
 32 29  1  0  0  0  0
 34 36  1  6  0  0  0
 34 33  1  0  0  0  0
 35 34  1  0  0  0  0
 35 33  1  1  0  0  0
 36 38  1  0  0  0  0
 38 37  1  0  0  0  0
 39 40  1  0  0  0  0
 40 42  2  0  0  0  0
 41 44  1  0  0  0  0
 44 43  1  0  0  0  0
 44 40  1  0  0  0  0
 45 41  2  0  0  0  0
 46 41  1  0  0  0  0
 47 46  1  0  0  0  0
 48 49  1  0  0  0  0
 48 47  1  0  0  0  0
 51 55  1  1  0  0  0
 51 59  1  0  0  0  0
 51 53  1  0  0  0  0
 52 62  1  1  0  0  0
 52 60  1  0  0  0  0
 52 55  1  0  0  0  0
 54 53  1  0  0  0  0
 57 58  1  0  0  0  0
 58 50  1  0  0  0  0
 58 49  1  1  0  0  0
 59 56  1  1  0  0  0
 59 50  1  0  0  0  0
 60 57  1  0  0  0  0
 61 56  1  0  0  0  0
 61 54  1  0  0  0  0
 62 63  2  0  0  0  0
M  END
>  <MODEL>
4

>  <REMARK>
 VINA RESULT:      -5.4      2.415      8.188
  Name = 
  22 active torsions:
  status: ('A' for Active; 'I' for Inactive)
    1  A    between atoms: C_1  and  C_50
    2  A    between atoms: C_2  and  N_8
    3  A    between atoms: C_4  and  C_17
    4  A    between atoms: C_4  and  C_54
    5  A    between atoms: C_6  and  C_43
    6  A    between atoms: C_7  and  C_31
    7  A    between atoms: N_8  and  C_59
    8  A    between atoms: C_12  and  C_48
    9  A    between atoms: C_14  and  C_46
   10  A    between atoms: C_14  and  C_61
   11  A    between atoms: C_16  and  C_40
   12  A    between atoms: C_19  and  C_42
   13  A    between atoms: C_24  and  C_27
   14  A    between atoms: C_24  and  C_38
   15  A    between atoms: C_27  and  N_53
   16  A    between atoms: C_33  and  C_51
   17  A    between atoms: C_33  and  C_59
   18  A    between atoms: C_35  and  C_42
   19  A    between atoms: C_43  and  N_53
   20  A    between atoms: C_50  and  C_60
   21  A    between atoms: C_55  and  C_60
   22  A    between atoms: C_58  and  C_60
                            x       y       z     vdW  Elec       q    Type
                         _______ _______ _______ _____ _____    ______ ____

>  <TORSDO>
F 22

$$$$
=
 OpenBabel10222420133D

 63 68  0  0  1  0  0  0  0  0999 V2000
  190.9850  175.1520  136.3730 C   0  0  2  0  0  3  0  0  0  0  0  0
  188.7070  175.9320  135.6970 C   0  0  0  0  0  3  0  0  0  0  0  0
  187.0270  174.3970  134.8710 C   0  0  0  0  0  3  0  0  0  0  0  0
  189.2000  173.5690  135.5330 C   0  0  0  0  0  3  0  0  0  0  0  0
  187.9090  173.3260  135.0400 C   0  0  0  0  0  0  0  0  0  0  0  0
  187.4190  175.6970  135.2020 C   0  0  0  0  0  0  0  0  0  0  0  0
  189.6000  174.8710  135.8670 C   0  0  0  0  0  0  0  0  0  0  0  0
  187.4620  171.9740  134.6810 C   0  0  0  0  0  3  0  0  0  0  0  0
  186.2920  171.4770  135.0660 C   0  0  0  0  0  2  0  0  0  0  0  0
  186.4750  176.8340  134.9830 C   0  0  0  0  0  2  0  0  0  0  0  0
  185.8210  177.2740  136.2880 C   0  0  0  0  0  2  0  0  0  0  0  0
  184.9240  176.2390  136.7800 N   0  0  0  0  0  2  0  0  0  0  0  0
  183.7200  176.8900  137.2730 C   0  0  1  0  0  3  0  0  0  0  0  0
  182.8550  177.6970  140.6870 C   0  0  0  0  0  2  0  0  0  0  0  0
  183.0370  176.0040  138.3170 C   0  0  0  0  0  2  0  0  0  0  0  0
  181.6470  177.6500  139.7330 C   0  0  2  0  0  3  0  0  0  0  0  0
  184.8250  178.1880  139.1470 C   0  0  0  0  0  2  0  0  0  0  0  0
  181.6440  176.5070  138.6970 C   0  0  2  0  0  3  0  0  0  0  0  0
  184.0810  178.2710  137.8200 C   0  0  0  0  0  2  0  0  0  0  0  0
  183.9460  178.6960  140.2830 C   0  0  0  0  0  2  0  0  0  0  0  0
  181.2620  179.0050  139.1390 C   0  0  0  0  0  2  0  0  0  0  0  0
  180.6860  180.1940  141.2890 N   0  0  0  0  0  1  0  0  0  0  0  0
  180.2840  179.7150  140.0090 C   0  0  0  0  0  0  0  0  0  0  0  0
  179.1050  179.9000  139.6130 O   0  0  0  0  0  0  0  0  0  0  0  0
  180.8380  175.3320  139.2330 C   0  0  0  0  0  2  0  0  0  0  0  0
  179.4270  175.9130  137.2630 C   0  0  0  0  0  1  0  0  0  0  0  0
  178.9770  173.9970  138.5910 O   0  0  0  0  0  1  0  0  0  0  0  0
  179.4310  175.3120  138.6560 C   0  0  1  0  0  3  0  0  0  0  0  0
  193.3270  174.2800  136.4490 C   0  0  1  0  0  3  0  0  0  0  0  0
  193.1790  174.8730  135.0620 C   0  0  2  0  0  3  0  0  0  0  0  0
  193.1240  176.2670  135.1610 O   0  0  0  0  0  1  0  0  0  0  0  0
  191.9900  174.1880  135.7410 C   0  0  2  0  0  3  0  0  0  0  0  0
  195.4240  173.1390  136.2790 O   0  0  0  0  0  0  0  0  0  0  0  0
  194.9430  172.5920  137.4850 C   0  0  2  0  0  3  0  0  0  0  0  0
  194.0320  172.9320  136.3490 C   0  0  1  0  0  3  0  0  0  0  0  0
  195.0450  173.6380  138.5890 C   0  0  0  0  0  2  0  0  0  0  0  0
  196.5020  175.2640  139.5260 O   0  0  0  0  0  1  0  0  0  0  0  0
  196.4430  174.2220  138.6060 C   0  0  0  0  0  2  0  0  0  0  0  0
  191.0620  175.0540  137.8960 C   0  0  0  0  0  2  0  0  0  0  0  0
  191.5480  176.3330  138.5060 C   0  0  0  0  0  0  0  0  0  0  0  0
  189.2300  177.1090  139.2130 C   0  0  0  0  0  0  0  0  0  0  0  0
  192.7890  176.5510  138.5310 O   0  0  0  0  0  0  0  0  0  0  0  0
  191.1730  178.4960  139.4650 O   0  0  0  0  0  1  0  0  0  0  0  0
  190.6460  177.3180  139.0490 N   0  0  0  0  0  0  0  0  0  0  0  0
  188.6790  176.0380  138.8440 O   0  0  0  0  0  0  0  0  0  0  0  0
  188.3860  178.1700  139.8400 C   0  0  0  0  0  2  0  0  0  0  0  0
  188.2590  177.9120  141.2640 N   0  0  0  0  0  2  0  0  0  0  0  0
  187.2560  178.8300  141.7760 C   0  0  0  0  0  2  0  0  0  0  0  0
  186.4690  178.1420  142.8760 C   0  0  0  0  0  2  0  0  0  0  0  0
  187.4370  178.0870  145.1510 C   0  0  0  0  0  2  0  0  0  0  0  0
  189.3100  177.2590  146.6550 N   0  0  2  0  0  0  0  0  0  0  0  0
  190.4360  176.3820  144.6270 C   0  0  1  0  0  3  0  0  0  0  0  0
  189.4390  178.3330  147.6400 C   0  0  0  0  0  2  0  0  0  0  0  0
  188.7600  177.9410  148.9570 C   0  0  0  0  0  2  0  0  0  0  0  0
  190.2010  177.5860  145.5410 C   0  0  0  0  0  2  0  0  0  0  0  0
  186.9110  177.1860  147.4280 C   0  0  0  0  0  2  0  0  0  0  0  0
  188.6770  177.2890  143.2420 O   0  0  0  0  0  0  0  0  0  0  0  0
  187.3930  177.3720  143.8020 C   0  0  2  0  0  3  0  0  0  0  0  0
  187.8880  177.1130  146.2430 C   0  0  1  0  0  3  0  0  0  0  0  0
  189.2230  176.0980  143.7390 C   0  0  0  0  0  2  0  0  0  0  0  0
  187.6250  176.9330  148.7520 C   0  0  0  0  0  2  0  0  0  0  0  0
  191.6380  176.6170  143.7670 C   0  0  0  0  0  3  0  0  0  0  0  0
  191.7380  176.0740  142.6800 O   0  0  0  0  0  0  0  0  0  0  0  0
  1 39  1  1  0  0  0
  2  7  1  0  0  0  0
  3  5  2  0  0  0  0
  3  6  1  0  0  0  0
  4  7  2  0  0  0  0
  5  4  1  0  0  0  0
  6  2  2  0  0  0  0
  7  1  1  0  0  0  0
  8  5  1  0  0  0  0
  8  9  2  0  0  0  0
 10  6  1  0  0  0  0
 10 11  1  0  0  0  0
 11 12  1  0  0  0  0
 13 12  1  1  0  0  0
 13 19  1  0  0  0  0
 13 15  1  0  0  0  0
 15 18  1  0  0  0  0
 16 21  1  6  0  0  0
 16 14  1  0  0  0  0
 17 20  1  0  0  0  0
 18 25  1  1  0  0  0
 18 16  1  0  0  0  0
 19 17  1  0  0  0  0
 20 14  1  0  0  0  0
 21 23  1  0  0  0  0
 23 22  1  0  0  0  0
 24 23  2  0  0  0  0
 27 28  1  0  0  0  0
 28 26  1  6  0  0  0
 28 25  1  0  0  0  0
 29 35  1  6  0  0  0
 30 31  1  1  0  0  0
 30 32  1  0  0  0  0
 30 29  1  0  0  0  0
 32  1  1  1  0  0  0
 32 29  1  0  0  0  0
 33 34  1  0  0  0  0
 34 36  1  1  0  0  0
 35 33  1  6  0  0  0
 35 34  1  0  0  0  0
 36 38  1  0  0  0  0
 38 37  1  0  0  0  0
 39 40  1  0  0  0  0
 40 42  2  0  0  0  0
 40 44  1  0  0  0  0
 41 46  1  0  0  0  0
 44 41  1  0  0  0  0
 44 43  1  0  0  0  0
 45 41  2  0  0  0  0
 46 47  1  0  0  0  0
 47 48  1  0  0  0  0
 48 49  1  0  0  0  0
 51 55  1  6  0  0  0
 51 53  1  0  0  0  0
 52 62  1  6  0  0  0
 52 55  1  0  0  0  0
 53 54  1  0  0  0  0
 56 61  1  0  0  0  0
 57 60  1  0  0  0  0
 57 58  1  0  0  0  0
 58 49  1  6  0  0  0
 58 50  1  0  0  0  0
 59 50  1  6  0  0  0
 59 51  1  0  0  0  0
 59 56  1  0  0  0  0
 60 52  1  0  0  0  0
 61 54  1  0  0  0  0
 63 62  2  0  0  0  0
M  END
>  <MODEL>
5

>  <REMARK>
 VINA RESULT:      -5.0      2.456      9.122
  Name = 
  22 active torsions:
  status: ('A' for Active; 'I' for Inactive)
    1  A    between atoms: C_1  and  C_50
    2  A    between atoms: C_2  and  N_8
    3  A    between atoms: C_4  and  C_17
    4  A    between atoms: C_4  and  C_54
    5  A    between atoms: C_6  and  C_43
    6  A    between atoms: C_7  and  C_31
    7  A    between atoms: N_8  and  C_59
    8  A    between atoms: C_12  and  C_48
    9  A    between atoms: C_14  and  C_46
   10  A    between atoms: C_14  and  C_61
   11  A    between atoms: C_16  and  C_40
   12  A    between atoms: C_19  and  C_42
   13  A    between atoms: C_24  and  C_27
   14  A    between atoms: C_24  and  C_38
   15  A    between atoms: C_27  and  N_53
   16  A    between atoms: C_33  and  C_51
   17  A    between atoms: C_33  and  C_59
   18  A    between atoms: C_35  and  C_42
   19  A    between atoms: C_43  and  N_53
   20  A    between atoms: C_50  and  C_60
   21  A    between atoms: C_55  and  C_60
   22  A    between atoms: C_58  and  C_60
                            x       y       z     vdW  Elec       q    Type
                         _______ _______ _______ _____ _____    ______ ____

>  <TORSDO>
F 22

$$$$
=
 OpenBabel10222420133D

 63 68  0  0  1  0  0  0  0  0999 V2000
  181.1950  176.8100  139.4320 C   0  0  2  0  0  3  0  0  0  0  0  0
  181.8120  175.4770  137.4080 C   0  0  0  0  0  3  0  0  0  0  0  0
  180.7060  175.8070  135.2790 C   0  0  0  0  0  3  0  0  0  0  0  0
  180.0790  177.1520  137.1870 C   0  0  0  0  0  3  0  0  0  0  0  0
  179.9190  176.8190  135.8340 C   0  0  0  0  0  0  0  0  0  0  0  0
  181.6550  175.1380  136.0590 C   0  0  0  0  0  0  0  0  0  0  0  0
  181.0280  176.4850  137.9760 C   0  0  0  0  0  0  0  0  0  0  0  0
  178.9340  177.4990  134.9840 C   0  0  0  0  0  3  0  0  0  0  0  0
  179.0340  178.7810  134.6480 C   0  0  0  0  0  2  0  0  0  0  0  0
  182.4630  174.0350  135.4580 C   0  0  0  0  0  2  0  0  0  0  0  0
  183.9290  174.4310  135.3190 C   0  0  0  0  0  2  0  0  0  0  0  0
  184.7060  173.3250  134.7820 N   0  0  0  0  0  2  0  0  0  0  0  0
  186.1000  173.7380  134.7400 C   0  0  1  0  0  3  0  0  0  0  0  0
  188.6790  173.1460  137.2000 C   0  0  0  0  0  2  0  0  0  0  0  0
  186.4380  174.5640  135.9830 C   0  0  0  0  0  2  0  0  0  0  0  0
  188.9910  174.3090  136.2390 C   0  0  2  0  0  3  0  0  0  0  0  0
  187.0550  171.6890  135.8840 C   0  0  0  0  0  2  0  0  0  0  0  0
  187.8080  175.2360  135.8900 C   0  0  2  0  0  3  0  0  0  0  0  0
  186.9880  172.5030  134.5970 C   0  0  0  0  0  2  0  0  0  0  0  0
  188.4400  171.7980  136.5100 C   0  0  0  0  0  2  0  0  0  0  0  0
  189.8260  173.9120  135.0230 C   0  0  0  0  0  2  0  0  0  0  0  0
  191.7550  174.8540  136.3500 N   0  0  0  0  0  1  0  0  0  0  0  0
  191.2830  173.9860  135.3240 C   0  0  0  0  0  0  0  0  0  0  0  0
  192.0980  173.2770  134.6790 O   0  0  0  0  0  0  0  0  0  0  0  0
  187.8150  176.4450  136.8160 C   0  0  0  0  0  2  0  0  0  0  0  0
  188.9170  178.6630  137.0880 C   0  0  0  0  0  1  0  0  0  0  0  0
  189.2560  177.3370  135.1480 O   0  0  0  0  0  1  0  0  0  0  0  0
  188.3010  177.6940  136.0980 C   0  0  1  0  0  3  0  0  0  0  0  0
  180.4670  178.3300  141.2780 C   0  0  1  0  0  3  0  0  0  0  0  0
  179.1790  177.8760  140.6190 C   0  0  2  0  0  3  0  0  0  0  0  0
  178.9600  176.5280  140.9180 O   0  0  0  0  0  1  0  0  0  0  0  0
  180.4420  178.0940  139.7810 C   0  0  2  0  0  3  0  0  0  0  0  0
  179.3130  180.1010  142.4030 O   0  0  0  0  0  0  0  0  0  0  0  0
  180.5970  180.2460  142.9660 C   0  0  2  0  0  3  0  0  0  0  0  0
  180.3960  179.8300  141.5430 C   0  0  1  0  0  3  0  0  0  0  0  0
  180.8420  179.1160  143.9590 C   0  0  0  0  0  2  0  0  0  0  0  0
  179.7110  177.1660  144.7100 O   0  0  0  0  0  1  0  0  0  0  0  0
  179.5180  178.5000  144.3620 C   0  0  0  0  0  2  0  0  0  0  0  0
  182.6680  176.9550  139.8140 C   0  0  0  0  0  2  0  0  0  0  0  0
  183.2890  178.1540  139.1650 C   0  0  0  0  0  0  0  0  0  0  0  0
  185.0810  178.4390  140.9500 C   0  0  0  0  0  0  0  0  0  0  0  0
  182.8300  178.5410  138.0570 O   0  0  0  0  0  0  0  0  0  0  0  0
  184.7890  180.0220  139.1680 O   0  0  0  0  0  1  0  0  0  0  0  0
  184.3790  178.8790  139.7700 N   0  0  0  0  0  0  0  0  0  0  0  0
  184.7460  177.3880  141.5580 O   0  0  0  0  0  0  0  0  0  0  0  0
  186.2360  179.2300  141.4690 C   0  0  0  0  0  2  0  0  0  0  0  0
  187.1910  178.3380  142.1030 N   0  0  0  0  0  2  0  0  0  0  0  0
  188.3790  178.3200  141.2670 C   0  0  0  0  0  2  0  0  0  0  0  0
  189.6110  178.3330  142.1530 C   0  0  0  0  0  2  0  0  0  0  0  0
  188.5360  178.3560  144.3800 C   0  0  0  0  0  2  0  0  0  0  0  0
  188.4750  177.3950  146.7310 N   0  0  2  0  0  0  0  0  0  0  0  0
  190.5450  176.1450  146.1830 C   0  0  1  0  0  3  0  0  0  0  0  0
  188.0240  178.5290  147.5380 C   0  0  0  0  0  2  0  0  0  0  0  0
  186.5370  178.3890  147.8810 C   0  0  0  0  0  2  0  0  0  0  0  0
  189.9360  177.4580  146.6780 C   0  0  0  0  0  2  0  0  0  0  0  0
  186.3410  177.7890  145.4470 C   0  0  0  0  0  2  0  0  0  0  0  0
  190.6060  177.1770  144.0000 O   0  0  0  0  0  0  0  0  0  0  0  0
  189.3780  177.5230  143.4160 C   0  0  2  0  0  3  0  0  0  0  0  0
  187.8370  177.4390  145.3880 C   0  0  1  0  0  3  0  0  0  0  0  0
  190.3710  175.9710  144.6730 C   0  0  0  0  0  2  0  0  0  0  0  0
  185.7730  177.5610  146.8430 C   0  0  0  0  0  2  0  0  0  0  0  0
  192.0020  176.0930  146.5250 C   0  0  0  0  0  3  0  0  0  0  0  0
  192.3630  175.8260  147.6580 O   0  0  0  0  0  0  0  0  0  0  0  0
  1 39  1  6  0  0  0
  2  7  1  0  0  0  0
  3  5  2  0  0  0  0
  3  6  1  0  0  0  0
  4  7  2  0  0  0  0
  5  4  1  0  0  0  0
  6  2  2  0  0  0  0
  7  1  1  0  0  0  0
  8  5  1  0  0  0  0
  9  8  2  0  0  0  0
 10  6  1  0  0  0  0
 11 10  1  0  0  0  0
 12 11  1  0  0  0  0
 13 12  1  1  0  0  0
 13 15  1  0  0  0  0
 16 21  1  6  0  0  0
 16 14  1  0  0  0  0
 17 20  1  0  0  0  0
 18 15  1  0  0  0  0
 18 16  1  0  0  0  0
 18 25  1  1  0  0  0
 19 13  1  0  0  0  0
 19 17  1  0  0  0  0
 20 14  1  0  0  0  0
 21 23  1  0  0  0  0
 23 22  1  0  0  0  0
 24 23  2  0  0  0  0
 27 28  1  0  0  0  0
 28 25  1  0  0  0  0
 28 26  1  1  0  0  0
 29 35  1  6  0  0  0
 30 31  1  1  0  0  0
 30 29  1  0  0  0  0
 32  1  1  1  0  0  0
 32 30  1  0  0  0  0
 32 29  1  0  0  0  0
 33 34  1  0  0  0  0
 34 36  1  1  0  0  0
 35 33  1  1  0  0  0
 35 34  1  0  0  0  0
 36 38  1  0  0  0  0
 38 37  1  0  0  0  0
 40 44  1  0  0  0  0
 40 39  1  0  0  0  0
 41 46  1  0  0  0  0
 41 45  2  0  0  0  0
 42 40  2  0  0  0  0
 43 44  1  0  0  0  0
 44 41  1  0  0  0  0
 46 47  1  0  0  0  0
 48 47  1  0  0  0  0
 48 49  1  0  0  0  0
 51 55  1  6  0  0  0
 51 53  1  0  0  0  0
 52 62  1  6  0  0  0
 52 55  1  0  0  0  0
 53 54  1  0  0  0  0
 56 61  1  0  0  0  0
 57 60  1  0  0  0  0
 58 49  1  6  0  0  0
 58 57  1  0  0  0  0
 58 50  1  0  0  0  0
 59 50  1  6  0  0  0
 59 56  1  0  0  0  0
 59 51  1  0  0  0  0
 60 52  1  0  0  0  0
 61 54  1  0  0  0  0
 62 63  2  0  0  0  0
M  END
>  <MODEL>
6

>  <REMARK>
 VINA RESULT:      -5.0      2.994      9.069
  Name = 
  22 active torsions:
  status: ('A' for Active; 'I' for Inactive)
    1  A    between atoms: C_1  and  C_50
    2  A    between atoms: C_2  and  N_8
    3  A    between atoms: C_4  and  C_17
    4  A    between atoms: C_4  and  C_54
    5  A    between atoms: C_6  and  C_43
    6  A    between atoms: C_7  and  C_31
    7  A    between atoms: N_8  and  C_59
    8  A    between atoms: C_12  and  C_48
    9  A    between atoms: C_14  and  C_46
   10  A    between atoms: C_14  and  C_61
   11  A    between atoms: C_16  and  C_40
   12  A    between atoms: C_19  and  C_42
   13  A    between atoms: C_24  and  C_27
   14  A    between atoms: C_24  and  C_38
   15  A    between atoms: C_27  and  N_53
   16  A    between atoms: C_33  and  C_51
   17  A    between atoms: C_33  and  C_59
   18  A    between atoms: C_35  and  C_42
   19  A    between atoms: C_43  and  N_53
   20  A    between atoms: C_50  and  C_60
   21  A    between atoms: C_55  and  C_60
   22  A    between atoms: C_58  and  C_60
                            x       y       z     vdW  Elec       q    Type
                         _______ _______ _______ _____ _____    ______ ____

>  <TORSDO>
F 22

$$$$
=
 OpenBabel10222420133D

 63 68  0  0  1  0  0  0  0  0999 V2000
  188.4670  178.3930  144.4290 C   0  0  2  0  0  3  0  0  0  0  0  0
  190.0690  178.0670  142.5360 C   0  0  0  0  0  3  0  0  0  0  0  0
  191.8100  176.3860  142.6150 C   0  0  0  0  0  3  0  0  0  0  0  0
  190.2770  176.6270  144.4690 C   0  0  0  0  0  3  0  0  0  0  0  0
  191.3700  175.9760  143.8760 C   0  0  0  0  0  0  0  0  0  0  0  0
  191.1600  177.4250  141.9400 C   0  0  0  0  0  0  0  0  0  0  0  0
  189.6220  177.6710  143.7990 C   0  0  0  0  0  0  0  0  0  0  0  0
  192.0770  174.8820  144.5540 C   0  0  0  0  0  3  0  0  0  0  0  0
  192.3120  174.8780  145.8610 C   0  0  0  0  0  2  0  0  0  0  0  0
  191.6650  177.8730  140.6080 C   0  0  0  0  0  2  0  0  0  0  0  0
  192.9430  177.1370  140.2210 C   0  0  0  0  0  2  0  0  0  0  0  0
  193.0180  176.9730  138.7770 N   0  0  0  0  0  2  0  0  0  0  0  0
  191.9190  176.1120  138.3690 C   0  0  1  0  0  3  0  0  0  0  0  0
  190.4120  175.8160  135.0980 C   0  0  0  0  0  2  0  0  0  0  0  0
  190.7960  176.9530  137.7580 C   0  0  0  0  0  2  0  0  0  0  0  0
  189.5200  175.3020  136.2440 C   0  0  2  0  0  3  0  0  0  0  0  0
  192.7740  175.6220  136.0340 C   0  0  0  0  0  2  0  0  0  0  0  0
  189.5140  176.1500  137.5330 C   0  0  2  0  0  3  0  0  0  0  0  0
  192.4440  175.0470  137.4070 C   0  0  0  0  0  2  0  0  0  0  0  0
  191.7770  175.1240  134.9950 C   0  0  0  0  0  2  0  0  0  0  0  0
  189.6400  173.8020  136.5080 C   0  0  0  0  0  2  0  0  0  0  0  0
  187.8770  172.1570  137.2540 N   0  0  0  0  0  1  0  0  0  0  0  0
  188.3350  173.1140  136.3040 C   0  0  0  0  0  0  0  0  0  0  0  0
  187.6310  173.3830  135.2960 O   0  0  0  0  0  0  0  0  0  0  0  0
  188.3390  177.1180  137.5040 C   0  0  0  0  0  2  0  0  0  0  0  0
  186.0160  176.4600  136.8890 C   0  0  0  0  0  1  0  0  0  0  0  0
  187.2950  177.9240  135.5250 O   0  0  0  0  0  1  0  0  0  0  0  0
  187.3920  176.8090  136.3550 C   0  0  1  0  0  3  0  0  0  0  0  0
  187.0800  178.3020  146.5070 C   0  0  1  0  0  3  0  0  0  0  0  0
  188.3230  177.4990  146.8350 C   0  0  2  0  0  3  0  0  0  0  0  0
  189.4130  178.3670  146.9570 O   0  0  0  0  0  1  0  0  0  0  0  0
  187.7420  177.4810  145.4190 C   0  0  2  0  0  3  0  0  0  0  0  0
  185.0460  178.4350  147.7620 O   0  0  0  0  0  0  0  0  0  0  0  0
  184.5350  178.0590  146.5040 C   0  0  2  0  0  3  0  0  0  0  0  0
  185.8500  177.5560  147.0100 C   0  0  1  0  0  3  0  0  0  0  0  0
  184.6020  179.2500  145.5560 C   0  0  0  0  0  2  0  0  0  0  0  0
  183.5940  180.1310  143.5920 O   0  0  0  0  0  1  0  0  0  0  0  0
  183.3960  179.2350  144.6380 C   0  0  0  0  0  2  0  0  0  0  0  0
  187.4810  178.9060  143.3800 C   0  0  0  0  0  2  0  0  0  0  0  0
  186.4290  177.8860  143.0700 C   0  0  0  0  0  0  0  0  0  0  0  0
  185.6930  179.0100  140.9090 C   0  0  0  0  0  0  0  0  0  0  0  0
  186.3090  176.8950  143.8400 O   0  0  0  0  0  0  0  0  0  0  0  0
  184.5480  177.1020  141.8100 O   0  0  0  0  0  1  0  0  0  0  0  0
  185.5480  178.0080  141.9350 N   0  0  0  0  0  0  0  0  0  0  0  0
  186.5990  179.8830  140.9690 O   0  0  0  0  0  0  0  0  0  0  0  0
  184.7640  179.0210  139.7390 C   0  0  0  0  0  2  0  0  0  0  0  0
  183.5590  179.7570  140.0800 N   0  0  0  0  0  2  0  0  0  0  0  0
  182.4800  179.2030  139.2820 C   0  0  0  0  0  2  0  0  0  0  0  0
  183.0600  178.2420  138.2610 C   0  0  0  0  0  2  0  0  0  0  0  0
  182.0010  176.3560  137.0610 C   0  0  0  0  0  2  0  0  0  0  0  0
  180.5240  174.2940  137.2040 N   0  0  2  0  0  0  0  0  0  0  0  0
  180.0660  174.8900  139.5680 C   0  0  1  0  0  3  0  0  0  0  0  0
  179.8630  174.2720  135.9000 C   0  0  0  0  0  2  0  0  0  0  0  0
  180.5200  173.2370  134.9800 C   0  0  0  0  0  2  0  0  0  0  0  0
  179.6850  175.0910  138.1000 C   0  0  0  0  0  2  0  0  0  0  0  0
  182.6470  174.2640  135.8440 C   0  0  0  0  0  2  0  0  0  0  0  0
  181.3960  176.8930  139.3340 O   0  0  0  0  0  0  0  0  0  0  0  0
  182.4670  176.8540  138.4270 C   0  0  2  0  0  3  0  0  0  0  0  0
  181.9060  174.8280  137.0670 C   0  0  1  0  0  3  0  0  0  0  0  0
  181.3620  175.6220  139.9240 C   0  0  0  0  0  2  0  0  0  0  0  0
  181.9880  172.9860  135.3370 C   0  0  0  0  0  2  0  0  0  0  0  0
  178.9620  175.3710  140.4560 C   0  0  0  0  0  3  0  0  0  0  0  0
  178.9360  175.0630  141.6350 O   0  0  0  0  0  0  0  0  0  0  0  0
  1 39  1  6  0  0  0
  2  7  1  0  0  0  0
  3  5  2  0  0  0  0
  5  4  1  0  0  0  0
  5  8  1  0  0  0  0
  6  2  2  0  0  0  0
  6  3  1  0  0  0  0
  7  1  1  0  0  0  0
  7  4  2  0  0  0  0
  8  9  2  0  0  0  0
 10  6  1  0  0  0  0
 11 10  1  0  0  0  0
 12 11  1  0  0  0  0
 13 12  1  6  0  0  0
 14 16  1  0  0  0  0
 15 13  1  0  0  0  0
 16 21  1  1  0  0  0
 16 18  1  0  0  0  0
 17 19  1  0  0  0  0
 18 25  1  6  0  0  0
 18 15  1  0  0  0  0
 19 13  1  0  0  0  0
 20 14  1  0  0  0  0
 20 17  1  0  0  0  0
 23 21  1  0  0  0  0
 23 22  1  0  0  0  0
 24 23  2  0  0  0  0
 27 28  1  0  0  0  0
 28 26  1  1  0  0  0
 28 25  1  0  0  0  0
 29 30  1  0  0  0  0
 29 35  1  1  0  0  0
 30 31  1  6  0  0  0
 32  1  1  6  0  0  0
 32 29  1  0  0  0  0
 32 30  1  0  0  0  0
 34 36  1  6  0  0  0
 34 35  1  0  0  0  0
 34 33  1  0  0  0  0
 35 33  1  1  0  0  0
 37 38  1  0  0  0  0
 38 36  1  0  0  0  0
 40 39  1  0  0  0  0
 40 42  2  0  0  0  0
 41 45  2  0  0  0  0
 41 44  1  0  0  0  0
 43 44  1  0  0  0  0
 44 40  1  0  0  0  0
 46 47  1  0  0  0  0
 46 41  1  0  0  0  0
 48 47  1  0  0  0  0
 49 48  1  0  0  0  0
 50 59  1  0  0  0  0
 50 58  1  0  0  0  0
 51 53  1  6  0  0  0
 51 55  1  0  0  0  0
 52 60  1  0  0  0  0
 52 62  1  1  0  0  0
 54 61  1  0  0  0  0
 54 53  1  0  0  0  0
 55 52  1  0  0  0  0
 57 60  1  0  0  0  0
 58 49  1  6  0  0  0
 58 57  1  0  0  0  0
 59 56  1  6  0  0  0
 59 51  1  0  0  0  0
 61 56  1  0  0  0  0
 62 63  2  0  0  0  0
M  END
>  <MODEL>
7

>  <REMARK>
 VINA RESULT:      -4.5      2.808      9.124
  Name = 
  22 active torsions:
  status: ('A' for Active; 'I' for Inactive)
    1  A    between atoms: C_1  and  C_50
    2  A    between atoms: C_2  and  N_8
    3  A    between atoms: C_4  and  C_17
    4  A    between atoms: C_4  and  C_54
    5  A    between atoms: C_6  and  C_43
    6  A    between atoms: C_7  and  C_31
    7  A    between atoms: N_8  and  C_59
    8  A    between atoms: C_12  and  C_48
    9  A    between atoms: C_14  and  C_46
   10  A    between atoms: C_14  and  C_61
   11  A    between atoms: C_16  and  C_40
   12  A    between atoms: C_19  and  C_42
   13  A    between atoms: C_24  and  C_27
   14  A    between atoms: C_24  and  C_38
   15  A    between atoms: C_27  and  N_53
   16  A    between atoms: C_33  and  C_51
   17  A    between atoms: C_33  and  C_59
   18  A    between atoms: C_35  and  C_42
   19  A    between atoms: C_43  and  N_53
   20  A    between atoms: C_50  and  C_60
   21  A    between atoms: C_55  and  C_60
   22  A    between atoms: C_58  and  C_60
                            x       y       z     vdW  Elec       q    Type
                         _______ _______ _______ _____ _____    ______ ____

>  <TORSDO>
F 22

$$$$
=
 OpenBabel10222420133D

 63 68  0  0  1  0  0  0  0  0999 V2000
  184.0580  178.8790  139.1160 C   0  0  2  0  0  3  0  0  0  0  0  0
  186.2890  178.6740  140.2270 C   0  0  0  0  0  3  0  0  0  0  0  0
  186.5050  178.5280  142.6340 C   0  0  0  0  0  3  0  0  0  0  0  0
  184.3140  178.6950  141.6260 C   0  0  0  0  0  3  0  0  0  0  0  0
  185.1160  178.5830  142.7720 C   0  0  0  0  0  0  0  0  0  0  0  0
  187.0940  178.5670  141.3670 C   0  0  0  0  0  0  0  0  0  0  0  0
  184.8980  178.7360  140.3510 C   0  0  0  0  0  0  0  0  0  0  0  0
  184.5330  178.5400  144.1190 C   0  0  0  0  0  3  0  0  0  0  0  0
  183.2340  178.6990  144.3470 C   0  0  0  0  0  2  0  0  0  0  0  0
  188.5820  178.5400  141.2400 C   0  0  0  0  0  2  0  0  0  0  0  0
  189.2570  178.5920  142.6060 C   0  0  0  0  0  2  0  0  0  0  0  0
  189.7010  177.2650  143.0050 N   0  0  0  0  0  2  0  0  0  0  0  0
  190.3000  177.3730  144.3260 C   0  0  1  0  0  3  0  0  0  0  0  0
  191.2540  174.7060  146.5700 C   0  0  0  0  0  2  0  0  0  0  0  0
  189.4360  176.6370  145.3530 C   0  0  0  0  0  2  0  0  0  0  0  0
  191.0690  176.0680  147.2650 C   0  0  2  0  0  3  0  0  0  0  0  0
  191.7790  175.3230  144.1540 C   0  0  0  0  0  2  0  0  0  0  0  0
  189.8680  176.9130  146.7930 C   0  0  2  0  0  3  0  0  0  0  0  0
  191.7320  176.8420  144.2760 C   0  0  0  0  0  2  0  0  0  0  0  0
  192.2960  174.7010  145.4450 C   0  0  0  0  0  2  0  0  0  0  0  0
  192.3570  176.8780  147.4110 C   0  0  0  0  0  2  0  0  0  0  0  0
  192.7120  178.0800  149.6020 N   0  0  0  0  0  1  0  0  0  0  0  0
  192.8250  176.8920  148.8250 C   0  0  0  0  0  0  0  0  0  0  0  0
  193.3150  175.8520  149.3370 O   0  0  0  0  0  0  0  0  0  0  0  0
  188.6770  176.6650  147.7090 C   0  0  0  0  0  2  0  0  0  0  0  0
  189.0670  178.9810  148.5420 C   0  0  0  0  0  1  0  0  0  0  0  0
  187.2820  178.4790  147.0590 O   0  0  0  0  0  1  0  0  0  0  0  0
  188.0160  177.9690  148.1280 C   0  0  1  0  0  3  0  0  0  0  0  0
  181.8760  178.2970  138.0440 C   0  0  1  0  0  3  0  0  0  0  0  0
  181.4990  179.0100  139.3280 C   0  0  2  0  0  3  0  0  0  0  0  0
  181.8080  180.3690  139.2080 O   0  0  0  0  0  1  0  0  0  0  0  0
  182.7420  178.1170  139.2750 C   0  0  2  0  0  3  0  0  0  0  0  0
  179.9050  177.3800  137.0390 O   0  0  0  0  0  0  0  0  0  0  0  0
  180.8840  176.5340  136.4810 C   0  0  2  0  0  3  0  0  0  0  0  0
  180.9950  177.0640  137.8750 C   0  0  1  0  0  3  0  0  0  0  0  0
  181.6630  177.2980  135.4170 C   0  0  0  0  0  2  0  0  0  0  0  0
  182.7050  175.1670  135.2800 O   0  0  0  0  0  1  0  0  0  0  0  0
  182.9140  176.5240  135.0520 C   0  0  0  0  0  2  0  0  0  0  0  0
  184.7940  178.3860  137.8700 C   0  0  0  0  0  2  0  0  0  0  0  0
  184.8660  176.8900  137.8310 C   0  0  0  0  0  0  0  0  0  0  0  0
  187.2520  176.8290  136.9480 C   0  0  0  0  0  0  0  0  0  0  0  0
  183.8790  176.2310  138.2560 O   0  0  0  0  0  0  0  0  0  0  0  0
  185.9340  174.8390  137.2050 O   0  0  0  0  0  1  0  0  0  0  0  0
  186.0150  176.1880  137.3150 N   0  0  0  0  0  0  0  0  0  0  0  0
  187.3890  178.0790  137.0240 O   0  0  0  0  0  0  0  0  0  0  0  0
  188.4080  176.0090  136.4780 C   0  0  0  0  0  2  0  0  0  0  0  0
  188.6370  174.9140  137.4040 N   0  0  0  0  0  2  0  0  0  0  0  0
  189.9360  174.3480  137.0830 C   0  0  0  0  0  2  0  0  0  0  0  0
  190.8320  175.4410  136.5320 C   0  0  0  0  0  2  0  0  0  0  0  0
  192.2960  173.4520  136.4000 C   0  0  0  0  0  2  0  0  0  0  0  0
  194.6000  172.4660  136.8140 N   0  0  2  0  0  0  0  0  0  0  0  0
  195.2170  174.5930  137.9310 C   0  0  1  0  0  3  0  0  0  0  0  0
  194.3080  171.0700  137.1350 C   0  0  0  0  0  2  0  0  0  0  0  0
  194.5870  170.1690  135.9260 C   0  0  0  0  0  2  0  0  0  0  0  0
  194.5740  173.2120  138.0730 C   0  0  0  0  0  2  0  0  0  0  0  0
  193.3540  171.9720  134.6790 C   0  0  0  0  0  2  0  0  0  0  0  0
  192.9750  175.4300  137.6030 O   0  0  0  0  0  0  0  0  0  0  0  0
  192.2760  174.9780  136.4730 C   0  0  2  0  0  3  0  0  0  0  0  0
  193.6270  172.9750  135.8110 C   0  0  1  0  0  3  0  0  0  0  0  0
  194.3060  175.5700  137.1860 C   0  0  0  0  0  2  0  0  0  0  0  0
  194.4520  170.9170  134.5970 C   0  0  0  0  0  2  0  0  0  0  0  0
  195.5440  175.1490  139.2820 C   0  0  0  0  0  3  0  0  0  0  0  0
  196.4600  174.6840  139.9380 O   0  0  0  0  0  0  0  0  0  0  0  0
  1 39  1  6  0  0  0
  1  7  1  0  0  0  0
  2  7  2  0  0  0  0
  2  6  1  0  0  0  0
  3  5  1  0  0  0  0
  4  5  2  0  0  0  0
  5  8  1  0  0  0  0
  6  3  2  0  0  0  0
  7  4  1  0  0  0  0
  8  9  2  0  0  0  0
 10  6  1  0  0  0  0
 10 11  1  0  0  0  0
 11 12  1  0  0  0  0
 13 12  1  6  0  0  0
 13 15  1  0  0  0  0
 14 16  1  0  0  0  0
 15 18  1  0  0  0  0
 16 21  1  6  0  0  0
 17 19  1  0  0  0  0
 17 20  1  0  0  0  0
 18 16  1  0  0  0  0
 18 25  1  1  0  0  0
 19 13  1  0  0  0  0
 20 14  1  0  0  0  0
 21 23  1  0  0  0  0
 23 24  2  0  0  0  0
 23 22  1  0  0  0  0
 25 28  1  0  0  0  0
 27 28  1  0  0  0  0
 28 26  1  6  0  0  0
 29 35  1  1  0  0  0
 29 32  1  0  0  0  0
 29 30  1  0  0  0  0
 30 31  1  6  0  0  0
 32  1  1  6  0  0  0
 32 30  1  0  0  0  0
 34 36  1  6  0  0  0
 34 33  1  0  0  0  0
 34 35  1  0  0  0  0
 35 33  1  6  0  0  0
 38 37  1  0  0  0  0
 38 36  1  0  0  0  0
 40 39  1  0  0  0  0
 40 42  2  0  0  0  0
 41 45  2  0  0  0  0
 41 44  1  0  0  0  0
 43 44  1  0  0  0  0
 44 40  1  0  0  0  0
 46 41  1  0  0  0  0
 46 47  1  0  0  0  0
 48 47  1  0  0  0  0
 49 48  1  0  0  0  0
 50 58  1  0  0  0  0
 51 53  1  1  0  0  0
 51 55  1  0  0  0  0
 52 55  1  0  0  0  0
 52 62  1  1  0  0  0
 54 53  1  0  0  0  0
 58 49  1  1  0  0  0
 58 57  1  0  0  0  0
 59 56  1  6  0  0  0
 59 50  1  0  0  0  0
 59 51  1  0  0  0  0
 60 57  1  0  0  0  0
 60 52  1  0  0  0  0
 61 56  1  0  0  0  0
 61 54  1  0  0  0  0
 62 63  2  0  0  0  0
M  END
>  <MODEL>
8

>  <REMARK>
 VINA RESULT:      -4.5      2.460      8.891
  Name = 
  22 active torsions:
  status: ('A' for Active; 'I' for Inactive)
    1  A    between atoms: C_1  and  C_50
    2  A    between atoms: C_2  and  N_8
    3  A    between atoms: C_4  and  C_17
    4  A    between atoms: C_4  and  C_54
    5  A    between atoms: C_6  and  C_43
    6  A    between atoms: C_7  and  C_31
    7  A    between atoms: N_8  and  C_59
    8  A    between atoms: C_12  and  C_48
    9  A    between atoms: C_14  and  C_46
   10  A    between atoms: C_14  and  C_61
   11  A    between atoms: C_16  and  C_40
   12  A    between atoms: C_19  and  C_42
   13  A    between atoms: C_24  and  C_27
   14  A    between atoms: C_24  and  C_38
   15  A    between atoms: C_27  and  N_53
   16  A    between atoms: C_33  and  C_51
   17  A    between atoms: C_33  and  C_59
   18  A    between atoms: C_35  and  C_42
   19  A    between atoms: C_43  and  N_53
   20  A    between atoms: C_50  and  C_60
   21  A    between atoms: C_55  and  C_60
   22  A    between atoms: C_58  and  C_60
                            x       y       z     vdW  Elec       q    Type
                         _______ _______ _______ _____ _____    ______ ____

>  <TORSDO>
F 22

$$$$
=
 OpenBabel10222420133D

 63 68  0  0  1  0  0  0  0  0999 V2000
  188.7270  177.6760  145.1860 C   0  0  2  0  0  3  0  0  0  0  0  0
  187.7940  177.9650  142.8840 C   0  0  0  0  0  3  0  0  0  0  0  0
  185.5470  178.7880  142.5130 C   0  0  0  0  0  3  0  0  0  0  0  0
  186.3950  178.5610  144.7660 C   0  0  0  0  0  3  0  0  0  0  0  0
  185.3580  178.9200  143.8910 C   0  0  0  0  0  0  0  0  0  0  0  0
  186.7630  178.3170  142.0060 C   0  0  0  0  0  0  0  0  0  0  0  0
  187.6160  178.0870  144.2650 C   0  0  0  0  0  0  0  0  0  0  0  0
  184.0690  179.4170  144.3870 C   0  0  0  0  0  3  0  0  0  0  0  0
  183.1380  178.6200  144.8990 C   0  0  0  0  0  2  0  0  0  0  0  0
  186.9350  178.1500  140.5320 C   0  0  0  0  0  2  0  0  0  0  0  0
  188.3080  178.6300  140.0750 C   0  0  0  0  0  2  0  0  0  0  0  0
  188.3320  178.7990  138.6300 N   0  0  0  0  0  2  0  0  0  0  0  0
  187.6930  177.6360  138.0340 C   0  0  1  0  0  3  0  0  0  0  0  0
  186.7010  177.1520  134.5940 C   0  0  0  0  0  2  0  0  0  0  0  0
  186.3870  178.0500  137.3520 C   0  0  0  0  0  2  0  0  0  0  0  0
  185.9860  176.2160  135.5850 C   0  0  2  0  0  3  0  0  0  0  0  0
  188.8650  177.7660  135.7910 C   0  0  0  0  0  2  0  0  0  0  0  0
  185.5420  176.8510  136.9190 C   0  0  2  0  0  3  0  0  0  0  0  0
  188.6700  176.9620  137.0710 C   0  0  0  0  0  2  0  0  0  0  0  0
  188.2310  177.0450  134.6080 C   0  0  0  0  0  2  0  0  0  0  0  0
  186.6560  174.8530  135.7590 C   0  0  0  0  0  2  0  0  0  0  0  0
  185.4920  172.8940  134.6760 N   0  0  0  0  0  1  0  0  0  0  0  0
  185.6470  173.7590  135.7970 C   0  0  0  0  0  0  0  0  0  0  0  0
  184.9360  173.5910  136.8210 O   0  0  0  0  0  0  0  0  0  0  0  0
  184.0910  177.2980  136.8160 C   0  0  0  0  0  2  0  0  0  0  0  0
  182.0090  177.8610  138.0650 C   0  0  0  0  0  1  0  0  0  0  0  0
  183.3080  175.9490  138.6120 O   0  0  0  0  0  1  0  0  0  0  0  0
  183.4010  177.2680  138.1710 C   0  0  1  0  0  3  0  0  0  0  0  0
  189.4180  177.6360  147.5890 C   0  0  1  0  0  3  0  0  0  0  0  0
  187.9160  177.4290  147.6130 C   0  0  2  0  0  3  0  0  0  0  0  0
  187.6200  176.1540  147.1210 O   0  0  0  0  0  1  0  0  0  0  0  0
  188.5550  178.3340  146.5560 C   0  0  2  0  0  3  0  0  0  0  0  0
  190.0170  177.9610  149.8830 O   0  0  0  0  0  0  0  0  0  0  0  0
  191.1710  178.4670  149.2530 C   0  0  2  0  0  3  0  0  0  0  0  0
  189.8060  178.6410  148.6670 C   0  0  1  0  0  3  0  0  0  0  0  0
  191.9900  177.3090  148.6940 C   0  0  0  0  0  2  0  0  0  0  0  0
  193.2210  177.6190  150.7030 O   0  0  0  0  0  1  0  0  0  0  0  0
  193.3520  177.2860  149.3580 C   0  0  0  0  0  2  0  0  0  0  0  0
  190.0990  178.0300  144.6120 C   0  0  0  0  0  2  0  0  0  0  0  0
  190.9130  176.8030  144.3390 C   0  0  0  0  0  0  0  0  0  0  0  0
  191.4590  177.4560  141.9400 C   0  0  0  0  0  0  0  0  0  0  0  0
  191.1000  175.9850  145.2800 O   0  0  0  0  0  0  0  0  0  0  0  0
  192.0910  175.3300  142.8610 O   0  0  0  0  0  1  0  0  0  0  0  0
  191.4760  176.5250  143.0410 N   0  0  0  0  0  0  0  0  0  0  0  0
  190.9010  178.5800  142.0430 O   0  0  0  0  0  0  0  0  0  0  0  0
  192.1200  177.0980  140.6500 C   0  0  0  0  0  2  0  0  0  0  0  0
  191.1170  176.6670  139.6920 N   0  0  0  0  0  2  0  0  0  0  0  0
  191.7960  175.8520  138.6990 C   0  0  0  0  0  2  0  0  0  0  0  0
  192.5190  176.7600  137.7220 C   0  0  0  0  0  2  0  0  0  0  0  0
  193.0890  174.4650  137.0010 C   0  0  0  0  0  2  0  0  0  0  0  0
  194.7030  172.9620  135.7400 N   0  0  2  0  0  0  0  0  0  0  0  0
  196.1820  174.9320  135.4540 C   0  0  1  0  0  3  0  0  0  0  0  0
  194.6330  171.7050  136.4860 C   0  0  0  0  0  2  0  0  0  0  0  0
  193.7520  170.6900  135.7500 C   0  0  0  0  0  2  0  0  0  0  0  0
  195.7600  173.7680  136.3520 C   0  0  0  0  0  2  0  0  0  0  0  0
  192.2110  172.6620  135.4990 C   0  0  0  0  0  2  0  0  0  0  0  0
  194.6570  176.2810  136.7540 O   0  0  0  0  0  0  0  0  0  0  0  0
  193.2940  175.9480  136.7010 C   0  0  2  0  0  3  0  0  0  0  0  0
  193.3760  173.6340  135.7470 C   0  0  1  0  0  3  0  0  0  0  0  0
  195.1450  176.0580  135.4600 C   0  0  0  0  0  2  0  0  0  0  0  0
  192.6980  171.3630  134.8660 C   0  0  0  0  0  2  0  0  0  0  0  0
  197.5050  175.4720  135.8980 C   0  0  0  0  0  3  0  0  0  0  0  0
  197.7780  175.5440  137.0840 O   0  0  0  0  0  0  0  0  0  0  0  0
  1 39  1  6  0  0  0
  2  7  1  0  0  0  0
  3  5  2  0  0  0  0
  5  8  1  0  0  0  0
  5  4  1  0  0  0  0
  6  3  1  0  0  0  0
  6  2  2  0  0  0  0
  7  4  2  0  0  0  0
  7  1  1  0  0  0  0
  8  9  2  0  0  0  0
 10  6  1  0  0  0  0
 11 10  1  0  0  0  0
 12 11  1  0  0  0  0
 13 12  1  6  0  0  0
 14 20  1  0  0  0  0
 14 16  1  0  0  0  0
 15 13  1  0  0  0  0
 16 21  1  1  0  0  0
 16 18  1  0  0  0  0
 17 19  1  0  0  0  0
 18 25  1  6  0  0  0
 18 15  1  0  0  0  0
 19 13  1  0  0  0  0
 20 17  1  0  0  0  0
 21 23  1  0  0  0  0
 22 23  1  0  0  0  0
 23 24  2  0  0  0  0
 25 28  1  0  0  0  0
 28 26  1  6  0  0  0
 28 27  1  0  0  0  0
 29 30  1  0  0  0  0
 29 35  1  1  0  0  0
 30 31  1  6  0  0  0
 32  1  1  6  0  0  0
 32 29  1  0  0  0  0
 32 30  1  0  0  0  0
 34 36  1  6  0  0  0
 34 33  1  0  0  0  0
 35 34  1  0  0  0  0
 35 33  1  1  0  0  0
 36 38  1  0  0  0  0
 38 37  1  0  0  0  0
 40 39  1  0  0  0  0
 40 42  2  0  0  0  0
 41 45  2  0  0  0  0
 41 44  1  0  0  0  0
 43 44  1  0  0  0  0
 44 40  1  0  0  0  0
 46 41  1  0  0  0  0
 47 46  1  0  0  0  0
 48 47  1  0  0  0  0
 49 48  1  0  0  0  0
 51 59  1  0  0  0  0
 51 55  1  1  0  0  0
 51 53  1  0  0  0  0
 52 60  1  0  0  0  0
 52 62  1  1  0  0  0
 52 55  1  0  0  0  0
 54 53  1  0  0  0  0
 58 57  1  0  0  0  0
 58 50  1  0  0  0  0
 58 49  1  1  0  0  0
 59 56  1  1  0  0  0
 59 50  1  0  0  0  0
 60 57  1  0  0  0  0
 61 56  1  0  0  0  0
 61 54  1  0  0  0  0
 62 63  2  0  0  0  0
M  END
>  <MODEL>
9

>  <REMARK>
 VINA RESULT:      -4.5      2.160      2.955
  Name = 
  22 active torsions:
  status: ('A' for Active; 'I' for Inactive)
    1  A    between atoms: C_1  and  C_50
    2  A    between atoms: C_2  and  N_8
    3  A    between atoms: C_4  and  C_17
    4  A    between atoms: C_4  and  C_54
    5  A    between atoms: C_6  and  C_43
    6  A    between atoms: C_7  and  C_31
    7  A    between atoms: N_8  and  C_59
    8  A    between atoms: C_12  and  C_48
    9  A    between atoms: C_14  and  C_46
   10  A    between atoms: C_14  and  C_61
   11  A    between atoms: C_16  and  C_40
   12  A    between atoms: C_19  and  C_42
   13  A    between atoms: C_24  and  C_27
   14  A    between atoms: C_24  and  C_38
   15  A    between atoms: C_27  and  N_53
   16  A    between atoms: C_33  and  C_51
   17  A    between atoms: C_33  and  C_59
   18  A    between atoms: C_35  and  C_42
   19  A    between atoms: C_43  and  N_53
   20  A    between atoms: C_50  and  C_60
   21  A    between atoms: C_55  and  C_60
   22  A    between atoms: C_58  and  C_60
                            x       y       z     vdW  Elec       q    Type
                         _______ _______ _______ _____ _____    ______ ____

>  <TORSDO>
F 22

$$$$
