=
 OpenBabel10222419213D

 49 56  0  0  1  0  0  0  0  0999 V2000
  189.1220  177.3960  140.1800 C   0  0  2  0  0  3  0  0  0  0  0  0
  188.8230  179.1920  136.8540 C   0  0  0  0  0  2  0  0  0  0  0  0
  188.3420  177.8290  136.3560 C   0  0  0  0  0  2  0  0  0  0  0  0
  189.4470  179.0400  138.2370 C   0  0  0  0  0  2  0  0  0  0  0  0
  187.1590  177.8920  138.6330 C   0  0  0  0  0  2  0  0  0  0  0  0
  187.3860  177.1220  137.3290 C   0  0  1  0  0  3  0  0  0  0  0  0
  188.4630  178.4200  139.2500 C   0  0  1  0  0  3  0  0  0  0  0  0
  186.0440  176.8590  136.6610 C   0  0  0  0  0  2  0  0  0  0  0  0
  184.9070  177.5210  137.4250 C   0  0  0  0  0  2  0  0  0  0  0  0
  183.8190  176.5150  137.7630 C   0  0  0  0  0  2  0  0  0  0  0  0
  183.3830  175.8640  136.5920 O   0  0  0  0  0  0  0  0  0  0  0  0
  180.6210  173.8330  136.9800 N   0  0  0  0  0  2  0  0  0  0  0  0
  184.1760  173.8060  137.6330 C   0  0  0  0  0  2  0  0  0  0  0  0
  183.1980  171.5430  136.9810 C   0  0  0  0  0  2  0  0  0  0  0  0
  182.1910  172.1640  136.0100 C   0  0  2  0  0  3  0  0  0  0  0  0
  182.8020  173.7080  135.2250 S   0  0  0  0  0  0  0  0  0  0  0  0
  183.0370  174.5160  136.8600 C   0  0  2  0  0  0  0  0  0  0  0  0
  181.7420  174.4110  137.7130 C   0  0  0  0  0  2  0  0  0  0  0  0
  180.8780  172.4110  136.7530 C   0  0  0  0  0  2  0  0  0  0  0  0
  184.4700  172.3750  137.1730 C   0  0  0  0  0  2  0  0  0  0  0  0
  188.5980  177.5620  141.5970 C   0  0  0  0  0  2  0  0  0  0  0  0
  188.9340  176.3330  142.4260 C   0  0  0  0  0  2  0  0  0  0  0  0
  189.0520  176.6460  143.9260 C   0  0  1  0  0  3  0  0  0  0  0  0
  190.4620  176.6490  144.5520 C   0  0  2  0  0  3  0  0  0  0  0  0
  191.3300  177.7780  144.0070 C   0  0  0  0  0  0  0  0  0  0  0  0
  191.5230  176.2990  143.6530 C   0  0  0  0  0  2  0  0  0  0  0  0
  191.6520  179.0600  143.9040 C   0  0  0  0  0  2  0  0  0  0  0  0
  188.2290  177.8610  144.3400 C   0  0  1  0  0  3  0  0  0  0  0  0
  186.8310  177.4100  144.7240 C   0  0  1  0  0  3  0  0  0  0  0  0
  187.8390  177.7540  145.7980 C   0  0  0  0  0  2  0  0  0  0  0  0
  185.9090  178.5220  144.5690 N   0  0  0  0  0  2  0  0  0  0  0  0
  184.8130  178.0450  143.7540 C   0  0  0  0  0  2  0  0  0  0  0  0
  184.4340  178.4480  141.3510 C   0  0  0  0  0  2  0  0  0  0  0  0
  184.4590  179.0940  142.7210 C   0  0  0  0  0  3  0  0  0  0  0  0
  185.6250  179.2750  141.7750 C   0  0  0  0  0  2  0  0  0  0  0  0
  190.6470  177.4980  140.1750 C   0  0  0  0  0  2  0  0  0  0  0  0
  191.2450  176.6400  139.1120 C   0  0  0  0  0  0  0  0  0  0  0  0
  192.9260  175.8670  137.7300 C   0  0  0  0  0  0  0  0  0  0  0  0
  191.6110  174.8820  137.4050 S   0  0  0  0  0  0  0  0  0  0  0  0
  190.5470  175.5990  138.4970 C   0  0  0  0  0  3  0  0  0  0  0  0
  192.5740  176.7960  138.6980 C   0  0  0  0  0  3  0  0  0  0  0  0
  194.1920  175.7580  137.0660 N   0  0  0  0  0  2  0  0  0  0  0  0
  197.0830  172.6830  137.4670 C   0  0  0  0  0  3  0  0  0  0  0  0
  195.8460  172.5530  138.1130 C   0  0  0  0  0  3  0  0  0  0  0  0
  198.8920  173.9730  135.8810 Cl  0  0  0  0  0  0  0  0  0  0  0  0
  197.3510  173.8160  136.6930 C   0  0  0  0  0  0  0  0  0  0  0  0
  196.3880  174.8210  136.5670 C   0  0  0  0  0  3  0  0  0  0  0  0
  195.1540  174.7070  137.2190 C   0  0  0  0  0  0  0  0  0  0  0  0
  194.8850  173.5590  137.9870 C   0  0  0  0  0  3  0  0  0  0  0  0
  1 36  1  1  0  0  0
  1 21  1  0  0  0  0
  2  4  1  0  0  0  0
  3  2  1  0  0  0  0
  3  6  1  0  0  0  0
  4  7  1  0  0  0  0
  5  7  1  0  0  0  0
  6  8  1  6  0  0  0
  6  5  1  0  0  0  0
  7  1  1  6  0  0  0
  8  9  1  0  0  0  0
  9 10  1  0  0  0  0
 11 10  1  0  0  0  0
 12 18  1  0  0  0  0
 14 20  1  0  0  0  0
 15 19  1  1  0  0  0
 15 14  1  0  0  0  0
 16 15  1  0  0  0  0
 16 17  1  0  0  0  0
 17 11  1  6  0  0  0
 17 13  1  0  0  0  0
 17 18  1  0  0  0  0
 19 12  1  0  0  0  0
 20 13  1  0  0  0  0
 21 22  1  0  0  0  0
 23 22  1  6  0  0  0
 24 23  1  6  0  0  0
 25 24  1  0  0  0  0
 26 25  1  0  0  0  0
 26 24  1  0  0  0  0
 27 25  2  0  0  0  0
 28 23  1  1  0  0  0
 28 29  1  0  0  0  0
 28 30  1  0  0  0  0
 29 31  1  6  0  0  0
 29 30  1  0  0  0  0
 32 31  1  0  0  0  0
 33 35  1  0  0  0  0
 33 34  1  0  0  0  0
 34 32  1  0  0  0  0
 35 34  1  0  0  0  0
 37 36  1  0  0  0  0
 38 41  2  0  0  0  0
 39 38  1  0  0  0  0
 39 40  1  0  0  0  0
 40 37  2  0  0  0  0
 41 37  1  0  0  0  0
 42 48  1  0  0  0  0
 42 38  1  0  0  0  0
 43 44  1  0  0  0  0
 45 46  1  0  0  0  0
 46 43  2  0  0  0  0
 47 46  1  0  0  0  0
 47 48  2  0  0  0  0
 48 49  1  0  0  0  0
 49 44  2  0  0  0  0
M  END
>  <MODEL>
1

>  <REMARK>
 VINA RESULT:      -7.4      0.000      0.000
  Name = 
  18 active torsions:
  status: ('A' for Active; 'I' for Inactive)
    1  A    between atoms: C_1  and  C_2
    2  A    between atoms: C_2  and  C_43
    3  A    between atoms: N_3  and  C_21
    4  A    between atoms: N_3  and  C_41
    5  A    between atoms: C_5  and  N_45
    6  A    between atoms: C_9  and  C_25
    7  A    between atoms: C_9  and  C_44
    8  A    between atoms: O_12  and  C_24
    9  A    between atoms: O_12  and  C_28
   10  A    between atoms: C_14  and  C_31
   11  A    between atoms: C_17  and  C_31
   12  A    between atoms: C_17  and  C_39
   13  A    between atoms: C_21  and  C_22
   14  A    between atoms: C_24  and  C_25
   15  A    between atoms: C_29  and  C_31
   16  A    between atoms: C_32  and  N_45
   17  A    between atoms: C_39  and  C_43
   18  A    between atoms: C_43  and  C_47
                            x       y       z     vdW  Elec       q    Type
                         _______ _______ _______ _____ _____    ______ ____

>  <TORSDO>
F 18

$$$$
=
 OpenBabel10222419213D

 49 56  0  0  1  0  0  0  0  0999 V2000
  182.9200  177.9940  137.7750 C   0  0  2  0  0  3  0  0  0  0  0  0
  181.1860  179.7040  140.6810 C   0  0  0  0  0  2  0  0  0  0  0  0
  181.8850  178.6260  141.5090 C   0  0  0  0  0  2  0  0  0  0  0  0
  181.2710  179.3480  139.2010 C   0  0  0  0  0  2  0  0  0  0  0  0
  183.7700  179.1840  139.8610 C   0  0  0  0  0  2  0  0  0  0  0  0
  183.3350  178.3630  141.0780 C   0  0  1  0  0  3  0  0  0  0  0  0
  182.7290  179.1770  138.7310 C   0  0  1  0  0  3  0  0  0  0  0  0
  184.2910  178.6300  142.2320 C   0  0  0  0  0  2  0  0  0  0  0  0
  185.7390  178.6080  141.7660 C   0  0  0  0  0  2  0  0  0  0  0  0
  186.6170  177.8520  142.7510 C   0  0  0  0  0  2  0  0  0  0  0  0
  187.9760  178.0880  142.4660 O   0  0  0  0  0  0  0  0  0  0  0  0
  190.4890  175.7340  142.6780 N   0  0  0  0  0  2  0  0  0  0  0  0
  188.1490  177.4670  144.8180 C   0  0  0  0  0  2  0  0  0  0  0  0
  190.4140  176.9900  145.8870 C   0  0  0  0  0  2  0  0  0  0  0  0
  191.1720  177.1950  144.5720 C   0  0  2  0  0  3  0  0  0  0  0  0
  190.3740  178.4220  143.4630 S   0  0  0  0  0  0  0  0  0  0  0  0
  188.8120  177.4530  143.4190 C   0  0  2  0  0  0  0  0  0  0  0  0
  189.0960  175.9720  143.0390 C   0  0  0  0  0  2  0  0  0  0  0  0
  191.3220  175.8430  143.8750 C   0  0  0  0  0  2  0  0  0  0  0  0
  189.1020  177.7760  145.9770 C   0  0  0  0  0  2  0  0  0  0  0  0
  181.6830  177.1110  137.7800 C   0  0  0  0  0  2  0  0  0  0  0  0
  181.9110  175.8990  138.6700 C   0  0  0  0  0  2  0  0  0  0  0  0
  181.0200  174.7080  138.2860 C   0  0  1  0  0  3  0  0  0  0  0  0
  179.5110  174.8090  138.5920 C   0  0  2  0  0  3  0  0  0  0  0  0
  179.2420  175.4350  139.9560 C   0  0  0  0  0  0  0  0  0  0  0  0
  179.0490  173.9480  139.6420 C   0  0  0  0  0  2  0  0  0  0  0  0
  179.2190  176.4720  140.7830 C   0  0  0  0  0  2  0  0  0  0  0  0
  181.2940  174.2000  136.8750 C   0  0  1  0  0  3  0  0  0  0  0  0
  182.5580  173.3600  136.8830 C   0  0  1  0  0  3  0  0  0  0  0  0
  181.2030  172.6900  136.8380 C   0  0  0  0  0  2  0  0  0  0  0  0
  183.1360  173.3470  135.5500 N   0  0  0  0  0  2  0  0  0  0  0  0
  184.5100  173.7790  135.6860 C   0  0  0  0  0  2  0  0  0  0  0  0
  186.4340  173.9280  137.2210 C   0  0  0  0  0  2  0  0  0  0  0  0
  184.9720  173.5470  137.1090 C   0  0  0  0  0  3  0  0  0  0  0  0
  186.0380  172.4740  137.1180 C   0  0  0  0  0  2  0  0  0  0  0  0
  184.1560  177.1600  138.1170 C   0  0  0  0  0  2  0  0  0  0  0  0
  185.2400  177.3600  137.1130 C   0  0  0  0  0  0  0  0  0  0  0  0
  187.4100  177.7000  136.4000 C   0  0  0  0  0  0  0  0  0  0  0  0
  186.5130  177.5330  134.9950 S   0  0  0  0  0  0  0  0  0  0  0  0
  185.0200  177.2920  135.7360 C   0  0  0  0  0  3  0  0  0  0  0  0
  186.5690  177.5810  137.4960 C   0  0  0  0  0  3  0  0  0  0  0  0
  188.8200  177.9580  136.4240 N   0  0  0  0  0  2  0  0  0  0  0  0
  191.5930  176.7470  139.3930 C   0  0  0  0  0  3  0  0  0  0  0  0
  190.5690  177.6420  139.7320 C   0  0  0  0  0  3  0  0  0  0  0  0
  192.9630  175.1350  137.6670 Cl  0  0  0  0  0  0  0  0  0  0  0  0
  191.6880  176.2570  138.0870 C   0  0  0  0  0  0  0  0  0  0  0  0
  190.7660  176.6630  137.1180 C   0  0  0  0  0  3  0  0  0  0  0  0
  189.7470  177.5660  137.4440 C   0  0  0  0  0  0  0  0  0  0  0  0
  189.6480  178.0470  138.7630 C   0  0  0  0  0  3  0  0  0  0  0  0
  1 21  1  1  0  0  0
  1 36  1  0  0  0  0
  2  3  1  0  0  0  0
  4  2  1  0  0  0  0
  5  6  1  0  0  0  0
  6  3  1  0  0  0  0
  6  8  1  1  0  0  0
  7  1  1  1  0  0  0
  7  4  1  0  0  0  0
  7  5  1  0  0  0  0
  9  8  1  0  0  0  0
  9 10  1  0  0  0  0
 11 10  1  0  0  0  0
 12 18  1  0  0  0  0
 12 19  1  0  0  0  0
 13 20  1  0  0  0  0
 14 20  1  0  0  0  0
 15 19  1  6  0  0  0
 15 14  1  0  0  0  0
 16 15  1  0  0  0  0
 17 11  1  6  0  0  0
 17 16  1  0  0  0  0
 17 13  1  0  0  0  0
 18 17  1  0  0  0  0
 21 22  1  0  0  0  0
 23 22  1  6  0  0  0
 24 23  1  1  0  0  0
 24 26  1  0  0  0  0
 24 25  1  0  0  0  0
 25 27  2  0  0  0  0
 26 25  1  0  0  0  0
 28 29  1  0  0  0  0
 28 23  1  1  0  0  0
 29 31  1  6  0  0  0
 30 28  1  0  0  0  0
 30 29  1  0  0  0  0
 31 32  1  0  0  0  0
 32 34  1  0  0  0  0
 34 35  1  0  0  0  0
 34 33  1  0  0  0  0
 35 33  1  0  0  0  0
 37 41  1  0  0  0  0
 37 36  1  0  0  0  0
 38 42  1  0  0  0  0
 38 41  2  0  0  0  0
 39 40  1  0  0  0  0
 39 38  1  0  0  0  0
 40 37  2  0  0  0  0
 42 48  1  0  0  0  0
 43 44  1  0  0  0  0
 45 46  1  0  0  0  0
 46 43  2  0  0  0  0
 47 48  2  0  0  0  0
 47 46  1  0  0  0  0
 48 49  1  0  0  0  0
 49 44  2  0  0  0  0
M  END
>  <MODEL>
2

>  <REMARK>
 VINA RESULT:      -7.2      3.081      8.896
  Name = 
  18 active torsions:
  status: ('A' for Active; 'I' for Inactive)
    1  A    between atoms: C_1  and  C_2
    2  A    between atoms: C_2  and  C_43
    3  A    between atoms: N_3  and  C_21
    4  A    between atoms: N_3  and  C_41
    5  A    between atoms: C_5  and  N_45
    6  A    between atoms: C_9  and  C_25
    7  A    between atoms: C_9  and  C_44
    8  A    between atoms: O_12  and  C_24
    9  A    between atoms: O_12  and  C_28
   10  A    between atoms: C_14  and  C_31
   11  A    between atoms: C_17  and  C_31
   12  A    between atoms: C_17  and  C_39
   13  A    between atoms: C_21  and  C_22
   14  A    between atoms: C_24  and  C_25
   15  A    between atoms: C_29  and  C_31
   16  A    between atoms: C_32  and  N_45
   17  A    between atoms: C_39  and  C_43
   18  A    between atoms: C_43  and  C_47
                            x       y       z     vdW  Elec       q    Type
                         _______ _______ _______ _____ _____    ______ ____

>  <TORSDO>
F 18

$$$$
=
 OpenBabel10222419213D

 49 56  0  0  1  0  0  0  0  0999 V2000
  187.4790  177.4140  138.1700 C   0  0  2  0  0  3  0  0  0  0  0  0
  189.8130  176.9420  135.2180 C   0  0  0  0  0  2  0  0  0  0  0  0
  190.6870  176.2220  136.2440 C   0  0  0  0  0  2  0  0  0  0  0  0
  188.7090  177.7100  135.9360 C   0  0  0  0  0  2  0  0  0  0  0  0
  188.3820  175.3570  136.9680 C   0  0  0  0  0  2  0  0  0  0  0  0
  189.8960  175.3100  137.1940 C   0  0  1  0  0  3  0  0  0  0  0  0
  187.8440  176.7880  136.8190 C   0  0  1  0  0  3  0  0  0  0  0  0
  190.3770  173.8710  137.0750 C   0  0  0  0  0  2  0  0  0  0  0  0
  191.3680  173.7120  135.9310 C   0  0  0  0  0  2  0  0  0  0  0  0
  192.7250  173.2600  136.4460 C   0  0  0  0  0  2  0  0  0  0  0  0
  193.7320  173.6110  135.5250 O   0  0  0  0  0  0  0  0  0  0  0  0
  195.1850  173.6090  138.6540 N   0  0  0  0  0  2  0  0  0  0  0  0
  195.5430  175.2420  135.4500 C   0  0  0  0  0  2  0  0  0  0  0  0
  197.7370  174.8260  136.6810 C   0  0  0  0  0  2  0  0  0  0  0  0
  197.2510  173.4990  137.2720 C   0  0  2  0  0  3  0  0  0  0  0  0
  196.0630  172.6170  136.1850 S   0  0  0  0  0  0  0  0  0  0  0  0
  194.9040  174.0440  136.1950 C   0  0  2  0  0  0  0  0  0  0  0  0
  194.6020  174.4940  137.6520 C   0  0  0  0  0  2  0  0  0  0  0  0
  196.6400  173.7670  138.6470 C   0  0  0  0  0  2  0  0  0  0  0  0
  197.0710  175.1940  135.3520 C   0  0  0  0  0  2  0  0  0  0  0  0
  186.2130  178.2430  138.0380 C   0  0  0  0  0  2  0  0  0  0  0  0
  184.9930  177.3360  138.0280 C   0  0  0  0  0  2  0  0  0  0  0  0
  183.7150  178.0590  138.4780 C   0  0  1  0  0  3  0  0  0  0  0  0
  182.5380  178.1290  137.4830 C   0  0  2  0  0  3  0  0  0  0  0  0
  181.9440  176.7530  137.1990 C   0  0  0  0  0  0  0  0  0  0  0  0
  182.7960  177.5440  136.2000 C   0  0  0  0  0  2  0  0  0  0  0  0
  181.2450  175.6850  137.5560 C   0  0  0  0  0  2  0  0  0  0  0  0
  183.2690  177.6500  139.8780 C   0  0  1  0  0  3  0  0  0  0  0  0
  183.7490  178.6870  140.8780 C   0  0  1  0  0  3  0  0  0  0  0  0
  182.3020  178.6720  140.4370 C   0  0  0  0  0  2  0  0  0  0  0  0
  183.8470  178.0770  142.1930 N   0  0  0  0  0  2  0  0  0  0  0  0
  185.0310  178.6250  142.8200 C   0  0  0  0  0  2  0  0  0  0  0  0
  185.1240  179.1070  145.2360 C   0  0  0  0  0  2  0  0  0  0  0  0
  184.6220  179.6070  143.8960 C   0  0  0  0  0  3  0  0  0  0  0  0
  183.6720  178.9270  144.8560 C   0  0  0  0  0  2  0  0  0  0  0  0
  188.6080  178.2750  138.7380 C   0  0  0  0  0  2  0  0  0  0  0  0
  189.0650  177.7670  140.0630 C   0  0  0  0  0  0  0  0  0  0  0  0
  188.8540  177.2480  142.3030 C   0  0  0  0  0  0  0  0  0  0  0  0
  190.3850  176.7180  141.8780 S   0  0  0  0  0  0  0  0  0  0  0  0
  190.3140  177.1760  140.2580 C   0  0  0  0  0  3  0  0  0  0  0  0
  188.2390  177.8080  141.1940 C   0  0  0  0  0  3  0  0  0  0  0  0
  188.3110  177.1490  143.6260 N   0  0  0  0  0  2  0  0  0  0  0  0
  190.4160  177.1850  147.3060 C   0  0  0  0  0  3  0  0  0  0  0  0
  191.1220  176.9880  146.1120 C   0  0  0  0  0  3  0  0  0  0  0  0
  188.1530  177.6300  148.7670 Cl  0  0  0  0  0  0  0  0  0  0  0  0
  189.0310  177.3750  147.2760 C   0  0  0  0  0  0  0  0  0  0  0  0
  188.3490  177.3630  146.0560 C   0  0  0  0  0  3  0  0  0  0  0  0
  189.0440  177.1540  144.8580 C   0  0  0  0  0  0  0  0  0  0  0  0
  190.4390  176.9750  144.8930 C   0  0  0  0  0  3  0  0  0  0  0  0
  1 21  1  6  0  0  0
  1 36  1  0  0  0  0
  2  4  1  0  0  0  0
  2  3  1  0  0  0  0
  3  6  1  0  0  0  0
  4  7  1  0  0  0  0
  5  6  1  0  0  0  0
  6  8  1  6  0  0  0
  7  5  1  0  0  0  0
  7  1  1  1  0  0  0
  9 10  1  0  0  0  0
  9  8  1  0  0  0  0
 11 10  1  0  0  0  0
 13 17  1  0  0  0  0
 15 14  1  6  0  0  0
 15 19  1  0  0  0  0
 16 17  1  0  0  0  0
 16 15  1  0  0  0  0
 17 11  1  6  0  0  0
 17 18  1  0  0  0  0
 18 12  1  0  0  0  0
 19 12  1  0  0  0  0
 20 13  1  0  0  0  0
 20 14  1  0  0  0  0
 22 21  1  0  0  0  0
 23 22  1  6  0  0  0
 24 23  1  1  0  0  0
 25 24  1  0  0  0  0
 25 27  2  0  0  0  0
 26 25  1  0  0  0  0
 26 24  1  0  0  0  0
 28 23  1  6  0  0  0
 28 30  1  0  0  0  0
 28 29  1  0  0  0  0
 29 31  1  1  0  0  0
 30 29  1  0  0  0  0
 31 32  1  0  0  0  0
 32 34  1  0  0  0  0
 34 35  1  0  0  0  0
 34 33  1  0  0  0  0
 35 33  1  0  0  0  0
 36 37  1  0  0  0  0
 37 40  2  0  0  0  0
 37 41  1  0  0  0  0
 38 42  1  0  0  0  0
 39 38  1  0  0  0  0
 40 39  1  0  0  0  0
 41 38  2  0  0  0  0
 42 48  1  0  0  0  0
 44 43  2  0  0  0  0
 46 43  1  0  0  0  0
 46 45  1  0  0  0  0
 47 46  2  0  0  0  0
 48 49  2  0  0  0  0
 48 47  1  0  0  0  0
 49 44  1  0  0  0  0
M  END
>  <MODEL>
3

>  <REMARK>
 VINA RESULT:      -7.1      3.956      9.239
  Name = 
  18 active torsions:
  status: ('A' for Active; 'I' for Inactive)
    1  A    between atoms: C_1  and  C_2
    2  A    between atoms: C_2  and  C_43
    3  A    between atoms: N_3  and  C_21
    4  A    between atoms: N_3  and  C_41
    5  A    between atoms: C_5  and  N_45
    6  A    between atoms: C_9  and  C_25
    7  A    between atoms: C_9  and  C_44
    8  A    between atoms: O_12  and  C_24
    9  A    between atoms: O_12  and  C_28
   10  A    between atoms: C_14  and  C_31
   11  A    between atoms: C_17  and  C_31
   12  A    between atoms: C_17  and  C_39
   13  A    between atoms: C_21  and  C_22
   14  A    between atoms: C_24  and  C_25
   15  A    between atoms: C_29  and  C_31
   16  A    between atoms: C_32  and  N_45
   17  A    between atoms: C_39  and  C_43
   18  A    between atoms: C_43  and  C_47
                            x       y       z     vdW  Elec       q    Type
                         _______ _______ _______ _____ _____    ______ ____

>  <TORSDO>
F 18

$$$$
=
 OpenBabel10222419213D

 49 56  0  0  1  0  0  0  0  0999 V2000
  189.1470  177.4780  140.0450 C   0  0  2  0  0  3  0  0  0  0  0  0
  188.6160  179.1360  136.6760 C   0  0  0  0  0  2  0  0  0  0  0  0
  188.1150  177.7510  136.2660 C   0  0  0  0  0  2  0  0  0  0  0  0
  189.3300  179.0440  138.0190 C   0  0  0  0  0  2  0  0  0  0  0  0
  187.0830  177.8990  138.6110 C   0  0  0  0  0  2  0  0  0  0  0  0
  187.2310  177.0780  137.3270 C   0  0  1  0  0  3  0  0  0  0  0  0
  188.4200  178.4600  139.1190 C   0  0  1  0  0  3  0  0  0  0  0  0
  185.8500  176.7810  136.7600 C   0  0  0  0  0  2  0  0  0  0  0  0
  185.3690  175.3980  137.1720 C   0  0  0  0  0  2  0  0  0  0  0  0
  183.8560  175.3680  137.3170 C   0  0  0  0  0  2  0  0  0  0  0  0
  183.3200  176.6420  137.0460 O   0  0  0  0  0  0  0  0  0  0  0  0
  181.1670  179.2120  137.8610 N   0  0  0  0  0  2  0  0  0  0  0  0
  182.4380  176.1330  139.2620 C   0  0  0  0  0  2  0  0  0  0  0  0
  180.0150  176.6520  139.8620 C   0  0  0  0  0  2  0  0  0  0  0  0
  179.7260  177.2870  138.4990 C   0  0  2  0  0  3  0  0  0  0  0  0
  180.7050  176.5450  137.1340 S   0  0  0  0  0  0  0  0  0  0  0  0
  182.2910  176.9660  137.9650 C   0  0  2  0  0  0  0  0  0  0  0  0
  182.3200  178.4700  138.3580 C   0  0  0  0  0  2  0  0  0  0  0  0
  179.9730  178.7930  138.5950 C   0  0  0  0  0  2  0  0  0  0  0  0
  181.1220  175.5940  139.8320 C   0  0  0  0  0  2  0  0  0  0  0  0
  188.8500  177.8090  141.4980 C   0  0  0  0  0  2  0  0  0  0  0  0
  188.8630  176.5410  142.3360 C   0  0  0  0  0  2  0  0  0  0  0  0
  189.4900  176.7560  143.7220 C   0  0  1  0  0  3  0  0  0  0  0  0
  191.0170  176.9610  143.7980 C   0  0  2  0  0  3  0  0  0  0  0  0
  191.5270  176.9520  145.2350 C   0  0  0  0  0  0  0  0  0  0  0  0
  191.4310  178.2100  144.3660 C   0  0  0  0  0  2  0  0  0  0  0  0
  191.8100  176.3290  146.3720 C   0  0  0  0  0  2  0  0  0  0  0  0
  188.7240  177.7710  144.5630 C   0  0  1  0  0  3  0  0  0  0  0  0
  187.2730  177.3380  144.6720 C   0  0  1  0  0  3  0  0  0  0  0  0
  188.2180  177.1210  145.8330 C   0  0  0  0  0  2  0  0  0  0  0  0
  186.4440  178.4990  144.9490 N   0  0  0  0  0  2  0  0  0  0  0  0
  185.2220  178.3290  144.1930 C   0  0  0  0  0  2  0  0  0  0  0  0
  185.3030  179.2750  141.9170 C   0  0  0  0  0  2  0  0  0  0  0  0
  185.5610  178.0330  142.7470 C   0  0  0  0  0  3  0  0  0  0  0  0
  184.3060  178.1390  141.9100 C   0  0  0  0  0  2  0  0  0  0  0  0
  190.6590  177.4670  139.8130 C   0  0  0  0  0  2  0  0  0  0  0  0
  191.0430  176.4590  138.7830 C   0  0  0  0  0  0  0  0  0  0  0  0
  192.4730  175.3800  137.3270 C   0  0  0  0  0  0  0  0  0  0  0  0
  191.0290  174.5370  137.2200 S   0  0  0  0  0  0  0  0  0  0  0  0
  190.1720  175.4640  138.3360 C   0  0  0  0  0  3  0  0  0  0  0  0
  192.3300  176.4200  138.2330 C   0  0  0  0  0  3  0  0  0  0  0  0
  193.6430  175.0650  136.5590 N   0  0  0  0  0  2  0  0  0  0  0  0
  197.5490  174.2520  137.9920 C   0  0  0  0  0  3  0  0  0  0  0  0
  196.4500  174.0480  138.8370 C   0  0  0  0  0  3  0  0  0  0  0  0
  198.7230  174.9590  135.6300 Cl  0  0  0  0  0  0  0  0  0  0  0  0
  197.3510  174.7130  136.6870 C   0  0  0  0  0  0  0  0  0  0  0  0
  196.0570  174.9750  136.2260 C   0  0  0  0  0  3  0  0  0  0  0  0
  194.9540  174.7870  137.0670 C   0  0  0  0  0  0  0  0  0  0  0  0
  195.1580  174.3110  138.3760 C   0  0  0  0  0  3  0  0  0  0  0  0
  1 36  1  1  0  0  0
  1 21  1  0  0  0  0
  2  4  1  0  0  0  0
  3  2  1  0  0  0  0
  3  6  1  0  0  0  0
  4  7  1  0  0  0  0
  5  7  1  0  0  0  0
  6  8  1  6  0  0  0
  6  5  1  0  0  0  0
  7  1  1  6  0  0  0
  8  9  1  0  0  0  0
  9 10  1  0  0  0  0
 11 10  1  0  0  0  0
 12 18  1  0  0  0  0
 12 19  1  0  0  0  0
 13 20  1  0  0  0  0
 15 19  1  1  0  0  0
 15 14  1  0  0  0  0
 16 17  1  0  0  0  0
 16 15  1  0  0  0  0
 17 11  1  6  0  0  0
 17 18  1  0  0  0  0
 17 13  1  0  0  0  0
 20 14  1  0  0  0  0
 21 22  1  0  0  0  0
 23 22  1  6  0  0  0
 24 23  1  1  0  0  0
 24 26  1  0  0  0  0
 24 25  1  0  0  0  0
 25 27  2  0  0  0  0
 26 25  1  0  0  0  0
 28 23  1  6  0  0  0
 28 29  1  0  0  0  0
 28 30  1  0  0  0  0
 29 31  1  1  0  0  0
 29 30  1  0  0  0  0
 32 31  1  0  0  0  0
 33 34  1  0  0  0  0
 34 32  1  0  0  0  0
 35 33  1  0  0  0  0
 35 34  1  0  0  0  0
 37 36  1  0  0  0  0
 38 41  2  0  0  0  0
 39 38  1  0  0  0  0
 39 40  1  0  0  0  0
 40 37  2  0  0  0  0
 41 37  1  0  0  0  0
 42 48  1  0  0  0  0
 42 38  1  0  0  0  0
 43 44  1  0  0  0  0
 45 46  1  0  0  0  0
 46 43  2  0  0  0  0
 47 46  1  0  0  0  0
 47 48  2  0  0  0  0
 48 49  1  0  0  0  0
 49 44  2  0  0  0  0
M  END
>  <MODEL>
4

>  <REMARK>
 VINA RESULT:      -7.0      1.696      2.428
  Name = 
  18 active torsions:
  status: ('A' for Active; 'I' for Inactive)
    1  A    between atoms: C_1  and  C_2
    2  A    between atoms: C_2  and  C_43
    3  A    between atoms: N_3  and  C_21
    4  A    between atoms: N_3  and  C_41
    5  A    between atoms: C_5  and  N_45
    6  A    between atoms: C_9  and  C_25
    7  A    between atoms: C_9  and  C_44
    8  A    between atoms: O_12  and  C_24
    9  A    between atoms: O_12  and  C_28
   10  A    between atoms: C_14  and  C_31
   11  A    between atoms: C_17  and  C_31
   12  A    between atoms: C_17  and  C_39
   13  A    between atoms: C_21  and  C_22
   14  A    between atoms: C_24  and  C_25
   15  A    between atoms: C_29  and  C_31
   16  A    between atoms: C_32  and  N_45
   17  A    between atoms: C_39  and  C_43
   18  A    between atoms: C_43  and  C_47
                            x       y       z     vdW  Elec       q    Type
                         _______ _______ _______ _____ _____    ______ ____

>  <TORSDO>
F 18

$$$$
=
 OpenBabel10222419213D

 49 56  0  0  1  0  0  0  0  0999 V2000
  185.0300  178.3040  139.9400 C   0  0  2  0  0  3  0  0  0  0  0  0
  181.8110  179.3530  138.2310 C   0  0  0  0  0  2  0  0  0  0  0  0
  182.0170  178.0650  137.4330 C   0  0  0  0  0  2  0  0  0  0  0  0
  183.0860  179.6890  138.9970 C   0  0  0  0  0  2  0  0  0  0  0  0
  182.7220  177.2410  139.7590 C   0  0  0  0  0  2  0  0  0  0  0  0
  182.4870  176.8800  138.2890 C   0  0  1  0  0  3  0  0  0  0  0  0
  183.5160  178.5440  139.9350 C   0  0  1  0  0  3  0  0  0  0  0  0
  181.4890  175.7340  138.2060 C   0  0  0  0  0  2  0  0  0  0  0  0
  181.6300  174.9720  136.8970 C   0  0  0  0  0  2  0  0  0  0  0  0
  182.1450  173.5620  137.1400 C   0  0  0  0  0  2  0  0  0  0  0  0
  182.6050  173.0010  135.9330 O   0  0  0  0  0  0  0  0  0  0  0  0
  184.7630  170.6530  134.6170 N   0  0  0  0  0  2  0  0  0  0  0  0
  184.4790  172.8340  137.4840 C   0  0  0  0  0  2  0  0  0  0  0  0
  186.8600  172.4990  136.6360 C   0  0  0  0  0  2  0  0  0  0  0  0
  186.4180  172.4250  135.1720 C   0  0  2  0  0  3  0  0  0  0  0  0
  184.9310  173.4430  134.8150 S   0  0  0  0  0  0  0  0  0  0  0  0
  183.9360  172.5330  136.0650 C   0  0  2  0  0  0  0  0  0  0  0  0
  184.0340  170.9990  135.8320 C   0  0  0  0  0  2  0  0  0  0  0  0
  186.1800  170.9610  134.8020 C   0  0  0  0  0  2  0  0  0  0  0  0
  185.9290  173.3270  137.5250 C   0  0  0  0  0  2  0  0  0  0  0  0
  185.6300  178.7730  141.2550 C   0  0  0  0  0  2  0  0  0  0  0  0
  185.1380  177.8970  142.3960 C   0  0  0  0  0  2  0  0  0  0  0  0
  185.6730  178.3510  143.7620 C   0  0  1  0  0  3  0  0  0  0  0  0
  184.6770  178.9950  144.7480 C   0  0  2  0  0  3  0  0  0  0  0  0
  183.2820  179.1340  144.1470 C   0  0  0  0  0  0  0  0  0  0  0  0
  184.2340  180.3100  144.3880 C   0  0  0  0  0  2  0  0  0  0  0  0
  182.1360  178.6210  143.7220 C   0  0  0  0  0  2  0  0  0  0  0  0
  186.5530  177.2990  144.4290 C   0  0  1  0  0  3  0  0  0  0  0  0
  187.7400  177.9830  145.0850 C   0  0  1  0  0  3  0  0  0  0  0  0
  186.5750  177.5110  145.9270 C   0  0  0  0  0  2  0  0  0  0  0  0
  188.8310  177.0320  145.2140 N   0  0  0  0  0  2  0  0  0  0  0  0
  190.0230  177.8020  145.4970 C   0  0  0  0  0  2  0  0  0  0  0  0
  191.7220  178.5840  143.8900 C   0  0  0  0  0  2  0  0  0  0  0  0
  191.1380  177.3630  144.5710 C   0  0  0  0  0  3  0  0  0  0  0  0
  190.7580  177.6910  143.1440 C   0  0  0  0  0  2  0  0  0  0  0  0
  185.7340  178.9950  138.7710 C   0  0  0  0  0  2  0  0  0  0  0  0
  186.4320  178.0080  137.8980 C   0  0  0  0  0  0  0  0  0  0  0  0
  187.9820  176.3720  137.3940 C   0  0  0  0  0  0  0  0  0  0  0  0
  187.0620  176.5410  136.0040 S   0  0  0  0  0  0  0  0  0  0  0  0
  186.0280  177.7350  136.5900 C   0  0  0  0  0  3  0  0  0  0  0  0
  187.5160  177.2510  138.3600 C   0  0  0  0  0  3  0  0  0  0  0  0
  189.0910  175.4720  137.5160 N   0  0  0  0  0  2  0  0  0  0  0  0
  193.2010  176.5120  137.4730 C   0  0  0  0  0  3  0  0  0  0  0  0
  192.6030  176.0220  136.3050 C   0  0  0  0  0  3  0  0  0  0  0  0
  193.1850  177.2820  140.0930 Cl  0  0  0  0  0  0  0  0  0  0  0  0
  192.4400  176.6620  138.6370 C   0  0  0  0  0  0  0  0  0  0  0  0
  191.0850  176.3170  138.6370 C   0  0  0  0  0  3  0  0  0  0  0  0
  190.4820  175.8140  137.4780 C   0  0  0  0  0  0  0  0  0  0  0  0
  191.2490  175.6770  136.3060 C   0  0  0  0  0  3  0  0  0  0  0  0
  1 36  1  6  0  0  0
  1 21  1  0  0  0  0
  2  4  1  0  0  0  0
  3  2  1  0  0  0  0
  3  6  1  0  0  0  0
  4  7  1  0  0  0  0
  5  7  1  0  0  0  0
  6  8  1  1  0  0  0
  6  5  1  0  0  0  0
  7  1  1  6  0  0  0
  9 10  1  0  0  0  0
  9  8  1  0  0  0  0
 11 10  1  0  0  0  0
 12 19  1  0  0  0  0
 12 18  1  0  0  0  0
 13 20  1  0  0  0  0
 14 20  1  0  0  0  0
 15 19  1  1  0  0  0
 15 14  1  0  0  0  0
 16 15  1  0  0  0  0
 16 17  1  0  0  0  0
 17 11  1  6  0  0  0
 17 13  1  0  0  0  0
 18 17  1  0  0  0  0
 21 22  1  0  0  0  0
 23 22  1  6  0  0  0
 24 23  1  6  0  0  0
 25 26  1  0  0  0  0
 25 24  1  0  0  0  0
 26 24  1  0  0  0  0
 27 25  2  0  0  0  0
 28 23  1  6  0  0  0
 28 29  1  0  0  0  0
 28 30  1  0  0  0  0
 29 31  1  1  0  0  0
 29 30  1  0  0  0  0
 31 32  1  0  0  0  0
 33 34  1  0  0  0  0
 34 32  1  0  0  0  0
 35 33  1  0  0  0  0
 35 34  1  0  0  0  0
 37 41  1  0  0  0  0
 37 36  1  0  0  0  0
 38 42  1  0  0  0  0
 38 41  2  0  0  0  0
 39 40  1  0  0  0  0
 39 38  1  0  0  0  0
 40 37  2  0  0  0  0
 43 46  1  0  0  0  0
 44 49  1  0  0  0  0
 44 43  2  0  0  0  0
 46 45  1  0  0  0  0
 47 46  2  0  0  0  0
 48 42  1  0  0  0  0
 48 47  1  0  0  0  0
 49 48  2  0  0  0  0
M  END
>  <MODEL>
5

>  <REMARK>
 VINA RESULT:      -6.9      2.716      5.218
  Name = 
  18 active torsions:
  status: ('A' for Active; 'I' for Inactive)
    1  A    between atoms: C_1  and  C_2
    2  A    between atoms: C_2  and  C_43
    3  A    between atoms: N_3  and  C_21
    4  A    between atoms: N_3  and  C_41
    5  A    between atoms: C_5  and  N_45
    6  A    between atoms: C_9  and  C_25
    7  A    between atoms: C_9  and  C_44
    8  A    between atoms: O_12  and  C_24
    9  A    between atoms: O_12  and  C_28
   10  A    between atoms: C_14  and  C_31
   11  A    between atoms: C_17  and  C_31
   12  A    between atoms: C_17  and  C_39
   13  A    between atoms: C_21  and  C_22
   14  A    between atoms: C_24  and  C_25
   15  A    between atoms: C_29  and  C_31
   16  A    between atoms: C_32  and  N_45
   17  A    between atoms: C_39  and  C_43
   18  A    between atoms: C_43  and  C_47
                            x       y       z     vdW  Elec       q    Type
                         _______ _______ _______ _____ _____    ______ ____

>  <TORSDO>
F 18

$$$$
=
 OpenBabel10222419213D

 49 56  0  0  1  0  0  0  0  0999 V2000
  184.8200  179.0040  141.8300 C   0  0  2  0  0  3  0  0  0  0  0  0
  182.9930  178.9380  145.1530 C   0  0  0  0  0  2  0  0  0  0  0  0
  184.1490  178.0310  145.5750 C   0  0  0  0  0  2  0  0  0  0  0  0
  182.9990  179.1020  143.6370 C   0  0  0  0  0  2  0  0  0  0  0  0
  185.4460  179.7530  144.1830 C   0  0  0  0  0  2  0  0  0  0  0  0
  185.5200  178.5050  145.0670 C   0  0  1  0  0  3  0  0  0  0  0  0
  184.3370  179.6710  143.1230 C   0  0  1  0  0  3  0  0  0  0  0  0
  186.4570  178.7720  146.2360 C   0  0  0  0  0  2  0  0  0  0  0  0
  187.2700  177.5340  146.5860 C   0  0  0  0  0  2  0  0  0  0  0  0
  188.7280  177.8910  146.8290 C   0  0  0  0  0  2  0  0  0  0  0  0
  189.5610  176.8490  146.3770 O   0  0  0  0  0  0  0  0  0  0  0  0
  191.5850  178.8320  144.4080 N   0  0  0  0  0  2  0  0  0  0  0  0
  188.8060  176.5460  144.0780 C   0  0  0  0  0  2  0  0  0  0  0  0
  190.4700  176.4810  142.1470 C   0  0  0  0  0  2  0  0  0  0  0  0
  191.6700  176.7420  143.0620 C   0  0  2  0  0  3  0  0  0  0  0  0
  191.4530  176.0540  144.7500 S   0  0  0  0  0  0  0  0  0  0  0  0
  189.9280  177.0450  145.0210 C   0  0  2  0  0  0  0  0  0  0  0  0
  190.1860  178.5450  144.7050 C   0  0  0  0  0  2  0  0  0  0  0  0
  191.9320  178.2470  143.1130 C   0  0  0  0  0  2  0  0  0  0  0  0
  189.2980  175.7830  142.8430 C   0  0  0  0  0  2  0  0  0  0  0  0
  183.8810  177.8740  141.4420 C   0  0  0  0  0  2  0  0  0  0  0  0
  182.8050  178.3890  140.4990 C   0  0  0  0  0  2  0  0  0  0  0  0
  182.2490  177.2900  139.5810 C   0  0  1  0  0  3  0  0  0  0  0  0
  180.7190  177.1000  139.5300 C   0  0  2  0  0  3  0  0  0  0  0  0
  180.0680  177.3110  140.8930 C   0  0  0  0  0  0  0  0  0  0  0  0
  180.2300  175.9430  140.2220 C   0  0  0  0  0  2  0  0  0  0  0  0
  179.6820  178.0870  141.8960 C   0  0  0  0  0  2  0  0  0  0  0  0
  182.8790  177.3080  138.1930 C   0  0  1  0  0  3  0  0  0  0  0  0
  183.4260  175.9280  137.8730 C   0  0  1  0  0  3  0  0  0  0  0  0
  182.1200  176.3860  137.2630 C   0  0  0  0  0  2  0  0  0  0  0  0
  184.4790  176.0470  136.8790 N   0  0  0  0  0  2  0  0  0  0  0  0
  184.7610  174.7070  136.4100 C   0  0  0  0  0  2  0  0  0  0  0  0
  185.9090  172.6910  137.2450 C   0  0  0  0  0  2  0  0  0  0  0  0
  184.9160  173.7800  137.5960 C   0  0  0  0  0  3  0  0  0  0  0  0
  184.4270  172.4000  137.2170 C   0  0  0  0  0  2  0  0  0  0  0  0
  186.2500  178.4750  141.9440 C   0  0  0  0  0  2  0  0  0  0  0  0
  186.9070  178.3960  140.6090 C   0  0  0  0  0  0  0  0  0  0  0  0
  188.6810  178.1750  139.1470 C   0  0  0  0  0  0  0  0  0  0  0  0
  187.3220  178.2480  138.1710 S   0  0  0  0  0  0  0  0  0  0  0  0
  186.1910  178.3920  139.4110 C   0  0  0  0  0  3  0  0  0  0  0  0
  188.2960  178.2700  140.4750 C   0  0  0  0  0  3  0  0  0  0  0  0
  190.0210  178.0650  138.6470 N   0  0  0  0  0  2  0  0  0  0  0  0
  191.9370  174.4790  137.4450 C   0  0  0  0  0  3  0  0  0  0  0  0
  192.7040  175.5260  137.9730 C   0  0  0  0  0  3  0  0  0  0  0  0
  189.5930  173.3110  136.6740 Cl  0  0  0  0  0  0  0  0  0  0  0  0
  190.5510  174.6210  137.3260 C   0  0  0  0  0  0  0  0  0  0  0  0
  189.9310  175.8080  137.7280 C   0  0  0  0  0  3  0  0  0  0  0  0
  190.6920  176.8640  138.2450 C   0  0  0  0  0  0  0  0  0  0  0  0
  192.0840  176.7120  138.3740 C   0  0  0  0  0  3  0  0  0  0  0  0
  1 21  1  1  0  0  0
  1 36  1  0  0  0  0
  2  3  1  0  0  0  0
  4  2  1  0  0  0  0
  5  6  1  0  0  0  0
  6  3  1  0  0  0  0
  6  8  1  1  0  0  0
  7  1  1  6  0  0  0
  7  4  1  0  0  0  0
  7  5  1  0  0  0  0
  8  9  1  0  0  0  0
  9 10  1  0  0  0  0
 11 10  1  0  0  0  0
 12 18  1  0  0  0  0
 13 17  1  0  0  0  0
 14 20  1  0  0  0  0
 15 14  1  6  0  0  0
 15 19  1  0  0  0  0
 15 16  1  0  0  0  0
 16 17  1  0  0  0  0
 17 11  1  1  0  0  0
 18 17  1  0  0  0  0
 19 12  1  0  0  0  0
 20 13  1  0  0  0  0
 22 21  1  0  0  0  0
 23 22  1  6  0  0  0
 24 23  1  1  0  0  0
 24 26  1  0  0  0  0
 24 25  1  0  0  0  0
 25 27  2  0  0  0  0
 26 25  1  0  0  0  0
 28 23  1  1  0  0  0
 29 31  1  6  0  0  0
 29 28  1  0  0  0  0
 30 29  1  0  0  0  0
 30 28  1  0  0  0  0
 32 31  1  0  0  0  0
 32 34  1  0  0  0  0
 33 34  1  0  0  0  0
 35 33  1  0  0  0  0
 35 34  1  0  0  0  0
 37 36  1  0  0  0  0
 38 41  2  0  0  0  0
 39 38  1  0  0  0  0
 39 40  1  0  0  0  0
 40 37  2  0  0  0  0
 41 37  1  0  0  0  0
 42 38  1  0  0  0  0
 43 44  1  0  0  0  0
 44 49  2  0  0  0  0
 45 46  1  0  0  0  0
 46 43  2  0  0  0  0
 46 47  1  0  0  0  0
 47 48  2  0  0  0  0
 48 49  1  0  0  0  0
 48 42  1  0  0  0  0
M  END
>  <MODEL>
6

>  <REMARK>
 VINA RESULT:      -6.9      3.426      8.765
  Name = 
  18 active torsions:
  status: ('A' for Active; 'I' for Inactive)
    1  A    between atoms: C_1  and  C_2
    2  A    between atoms: C_2  and  C_43
    3  A    between atoms: N_3  and  C_21
    4  A    between atoms: N_3  and  C_41
    5  A    between atoms: C_5  and  N_45
    6  A    between atoms: C_9  and  C_25
    7  A    between atoms: C_9  and  C_44
    8  A    between atoms: O_12  and  C_24
    9  A    between atoms: O_12  and  C_28
   10  A    between atoms: C_14  and  C_31
   11  A    between atoms: C_17  and  C_31
   12  A    between atoms: C_17  and  C_39
   13  A    between atoms: C_21  and  C_22
   14  A    between atoms: C_24  and  C_25
   15  A    between atoms: C_29  and  C_31
   16  A    between atoms: C_32  and  N_45
   17  A    between atoms: C_39  and  C_43
   18  A    between atoms: C_43  and  C_47
                            x       y       z     vdW  Elec       q    Type
                         _______ _______ _______ _____ _____    ______ ____

>  <TORSDO>
F 18

$$$$
=
 OpenBabel10222419213D

 49 56  0  0  1  0  0  0  0  0999 V2000
  184.8550  178.5460  139.4930 C   0  0  2  0  0  3  0  0  0  0  0  0
  186.7200  177.8490  136.2660 C   0  0  0  0  0  2  0  0  0  0  0  0
  187.7370  178.8340  136.8410 C   0  0  0  0  0  2  0  0  0  0  0  0
  185.4270  177.9190  137.0700 C   0  0  0  0  0  2  0  0  0  0  0  0
  187.1400  177.5430  138.9770 C   0  0  0  0  0  2  0  0  0  0  0  0
  187.9990  178.6400  138.3420 C   0  0  1  0  0  3  0  0  0  0  0  0
  185.6620  177.6290  138.5670 C   0  0  1  0  0  3  0  0  0  0  0  0
  189.4690  178.3340  138.5910 C   0  0  0  0  0  2  0  0  0  0  0  0
  189.7740  176.8610  138.3600 C   0  0  0  0  0  2  0  0  0  0  0  0
  190.7170  176.6780  137.1820 C   0  0  0  0  0  2  0  0  0  0  0  0
  192.0140  176.3800  137.6450 O   0  0  0  0  0  0  0  0  0  0  0  0
  195.1960  176.0030  136.3650 N   0  0  0  0  0  2  0  0  0  0  0  0
  191.7840  175.1130  135.5730 C   0  0  0  0  0  2  0  0  0  0  0  0
  193.5200  173.3720  134.8990 C   0  0  0  0  0  2  0  0  0  0  0  0
  194.4030  173.6590  136.1170 C   0  0  2  0  0  3  0  0  0  0  0  0
  193.4480  174.1890  137.5930 S   0  0  0  0  0  0  0  0  0  0  0  0
  192.7320  175.6210  136.6870 C   0  0  2  0  0  0  0  0  0  0  0  0
  193.8560  176.4590  136.0130 C   0  0  0  0  0  2  0  0  0  0  0  0
  195.4460  174.7080  135.7330 C   0  0  0  0  0  2  0  0  0  0  0  0
  192.0350  173.6700  135.1250 C   0  0  0  0  0  2  0  0  0  0  0  0
  185.6330  178.8150  140.7710 C   0  0  0  0  0  2  0  0  0  0  0  0
  184.8850  178.2480  141.9670 C   0  0  0  0  0  2  0  0  0  0  0  0
  185.6770  178.3810  143.2760 C   0  0  1  0  0  3  0  0  0  0  0  0
  184.9430  178.9540  144.5060 C   0  0  2  0  0  3  0  0  0  0  0  0
  183.4480  179.1210  144.2570 C   0  0  0  0  0  0  0  0  0  0  0  0
  184.4390  180.2860  144.3430 C   0  0  0  0  0  2  0  0  0  0  0  0
  182.2300  178.6280  144.0790 C   0  0  0  0  0  2  0  0  0  0  0  0
  186.4790  177.1280  143.6090 C   0  0  1  0  0  3  0  0  0  0  0  0
  187.9580  177.4180  143.4270 C   0  0  1  0  0  3  0  0  0  0  0  0
  187.3590  177.3770  144.8150 C   0  0  0  0  0  2  0  0  0  0  0  0
  188.6660  176.1730  143.1810 N   0  0  0  0  0  2  0  0  0  0  0  0
  189.5320  176.4030  142.0460 C   0  0  0  0  0  2  0  0  0  0  0  0
  191.6810  177.5030  141.5410 C   0  0  0  0  0  2  0  0  0  0  0  0
  190.3740  177.6370  142.2950 C   0  0  0  0  0  3  0  0  0  0  0  0
  191.6350  177.2390  143.0290 C   0  0  0  0  0  2  0  0  0  0  0  0
  183.4800  177.9690  139.8330 C   0  0  0  0  0  2  0  0  0  0  0  0
  182.3930  178.9410  139.5250 C   0  0  0  0  0  0  0  0  0  0  0  0
  181.0640  180.2480  138.1610 C   0  0  0  0  0  0  0  0  0  0  0  0
  180.4430  180.4580  139.7030 S   0  0  0  0  0  0  0  0  0  0  0  0
  181.5240  179.4400  140.4970 C   0  0  0  0  0  3  0  0  0  0  0  0
  182.1430  179.3790  138.2180 C   0  0  0  0  0  3  0  0  0  0  0  0
  180.5520  180.9060  136.9950 N   0  0  0  0  0  2  0  0  0  0  0  0
  180.3230  185.0950  136.3820 C   0  0  0  0  0  3  0  0  0  0  0  0
  180.8060  184.2740  135.3540 C   0  0  0  0  0  3  0  0  0  0  0  0
  179.3040  185.5530  138.8730 Cl  0  0  0  0  0  0  0  0  0  0  0  0
  179.9150  184.5290  137.5930 C   0  0  0  0  0  0  0  0  0  0  0  0
  179.9930  183.1460  137.7820 C   0  0  0  0  0  3  0  0  0  0  0  0
  180.4870  182.3190  136.7650 C   0  0  0  0  0  0  0  0  0  0  0  0
  180.8850  182.8920  135.5430 C   0  0  0  0  0  3  0  0  0  0  0  0
  1 36  1  1  0  0  0
  1 21  1  0  0  0  0
  2  3  1  0  0  0  0
  2  4  1  0  0  0  0
  3  6  1  0  0  0  0
  4  7  1  0  0  0  0
  6  8  1  6  0  0  0
  6  5  1  0  0  0  0
  7  5  1  0  0  0  0
  7  1  1  1  0  0  0
  9  8  1  0  0  0  0
 10 11  1  0  0  0  0
 10  9  1  0  0  0  0
 13 17  1  0  0  0  0
 14 20  1  0  0  0  0
 15 14  1  6  0  0  0
 15 16  1  0  0  0  0
 17 16  1  0  0  0  0
 17 11  1  1  0  0  0
 18 12  1  0  0  0  0
 18 17  1  0  0  0  0
 19 15  1  0  0  0  0
 19 12  1  0  0  0  0
 20 13  1  0  0  0  0
 21 22  1  0  0  0  0
 23 22  1  6  0  0  0
 24 23  1  6  0  0  0
 25 26  1  0  0  0  0
 25 24  1  0  0  0  0
 26 24  1  0  0  0  0
 27 25  2  0  0  0  0
 28 23  1  6  0  0  0
 28 30  1  0  0  0  0
 29 31  1  1  0  0  0
 29 28  1  0  0  0  0
 29 30  1  0  0  0  0
 32 34  1  0  0  0  0
 32 31  1  0  0  0  0
 33 34  1  0  0  0  0
 33 35  1  0  0  0  0
 34 35  1  0  0  0  0
 37 36  1  0  0  0  0
 37 40  2  0  0  0  0
 38 41  2  0  0  0  0
 38 39  1  0  0  0  0
 39 40  1  0  0  0  0
 41 37  1  0  0  0  0
 42 38  1  0  0  0  0
 43 46  1  0  0  0  0
 44 49  1  0  0  0  0
 44 43  2  0  0  0  0
 46 47  2  0  0  0  0
 46 45  1  0  0  0  0
 48 42  1  0  0  0  0
 48 47  1  0  0  0  0
 49 48  2  0  0  0  0
M  END
>  <MODEL>
7

>  <REMARK>
 VINA RESULT:      -6.7      5.045     10.545
  Name = 
  18 active torsions:
  status: ('A' for Active; 'I' for Inactive)
    1  A    between atoms: C_1  and  C_2
    2  A    between atoms: C_2  and  C_43
    3  A    between atoms: N_3  and  C_21
    4  A    between atoms: N_3  and  C_41
    5  A    between atoms: C_5  and  N_45
    6  A    between atoms: C_9  and  C_25
    7  A    between atoms: C_9  and  C_44
    8  A    between atoms: O_12  and  C_24
    9  A    between atoms: O_12  and  C_28
   10  A    between atoms: C_14  and  C_31
   11  A    between atoms: C_17  and  C_31
   12  A    between atoms: C_17  and  C_39
   13  A    between atoms: C_21  and  C_22
   14  A    between atoms: C_24  and  C_25
   15  A    between atoms: C_29  and  C_31
   16  A    between atoms: C_32  and  N_45
   17  A    between atoms: C_39  and  C_43
   18  A    between atoms: C_43  and  C_47
                            x       y       z     vdW  Elec       q    Type
                         _______ _______ _______ _____ _____    ______ ____

>  <TORSDO>
F 18

$$$$
=
 OpenBabel10222419213D

 49 56  0  0  1  0  0  0  0  0999 V2000
  189.0340  177.0460  139.5990 C   0  0  2  0  0  3  0  0  0  0  0  0
  188.3300  179.3700  136.6860 C   0  0  0  0  0  2  0  0  0  0  0  0
  187.8930  178.0830  135.9870 C   0  0  0  0  0  2  0  0  0  0  0  0
  189.0820  179.0270  137.9670 C   0  0  0  0  0  2  0  0  0  0  0  0
  186.9150  177.6530  138.3200 C   0  0  0  0  0  2  0  0  0  0  0  0
  187.0740  177.1440  136.8850 C   0  0  1  0  0  3  0  0  0  0  0  0
  188.2330  178.1650  138.9220 C   0  0  1  0  0  3  0  0  0  0  0  0
  185.6970  176.9000  136.2840 C   0  0  0  0  0  2  0  0  0  0  0  0
  185.2450  175.4630  136.5020 C   0  0  0  0  0  2  0  0  0  0  0  0
  183.9530  175.4140  137.3010 C   0  0  0  0  0  2  0  0  0  0  0  0
  183.0640  176.4050  136.8430 O   0  0  0  0  0  0  0  0  0  0  0  0
  180.8600  178.9230  137.6820 N   0  0  0  0  0  2  0  0  0  0  0  0
  182.5140  176.0900  139.1980 C   0  0  0  0  0  2  0  0  0  0  0  0
  180.1590  176.5350  140.0670 C   0  0  0  0  0  2  0  0  0  0  0  0
  179.6520  177.0020  138.7000 C   0  0  2  0  0  3  0  0  0  0  0  0
  180.4960  176.1720  137.2950 S   0  0  0  0  0  0  0  0  0  0  0  0
  182.1420  176.7690  137.8560 C   0  0  2  0  0  0  0  0  0  0  0  0
  182.1170  178.3060  138.0890 C   0  0  0  0  0  2  0  0  0  0  0  0
  179.8030  178.5200  138.6100 C   0  0  0  0  0  2  0  0  0  0  0  0
  181.3240  175.5440  139.9920 C   0  0  0  0  0  2  0  0  0  0  0  0
  188.9550  177.1860  141.1100 C   0  0  0  0  0  2  0  0  0  0  0  0
  187.9950  178.3050  141.4820 C   0  0  0  0  0  2  0  0  0  0  0  0
  187.3080  178.0690  142.8360 C   0  0  1  0  0  3  0  0  0  0  0  0
  185.7780  177.8730  142.8430 C   0  0  2  0  0  3  0  0  0  0  0  0
  185.0740  178.8140  141.8720 C   0  0  0  0  0  0  0  0  0  0  0  0
  185.0320  178.9650  143.3960 C   0  0  0  0  0  2  0  0  0  0  0  0
  184.7610  179.2080  140.6450 C   0  0  0  0  0  2  0  0  0  0  0  0
  188.0320  177.0320  143.6890 C   0  0  1  0  0  3  0  0  0  0  0  0
  189.0070  177.7390  144.6130 C   0  0  1  0  0  3  0  0  0  0  0  0
  187.6880  177.2290  145.1500 C   0  0  0  0  0  2  0  0  0  0  0  0
  190.0620  176.8150  144.9960 N   0  0  0  0  0  2  0  0  0  0  0  0
  190.6900  177.3650  146.1780 C   0  0  0  0  0  2  0  0  0  0  0  0
  192.0440  176.5790  148.0820 C   0  0  0  0  0  2  0  0  0  0  0  0
  190.8320  176.2800  147.2240 C   0  0  0  0  0  3  0  0  0  0  0  0
  192.1270  175.5330  146.9940 C   0  0  0  0  0  2  0  0  0  0  0  0
  190.4970  177.0260  139.1550 C   0  0  0  0  0  2  0  0  0  0  0  0
  190.7790  175.8610  138.2670 C   0  0  0  0  0  0  0  0  0  0  0  0
  192.1040  174.2910  137.2140 C   0  0  0  0  0  0  0  0  0  0  0  0
  190.5350  173.8900  136.7870 S   0  0  0  0  0  0  0  0  0  0  0  0
  189.7710  175.1200  137.6470 C   0  0  0  0  0  3  0  0  0  0  0  0
  192.0830  175.4060  138.0380 C   0  0  0  0  0  3  0  0  0  0  0  0
  193.2650  173.5860  136.7530 N   0  0  0  0  0  2  0  0  0  0  0  0
  197.3160  174.4840  137.6220 C   0  0  0  0  0  3  0  0  0  0  0  0
  196.5510  173.7790  138.5600 C   0  0  0  0  0  3  0  0  0  0  0  0
  197.7020  175.7510  135.2340 Cl  0  0  0  0  0  0  0  0  0  0  0  0
  196.7430  174.8780  136.4090 C   0  0  0  0  0  0  0  0  0  0  0  0
  195.4070  174.5740  136.1340 C   0  0  0  0  0  3  0  0  0  0  0  0
  194.6310  173.8810  137.0710 C   0  0  0  0  0  0  0  0  0  0  0  0
  195.2150  173.4760  138.2850 C   0  0  0  0  0  3  0  0  0  0  0  0
  1 36  1  6  0  0  0
  1 21  1  0  0  0  0
  2  4  1  0  0  0  0
  3  2  1  0  0  0  0
  3  6  1  0  0  0  0
  4  7  1  0  0  0  0
  5  7  1  0  0  0  0
  6  8  1  6  0  0  0
  6  5  1  0  0  0  0
  7  1  1  6  0  0  0
  8  9  1  0  0  0  0
  9 10  1  0  0  0  0
 11 10  1  0  0  0  0
 12 18  1  0  0  0  0
 12 19  1  0  0  0  0
 13 20  1  0  0  0  0
 15 19  1  6  0  0  0
 15 14  1  0  0  0  0
 16 17  1  0  0  0  0
 16 15  1  0  0  0  0
 17 11  1  6  0  0  0
 17 18  1  0  0  0  0
 17 13  1  0  0  0  0
 20 14  1  0  0  0  0
 21 22  1  0  0  0  0
 23 22  1  6  0  0  0
 24 23  1  6  0  0  0
 24 26  1  0  0  0  0
 25 24  1  0  0  0  0
 25 26  1  0  0  0  0
 27 25  2  0  0  0  0
 28 23  1  6  0  0  0
 28 29  1  0  0  0  0
 28 30  1  0  0  0  0
 29 31  1  1  0  0  0
 29 30  1  0  0  0  0
 31 32  1  0  0  0  0
 32 34  1  0  0  0  0
 34 33  1  0  0  0  0
 35 34  1  0  0  0  0
 35 33  1  0  0  0  0
 37 36  1  0  0  0  0
 38 41  2  0  0  0  0
 39 38  1  0  0  0  0
 39 40  1  0  0  0  0
 40 37  2  0  0  0  0
 41 37  1  0  0  0  0
 42 48  1  0  0  0  0
 42 38  1  0  0  0  0
 43 44  1  0  0  0  0
 45 46  1  0  0  0  0
 46 43  2  0  0  0  0
 47 46  1  0  0  0  0
 47 48  2  0  0  0  0
 48 49  1  0  0  0  0
 49 44  2  0  0  0  0
M  END
>  <MODEL>
8

>  <REMARK>
 VINA RESULT:      -6.6      2.059      4.005
  Name = 
  18 active torsions:
  status: ('A' for Active; 'I' for Inactive)
    1  A    between atoms: C_1  and  C_2
    2  A    between atoms: C_2  and  C_43
    3  A    between atoms: N_3  and  C_21
    4  A    between atoms: N_3  and  C_41
    5  A    between atoms: C_5  and  N_45
    6  A    between atoms: C_9  and  C_25
    7  A    between atoms: C_9  and  C_44
    8  A    between atoms: O_12  and  C_24
    9  A    between atoms: O_12  and  C_28
   10  A    between atoms: C_14  and  C_31
   11  A    between atoms: C_17  and  C_31
   12  A    between atoms: C_17  and  C_39
   13  A    between atoms: C_21  and  C_22
   14  A    between atoms: C_24  and  C_25
   15  A    between atoms: C_29  and  C_31
   16  A    between atoms: C_32  and  N_45
   17  A    between atoms: C_39  and  C_43
   18  A    between atoms: C_43  and  C_47
                            x       y       z     vdW  Elec       q    Type
                         _______ _______ _______ _____ _____    ______ ____

>  <TORSDO>
F 18

$$$$
=
 OpenBabel10222419213D

 49 56  0  0  1  0  0  0  0  0999 V2000
  189.0190  177.4770  139.9010 C   0  0  2  0  0  3  0  0  0  0  0  0
  188.6190  178.8970  136.4070 C   0  0  0  0  0  2  0  0  0  0  0  0
  188.4250  177.4310  136.0200 C   0  0  0  0  0  2  0  0  0  0  0  0
  189.1690  178.9820  137.8270 C   0  0  0  0  0  2  0  0  0  0  0  0
  187.1050  177.4670  138.2200 C   0  0  0  0  0  2  0  0  0  0  0  0
  187.5510  176.6440  137.0080 C   0  0  1  0  0  3  0  0  0  0  0  0
  188.2490  178.2790  138.8450 C   0  0  1  0  0  3  0  0  0  0  0  0
  186.3250  176.0810  136.3030 C   0  0  0  0  0  2  0  0  0  0  0  0
  185.5100  177.1850  135.6460 C   0  0  0  0  0  2  0  0  0  0  0  0
  184.0200  176.9460  135.8310 C   0  0  0  0  0  2  0  0  0  0  0  0
  183.7860  176.2740  137.0470 O   0  0  0  0  0  0  0  0  0  0  0  0
  180.6690  175.0570  137.8850 N   0  0  0  0  0  2  0  0  0  0  0  0
  182.3710  178.2160  137.4600 C   0  0  0  0  0  2  0  0  0  0  0  0
  180.6190  178.1950  139.3120 C   0  0  0  0  0  2  0  0  0  0  0  0
  180.9210  176.7440  139.6960 C   0  0  2  0  0  3  0  0  0  0  0  0
  182.6750  176.2740  139.4180 S   0  0  0  0  0  0  0  0  0  0  0  0
  182.5630  176.6890  137.6300 C   0  0  2  0  0  0  0  0  0  0  0  0
  181.3430  175.9780  136.9780 C   0  0  0  0  0  2  0  0  0  0  0  0
  179.9780  175.8220  138.9230 C   0  0  0  0  0  2  0  0  0  0  0  0
  181.8080  178.9340  138.6900 C   0  0  0  0  0  2  0  0  0  0  0  0
  188.6930  177.9930  141.2920 C   0  0  0  0  0  2  0  0  0  0  0  0
  187.7180  177.0530  141.9830 C   0  0  0  0  0  2  0  0  0  0  0  0
  187.0200  177.7050  143.1860 C   0  0  1  0  0  3  0  0  0  0  0  0
  185.5030  177.9660  143.0840 C   0  0  2  0  0  3  0  0  0  0  0  0
  185.1500  178.8410  141.8860 C   0  0  0  0  0  0  0  0  0  0  0  0
  185.1040  179.3190  143.3410 C   0  0  0  0  0  2  0  0  0  0  0  0
  185.0130  179.0380  140.5810 C   0  0  0  0  0  2  0  0  0  0  0  0
  187.4110  177.0630  144.5130 C   0  0  1  0  0  3  0  0  0  0  0  0
  188.3840  177.9720  145.2400 C   0  0  1  0  0  3  0  0  0  0  0  0
  186.9340  177.9180  145.6670 C   0  0  0  0  0  2  0  0  0  0  0  0
  189.1780  177.1840  146.1670 N   0  0  0  0  0  2  0  0  0  0  0  0
  190.5490  177.2580  145.7090 C   0  0  0  0  0  2  0  0  0  0  0  0
  191.6920  177.3560  143.5270 C   0  0  0  0  0  2  0  0  0  0  0  0
  190.5970  177.9710  144.3750 C   0  0  0  0  0  3  0  0  0  0  0  0
  191.9290  178.6720  144.2310 C   0  0  0  0  0  2  0  0  0  0  0  0
  190.5310  177.5140  139.6740 C   0  0  0  0  0  2  0  0  0  0  0  0
  190.9430  176.5630  138.6020 C   0  0  0  0  0  0  0  0  0  0  0  0
  192.2060  175.8270  136.8150 C   0  0  0  0  0  0  0  0  0  0  0  0
  191.1660  174.5600  137.1610 S   0  0  0  0  0  0  0  0  0  0  0  0
  190.3790  175.2950  138.4570 C   0  0  0  0  0  3  0  0  0  0  0  0
  191.9670  176.8700  137.6960 C   0  0  0  0  0  3  0  0  0  0  0  0
  193.1600  175.8100  135.7440 N   0  0  0  0  0  2  0  0  0  0  0  0
  197.3460  175.2750  136.1440 C   0  0  0  0  0  3  0  0  0  0  0  0
  196.8580  176.2870  135.3060 C   0  0  0  0  0  3  0  0  0  0  0  0
  197.0630  173.2000  137.8960 Cl  0  0  0  0  0  0  0  0  0  0  0  0
  196.4530  174.4580  136.8440 C   0  0  0  0  0  0  0  0  0  0  0  0
  195.0750  174.6460  136.7050 C   0  0  0  0  0  3  0  0  0  0  0  0
  194.5790  175.6460  135.8600 C   0  0  0  0  0  0  0  0  0  0  0  0
  195.4810  176.4740  135.1670 C   0  0  0  0  0  3  0  0  0  0  0  0
  1 36  1  6  0  0  0
  1 21  1  0  0  0  0
  2  4  1  0  0  0  0
  3  2  1  0  0  0  0
  3  6  1  0  0  0  0
  4  7  1  0  0  0  0
  5  7  1  0  0  0  0
  6  8  1  6  0  0  0
  6  5  1  0  0  0  0
  7  1  1  6  0  0  0
  9 10  1  0  0  0  0
  9  8  1  0  0  0  0
 10 11  1  0  0  0  0
 12 19  1  0  0  0  0
 13 17  1  0  0  0  0
 13 20  1  0  0  0  0
 14 15  1  0  0  0  0
 15 19  1  6  0  0  0
 16 15  1  0  0  0  0
 17 11  1  6  0  0  0
 17 16  1  0  0  0  0
 18 17  1  0  0  0  0
 18 12  1  0  0  0  0
 20 14  1  0  0  0  0
 21 22  1  0  0  0  0
 23 22  1  6  0  0  0
 24 23  1  6  0  0  0
 24 26  1  0  0  0  0
 25 24  1  0  0  0  0
 25 26  1  0  0  0  0
 27 25  2  0  0  0  0
 28 23  1  6  0  0  0
 28 29  1  0  0  0  0
 28 30  1  0  0  0  0
 29 30  1  0  0  0  0
 29 31  1  1  0  0  0
 32 31  1  0  0  0  0
 33 35  1  0  0  0  0
 33 34  1  0  0  0  0
 34 32  1  0  0  0  0
 35 34  1  0  0  0  0
 37 36  1  0  0  0  0
 38 39  1  0  0  0  0
 38 41  2  0  0  0  0
 39 40  1  0  0  0  0
 40 37  2  0  0  0  0
 41 37  1  0  0  0  0
 42 48  1  0  0  0  0
 42 38  1  0  0  0  0
 43 46  1  0  0  0  0
 44 43  2  0  0  0  0
 46 45  1  0  0  0  0
 47 46  2  0  0  0  0
 48 47  1  0  0  0  0
 49 44  1  0  0  0  0
 49 48  2  0  0  0  0
M  END
>  <MODEL>
9

>  <REMARK>
 VINA RESULT:      -6.6      1.931      3.752
  Name = 
  18 active torsions:
  status: ('A' for Active; 'I' for Inactive)
    1  A    between atoms: C_1  and  C_2
    2  A    between atoms: C_2  and  C_43
    3  A    between atoms: N_3  and  C_21
    4  A    between atoms: N_3  and  C_41
    5  A    between atoms: C_5  and  N_45
    6  A    between atoms: C_9  and  C_25
    7  A    between atoms: C_9  and  C_44
    8  A    between atoms: O_12  and  C_24
    9  A    between atoms: O_12  and  C_28
   10  A    between atoms: C_14  and  C_31
   11  A    between atoms: C_17  and  C_31
   12  A    between atoms: C_17  and  C_39
   13  A    between atoms: C_21  and  C_22
   14  A    between atoms: C_24  and  C_25
   15  A    between atoms: C_29  and  C_31
   16  A    between atoms: C_32  and  N_45
   17  A    between atoms: C_39  and  C_43
   18  A    between atoms: C_43  and  C_47
                            x       y       z     vdW  Elec       q    Type
                         _______ _______ _______ _____ _____    ______ ____

>  <TORSDO>
F 18

$$$$
