=
 OpenBabel10222415273D

 31 34  0  0  1  0  0  0  0  0999 V2000
  184.3500  179.2200  139.2150 P   0  0  2  0  0  0  0  0  0  0  0  0
  186.7820  177.8160  143.1960 C   0  0  0  0  0  0  0  0  0  0  0  0
  185.4940  178.1660  142.7620 C   0  0  0  0  0  3  0  0  0  0  0  0
  187.8630  177.8330  142.2950 C   0  0  0  0  0  3  0  0  0  0  0  0
  186.0270  178.9060  139.2370 O   0  0  0  0  0  0  0  0  0  0  0  0
  186.3800  178.5310  140.5300 C   0  0  0  0  0  0  0  0  0  0  0  0
  185.3100  178.5170  141.4270 C   0  0  0  0  0  0  0  0  0  0  0  0
  187.6750  178.1900  140.9510 C   0  0  0  0  0  0  0  0  0  0  0  0
  183.6120  178.2530  138.3190 O   0  0  0  0  0  0  0  0  0  0  0  0
  184.0080  180.8320  138.8360 O   0  0  0  0  0  1  0  0  0  0  0  0
  184.0900  178.8780  140.8650 O   0  0  0  0  0  0  0  0  0  0  0  0
  188.7400  179.1590  139.0360 O   0  0  0  0  0  1  0  0  0  0  0  0
  188.8540  178.1710  140.0160 C   0  0  2  0  0  3  0  0  0  0  0  0
  189.1220  176.8020  139.3790 C   0  0  1  0  0  3  0  0  0  0  0  0
  188.8770  176.8410  137.8810 C   0  0  0  0  0  1  0  0  0  0  0  0
  190.4760  176.3350  139.6450 N   0  0  0  0  0  2  0  0  0  0  0  0
  191.1650  176.2360  138.3680 C   0  0  0  0  0  2  0  0  0  0  0  0
  192.6290  176.6020  138.5440 C   0  0  0  0  0  2  0  0  0  0  0  0
  193.4720  175.8400  137.5770 C   0  0  0  0  0  0  0  0  0  0  0  0
  193.3380  174.3590  137.4860 C   0  0  0  0  0  1  0  0  0  0  0  0
  194.2550  176.4250  136.8460 O   0  0  0  0  0  0  0  0  0  0  0  0
  187.0130  177.4620  144.6240 C   0  0  0  0  0  2  0  0  0  0  0  0
  191.7640  176.5140  145.3820 N   0  0  0  0  0  0  0  0  0  0  0  0
  189.3510  176.6970  144.8960 C   0  0  1  0  0  3  0  0  0  0  0  0
  191.7840  176.3880  146.6700 C   0  0  0  0  0  3  0  0  0  0  0  0
  188.4100  177.8790  145.0450 C   0  0  2  0  0  3  0  0  0  0  0  0
  190.7580  177.2230  144.6180 C   0  0  2  0  0  3  0  0  0  0  0  0
  188.8190  177.0970  146.2760 C   0  0  2  0  0  3  0  0  0  0  0  0
  191.0650  177.0960  143.1400 C   0  0  0  0  0  1  0  0  0  0  0  0
  189.8130  177.8480  147.0370 N   0  0  0  0  0  2  0  0  0  0  0  0
  190.7180  176.8730  147.6310 C   0  0  0  0  0  2  0  0  0  0  0  0
  1  9  2  6  0  0  0
  1  5  1  0  0  0  0
  1 11  1  0  0  0  0
  2 22  1  0  0  0  0
  3  2  1  0  0  0  0
  4  2  2  0  0  0  0
  5  6  1  0  0  0  0
  6  8  2  0  0  0  0
  6  7  1  0  0  0  0
  7  3  2  0  0  0  0
  8  4  1  0  0  0  0
 10  1  1  0  0  0  0
 11  7  1  0  0  0  0
 13 12  1  6  0  0  0
 13  8  1  0  0  0  0
 14 15  1  6  0  0  0
 14 16  1  0  0  0  0
 14 13  1  0  0  0  0
 17 18  1  0  0  0  0
 17 16  1  0  0  0  0
 19 18  1  0  0  0  0
 20 19  1  0  0  0  0
 21 19  2  0  0  0  0
 22 26  1  0  0  0  0
 23 25  2  0  0  0  0
 24 26  1  0  0  0  0
 24 28  1  0  0  0  0
 25 31  1  0  0  0  0
 26 28  1  0  0  0  0
 27 24  1  0  0  0  0
 27 23  1  0  0  0  0
 28 30  1  0  0  0  0
 29 27  1  0  0  0  0
 30 31  1  0  0  0  0
M  END
>  <MODEL>
1

>  <REMARK>
 VINA RESULT:      -8.4      0.000      0.000
  Name = 
  8 active torsions:
  status: ('A' for Active; 'I' for Inactive)
    1  A    between atoms: C_3  and  C_16
    2  A    between atoms: N_5  and  C_8
    3  A    between atoms: N_5  and  C_24
    4  A    between atoms: C_6  and  C_8
    5  A    between atoms: C_6  and  C_25
    6  A    between atoms: C_12  and  C_13
    7  A    between atoms: C_12  and  C_19
    8  A    between atoms: C_16  and  C_24
                            x       y       z     vdW  Elec       q    Type
                         _______ _______ _______ _____ _____    ______ ____

>  <TORSDO>
F 8

$$$$
=
 OpenBabel10222415273D

 31 34  0  0  1  0  0  0  0  0999 V2000
  184.2240  178.9070  139.7680 P   0  0  2  0  0  0  0  0  0  0  0  0
  184.0800  178.6240  144.6290 C   0  0  0  0  0  0  0  0  0  0  0  0
  184.9770  178.5650  143.5520 C   0  0  0  0  0  3  0  0  0  0  0  0
  182.7060  178.8190  144.3990 C   0  0  0  0  0  3  0  0  0  0  0  0
  182.7890  179.0380  140.6810 O   0  0  0  0  0  0  0  0  0  0  0  0
  183.1190  178.9110  142.0280 C   0  0  0  0  0  0  0  0  0  0  0  0
  184.4810  178.7140  142.2590 C   0  0  0  0  0  0  0  0  0  0  0  0
  182.2090  178.9650  143.0940 C   0  0  0  0  0  0  0  0  0  0  0  0
  184.5360  180.1870  139.0280 O   0  0  0  0  0  1  0  0  0  0  0  0
  184.2070  177.5620  138.7420 O   0  0  0  0  0  0  0  0  0  0  0  0
  185.2580  178.6820  141.1060 O   0  0  0  0  0  0  0  0  0  0  0  0
  179.9870  178.6040  143.9130 O   0  0  0  0  0  1  0  0  0  0  0  0
  180.7350  179.1970  142.8940 C   0  0  2  0  0  3  0  0  0  0  0  0
  180.2170  178.7650  141.5170 C   0  0  1  0  0  3  0  0  0  0  0  0
  179.6730  177.3480  141.5600 C   0  0  0  0  0  1  0  0  0  0  0  0
  179.1930  179.6710  141.0130 N   0  0  0  0  0  2  0  0  0  0  0  0
  179.4890  179.9320  139.6130 C   0  0  0  0  0  2  0  0  0  0  0  0
  180.0910  181.3190  139.4640 C   0  0  0  0  0  2  0  0  0  0  0  0
  181.1900  181.3000  138.4560 C   0  0  0  0  0  0  0  0  0  0  0  0
  181.2690  180.1880  137.4680 C   0  0  0  0  0  1  0  0  0  0  0  0
  182.0130  182.2010  138.4240 O   0  0  0  0  0  0  0  0  0  0  0  0
  184.5790  178.4420  146.0200 C   0  0  0  0  0  2  0  0  0  0  0  0
  189.2440  176.9420  146.2080 N   0  0  0  0  0  0  0  0  0  0  0  0
  186.8200  177.3950  146.0960 C   0  0  1  0  0  3  0  0  0  0  0  0
  189.5090  177.1280  147.4610 C   0  0  0  0  0  3  0  0  0  0  0  0
  186.0710  178.7150  146.0780 C   0  0  2  0  0  3  0  0  0  0  0  0
  188.1940  177.6010  145.4600 C   0  0  2  0  0  3  0  0  0  0  0  0
  186.6270  178.1960  147.3880 C   0  0  2  0  0  3  0  0  0  0  0  0
  188.1790  177.0750  144.0390 C   0  0  0  0  0  1  0  0  0  0  0  0
  187.8340  178.9340  147.7460 N   0  0  0  0  0  2  0  0  0  0  0  0
  188.7220  177.9970  148.4200 C   0  0  0  0  0  2  0  0  0  0  0  0
  1 10  2  6  0  0  0
  1  5  1  0  0  0  0
  1 11  1  0  0  0  0
  2 22  1  0  0  0  0
  3  2  2  0  0  0  0
  4  2  1  0  0  0  0
  5  6  1  0  0  0  0
  6  7  2  0  0  0  0
  6  8  1  0  0  0  0
  7  3  1  0  0  0  0
  8  4  2  0  0  0  0
  9  1  1  0  0  0  0
 11  7  1  0  0  0  0
 13  8  1  0  0  0  0
 13 12  1  1  0  0  0
 14 15  1  1  0  0  0
 14 13  1  0  0  0  0
 16 14  1  0  0  0  0
 17 16  1  0  0  0  0
 18 17  1  0  0  0  0
 19 18  1  0  0  0  0
 20 19  1  0  0  0  0
 21 19  2  0  0  0  0
 22 26  1  0  0  0  0
 23 25  2  0  0  0  0
 24 28  1  0  0  0  0
 25 31  1  0  0  0  0
 26 24  1  0  0  0  0
 26 28  1  0  0  0  0
 27 24  1  0  0  0  0
 27 23  1  0  0  0  0
 28 30  1  0  0  0  0
 29 27  1  0  0  0  0
 30 31  1  0  0  0  0
M  END
>  <MODEL>
2

>  <REMARK>
 VINA RESULT:      -8.3      4.244      7.133
  Name = 
  8 active torsions:
  status: ('A' for Active; 'I' for Inactive)
    1  A    between atoms: C_3  and  C_16
    2  A    between atoms: N_5  and  C_8
    3  A    between atoms: N_5  and  C_24
    4  A    between atoms: C_6  and  C_8
    5  A    between atoms: C_6  and  C_25
    6  A    between atoms: C_12  and  C_13
    7  A    between atoms: C_12  and  C_19
    8  A    between atoms: C_16  and  C_24
                            x       y       z     vdW  Elec       q    Type
                         _______ _______ _______ _____ _____    ______ ____

>  <TORSDO>
F 8

$$$$
=
 OpenBabel10222415273D

 31 34  0  0  1  0  0  0  0  0999 V2000
  188.3400  177.4200  147.4550 P   0  0  2  0  0  0  0  0  0  0  0  0
  184.8690  178.9700  144.4090 C   0  0  0  0  0  0  0  0  0  0  0  0
  185.2460  179.0170  145.7600 C   0  0  0  0  0  3  0  0  0  0  0  0
  185.6530  178.2650  143.4780 C   0  0  0  0  0  3  0  0  0  0  0  0
  188.3190  177.0660  145.7870 O   0  0  0  0  0  0  0  0  0  0  0  0
  187.1920  177.6650  145.2310 C   0  0  0  0  0  0  0  0  0  0  0  0
  186.4100  178.3620  146.1530 C   0  0  0  0  0  0  0  0  0  0  0  0
  186.8250  177.6030  143.8780 C   0  0  0  0  0  0  0  0  0  0  0  0
  189.5370  178.2610  147.8340 O   0  0  0  0  0  0  0  0  0  0  0  0
  188.2100  176.0270  148.4050 O   0  0  0  0  0  1  0  0  0  0  0  0
  186.9000  178.3340  147.4550 O   0  0  0  0  0  0  0  0  0  0  0  0
  188.2040  175.7120  143.3680 O   0  0  0  0  0  1  0  0  0  0  0  0
  187.6470  176.8810  142.8450 C   0  0  2  0  0  3  0  0  0  0  0  0
  188.7260  177.7500  142.1870 C   0  0  1  0  0  3  0  0  0  0  0  0
  188.1260  178.6500  141.1220 C   0  0  0  0  0  1  0  0  0  0  0  0
  189.4450  178.5560  143.1660 N   0  0  0  0  0  2  0  0  0  0  0  0
  190.8350  178.1300  143.1490 C   0  0  0  0  0  2  0  0  0  0  0  0
  191.3520  178.0040  144.5720 C   0  0  0  0  0  2  0  0  0  0  0  0
  191.6390  176.5750  144.8920 C   0  0  0  0  0  0  0  0  0  0  0  0
  191.8980  176.1710  146.3020 C   0  0  0  0  0  1  0  0  0  0  0  0
  191.6430  175.7340  144.0080 O   0  0  0  0  0  0  0  0  0  0  0  0
  183.6150  179.6400  143.9650 C   0  0  0  0  0  2  0  0  0  0  0  0
  180.8540  178.0460  140.2390 N   0  0  0  0  0  0  0  0  0  0  0  0
  182.3230  179.0860  141.9280 C   0  0  1  0  0  3  0  0  0  0  0  0
  179.6710  178.3600  140.6620 C   0  0  0  0  0  3  0  0  0  0  0  0
  182.6810  178.6260  143.3300 C   0  0  2  0  0  3  0  0  0  0  0  0
  182.0250  177.8570  141.0700 C   0  0  2  0  0  3  0  0  0  0  0  0
  181.3320  179.2710  143.0820 C   0  0  2  0  0  3  0  0  0  0  0  0
  183.2210  177.5470  140.1940 C   0  0  0  0  0  1  0  0  0  0  0  0
  180.2880  178.2520  143.0610 N   0  0  0  0  0  2  0  0  0  0  0  0
  179.2910  178.6850  142.0910 C   0  0  0  0  0  2  0  0  0  0  0  0
  1  9  2  1  0  0  0
  1 10  1  0  0  0  0
  2  3  1  0  0  0  0
  3  7  2  0  0  0  0
  4  8  1  0  0  0  0
  4  2  2  0  0  0  0
  5  1  1  0  0  0  0
  6  5  1  0  0  0  0
  6  7  1  0  0  0  0
  7 11  1  0  0  0  0
  8  6  2  0  0  0  0
 11  1  1  0  0  0  0
 13 12  1  1  0  0  0
 13  8  1  0  0  0  0
 14 15  1  6  0  0  0
 14 13  1  0  0  0  0
 14 16  1  0  0  0  0
 17 16  1  0  0  0  0
 17 18  1  0  0  0  0
 18 19  1  0  0  0  0
 19 20  1  0  0  0  0
 21 19  2  0  0  0  0
 22  2  1  0  0  0  0
 23 25  2  0  0  0  0
 23 27  1  0  0  0  0
 24 28  1  0  0  0  0
 24 26  1  0  0  0  0
 25 31  1  0  0  0  0
 26 22  1  0  0  0  0
 27 24  1  0  0  0  0
 28 26  1  0  0  0  0
 29 27  1  0  0  0  0
 30 28  1  0  0  0  0
 31 30  1  0  0  0  0
M  END
>  <MODEL>
3

>  <REMARK>
 VINA RESULT:      -8.2      5.049      7.684
  Name = 
  8 active torsions:
  status: ('A' for Active; 'I' for Inactive)
    1  A    between atoms: C_3  and  C_16
    2  A    between atoms: N_5  and  C_8
    3  A    between atoms: N_5  and  C_24
    4  A    between atoms: C_6  and  C_8
    5  A    between atoms: C_6  and  C_25
    6  A    between atoms: C_12  and  C_13
    7  A    between atoms: C_12  and  C_19
    8  A    between atoms: C_16  and  C_24
                            x       y       z     vdW  Elec       q    Type
                         _______ _______ _______ _____ _____    ______ ____

>  <TORSDO>
F 8

$$$$
=
 OpenBabel10222415273D

 31 34  0  0  1  0  0  0  0  0999 V2000
  188.3080  177.4500  147.5100 P   0  0  2  0  0  0  0  0  0  0  0  0
  184.6660  178.9340  144.6360 C   0  0  0  0  0  0  0  0  0  0  0  0
  185.0640  178.9120  145.9820 C   0  0  0  0  0  3  0  0  0  0  0  0
  185.4840  178.3630  143.6440 C   0  0  0  0  0  3  0  0  0  0  0  0
  188.2820  177.2170  145.8210 O   0  0  0  0  0  0  0  0  0  0  0  0
  187.1000  177.7630  145.3260 C   0  0  0  0  0  0  0  0  0  0  0  0
  186.2840  178.3260  146.3090 C   0  0  0  0  0  0  0  0  0  0  0  0
  186.7120  177.7700  143.9780 C   0  0  0  0  0  0  0  0  0  0  0  0
  189.4420  178.3540  147.9330 O   0  0  0  0  0  0  0  0  0  0  0  0
  188.3080  175.9850  148.3560 O   0  0  0  0  0  1  0  0  0  0  0  0
  186.8010  178.2430  147.5970 O   0  0  0  0  0  0  0  0  0  0  0  0
  188.0510  175.9300  143.2300 O   0  0  0  0  0  1  0  0  0  0  0  0
  187.5680  177.1930  142.8830 C   0  0  2  0  0  3  0  0  0  0  0  0
  188.7140  178.1100  142.4390 C   0  0  1  0  0  3  0  0  0  0  0  0
  190.0540  177.4080  142.5660 C   0  0  0  0  0  1  0  0  0  0  0  0
  188.5330  178.5830  141.0720 N   0  0  0  0  0  2  0  0  0  0  0  0
  188.7910  177.4610  140.1820 C   0  0  0  0  0  2  0  0  0  0  0  0
  189.5980  177.9310  138.9840 C   0  0  0  0  0  2  0  0  0  0  0  0
  188.7060  178.5920  137.9880 C   0  0  0  0  0  0  0  0  0  0  0  0
  187.4720  177.8990  137.5250 C   0  0  0  0  0  1  0  0  0  0  0  0
  188.9720  179.7070  137.5670 O   0  0  0  0  0  0  0  0  0  0  0  0
  183.3540  179.5310  144.2610 C   0  0  0  0  0  2  0  0  0  0  0  0
  181.0510  178.1370  140.1620 N   0  0  0  0  0  0  0  0  0  0  0  0
  182.2950  179.0950  142.0670 C   0  0  1  0  0  3  0  0  0  0  0  0
  179.8190  178.3620  140.4870 C   0  0  0  0  0  3  0  0  0  0  0  0
  182.5390  178.5350  143.4570 C   0  0  2  0  0  3  0  0  0  0  0  0
  182.1450  177.9310  141.0890 C   0  0  2  0  0  3  0  0  0  0  0  0
  181.1890  179.1380  143.1270 C   0  0  2  0  0  3  0  0  0  0  0  0
  183.4350  177.7480  140.3150 C   0  0  0  0  0  1  0  0  0  0  0  0
  180.2060  178.0790  142.9200 N   0  0  0  0  0  2  0  0  0  0  0  0
  179.2860  178.5490  141.8920 C   0  0  0  0  0  2  0  0  0  0  0  0
  1 11  1  0  0  0  0
  1  9  2  1  0  0  0
  1 10  1  0  0  0  0
  2  3  1  0  0  0  0
  3  7  2  0  0  0  0
  4  8  1  0  0  0  0
  4  2  2  0  0  0  0
  5  1  1  0  0  0  0
  6  5  1  0  0  0  0
  6  7  1  0  0  0  0
  7 11  1  0  0  0  0
  8  6  2  0  0  0  0
 13 12  1  1  0  0  0
 13  8  1  0  0  0  0
 14 15  1  6  0  0  0
 14 13  1  0  0  0  0
 16 14  1  0  0  0  0
 17 16  1  0  0  0  0
 18 17  1  0  0  0  0
 19 18  1  0  0  0  0
 20 19  1  0  0  0  0
 21 19  2  0  0  0  0
 22  2  1  0  0  0  0
 23 25  2  0  0  0  0
 23 27  1  0  0  0  0
 24 28  1  0  0  0  0
 24 26  1  0  0  0  0
 25 31  1  0  0  0  0
 26 22  1  0  0  0  0
 27 24  1  0  0  0  0
 28 26  1  0  0  0  0
 29 27  1  0  0  0  0
 30 28  1  0  0  0  0
 31 30  1  0  0  0  0
M  END
>  <MODEL>
4

>  <REMARK>
 VINA RESULT:      -8.2      4.923      7.428
  Name = 
  8 active torsions:
  status: ('A' for Active; 'I' for Inactive)
    1  A    between atoms: C_3  and  C_16
    2  A    between atoms: N_5  and  C_8
    3  A    between atoms: N_5  and  C_24
    4  A    between atoms: C_6  and  C_8
    5  A    between atoms: C_6  and  C_25
    6  A    between atoms: C_12  and  C_13
    7  A    between atoms: C_12  and  C_19
    8  A    between atoms: C_16  and  C_24
                            x       y       z     vdW  Elec       q    Type
                         _______ _______ _______ _____ _____    ______ ____

>  <TORSDO>
F 8

$$$$
=
 OpenBabel10222415273D

 31 34  0  0  1  0  0  0  0  0999 V2000
  190.7540  176.6060  147.0410 P   0  0  2  0  0  0  0  0  0  0  0  0
  186.4450  178.3120  145.5410 C   0  0  0  0  0  0  0  0  0  0  0  0
  187.2200  178.1530  146.7000 C   0  0  0  0  0  3  0  0  0  0  0  0
  186.9300  177.8720  144.2960 C   0  0  0  0  0  3  0  0  0  0  0  0
  190.2310  176.5580  145.4180 O   0  0  0  0  0  0  0  0  0  0  0  0
  188.9620  177.1280  145.3550 C   0  0  0  0  0  0  0  0  0  0  0  0
  188.4770  177.5630  146.5890 C   0  0  0  0  0  0  0  0  0  0  0  0
  188.1960  177.2740  144.1880 C   0  0  0  0  0  0  0  0  0  0  0  0
  191.9720  177.4840  147.2110 O   0  0  0  0  0  0  0  0  0  0  0  0
  190.9870  175.0580  147.6820 O   0  0  0  0  0  1  0  0  0  0  0  0
  189.3470  177.3510  147.6520 O   0  0  0  0  0  0  0  0  0  0  0  0
  189.3510  175.6130  142.9060 O   0  0  0  0  0  1  0  0  0  0  0  0
  188.6870  176.8390  142.8340 C   0  0  2  0  0  3  0  0  0  0  0  0
  189.5520  177.8850  142.1190 C   0  0  1  0  0  3  0  0  0  0  0  0
  190.9840  177.4020  141.9780 C   0  0  0  0  0  1  0  0  0  0  0  0
  189.0160  178.2280  140.8080 N   0  0  0  0  0  2  0  0  0  0  0  0
  189.6390  177.3460  139.8340 C   0  0  0  0  0  2  0  0  0  0  0  0
  188.6440  177.0050  138.7390 C   0  0  0  0  0  2  0  0  0  0  0  0
  188.1450  178.2500  138.0870 C   0  0  0  0  0  0  0  0  0  0  0  0
  189.0560  179.0470  137.2190 C   0  0  0  0  0  1  0  0  0  0  0  0
  186.9890  178.6090  138.2450 O   0  0  0  0  0  0  0  0  0  0  0  0
  185.0870  178.9170  145.6350 C   0  0  0  0  0  2  0  0  0  0  0  0
  182.6090  179.1600  141.4100 N   0  0  0  0  0  0  0  0  0  0  0  0
  183.9610  179.3240  143.4690 C   0  0  1  0  0  3  0  0  0  0  0  0
  181.4070  179.3600  141.8450 C   0  0  0  0  0  3  0  0  0  0  0  0
  184.1750  178.3140  144.5820 C   0  0  2  0  0  3  0  0  0  0  0  0
  183.6940  178.5690  142.1670 C   0  0  2  0  0  3  0  0  0  0  0  0
  182.8800  179.0980  144.5300 C   0  0  2  0  0  3  0  0  0  0  0  0
  184.9500  178.5540  141.3210 C   0  0  0  0  0  1  0  0  0  0  0  0
  181.8030  178.2510  144.0270 N   0  0  0  0  0  2  0  0  0  0  0  0
  180.9140  179.1080  143.2540 C   0  0  0  0  0  2  0  0  0  0  0  0
  1  9  2  1  0  0  0
  1 11  1  0  0  0  0
  1 10  1  0  0  0  0
  2 22  1  0  0  0  0
  2  3  1  0  0  0  0
  4  2  2  0  0  0  0
  5  1  1  0  0  0  0
  6  5  1  0  0  0  0
  6  7  1  0  0  0  0
  7  3  2  0  0  0  0
  7 11  1  0  0  0  0
  8  4  1  0  0  0  0
  8  6  2  0  0  0  0
 13 12  1  1  0  0  0
 13  8  1  0  0  0  0
 14 15  1  6  0  0  0
 14 13  1  0  0  0  0
 16 14  1  0  0  0  0
 17 16  1  0  0  0  0
 18 17  1  0  0  0  0
 19 21  2  0  0  0  0
 19 18  1  0  0  0  0
 20 19  1  0  0  0  0
 23 25  2  0  0  0  0
 23 27  1  0  0  0  0
 24 28  1  0  0  0  0
 24 26  1  0  0  0  0
 25 31  1  0  0  0  0
 26 22  1  0  0  0  0
 27 24  1  0  0  0  0
 28 26  1  0  0  0  0
 29 27  1  0  0  0  0
 30 28  1  0  0  0  0
 31 30  1  0  0  0  0
M  END
>  <MODEL>
5

>  <REMARK>
 VINA RESULT:      -8.1      4.708      7.057
  Name = 
  8 active torsions:
  status: ('A' for Active; 'I' for Inactive)
    1  A    between atoms: C_3  and  C_16
    2  A    between atoms: N_5  and  C_8
    3  A    between atoms: N_5  and  C_24
    4  A    between atoms: C_6  and  C_8
    5  A    between atoms: C_6  and  C_25
    6  A    between atoms: C_12  and  C_13
    7  A    between atoms: C_12  and  C_19
    8  A    between atoms: C_16  and  C_24
                            x       y       z     vdW  Elec       q    Type
                         _______ _______ _______ _____ _____    ______ ____

>  <TORSDO>
F 8

$$$$
=
 OpenBabel10222415273D

 31 34  0  0  1  0  0  0  0  0999 V2000
  188.0910  178.0850  139.1810 P   0  0  2  0  0  0  0  0  0  0  0  0
  185.1930  178.7830  143.0340 C   0  0  0  0  0  0  0  0  0  0  0  0
  185.2630  179.0260  141.6530 C   0  0  0  0  0  3  0  0  0  0  0  0
  186.2490  178.1270  143.6930 C   0  0  0  0  0  3  0  0  0  0  0  0
  188.4840  177.5830  140.7630 O   0  0  0  0  0  0  0  0  0  0  0  0
  187.4350  177.9420  141.6050 C   0  0  0  0  0  0  0  0  0  0  0  0
  186.3880  178.5960  140.9540 C   0  0  0  0  0  0  0  0  0  0  0  0
  187.3830  177.6990  142.9860 C   0  0  0  0  0  0  0  0  0  0  0  0
  187.9410  176.9110  138.2420 O   0  0  0  0  0  0  0  0  0  0  0  0
  189.1750  179.2420  138.5920 O   0  0  0  0  0  1  0  0  0  0  0  0
  186.5820  178.7670  139.5870 O   0  0  0  0  0  0  0  0  0  0  0  0
  188.2000  176.9030  145.0920 O   0  0  0  0  0  1  0  0  0  0  0  0
  188.4780  176.9790  143.7260 C   0  0  2  0  0  3  0  0  0  0  0  0
  189.8780  177.5590  143.4870 C   0  0  1  0  0  3  0  0  0  0  0  0
  190.0960  178.8120  144.3160 C   0  0  0  0  0  1  0  0  0  0  0  0
  190.9250  176.5880  143.7770 N   0  0  0  0  0  2  0  0  0  0  0  0
  191.6730  177.0770  144.9240 C   0  0  0  0  0  2  0  0  0  0  0  0
  191.7140  176.0100  146.0040 C   0  0  0  0  0  2  0  0  0  0  0  0
  191.4820  176.6220  147.3440 C   0  0  0  0  0  0  0  0  0  0  0  0
  190.1500  177.2020  147.6720 C   0  0  0  0  0  1  0  0  0  0  0  0
  192.3700  176.6310  148.1810 O   0  0  0  0  0  0  0  0  0  0  0  0
  184.0130  179.2550  143.8110 C   0  0  0  0  0  2  0  0  0  0  0  0
  179.7830  178.8220  141.3690 N   0  0  0  0  0  0  0  0  0  0  0  0
  181.9390  179.3200  142.4630 C   0  0  1  0  0  3  0  0  0  0  0  0
  178.9310  179.0120  142.3240 C   0  0  0  0  0  3  0  0  0  0  0  0
  182.7770  178.4740  143.4050 C   0  0  2  0  0  3  0  0  0  0  0  0
  181.1560  178.3920  141.5350 C   0  0  2  0  0  3  0  0  0  0  0  0
  181.5430  179.1740  143.9360 C   0  0  2  0  0  3  0  0  0  0  0  0
  181.8350  178.3360  140.1820 C   0  0  0  0  0  1  0  0  0  0  0  0
  180.4580  178.2140  144.1070 N   0  0  0  0  0  2  0  0  0  0  0  0
  179.2170  178.9160  143.8080 C   0  0  0  0  0  2  0  0  0  0  0  0
  1  9  2  6  0  0  0
  1 11  1  0  0  0  0
  1  5  1  0  0  0  0
  2  4  1  0  0  0  0
  2 22  1  0  0  0  0
  3  2  2  0  0  0  0
  5  6  1  0  0  0  0
  6  8  1  0  0  0  0
  7  6  2  0  0  0  0
  7  3  1  0  0  0  0
  8  4  2  0  0  0  0
  8 13  1  0  0  0  0
 10  1  1  0  0  0  0
 11  7  1  0  0  0  0
 13 12  1  1  0  0  0
 14 13  1  0  0  0  0
 14 16  1  0  0  0  0
 14 15  1  1  0  0  0
 16 17  1  0  0  0  0
 17 18  1  0  0  0  0
 18 19  1  0  0  0  0
 19 20  1  0  0  0  0
 19 21  2  0  0  0  0
 23 27  1  0  0  0  0
 23 25  2  0  0  0  0
 24 26  1  0  0  0  0
 24 28  1  0  0  0  0
 25 31  1  0  0  0  0
 26 22  1  0  0  0  0
 26 28  1  0  0  0  0
 27 24  1  0  0  0  0
 28 30  1  0  0  0  0
 29 27  1  0  0  0  0
 31 30  1  0  0  0  0
M  END
>  <MODEL>
6

>  <REMARK>
 VINA RESULT:      -8.0      4.259      7.353
  Name = 
  8 active torsions:
  status: ('A' for Active; 'I' for Inactive)
    1  A    between atoms: C_3  and  C_16
    2  A    between atoms: N_5  and  C_8
    3  A    between atoms: N_5  and  C_24
    4  A    between atoms: C_6  and  C_8
    5  A    between atoms: C_6  and  C_25
    6  A    between atoms: C_12  and  C_13
    7  A    between atoms: C_12  and  C_19
    8  A    between atoms: C_16  and  C_24
                            x       y       z     vdW  Elec       q    Type
                         _______ _______ _______ _____ _____    ______ ____

>  <TORSDO>
F 8

$$$$
=
 OpenBabel10222415273D

 31 34  0  0  1  0  0  0  0  0999 V2000
  188.2520  177.5140  147.4720 P   0  0  2  0  0  0  0  0  0  0  0  0
  185.1760  178.5540  143.8410 C   0  0  0  0  0  0  0  0  0  0  0  0
  185.3060  178.6580  145.2350 C   0  0  0  0  0  3  0  0  0  0  0  0
  186.1960  177.9600  143.0760 C   0  0  0  0  0  3  0  0  0  0  0  0
  188.5650  177.1530  145.8350 O   0  0  0  0  0  0  0  0  0  0  0  0
  187.4790  177.5870  145.0800 C   0  0  0  0  0  0  0  0  0  0  0  0
  186.4640  178.1730  145.8370 C   0  0  0  0  0  0  0  0  0  0  0  0
  187.3610  177.4690  143.6870 C   0  0  0  0  0  0  0  0  0  0  0  0
  189.2410  178.5140  148.0240 O   0  0  0  0  0  0  0  0  0  0  0  0
  188.1520  176.1190  148.4250 O   0  0  0  0  0  1  0  0  0  0  0  0
  186.7220  178.2180  147.2030 O   0  0  0  0  0  0  0  0  0  0  0  0
  189.1360  175.8690  143.5170 O   0  0  0  0  0  1  0  0  0  0  0  0
  188.4380  176.8640  142.8280 C   0  0  2  0  0  3  0  0  0  0  0  0
  189.4070  177.8900  142.2270 C   0  0  1  0  0  3  0  0  0  0  0  0
  190.3380  178.4460  143.2890 C   0  0  0  0  0  1  0  0  0  0  0  0
  190.1870  177.3250  141.1340 N   0  0  0  0  0  2  0  0  0  0  0  0
  189.3190  177.2480  139.9690 C   0  0  0  0  0  2  0  0  0  0  0  0
  189.1630  178.6280  139.3530 C   0  0  0  0  0  2  0  0  0  0  0  0
  189.0500  178.5210  137.8700 C   0  0  0  0  0  0  0  0  0  0  0  0
  189.5240  177.2900  137.1780 C   0  0  0  0  0  1  0  0  0  0  0  0
  188.5530  179.4290  137.2220 O   0  0  0  0  0  0  0  0  0  0  0  0
  183.9370  179.0410  143.1730 C   0  0  0  0  0  2  0  0  0  0  0  0
  183.2160  178.5960  138.3430 N   0  0  0  0  0  0  0  0  0  0  0  0
  183.6290  179.1230  140.7190 C   0  0  1  0  0  3  0  0  0  0  0  0
  181.9280  178.4750  138.3000 C   0  0  0  0  0  3  0  0  0  0  0  0
  183.6540  178.2130  141.9340 C   0  0  2  0  0  3  0  0  0  0  0  0
  184.0520  178.3160  139.4920 C   0  0  2  0  0  3  0  0  0  0  0  0
  182.3210  178.6270  141.3450 C   0  0  2  0  0  3  0  0  0  0  0  0
  185.4960  178.6280  139.1530 C   0  0  0  0  0  1  0  0  0  0  0  0
  181.7460  177.5230  140.5830 N   0  0  0  0  0  2  0  0  0  0  0  0
  181.0260  178.1110  139.4610 C   0  0  0  0  0  2  0  0  0  0  0  0
  1  9  2  1  0  0  0
  1 10  1  0  0  0  0
  2  3  1  0  0  0  0
  3  7  2  0  0  0  0
  4  8  1  0  0  0  0
  4  2  2  0  0  0  0
  5  1  1  0  0  0  0
  6  5  1  0  0  0  0
  6  7  1  0  0  0  0
  7 11  1  0  0  0  0
  8  6  2  0  0  0  0
 11  1  1  0  0  0  0
 13 12  1  1  0  0  0
 13  8  1  0  0  0  0
 14 13  1  0  0  0  0
 14 15  1  1  0  0  0
 16 14  1  0  0  0  0
 17 16  1  0  0  0  0
 18 17  1  0  0  0  0
 19 18  1  0  0  0  0
 20 19  1  0  0  0  0
 21 19  2  0  0  0  0
 22  2  1  0  0  0  0
 23 27  1  0  0  0  0
 24 28  1  0  0  0  0
 24 26  1  0  0  0  0
 25 23  2  0  0  0  0
 25 31  1  0  0  0  0
 26 22  1  0  0  0  0
 27 24  1  0  0  0  0
 28 26  1  0  0  0  0
 29 27  1  0  0  0  0
 30 28  1  0  0  0  0
 31 30  1  0  0  0  0
M  END
>  <MODEL>
7

>  <REMARK>
 VINA RESULT:      -8.0      4.431      7.123
  Name = 
  8 active torsions:
  status: ('A' for Active; 'I' for Inactive)
    1  A    between atoms: C_3  and  C_16
    2  A    between atoms: N_5  and  C_8
    3  A    between atoms: N_5  and  C_24
    4  A    between atoms: C_6  and  C_8
    5  A    between atoms: C_6  and  C_25
    6  A    between atoms: C_12  and  C_13
    7  A    between atoms: C_12  and  C_19
    8  A    between atoms: C_16  and  C_24
                            x       y       z     vdW  Elec       q    Type
                         _______ _______ _______ _____ _____    ______ ____

>  <TORSDO>
F 8

$$$$
=
 OpenBabel10222415273D

 31 34  0  0  1  0  0  0  0  0999 V2000
  189.9340  176.7050  143.0930 P   0  0  2  0  0  0  0  0  0  0  0  0
  185.3850  178.4490  143.0500 C   0  0  0  0  0  0  0  0  0  0  0  0
  186.4570  178.1530  142.1920 C   0  0  0  0  0  3  0  0  0  0  0  0
  185.5050  178.2340  144.4350 C   0  0  0  0  0  3  0  0  0  0  0  0
  188.9820  176.8990  144.4950 O   0  0  0  0  0  0  0  0  0  0  0  0
  187.7470  177.4170  144.1130 C   0  0  0  0  0  0  0  0  0  0  0  0
  187.6280  177.6350  142.7390 C   0  0  0  0  0  0  0  0  0  0  0  0
  186.6880  177.7140  144.9830 C   0  0  0  0  0  0  0  0  0  0  0  0
  190.2600  175.2530  142.8340 O   0  0  0  0  0  0  0  0  0  0  0  0
  191.3180  177.6770  143.1230 O   0  0  0  0  0  1  0  0  0  0  0  0
  188.7590  177.2940  142.0060 O   0  0  0  0  0  0  0  0  0  0  0  0
  185.7020  178.0910  147.1330 O   0  0  0  0  0  1  0  0  0  0  0  0
  186.7640  177.4760  146.4670 C   0  0  2  0  0  3  0  0  0  0  0  0
  188.1050  177.8780  147.0960 C   0  0  1  0  0  3  0  0  0  0  0  0
  187.8920  178.6460  148.3870 C   0  0  0  0  0  1  0  0  0  0  0  0
  188.9560  176.7210  147.3430 N   0  0  0  0  0  2  0  0  0  0  0  0
  190.2450  177.2150  147.8020 C   0  0  0  0  0  2  0  0  0  0  0  0
  191.2590  177.1280  146.6750 C   0  0  0  0  0  2  0  0  0  0  0  0
  192.0840  175.8930  146.8170 C   0  0  0  0  0  0  0  0  0  0  0  0
  192.8050  175.6280  148.0930 C   0  0  0  0  0  1  0  0  0  0  0  0
  192.1540  175.0900  145.9010 O   0  0  0  0  0  0  0  0  0  0  0  0
  184.1300  179.0280  142.4950 C   0  0  0  0  0  2  0  0  0  0  0  0
  182.7110  178.3790  137.8470 N   0  0  0  0  0  0  0  0  0  0  0  0
  183.4910  179.0000  140.1050 C   0  0  1  0  0  3  0  0  0  0  0  0
  181.4240  178.3710  137.9840 C   0  0  0  0  0  3  0  0  0  0  0  0
  183.6120  178.1600  141.3630 C   0  0  2  0  0  3  0  0  0  0  0  0
  183.6740  178.0910  138.8900 C   0  0  2  0  0  3  0  0  0  0  0  0
  182.2480  178.6570  140.9320 C   0  0  2  0  0  3  0  0  0  0  0  0
  185.0770  178.2540  138.3400 C   0  0  0  0  0  1  0  0  0  0  0  0
  181.4860  177.5680  140.3300 N   0  0  0  0  0  2  0  0  0  0  0  0
  180.6660  178.1530  139.2770 C   0  0  0  0  0  2  0  0  0  0  0  0
  1  9  2  6  0  0  0
  1 10  1  0  0  0  0
  1  5  1  0  0  0  0
  2  4  1  0  0  0  0
  3  7  1  0  0  0  0
  3  2  2  0  0  0  0
  4  8  2  0  0  0  0
  6  5  1  0  0  0  0
  6  8  1  0  0  0  0
  7  6  2  0  0  0  0
  8 13  1  0  0  0  0
 11  7  1  0  0  0  0
 11  1  1  0  0  0  0
 13 14  1  0  0  0  0
 13 12  1  1  0  0  0
 14 16  1  0  0  0  0
 14 15  1  1  0  0  0
 16 17  1  0  0  0  0
 18 19  1  0  0  0  0
 18 17  1  0  0  0  0
 19 20  1  0  0  0  0
 21 19  2  0  0  0  0
 22  2  1  0  0  0  0
 23 25  2  0  0  0  0
 23 27  1  0  0  0  0
 24 28  1  0  0  0  0
 24 26  1  0  0  0  0
 25 31  1  0  0  0  0
 26 22  1  0  0  0  0
 27 24  1  0  0  0  0
 28 26  1  0  0  0  0
 29 27  1  0  0  0  0
 30 28  1  0  0  0  0
 31 30  1  0  0  0  0
M  END
>  <MODEL>
8

>  <REMARK>
 VINA RESULT:      -8.0      4.421      8.205
  Name = 
  8 active torsions:
  status: ('A' for Active; 'I' for Inactive)
    1  A    between atoms: C_3  and  C_16
    2  A    between atoms: N_5  and  C_8
    3  A    between atoms: N_5  and  C_24
    4  A    between atoms: C_6  and  C_8
    5  A    between atoms: C_6  and  C_25
    6  A    between atoms: C_12  and  C_13
    7  A    between atoms: C_12  and  C_19
    8  A    between atoms: C_16  and  C_24
                            x       y       z     vdW  Elec       q    Type
                         _______ _______ _______ _____ _____    ______ ____

>  <TORSDO>
F 8

$$$$
=
 OpenBabel10222415273D

 31 34  0  0  1  0  0  0  0  0999 V2000
  180.4200  178.9720  142.8240 P   0  0  2  0  0  0  0  0  0  0  0  0
  184.9290  178.7130  144.6490 C   0  0  0  0  0  0  0  0  0  0  0  0
  183.5890  178.8390  145.0460 C   0  0  0  0  0  3  0  0  0  0  0  0
  185.2600  178.6270  143.2850 C   0  0  0  0  0  3  0  0  0  0  0  0
  181.8220  178.8250  141.8630 O   0  0  0  0  0  0  0  0  0  0  0  0
  182.9260  178.7790  142.7110 C   0  0  0  0  0  0  0  0  0  0  0  0
  182.6000  178.8670  144.0660 C   0  0  0  0  0  0  0  0  0  0  0  0
  184.2610  178.6590  142.2990 C   0  0  0  0  0  0  0  0  0  0  0  0
  179.5180  177.7670  142.6860 O   0  0  0  0  0  1  0  0  0  0  0  0
  179.5990  180.4220  142.5360 O   0  0  0  0  0  0  0  0  0  0  0  0
  181.2380  178.9820  144.3200 O   0  0  0  0  0  0  0  0  0  0  0  0
  185.5870  179.5200  140.4990 O   0  0  0  0  0  1  0  0  0  0  0  0
  184.6570  178.5400  140.8510 C   0  0  2  0  0  3  0  0  0  0  0  0
  183.4720  178.5410  139.8780 C   0  0  1  0  0  3  0  0  0  0  0  0
  183.4590  179.8040  139.0370 C   0  0  0  0  0  1  0  0  0  0  0  0
  183.4810  177.3700  139.0110 N   0  0  0  0  0  2  0  0  0  0  0  0
  184.0820  177.7650  137.7460 C   0  0  0  0  0  2  0  0  0  0  0  0
  185.2060  176.8080  137.3900 C   0  0  0  0  0  2  0  0  0  0  0  0
  186.5240  177.4990  137.4900 C   0  0  0  0  0  0  0  0  0  0  0  0
  187.7790  176.6980  137.5290 C   0  0  0  0  0  1  0  0  0  0  0  0
  186.5810  178.7190  137.5190 O   0  0  0  0  0  0  0  0  0  0  0  0
  186.0090  178.7060  145.6750 C   0  0  0  0  0  2  0  0  0  0  0  0
  190.4480  176.6810  145.1910 N   0  0  0  0  0  0  0  0  0  0  0  0
  188.3640  177.9700  145.4810 C   0  0  1  0  0  3  0  0  0  0  0  0
  190.4990  176.5090  143.9090 C   0  0  0  0  0  3  0  0  0  0  0  0
  186.9180  177.5090  145.4670 C   0  0  2  0  0  3  0  0  0  0  0  0
  189.2400  176.8210  145.9780 C   0  0  2  0  0  3  0  0  0  0  0  0
  187.6600  177.6620  144.1550 C   0  0  2  0  0  3  0  0  0  0  0  0
  189.6070  177.0530  147.4290 C   0  0  0  0  0  1  0  0  0  0  0  0
  188.0390  176.3510  143.6390 N   0  0  0  0  0  2  0  0  0  0  0  0
  189.3180  176.5140  142.9610 C   0  0  0  0  0  2  0  0  0  0  0  0
  1 10  2  6  0  0  0
  1 11  1  0  0  0  0
  2  3  1  0  0  0  0
  2 22  1  0  0  0  0
  4  2  2  0  0  0  0
  5  6  1  0  0  0  0
  5  1  1  0  0  0  0
  6  7  1  0  0  0  0
  7 11  1  0  0  0  0
  7  3  2  0  0  0  0
  8  6  2  0  0  0  0
  8  4  1  0  0  0  0
  9  1  1  0  0  0  0
 13 12  1  6  0  0  0
 13  8  1  0  0  0  0
 14 15  1  6  0  0  0
 14 13  1  0  0  0  0
 16 14  1  0  0  0  0
 17 16  1  0  0  0  0
 18 19  1  0  0  0  0
 18 17  1  0  0  0  0
 19 21  2  0  0  0  0
 19 20  1  0  0  0  0
 23 27  1  0  0  0  0
 24 27  1  0  0  0  0
 25 23  2  0  0  0  0
 26 24  1  0  0  0  0
 26 22  1  0  0  0  0
 27 29  1  0  0  0  0
 28 26  1  0  0  0  0
 28 24  1  0  0  0  0
 30 28  1  0  0  0  0
 31 30  1  0  0  0  0
 31 25  1  0  0  0  0
M  END
>  <MODEL>
9

>  <REMARK>
 VINA RESULT:      -8.0      3.131      4.821
  Name = 
  8 active torsions:
  status: ('A' for Active; 'I' for Inactive)
    1  A    between atoms: C_3  and  C_16
    2  A    between atoms: N_5  and  C_8
    3  A    between atoms: N_5  and  C_24
    4  A    between atoms: C_6  and  C_8
    5  A    between atoms: C_6  and  C_25
    6  A    between atoms: C_12  and  C_13
    7  A    between atoms: C_12  and  C_19
    8  A    between atoms: C_16  and  C_24
                            x       y       z     vdW  Elec       q    Type
                         _______ _______ _______ _____ _____    ______ ____

>  <TORSDO>
F 8

$$$$
