=
 OpenBabel10222420363D

 41 45  0  0  1  0  0  0  0  0999 V2000
  191.6420  176.3200  143.8900 N   0  0  0  0  0  1  0  0  0  0  0  0
  187.9720  177.4820  145.5560 C   0  0  0  0  0  3  0  0  0  0  0  0
  190.3820  176.7060  144.4320 C   0  0  0  0  0  0  0  0  0  0  0  0
  190.3620  177.9280  148.4680 C   0  0  0  0  0  1  0  0  0  0  0  0
  190.3140  177.0970  145.7320 N   0  0  0  0  0  0  0  0  0  0  0  0
  187.9900  177.0750  144.2210 C   0  0  0  0  0  0  0  0  0  0  0  0
  187.9030  178.3120  148.3480 C   0  0  0  0  0  1  0  0  0  0  0  0
  189.1340  177.9050  147.6890 N   0  0  0  0  0  0  0  0  0  0  0  0
  189.1490  177.4890  146.3130 C   0  0  0  0  0  0  0  0  0  0  0  0
  189.2220  176.6920  143.6350 C   0  0  0  0  0  0  0  0  0  0  0  0
  186.7410  177.0920  143.5140 N   0  0  0  0  0  2  0  0  0  0  0  0
  186.2240  178.1960  142.7200 C   0  0  0  0  0  2  0  0  0  0  0  0
  184.8020  178.4540  143.0870 C   0  0  0  0  0  0  0  0  0  0  0  0
  181.7490  178.4140  140.1060 C   0  0  0  0  0  2  0  0  0  0  0  0
  182.1510  179.0170  143.8160 C   0  0  0  0  0  3  0  0  0  0  0  0
  182.4810  178.8280  142.4720 C   0  0  0  0  0  0  0  0  0  0  0  0
  183.1600  178.8270  139.6840 C   0  0  0  0  0  2  0  0  0  0  0  0
  184.4640  178.6430  144.4330 C   0  0  0  0  0  3  0  0  0  0  0  0
  184.1250  178.4340  140.7080 N   0  0  0  0  0  2  0  0  0  0  0  0
  183.8100  178.5700  142.1000 C   0  0  0  0  0  0  0  0  0  0  0  0
  183.1440  178.9250  144.7960 C   0  0  0  0  0  3  0  0  0  0  0  0
  181.4710  178.8910  141.4590 N   0  0  0  0  0  2  0  0  0  0  0  0
  189.3470  176.3420  142.1790 C   0  0  0  0  0  2  0  0  0  0  0  0
  190.2180  177.3810  138.9260 C   0  0  1  0  0  3  0  0  0  0  0  0
  188.3040  178.8180  138.5710 O   0  0  0  0  0  0  0  0  0  0  0  0
  189.0680  178.2030  139.3610 C   0  0  0  0  0  0  0  0  0  0  0  0
  188.9100  178.2630  140.7610 N   0  0  0  0  0  2  0  0  0  0  0  0
  190.8530  176.9560  140.2490 C   0  0  1  0  0  3  0  0  0  0  0  0
  192.2350  177.5690  140.3680 C   0  0  0  0  0  1  0  0  0  0  0  0
  189.9630  177.4880  141.3850 C   0  0  2  0  0  3  0  0  0  0  0  0
  189.7400  176.1400  138.1870 C   0  0  0  0  0  2  0  0  0  0  0  0
  190.5440  175.9370  136.9160 C   0  0  0  0  0  2  0  0  0  0  0  0
  191.7560  175.3200  137.2300 O   0  0  0  0  0  0  0  0  0  0  0  0
  193.9900  172.6400  136.6670 C   0  0  0  0  0  2  0  0  0  0  0  0
  192.5330  175.4410  136.0710 C   0  0  1  0  0  3  0  0  0  0  0  0
  195.0040  174.9020  136.7450 C   0  0  0  0  0  2  0  0  0  0  0  0
  193.9110  176.9500  137.3670 O   0  0  0  0  0  1  0  0  0  0  0  0
  193.9510  175.9550  136.3870 C   0  0  2  0  0  3  0  0  0  0  0  0
  192.5890  172.8980  136.1270 C   0  0  0  0  0  2  0  0  0  0  0  0
  192.5180  174.1470  135.2490 C   0  0  0  0  0  2  0  0  0  0  0  0
  194.4640  173.7560  137.5850 C   0  0  0  0  0  2  0  0  0  0  0  0
  1  3  1  0  0  0  0
  2  9  1  0  0  0  0
  3  5  1  0  0  0  0
  5  9  2  0  0  0  0
  6  2  2  0  0  0  0
  8  7  1  0  0  0  0
  8  4  1  0  0  0  0
  9  8  1  0  0  0  0
 10  6  1  0  0  0  0
 10  3  2  0  0  0  0
 11  6  1  0  0  0  0
 12 13  1  0  0  0  0
 12 11  1  0  0  0  0
 13 18  1  0  0  0  0
 14 22  1  0  0  0  0
 15 21  1  0  0  0  0
 16 15  2  0  0  0  0
 17 14  1  0  0  0  0
 17 19  1  0  0  0  0
 18 21  2  0  0  0  0
 19 20  1  0  0  0  0
 20 16  1  0  0  0  0
 20 13  2  0  0  0  0
 22 16  1  0  0  0  0
 23 10  1  0  0  0  0
 24 31  1  1  0  0  0
 24 26  1  0  0  0  0
 24 28  1  0  0  0  0
 25 26  2  0  0  0  0
 26 27  1  0  0  0  0
 27 30  1  0  0  0  0
 28 29  1  1  0  0  0
 28 30  1  0  0  0  0
 30 23  1  6  0  0  0
 32 33  1  0  0  0  0
 32 31  1  0  0  0  0
 34 41  1  0  0  0  0
 35 38  1  0  0  0  0
 35 33  1  1  0  0  0
 36 41  1  0  0  0  0
 38 36  1  0  0  0  0
 38 37  1  1  0  0  0
 39 34  1  0  0  0  0
 40 35  1  0  0  0  0
 40 39  1  0  0  0  0
M  END
>  <MODEL>
1

>  <REMARK>
 VINA RESULT:      -9.3      0.000      0.000
  Name = 
  9 active torsions:
  status: ('A' for Active; 'I' for Inactive)
    1  A    between atoms: C_1  and  C_34
    2  A    between atoms: C_4  and  C_11
    3  A    between atoms: C_9  and  O_25
    4  A    between atoms: C_9  and  C_34
    5  A    between atoms: C_10  and  O_25
    6  A    between atoms: C_11  and  N_23
    7  A    between atoms: N_23  and  C_24
    8  A    between atoms: C_31  and  C_38
    9  A    between atoms: C_31  and  C_41
                            x       y       z     vdW  Elec       q    Type
                         _______ _______ _______ _____ _____    ______ ____

>  <TORSDO>
F 9

$$$$
=
 OpenBabel10222420363D

 41 45  0  0  1  0  0  0  0  0999 V2000
  191.1910  176.2080  144.0820 N   0  0  0  0  0  1  0  0  0  0  0  0
  187.4370  177.6920  145.2200 C   0  0  0  0  0  3  0  0  0  0  0  0
  189.9060  176.7040  144.4440 C   0  0  0  0  0  0  0  0  0  0  0  0
  189.4350  177.9910  148.4310 C   0  0  0  0  0  1  0  0  0  0  0  0
  189.6940  177.1220  145.7190 N   0  0  0  0  0  0  0  0  0  0  0  0
  187.6040  177.2630  143.9030 C   0  0  0  0  0  0  0  0  0  0  0  0
  187.0550  178.5720  147.9720 C   0  0  0  0  0  1  0  0  0  0  0  0
  188.3270  178.0550  147.4910 N   0  0  0  0  0  0  0  0  0  0  0  0
  188.4960  177.6160  146.1330 C   0  0  0  0  0  0  0  0  0  0  0  0
  188.8690  176.7720  143.4940 C   0  0  0  0  0  0  0  0  0  0  0  0
  186.4690  177.3700  143.0310 N   0  0  0  0  0  2  0  0  0  0  0  0
  185.9070  178.6060  142.5080 C   0  0  0  0  0  2  0  0  0  0  0  0
  184.4560  178.6770  142.8450 C   0  0  0  0  0  0  0  0  0  0  0  0
  181.5010  178.3920  139.7800 C   0  0  0  0  0  2  0  0  0  0  0  0
  181.7400  178.8890  143.5190 C   0  0  0  0  0  3  0  0  0  0  0  0
  182.1210  178.7950  142.1790 C   0  0  0  0  0  0  0  0  0  0  0  0
  182.8600  178.9880  139.4140 C   0  0  0  0  0  2  0  0  0  0  0  0
  184.0670  178.7700  144.1870 C   0  0  0  0  0  3  0  0  0  0  0  0
  183.8410  178.6720  140.4480 N   0  0  0  0  0  2  0  0  0  0  0  0
  183.4800  178.7130  141.8350 C   0  0  0  0  0  0  0  0  0  0  0  0
  182.7140  178.8770  144.5230 C   0  0  0  0  0  3  0  0  0  0  0  0
  181.1360  178.7770  141.1420 N   0  0  0  0  0  2  0  0  0  0  0  0
  189.1620  176.3890  142.0720 C   0  0  0  0  0  2  0  0  0  0  0  0
  190.3050  177.4000  138.8940 C   0  0  1  0  0  3  0  0  0  0  0  0
  188.4520  178.8710  138.3880 O   0  0  0  0  0  0  0  0  0  0  0  0
  189.1400  178.2450  139.2370 C   0  0  0  0  0  0  0  0  0  0  0  0
  188.8740  178.3130  140.6200 N   0  0  0  0  0  2  0  0  0  0  0  0
  190.8270  176.9680  140.2640 C   0  0  1  0  0  3  0  0  0  0  0  0
  192.2060  177.5550  140.4900 C   0  0  0  0  0  1  0  0  0  0  0  0
  189.8610  177.5200  141.3260 C   0  0  2  0  0  3  0  0  0  0  0  0
  189.8630  176.1650  138.1230 C   0  0  0  0  0  2  0  0  0  0  0  0
  189.0580  176.5640  136.9010 C   0  0  0  0  0  2  0  0  0  0  0  0
  187.8290  175.9020  136.9210 O   0  0  0  0  0  0  0  0  0  0  0  0
  184.3340  176.3400  137.2050 C   0  0  0  0  0  2  0  0  0  0  0  0
  187.1910  176.2880  135.7360 C   0  0  1  0  0  3  0  0  0  0  0  0
  185.0910  174.7500  135.4590 C   0  0  0  0  0  2  0  0  0  0  0  0
  187.3320  173.9560  135.1090 O   0  0  0  0  0  1  0  0  0  0  0  0
  186.5220  175.0910  135.0330 C   0  0  2  0  0  3  0  0  0  0  0  0
  185.4730  177.3490  137.2840 C   0  0  0  0  0  2  0  0  0  0  0  0
  186.2440  177.4710  135.9690 C   0  0  0  0  0  2  0  0  0  0  0  0
  184.8360  174.9280  136.9480 C   0  0  0  0  0  2  0  0  0  0  0  0
  1  3  1  0  0  0  0
  2  9  1  0  0  0  0
  3  5  1  0  0  0  0
  5  9  2  0  0  0  0
  6  2  2  0  0  0  0
  8  7  1  0  0  0  0
  8  4  1  0  0  0  0
  9  8  1  0  0  0  0
 10  6  1  0  0  0  0
 10  3  2  0  0  0  0
 11  6  1  0  0  0  0
 12 13  1  0  0  0  0
 12 11  1  0  0  0  0
 13 18  1  0  0  0  0
 14 22  1  0  0  0  0
 15 21  1  0  0  0  0
 16 15  2  0  0  0  0
 17 14  1  0  0  0  0
 17 19  1  0  0  0  0
 18 21  2  0  0  0  0
 19 20  1  0  0  0  0
 20 16  1  0  0  0  0
 20 13  2  0  0  0  0
 22 16  1  0  0  0  0
 23 10  1  0  0  0  0
 24 31  1  6  0  0  0
 24 26  1  0  0  0  0
 24 28  1  0  0  0  0
 25 26  2  0  0  0  0
 26 27  1  0  0  0  0
 27 30  1  0  0  0  0
 28 29  1  1  0  0  0
 28 30  1  0  0  0  0
 30 23  1  6  0  0  0
 32 33  1  0  0  0  0
 32 31  1  0  0  0  0
 34 39  1  0  0  0  0
 35 40  1  0  0  0  0
 35 33  1  1  0  0  0
 36 41  1  0  0  0  0
 38 37  1  1  0  0  0
 38 36  1  0  0  0  0
 38 35  1  0  0  0  0
 40 39  1  0  0  0  0
 41 34  1  0  0  0  0
M  END
>  <MODEL>
2

>  <REMARK>
 VINA RESULT:      -8.9      2.322      3.810
  Name = 
  9 active torsions:
  status: ('A' for Active; 'I' for Inactive)
    1  A    between atoms: C_1  and  C_34
    2  A    between atoms: C_4  and  C_11
    3  A    between atoms: C_9  and  O_25
    4  A    between atoms: C_9  and  C_34
    5  A    between atoms: C_10  and  O_25
    6  A    between atoms: C_11  and  N_23
    7  A    between atoms: N_23  and  C_24
    8  A    between atoms: C_31  and  C_38
    9  A    between atoms: C_31  and  C_41
                            x       y       z     vdW  Elec       q    Type
                         _______ _______ _______ _____ _____    ______ ____

>  <TORSDO>
F 9

$$$$
=
 OpenBabel10222420363D

 41 45  0  0  1  0  0  0  0  0999 V2000
  190.2870  176.6420  137.2580 N   0  0  0  0  0  1  0  0  0  0  0  0
  186.1310  177.1300  137.5420 C   0  0  0  0  0  3  0  0  0  0  0  0
  188.8790  176.8280  137.3740 C   0  0  0  0  0  0  0  0  0  0  0  0
  186.4680  174.7500  134.6080 C   0  0  0  0  0  1  0  0  0  0  0  0
  188.0540  176.1920  136.5010 N   0  0  0  0  0  0  0  0  0  0  0  0
  186.9380  177.8130  138.4520 C   0  0  0  0  0  0  0  0  0  0  0  0
  184.4240  175.7340  135.6380 C   0  0  0  0  0  1  0  0  0  0  0  0
  185.8730  175.6110  135.6170 N   0  0  0  0  0  0  0  0  0  0  0  0
  186.7010  176.3150  136.5580 C   0  0  0  0  0  0  0  0  0  0  0  0
  188.3440  177.6510  138.3830 C   0  0  0  0  0  0  0  0  0  0  0  0
  186.2760  178.6330  139.4280 N   0  0  0  0  0  2  0  0  0  0  0  0
  184.8670  178.9930  139.4260 C   0  0  0  0  0  2  0  0  0  0  0  0
  184.3230  178.8900  140.8110 C   0  0  0  0  0  0  0  0  0  0  0  0
  180.1270  178.4770  141.4670 C   0  0  0  0  0  2  0  0  0  0  0  0
  183.3390  178.7720  143.4360 C   0  0  0  0  0  3  0  0  0  0  0  0
  182.4510  178.8000  142.3590 C   0  0  0  0  0  0  0  0  0  0  0  0
  180.5880  179.2340  140.2220 C   0  0  0  0  0  2  0  0  0  0  0  0
  185.2080  178.8610  141.8960 C   0  0  0  0  0  3  0  0  0  0  0  0
  181.9990  178.9630  139.9630 N   0  0  0  0  0  2  0  0  0  0  0  0
  182.9370  178.8820  141.0440 C   0  0  0  0  0  0  0  0  0  0  0  0
  184.7180  178.8030  143.2040 C   0  0  0  0  0  3  0  0  0  0  0  0
  181.0380  178.7390  142.5790 N   0  0  0  0  0  2  0  0  0  0  0  0
  189.2770  178.2650  139.3870 C   0  0  0  0  0  2  0  0  0  0  0  0
  190.9130  177.2990  142.3560 C   0  0  1  0  0  3  0  0  0  0  0  0
  189.3680  175.5390  142.9640 O   0  0  0  0  0  0  0  0  0  0  0  0
  189.8540  176.3010  142.0880 C   0  0  0  0  0  0  0  0  0  0  0  0
  189.4440  176.2560  140.7390 N   0  0  0  0  0  2  0  0  0  0  0  0
  191.2040  177.8670  140.9680 C   0  0  1  0  0  3  0  0  0  0  0  0
  192.6200  177.5100  140.5610 C   0  0  0  0  0  1  0  0  0  0  0  0
  190.2150  177.2220  139.9830 C   0  0  2  0  0  3  0  0  0  0  0  0
  190.3850  178.4150  143.2460 C   0  0  0  0  0  2  0  0  0  0  0  0
  190.7250  178.1400  144.6980 C   0  0  0  0  0  2  0  0  0  0  0  0
  189.6070  178.4040  145.4920 O   0  0  0  0  0  0  0  0  0  0  0  0
  186.4880  178.4910  147.1530 C   0  0  0  0  0  2  0  0  0  0  0  0
  189.0640  177.1460  145.7810 C   0  0  1  0  0  3  0  0  0  0  0  0
  188.2830  177.2030  148.2790 C   0  0  0  0  0  2  0  0  0  0  0  0
  190.6010  177.1090  147.6490 O   0  0  0  0  0  1  0  0  0  0  0  0
  189.3150  176.7400  147.2470 C   0  0  2  0  0  3  0  0  0  0  0  0
  186.8250  178.3490  145.6730 C   0  0  0  0  0  2  0  0  0  0  0  0
  187.5910  177.0630  145.3650 C   0  0  0  0  0  2  0  0  0  0  0  0
  187.7360  178.5970  148.0150 C   0  0  0  0  0  2  0  0  0  0  0  0
  1  3  1  0  0  0  0
  2  6  1  0  0  0  0
  3 10  1  0  0  0  0
  4  8  1  0  0  0  0
  5  9  1  0  0  0  0
  5  3  2  0  0  0  0
  6 11  1  0  0  0  0
  8  7  1  0  0  0  0
  8  9  1  0  0  0  0
  9  2  2  0  0  0  0
 10  6  2  0  0  0  0
 10 23  1  0  0  0  0
 12 11  1  0  0  0  0
 12 13  1  0  0  0  0
 13 20  2  0  0  0  0
 13 18  1  0  0  0  0
 14 22  1  0  0  0  0
 16 22  1  0  0  0  0
 16 15  2  0  0  0  0
 17 14  1  0  0  0  0
 18 21  2  0  0  0  0
 19 17  1  0  0  0  0
 19 20  1  0  0  0  0
 20 16  1  0  0  0  0
 21 15  1  0  0  0  0
 24 31  1  1  0  0  0
 26 24  1  0  0  0  0
 26 25  2  0  0  0  0
 27 26  1  0  0  0  0
 28 29  1  6  0  0  0
 28 24  1  0  0  0  0
 30 23  1  1  0  0  0
 30 27  1  0  0  0  0
 30 28  1  0  0  0  0
 31 32  1  0  0  0  0
 32 33  1  0  0  0  0
 34 41  1  0  0  0  0
 35 33  1  1  0  0  0
 35 38  1  0  0  0  0
 38 37  1  1  0  0  0
 38 36  1  0  0  0  0
 39 34  1  0  0  0  0
 40 39  1  0  0  0  0
 40 35  1  0  0  0  0
 41 36  1  0  0  0  0
M  END
>  <MODEL>
3

>  <REMARK>
 VINA RESULT:      -8.6      3.371      7.848
  Name = 
  9 active torsions:
  status: ('A' for Active; 'I' for Inactive)
    1  A    between atoms: C_1  and  C_34
    2  A    between atoms: C_4  and  C_11
    3  A    between atoms: C_9  and  O_25
    4  A    between atoms: C_9  and  C_34
    5  A    between atoms: C_10  and  O_25
    6  A    between atoms: C_11  and  N_23
    7  A    between atoms: N_23  and  C_24
    8  A    between atoms: C_31  and  C_38
    9  A    between atoms: C_31  and  C_41
                            x       y       z     vdW  Elec       q    Type
                         _______ _______ _______ _____ _____    ______ ____

>  <TORSDO>
F 9

$$$$
=
 OpenBabel10222420363D

 41 45  0  0  1  0  0  0  0  0999 V2000
  180.8860  179.2170  141.4570 N   0  0  0  0  0  1  0  0  0  0  0  0
  182.1930  178.5430  137.5290 C   0  0  0  0  0  3  0  0  0  0  0  0
  181.3500  178.9700  140.1330 C   0  0  0  0  0  0  0  0  0  0  0  0
  179.0270  180.5630  136.9950 C   0  0  0  0  0  1  0  0  0  0  0  0
  180.6340  179.4500  139.0820 N   0  0  0  0  0  0  0  0  0  0  0  0
  182.9540  178.0200  138.5750 C   0  0  0  0  0  0  0  0  0  0  0  0
  180.6090  179.6030  135.3250 C   0  0  0  0  0  1  0  0  0  0  0  0
  180.2340  179.8000  136.7170 N   0  0  0  0  0  0  0  0  0  0  0  0
  181.0220  179.2620  137.7920 C   0  0  0  0  0  0  0  0  0  0  0  0
  182.5380  178.2480  139.9110 C   0  0  0  0  0  0  0  0  0  0  0  0
  184.1390  177.2900  138.2230 N   0  0  0  0  0  2  0  0  0  0  0  0
  184.9920  177.5510  137.0740 C   0  0  0  0  0  2  0  0  0  0  0  0
  186.1300  176.5880  137.0670 C   0  0  0  0  0  0  0  0  0  0  0  0
  189.8950  177.6660  138.7630 C   0  0  0  0  0  2  0  0  0  0  0  0
  188.2640  174.7680  136.9650 C   0  0  0  0  0  3  0  0  0  0  0  0
  188.4660  176.0530  137.4740 C   0  0  0  0  0  0  0  0  0  0  0  0
  189.0280  178.7780  138.1720 C   0  0  0  0  0  2  0  0  0  0  0  0
  185.9340  175.2980  136.5590 C   0  0  0  0  0  3  0  0  0  0  0  0
  187.6600  178.3020  137.9840 N   0  0  0  0  0  2  0  0  0  0  0  0
  187.4080  176.9750  137.5060 C   0  0  0  0  0  0  0  0  0  0  0  0
  186.9980  174.3920  136.5070 C   0  0  0  0  0  3  0  0  0  0  0  0
  189.7490  176.4440  137.9730 N   0  0  0  0  0  2  0  0  0  0  0  0
  183.3520  177.8120  141.0950 C   0  0  0  0  0  2  0  0  0  0  0  0
  186.1020  178.5880  143.1580 C   0  0  1  0  0  3  0  0  0  0  0  0
  187.6820  179.0010  141.3730 O   0  0  0  0  0  0  0  0  0  0  0  0
  186.4890  178.9030  141.7660 C   0  0  0  0  0  0  0  0  0  0  0  0
  185.3930  179.1130  140.9040 N   0  0  0  0  0  2  0  0  0  0  0  0
  184.5790  178.6890  143.1190 C   0  0  1  0  0  3  0  0  0  0  0  0
  184.1240  179.8400  143.9960 C   0  0  0  0  0  1  0  0  0  0  0  0
  184.1670  178.9670  141.6640 C   0  0  2  0  0  3  0  0  0  0  0  0
  186.4930  177.1600  143.5130 C   0  0  0  0  0  2  0  0  0  0  0  0
  187.1840  177.1200  144.8630 C   0  0  0  0  0  2  0  0  0  0  0  0
  188.5030  176.6980  144.6940 O   0  0  0  0  0  0  0  0  0  0  0  0
  191.7450  176.8670  143.2960 C   0  0  0  0  0  2  0  0  0  0  0  0
  189.2850  177.7630  145.1600 C   0  0  1  0  0  3  0  0  0  0  0  0
  191.6330  176.7800  145.7710 C   0  0  0  0  0  2  0  0  0  0  0  0
  189.6770  176.3880  147.1110 O   0  0  0  0  0  1  0  0  0  0  0  0
  190.2770  177.3080  146.2480 C   0  0  2  0  0  3  0  0  0  0  0  0
  190.4550  177.5790  142.9070 C   0  0  0  0  0  2  0  0  0  0  0  0
  189.9490  178.5190  144.0020 C   0  0  0  0  0  2  0  0  0  0  0  0
  191.5550  175.9540  144.4960 C   0  0  0  0  0  2  0  0  0  0  0  0
  2  9  2  0  0  0  0
  2  6  1  0  0  0  0
  3  1  1  0  0  0  0
  5  3  2  0  0  0  0
  6 10  2  0  0  0  0
  7  8  1  0  0  0  0
  8  4  1  0  0  0  0
  8  9  1  0  0  0  0
  9  5  1  0  0  0  0
 10  3  1  0  0  0  0
 10 23  1  0  0  0  0
 11  6  1  0  0  0  0
 12 11  1  0  0  0  0
 13 12  1  0  0  0  0
 13 20  1  0  0  0  0
 15 16  1  0  0  0  0
 16 20  2  0  0  0  0
 16 22  1  0  0  0  0
 17 14  1  0  0  0  0
 18 13  2  0  0  0  0
 19 17  1  0  0  0  0
 20 19  1  0  0  0  0
 21 18  1  0  0  0  0
 21 15  2  0  0  0  0
 22 14  1  0  0  0  0
 24 31  1  6  0  0  0
 25 26  2  0  0  0  0
 26 24  1  0  0  0  0
 27 30  1  0  0  0  0
 27 26  1  0  0  0  0
 28 24  1  0  0  0  0
 28 29  1  1  0  0  0
 30 23  1  6  0  0  0
 30 28  1  0  0  0  0
 31 32  1  0  0  0  0
 33 32  1  0  0  0  0
 34 41  1  0  0  0  0
 35 33  1  6  0  0  0
 35 38  1  0  0  0  0
 36 38  1  0  0  0  0
 38 37  1  6  0  0  0
 39 34  1  0  0  0  0
 39 40  1  0  0  0  0
 40 35  1  0  0  0  0
 41 36  1  0  0  0  0
M  END
>  <MODEL>
4

>  <REMARK>
 VINA RESULT:      -8.5      3.686      9.012
  Name = 
  9 active torsions:
  status: ('A' for Active; 'I' for Inactive)
    1  A    between atoms: C_1  and  C_34
    2  A    between atoms: C_4  and  C_11
    3  A    between atoms: C_9  and  O_25
    4  A    between atoms: C_9  and  C_34
    5  A    between atoms: C_10  and  O_25
    6  A    between atoms: C_11  and  N_23
    7  A    between atoms: N_23  and  C_24
    8  A    between atoms: C_31  and  C_38
    9  A    between atoms: C_31  and  C_41
                            x       y       z     vdW  Elec       q    Type
                         _______ _______ _______ _____ _____    ______ ____

>  <TORSDO>
F 9

$$$$
=
 OpenBabel10222420363D

 41 45  0  0  1  0  0  0  0  0999 V2000
  187.5860  178.5720  136.8720 N   0  0  0  0  0  1  0  0  0  0  0  0
  186.5950  178.4110  140.9450 C   0  0  0  0  0  3  0  0  0  0  0  0
  187.2770  178.5200  138.2620 C   0  0  0  0  0  0  0  0  0  0  0  0
  183.1870  178.5800  139.2870 C   0  0  0  0  0  1  0  0  0  0  0  0
  185.9750  178.5490  138.6510 N   0  0  0  0  0  0  0  0  0  0  0  0
  187.9460  178.3930  140.5940 C   0  0  0  0  0  0  0  0  0  0  0  0
  183.7830  178.4740  141.7050 C   0  0  0  0  0  1  0  0  0  0  0  0
  184.2140  178.5140  140.3150 N   0  0  0  0  0  0  0  0  0  0  0  0
  185.6060  178.4920  139.9590 C   0  0  0  0  0  0  0  0  0  0  0  0
  188.3020  178.4310  139.2230 C   0  0  0  0  0  0  0  0  0  0  0  0
  188.8990  178.3130  141.6650 N   0  0  0  0  0  2  0  0  0  0  0  0
  189.2200  177.1210  142.4350 C   0  0  0  0  0  2  0  0  0  0  0  0
  188.7310  177.2830  143.8340 C   0  0  0  0  0  0  0  0  0  0  0  0
  191.4190  176.9260  147.1290 C   0  0  0  0  0  2  0  0  0  0  0  0
  187.7490  177.5250  146.4520 C   0  0  0  0  0  3  0  0  0  0  0  0
  189.0870  177.1880  146.2360 C   0  0  0  0  0  0  0  0  0  0  0  0
  191.7270  176.1290  145.8610 C   0  0  0  0  0  2  0  0  0  0  0  0
  187.3910  177.6230  144.0570 C   0  0  0  0  0  3  0  0  0  0  0  0
  190.9420  176.6430  144.7420 N   0  0  0  0  0  2  0  0  0  0  0  0
  189.5780  177.0430  144.9290 C   0  0  0  0  0  0  0  0  0  0  0  0
  186.9010  177.7420  145.3610 C   0  0  0  0  0  3  0  0  0  0  0  0
  189.9750  176.9910  147.3420 N   0  0  0  0  0  2  0  0  0  0  0  0
  189.7240  178.3100  138.7560 C   0  0  0  0  0  2  0  0  0  0  0  0
  192.0740  175.9540  137.5930 C   0  0  1  0  0  3  0  0  0  0  0  0
  193.7340  176.3470  139.3090 O   0  0  0  0  0  0  0  0  0  0  0  0
  192.5430  176.4340  138.9120 C   0  0  0  0  0  0  0  0  0  0  0  0
  191.5200  176.9850  139.7120 N   0  0  0  0  0  2  0  0  0  0  0  0
  190.5680  176.1990  137.6570 C   0  0  1  0  0  3  0  0  0  0  0  0
  189.8350  174.8730  137.6160 C   0  0  0  0  0  1  0  0  0  0  0  0
  190.2660  176.9040  138.9900 C   0  0  2  0  0  3  0  0  0  0  0  0
  192.6650  176.7990  136.4740 C   0  0  0  0  0  2  0  0  0  0  0  0
  193.6870  176.0000  135.6890 C   0  0  0  0  0  2  0  0  0  0  0  0
  194.8640  175.8970  136.4320 O   0  0  0  0  0  0  0  0  0  0  0  0
  195.5380  173.1050  138.4910 C   0  0  0  0  0  2  0  0  0  0  0  0
  195.5960  174.8770  135.8110 C   0  0  1  0  0  3  0  0  0  0  0  0
  197.5120  174.1950  137.4590 C   0  0  0  0  0  2  0  0  0  0  0  0
  197.5370  176.2590  136.2280 O   0  0  0  0  0  1  0  0  0  0  0  0
  197.0890  174.9370  136.1880 C   0  0  2  0  0  3  0  0  0  0  0  0
  194.4270  173.3490  137.4770 C   0  0  0  0  0  2  0  0  0  0  0  0
  194.9570  173.5040  136.0510 C   0  0  0  0  0  2  0  0  0  0  0  0
  196.4940  174.2830  138.5860 C   0  0  0  0  0  2  0  0  0  0  0  0
  1  3  1  0  0  0  0
  3  5  2  0  0  0  0
  3 10  1  0  0  0  0
  4  8  1  0  0  0  0
  5  9  1  0  0  0  0
  6  2  1  0  0  0  0
  6 11  1  0  0  0  0
  8  7  1  0  0  0  0
  9  8  1  0  0  0  0
  9  2  2  0  0  0  0
 10  6  2  0  0  0  0
 11 12  1  0  0  0  0
 12 13  1  0  0  0  0
 13 18  2  0  0  0  0
 13 20  1  0  0  0  0
 14 22  1  0  0  0  0
 16 15  1  0  0  0  0
 16 22  1  0  0  0  0
 17 14  1  0  0  0  0
 18 21  1  0  0  0  0
 19 20  1  0  0  0  0
 19 17  1  0  0  0  0
 20 16  2  0  0  0  0
 21 15  2  0  0  0  0
 23 10  1  0  0  0  0
 24 31  1  6  0  0  0
 24 28  1  0  0  0  0
 24 26  1  0  0  0  0
 26 25  2  0  0  0  0
 26 27  1  0  0  0  0
 28 29  1  1  0  0  0
 28 30  1  0  0  0  0
 30 23  1  6  0  0  0
 30 27  1  0  0  0  0
 32 33  1  0  0  0  0
 32 31  1  0  0  0  0
 34 41  1  0  0  0  0
 35 40  1  0  0  0  0
 35 38  1  0  0  0  0
 35 33  1  1  0  0  0
 36 41  1  0  0  0  0
 38 37  1  1  0  0  0
 38 36  1  0  0  0  0
 39 34  1  0  0  0  0
 40 39  1  0  0  0  0
M  END
>  <MODEL>
5

>  <REMARK>
 VINA RESULT:      -8.4      1.892      5.951
  Name = 
  9 active torsions:
  status: ('A' for Active; 'I' for Inactive)
    1  A    between atoms: C_1  and  C_34
    2  A    between atoms: C_4  and  C_11
    3  A    between atoms: C_9  and  O_25
    4  A    between atoms: C_9  and  C_34
    5  A    between atoms: C_10  and  O_25
    6  A    between atoms: C_11  and  N_23
    7  A    between atoms: N_23  and  C_24
    8  A    between atoms: C_31  and  C_38
    9  A    between atoms: C_31  and  C_41
                            x       y       z     vdW  Elec       q    Type
                         _______ _______ _______ _____ _____    ______ ____

>  <TORSDO>
F 9

$$$$
=
 OpenBabel10222420363D

 41 45  0  0  1  0  0  0  0  0999 V2000
  186.9910  178.7640  137.5620 N   0  0  0  0  0  1  0  0  0  0  0  0
  186.5770  178.3180  141.7130 C   0  0  0  0  0  3  0  0  0  0  0  0
  186.8790  178.6120  138.9750 C   0  0  0  0  0  0  0  0  0  0  0  0
  183.0220  179.0620  140.6180 C   0  0  0  0  0  1  0  0  0  0  0  0
  185.6610  178.7580  139.5600 N   0  0  0  0  0  0  0  0  0  0  0  0
  187.8490  178.1720  141.1580 C   0  0  0  0  0  0  0  0  0  0  0  0
  183.9360  178.6440  142.8990 C   0  0  0  0  0  1  0  0  0  0  0  0
  184.1660  178.7710  141.4680 N   0  0  0  0  0  0  0  0  0  0  0  0
  185.4770  178.6160  140.9000 C   0  0  0  0  0  0  0  0  0  0  0  0
  188.0080  178.3040  139.7560 C   0  0  0  0  0  0  0  0  0  0  0  0
  188.9260  177.8710  142.0590 N   0  0  0  0  0  2  0  0  0  0  0  0
  189.2110  176.5700  142.6430 C   0  0  0  0  0  2  0  0  0  0  0  0
  189.7660  176.7490  144.0160 C   0  0  0  0  0  0  0  0  0  0  0  0
  187.2070  177.7600  147.2770 C   0  0  0  0  0  2  0  0  0  0  0  0
  190.8680  177.1450  146.5660 C   0  0  0  0  0  3  0  0  0  0  0  0
  189.5090  177.3790  146.3490 C   0  0  0  0  0  0  0  0  0  0  0  0
  186.8110  178.2350  145.8790 C   0  0  0  0  0  2  0  0  0  0  0  0
  191.1290  176.5140  144.2410 C   0  0  0  0  0  3  0  0  0  0  0  0
  187.5700  177.5050  144.8670 N   0  0  0  0  0  2  0  0  0  0  0  0
  188.9570  177.2050  145.0690 C   0  0  0  0  0  0  0  0  0  0  0  0
  191.6780  176.7130  145.5110 C   0  0  0  0  0  3  0  0  0  0  0  0
  188.6610  177.7940  147.4250 N   0  0  0  0  0  2  0  0  0  0  0  0
  189.3210  178.0590  139.0680 C   0  0  0  0  0  2  0  0  0  0  0  0
  191.1380  176.1380  136.7370 C   0  0  1  0  0  3  0  0  0  0  0  0
  191.0520  174.0560  137.9670 O   0  0  0  0  0  0  0  0  0  0  0  0
  190.5920  175.2080  137.7500 C   0  0  0  0  0  0  0  0  0  0  0  0
  189.4780  175.7170  138.4480 N   0  0  0  0  0  2  0  0  0  0  0  0
  190.1760  177.3230  136.8100 C   0  0  1  0  0  3  0  0  0  0  0  0
  189.4250  177.4470  135.4980 C   0  0  0  0  0  1  0  0  0  0  0  0
  189.1740  177.0410  137.9430 C   0  0  2  0  0  3  0  0  0  0  0  0
  192.5300  176.6070  137.1360 C   0  0  0  0  0  2  0  0  0  0  0  0
  193.5480  176.1930  136.0910 C   0  0  0  0  0  2  0  0  0  0  0  0
  194.7630  175.9090  136.7170 O   0  0  0  0  0  0  0  0  0  0  0  0
  195.8370  172.9570  138.3370 C   0  0  0  0  0  2  0  0  0  0  0  0
  195.3920  174.9800  135.8800 C   0  0  1  0  0  3  0  0  0  0  0  0
  197.5800  174.2100  137.0950 C   0  0  0  0  0  2  0  0  0  0  0  0
  197.3520  176.3820  136.0920 O   0  0  0  0  0  1  0  0  0  0  0  0
  196.9270  175.0550  135.9970 C   0  0  2  0  0  3  0  0  0  0  0  0
  194.5620  173.2580  137.5590 C   0  0  0  0  0  2  0  0  0  0  0  0
  194.8300  173.5690  136.0870 C   0  0  0  0  0  2  0  0  0  0  0  0
  196.7740  174.1530  138.3840 C   0  0  0  0  0  2  0  0  0  0  0  0
  1  3  1  0  0  0  0
  3  5  2  0  0  0  0
  3 10  1  0  0  0  0
  4  8  1  0  0  0  0
  5  9  1  0  0  0  0
  6  2  1  0  0  0  0
  6 11  1  0  0  0  0
  8  7  1  0  0  0  0
  9  8  1  0  0  0  0
  9  2  2  0  0  0  0
 10  6  2  0  0  0  0
 11 12  1  0  0  0  0
 12 13  1  0  0  0  0
 13 18  2  0  0  0  0
 13 20  1  0  0  0  0
 14 22  1  0  0  0  0
 16 15  1  0  0  0  0
 16 22  1  0  0  0  0
 17 14  1  0  0  0  0
 18 21  1  0  0  0  0
 19 20  1  0  0  0  0
 19 17  1  0  0  0  0
 20 16  2  0  0  0  0
 21 15  2  0  0  0  0
 23 10  1  0  0  0  0
 24 28  1  0  0  0  0
 24 31  1  1  0  0  0
 24 26  1  0  0  0  0
 26 25  2  0  0  0  0
 26 27  1  0  0  0  0
 28 29  1  6  0  0  0
 28 30  1  0  0  0  0
 30 27  1  0  0  0  0
 30 23  1  1  0  0  0
 32 33  1  0  0  0  0
 32 31  1  0  0  0  0
 34 41  1  0  0  0  0
 35 38  1  0  0  0  0
 35 40  1  0  0  0  0
 35 33  1  1  0  0  0
 36 41  1  0  0  0  0
 38 37  1  1  0  0  0
 38 36  1  0  0  0  0
 39 34  1  0  0  0  0
 40 39  1  0  0  0  0
M  END
>  <MODEL>
6

>  <REMARK>
 VINA RESULT:      -8.3      1.815      5.710
  Name = 
  9 active torsions:
  status: ('A' for Active; 'I' for Inactive)
    1  A    between atoms: C_1  and  C_34
    2  A    between atoms: C_4  and  C_11
    3  A    between atoms: C_9  and  O_25
    4  A    between atoms: C_9  and  C_34
    5  A    between atoms: C_10  and  O_25
    6  A    between atoms: C_11  and  N_23
    7  A    between atoms: N_23  and  C_24
    8  A    between atoms: C_31  and  C_38
    9  A    between atoms: C_31  and  C_41
                            x       y       z     vdW  Elec       q    Type
                         _______ _______ _______ _____ _____    ______ ____

>  <TORSDO>
F 9

$$$$
=
 OpenBabel10222420363D

 41 45  0  0  1  0  0  0  0  0999 V2000
  181.0440  179.3620  141.4820 N   0  0  0  0  0  1  0  0  0  0  0  0
  182.3330  178.6470  137.5550 C   0  0  0  0  0  3  0  0  0  0  0  0
  181.5010  179.1000  140.1580 C   0  0  0  0  0  0  0  0  0  0  0  0
  179.2490  180.7890  137.0190 C   0  0  0  0  0  1  0  0  0  0  0  0
  180.8070  179.6100  139.1070 N   0  0  0  0  0  0  0  0  0  0  0  0
  183.0710  178.0920  138.6020 C   0  0  0  0  0  0  0  0  0  0  0  0
  180.7970  179.7720  135.3510 C   0  0  0  0  0  1  0  0  0  0  0  0
  180.4260  179.9810  136.7420 N   0  0  0  0  0  0  0  0  0  0  0  0
  181.1900  179.4100  137.8170 C   0  0  0  0  0  0  0  0  0  0  0  0
  182.6610  178.3340  139.9370 C   0  0  0  0  0  0  0  0  0  0  0  0
  184.2280  177.3180  138.2500 N   0  0  0  0  0  2  0  0  0  0  0  0
  184.8600  177.2750  136.9410 C   0  0  0  0  0  2  0  0  0  0  0  0
  186.3430  177.2940  137.1010 C   0  0  0  0  0  0  0  0  0  0  0  0
  188.6300  173.7330  136.5600 C   0  0  0  0  0  2  0  0  0  0  0  0
  189.1220  177.3640  137.4830 C   0  0  0  0  0  3  0  0  0  0  0  0
  188.4840  176.1510  137.2200 C   0  0  0  0  0  0  0  0  0  0  0  0
  187.1920  173.5940  137.0610 C   0  0  0  0  0  2  0  0  0  0  0  0
  186.9890  178.5080  137.3640 C   0  0  0  0  0  3  0  0  0  0  0  0
  186.4600  174.8370  136.8360 N   0  0  0  0  0  2  0  0  0  0  0  0
  187.0910  176.1060  137.0510 C   0  0  0  0  0  0  0  0  0  0  0  0
  188.3740  178.5430  137.5560 C   0  0  0  0  0  3  0  0  0  0  0  0
  189.2400  174.9390  137.1140 N   0  0  0  0  0  2  0  0  0  0  0  0
  183.4550  177.8630  141.1220 C   0  0  0  0  0  2  0  0  0  0  0  0
  186.3990  178.4750  142.9620 C   0  0  1  0  0  3  0  0  0  0  0  0
  187.8250  178.9280  141.0610 O   0  0  0  0  0  0  0  0  0  0  0  0
  186.6700  178.8430  141.5550 C   0  0  0  0  0  0  0  0  0  0  0  0
  185.5090  179.1190  140.8050 N   0  0  0  0  0  2  0  0  0  0  0  0
  184.8810  178.6170  143.0640 C   0  0  1  0  0  3  0  0  0  0  0  0
  184.5400  179.7390  144.0260 C   0  0  0  0  0  1  0  0  0  0  0  0
  184.3510  178.9710  141.6640 C   0  0  2  0  0  3  0  0  0  0  0  0
  186.7770  177.0240  143.2190 C   0  0  0  0  0  2  0  0  0  0  0  0
  188.2850  176.8700  143.2650 C   0  0  0  0  0  2  0  0  0  0  0  0
  188.6860  176.6410  144.5820 O   0  0  0  0  0  0  0  0  0  0  0  0
  191.5020  176.7350  146.7160 C   0  0  0  0  0  2  0  0  0  0  0  0
  188.9890  177.9090  145.0940 C   0  0  1  0  0  3  0  0  0  0  0  0
  189.3900  177.6230  147.6640 C   0  0  0  0  0  2  0  0  0  0  0  0
  187.2040  177.5020  146.6750 O   0  0  0  0  0  1  0  0  0  0  0  0
  188.4660  178.0820  146.5330 C   0  0  2  0  0  3  0  0  0  0  0  0
  191.3720  177.0270  145.2260 C   0  0  0  0  0  2  0  0  0  0  0  0
  190.4790  178.2340  144.9380 C   0  0  0  0  0  2  0  0  0  0  0  0
  190.1700  176.3580  147.3430 C   0  0  0  0  0  2  0  0  0  0  0  0
  2  9  2  0  0  0  0
  2  6  1  0  0  0  0
  3  1  1  0  0  0  0
  5  3  2  0  0  0  0
  6 10  2  0  0  0  0
  7  8  1  0  0  0  0
  8  4  1  0  0  0  0
  8  9  1  0  0  0  0
  9  5  1  0  0  0  0
 10  3  1  0  0  0  0
 10 23  1  0  0  0  0
 11  6  1  0  0  0  0
 12 13  1  0  0  0  0
 12 11  1  0  0  0  0
 13 18  1  0  0  0  0
 14 17  1  0  0  0  0
 14 22  1  0  0  0  0
 15 21  1  0  0  0  0
 16 15  2  0  0  0  0
 18 21  2  0  0  0  0
 19 20  1  0  0  0  0
 19 17  1  0  0  0  0
 20 13  2  0  0  0  0
 20 16  1  0  0  0  0
 22 16  1  0  0  0  0
 24 28  1  0  0  0  0
 24 31  1  6  0  0  0
 25 26  2  0  0  0  0
 26 24  1  0  0  0  0
 27 26  1  0  0  0  0
 27 30  1  0  0  0  0
 28 29  1  1  0  0  0
 30 23  1  6  0  0  0
 30 28  1  0  0  0  0
 31 32  1  0  0  0  0
 32 33  1  0  0  0  0
 34 41  1  0  0  0  0
 35 33  1  1  0  0  0
 35 38  1  0  0  0  0
 38 37  1  6  0  0  0
 38 36  1  0  0  0  0
 39 34  1  0  0  0  0
 40 35  1  0  0  0  0
 40 39  1  0  0  0  0
 41 36  1  0  0  0  0
M  END
>  <MODEL>
7

>  <REMARK>
 VINA RESULT:      -8.2      3.704      9.254
  Name = 
  9 active torsions:
  status: ('A' for Active; 'I' for Inactive)
    1  A    between atoms: C_1  and  C_34
    2  A    between atoms: C_4  and  C_11
    3  A    between atoms: C_9  and  O_25
    4  A    between atoms: C_9  and  C_34
    5  A    between atoms: C_10  and  O_25
    6  A    between atoms: C_11  and  N_23
    7  A    between atoms: N_23  and  C_24
    8  A    between atoms: C_31  and  C_38
    9  A    between atoms: C_31  and  C_41
                            x       y       z     vdW  Elec       q    Type
                         _______ _______ _______ _____ _____    ______ ____

>  <TORSDO>
F 9

$$$$
=
 OpenBabel10222420363D

 41 45  0  0  1  0  0  0  0  0999 V2000
  186.3920  178.8860  141.8710 N   0  0  0  0  0  1  0  0  0  0  0  0
  186.8290  177.8370  137.8330 C   0  0  0  0  0  3  0  0  0  0  0  0
  186.5680  178.5250  140.5030 C   0  0  0  0  0  0  0  0  0  0  0  0
  183.0630  178.0950  138.2000 C   0  0  0  0  0  1  0  0  0  0  0  0
  185.4720  178.3610  139.7170 N   0  0  0  0  0  0  0  0  0  0  0  0
  187.9830  177.9810  138.6050 C   0  0  0  0  0  0  0  0  0  0  0  0
  184.4350  177.5040  136.2060 C   0  0  0  0  0  1  0  0  0  0  0  0
  184.3740  177.8780  137.6110 N   0  0  0  0  0  0  0  0  0  0  0  0
  185.5650  178.0280  138.4010 C   0  0  0  0  0  0  0  0  0  0  0  0
  187.8580  178.3500  139.9680 C   0  0  0  0  0  0  0  0  0  0  0  0
  189.2410  177.7630  137.9490 N   0  0  0  0  0  2  0  0  0  0  0  0
  189.4230  177.3210  136.5760 C   0  0  0  0  0  2  0  0  0  0  0  0
  189.7830  175.8740  136.5590 C   0  0  0  0  0  0  0  0  0  0  0  0
  193.7240  174.6060  137.5930 C   0  0  0  0  0  2  0  0  0  0  0  0
  190.4320  173.1460  136.4450 C   0  0  0  0  0  3  0  0  0  0  0  0
  191.4210  174.0870  136.7370 C   0  0  0  0  0  0  0  0  0  0  0  0
  193.5560  175.9900  136.9660 C   0  0  0  0  0  2  0  0  0  0  0  0
  188.7950  174.9250  136.2680 C   0  0  0  0  0  3  0  0  0  0  0  0
  192.1550  176.4000  137.0230 N   0  0  0  0  0  2  0  0  0  0  0  0
  191.1070  175.4550  136.7730 C   0  0  0  0  0  0  0  0  0  0  0  0
  189.1190  173.5660  136.2090 C   0  0  0  0  0  3  0  0  0  0  0  0
  192.7630  173.6720  137.0090 N   0  0  0  0  0  2  0  0  0  0  0  0
  189.0490  178.6280  140.8400 C   0  0  0  0  0  2  0  0  0  0  0  0
  191.5300  176.9150  142.6660 C   0  0  1  0  0  3  0  0  0  0  0  0
  190.1830  174.9830  143.2190 O   0  0  0  0  0  0  0  0  0  0  0  0
  190.3890  175.9900  142.4920 C   0  0  0  0  0  0  0  0  0  0  0  0
  189.5480  176.3210  141.4100 N   0  0  0  0  0  2  0  0  0  0  0  0
  191.3700  177.8780  141.4910 C   0  0  1  0  0  3  0  0  0  0  0  0
  192.5450  177.7230  140.5450 C   0  0  0  0  0  1  0  0  0  0  0  0
  190.0730  177.5020  140.7540 C   0  0  2  0  0  3  0  0  0  0  0  0
  191.3940  177.6950  143.9650 C   0  0  0  0  0  2  0  0  0  0  0  0
  190.0480  178.3930  144.0260 C   0  0  0  0  0  2  0  0  0  0  0  0
  189.6100  178.4360  145.3500 O   0  0  0  0  0  0  0  0  0  0  0  0
  186.4680  178.3550  146.9670 C   0  0  0  0  0  2  0  0  0  0  0  0
  189.1210  177.1500  145.6120 C   0  0  1  0  0  3  0  0  0  0  0  0
  188.3040  177.1310  148.0980 C   0  0  0  0  0  2  0  0  0  0  0  0
  190.6310  177.1520  147.5010 O   0  0  0  0  0  1  0  0  0  0  0  0
  189.3700  176.7320  147.0740 C   0  0  2  0  0  3  0  0  0  0  0  0
  186.8300  178.2530  145.4910 C   0  0  0  0  0  2  0  0  0  0  0  0
  187.6580  177.0070  145.1730 C   0  0  0  0  0  2  0  0  0  0  0  0
  187.6970  178.5030  147.8490 C   0  0  0  0  0  2  0  0  0  0  0  0
  2  9  2  0  0  0  0
  2  6  1  0  0  0  0
  3  1  1  0  0  0  0
  5  3  2  0  0  0  0
  6 10  2  0  0  0  0
  7  8  1  0  0  0  0
  8  4  1  0  0  0  0
  8  9  1  0  0  0  0
  9  5  1  0  0  0  0
 10  3  1  0  0  0  0
 10 23  1  0  0  0  0
 11  6  1  0  0  0  0
 12 11  1  0  0  0  0
 13 12  1  0  0  0  0
 13 20  1  0  0  0  0
 15 16  1  0  0  0  0
 16 20  2  0  0  0  0
 16 22  1  0  0  0  0
 17 19  1  0  0  0  0
 17 14  1  0  0  0  0
 18 13  2  0  0  0  0
 20 19  1  0  0  0  0
 21 18  1  0  0  0  0
 21 15  2  0  0  0  0
 22 14  1  0  0  0  0
 24 31  1  1  0  0  0
 26 24  1  0  0  0  0
 26 25  2  0  0  0  0
 27 26  1  0  0  0  0
 28 29  1  6  0  0  0
 28 24  1  0  0  0  0
 30 23  1  1  0  0  0
 30 27  1  0  0  0  0
 30 28  1  0  0  0  0
 31 32  1  0  0  0  0
 32 33  1  0  0  0  0
 34 41  1  0  0  0  0
 35 33  1  1  0  0  0
 35 38  1  0  0  0  0
 38 37  1  1  0  0  0
 38 36  1  0  0  0  0
 39 34  1  0  0  0  0
 40 39  1  0  0  0  0
 40 35  1  0  0  0  0
 41 36  1  0  0  0  0
M  END
>  <MODEL>
8

>  <REMARK>
 VINA RESULT:      -8.0      3.043      9.285
  Name = 
  9 active torsions:
  status: ('A' for Active; 'I' for Inactive)
    1  A    between atoms: C_1  and  C_34
    2  A    between atoms: C_4  and  C_11
    3  A    between atoms: C_9  and  O_25
    4  A    between atoms: C_9  and  C_34
    5  A    between atoms: C_10  and  O_25
    6  A    between atoms: C_11  and  N_23
    7  A    between atoms: N_23  and  C_24
    8  A    between atoms: C_31  and  C_38
    9  A    between atoms: C_31  and  C_41
                            x       y       z     vdW  Elec       q    Type
                         _______ _______ _______ _____ _____    ______ ____

>  <TORSDO>
F 9

$$$$
=
 OpenBabel10222420363D

 41 45  0  0  1  0  0  0  0  0999 V2000
  186.4490  178.8170  142.1320 N   0  0  0  0  0  1  0  0  0  0  0  0
  186.2170  178.1870  137.9910 C   0  0  0  0  0  3  0  0  0  0  0  0
  186.3980  178.6000  140.7240 C   0  0  0  0  0  0  0  0  0  0  0  0
  182.5640  178.1940  139.0160 C   0  0  0  0  0  1  0  0  0  0  0  0
  185.1890  178.4500  140.1220 N   0  0  0  0  0  0  0  0  0  0  0  0
  187.4800  178.3220  138.5670 C   0  0  0  0  0  0  0  0  0  0  0  0
  183.5910  177.8760  136.7680 C   0  0  0  0  0  1  0  0  0  0  0  0
  183.7610  178.1090  138.1940 N   0  0  0  0  0  0  0  0  0  0  0  0
  185.0640  178.2500  138.7820 C   0  0  0  0  0  0  0  0  0  0  0  0
  187.5810  178.5510  139.9620 C   0  0  0  0  0  0  0  0  0  0  0  0
  188.6130  178.2410  137.6880 N   0  0  0  0  0  2  0  0  0  0  0  0
  188.6560  177.5420  136.4130 C   0  0  0  0  0  2  0  0  0  0  0  0
  189.3170  176.2170  136.5910 C   0  0  0  0  0  0  0  0  0  0  0  0
  187.0420  172.6120  136.4090 C   0  0  0  0  0  2  0  0  0  0  0  0
  190.5960  173.7530  137.0030 C   0  0  0  0  0  3  0  0  0  0  0  0
  189.2100  173.8020  136.8430 C   0  0  0  0  0  0  0  0  0  0  0  0
  186.3420  173.8790  136.9020 C   0  0  0  0  0  2  0  0  0  0  0  0
  190.7070  176.1610  136.7500 C   0  0  0  0  0  3  0  0  0  0  0  0
  187.1330  175.0570  136.5540 N   0  0  0  0  0  2  0  0  0  0  0  0
  188.5620  175.0350  136.6600 C   0  0  0  0  0  0  0  0  0  0  0  0
  191.3440  174.9330  136.9570 C   0  0  0  0  0  3  0  0  0  0  0  0
  188.4320  172.6010  136.8590 N   0  0  0  0  0  2  0  0  0  0  0  0
  188.8940  178.8110  140.6440 C   0  0  0  0  0  2  0  0  0  0  0  0
  191.1760  176.9350  142.5670 C   0  0  1  0  0  3  0  0  0  0  0  0
  189.6230  175.2020  143.2280 O   0  0  0  0  0  0  0  0  0  0  0  0
  189.9370  176.1370  142.4450 C   0  0  0  0  0  0  0  0  0  0  0  0
  189.1330  176.4990  141.3440 N   0  0  0  0  0  2  0  0  0  0  0  0
  191.1190  177.8420  141.3380 C   0  0  1  0  0  3  0  0  0  0  0  0
  192.2640  177.5030  140.4040 C   0  0  0  0  0  1  0  0  0  0  0  0
  189.7840  177.5740  140.6230 C   0  0  2  0  0  3  0  0  0  0  0  0
  191.1360  177.7990  143.8190 C   0  0  0  0  0  2  0  0  0  0  0  0
  189.7250  178.2900  144.0790 C   0  0  0  0  0  2  0  0  0  0  0  0
  189.5090  178.3660  145.4560 O   0  0  0  0  0  0  0  0  0  0  0  0
  186.4810  178.5600  147.2690 C   0  0  0  0  0  2  0  0  0  0  0  0
  188.9570  177.1270  145.8050 C   0  0  1  0  0  3  0  0  0  0  0  0
  188.3060  177.2630  148.3360 C   0  0  0  0  0  2  0  0  0  0  0  0
  190.5860  177.1050  147.5940 O   0  0  0  0  0  1  0  0  0  0  0  0
  189.2750  176.7530  147.2660 C   0  0  2  0  0  3  0  0  0  0  0  0
  186.7390  178.3750  145.7790 C   0  0  0  0  0  2  0  0  0  0  0  0
  187.4630  177.0650  145.4660 C   0  0  0  0  0  2  0  0  0  0  0  0
  187.7730  178.6610  148.0650 C   0  0  0  0  0  2  0  0  0  0  0  0
  2  6  2  0  0  0  0
  2  9  1  0  0  0  0
  3  1  1  0  0  0  0
  5  3  1  0  0  0  0
  6 10  1  0  0  0  0
  7  8  1  0  0  0  0
  8  9  1  0  0  0  0
  8  4  1  0  0  0  0
  9  5  2  0  0  0  0
 10 23  1  0  0  0  0
 10  3  2  0  0  0  0
 11  6  1  0  0  0  0
 12 13  1  0  0  0  0
 12 11  1  0  0  0  0
 13 20  2  0  0  0  0
 13 18  1  0  0  0  0
 14 22  1  0  0  0  0
 14 17  1  0  0  0  0
 16 22  1  0  0  0  0
 16 15  2  0  0  0  0
 18 21  2  0  0  0  0
 19 20  1  0  0  0  0
 19 17  1  0  0  0  0
 20 16  1  0  0  0  0
 21 15  1  0  0  0  0
 24 31  1  1  0  0  0
 26 24  1  0  0  0  0
 26 25  2  0  0  0  0
 27 26  1  0  0  0  0
 28 29  1  6  0  0  0
 28 24  1  0  0  0  0
 30 23  1  1  0  0  0
 30 28  1  0  0  0  0
 30 27  1  0  0  0  0
 31 32  1  0  0  0  0
 32 33  1  0  0  0  0
 34 41  1  0  0  0  0
 35 33  1  1  0  0  0
 35 38  1  0  0  0  0
 38 37  1  1  0  0  0
 38 36  1  0  0  0  0
 39 34  1  0  0  0  0
 40 39  1  0  0  0  0
 40 35  1  0  0  0  0
 41 36  1  0  0  0  0
M  END
>  <MODEL>
9

>  <REMARK>
 VINA RESULT:      -7.8      3.141      8.840
  Name = 
  9 active torsions:
  status: ('A' for Active; 'I' for Inactive)
    1  A    between atoms: C_1  and  C_34
    2  A    between atoms: C_4  and  C_11
    3  A    between atoms: C_9  and  O_25
    4  A    between atoms: C_9  and  C_34
    5  A    between atoms: C_10  and  O_25
    6  A    between atoms: C_11  and  N_23
    7  A    between atoms: N_23  and  C_24
    8  A    between atoms: C_31  and  C_38
    9  A    between atoms: C_31  and  C_41
                            x       y       z     vdW  Elec       q    Type
                         _______ _______ _______ _____ _____    ______ ____

>  <TORSDO>
F 9

$$$$
