=
 OpenBabel10222420023D

 54 57  0  0  1  0  0  0  0  0999 V2000
  185.2880  178.2720  138.1060 C   0  0  0  0  0  0  0  0  0  0  0  0
  187.3650  178.1570  136.9000 C   0  0  0  0  0  0  0  0  0  0  0  0
  186.0900  177.5570  137.3500 C   0  0  0  0  0  0  0  0  0  0  0  0
  186.6470  175.1860  136.9950 C   0  0  0  0  0  3  0  0  0  0  0  0
  188.2180  177.5300  135.9320 N   0  0  0  0  0  0  0  0  0  0  0  0
  185.6350  176.2570  136.7370 C   0  0  1  0  0  3  0  0  0  0  0  0
  184.1490  180.2460  138.3990 F   0  0  0  0  0  0  0  0  0  0  0  0
  184.4900  179.0080  138.8390 C   0  0  0  0  0  0  0  0  0  0  0  0
  188.4140  176.2620  135.6990 C   0  0  0  0  0  0  0  0  0  0  0  0
  187.8470  175.2200  136.5080 N   0  0  0  0  0  0  0  0  0  0  0  0
  187.6890  179.3010  137.3180 O   0  0  0  0  0  0  0  0  0  0  0  0
  189.3760  175.9000  134.7170 N   0  0  0  0  0  1  0  0  0  0  0  0
  183.1760  176.3850  136.6260 C   0  0  0  0  0  0  0  0  0  0  0  0
  184.0800  174.5870  137.9580 C   0  0  0  0  0  1  0  0  0  0  0  0
  184.2430  175.8080  137.1190 C   0  0  0  0  0  0  0  0  0  0  0  0
  182.1300  176.9870  136.1340 C   0  0  0  0  0  3  0  0  0  0  0  0
  181.4490  178.0510  136.9220 C   0  0  0  0  0  2  0  0  0  0  0  0
  180.0160  177.6340  137.2420 C   0  0  2  0  0  3  0  0  0  0  0  0
  179.3520  178.6580  138.1560 C   0  0  0  0  0  2  0  0  0  0  0  0
  180.4010  179.4170  138.9450 C   0  0  0  0  0  2  0  0  0  0  0  0
  180.2990  179.0470  140.4080 C   0  0  0  0  0  1  0  0  0  0  0  0
  179.9760  176.2390  137.8600 C   0  0  0  0  0  2  0  0  0  0  0  0
  178.9460  175.4180  137.2430 N   0  0  0  0  0  2  0  0  0  0  0  0
  179.3670  174.0370  137.4070 C   0  0  0  0  0  2  0  0  0  0  0  0
  180.7920  173.8680  136.9020 C   0  0  0  0  0  2  0  0  0  0  0  0
  180.8120  173.1830  135.5370 C   0  0  0  0  0  2  0  0  0  0  0  0
  181.9290  172.1410  135.3970 C   0  0  2  0  0  3  0  0  0  0  0  0
  182.3240  171.5510  136.7410 C   0  0  0  0  0  1  0  0  0  0  0  0
  183.1540  172.6990  134.6840 C   0  0  0  0  0  2  0  0  0  0  0  0
  184.4350  172.0990  135.2470 C   0  0  0  0  0  2  0  0  0  0  0  0
  185.5420  172.7910  134.7500 O   0  0  0  0  0  1  0  0  0  0  0  0
  183.9500  178.5220  140.1170 C   0  0  0  0  0  0  0  0  0  0  0  0
  183.4610  177.3620  140.2110 O   0  0  0  0  0  0  0  0  0  0  0  0
  183.9970  179.3770  141.2580 N   0  0  0  0  0  2  0  0  0  0  0  0
  185.7310  178.6410  143.3820 C   0  0  0  0  0  3  0  0  0  0  0  0
  184.2610  178.6590  143.5420 C   0  0  0  0  0  0  0  0  0  0  0  0
  186.5220  178.2210  144.3710 C   0  0  0  0  0  3  0  0  0  0  0  0
  185.9460  177.6870  145.6550 C   0  0  2  0  0  3  0  0  0  0  0  0
  183.4650  178.9970  142.5290 C   0  0  0  0  0  3  0  0  0  0  0  0
  184.6410  178.4040  146.0000 C   0  0  0  0  0  2  0  0  0  0  0  0
  183.6430  178.2450  144.8500 C   0  0  0  0  0  2  0  0  0  0  0  0
  186.8670  177.8510  146.6910 O   0  0  0  0  0  0  0  0  0  0  0  0
  188.0570  178.2270  146.0660 C   0  0  0  0  0  2  0  0  0  0  0  0
  188.7740  176.9960  145.5520 C   0  0  0  0  0  2  0  0  0  0  0  0
  191.8250  175.6720  146.0780 O   0  0  0  0  0  0  0  0  0  0  0  0
  192.2290  175.2180  144.8100 C   0  0  0  0  0  2  0  0  0  0  0  0
  189.5890  177.3530  144.3050 C   0  0  2  0  0  3  0  0  0  0  0  0
  191.5930  177.0460  145.9200 C   0  0  0  0  0  2  0  0  0  0  0  0
  189.3900  176.3450  143.1850 C   0  0  2  0  0  3  0  0  0  0  0  0
  191.5260  176.0480  143.7580 C   0  0  2  0  0  3  0  0  0  0  0  0
  191.0990  177.2840  144.5010 C   0  0  1  0  0  0  0  0  0  0  0  0
  188.1220  175.7610  143.2070 O   0  0  0  0  0  1  0  0  0  0  0  0
  190.3820  175.3620  143.3060 O   0  0  0  0  0  0  0  0  0  0  0  0
  191.7630  178.5150  143.9100 C   0  0  0  0  0  1  0  0  0  0  0  0
  1  8  2  0  0  0  0
  2 11  2  0  0  0  0
  2  3  1  0  0  0  0
  3  1  2  0  0  0  0
  5  2  1  0  0  0  0
  6  4  1  0  0  0  0
  6 15  1  1  0  0  0
  6  3  1  0  0  0  0
  7  8  1  0  0  0  0
  8 32  1  0  0  0  0
  9  5  2  0  0  0  0
  9 10  1  0  0  0  0
 10  4  2  0  0  0  0
 12  9  1  0  0  0  0
 13 15  2  0  0  0  0
 15 14  1  0  0  0  0
 16 13  2  0  0  0  0
 16 17  1  0  0  0  0
 18 17  1  1  0  0  0
 18 22  1  0  0  0  0
 18 19  1  0  0  0  0
 19 20  1  0  0  0  0
 20 21  1  0  0  0  0
 23 24  1  0  0  0  0
 23 22  1  0  0  0  0
 25 24  1  0  0  0  0
 26 25  1  0  0  0  0
 27 26  1  0  0  0  0
 27 28  1  1  0  0  0
 29 30  1  0  0  0  0
 29 27  1  0  0  0  0
 31 30  1  0  0  0  0
 32 33  2  0  0  0  0
 32 34  1  0  0  0  0
 34 39  1  0  0  0  0
 35 36  1  0  0  0  0
 35 37  2  0  0  0  0
 36 41  1  0  0  0  0
 37 38  1  0  0  0  0
 38 40  1  0  0  0  0
 38 42  1  1  0  0  0
 39 36  2  0  0  0  0
 41 40  1  0  0  0  0
 43 42  1  0  0  0  0
 44 43  1  0  0  0  0
 46 45  1  0  0  0  0
 47 51  1  0  0  0  0
 47 44  1  1  0  0  0
 48 45  1  0  0  0  0
 49 52  1  1  0  0  0
 49 53  1  0  0  0  0
 49 47  1  0  0  0  0
 50 51  1  0  0  0  0
 50 46  1  1  0  0  0
 51 54  1  6  0  0  0
 51 48  1  0  0  0  0
 53 50  1  0  0  0  0
M  END
>  <MODEL>
1

>  <REMARK>
 VINA RESULT:      -6.6      0.000      0.000
  Name = 
  19 active torsions:
  status: ('A' for Active; 'I' for Inactive)
    1  A    between atoms: C_1  and  C_42
    2  A    between atoms: C_1  and  C_44
    3  A    between atoms: C_5  and  N_7
    4  A    between atoms: C_5  and  C_32
    5  A    between atoms: N_7  and  C_54
    6  A    between atoms: C_8  and  C_25
    7  A    between atoms: C_9  and  C_39
    8  A    between atoms: C_10  and  C_19
    9  A    between atoms: C_13  and  C_43
   10  A    between atoms: C_18  and  C_39
   11  A    between atoms: C_18  and  C_51
   12  A    between atoms: C_25  and  C_42
   13  A    between atoms: O_28  and  C_33
   14  A    between atoms: O_28  and  C_45
   15  A    between atoms: C_30  and  C_37
   16  A    between atoms: C_32  and  C_51
   17  A    between atoms: C_34  and  N_40
   18  A    between atoms: C_37  and  C_45
   19  A    between atoms: C_42  and  C_54
                            x       y       z     vdW  Elec       q    Type
                         _______ _______ _______ _____ _____    ______ ____

>  <TORSDO>
F 19

$$$$
=
 OpenBabel10222420023D

 54 57  0  0  1  0  0  0  0  0999 V2000
  184.5200  173.3670  136.2470 C   0  0  0  0  0  0  0  0  0  0  0  0
  182.2760  172.6220  136.6850 C   0  0  0  0  0  0  0  0  0  0  0  0
  183.3080  173.6820  136.6430 C   0  0  0  0  0  0  0  0  0  0  0  0
  182.2330  175.3090  138.1440 C   0  0  0  0  0  3  0  0  0  0  0  0
  180.8890  172.8990  136.9280 N   0  0  0  0  0  0  0  0  0  0  0  0
  182.8880  175.1200  136.8140 C   0  0  1  0  0  3  0  0  0  0  0  0
  185.8420  172.3940  134.6390 F   0  0  0  0  0  0  0  0  0  0  0  0
  185.7170  173.0400  135.8260 C   0  0  0  0  0  0  0  0  0  0  0  0
  180.3470  173.8380  137.6510 C   0  0  0  0  0  0  0  0  0  0  0  0
  181.1120  174.7420  138.4640 N   0  0  0  0  0  0  0  0  0  0  0  0
  182.6030  171.4330  136.4220 O   0  0  0  0  0  0  0  0  0  0  0  0
  178.9320  173.8520  137.7840 N   0  0  0  0  0  1  0  0  0  0  0  0
  184.3850  176.9400  137.5350 C   0  0  0  0  0  0  0  0  0  0  0  0
  184.6910  176.1560  135.2730 C   0  0  0  0  0  1  0  0  0  0  0  0
  183.9720  176.1470  136.5790 C   0  0  0  0  0  0  0  0  0  0  0  0
  184.7670  177.7300  138.4990 C   0  0  0  0  0  3  0  0  0  0  0  0
  184.2010  179.1020  138.6010 C   0  0  0  0  0  2  0  0  0  0  0  0
  183.4110  179.2520  139.8980 C   0  0  2  0  0  3  0  0  0  0  0  0
  184.0620  178.4490  141.0180 C   0  0  0  0  0  2  0  0  0  0  0  0
  183.1100  178.3140  142.1910 C   0  0  0  0  0  2  0  0  0  0  0  0
  183.4940  179.3010  143.2700 C   0  0  0  0  0  1  0  0  0  0  0  0
  181.9540  178.8400  139.7030 C   0  0  0  0  0  2  0  0  0  0  0  0
  181.0450  179.8510  140.2220 N   0  0  0  0  0  2  0  0  0  0  0  0
  180.0930  180.1330  139.1620 C   0  0  0  0  0  2  0  0  0  0  0  0
  180.8000  180.8230  138.0050 C   0  0  0  0  0  2  0  0  0  0  0  0
  179.8180  181.6510  137.1770 C   0  0  0  0  0  2  0  0  0  0  0  0
  180.0810  181.5750  135.6690 C   0  0  2  0  0  3  0  0  0  0  0  0
  180.7450  180.2650  135.2750 C   0  0  0  0  0  1  0  0  0  0  0  0
  180.9000  182.7560  135.1640 C   0  0  0  0  0  2  0  0  0  0  0  0
  180.3610  184.0690  135.7130 C   0  0  0  0  0  2  0  0  0  0  0  0
  181.4190  184.8720  136.1470 O   0  0  0  0  0  1  0  0  0  0  0  0
  186.9220  173.3650  136.6030 C   0  0  0  0  0  0  0  0  0  0  0  0
  187.0260  173.0110  137.8100 O   0  0  0  0  0  0  0  0  0  0  0  0
  187.9820  174.0810  135.9680 N   0  0  0  0  0  2  0  0  0  0  0  0
  188.0200  176.4200  137.5770 C   0  0  0  0  0  3  0  0  0  0  0  0
  189.2090  175.5530  137.4270 C   0  0  0  0  0  0  0  0  0  0  0  0
  188.0830  177.5520  138.2790 C   0  0  0  0  0  3  0  0  0  0  0  0
  189.3790  178.0230  138.8820 C   0  0  2  0  0  3  0  0  0  0  0  0
  189.1720  174.4670  136.6580 C   0  0  0  0  0  3  0  0  0  0  0  0
  190.2370  176.8340  139.3110 C   0  0  0  0  0  2  0  0  0  0  0  0
  190.4980  175.9220  138.1090 C   0  0  0  0  0  2  0  0  0  0  0  0
  189.1190  178.8440  139.9810 O   0  0  0  0  0  0  0  0  0  0  0  0
  187.9810  178.3020  140.5810 C   0  0  0  0  0  2  0  0  0  0  0  0
  188.0750  178.4590  142.0850 C   0  0  0  0  0  2  0  0  0  0  0  0
  190.7410  178.9440  144.0860 O   0  0  0  0  0  0  0  0  0  0  0  0
  190.4790  178.1430  145.2110 C   0  0  0  0  0  2  0  0  0  0  0  0
  188.3470  177.0980  142.7320 C   0  0  2  0  0  3  0  0  0  0  0  0
  190.7390  178.0590  142.9960 C   0  0  0  0  0  2  0  0  0  0  0  0
  187.5040  176.8790  143.9770 C   0  0  2  0  0  3  0  0  0  0  0  0
  189.5790  177.0020  144.7890 C   0  0  2  0  0  3  0  0  0  0  0  0
  189.7550  176.9400  143.2960 C   0  0  1  0  0  0  0  0  0  0  0  0
  186.2740  177.5370  143.9150 O   0  0  0  0  0  1  0  0  0  0  0  0
  188.2410  177.3260  145.0830 O   0  0  0  0  0  0  0  0  0  0  0  0
  190.3380  175.6000  142.8850 C   0  0  0  0  0  1  0  0  0  0  0  0
  1  3  2  0  0  0  0
  2  5  1  0  0  0  0
  3  2  1  0  0  0  0
  3  6  1  0  0  0  0
  4 10  2  0  0  0  0
  5  9  2  0  0  0  0
  6 15  1  1  0  0  0
  6  4  1  0  0  0  0
  7  8  1  0  0  0  0
  8  1  2  0  0  0  0
  8 32  1  0  0  0  0
  9 12  1  0  0  0  0
  9 10  1  0  0  0  0
 11  2  2  0  0  0  0
 13 16  2  0  0  0  0
 14 15  1  0  0  0  0
 15 13  2  0  0  0  0
 16 17  1  0  0  0  0
 18 17  1  6  0  0  0
 18 19  1  0  0  0  0
 19 20  1  0  0  0  0
 20 21  1  0  0  0  0
 22 18  1  0  0  0  0
 22 23  1  0  0  0  0
 24 23  1  0  0  0  0
 25 24  1  0  0  0  0
 26 25  1  0  0  0  0
 27 28  1  1  0  0  0
 27 26  1  0  0  0  0
 29 27  1  0  0  0  0
 29 30  1  0  0  0  0
 30 31  1  0  0  0  0
 32 33  2  0  0  0  0
 34 32  1  0  0  0  0
 34 39  1  0  0  0  0
 35 37  2  0  0  0  0
 36 35  1  0  0  0  0
 36 41  1  0  0  0  0
 37 38  1  0  0  0  0
 38 40  1  0  0  0  0
 38 42  1  1  0  0  0
 39 36  2  0  0  0  0
 41 40  1  0  0  0  0
 42 43  1  0  0  0  0
 43 44  1  0  0  0  0
 45 46  1  0  0  0  0
 47 44  1  1  0  0  0
 47 51  1  0  0  0  0
 47 49  1  0  0  0  0
 48 51  1  0  0  0  0
 48 45  1  0  0  0  0
 49 52  1  6  0  0  0
 49 53  1  0  0  0  0
 50 53  1  0  0  0  0
 50 46  1  6  0  0  0
 51 54  1  6  0  0  0
 51 50  1  0  0  0  0
M  END
>  <MODEL>
2

>  <REMARK>
 VINA RESULT:      -6.5      2.875      6.714
  Name = 
  19 active torsions:
  status: ('A' for Active; 'I' for Inactive)
    1  A    between atoms: C_1  and  C_42
    2  A    between atoms: C_1  and  C_44
    3  A    between atoms: C_5  and  N_7
    4  A    between atoms: C_5  and  C_32
    5  A    between atoms: N_7  and  C_54
    6  A    between atoms: C_8  and  C_25
    7  A    between atoms: C_9  and  C_39
    8  A    between atoms: C_10  and  C_19
    9  A    between atoms: C_13  and  C_43
   10  A    between atoms: C_18  and  C_39
   11  A    between atoms: C_18  and  C_51
   12  A    between atoms: C_25  and  C_42
   13  A    between atoms: O_28  and  C_33
   14  A    between atoms: O_28  and  C_45
   15  A    between atoms: C_30  and  C_37
   16  A    between atoms: C_32  and  C_51
   17  A    between atoms: C_34  and  N_40
   18  A    between atoms: C_37  and  C_45
   19  A    between atoms: C_42  and  C_54
                            x       y       z     vdW  Elec       q    Type
                         _______ _______ _______ _____ _____    ______ ____

>  <TORSDO>
F 19

$$$$
=
 OpenBabel10222420023D

 54 57  0  0  1  0  0  0  0  0999 V2000
  185.9280  177.5520  137.6200 C   0  0  0  0  0  0  0  0  0  0  0  0
  187.9470  176.7990  136.5520 C   0  0  0  0  0  0  0  0  0  0  0  0
  186.5600  176.5720  137.0140 C   0  0  0  0  0  0  0  0  0  0  0  0
  186.5670  174.1110  137.0210 C   0  0  0  0  0  3  0  0  0  0  0  0
  188.6530  175.8620  135.7260 N   0  0  0  0  0  0  0  0  0  0  0  0
  185.8320  175.3300  136.5640 C   0  0  1  0  0  3  0  0  0  0  0  0
  185.2640  179.7510  137.5760 F   0  0  0  0  0  0  0  0  0  0  0  0
  185.3050  178.5470  138.2010 C   0  0  0  0  0  0  0  0  0  0  0  0
  188.5590  174.5630  135.6830 C   0  0  0  0  0  0  0  0  0  0  0  0
  187.7530  173.8040  136.5980 N   0  0  0  0  0  0  0  0  0  0  0  0
  188.5150  177.8910  136.8240 O   0  0  0  0  0  0  0  0  0  0  0  0
  189.4310  173.8540  134.8120 N   0  0  0  0  0  1  0  0  0  0  0  0
  183.4750  176.0100  136.3300 C   0  0  0  0  0  0  0  0  0  0  0  0
  183.9070  174.2240  137.8940 C   0  0  0  0  0  1  0  0  0  0  0  0
  184.3670  175.2650  136.9320 C   0  0  0  0  0  0  0  0  0  0  0  0
  182.6080  176.7750  135.7280 C   0  0  0  0  0  3  0  0  0  0  0  0
  182.1820  178.0530  136.3590 C   0  0  0  0  0  2  0  0  0  0  0  0
  180.7490  178.3880  135.9580 C   0  0  2  0  0  3  0  0  0  0  0  0
  180.6910  179.7370  135.2510 C   0  0  0  0  0  2  0  0  0  0  0  0
  180.1020  180.7890  136.1700 C   0  0  0  0  0  2  0  0  0  0  0  0
  180.5460  182.1620  135.7190 C   0  0  0  0  0  1  0  0  0  0  0  0
  179.8200  178.3650  137.1700 C   0  0  0  0  0  2  0  0  0  0  0  0
  179.4260  177.0050  137.5060 N   0  0  0  0  0  2  0  0  0  0  0  0
  179.1850  176.9880  138.9390 C   0  0  0  0  0  2  0  0  0  0  0  0
  180.4180  177.4910  139.6750 C   0  0  0  0  0  2  0  0  0  0  0  0
  180.0790  177.8780  141.1130 C   0  0  0  0  0  2  0  0  0  0  0  0
  180.5600  179.2840  141.4930 C   0  0  2  0  0  3  0  0  0  0  0  0
  180.8400  179.4030  142.9820 C   0  0  0  0  0  1  0  0  0  0  0  0
  179.5860  180.3680  141.0490 C   0  0  0  0  0  2  0  0  0  0  0  0
  180.1430  181.1550  139.8710 C   0  0  0  0  0  2  0  0  0  0  0  0
  179.1610  182.0070  139.3620 O   0  0  0  0  0  1  0  0  0  0  0  0
  184.6440  178.3860  139.5040 C   0  0  0  0  0  0  0  0  0  0  0  0
  183.8390  177.4350  139.7060 O   0  0  0  0  0  0  0  0  0  0  0  0
  184.9330  179.3180  140.5460 N   0  0  0  0  0  2  0  0  0  0  0  0
  186.2550  178.0730  142.7280 C   0  0  0  0  0  3  0  0  0  0  0  0
  184.9170  178.6870  142.8700 C   0  0  0  0  0  0  0  0  0  0  0  0
  186.8240  177.4290  143.7480 C   0  0  0  0  0  3  0  0  0  0  0  0
  186.1000  177.2440  145.0540 C   0  0  2  0  0  3  0  0  0  0  0  0
  184.3100  179.2560  141.8310 C   0  0  0  0  0  3  0  0  0  0  0  0
  185.1950  178.4420  145.3420 C   0  0  0  0  0  2  0  0  0  0  0  0
  184.2010  178.6300  144.1930 C   0  0  0  0  0  2  0  0  0  0  0  0
  187.0230  177.0850  146.0890 O   0  0  0  0  0  0  0  0  0  0  0  0
  187.5080  178.3680  146.3470 C   0  0  0  0  0  2  0  0  0  0  0  0
  189.0080  178.3130  146.5500 C   0  0  0  0  0  2  0  0  0  0  0  0
  191.0210  179.5170  144.1320 O   0  0  0  0  0  0  0  0  0  0  0  0
  192.1030  178.6200  144.1040 C   0  0  0  0  0  2  0  0  0  0  0  0
  189.5810  177.0770  145.8480 C   0  0  2  0  0  3  0  0  0  0  0  0
  189.8860  178.7320  143.8770 C   0  0  0  0  0  2  0  0  0  0  0  0
  190.8160  176.5420  146.5530 C   0  0  2  0  0  3  0  0  0  0  0  0
  191.6240  177.2750  144.6070 C   0  0  2  0  0  3  0  0  0  0  0  0
  190.1290  177.3450  144.4520 C   0  0  1  0  0  0  0  0  0  0  0  0
  190.7940  176.7790  147.9290 O   0  0  0  0  0  1  0  0  0  0  0  0
  191.9410  177.1440  145.9720 O   0  0  0  0  0  0  0  0  0  0  0  0
  189.6450  176.2800  143.4830 C   0  0  0  0  0  1  0  0  0  0  0  0
  1  8  2  0  0  0  0
  2 11  2  0  0  0  0
  2  3  1  0  0  0  0
  3  1  2  0  0  0  0
  5  2  1  0  0  0  0
  6 15  1  1  0  0  0
  6  3  1  0  0  0  0
  6  4  1  0  0  0  0
  7  8  1  0  0  0  0
  8 32  1  0  0  0  0
  9  5  2  0  0  0  0
  9 10  1  0  0  0  0
 10  4  2  0  0  0  0
 12  9  1  0  0  0  0
 13 15  2  0  0  0  0
 15 14  1  0  0  0  0
 16 13  2  0  0  0  0
 16 17  1  0  0  0  0
 18 19  1  1  0  0  0
 18 17  1  0  0  0  0
 18 22  1  0  0  0  0
 19 20  1  0  0  0  0
 21 20  1  0  0  0  0
 22 23  1  0  0  0  0
 23 24  1  0  0  0  0
 24 25  1  0  0  0  0
 25 26  1  0  0  0  0
 26 27  1  0  0  0  0
 27 28  1  1  0  0  0
 29 27  1  0  0  0  0
 30 29  1  0  0  0  0
 31 30  1  0  0  0  0
 32 33  2  0  0  0  0
 32 34  1  0  0  0  0
 34 39  1  0  0  0  0
 35 36  1  0  0  0  0
 35 37  2  0  0  0  0
 36 41  1  0  0  0  0
 37 38  1  0  0  0  0
 38 40  1  0  0  0  0
 38 42  1  1  0  0  0
 39 36  2  0  0  0  0
 41 40  1  0  0  0  0
 42 43  1  0  0  0  0
 43 44  1  0  0  0  0
 46 45  1  0  0  0  0
 47 44  1  1  0  0  0
 47 49  1  0  0  0  0
 48 45  1  0  0  0  0
 48 51  1  0  0  0  0
 49 52  1  1  0  0  0
 50 46  1  1  0  0  0
 50 53  1  0  0  0  0
 51 54  1  6  0  0  0
 51 50  1  0  0  0  0
 51 47  1  0  0  0  0
 53 49  1  0  0  0  0
M  END
>  <MODEL>
3

>  <REMARK>
 VINA RESULT:      -6.5      1.949      4.029
  Name = 
  19 active torsions:
  status: ('A' for Active; 'I' for Inactive)
    1  A    between atoms: C_1  and  C_42
    2  A    between atoms: C_1  and  C_44
    3  A    between atoms: C_5  and  N_7
    4  A    between atoms: C_5  and  C_32
    5  A    between atoms: N_7  and  C_54
    6  A    between atoms: C_8  and  C_25
    7  A    between atoms: C_9  and  C_39
    8  A    between atoms: C_10  and  C_19
    9  A    between atoms: C_13  and  C_43
   10  A    between atoms: C_18  and  C_39
   11  A    between atoms: C_18  and  C_51
   12  A    between atoms: C_25  and  C_42
   13  A    between atoms: O_28  and  C_33
   14  A    between atoms: O_28  and  C_45
   15  A    between atoms: C_30  and  C_37
   16  A    between atoms: C_32  and  C_51
   17  A    between atoms: C_34  and  N_40
   18  A    between atoms: C_37  and  C_45
   19  A    between atoms: C_42  and  C_54
                            x       y       z     vdW  Elec       q    Type
                         _______ _______ _______ _____ _____    ______ ____

>  <TORSDO>
F 19

$$$$
=
 OpenBabel10222420023D

 54 57  0  0  1  0  0  0  0  0999 V2000
  188.1780  174.7350  136.2870 C   0  0  0  0  0  0  0  0  0  0  0  0
  190.2480  173.5430  136.0110 C   0  0  0  0  0  0  0  0  0  0  0  0
  189.4740  174.8010  136.0800 C   0  0  0  0  0  0  0  0  0  0  0  0
  191.0780  176.2890  134.9520 C   0  0  0  0  0  3  0  0  0  0  0  0
  191.6820  173.5160  135.9700 N   0  0  0  0  0  0  0  0  0  0  0  0
  190.2140  176.1130  136.1590 C   0  0  1  0  0  3  0  0  0  0  0  0
  186.4610  173.9260  137.5830 F   0  0  0  0  0  0  0  0  0  0  0  0
  186.8920  174.6500  136.5180 C   0  0  0  0  0  0  0  0  0  0  0  0
  192.5120  174.3770  135.4500 C   0  0  0  0  0  0  0  0  0  0  0  0
  192.0840  175.5160  134.6880 N   0  0  0  0  0  0  0  0  0  0  0  0
  189.6390  172.4410  136.0690 O   0  0  0  0  0  0  0  0  0  0  0  0
  193.9010  174.0770  135.4850 N   0  0  0  0  0  1  0  0  0  0  0  0
  189.2760  177.8870  137.5900 C   0  0  0  0  0  0  0  0  0  0  0  0
  188.6980  178.0040  135.2500 C   0  0  0  0  0  1  0  0  0  0  0  0
  189.3530  177.3320  136.4080 C   0  0  0  0  0  0  0  0  0  0  0  0
  189.2030  178.4120  138.7810 C   0  0  0  0  0  3  0  0  0  0  0  0
  188.0670  178.0620  139.6770 C   0  0  0  0  0  2  0  0  0  0  0  0
  188.5440  177.9690  141.1230 C   0  0  2  0  0  3  0  0  0  0  0  0
  189.5960  176.8750  141.2700 C   0  0  0  0  0  2  0  0  0  0  0  0
  190.9760  177.4290  140.9720 C   0  0  0  0  0  2  0  0  0  0  0  0
  191.9050  177.1170  142.1240 C   0  0  0  0  0  1  0  0  0  0  0  0
  187.3730  177.7340  142.0730 C   0  0  0  0  0  2  0  0  0  0  0  0
  187.8360  177.4710  143.4270 N   0  0  0  0  0  2  0  0  0  0  0  0
  186.7600  177.8720  144.3160 C   0  0  0  0  0  2  0  0  0  0  0  0
  187.0830  177.4490  145.7410 C   0  0  0  0  0  2  0  0  0  0  0  0
  188.5570  177.6890  146.0650 C   0  0  0  0  0  2  0  0  0  0  0  0
  188.9710  177.1550  147.4410 C   0  0  2  0  0  3  0  0  0  0  0  0
  188.0960  177.7130  148.5520 C   0  0  0  0  0  1  0  0  0  0  0  0
  190.4410  177.4150  147.7440 C   0  0  0  0  0  2  0  0  0  0  0  0
  191.3080  176.2520  147.2840 C   0  0  0  0  0  2  0  0  0  0  0  0
  191.7450  176.4730  145.9760 O   0  0  0  0  0  1  0  0  0  0  0  0
  185.9090  175.3280  135.6610 C   0  0  0  0  0  0  0  0  0  0  0  0
  186.2760  175.9500  134.6250 O   0  0  0  0  0  0  0  0  0  0  0  0
  184.5260  175.2640  136.0090 N   0  0  0  0  0  2  0  0  0  0  0  0
  183.1180  177.4750  137.1010 C   0  0  0  0  0  3  0  0  0  0  0  0
  182.8440  176.9670  135.7390 C   0  0  0  0  0  0  0  0  0  0  0  0
  182.3930  178.4670  137.6200 C   0  0  0  0  0  3  0  0  0  0  0  0
  181.2300  179.0570  136.8690 C   0  0  2  0  0  3  0  0  0  0  0  0
  183.5090  175.9220  135.2500 C   0  0  0  0  0  3  0  0  0  0  0  0
  181.4950  179.0380  135.3640 C   0  0  0  0  0  2  0  0  0  0  0  0
  181.7670  177.6030  134.9030 C   0  0  0  0  0  2  0  0  0  0  0  0
  181.0060  180.3670  137.2960 O   0  0  0  0  0  0  0  0  0  0  0  0
  179.9550  180.2780  138.2110 C   0  0  0  0  0  2  0  0  0  0  0  0
  180.4910  180.4340  139.6190 C   0  0  0  0  0  2  0  0  0  0  0  0
  182.5740  178.9920  141.8380 O   0  0  0  0  0  0  0  0  0  0  0  0
  181.8990  179.0980  143.0660 C   0  0  0  0  0  2  0  0  0  0  0  0
  179.5820  179.6940  140.6050 C   0  0  2  0  0  3  0  0  0  0  0  0
  181.7090  178.2690  141.0030 C   0  0  0  0  0  2  0  0  0  0  0  0
  179.0900  180.6030  141.7200 C   0  0  2  0  0  3  0  0  0  0  0  0
  180.4120  179.1600  142.7920 C   0  0  2  0  0  3  0  0  0  0  0  0
  180.2790  178.5980  141.4030 C   0  0  1  0  0  0  0  0  0  0  0  0
  178.9630  181.9320  141.3120 O   0  0  0  0  0  1  0  0  0  0  0  0
  179.9920  180.5040  142.7880 O   0  0  0  0  0  0  0  0  0  0  0  0
  179.4310  177.3390  141.4170 C   0  0  0  0  0  1  0  0  0  0  0  0
  1  8  2  0  0  0  0
  2 11  2  0  0  0  0
  2  3  1  0  0  0  0
  3  6  1  0  0  0  0
  3  1  2  0  0  0  0
  4  6  1  0  0  0  0
  5  2  1  0  0  0  0
  6 15  1  6  0  0  0
  8  7  1  0  0  0  0
  9 12  1  0  0  0  0
  9  5  2  0  0  0  0
 10  4  2  0  0  0  0
 10  9  1  0  0  0  0
 13 16  2  0  0  0  0
 14 15  1  0  0  0  0
 15 13  2  0  0  0  0
 16 17  1  0  0  0  0
 18 17  1  6  0  0  0
 18 19  1  0  0  0  0
 18 22  1  0  0  0  0
 20 19  1  0  0  0  0
 20 21  1  0  0  0  0
 22 23  1  0  0  0  0
 23 24  1  0  0  0  0
 24 25  1  0  0  0  0
 25 26  1  0  0  0  0
 26 27  1  0  0  0  0
 27 29  1  0  0  0  0
 27 28  1  1  0  0  0
 30 29  1  0  0  0  0
 31 30  1  0  0  0  0
 32 34  1  0  0  0  0
 32  8  1  0  0  0  0
 33 32  2  0  0  0  0
 35 37  2  0  0  0  0
 36 35  1  0  0  0  0
 38 42  1  1  0  0  0
 38 37  1  0  0  0  0
 39 36  2  0  0  0  0
 39 34  1  0  0  0  0
 40 38  1  0  0  0  0
 41 40  1  0  0  0  0
 41 36  1  0  0  0  0
 42 43  1  0  0  0  0
 43 44  1  0  0  0  0
 45 46  1  0  0  0  0
 47 44  1  6  0  0  0
 47 51  1  0  0  0  0
 47 49  1  0  0  0  0
 48 51  1  0  0  0  0
 48 45  1  0  0  0  0
 49 52  1  6  0  0  0
 49 53  1  0  0  0  0
 50 46  1  6  0  0  0
 51 54  1  1  0  0  0
 51 50  1  0  0  0  0
 53 50  1  0  0  0  0
M  END
>  <MODEL>
4

>  <REMARK>
 VINA RESULT:      -6.2      2.995      9.702
  Name = 
  19 active torsions:
  status: ('A' for Active; 'I' for Inactive)
    1  A    between atoms: C_1  and  C_42
    2  A    between atoms: C_1  and  C_44
    3  A    between atoms: C_5  and  N_7
    4  A    between atoms: C_5  and  C_32
    5  A    between atoms: N_7  and  C_54
    6  A    between atoms: C_8  and  C_25
    7  A    between atoms: C_9  and  C_39
    8  A    between atoms: C_10  and  C_19
    9  A    between atoms: C_13  and  C_43
   10  A    between atoms: C_18  and  C_39
   11  A    between atoms: C_18  and  C_51
   12  A    between atoms: C_25  and  C_42
   13  A    between atoms: O_28  and  C_33
   14  A    between atoms: O_28  and  C_45
   15  A    between atoms: C_30  and  C_37
   16  A    between atoms: C_32  and  C_51
   17  A    between atoms: C_34  and  N_40
   18  A    between atoms: C_37  and  C_45
   19  A    between atoms: C_42  and  C_54
                            x       y       z     vdW  Elec       q    Type
                         _______ _______ _______ _____ _____    ______ ____

>  <TORSDO>
F 19

$$$$
=
 OpenBabel10222420023D

 54 57  0  0  1  0  0  0  0  0999 V2000
  190.0390  176.9280  144.3410 C   0  0  0  0  0  0  0  0  0  0  0  0
  190.1310  177.2760  146.7190 C   0  0  0  0  0  0  0  0  0  0  0  0
  189.3840  177.2150  145.4430 C   0  0  0  0  0  0  0  0  0  0  0  0
  187.3950  178.5000  146.1130 C   0  0  0  0  0  3  0  0  0  0  0  0
  189.4820  177.4020  147.9920 N   0  0  0  0  0  0  0  0  0  0  0  0
  187.8770  177.2370  145.4750 C   0  0  1  0  0  3  0  0  0  0  0  0
  191.4740  175.4990  143.2550 F   0  0  0  0  0  0  0  0  0  0  0  0
  190.7040  176.6170  143.2560 C   0  0  0  0  0  0  0  0  0  0  0  0
  188.3690  178.0070  148.2970 C   0  0  0  0  0  0  0  0  0  0  0  0
  187.6190  178.7900  147.3560 N   0  0  0  0  0  0  0  0  0  0  0  0
  191.3840  177.1350  146.7060 O   0  0  0  0  0  0  0  0  0  0  0  0
  187.9760  178.0430  149.6630 N   0  0  0  0  0  1  0  0  0  0  0  0
  186.3740  177.8670  143.6260 C   0  0  0  0  0  0  0  0  0  0  0  0
  187.5740  175.7910  143.3500 C   0  0  0  0  0  1  0  0  0  0  0  0
  187.1930  176.9900  144.1490 C   0  0  0  0  0  0  0  0  0  0  0  0
  185.5510  178.7480  143.1330 C   0  0  0  0  0  3  0  0  0  0  0  0
  184.0850  178.5880  143.3360 C   0  0  0  0  0  2  0  0  0  0  0  0
  183.3480  178.7550  142.0110 C   0  0  2  0  0  3  0  0  0  0  0  0
  181.8510  178.9220  142.2480 C   0  0  0  0  0  2  0  0  0  0  0  0
  181.5390  178.8290  143.7290 C   0  0  0  0  0  2  0  0  0  0  0  0
  180.0810  178.4740  143.9180 C   0  0  0  0  0  1  0  0  0  0  0  0
  183.6270  177.5820  141.0760 C   0  0  0  0  0  2  0  0  0  0  0  0
  183.5290  177.9850  139.6810 N   0  0  0  0  0  2  0  0  0  0  0  0
  184.7270  178.7530  139.3890 C   0  0  0  0  0  2  0  0  0  0  0  0
  185.4030  178.2010  138.1420 C   0  0  0  0  0  2  0  0  0  0  0  0
  184.3830  177.5630  137.2010 C   0  0  0  0  0  2  0  0  0  0  0  0
  184.7770  176.1530  136.7450 C   0  0  2  0  0  3  0  0  0  0  0  0
  185.5680  176.1790  135.4470 C   0  0  0  0  0  1  0  0  0  0  0  0
  183.5720  175.2310  136.6120 C   0  0  0  0  0  2  0  0  0  0  0  0
  182.9330  174.9670  137.9680 C   0  0  0  0  0  2  0  0  0  0  0  0
  181.7430  174.2550  137.8010 O   0  0  0  0  0  1  0  0  0  0  0  0
  190.6270  177.4420  142.0420 C   0  0  0  0  0  0  0  0  0  0  0  0
  191.6760  177.8780  141.4910 O   0  0  0  0  0  0  0  0  0  0  0  0
  189.3460  177.7370  141.4860 N   0  0  0  0  0  2  0  0  0  0  0  0
  189.4490  176.6000  138.8860 C   0  0  0  0  0  3  0  0  0  0  0  0
  189.2120  178.0440  139.1010 C   0  0  0  0  0  0  0  0  0  0  0  0
  189.5670  176.1010  137.6550 C   0  0  0  0  0  3  0  0  0  0  0  0
  189.5320  176.9970  136.4450 C   0  0  2  0  0  3  0  0  0  0  0  0
  189.1790  178.5590  140.3280 C   0  0  0  0  0  3  0  0  0  0  0  0
  188.6000  178.1850  136.6810 C   0  0  0  0  0  2  0  0  0  0  0  0
  189.0540  178.9630  137.9190 C   0  0  0  0  0  2  0  0  0  0  0  0
  189.1070  176.2710  135.3310 O   0  0  0  0  0  0  0  0  0  0  0  0
  190.2680  176.0100  134.6010 C   0  0  0  0  0  2  0  0  0  0  0  0
  191.4610  175.9860  135.5340 C   0  0  0  0  0  2  0  0  0  0  0  0
  193.9600  176.0800  137.7890 O   0  0  0  0  0  0  0  0  0  0  0  0
  194.2900  174.7290  137.9970 C   0  0  0  0  0  2  0  0  0  0  0  0
  192.4180  174.8620  135.1240 C   0  0  2  0  0  3  0  0  0  0  0  0
  194.1470  176.2970  136.4160 C   0  0  0  0  0  2  0  0  0  0  0  0
  192.0030  173.5190  135.7010 C   0  0  2  0  0  3  0  0  0  0  0  0
  193.9220  173.9490  136.7540 C   0  0  2  0  0  3  0  0  0  0  0  0
  193.8280  175.0020  135.6840 C   0  0  1  0  0  0  0  0  0  0  0  0
  190.6210  173.4110  135.8690 O   0  0  0  0  0  1  0  0  0  0  0  0
  192.6580  173.3550  136.9290 O   0  0  0  0  0  0  0  0  0  0  0  0
  194.8550  174.7460  134.5940 C   0  0  0  0  0  1  0  0  0  0  0  0
  1  3  2  0  0  0  0
  2  5  1  0  0  0  0
  3  6  1  0  0  0  0
  3  2  1  0  0  0  0
  4 10  2  0  0  0  0
  5  9  2  0  0  0  0
  6 15  1  6  0  0  0
  6  4  1  0  0  0  0
  7  8  1  0  0  0  0
  8  1  2  0  0  0  0
  9 12  1  0  0  0  0
 10  9  1  0  0  0  0
 11  2  2  0  0  0  0
 13 15  2  0  0  0  0
 14 15  1  0  0  0  0
 16 17  1  0  0  0  0
 16 13  2  0  0  0  0
 18 22  1  6  0  0  0
 18 19  1  0  0  0  0
 18 17  1  0  0  0  0
 19 20  1  0  0  0  0
 20 21  1  0  0  0  0
 23 22  1  0  0  0  0
 24 23  1  0  0  0  0
 25 24  1  0  0  0  0
 26 25  1  0  0  0  0
 27 28  1  6  0  0  0
 27 26  1  0  0  0  0
 29 27  1  0  0  0  0
 29 30  1  0  0  0  0
 31 30  1  0  0  0  0
 32  8  1  0  0  0  0
 33 32  2  0  0  0  0
 34 32  1  0  0  0  0
 35 36  1  0  0  0  0
 36 39  2  0  0  0  0
 37 35  2  0  0  0  0
 38 42  1  6  0  0  0
 38 40  1  0  0  0  0
 38 37  1  0  0  0  0
 39 34  1  0  0  0  0
 40 41  1  0  0  0  0
 41 36  1  0  0  0  0
 43 42  1  0  0  0  0
 43 44  1  0  0  0  0
 45 46  1  0  0  0  0
 47 44  1  1  0  0  0
 47 51  1  0  0  0  0
 47 49  1  0  0  0  0
 48 45  1  0  0  0  0
 49 52  1  1  0  0  0
 49 53  1  0  0  0  0
 50 53  1  0  0  0  0
 50 46  1  1  0  0  0
 51 54  1  6  0  0  0
 51 48  1  0  0  0  0
 51 50  1  0  0  0  0
M  END
>  <MODEL>
5

>  <REMARK>
 VINA RESULT:      -6.2      3.994      8.386
  Name = 
  19 active torsions:
  status: ('A' for Active; 'I' for Inactive)
    1  A    between atoms: C_1  and  C_42
    2  A    between atoms: C_1  and  C_44
    3  A    between atoms: C_5  and  N_7
    4  A    between atoms: C_5  and  C_32
    5  A    between atoms: N_7  and  C_54
    6  A    between atoms: C_8  and  C_25
    7  A    between atoms: C_9  and  C_39
    8  A    between atoms: C_10  and  C_19
    9  A    between atoms: C_13  and  C_43
   10  A    between atoms: C_18  and  C_39
   11  A    between atoms: C_18  and  C_51
   12  A    between atoms: C_25  and  C_42
   13  A    between atoms: O_28  and  C_33
   14  A    between atoms: O_28  and  C_45
   15  A    between atoms: C_30  and  C_37
   16  A    between atoms: C_32  and  C_51
   17  A    between atoms: C_34  and  N_40
   18  A    between atoms: C_37  and  C_45
   19  A    between atoms: C_42  and  C_54
                            x       y       z     vdW  Elec       q    Type
                         _______ _______ _______ _____ _____    ______ ____

>  <TORSDO>
F 19

$$$$
=
 OpenBabel10222420023D

 54 57  0  0  1  0  0  0  0  0999 V2000
  190.2670  176.9490  144.2490 C   0  0  0  0  0  0  0  0  0  0  0  0
  190.2710  177.2810  146.6310 C   0  0  0  0  0  0  0  0  0  0  0  0
  189.5650  177.1850  145.3350 C   0  0  0  0  0  0  0  0  0  0  0  0
  187.4820  178.3400  145.9570 C   0  0  0  0  0  3  0  0  0  0  0  0
  189.5800  177.3560  147.8870 N   0  0  0  0  0  0  0  0  0  0  0  0
  188.0580  177.1140  145.3240 C   0  0  1  0  0  3  0  0  0  0  0  0
  191.8160  175.6200  143.1950 F   0  0  0  0  0  0  0  0  0  0  0  0
  190.9790  176.6880  143.1820 C   0  0  0  0  0  0  0  0  0  0  0  0
  188.4230  177.8890  148.1650 C   0  0  0  0  0  0  0  0  0  0  0  0
  187.6530  178.6330  147.2080 N   0  0  0  0  0  0  0  0  0  0  0  0
  191.5290  177.2170  146.6530 O   0  0  0  0  0  0  0  0  0  0  0  0
  187.9910  177.8890  149.5190 N   0  0  0  0  0  1  0  0  0  0  0  0
  186.5480  177.6510  143.4520 C   0  0  0  0  0  0  0  0  0  0  0  0
  187.9300  175.6930  143.1650 C   0  0  0  0  0  1  0  0  0  0  0  0
  187.4280  176.8380  143.9780 C   0  0  0  0  0  0  0  0  0  0  0  0
  185.6620  178.4690  142.9570 C   0  0  0  0  0  3  0  0  0  0  0  0
  184.2120  178.1780  143.1210 C   0  0  0  0  0  2  0  0  0  0  0  0
  183.4000  178.9360  142.0760 C   0  0  2  0  0  3  0  0  0  0  0  0
  181.9170  178.6020  142.2030 C   0  0  0  0  0  2  0  0  0  0  0  0
  181.2590  179.5090  143.2240 C   0  0  0  0  0  2  0  0  0  0  0  0
  179.8350  179.0580  143.4580 C   0  0  0  0  0  1  0  0  0  0  0  0
  183.9090  178.6410  140.6670 C   0  0  0  0  0  2  0  0  0  0  0  0
  182.8720  178.8730  139.6720 N   0  0  0  0  0  2  0  0  0  0  0  0
  183.4620  178.5600  138.3820 C   0  0  0  0  0  2  0  0  0  0  0  0
  182.4290  177.8830  137.4930 C   0  0  0  0  0  2  0  0  0  0  0  0
  181.0620  177.8430  138.1730 C   0  0  0  0  0  2  0  0  0  0  0  0
  180.5310  176.4200  138.3870 C   0  0  2  0  0  3  0  0  0  0  0  0
  180.3930  176.0830  139.8630 C   0  0  0  0  0  1  0  0  0  0  0  0
  181.3840  175.3740  137.6830 C   0  0  0  0  0  2  0  0  0  0  0  0
  180.5440  174.1760  137.2620 C   0  0  0  0  0  2  0  0  0  0  0  0
  181.2020  172.9920  137.6030 O   0  0  0  0  0  1  0  0  0  0  0  0
  190.8860  177.5180  141.9720 C   0  0  0  0  0  0  0  0  0  0  0  0
  191.9230  178.0070  141.4440 O   0  0  0  0  0  0  0  0  0  0  0  0
  189.6030  177.7560  141.3930 N   0  0  0  0  0  2  0  0  0  0  0  0
  189.2000  176.5800  138.8410 C   0  0  0  0  0  3  0  0  0  0  0  0
  189.2160  178.0470  139.0340 C   0  0  0  0  0  0  0  0  0  0  0  0
  189.0820  176.0520  137.6220 C   0  0  0  0  0  3  0  0  0  0  0  0
  189.0330  176.9250  136.3960 C   0  0  2  0  0  3  0  0  0  0  0  0
  189.4180  178.5770  140.2380 C   0  0  0  0  0  3  0  0  0  0  0  0
  188.3310  178.2470  136.7050 C   0  0  0  0  0  2  0  0  0  0  0  0
  189.0520  178.9620  137.8510 C   0  0  0  0  0  2  0  0  0  0  0  0
  188.3640  176.2590  135.3680 O   0  0  0  0  0  0  0  0  0  0  0  0
  187.2180  175.7260  135.9620 C   0  0  0  0  0  2  0  0  0  0  0  0
  186.7870  174.4830  135.2120 C   0  0  0  0  0  2  0  0  0  0  0  0
  183.7120  173.2450  134.6190 O   0  0  0  0  0  0  0  0  0  0  0  0
  183.8620  171.8560  134.7740 C   0  0  0  0  0  2  0  0  0  0  0  0
  186.6260  173.3160  136.1910 C   0  0  2  0  0  3  0  0  0  0  0  0
  184.1020  173.7960  135.8490 C   0  0  0  0  0  2  0  0  0  0  0  0
  187.2070  172.0240  135.6420 C   0  0  2  0  0  3  0  0  0  0  0  0
  185.0170  171.6010  135.7170 C   0  0  2  0  0  3  0  0  0  0  0  0
  185.1800  172.9060  136.4470 C   0  0  1  0  0  0  0  0  0  0  0  0
  188.2870  172.2430  134.7840 O   0  0  0  0  0  1  0  0  0  0  0  0
  186.1830  171.3400  134.9720 O   0  0  0  0  0  0  0  0  0  0  0  0
  184.9430  172.7160  137.9350 C   0  0  0  0  0  1  0  0  0  0  0  0
  1  3  2  0  0  0  0
  2 11  2  0  0  0  0
  2  5  1  0  0  0  0
  3  2  1  0  0  0  0
  4 10  2  0  0  0  0
  5  9  2  0  0  0  0
  6 15  1  6  0  0  0
  6  3  1  0  0  0  0
  6  4  1  0  0  0  0
  8  7  1  0  0  0  0
  8  1  2  0  0  0  0
  9 12  1  0  0  0  0
 10  9  1  0  0  0  0
 13 15  2  0  0  0  0
 14 15  1  0  0  0  0
 16 17  1  0  0  0  0
 16 13  2  0  0  0  0
 18 22  1  6  0  0  0
 18 19  1  0  0  0  0
 18 17  1  0  0  0  0
 19 20  1  0  0  0  0
 20 21  1  0  0  0  0
 23 22  1  0  0  0  0
 24 23  1  0  0  0  0
 25 26  1  0  0  0  0
 25 24  1  0  0  0  0
 26 27  1  0  0  0  0
 27 28  1  1  0  0  0
 29 27  1  0  0  0  0
 30 31  1  0  0  0  0
 30 29  1  0  0  0  0
 32  8  1  0  0  0  0
 33 32  2  0  0  0  0
 34 32  1  0  0  0  0
 35 36  1  0  0  0  0
 36 39  2  0  0  0  0
 37 35  2  0  0  0  0
 38 42  1  6  0  0  0
 38 40  1  0  0  0  0
 38 37  1  0  0  0  0
 39 34  1  0  0  0  0
 40 41  1  0  0  0  0
 41 36  1  0  0  0  0
 42 43  1  0  0  0  0
 44 43  1  0  0  0  0
 45 46  1  0  0  0  0
 45 48  1  0  0  0  0
 47 44  1  6  0  0  0
 47 51  1  0  0  0  0
 48 51  1  0  0  0  0
 49 52  1  6  0  0  0
 49 47  1  0  0  0  0
 50 46  1  6  0  0  0
 50 51  1  0  0  0  0
 51 54  1  1  0  0  0
 53 49  1  0  0  0  0
 53 50  1  0  0  0  0
M  END
>  <MODEL>
6

>  <REMARK>
 VINA RESULT:      -6.0      3.187      8.850
  Name = 
  19 active torsions:
  status: ('A' for Active; 'I' for Inactive)
    1  A    between atoms: C_1  and  C_42
    2  A    between atoms: C_1  and  C_44
    3  A    between atoms: C_5  and  N_7
    4  A    between atoms: C_5  and  C_32
    5  A    between atoms: N_7  and  C_54
    6  A    between atoms: C_8  and  C_25
    7  A    between atoms: C_9  and  C_39
    8  A    between atoms: C_10  and  C_19
    9  A    between atoms: C_13  and  C_43
   10  A    between atoms: C_18  and  C_39
   11  A    between atoms: C_18  and  C_51
   12  A    between atoms: C_25  and  C_42
   13  A    between atoms: O_28  and  C_33
   14  A    between atoms: O_28  and  C_45
   15  A    between atoms: C_30  and  C_37
   16  A    between atoms: C_32  and  C_51
   17  A    between atoms: C_34  and  N_40
   18  A    between atoms: C_37  and  C_45
   19  A    between atoms: C_42  and  C_54
                            x       y       z     vdW  Elec       q    Type
                         _______ _______ _______ _____ _____    ______ ____

>  <TORSDO>
F 19

$$$$
=
 OpenBabel10222420023D

 54 57  0  0  1  0  0  0  0  0999 V2000
  188.1290  177.8610  145.7090 C   0  0  0  0  0  0  0  0  0  0  0  0
  189.6540  176.9200  147.3130 C   0  0  0  0  0  0  0  0  0  0  0  0
  189.3280  177.3780  145.9440 C   0  0  0  0  0  0  0  0  0  0  0  0
  191.0960  176.1820  144.7190 C   0  0  0  0  0  3  0  0  0  0  0  0
  190.9820  176.5480  147.7100 N   0  0  0  0  0  0  0  0  0  0  0  0
  190.4370  177.5070  144.9310 C   0  0  1  0  0  3  0  0  0  0  0  0
  186.4910  179.3580  146.3080 F   0  0  0  0  0  0  0  0  0  0  0  0
  186.9370  178.3630  145.4990 C   0  0  0  0  0  0  0  0  0  0  0  0
  191.9350  176.0060  147.0060 C   0  0  0  0  0  0  0  0  0  0  0  0
  191.7560  175.5680  145.6500 N   0  0  0  0  0  0  0  0  0  0  0  0
  188.7540  176.9270  148.1960 O   0  0  0  0  0  0  0  0  0  0  0  0
  193.1490  175.6700  147.6640 N   0  0  0  0  0  1  0  0  0  0  0  0
  190.0810  177.4830  142.4920 C   0  0  0  0  0  0  0  0  0  0  0  0
  189.4740  179.5250  143.6270 C   0  0  0  0  0  1  0  0  0  0  0  0
  190.0480  178.1500  143.6180 C   0  0  0  0  0  0  0  0  0  0  0  0
  190.1370  176.8020  141.3820 C   0  0  0  0  0  3  0  0  0  0  0  0
  191.3290  176.9210  140.4990 C   0  0  0  0  0  2  0  0  0  0  0  0
  190.8950  177.1500  139.0550 C   0  0  2  0  0  3  0  0  0  0  0  0
  189.3880  177.3680  138.9760 C   0  0  0  0  0  2  0  0  0  0  0  0
  189.0830  178.7260  138.3730 C   0  0  0  0  0  2  0  0  0  0  0  0
  189.0430  178.6120  136.8660 C   0  0  0  0  0  1  0  0  0  0  0  0
  191.3280  175.9910  138.1620 C   0  0  0  0  0  2  0  0  0  0  0  0
  192.5210  176.3280  137.4000 N   0  0  0  0  0  2  0  0  0  0  0  0
  193.6060  175.5450  137.9650 C   0  0  0  0  0  2  0  0  0  0  0  0
  193.5730  174.1340  137.3990 C   0  0  0  0  0  2  0  0  0  0  0  0
  194.5790  173.9750  136.2610 C   0  0  0  0  0  2  0  0  0  0  0  0
  195.6650  172.9320  136.5510 C   0  0  2  0  0  3  0  0  0  0  0  0
  195.0980  171.7000  137.2380 C   0  0  0  0  0  1  0  0  0  0  0  0
  196.8170  173.5080  137.3650 C   0  0  0  0  0  2  0  0  0  0  0  0
  197.2200  174.8810  136.8460 C   0  0  0  0  0  2  0  0  0  0  0  0
  198.0560  175.5110  137.7710 O   0  0  0  0  0  1  0  0  0  0  0  0
  186.0800  177.8810  144.4060 C   0  0  0  0  0  0  0  0  0  0  0  0
  186.3660  176.8220  143.7810 O   0  0  0  0  0  0  0  0  0  0  0  0
  184.9100  178.6240  144.0660 N   0  0  0  0  0  2  0  0  0  0  0  0
  185.7670  178.8420  141.3680 C   0  0  0  0  0  3  0  0  0  0  0  0
  184.4260  178.3290  141.7250 C   0  0  0  0  0  0  0  0  0  0  0  0
  186.1200  179.0040  140.0930 C   0  0  0  0  0  3  0  0  0  0  0  0
  185.1470  178.7390  138.9750 C   0  0  2  0  0  3  0  0  0  0  0  0
  184.0400  178.2450  142.9970 C   0  0  0  0  0  3  0  0  0  0  0  0
  184.2000  177.5980  139.3450 C   0  0  0  0  0  2  0  0  0  0  0  0
  183.4590  177.9390  140.6410 C   0  0  0  0  0  2  0  0  0  0  0  0
  185.8420  178.4210  137.8070 O   0  0  0  0  0  0  0  0  0  0  0  0
  185.0200  177.5220  137.1260 C   0  0  0  0  0  2  0  0  0  0  0  0
  185.7400  176.2000  136.9610 C   0  0  0  0  0  2  0  0  0  0  0  0
  187.6290  173.4110  136.9710 O   0  0  0  0  0  0  0  0  0  0  0  0
  187.4250  172.8500  135.6980 C   0  0  0  0  0  2  0  0  0  0  0  0
  186.3110  176.0930  135.5430 C   0  0  2  0  0  3  0  0  0  0  0  0
  188.1420  174.6950  136.7290 C   0  0  0  0  0  2  0  0  0  0  0  0
  185.3540  175.3920  134.5940 C   0  0  2  0  0  3  0  0  0  0  0  0
  187.0600  173.9610  134.7380 C   0  0  2  0  0  3  0  0  0  0  0  0
  187.5450  175.2070  135.4270 C   0  0  1  0  0  0  0  0  0  0  0  0
  184.0150  175.5920  134.9360 O   0  0  0  0  0  1  0  0  0  0  0  0
  185.6600  174.0240  134.6030 O   0  0  0  0  0  0  0  0  0  0  0  0
  188.6110  175.8960  134.5940 C   0  0  0  0  0  1  0  0  0  0  0  0
  1  3  2  0  0  0  0
  2  5  1  0  0  0  0
  2 11  2  0  0  0  0
  3  2  1  0  0  0  0
  4  6  1  0  0  0  0
  4 10  2  0  0  0  0
  6 15  1  6  0  0  0
  6  3  1  0  0  0  0
  8  1  2  0  0  0  0
  8  7  1  0  0  0  0
  9 12  1  0  0  0  0
  9  5  2  0  0  0  0
 10  9  1  0  0  0  0
 13 15  2  0  0  0  0
 15 14  1  0  0  0  0
 16 13  2  0  0  0  0
 17 16  1  0  0  0  0
 18 22  1  6  0  0  0
 18 17  1  0  0  0  0
 19 18  1  0  0  0  0
 20 19  1  0  0  0  0
 21 20  1  0  0  0  0
 23 24  1  0  0  0  0
 23 22  1  0  0  0  0
 25 24  1  0  0  0  0
 26 27  1  0  0  0  0
 26 25  1  0  0  0  0
 27 28  1  1  0  0  0
 27 29  1  0  0  0  0
 30 29  1  0  0  0  0
 30 31  1  0  0  0  0
 32  8  1  0  0  0  0
 33 32  2  0  0  0  0
 34 32  1  0  0  0  0
 35 36  1  0  0  0  0
 36 39  2  0  0  0  0
 37 35  2  0  0  0  0
 38 42  1  6  0  0  0
 38 40  1  0  0  0  0
 38 37  1  0  0  0  0
 39 34  1  0  0  0  0
 40 41  1  0  0  0  0
 41 36  1  0  0  0  0
 43 42  1  0  0  0  0
 44 43  1  0  0  0  0
 46 45  1  0  0  0  0
 47 44  1  1  0  0  0
 48 45  1  0  0  0  0
 49 53  1  0  0  0  0
 49 52  1  1  0  0  0
 49 47  1  0  0  0  0
 50 51  1  0  0  0  0
 50 46  1  1  0  0  0
 51 54  1  6  0  0  0
 51 47  1  0  0  0  0
 51 48  1  0  0  0  0
 53 50  1  0  0  0  0
M  END
>  <MODEL>
7

>  <REMARK>
 VINA RESULT:      -5.9      4.471      9.909
  Name = 
  19 active torsions:
  status: ('A' for Active; 'I' for Inactive)
    1  A    between atoms: C_1  and  C_42
    2  A    between atoms: C_1  and  C_44
    3  A    between atoms: C_5  and  N_7
    4  A    between atoms: C_5  and  C_32
    5  A    between atoms: N_7  and  C_54
    6  A    between atoms: C_8  and  C_25
    7  A    between atoms: C_9  and  C_39
    8  A    between atoms: C_10  and  C_19
    9  A    between atoms: C_13  and  C_43
   10  A    between atoms: C_18  and  C_39
   11  A    between atoms: C_18  and  C_51
   12  A    between atoms: C_25  and  C_42
   13  A    between atoms: O_28  and  C_33
   14  A    between atoms: O_28  and  C_45
   15  A    between atoms: C_30  and  C_37
   16  A    between atoms: C_32  and  C_51
   17  A    between atoms: C_34  and  N_40
   18  A    between atoms: C_37  and  C_45
   19  A    between atoms: C_42  and  C_54
                            x       y       z     vdW  Elec       q    Type
                         _______ _______ _______ _____ _____    ______ ____

>  <TORSDO>
F 19

$$$$
=
 OpenBabel10222420023D

 54 57  0  0  1  0  0  0  0  0999 V2000
  190.1380  173.8860  136.6380 C   0  0  0  0  0  0  0  0  0  0  0  0
  192.4930  173.4080  136.5300 C   0  0  0  0  0  0  0  0  0  0  0  0
  191.3630  174.3600  136.6060 C   0  0  0  0  0  0  0  0  0  0  0  0
  192.5270  176.3840  135.8260 C   0  0  0  0  0  3  0  0  0  0  0  0
  193.8610  173.8150  136.6730 N   0  0  0  0  0  0  0  0  0  0  0  0
  191.6480  175.8130  136.8920 C   0  0  1  0  0  3  0  0  0  0  0  0
  188.6400  172.4510  137.6270 F   0  0  0  0  0  0  0  0  0  0  0  0
  188.9250  173.3940  136.6930 C   0  0  0  0  0  0  0  0  0  0  0  0
  194.4290  174.9400  136.3400 C   0  0  0  0  0  0  0  0  0  0  0  0
  193.7440  175.9830  135.6290 N   0  0  0  0  0  0  0  0  0  0  0  0
  192.2530  172.1760  136.4140 O   0  0  0  0  0  0  0  0  0  0  0  0
  195.8320  175.0670  136.5270 N   0  0  0  0  0  1  0  0  0  0  0  0
  190.2080  177.2430  138.2910 C   0  0  0  0  0  0  0  0  0  0  0  0
  189.5510  177.0240  135.9790 C   0  0  0  0  0  1  0  0  0  0  0  0
  190.4320  176.6810  137.1300 C   0  0  0  0  0  0  0  0  0  0  0  0
  189.9970  177.7780  139.4610 C   0  0  0  0  0  3  0  0  0  0  0  0
  189.0780  177.1140  140.4250 C   0  0  0  0  0  2  0  0  0  0  0  0
  189.5930  177.2870  141.8500 C   0  0  2  0  0  3  0  0  0  0  0  0
  191.1000  177.5230  141.8500 C   0  0  0  0  0  2  0  0  0  0  0  0
  191.6470  177.4340  143.2620 C   0  0  0  0  0  2  0  0  0  0  0  0
  191.5290  178.7830  143.9360 C   0  0  0  0  0  1  0  0  0  0  0  0
  189.2280  176.0830  142.7150 C   0  0  0  0  0  2  0  0  0  0  0  0
  187.9890  176.3130  143.4420 N   0  0  0  0  0  2  0  0  0  0  0  0
  188.2000  177.5010  144.2520 C   0  0  0  0  0  2  0  0  0  0  0  0
  186.8800  178.2310  144.4510 C   0  0  0  0  0  2  0  0  0  0  0  0
  185.7260  177.4640  143.8090 C   0  0  0  0  0  2  0  0  0  0  0  0
  185.0180  178.2510  142.7000 C   0  0  2  0  0  3  0  0  0  0  0  0
  185.9120  179.3320  142.1120 C   0  0  0  0  0  1  0  0  0  0  0  0
  183.7000  178.8520  143.1690 C   0  0  0  0  0  2  0  0  0  0  0  0
  183.9130  179.7800  144.3570 C   0  0  0  0  0  2  0  0  0  0  0  0
  183.5190  179.1410  145.5350 O   0  0  0  0  0  1  0  0  0  0  0  0
  187.8690  173.8460  135.7770 C   0  0  0  0  0  0  0  0  0  0  0  0
  188.1520  174.5200  134.7470 O   0  0  0  0  0  0  0  0  0  0  0  0
  186.5130  173.5030  136.0610 N   0  0  0  0  0  2  0  0  0  0  0  0
  184.0440  174.2660  137.2370 C   0  0  0  0  0  3  0  0  0  0  0  0
  184.2590  174.3020  135.7740 C   0  0  0  0  0  0  0  0  0  0  0  0
  182.8530  174.5590  137.7610 C   0  0  0  0  0  3  0  0  0  0  0  0
  181.6700  174.8670  136.8820 C   0  0  2  0  0  3  0  0  0  0  0  0
  185.4210  173.9290  135.2430 C   0  0  0  0  0  3  0  0  0  0  0  0
  182.1170  175.5820  135.6080 C   0  0  0  0  0  2  0  0  0  0  0  0
  183.1380  174.7180  134.8600 C   0  0  0  0  0  2  0  0  0  0  0  0
  180.7580  175.6620  137.5780 O   0  0  0  0  0  0  0  0  0  0  0  0
  181.4720  176.1740  138.6630 C   0  0  0  0  0  2  0  0  0  0  0  0
  181.0340  177.5990  138.9330 C   0  0  0  0  0  2  0  0  0  0  0  0
  179.4890  180.5640  139.3380 O   0  0  0  0  0  0  0  0  0  0  0  0
  180.5150  181.5130  139.1840 C   0  0  0  0  0  2  0  0  0  0  0  0
  181.7120  178.5470  137.9390 C   0  0  2  0  0  3  0  0  0  0  0  0
  179.4750  179.8390  138.1360 C   0  0  0  0  0  2  0  0  0  0  0  0
  182.9720  179.1720  138.5140 C   0  0  2  0  0  3  0  0  0  0  0  0
  181.5940  180.9140  138.3080 C   0  0  2  0  0  3  0  0  0  0  0  0
  180.8960  179.7880  137.5970 C   0  0  1  0  0  0  0  0  0  0  0  0
  183.6130  178.3390  139.4340 O   0  0  0  0  0  1  0  0  0  0  0  0
  182.6160  180.3850  139.1190 O   0  0  0  0  0  0  0  0  0  0  0  0
  180.8990  180.0220  136.0970 C   0  0  0  0  0  1  0  0  0  0  0  0
  1  8  2  0  0  0  0
  2  3  1  0  0  0  0
  2  5  1  0  0  0  0
  3  1  2  0  0  0  0
  3  6  1  0  0  0  0
  4  6  1  0  0  0  0
  6 15  1  6  0  0  0
  8  7  1  0  0  0  0
  9 12  1  0  0  0  0
  9  5  2  0  0  0  0
 10  4  2  0  0  0  0
 10  9  1  0  0  0  0
 11  2  2  0  0  0  0
 13 16  2  0  0  0  0
 14 15  1  0  0  0  0
 15 13  2  0  0  0  0
 16 17  1  0  0  0  0
 18 17  1  6  0  0  0
 18 22  1  0  0  0  0
 19 18  1  0  0  0  0
 19 20  1  0  0  0  0
 20 21  1  0  0  0  0
 22 23  1  0  0  0  0
 23 24  1  0  0  0  0
 24 25  1  0  0  0  0
 26 25  1  0  0  0  0
 27 28  1  1  0  0  0
 27 29  1  0  0  0  0
 27 26  1  0  0  0  0
 29 30  1  0  0  0  0
 30 31  1  0  0  0  0
 32 34  1  0  0  0  0
 32  8  1  0  0  0  0
 33 32  2  0  0  0  0
 35 37  2  0  0  0  0
 36 35  1  0  0  0  0
 38 42  1  1  0  0  0
 38 37  1  0  0  0  0
 39 36  2  0  0  0  0
 39 34  1  0  0  0  0
 40 38  1  0  0  0  0
 41 40  1  0  0  0  0
 41 36  1  0  0  0  0
 42 43  1  0  0  0  0
 43 44  1  0  0  0  0
 46 45  1  0  0  0  0
 47 49  1  0  0  0  0
 47 44  1  1  0  0  0
 48 45  1  0  0  0  0
 49 53  1  0  0  0  0
 49 52  1  1  0  0  0
 50 53  1  0  0  0  0
 50 46  1  1  0  0  0
 51 54  1  6  0  0  0
 51 47  1  0  0  0  0
 51 48  1  0  0  0  0
 51 50  1  0  0  0  0
M  END
>  <MODEL>
8

>  <REMARK>
 VINA RESULT:      -5.8      3.314      9.833
  Name = 
  19 active torsions:
  status: ('A' for Active; 'I' for Inactive)
    1  A    between atoms: C_1  and  C_42
    2  A    between atoms: C_1  and  C_44
    3  A    between atoms: C_5  and  N_7
    4  A    between atoms: C_5  and  C_32
    5  A    between atoms: N_7  and  C_54
    6  A    between atoms: C_8  and  C_25
    7  A    between atoms: C_9  and  C_39
    8  A    between atoms: C_10  and  C_19
    9  A    between atoms: C_13  and  C_43
   10  A    between atoms: C_18  and  C_39
   11  A    between atoms: C_18  and  C_51
   12  A    between atoms: C_25  and  C_42
   13  A    between atoms: O_28  and  C_33
   14  A    between atoms: O_28  and  C_45
   15  A    between atoms: C_30  and  C_37
   16  A    between atoms: C_32  and  C_51
   17  A    between atoms: C_34  and  N_40
   18  A    between atoms: C_37  and  C_45
   19  A    between atoms: C_42  and  C_54
                            x       y       z     vdW  Elec       q    Type
                         _______ _______ _______ _____ _____    ______ ____

>  <TORSDO>
F 19

$$$$
=
 OpenBabel10222420023D

 54 57  0  0  1  0  0  0  0  0999 V2000
  186.4760  176.8650  136.8320 C   0  0  0  0  0  0  0  0  0  0  0  0
  188.3010  175.4150  136.2390 C   0  0  0  0  0  0  0  0  0  0  0  0
  186.8540  175.7040  136.3470 C   0  0  0  0  0  0  0  0  0  0  0  0
  186.0030  173.3970  136.2370 C   0  0  0  0  0  3  0  0  0  0  0  0
  188.8120  174.2590  135.5600 N   0  0  0  0  0  0  0  0  0  0  0  0
  185.8700  174.7770  135.6770 C   0  0  1  0  0  3  0  0  0  0  0  0
  186.6490  179.1540  136.7380 F   0  0  0  0  0  0  0  0  0  0  0  0
  186.1180  178.0360  137.2960 C   0  0  0  0  0  0  0  0  0  0  0  0
  188.2860  173.0730  135.4330 C   0  0  0  0  0  0  0  0  0  0  0  0
  187.0730  172.6790  136.0930 N   0  0  0  0  0  0  0  0  0  0  0  0
  189.1300  176.2500  136.6900 O   0  0  0  0  0  0  0  0  0  0  0  0
  189.0390  172.0720  134.7610 N   0  0  0  0  0  1  0  0  0  0  0  0
  183.5490  174.7310  136.5060 C   0  0  0  0  0  0  0  0  0  0  0  0
  184.0420  176.4060  134.8390 C   0  0  0  0  0  1  0  0  0  0  0  0
  184.4310  175.2410  135.6830 C   0  0  0  0  0  0  0  0  0  0  0  0
  182.6860  174.1970  137.3230 C   0  0  0  0  0  3  0  0  0  0  0  0
  181.7950  173.1030  136.8490 C   0  0  0  0  0  2  0  0  0  0  0  0
  180.4660  173.1430  137.5980 C   0  0  2  0  0  3  0  0  0  0  0  0
  179.6060  171.9400  137.2280 C   0  0  0  0  0  2  0  0  0  0  0  0
  180.0150  171.3980  135.8710 C   0  0  0  0  0  2  0  0  0  0  0  0
  179.5980  169.9490  135.7600 C   0  0  0  0  0  1  0  0  0  0  0  0
  179.7250  174.4500  137.3300 C   0  0  0  0  0  2  0  0  0  0  0  0
  178.9460  174.8620  138.4880 N   0  0  0  0  0  2  0  0  0  0  0  0
  179.9010  175.2830  139.4990 C   0  0  0  0  0  2  0  0  0  0  0  0
  179.5160  176.6540  140.0330 C   0  0  0  0  0  2  0  0  0  0  0  0
  180.1830  177.7650  139.2240 C   0  0  0  0  0  2  0  0  0  0  0  0
  180.1560  179.1280  139.9270 C   0  0  2  0  0  3  0  0  0  0  0  0
  180.5860  180.2530  138.9990 C   0  0  0  0  0  1  0  0  0  0  0  0
  180.9960  179.1400  141.1970 C   0  0  0  0  0  2  0  0  0  0  0  0
  180.2200  179.7410  142.3600 C   0  0  0  0  0  2  0  0  0  0  0  0
  179.4830  178.7460  143.0060 O   0  0  0  0  0  1  0  0  0  0  0  0
  185.1510  178.1670  138.3950 C   0  0  0  0  0  0  0  0  0  0  0  0
  184.0440  177.5610  138.3570 O   0  0  0  0  0  0  0  0  0  0  0  0
  185.4860  178.9830  139.5180 N   0  0  0  0  0  2  0  0  0  0  0  0
  186.1790  178.1080  142.1280 C   0  0  0  0  0  3  0  0  0  0  0  0
  184.9020  178.8000  141.8470 C   0  0  0  0  0  0  0  0  0  0  0  0
  186.4500  177.6410  143.3470 C   0  0  0  0  0  3  0  0  0  0  0  0
  185.4420  177.7390  144.4610 C   0  0  2  0  0  3  0  0  0  0  0  0
  184.5920  179.1920  140.6130 C   0  0  0  0  0  3  0  0  0  0  0  0
  184.6060  179.0100  144.3210 C   0  0  0  0  0  2  0  0  0  0  0  0
  183.9110  179.0250  142.9560 C   0  0  0  0  0  2  0  0  0  0  0  0
  186.0960  177.7330  145.6940 O   0  0  0  0  0  0  0  0  0  0  0  0
  187.3710  178.2400  145.4340 C   0  0  0  0  0  2  0  0  0  0  0  0
  188.3640  177.0990  145.3480 C   0  0  0  0  0  2  0  0  0  0  0  0
  191.1650  176.3490  147.0610 O   0  0  0  0  0  0  0  0  0  0  0  0
  192.0520  175.8700  146.0810 C   0  0  0  0  0  2  0  0  0  0  0  0
  189.5200  177.4870  144.4210 C   0  0  2  0  0  3  0  0  0  0  0  0
  190.8310  177.6490  146.6510 C   0  0  0  0  0  2  0  0  0  0  0  0
  189.8680  176.3740  143.4460 C   0  0  2  0  0  3  0  0  0  0  0  0
  191.6740  176.4840  144.7510 C   0  0  2  0  0  3  0  0  0  0  0  0
  190.8540  177.6870  145.1300 C   0  0  1  0  0  0  0  0  0  0  0  0
  188.7630  175.5900  143.1100 O   0  0  0  0  0  1  0  0  0  0  0  0
  190.8670  175.5830  144.0310 O   0  0  0  0  0  0  0  0  0  0  0  0
  191.5220  178.9610  144.6440 C   0  0  0  0  0  1  0  0  0  0  0  0
  1  8  2  0  0  0  0
  2  3  1  0  0  0  0
  2 11  2  0  0  0  0
  3  1  2  0  0  0  0
  5  2  1  0  0  0  0
  6 15  1  1  0  0  0
  6  4  1  0  0  0  0
  6  3  1  0  0  0  0
  7  8  1  0  0  0  0
  8 32  1  0  0  0  0
  9  5  2  0  0  0  0
  9 10  1  0  0  0  0
 10  4  2  0  0  0  0
 12  9  1  0  0  0  0
 13 16  2  0  0  0  0
 14 15  1  0  0  0  0
 15 13  2  0  0  0  0
 17 16  1  0  0  0  0
 18 17  1  6  0  0  0
 19 18  1  0  0  0  0
 20 19  1  0  0  0  0
 21 20  1  0  0  0  0
 22 18  1  0  0  0  0
 22 23  1  0  0  0  0
 23 24  1  0  0  0  0
 24 25  1  0  0  0  0
 26 27  1  0  0  0  0
 26 25  1  0  0  0  0
 27 28  1  6  0  0  0
 27 29  1  0  0  0  0
 29 30  1  0  0  0  0
 30 31  1  0  0  0  0
 32 34  1  0  0  0  0
 33 32  2  0  0  0  0
 34 39  1  0  0  0  0
 35 37  2  0  0  0  0
 36 35  1  0  0  0  0
 36 41  1  0  0  0  0
 37 38  1  0  0  0  0
 38 42  1  1  0  0  0
 39 36  2  0  0  0  0
 40 38  1  0  0  0  0
 41 40  1  0  0  0  0
 43 42  1  0  0  0  0
 44 43  1  0  0  0  0
 46 45  1  0  0  0  0
 47 51  1  0  0  0  0
 47 44  1  1  0  0  0
 48 45  1  0  0  0  0
 49 52  1  1  0  0  0
 49 53  1  0  0  0  0
 49 47  1  0  0  0  0
 50 51  1  0  0  0  0
 50 46  1  1  0  0  0
 51 54  1  6  0  0  0
 51 48  1  0  0  0  0
 53 50  1  0  0  0  0
M  END
>  <MODEL>
9

>  <REMARK>
 VINA RESULT:      -5.8      1.796      4.347
  Name = 
  19 active torsions:
  status: ('A' for Active; 'I' for Inactive)
    1  A    between atoms: C_1  and  C_42
    2  A    between atoms: C_1  and  C_44
    3  A    between atoms: C_5  and  N_7
    4  A    between atoms: C_5  and  C_32
    5  A    between atoms: N_7  and  C_54
    6  A    between atoms: C_8  and  C_25
    7  A    between atoms: C_9  and  C_39
    8  A    between atoms: C_10  and  C_19
    9  A    between atoms: C_13  and  C_43
   10  A    between atoms: C_18  and  C_39
   11  A    between atoms: C_18  and  C_51
   12  A    between atoms: C_25  and  C_42
   13  A    between atoms: O_28  and  C_33
   14  A    between atoms: O_28  and  C_45
   15  A    between atoms: C_30  and  C_37
   16  A    between atoms: C_32  and  C_51
   17  A    between atoms: C_34  and  N_40
   18  A    between atoms: C_37  and  C_45
   19  A    between atoms: C_42  and  C_54
                            x       y       z     vdW  Elec       q    Type
                         _______ _______ _______ _____ _____    ______ ____

>  <TORSDO>
F 19

$$$$
