=
 OpenBabel10222420533D

 48 52  0  0  1  0  0  0  0  0999 V2000
  188.2300  176.7810  142.7620 C   0  0  2  0  0  3  0  0  0  0  0  0
  191.0300  176.3030  142.1920 C   0  0  0  0  0  3  0  0  0  0  0  0
  185.8830  177.8360  142.9440 N   0  0  0  0  0  2  0  0  0  0  0  0
  190.5990  177.1190  146.4410 O   0  0  0  0  0  0  0  0  0  0  0  0
  188.7460  177.3090  145.0220 N   0  0  0  0  0  0  0  0  0  0  0  0
  189.4100  177.5020  146.2790 C   0  0  0  0  0  0  0  0  0  0  0  0
  187.4510  177.7530  144.7520 N   0  0  0  0  0  0  0  0  0  0  0  0
  189.2830  176.7810  143.8180 C   0  0  0  0  0  0  0  0  0  0  0  0
  188.8460  177.7380  141.3400 S   0  0  0  0  0  0  0  0  0  0  0  0
  190.5780  176.5630  143.5730 C   0  0  0  0  0  3  0  0  0  0  0  0
  190.3040  176.6710  141.1270 C   0  0  0  0  0  0  0  0  0  0  0  0
  187.1500  177.5030  143.5150 C   0  0  0  0  0  0  0  0  0  0  0  0
  188.8470  176.7860  138.5300 N   0  0  0  0  0  2  0  0  0  0  0  0
  191.3330  176.1330  135.1780 N   0  0  0  0  0  0  0  0  0  0  0  0
  192.3900  175.8430  135.8760 C   0  0  0  0  0  0  0  0  0  0  0  0
  190.2950  176.3980  136.0770 N   0  0  0  0  0  2  0  0  0  0  0  0
  190.7730  176.2890  139.8270 N   0  0  0  0  0  2  0  0  0  0  0  0
  192.1660  175.9010  137.2840 N   0  0  0  0  0  2  0  0  0  0  0  0
  190.8170  176.2480  137.3610 N   0  0  0  0  0  0  0  0  0  0  0  0
  190.1060  176.4910  138.5740 C   0  0  0  0  0  0  0  0  0  0  0  0
  195.9230  172.6590  135.8170 C   0  0  0  0  0  1  0  0  0  0  0  0
  194.0130  174.0480  135.0780 C   0  0  1  0  0  3  0  0  0  0  0  0
  193.7290  175.5340  135.2720 C   0  0  2  0  0  3  0  0  0  0  0  0
  194.7930  176.0770  136.1110 N   0  0  0  0  0  2  0  0  0  0  0  0
  195.5320  174.9480  136.6790 C   0  0  0  0  0  2  0  0  0  0  0  0
  194.8690  173.6550  136.2490 C   0  0  2  0  0  3  0  0  0  0  0  0
  192.4510  172.4510  136.0140 O   0  0  0  0  0  1  0  0  0  0  0  0
  192.8110  173.1280  134.8450 C   0  0  0  0  0  2  0  0  0  0  0  0
  185.1210  180.0690  143.5710 C   0  0  0  0  0  1  0  0  0  0  0  0
  184.8570  178.5770  143.6700 C   0  0  1  0  0  3  0  0  0  0  0  0
  182.4780  178.8110  143.9360 O   0  0  0  0  0  1  0  0  0  0  0  0
  183.4710  178.2590  143.1220 C   0  0  1  0  0  3  0  0  0  0  0  0
  183.3390  178.7800  141.6960 C   0  0  0  0  0  2  0  0  0  0  0  0
  183.2830  177.6450  140.6840 C   0  0  0  0  0  2  0  0  0  0  0  0
  183.4310  178.1590  139.2510 C   0  0  2  0  0  3  0  0  0  0  0  0
  183.3570  175.0410  136.6580 O   0  0  0  0  0  0  0  0  0  0  0  0
  182.7180  175.9080  138.8290 C   0  0  0  0  0  2  0  0  0  0  0  0
  182.8760  176.2090  136.0400 C   0  0  0  0  0  2  0  0  0  0  0  0
  183.4990  177.0340  138.2990 N   0  0  0  0  0  0  0  0  0  0  0  0
  183.0380  177.4300  136.9570 C   0  0  0  0  0  2  0  0  0  0  0  0
  182.5300  174.8100  137.7730 C   0  0  0  0  0  2  0  0  0  0  0  0
  184.5640  179.1630  139.1340 C   0  0  0  0  0  0  0  0  0  0  0  0
  184.3240  180.3920  139.0040 O   0  0  0  0  0  0  0  0  0  0  0  0
  185.9170  178.7360  139.2720 N   0  0  0  0  0  1  0  0  0  0  0  0
  188.6820  178.1250  147.4250 C   0  0  0  0  0  2  0  0  0  0  0  0
  187.2550  177.6040  147.5020 C   0  0  0  0  0  2  0  0  0  0  0  0
  184.9090  178.2790  146.9930 C   0  0  0  0  0  1  0  0  0  0  0  0
  186.2490  178.7450  147.5290 C   0  0  0  0  0  2  0  0  0  0  0  0
  1  9  1  6  0  0  0
  1 12  1  0  0  0  0
  1  8  1  0  0  0  0
  2 10  1  0  0  0  0
  3 12  1  0  0  0  0
  3 30  1  0  0  0  0
  5  6  1  0  0  0  0
  6  4  2  0  0  0  0
  6 45  1  0  0  0  0
  7  5  1  0  0  0  0
  8  5  1  0  0  0  0
 10  8  2  0  0  0  0
 11  9  1  0  0  0  0
 11  2  2  0  0  0  0
 12  7  2  0  0  0  0
 13 20  2  0  0  0  0
 14 15  2  0  0  0  0
 14 16  1  0  0  0  0
 15 18  1  0  0  0  0
 16 19  1  0  0  0  0
 17 11  1  0  0  0  0
 18 19  1  0  0  0  0
 19 20  1  0  0  0  0
 20 17  1  0  0  0  0
 22 28  1  1  0  0  0
 22 23  1  0  0  0  0
 22 26  1  0  0  0  0
 23 15  1  1  0  0  0
 23 24  1  0  0  0  0
 24 25  1  0  0  0  0
 26 21  1  6  0  0  0
 26 25  1  0  0  0  0
 28 27  1  0  0  0  0
 30 29  1  6  0  0  0
 32 30  1  0  0  0  0
 32 31  1  1  0  0  0
 33 32  1  0  0  0  0
 34 33  1  0  0  0  0
 35 34  1  1  0  0  0
 36 41  1  0  0  0  0
 38 36  1  0  0  0  0
 38 40  1  0  0  0  0
 39 37  1  0  0  0  0
 39 35  1  0  0  0  0
 40 39  1  0  0  0  0
 41 37  1  0  0  0  0
 42 35  1  0  0  0  0
 42 44  1  0  0  0  0
 43 42  2  0  0  0  0
 45 46  1  0  0  0  0
 46 48  1  0  0  0  0
 47 48  1  0  0  0  0
M  END
>  <MODEL>
1

>  <REMARK>
 VINA RESULT:      -8.2      0.000      0.000
  Name = 
  13 active torsions:
  status: ('A' for Active; 'I' for Inactive)
    1  A    between atoms: C_5  and  C_14
    2  A    between atoms: C_7  and  C_10
    3  A    between atoms: C_9  and  C_26
    4  A    between atoms: C_9  and  C_39
    5  A    between atoms: N_13  and  C_40
    6  A    between atoms: C_17  and  C_32
    7  A    between atoms: N_19  and  C_30
    8  A    between atoms: C_26  and  C_27
    9  A    between atoms: C_30  and  C_36
   10  A    between atoms: C_32  and  C_34
   11  A    between atoms: C_32  and  N_42
   12  A    between atoms: C_34  and  C_43
   13  A    between atoms: C_36  and  C_43
                            x       y       z     vdW  Elec       q    Type
                         _______ _______ _______ _____ _____    ______ ____

>  <TORSDO>
F 13

$$$$
=
 OpenBabel10222420533D

 48 52  0  0  1  0  0  0  0  0999 V2000
  185.7400  178.9840  142.8180 C   0  0  2  0  0  3  0  0  0  0  0  0
  182.8590  179.1830  143.0360 C   0  0  0  0  0  3  0  0  0  0  0  0
  188.1370  178.1750  142.3140 N   0  0  0  0  0  2  0  0  0  0  0  0
  184.4890  178.2960  146.9680 O   0  0  0  0  0  0  0  0  0  0  0  0
  185.9020  178.3410  145.1010 N   0  0  0  0  0  0  0  0  0  0  0  0
  185.6210  178.0440  146.4760 C   0  0  0  0  0  0  0  0  0  0  0  0
  187.1120  178.0420  144.4740 N   0  0  0  0  0  0  0  0  0  0  0  0
  185.0140  178.8440  144.1130 C   0  0  0  0  0  0  0  0  0  0  0  0
  184.8560  178.0090  141.5590 S   0  0  0  0  0  0  0  0  0  0  0  0
  183.6870  178.9330  144.2310 C   0  0  0  0  0  3  0  0  0  0  0  0
  183.3020  178.9240  141.7980 C   0  0  0  0  0  0  0  0  0  0  0  0
  187.0450  178.3570  143.2180 C   0  0  0  0  0  0  0  0  0  0  0  0
  181.5410  177.1740  140.1490 N   0  0  0  0  0  2  0  0  0  0  0  0
  178.9420  179.3230  137.6070 N   0  0  0  0  0  0  0  0  0  0  0  0
  179.4510  180.4870  137.8820 C   0  0  0  0  0  0  0  0  0  0  0  0
  179.6540  178.3690  138.3410 N   0  0  0  0  0  2  0  0  0  0  0  0
  182.4680  179.2910  140.6910 N   0  0  0  0  0  2  0  0  0  0  0  0
  180.5240  180.4220  138.8220 N   0  0  0  0  0  2  0  0  0  0  0  0
  180.6200  179.0540  139.0750 N   0  0  0  0  0  0  0  0  0  0  0  0
  181.5210  178.4600  140.0090 C   0  0  0  0  0  0  0  0  0  0  0  0
  180.6400  184.2690  135.2530 C   0  0  0  0  0  1  0  0  0  0  0  0
  179.5370  182.1740  135.9740 C   0  0  1  0  0  3  0  0  0  0  0  0
  178.9340  181.7780  137.3170 C   0  0  2  0  0  3  0  0  0  0  0  0
  179.1910  182.8700  138.2520 N   0  0  0  0  0  2  0  0  0  0  0  0
  180.1710  183.7640  137.6330 C   0  0  0  0  0  2  0  0  0  0  0  0
  180.6050  183.1790  136.3040 C   0  0  2  0  0  3  0  0  0  0  0  0
  181.2970  180.6180  135.3830 O   0  0  0  0  0  1  0  0  0  0  0  0
  180.0060  181.0420  135.0550 C   0  0  0  0  0  2  0  0  0  0  0  0
  189.1580  176.0370  142.9050 C   0  0  0  0  0  1  0  0  0  0  0  0
  189.3850  177.5240  142.7010 C   0  0  1  0  0  3  0  0  0  0  0  0
  191.6590  177.1360  142.0220 O   0  0  0  0  0  1  0  0  0  0  0  0
  190.4590  177.7440  141.6420 C   0  0  1  0  0  3  0  0  0  0  0  0
  189.9900  177.2000  140.2990 C   0  0  0  0  0  2  0  0  0  0  0  0
  191.1220  177.1530  139.2830 C   0  0  0  0  0  2  0  0  0  0  0  0
  190.5930  177.0330  137.8530 C   0  0  2  0  0  3  0  0  0  0  0  0
  186.5900  177.5950  137.5150 O   0  0  0  0  0  0  0  0  0  0  0  0
  188.8160  178.4720  137.1270 C   0  0  0  0  0  2  0  0  0  0  0  0
  186.9660  176.3650  136.9470 C   0  0  0  0  0  2  0  0  0  0  0  0
  189.1290  177.2170  137.8230 N   0  0  0  0  0  0  0  0  0  0  0  0
  188.4510  176.0670  137.2000 C   0  0  0  0  0  2  0  0  0  0  0  0
  187.3140  178.5880  136.8300 C   0  0  0  0  0  2  0  0  0  0  0  0
  191.0910  175.7680  137.1790 C   0  0  0  0  0  0  0  0  0  0  0  0
  191.5050  175.7920  135.9900 O   0  0  0  0  0  0  0  0  0  0  0  0
  191.1920  174.5530  137.9200 N   0  0  0  0  0  1  0  0  0  0  0  0
  186.6840  177.4680  147.3520 C   0  0  0  0  0  2  0  0  0  0  0  0
  187.4760  178.5730  148.0340 C   0  0  0  0  0  2  0  0  0  0  0  0
  189.5490  177.3010  147.4820 C   0  0  0  0  0  1  0  0  0  0  0  0
  188.8040  178.0560  148.5670 C   0  0  0  0  0  2  0  0  0  0  0  0
  1  9  1  6  0  0  0
  1 12  1  0  0  0  0
  1  8  1  0  0  0  0
  2 10  1  0  0  0  0
  3 30  1  0  0  0  0
  3 12  1  0  0  0  0
  5  6  1  0  0  0  0
  6  4  2  0  0  0  0
  6 45  1  0  0  0  0
  7  5  1  0  0  0  0
  8 10  2  0  0  0  0
  8  5  1  0  0  0  0
  9 11  1  0  0  0  0
 11  2  2  0  0  0  0
 12  7  2  0  0  0  0
 14 15  2  0  0  0  0
 14 16  1  0  0  0  0
 15 18  1  0  0  0  0
 16 19  1  0  0  0  0
 17 11  1  0  0  0  0
 18 19  1  0  0  0  0
 19 20  1  0  0  0  0
 20 13  2  0  0  0  0
 20 17  1  0  0  0  0
 22 28  1  1  0  0  0
 22 26  1  0  0  0  0
 22 23  1  0  0  0  0
 23 15  1  1  0  0  0
 23 24  1  0  0  0  0
 25 24  1  0  0  0  0
 26 21  1  6  0  0  0
 26 25  1  0  0  0  0
 28 27  1  0  0  0  0
 30 29  1  6  0  0  0
 32 31  1  1  0  0  0
 32 30  1  0  0  0  0
 33 32  1  0  0  0  0
 34 33  1  0  0  0  0
 35 34  1  1  0  0  0
 37 39  1  0  0  0  0
 38 40  1  0  0  0  0
 38 36  1  0  0  0  0
 39 35  1  0  0  0  0
 40 39  1  0  0  0  0
 41 37  1  0  0  0  0
 41 36  1  0  0  0  0
 42 35  1  0  0  0  0
 42 44  1  0  0  0  0
 43 42  2  0  0  0  0
 45 46  1  0  0  0  0
 46 48  1  0  0  0  0
 47 48  1  0  0  0  0
M  END
>  <MODEL>
2

>  <REMARK>
 VINA RESULT:      -8.2      3.490      9.437
  Name = 
  13 active torsions:
  status: ('A' for Active; 'I' for Inactive)
    1  A    between atoms: C_5  and  C_14
    2  A    between atoms: C_7  and  C_10
    3  A    between atoms: C_9  and  C_26
    4  A    between atoms: C_9  and  C_39
    5  A    between atoms: N_13  and  C_40
    6  A    between atoms: C_17  and  C_32
    7  A    between atoms: N_19  and  C_30
    8  A    between atoms: C_26  and  C_27
    9  A    between atoms: C_30  and  C_36
   10  A    between atoms: C_32  and  C_34
   11  A    between atoms: C_32  and  N_42
   12  A    between atoms: C_34  and  C_43
   13  A    between atoms: C_36  and  C_43
                            x       y       z     vdW  Elec       q    Type
                         _______ _______ _______ _____ _____    ______ ____

>  <TORSDO>
F 13

$$$$
=
 OpenBabel10222420533D

 48 52  0  0  1  0  0  0  0  0999 V2000
  188.9110  176.7160  139.4060 C   0  0  2  0  0  3  0  0  0  0  0  0
  187.6950  177.1470  136.8130 C   0  0  0  0  0  3  0  0  0  0  0  0
  189.9440  177.0540  141.7460 N   0  0  0  0  0  2  0  0  0  0  0  0
  191.8930  176.1740  136.2310 O   0  0  0  0  0  0  0  0  0  0  0  0
  191.0480  176.4540  138.3970 N   0  0  0  0  0  0  0  0  0  0  0  0
  192.1260  176.3050  137.4620 C   0  0  0  0  0  0  0  0  0  0  0  0
  191.2310  176.6570  139.7660 N   0  0  0  0  0  0  0  0  0  0  0  0
  189.6580  176.5590  138.1250 C   0  0  0  0  0  0  0  0  0  0  0  0
  187.9390  178.2530  139.3170 S   0  0  0  0  0  0  0  0  0  0  0  0
  189.1130  176.7540  136.9210 C   0  0  0  0  0  3  0  0  0  0  0  0
  187.0350  177.7120  137.8340 C   0  0  0  0  0  0  0  0  0  0  0  0
  190.0810  176.8300  140.3410 C   0  0  0  0  0  0  0  0  0  0  0  0
  184.8540  175.7670  137.2530 N   0  0  0  0  0  2  0  0  0  0  0  0
  180.9840  177.3990  137.6920 N   0  0  0  0  0  0  0  0  0  0  0  0
  181.3960  178.6130  137.9070 C   0  0  0  0  0  0  0  0  0  0  0  0
  182.1140  176.6000  137.4930 N   0  0  0  0  0  2  0  0  0  0  0  0
  185.6340  177.9690  137.6720 N   0  0  0  0  0  2  0  0  0  0  0  0
  182.8180  178.7340  137.8860 N   0  0  0  0  0  2  0  0  0  0  0  0
  183.2270  177.4290  137.6090 N   0  0  0  0  0  0  0  0  0  0  0  0
  184.5870  177.0000  137.5390 C   0  0  0  0  0  0  0  0  0  0  0  0
  180.1420  182.9750  136.4830 C   0  0  0  0  0  1  0  0  0  0  0  0
  180.0300  180.5530  136.9780 C   0  0  1  0  0  3  0  0  0  0  0  0
  180.4810  179.7650  138.2030 C   0  0  2  0  0  3  0  0  0  0  0  0
  181.1370  180.7040  139.1100 N   0  0  0  0  0  2  0  0  0  0  0  0
  181.3720  181.9450  138.3710 C   0  0  0  0  0  2  0  0  0  0  0  0
  180.9240  181.7600  136.9350 C   0  0  2  0  0  3  0  0  0  0  0  0
  181.0220  180.0890  134.8170 O   0  0  0  0  0  1  0  0  0  0  0  0
  179.9390  179.7940  135.6500 C   0  0  0  0  0  2  0  0  0  0  0  0
  191.2950  178.6740  142.9740 C   0  0  0  0  0  1  0  0  0  0  0  0
  191.0880  177.2080  142.6390 C   0  0  1  0  0  3  0  0  0  0  0  0
  191.8770  175.4310  144.0550 O   0  0  0  0  0  1  0  0  0  0  0  0
  190.8850  176.4070  143.9200 C   0  0  1  0  0  3  0  0  0  0  0  0
  190.8880  177.3380  145.1260 C   0  0  0  0  0  2  0  0  0  0  0  0
  189.5560  178.0540  145.2890 C   0  0  0  0  0  2  0  0  0  0  0  0
  188.5090  177.1560  145.9520 C   0  0  2  0  0  3  0  0  0  0  0  0
  184.8930  178.1070  144.3800 O   0  0  0  0  0  0  0  0  0  0  0  0
  186.5580  178.5450  146.0860 C   0  0  0  0  0  2  0  0  0  0  0  0
  185.8880  178.1430  143.3880 C   0  0  0  0  0  2  0  0  0  0  0  0
  187.1710  177.4100  145.3850 N   0  0  0  0  0  0  0  0  0  0  0  0
  187.2330  177.6390  143.9310 C   0  0  0  0  0  2  0  0  0  0  0  0
  185.2870  179.0250  145.3720 C   0  0  0  0  0  2  0  0  0  0  0  0
  188.5860  177.2380  147.4660 C   0  0  0  0  0  0  0  0  0  0  0  0
  188.1800  176.2850  148.1830 O   0  0  0  0  0  0  0  0  0  0  0  0
  189.2140  178.3530  148.0940 N   0  0  0  0  0  1  0  0  0  0  0  0
  193.5380  176.2630  137.9440 C   0  0  0  0  0  2  0  0  0  0  0  0
  194.2530  175.0320  137.4090 C   0  0  0  0  0  2  0  0  0  0  0  0
  195.1700  172.9590  138.4500 C   0  0  0  0  0  1  0  0  0  0  0  0
  195.2360  174.4740  138.4280 C   0  0  0  0  0  2  0  0  0  0  0  0
  1  8  1  6  0  0  0
  1 12  1  0  0  0  0
  2 10  1  0  0  0  0
  2 11  2  0  0  0  0
  3 30  1  0  0  0  0
  4  6  2  0  0  0  0
  5  7  1  0  0  0  0
  6 45  1  0  0  0  0
  6  5  1  0  0  0  0
  7 12  2  0  0  0  0
  8  5  1  0  0  0  0
  9  1  1  0  0  0  0
 10  8  2  0  0  0  0
 11  9  1  0  0  0  0
 12  3  1  0  0  0  0
 13 20  2  0  0  0  0
 14 15  2  0  0  0  0
 16 19  1  0  0  0  0
 16 14  1  0  0  0  0
 17 11  1  0  0  0  0
 18 15  1  0  0  0  0
 19 18  1  0  0  0  0
 20 19  1  0  0  0  0
 20 17  1  0  0  0  0
 22 28  1  6  0  0  0
 22 23  1  0  0  0  0
 23 15  1  6  0  0  0
 23 24  1  0  0  0  0
 25 24  1  0  0  0  0
 26 21  1  1  0  0  0
 26 22  1  0  0  0  0
 26 25  1  0  0  0  0
 27 28  1  0  0  0  0
 30 29  1  1  0  0  0
 30 32  1  0  0  0  0
 32 31  1  1  0  0  0
 32 33  1  0  0  0  0
 33 34  1  0  0  0  0
 35 34  1  6  0  0  0
 35 42  1  0  0  0  0
 36 41  1  0  0  0  0
 38 40  1  0  0  0  0
 38 36  1  0  0  0  0
 39 35  1  0  0  0  0
 39 37  1  0  0  0  0
 40 39  1  0  0  0  0
 41 37  1  0  0  0  0
 42 44  1  0  0  0  0
 42 43  2  0  0  0  0
 46 45  1  0  0  0  0
 46 48  1  0  0  0  0
 48 47  1  0  0  0  0
M  END
>  <MODEL>
3

>  <REMARK>
 VINA RESULT:      -8.0      2.646      9.994
  Name = 
  13 active torsions:
  status: ('A' for Active; 'I' for Inactive)
    1  A    between atoms: C_5  and  C_14
    2  A    between atoms: C_7  and  C_10
    3  A    between atoms: C_9  and  C_26
    4  A    between atoms: C_9  and  C_39
    5  A    between atoms: N_13  and  C_40
    6  A    between atoms: C_17  and  C_32
    7  A    between atoms: N_19  and  C_30
    8  A    between atoms: C_26  and  C_27
    9  A    between atoms: C_30  and  C_36
   10  A    between atoms: C_32  and  C_34
   11  A    between atoms: C_32  and  N_42
   12  A    between atoms: C_34  and  C_43
   13  A    between atoms: C_36  and  C_43
                            x       y       z     vdW  Elec       q    Type
                         _______ _______ _______ _____ _____    ______ ____

>  <TORSDO>
F 13

$$$$
=
 OpenBabel10222420533D

 48 52  0  0  1  0  0  0  0  0999 V2000
  186.5670  178.7910  141.7840 C   0  0  2  0  0  3  0  0  0  0  0  0
  183.7400  178.7480  142.4170 C   0  0  0  0  0  3  0  0  0  0  0  0
  188.9070  178.2300  140.8540 N   0  0  0  0  0  2  0  0  0  0  0  0
  185.9680  177.4920  145.9340 O   0  0  0  0  0  0  0  0  0  0  0  0
  187.0910  177.8780  143.9160 N   0  0  0  0  0  0  0  0  0  0  0  0
  187.0290  177.3890  145.2630 C   0  0  0  0  0  0  0  0  0  0  0  0
  188.2130  177.7500  143.0950 N   0  0  0  0  0  0  0  0  0  0  0  0
  186.0440  178.4350  143.1350 C   0  0  0  0  0  0  0  0  0  0  0  0
  185.5650  177.9200  140.5370 S   0  0  0  0  0  0  0  0  0  0  0  0
  184.7450  178.4100  143.4440 C   0  0  0  0  0  3  0  0  0  0  0  0
  184.0140  178.6810  141.1070 C   0  0  0  0  0  0  0  0  0  0  0  0
  187.9480  178.2160  141.9140 C   0  0  0  0  0  0  0  0  0  0  0  0
  181.7470  177.1260  139.9560 N   0  0  0  0  0  2  0  0  0  0  0  0
  178.9310  179.5210  137.9150 N   0  0  0  0  0  0  0  0  0  0  0  0
  179.6190  180.6190  138.0180 C   0  0  0  0  0  0  0  0  0  0  0  0
  179.6670  178.5030  138.5290 N   0  0  0  0  0  2  0  0  0  0  0  0
  183.0100  179.1230  140.1840 N   0  0  0  0  0  2  0  0  0  0  0  0
  180.8540  180.4430  138.7130 N   0  0  0  0  0  2  0  0  0  0  0  0
  180.8420  179.0800  139.0080 N   0  0  0  0  0  0  0  0  0  0  0  0
  181.8470  178.4000  139.7590 C   0  0  0  0  0  0  0  0  0  0  0  0
  180.7490  184.2530  135.1660 C   0  0  0  0  0  1  0  0  0  0  0  0
  179.5750  182.2790  136.0860 C   0  0  1  0  0  3  0  0  0  0  0  0
  179.1470  181.9500  137.5120 C   0  0  2  0  0  3  0  0  0  0  0  0
  179.6440  183.0180  138.3750 N   0  0  0  0  0  2  0  0  0  0  0  0
  180.5990  183.8090  137.5990 C   0  0  0  0  0  2  0  0  0  0  0  0
  180.7700  183.1780  136.2320 C   0  0  2  0  0  3  0  0  0  0  0  0
  181.1500  180.8730  134.8990 O   0  0  0  0  0  1  0  0  0  0  0  0
  179.7910  181.1020  135.1290 C   0  0  0  0  0  2  0  0  0  0  0  0
  190.1250  176.2550  141.6110 C   0  0  0  0  0  1  0  0  0  0  0  0
  190.2310  177.6300  140.9760 C   0  0  1  0  0  3  0  0  0  0  0  0
  192.2890  177.4220  139.7500 O   0  0  0  0  0  1  0  0  0  0  0  0
  190.9010  177.5200  139.6120 C   0  0  1  0  0  3  0  0  0  0  0  0
  190.3560  176.3160  138.8550 C   0  0  0  0  0  2  0  0  0  0  0  0
  189.8490  176.6990  137.4730 C   0  0  0  0  0  2  0  0  0  0  0  0
  188.3360  176.9290  137.4710 C   0  0  2  0  0  3  0  0  0  0  0  0
  186.6380  174.3590  134.8320 O   0  0  0  0  0  0  0  0  0  0  0  0
  188.6510  175.0840  135.9710 C   0  0  0  0  0  2  0  0  0  0  0  0
  185.9420  174.3460  136.0530 C   0  0  0  0  0  2  0  0  0  0  0  0
  187.6810  176.0700  136.4660 N   0  0  0  0  0  0  0  0  0  0  0  0
  186.4760  175.4210  137.0100 C   0  0  0  0  0  2  0  0  0  0  0  0
  187.9660  174.0000  135.1270 C   0  0  0  0  0  2  0  0  0  0  0  0
  187.9980  178.4050  137.3660 C   0  0  0  0  0  0  0  0  0  0  0  0
  186.7990  178.7900  137.3360 O   0  0  0  0  0  0  0  0  0  0  0  0
  189.0350  179.3830  137.4030 N   0  0  0  0  0  1  0  0  0  0  0  0
  188.2380  176.7860  145.9000 C   0  0  0  0  0  2  0  0  0  0  0  0
  189.1570  177.8710  146.4410 C   0  0  0  0  0  2  0  0  0  0  0  0
  188.2000  178.3350  148.6970 C   0  0  0  0  0  1  0  0  0  0  0  0
  189.3650  177.7250  147.9410 C   0  0  0  0  0  2  0  0  0  0  0  0
  1  9  1  6  0  0  0
  1 12  1  0  0  0  0
  1  8  1  0  0  0  0
  2 10  1  0  0  0  0
  3 30  1  0  0  0  0
  3 12  1  0  0  0  0
  5  6  1  0  0  0  0
  6 45  1  0  0  0  0
  6  4  2  0  0  0  0
  7  5  1  0  0  0  0
  8 10  2  0  0  0  0
  8  5  1  0  0  0  0
  9 11  1  0  0  0  0
 11  2  2  0  0  0  0
 12  7  2  0  0  0  0
 14 15  2  0  0  0  0
 14 16  1  0  0  0  0
 15 18  1  0  0  0  0
 16 19  1  0  0  0  0
 17 11  1  0  0  0  0
 18 19  1  0  0  0  0
 19 20  1  0  0  0  0
 20 13  2  0  0  0  0
 20 17  1  0  0  0  0
 22 28  1  6  0  0  0
 22 26  1  0  0  0  0
 22 23  1  0  0  0  0
 23 15  1  1  0  0  0
 23 24  1  0  0  0  0
 25 24  1  0  0  0  0
 26 21  1  6  0  0  0
 26 25  1  0  0  0  0
 27 28  1  0  0  0  0
 30 29  1  6  0  0  0
 32 31  1  1  0  0  0
 32 30  1  0  0  0  0
 33 32  1  0  0  0  0
 34 33  1  0  0  0  0
 35 34  1  6  0  0  0
 36 41  1  0  0  0  0
 36 38  1  0  0  0  0
 37 39  1  0  0  0  0
 38 40  1  0  0  0  0
 39 40  1  0  0  0  0
 39 35  1  0  0  0  0
 41 37  1  0  0  0  0
 42 44  1  0  0  0  0
 42 35  1  0  0  0  0
 43 42  2  0  0  0  0
 45 46  1  0  0  0  0
 46 48  1  0  0  0  0
 48 47  1  0  0  0  0
M  END
>  <MODEL>
4

>  <REMARK>
 VINA RESULT:      -7.9      3.663      9.139
  Name = 
  13 active torsions:
  status: ('A' for Active; 'I' for Inactive)
    1  A    between atoms: C_5  and  C_14
    2  A    between atoms: C_7  and  C_10
    3  A    between atoms: C_9  and  C_26
    4  A    between atoms: C_9  and  C_39
    5  A    between atoms: N_13  and  C_40
    6  A    between atoms: C_17  and  C_32
    7  A    between atoms: N_19  and  C_30
    8  A    between atoms: C_26  and  C_27
    9  A    between atoms: C_30  and  C_36
   10  A    between atoms: C_32  and  C_34
   11  A    between atoms: C_32  and  N_42
   12  A    between atoms: C_34  and  C_43
   13  A    between atoms: C_36  and  C_43
                            x       y       z     vdW  Elec       q    Type
                         _______ _______ _______ _____ _____    ______ ____

>  <TORSDO>
F 13

$$$$
=
 OpenBabel10222420533D

 48 52  0  0  1  0  0  0  0  0999 V2000
  186.8340  178.0160  137.6680 C   0  0  2  0  0  3  0  0  0  0  0  0
  188.1100  176.4990  135.5560 C   0  0  0  0  0  3  0  0  0  0  0  0
  185.8170  178.7580  139.9200 N   0  0  0  0  0  2  0  0  0  0  0  0
  183.8430  176.6980  134.7390 O   0  0  0  0  0  0  0  0  0  0  0  0
  184.6910  177.5710  136.7390 N   0  0  0  0  0  0  0  0  0  0  0  0
  183.6130  177.1550  135.8900 C   0  0  0  0  0  0  0  0  0  0  0  0
  184.5170  178.0370  138.0440 N   0  0  0  0  0  0  0  0  0  0  0  0
  186.0880  177.4710  136.4990 C   0  0  0  0  0  0  0  0  0  0  0  0
  187.9500  176.7180  138.2900 S   0  0  0  0  0  0  0  0  0  0  0  0
  186.6590  176.7690  135.5160 C   0  0  0  0  0  3  0  0  0  0  0  0
  188.8110  176.5550  136.6960 C   0  0  0  0  0  0  0  0  0  0  0  0
  185.6720  178.2640  138.5870 C   0  0  0  0  0  0  0  0  0  0  0  0
  190.8640  177.2160  138.7540 N   0  0  0  0  0  2  0  0  0  0  0  0
  194.6840  175.6380  137.8830 N   0  0  0  0  0  0  0  0  0  0  0  0
  194.3560  175.1880  136.7090 C   0  0  0  0  0  0  0  0  0  0  0  0
  193.5520  176.2520  138.4290 N   0  0  0  0  0  2  0  0  0  0  0  0
  190.2320  176.3770  136.6250 N   0  0  0  0  0  2  0  0  0  0  0  0
  192.9920  175.4420  136.3710 N   0  0  0  0  0  2  0  0  0  0  0  0
  192.5280  176.1290  137.4930 N   0  0  0  0  0  0  0  0  0  0  0  0
  191.1820  176.5660  137.6810 C   0  0  0  0  0  0  0  0  0  0  0  0
  198.0360  172.1760  136.6930 C   0  0  0  0  0  1  0  0  0  0  0  0
  195.7590  173.0880  136.3720 C   0  0  1  0  0  3  0  0  0  0  0  0
  195.2930  174.4290  135.8150 C   0  0  2  0  0  3  0  0  0  0  0  0
  196.4840  175.2290  135.5460 N   0  0  0  0  0  2  0  0  0  0  0  0
  197.6200  174.5650  136.1870 C   0  0  0  0  0  2  0  0  0  0  0  0
  197.1210  173.3540  136.9490 C   0  0  2  0  0  3  0  0  0  0  0  0
  195.3100  172.3310  138.6290 O   0  0  0  0  0  1  0  0  0  0  0  0
  194.8080  172.3560  137.3250 C   0  0  0  0  0  2  0  0  0  0  0  0
  183.6890  177.8190  140.6590 C   0  0  0  0  0  1  0  0  0  0  0  0
  184.6860  178.9520  140.8200 C   0  0  1  0  0  3  0  0  0  0  0  0
  184.3520  178.2320  143.0900 O   0  0  0  0  0  1  0  0  0  0  0  0
  185.1550  179.0290  142.2680 C   0  0  1  0  0  3  0  0  0  0  0  0
  186.6130  178.5980  142.3710 C   0  0  0  0  0  2  0  0  0  0  0  0
  186.8070  177.5100  143.4150 C   0  0  0  0  0  2  0  0  0  0  0  0
  187.7900  177.9420  144.5050 C   0  0  2  0  0  3  0  0  0  0  0  0
  191.3410  176.1300  143.7560 O   0  0  0  0  0  0  0  0  0  0  0  0
  188.9680  176.2490  143.2800 C   0  0  0  0  0  2  0  0  0  0  0  0
  191.4520  177.5220  143.5930 C   0  0  0  0  0  2  0  0  0  0  0  0
  189.0930  177.2710  144.3270 N   0  0  0  0  0  0  0  0  0  0  0  0
  190.1620  178.2360  144.0190 C   0  0  0  0  0  2  0  0  0  0  0  0
  190.3410  175.7030  142.8630 C   0  0  0  0  0  2  0  0  0  0  0  0
  187.1830  177.7990  145.8890 C   0  0  0  0  0  0  0  0  0  0  0  0
  187.9190  177.6810  146.9050 O   0  0  0  0  0  0  0  0  0  0  0  0
  185.7720  177.9000  146.0670 N   0  0  0  0  0  1  0  0  0  0  0  0
  182.1980  177.3000  136.3460 C   0  0  0  0  0  2  0  0  0  0  0  0
  181.5870  175.9380  136.6410 C   0  0  0  0  0  2  0  0  0  0  0  0
  181.0820  175.3870  139.0210 C   0  0  0  0  0  1  0  0  0  0  0  0
  182.1380  175.3510  137.9320 C   0  0  0  0  0  2  0  0  0  0  0  0
  1  8  1  6  0  0  0
  1  9  1  0  0  0  0
  1 12  1  0  0  0  0
  2 11  2  0  0  0  0
  3 30  1  0  0  0  0
  4  6  2  0  0  0  0
  5  7  1  0  0  0  0
  6 45  1  0  0  0  0
  6  5  1  0  0  0  0
  7 12  2  0  0  0  0
  8  5  1  0  0  0  0
 10  2  1  0  0  0  0
 10  8  2  0  0  0  0
 11  9  1  0  0  0  0
 12  3  1  0  0  0  0
 14 16  1  0  0  0  0
 15 14  2  0  0  0  0
 17 11  1  0  0  0  0
 17 20  1  0  0  0  0
 18 15  1  0  0  0  0
 18 19  1  0  0  0  0
 19 20  1  0  0  0  0
 19 16  1  0  0  0  0
 20 13  2  0  0  0  0
 22 26  1  0  0  0  0
 22 28  1  1  0  0  0
 23 22  1  0  0  0  0
 23 15  1  1  0  0  0
 24 23  1  0  0  0  0
 24 25  1  0  0  0  0
 25 26  1  0  0  0  0
 26 21  1  6  0  0  0
 28 27  1  0  0  0  0
 30 29  1  1  0  0  0
 30 32  1  0  0  0  0
 32 33  1  0  0  0  0
 32 31  1  1  0  0  0
 33 34  1  0  0  0  0
 35 34  1  6  0  0  0
 35 42  1  0  0  0  0
 37 39  1  0  0  0  0
 38 36  1  0  0  0  0
 38 40  1  0  0  0  0
 39 35  1  0  0  0  0
 40 39  1  0  0  0  0
 41 37  1  0  0  0  0
 41 36  1  0  0  0  0
 42 44  1  0  0  0  0
 42 43  2  0  0  0  0
 45 46  1  0  0  0  0
 46 48  1  0  0  0  0
 48 47  1  0  0  0  0
M  END
>  <MODEL>
5

>  <REMARK>
 VINA RESULT:      -7.9      1.949      6.861
  Name = 
  13 active torsions:
  status: ('A' for Active; 'I' for Inactive)
    1  A    between atoms: C_5  and  C_14
    2  A    between atoms: C_7  and  C_10
    3  A    between atoms: C_9  and  C_26
    4  A    between atoms: C_9  and  C_39
    5  A    between atoms: N_13  and  C_40
    6  A    between atoms: C_17  and  C_32
    7  A    between atoms: N_19  and  C_30
    8  A    between atoms: C_26  and  C_27
    9  A    between atoms: C_30  and  C_36
   10  A    between atoms: C_32  and  C_34
   11  A    between atoms: C_32  and  N_42
   12  A    between atoms: C_34  and  C_43
   13  A    between atoms: C_36  and  C_43
                            x       y       z     vdW  Elec       q    Type
                         _______ _______ _______ _____ _____    ______ ____

>  <TORSDO>
F 13

$$$$
=
 OpenBabel10222420533D

 48 52  0  0  1  0  0  0  0  0999 V2000
  187.0740  178.1220  137.8200 C   0  0  2  0  0  3  0  0  0  0  0  0
  188.4450  176.6360  135.7450 C   0  0  0  0  0  3  0  0  0  0  0  0
  186.0000  178.8480  140.0500 N   0  0  0  0  0  2  0  0  0  0  0  0
  184.1810  176.6000  134.8910 O   0  0  0  0  0  0  0  0  0  0  0  0
  184.9650  177.5500  136.8820 N   0  0  0  0  0  0  0  0  0  0  0  0
  183.9170  177.0650  136.0310 C   0  0  0  0  0  0  0  0  0  0  0  0
  184.7550  178.0290  138.1760 N   0  0  0  0  0  0  0  0  0  0  0  0
  186.3670  177.5180  136.6540 C   0  0  0  0  0  0  0  0  0  0  0  0
  188.2490  176.8940  138.4740 S   0  0  0  0  0  0  0  0  0  0  0  0
  186.9830  176.8300  135.6890 C   0  0  0  0  0  3  0  0  0  0  0  0
  189.1320  176.7480  136.8900 C   0  0  0  0  0  0  0  0  0  0  0  0
  185.8930  178.3240  138.7250 C   0  0  0  0  0  0  0  0  0  0  0  0
  191.0160  175.9610  139.0600 N   0  0  0  0  0  2  0  0  0  0  0  0
  194.9470  175.2420  137.6950 N   0  0  0  0  0  0  0  0  0  0  0  0
  194.7170  175.6290  136.4750 C   0  0  0  0  0  0  0  0  0  0  0  0
  193.7580  175.3890  138.4150 N   0  0  0  0  0  2  0  0  0  0  0  0
  190.5610  176.6430  136.8330 N   0  0  0  0  0  2  0  0  0  0  0  0
  193.3690  176.0490  136.2660 N   0  0  0  0  0  2  0  0  0  0  0  0
  192.8030  175.8870  137.5310 N   0  0  0  0  0  0  0  0  0  0  0  0
  191.4310  176.1210  137.8450 C   0  0  0  0  0  0  0  0  0  0  0  0
  198.2110  173.0060  134.5950 C   0  0  0  0  0  1  0  0  0  0  0  0
  196.0530  174.1910  134.8510 C   0  0  1  0  0  3  0  0  0  0  0  0
  195.7410  175.5870  135.3790 C   0  0  2  0  0  3  0  0  0  0  0  0
  196.9960  176.1690  135.8460 N   0  0  0  0  0  2  0  0  0  0  0  0
  197.9890  175.0960  135.9070 C   0  0  0  0  0  2  0  0  0  0  0  0
  197.3240  173.7840  135.5430 C   0  0  2  0  0  3  0  0  0  0  0  0
  195.2100  172.1740  135.8950 O   0  0  0  0  0  1  0  0  0  0  0  0
  194.9360  173.1450  134.9280 C   0  0  0  0  0  2  0  0  0  0  0  0
  183.9520  177.7800  140.8410 C   0  0  0  0  0  1  0  0  0  0  0  0
  184.8520  178.9990  140.9380 C   0  0  1  0  0  3  0  0  0  0  0  0
  184.2070  179.3850  143.2220 O   0  0  0  0  0  1  0  0  0  0  0  0
  185.3060  179.1960  142.3790 C   0  0  1  0  0  3  0  0  0  0  0  0
  186.1280  177.9980  142.8380 C   0  0  0  0  0  2  0  0  0  0  0  0
  186.5190  178.1100  144.3040 C   0  0  0  0  0  2  0  0  0  0  0  0
  187.7850  177.3090  144.6140 C   0  0  2  0  0  3  0  0  0  0  0  0
  189.2740  178.2710  148.2620 O   0  0  0  0  0  0  0  0  0  0  0  0
  187.3300  177.6860  146.9380 C   0  0  0  0  0  2  0  0  0  0  0  0
  189.9870  177.1950  147.7050 C   0  0  0  0  0  2  0  0  0  0  0  0
  188.3680  177.7350  145.9000 N   0  0  0  0  0  0  0  0  0  0  0  0
  189.5370  176.9160  146.2630 C   0  0  0  0  0  2  0  0  0  0  0  0
  187.9300  177.8600  148.3400 C   0  0  0  0  0  2  0  0  0  0  0  0
  188.7490  177.3190  143.4420 C   0  0  0  0  0  0  0  0  0  0  0  0
  189.3710  178.3690  143.1280 O   0  0  0  0  0  0  0  0  0  0  0  0
  189.0420  176.1100  142.7430 N   0  0  0  0  0  1  0  0  0  0  0  0
  182.4930  177.1430  136.4740 C   0  0  0  0  0  2  0  0  0  0  0  0
  181.9740  175.7670  136.8620 C   0  0  0  0  0  2  0  0  0  0  0  0
  181.2710  175.7670  139.2540 C   0  0  0  0  0  1  0  0  0  0  0  0
  182.3770  175.4020  138.2830 C   0  0  0  0  0  2  0  0  0  0  0  0
  1  8  1  6  0  0  0
  1  9  1  0  0  0  0
  1 12  1  0  0  0  0
  2 11  2  0  0  0  0
  3 30  1  0  0  0  0
  4  6  2  0  0  0  0
  5  7  1  0  0  0  0
  6 45  1  0  0  0  0
  6  5  1  0  0  0  0
  7 12  2  0  0  0  0
  8  5  1  0  0  0  0
 10  2  1  0  0  0  0
 10  8  2  0  0  0  0
 11  9  1  0  0  0  0
 12  3  1  0  0  0  0
 14 16  1  0  0  0  0
 15 14  2  0  0  0  0
 17 11  1  0  0  0  0
 17 20  1  0  0  0  0
 18 15  1  0  0  0  0
 18 19  1  0  0  0  0
 19 20  1  0  0  0  0
 19 16  1  0  0  0  0
 20 13  2  0  0  0  0
 22 28  1  1  0  0  0
 22 23  1  0  0  0  0
 22 26  1  0  0  0  0
 23 24  1  0  0  0  0
 23 15  1  1  0  0  0
 24 25  1  0  0  0  0
 26 21  1  6  0  0  0
 26 25  1  0  0  0  0
 28 27  1  0  0  0  0
 30 29  1  1  0  0  0
 30 32  1  0  0  0  0
 32 33  1  0  0  0  0
 32 31  1  1  0  0  0
 33 34  1  0  0  0  0
 35 34  1  6  0  0  0
 35 39  1  0  0  0  0
 36 41  1  0  0  0  0
 37 41  1  0  0  0  0
 38 36  1  0  0  0  0
 39 40  1  0  0  0  0
 39 37  1  0  0  0  0
 40 38  1  0  0  0  0
 42 35  1  0  0  0  0
 43 42  2  0  0  0  0
 44 42  1  0  0  0  0
 45 46  1  0  0  0  0
 46 48  1  0  0  0  0
 48 47  1  0  0  0  0
M  END
>  <MODEL>
6

>  <REMARK>
 VINA RESULT:      -7.8      1.957      7.028
  Name = 
  13 active torsions:
  status: ('A' for Active; 'I' for Inactive)
    1  A    between atoms: C_5  and  C_14
    2  A    between atoms: C_7  and  C_10
    3  A    between atoms: C_9  and  C_26
    4  A    between atoms: C_9  and  C_39
    5  A    between atoms: N_13  and  C_40
    6  A    between atoms: C_17  and  C_32
    7  A    between atoms: N_19  and  C_30
    8  A    between atoms: C_26  and  C_27
    9  A    between atoms: C_30  and  C_36
   10  A    between atoms: C_32  and  C_34
   11  A    between atoms: C_32  and  N_42
   12  A    between atoms: C_34  and  C_43
   13  A    between atoms: C_36  and  C_43
                            x       y       z     vdW  Elec       q    Type
                         _______ _______ _______ _____ _____    ______ ____

>  <TORSDO>
F 13

$$$$
=
 OpenBabel10222420533D

 48 52  0  0  1  0  0  0  0  0999 V2000
  188.1730  176.8340  142.7520 C   0  0  2  0  0  3  0  0  0  0  0  0
  190.9650  176.3670  142.1360 C   0  0  0  0  0  3  0  0  0  0  0  0
  185.8280  177.8840  142.9820 N   0  0  0  0  0  2  0  0  0  0  0  0
  190.5940  177.1240  146.4020 O   0  0  0  0  0  0  0  0  0  0  0  0
  188.7210  177.3310  145.0120 N   0  0  0  0  0  0  0  0  0  0  0  0
  189.4020  177.5080  146.2620 C   0  0  0  0  0  0  0  0  0  0  0  0
  187.4210  177.7780  144.7660 N   0  0  0  0  0  0  0  0  0  0  0  0
  189.2410  176.8200  143.7930 C   0  0  0  0  0  0  0  0  0  0  0  0
  188.7680  177.8110  141.3350 S   0  0  0  0  0  0  0  0  0  0  0  0
  190.5320  176.6070  143.5270 C   0  0  0  0  0  3  0  0  0  0  0  0
  190.2240  176.7480  141.0870 C   0  0  0  0  0  0  0  0  0  0  0  0
  187.1030  177.5440  143.5310 C   0  0  0  0  0  0  0  0  0  0  0  0
  188.7160  176.8560  138.5180 N   0  0  0  0  0  2  0  0  0  0  0  0
  191.1480  176.2740  135.1150 N   0  0  0  0  0  0  0  0  0  0  0  0
  192.2240  175.9980  135.7910 C   0  0  0  0  0  0  0  0  0  0  0  0
  190.1240  176.5130  136.0360 N   0  0  0  0  0  2  0  0  0  0  0  0
  190.6740  176.3850  139.7750 N   0  0  0  0  0  2  0  0  0  0  0  0
  192.0260  176.0410  137.2030 N   0  0  0  0  0  2  0  0  0  0  0  0
  190.6730  176.3630  137.3080 N   0  0  0  0  0  0  0  0  0  0  0  0
  189.9800  176.5840  138.5360 C   0  0  0  0  0  0  0  0  0  0  0  0
  195.8710  172.9450  135.7350 C   0  0  0  0  0  1  0  0  0  0  0  0
  193.8910  174.2380  135.0060 C   0  0  1  0  0  3  0  0  0  0  0  0
  193.5560  175.7170  135.1590 C   0  0  2  0  0  3  0  0  0  0  0  0
  194.6220  176.3280  135.9490 N   0  0  0  0  0  2  0  0  0  0  0  0
  195.4180  175.2470  136.5320 C   0  0  0  0  0  2  0  0  0  0  0  0
  194.7920  173.9170  136.1640 C   0  0  2  0  0  3  0  0  0  0  0  0
  192.4240  172.6080  136.0360 O   0  0  0  0  0  1  0  0  0  0  0  0
  192.7170  173.2670  134.8390 C   0  0  0  0  0  2  0  0  0  0  0  0
  185.1340  180.0970  143.7420 C   0  0  0  0  0  1  0  0  0  0  0  0
  184.8120  178.6140  143.7320 C   0  0  1  0  0  3  0  0  0  0  0  0
  182.5350  179.3710  143.5640 O   0  0  0  0  0  1  0  0  0  0  0  0
  183.4300  178.3870  143.1310 C   0  0  1  0  0  3  0  0  0  0  0  0
  183.5150  178.3780  141.6100 C   0  0  0  0  0  2  0  0  0  0  0  0
  182.2020  178.8010  140.9690 C   0  0  0  0  0  2  0  0  0  0  0  0
  181.2900  177.6010  140.7050 C   0  0  2  0  0  3  0  0  0  0  0  0
  181.9580  176.4130  136.8850 O   0  0  0  0  0  0  0  0  0  0  0  0
  181.8120  178.2520  138.4570 C   0  0  0  0  0  2  0  0  0  0  0  0
  182.7880  175.7080  137.7750 C   0  0  0  0  0  2  0  0  0  0  0  0
  181.4510  177.1200  139.3200 N   0  0  0  0  0  0  0  0  0  0  0  0
  182.4430  176.0340  139.2350 C   0  0  0  0  0  2  0  0  0  0  0  0
  182.2510  177.7780  137.0640 C   0  0  0  0  0  2  0  0  0  0  0  0
  179.8580  177.8890  141.1180 C   0  0  0  0  0  0  0  0  0  0  0  0
  179.4350  179.0740  141.1890 O   0  0  0  0  0  0  0  0  0  0  0  0
  178.9430  176.8170  141.3330 N   0  0  0  0  0  1  0  0  0  0  0  0
  188.6900  178.1140  147.4260 C   0  0  0  0  0  2  0  0  0  0  0  0
  187.2650  177.5890  147.5180 C   0  0  0  0  0  2  0  0  0  0  0  0
  184.9210  178.2520  146.9860 C   0  0  0  0  0  1  0  0  0  0  0  0
  186.2550  178.7260  147.5300 C   0  0  0  0  0  2  0  0  0  0  0  0
  1  9  1  6  0  0  0
  1 12  1  0  0  0  0
  1  8  1  0  0  0  0
  2 10  1  0  0  0  0
  3 12  1  0  0  0  0
  3 30  1  0  0  0  0
  5  6  1  0  0  0  0
  6  4  2  0  0  0  0
  6 45  1  0  0  0  0
  7  5  1  0  0  0  0
  8  5  1  0  0  0  0
 10  8  2  0  0  0  0
 11  9  1  0  0  0  0
 11  2  2  0  0  0  0
 12  7  2  0  0  0  0
 13 20  2  0  0  0  0
 14 15  2  0  0  0  0
 14 16  1  0  0  0  0
 15 18  1  0  0  0  0
 16 19  1  0  0  0  0
 17 11  1  0  0  0  0
 18 19  1  0  0  0  0
 19 20  1  0  0  0  0
 20 17  1  0  0  0  0
 22 28  1  1  0  0  0
 22 23  1  0  0  0  0
 22 26  1  0  0  0  0
 23 15  1  1  0  0  0
 23 24  1  0  0  0  0
 24 25  1  0  0  0  0
 26 21  1  6  0  0  0
 26 25  1  0  0  0  0
 28 27  1  0  0  0  0
 30 29  1  6  0  0  0
 32 31  1  6  0  0  0
 32 30  1  0  0  0  0
 33 32  1  0  0  0  0
 34 33  1  0  0  0  0
 35 34  1  6  0  0  0
 35 42  1  0  0  0  0
 36 41  1  0  0  0  0
 36 38  1  0  0  0  0
 37 39  1  0  0  0  0
 38 40  1  0  0  0  0
 39 35  1  0  0  0  0
 40 39  1  0  0  0  0
 41 37  1  0  0  0  0
 42 43  2  0  0  0  0
 42 44  1  0  0  0  0
 45 46  1  0  0  0  0
 46 48  1  0  0  0  0
 47 48  1  0  0  0  0
M  END
>  <MODEL>
7

>  <REMARK>
 VINA RESULT:      -7.6      1.296      1.835
  Name = 
  13 active torsions:
  status: ('A' for Active; 'I' for Inactive)
    1  A    between atoms: C_5  and  C_14
    2  A    between atoms: C_7  and  C_10
    3  A    between atoms: C_9  and  C_26
    4  A    between atoms: C_9  and  C_39
    5  A    between atoms: N_13  and  C_40
    6  A    between atoms: C_17  and  C_32
    7  A    between atoms: N_19  and  C_30
    8  A    between atoms: C_26  and  C_27
    9  A    between atoms: C_30  and  C_36
   10  A    between atoms: C_32  and  C_34
   11  A    between atoms: C_32  and  N_42
   12  A    between atoms: C_34  and  C_43
   13  A    between atoms: C_36  and  C_43
                            x       y       z     vdW  Elec       q    Type
                         _______ _______ _______ _____ _____    ______ ____

>  <TORSDO>
F 13

$$$$
=
 OpenBabel10222420533D

 48 52  0  0  1  0  0  0  0  0999 V2000
  186.3170  178.9570  140.2450 C   0  0  2  0  0  3  0  0  0  0  0  0
  187.0110  177.7950  137.6840 C   0  0  0  0  0  3  0  0  0  0  0  0
  185.8610  179.3260  142.7570 N   0  0  0  0  0  2  0  0  0  0  0  0
  182.6880  178.2100  137.8920 O   0  0  0  0  0  0  0  0  0  0  0  0
  184.0010  178.7160  139.7630 N   0  0  0  0  0  0  0  0  0  0  0  0
  182.7410  178.4710  139.1230 C   0  0  0  0  0  0  0  0  0  0  0  0
  184.1420  178.9580  141.1310 N   0  0  0  0  0  0  0  0  0  0  0  0
  185.3030  178.6320  139.2010 C   0  0  0  0  0  0  0  0  0  0  0  0
  187.4660  177.5520  140.3830 S   0  0  0  0  0  0  0  0  0  0  0  0
  185.6050  178.0950  138.0160 C   0  0  0  0  0  3  0  0  0  0  0  0
  187.9470  177.6440  138.6310 C   0  0  0  0  0  0  0  0  0  0  0  0
  185.4000  179.0670  141.4290 C   0  0  0  0  0  0  0  0  0  0  0  0
  190.4210  177.7260  140.2910 N   0  0  0  0  0  2  0  0  0  0  0  0
  193.8500  176.3160  138.2670 N   0  0  0  0  0  0  0  0  0  0  0  0
  193.2560  176.1780  137.1200 C   0  0  0  0  0  0  0  0  0  0  0  0
  192.9050  176.8050  139.1740 N   0  0  0  0  0  2  0  0  0  0  0  0
  189.3050  177.4540  138.2130 N   0  0  0  0  0  2  0  0  0  0  0  0
  191.8760  176.5420  137.1550 N   0  0  0  0  0  2  0  0  0  0  0  0
  191.7040  176.9420  138.4800 N   0  0  0  0  0  0  0  0  0  0  0  0
  190.4630  177.3520  139.0530 C   0  0  0  0  0  0  0  0  0  0  0  0
  195.9500  172.6190  135.4780 C   0  0  0  0  0  1  0  0  0  0  0  0
  194.0120  174.1180  135.8250 C   0  0  1  0  0  3  0  0  0  0  0  0
  193.9290  175.6390  135.8910 C   0  0  2  0  0  3  0  0  0  0  0  0
  195.2920  176.1560  135.8020 N   0  0  0  0  0  2  0  0  0  0  0  0
  196.2080  175.0300  135.9880 C   0  0  0  0  0  2  0  0  0  0  0  0
  195.4030  173.7800  136.2810 C   0  0  2  0  0  3  0  0  0  0  0  0
  192.3860  172.3270  135.7080 O   0  0  0  0  0  1  0  0  0  0  0  0
  192.9110  173.3240  136.5340 C   0  0  0  0  0  2  0  0  0  0  0  0
  183.8120  178.4190  143.7250 C   0  0  0  0  0  1  0  0  0  0  0  0
  184.9670  179.3870  143.9080 C   0  0  1  0  0  3  0  0  0  0  0  0
  185.0670  179.6120  146.3010 O   0  0  0  0  0  1  0  0  0  0  0  0
  185.7180  179.0600  145.1930 C   0  0  1  0  0  3  0  0  0  0  0  0
  185.8500  177.5510  145.3540 C   0  0  0  0  0  2  0  0  0  0  0  0
  187.2340  177.0600  144.9560 C   0  0  0  0  0  2  0  0  0  0  0  0
  188.3340  177.7740  145.7450 C   0  0  2  0  0  3  0  0  0  0  0  0
  191.8620  177.0280  143.8870 O   0  0  0  0  0  0  0  0  0  0  0  0
  189.5300  176.4260  144.1610 C   0  0  0  0  0  2  0  0  0  0  0  0
  191.5050  178.3800  143.7460 C   0  0  0  0  0  2  0  0  0  0  0  0
  189.6590  177.5000  145.1550 N   0  0  0  0  0  0  0  0  0  0  0  0
  190.2530  178.7140  144.5700 C   0  0  0  0  0  2  0  0  0  0  0  0
  190.8100  176.2780  143.3280 C   0  0  0  0  0  2  0  0  0  0  0  0
  188.2270  177.4880  147.2320 C   0  0  0  0  0  0  0  0  0  0  0  0
  188.4490  176.3330  147.6830 O   0  0  0  0  0  0  0  0  0  0  0  0
  187.9710  178.5490  148.1500 N   0  0  0  0  0  1  0  0  0  0  0  0
  181.4710  178.5630  139.9040 C   0  0  0  0  0  2  0  0  0  0  0  0
  181.0830  177.2010  140.4610 C   0  0  0  0  0  2  0  0  0  0  0  0
  178.9320  175.9830  140.1320 C   0  0  0  0  0  1  0  0  0  0  0  0
  179.6070  177.1510  140.8260 C   0  0  0  0  0  2  0  0  0  0  0  0
  1  8  1  6  0  0  0
  1  9  1  0  0  0  0
  1 12  1  0  0  0  0
  2 10  1  0  0  0  0
  2 11  2  0  0  0  0
  3 30  1  0  0  0  0
  4  6  2  0  0  0  0
  5  7  1  0  0  0  0
  6  5  1  0  0  0  0
  6 45  1  0  0  0  0
  7 12  2  0  0  0  0
  8  5  1  0  0  0  0
 10  8  2  0  0  0  0
 11  9  1  0  0  0  0
 12  3  1  0  0  0  0
 14 16  1  0  0  0  0
 15 18  1  0  0  0  0
 15 14  2  0  0  0  0
 17 11  1  0  0  0  0
 17 20  1  0  0  0  0
 18 19  1  0  0  0  0
 19 20  1  0  0  0  0
 19 16  1  0  0  0  0
 20 13  2  0  0  0  0
 22 23  1  0  0  0  0
 22 26  1  0  0  0  0
 22 28  1  1  0  0  0
 23 15  1  1  0  0  0
 24 23  1  0  0  0  0
 24 25  1  0  0  0  0
 25 26  1  0  0  0  0
 26 21  1  6  0  0  0
 27 28  1  0  0  0  0
 30 29  1  6  0  0  0
 30 32  1  0  0  0  0
 32 33  1  0  0  0  0
 32 31  1  1  0  0  0
 34 33  1  0  0  0  0
 35 34  1  6  0  0  0
 35 42  1  0  0  0  0
 37 39  1  0  0  0  0
 38 36  1  0  0  0  0
 38 40  1  0  0  0  0
 39 35  1  0  0  0  0
 40 39  1  0  0  0  0
 41 36  1  0  0  0  0
 41 37  1  0  0  0  0
 42 43  2  0  0  0  0
 42 44  1  0  0  0  0
 45 46  1  0  0  0  0
 46 48  1  0  0  0  0
 47 48  1  0  0  0  0
M  END
>  <MODEL>
8

>  <REMARK>
 VINA RESULT:      -7.4      1.942      6.437
  Name = 
  13 active torsions:
  status: ('A' for Active; 'I' for Inactive)
    1  A    between atoms: C_5  and  C_14
    2  A    between atoms: C_7  and  C_10
    3  A    between atoms: C_9  and  C_26
    4  A    between atoms: C_9  and  C_39
    5  A    between atoms: N_13  and  C_40
    6  A    between atoms: C_17  and  C_32
    7  A    between atoms: N_19  and  C_30
    8  A    between atoms: C_26  and  C_27
    9  A    between atoms: C_30  and  C_36
   10  A    between atoms: C_32  and  C_34
   11  A    between atoms: C_32  and  N_42
   12  A    between atoms: C_34  and  C_43
   13  A    between atoms: C_36  and  C_43
                            x       y       z     vdW  Elec       q    Type
                         _______ _______ _______ _____ _____    ______ ____

>  <TORSDO>
F 13

$$$$
=
 OpenBabel10222420533D

 48 52  0  0  1  0  0  0  0  0999 V2000
  188.1700  176.8580  142.8270 C   0  0  2  0  0  3  0  0  0  0  0  0
  190.9610  176.3980  142.2020 C   0  0  0  0  0  3  0  0  0  0  0  0
  185.8230  177.9020  143.0610 N   0  0  0  0  0  2  0  0  0  0  0  0
  190.6010  177.1640  146.4680 O   0  0  0  0  0  0  0  0  0  0  0  0
  188.7240  177.3630  145.0830 N   0  0  0  0  0  0  0  0  0  0  0  0
  189.4080  177.5440  146.3310 C   0  0  0  0  0  0  0  0  0  0  0  0
  187.4220  177.8050  144.8410 N   0  0  0  0  0  0  0  0  0  0  0  0
  189.2410  176.8500  143.8640 C   0  0  0  0  0  0  0  0  0  0  0  0
  188.7580  177.8330  141.4050 S   0  0  0  0  0  0  0  0  0  0  0  0
  190.5320  176.6400  143.5940 C   0  0  0  0  0  3  0  0  0  0  0  0
  190.2150  176.7750  141.1540 C   0  0  0  0  0  0  0  0  0  0  0  0
  187.1010  177.5670  143.6070 C   0  0  0  0  0  0  0  0  0  0  0  0
  188.7310  176.9610  138.5770 N   0  0  0  0  0  2  0  0  0  0  0  0
  191.1670  176.3300  135.1850 N   0  0  0  0  0  0  0  0  0  0  0  0
  192.2270  176.0100  135.8650 C   0  0  0  0  0  0  0  0  0  0  0  0
  190.1440  176.5950  136.1010 N   0  0  0  0  0  2  0  0  0  0  0  0
  190.6630  176.4090  139.8420 N   0  0  0  0  0  2  0  0  0  0  0  0
  192.0200  176.0450  137.2770 N   0  0  0  0  0  2  0  0  0  0  0  0
  190.6780  176.4130  137.3750 N   0  0  0  0  0  0  0  0  0  0  0  0
  189.9850  176.6450  138.6010 C   0  0  0  0  0  0  0  0  0  0  0  0
  195.7720  172.8390  135.8110 C   0  0  0  0  0  1  0  0  0  0  0  0
  193.8400  174.2010  135.0790 C   0  0  1  0  0  3  0  0  0  0  0  0
  193.5540  175.6900  135.2390 C   0  0  2  0  0  3  0  0  0  0  0  0
  194.6340  176.2600  136.0400 N   0  0  0  0  0  2  0  0  0  0  0  0
  195.3900  175.1490  136.6210 C   0  0  0  0  0  2  0  0  0  0  0  0
  194.7230  173.8430  136.2400 C   0  0  2  0  0  3  0  0  0  0  0  0
  192.3050  172.6250  136.0920 O   0  0  0  0  0  1  0  0  0  0  0  0
  192.6370  173.2700  134.8970 C   0  0  0  0  0  2  0  0  0  0  0  0
  185.0280  180.1270  143.6770 C   0  0  0  0  0  1  0  0  0  0  0  0
  184.8070  178.6310  143.8130 C   0  0  1  0  0  3  0  0  0  0  0  0
  182.4880  178.3250  144.3760 O   0  0  0  0  0  1  0  0  0  0  0  0
  183.4090  178.2680  143.3250 C   0  0  1  0  0  3  0  0  0  0  0  0
  182.9880  179.2020  142.1980 C   0  0  0  0  0  2  0  0  0  0  0  0
  182.1490  178.4830  141.1530 C   0  0  0  0  0  2  0  0  0  0  0  0
  180.7640  179.1160  141.0080 C   0  0  2  0  0  3  0  0  0  0  0  0
  180.8940  182.2730  138.4650 O   0  0  0  0  0  0  0  0  0  0  0  0
  181.6820  180.0430  138.9950 C   0  0  0  0  0  2  0  0  0  0  0  0
  179.5660  181.8640  138.6770 C   0  0  0  0  0  2  0  0  0  0  0  0
  180.8290  180.3200  140.1580 N   0  0  0  0  0  0  0  0  0  0  0  0
  179.4860  180.7700  139.7520 C   0  0  0  0  0  2  0  0  0  0  0  0
  181.5770  181.1580  137.9450 C   0  0  0  0  0  2  0  0  0  0  0  0
  180.1030  179.3220  142.3580 C   0  0  0  0  0  0  0  0  0  0  0  0
  180.1580  180.4390  142.9380 O   0  0  0  0  0  0  0  0  0  0  0  0
  179.3220  178.2810  142.9420 N   0  0  0  0  0  1  0  0  0  0  0  0
  188.6990  178.1520  147.4950 C   0  0  0  0  0  2  0  0  0  0  0  0
  187.2640  177.6510  147.5710 C   0  0  0  0  0  2  0  0  0  0  0  0
  184.9130  178.2460  146.9880 C   0  0  0  0  0  1  0  0  0  0  0  0
  186.2690  178.7890  147.3960 C   0  0  0  0  0  2  0  0  0  0  0  0
  1  9  1  6  0  0  0
  1 12  1  0  0  0  0
  1  8  1  0  0  0  0
  2 10  1  0  0  0  0
  3 12  1  0  0  0  0
  3 30  1  0  0  0  0
  5  6  1  0  0  0  0
  6  4  2  0  0  0  0
  6 45  1  0  0  0  0
  7  5  1  0  0  0  0
  8  5  1  0  0  0  0
 10  8  2  0  0  0  0
 11  9  1  0  0  0  0
 11  2  2  0  0  0  0
 12  7  2  0  0  0  0
 13 20  2  0  0  0  0
 14 15  2  0  0  0  0
 14 16  1  0  0  0  0
 15 18  1  0  0  0  0
 16 19  1  0  0  0  0
 17 11  1  0  0  0  0
 18 19  1  0  0  0  0
 19 20  1  0  0  0  0
 20 17  1  0  0  0  0
 22 28  1  1  0  0  0
 22 23  1  0  0  0  0
 22 26  1  0  0  0  0
 23 15  1  1  0  0  0
 23 24  1  0  0  0  0
 24 25  1  0  0  0  0
 26 21  1  6  0  0  0
 26 25  1  0  0  0  0
 28 27  1  0  0  0  0
 30 29  1  6  0  0  0
 32 30  1  0  0  0  0
 32 31  1  1  0  0  0
 33 32  1  0  0  0  0
 34 33  1  0  0  0  0
 35 34  1  1  0  0  0
 35 42  1  0  0  0  0
 36 38  1  0  0  0  0
 37 39  1  0  0  0  0
 38 40  1  0  0  0  0
 39 35  1  0  0  0  0
 40 39  1  0  0  0  0
 41 36  1  0  0  0  0
 41 37  1  0  0  0  0
 42 43  2  0  0  0  0
 42 44  1  0  0  0  0
 45 46  1  0  0  0  0
 47 48  1  0  0  0  0
 48 46  1  0  0  0  0
M  END
>  <MODEL>
9

>  <REMARK>
 VINA RESULT:      -7.3      2.062      2.737
  Name = 
  13 active torsions:
  status: ('A' for Active; 'I' for Inactive)
    1  A    between atoms: C_5  and  C_14
    2  A    between atoms: C_7  and  C_10
    3  A    between atoms: C_9  and  C_26
    4  A    between atoms: C_9  and  C_39
    5  A    between atoms: N_13  and  C_40
    6  A    between atoms: C_17  and  C_32
    7  A    between atoms: N_19  and  C_30
    8  A    between atoms: C_26  and  C_27
    9  A    between atoms: C_30  and  C_36
   10  A    between atoms: C_32  and  C_34
   11  A    between atoms: C_32  and  N_42
   12  A    between atoms: C_34  and  C_43
   13  A    between atoms: C_36  and  C_43
                            x       y       z     vdW  Elec       q    Type
                         _______ _______ _______ _____ _____    ______ ____

>  <TORSDO>
F 13

$$$$
