=
 OpenBabel10222416293D

 32 36  0  0  0  0  0  0  0  0999 V2000
  189.8270  177.0860  145.4180 N   0  0  0  0  0  0  0  0  0  0  0  0
  184.3930  179.0650  145.4980 N   0  0  0  0  0  0  0  0  0  0  0  0
  189.0900  178.3100  142.3470 C   0  0  0  0  0  2  0  0  0  0  0  0
  186.0060  178.6450  147.3880 C   0  0  0  0  0  3  0  0  0  0  0  0
  187.1150  177.1750  143.0360 C   0  0  0  0  0  3  0  0  0  0  0  0
  187.3190  178.2430  147.8130 C   0  0  0  0  0  3  0  0  0  0  0  0
  185.4330  178.9360  141.8850 C   0  0  0  0  0  0  0  0  0  0  0  0
  187.6430  177.8950  142.0230 C   0  0  0  0  0  0  0  0  0  0  0  0
  186.1180  177.7270  143.8340 C   0  0  0  0  0  0  0  0  0  0  0  0
  191.9100  176.3780  145.8370 C   0  0  0  0  0  3  0  0  0  0  0  0
  191.0990  176.7400  143.4660 N   0  0  0  0  0  0  0  0  0  0  0  0
  184.4780  179.4860  141.0230 O   0  0  0  0  0  1  0  0  0  0  0  0
  190.8800  176.6580  144.9190 C   0  0  0  0  0  0  0  0  0  0  0  0
  184.1390  179.0220  144.1290 C   0  0  0  0  0  0  0  0  0  0  0  0
  185.5960  178.5570  145.9600 C   0  0  0  0  0  0  0  0  0  0  0  0
  190.4150  176.9700  147.6920 C   0  0  0  0  0  3  0  0  0  0  0  0
  188.1640  177.8060  146.7590 C   0  0  0  0  0  0  0  0  0  0  0  0
  189.4880  177.2680  146.7070 C   0  0  0  0  0  0  0  0  0  0  0  0
  187.6230  177.7060  145.5300 N   0  0  0  0  0  0  0  0  0  0  0  0
  182.8890  179.5050  143.6200 N   0  0  0  0  0  1  0  0  0  0  0  0
  190.3470  177.3060  142.2840 C   0  0  0  0  0  0  0  0  0  0  0  0
  191.7040  176.4370  147.2950 C   0  0  0  0  0  0  0  0  0  0  0  0
  185.1100  178.4980  143.2700 C   0  0  0  0  0  0  0  0  0  0  0  0
  186.4530  177.9570  145.1310 C   0  0  0  0  0  0  0  0  0  0  0  0
  186.7230  178.7240  141.3820 C   0  0  0  0  0  3  0  0  0  0  0  0
  192.3420  177.5290  140.7920 O   0  0  0  0  0  1  0  0  0  0  0  0
  190.5570  176.2930  140.0860 O   0  0  0  0  0  0  0  0  0  0  0  0
  191.0230  177.1410  140.9120 C   0  0  0  0  0  0  0  0  0  0  0  0
  192.8290  176.5000  148.2380 N   0  0  0  0  0  2  0  0  0  0  0  0
  192.8220  176.9390  149.5780 N   0  0  0  0  0  0  0  0  0  0  0  0
  192.8190  178.2130  149.5920 O   0  0  0  0  0  1  0  0  0  0  0  0
  194.2200  176.6730  150.0780 C   0  0  0  0  0  1  0  0  0  0  0  0
  1 18  1  0  0  0  0
  2 15  1  0  0  0  0
  4  6  1  0  0  0  0
  5  9  1  0  0  0  0
  7 23  1  0  0  0  0
  8  3  1  0  0  0  0
  8  5  2  0  0  0  0
  9 24  1  0  0  0  0
 10 22  2  0  0  0  0
 11 13  1  0  0  0  0
 12  7  1  0  0  0  0
 13  1  2  0  0  0  0
 13 10  1  0  0  0  0
 14  2  2  0  0  0  0
 15  4  2  0  0  0  0
 17  6  2  0  0  0  0
 18 17  1  0  0  0  0
 18 16  2  0  0  0  0
 19 17  1  0  0  0  0
 20 14  1  0  0  0  0
 21  3  1  0  0  0  0
 21 11  2  0  0  0  0
 22 16  1  0  0  0  0
 22 29  1  0  0  0  0
 23  9  2  0  0  0  0
 23 14  1  0  0  0  0
 24 19  2  0  0  0  0
 24 15  1  0  0  0  0
 25  7  2  0  0  0  0
 25  8  1  0  0  0  0
 26 28  1  0  0  0  0
 27 28  2  0  0  0  0
 28 21  1  0  0  0  0
 29 30  1  0  0  0  0
 30 31  1  0  0  0  0
 30 32  1  0  0  0  0
M  END
>  <MODEL>
1

>  <REMARK>
 VINA RESULT:     -11.0      0.000      0.000
  Name = 
  3 active torsions:
  status: ('A' for Active; 'I' for Inactive)
    1  A    between atoms: N_4  and  N_6
    2  A    between atoms: N_4  and  C_29
    3  A    between atoms: C_22  and  CA_28
                            x       y       z     vdW  Elec       q    Type
                         _______ _______ _______ _____ _____    ______ ____

>  <TORSDO>
F 3

$$$$
=
 OpenBabel10222416293D

 32 36  0  0  0  0  0  0  0  0999 V2000
  189.1680  177.4040  141.1750 N   0  0  0  0  0  0  0  0  0  0  0  0
  189.3520  177.5400  146.9530 N   0  0  0  0  0  0  0  0  0  0  0  0
  186.4460  179.0810  142.2900 C   0  0  0  0  0  2  0  0  0  0  0  0
  191.1890  177.1670  145.2690 C   0  0  0  0  0  3  0  0  0  0  0  0
  186.6970  177.2610  143.8030 C   0  0  0  0  0  3  0  0  0  0  0  0
  191.5930  177.0910  143.8920 C   0  0  0  0  0  3  0  0  0  0  0  0
  185.8970  178.6560  145.9650 C   0  0  0  0  0  0  0  0  0  0  0  0
  185.9300  178.3400  143.5390 C   0  0  0  0  0  0  0  0  0  0  0  0
  187.5360  177.2610  144.9150 C   0  0  0  0  0  0  0  0  0  0  0  0
  189.5450  177.2830  138.9700 C   0  0  0  0  0  3  0  0  0  0  0  0
  187.2840  177.9700  139.8790 N   0  0  0  0  0  0  0  0  0  0  0  0
  185.1320  179.0870  147.0540 O   0  0  0  0  0  1  0  0  0  0  0  0
  188.6550  177.4590  140.0460 C   0  0  0  0  0  0  0  0  0  0  0  0
  187.9990  177.7710  147.1970 C   0  0  0  0  0  0  0  0  0  0  0  0
  189.7580  177.3240  145.6480 C   0  0  0  0  0  0  0  0  0  0  0  0
  191.3800  176.9000  140.5550 C   0  0  0  0  0  3  0  0  0  0  0  0
  190.5250  177.2160  142.9640 C   0  0  0  0  0  0  0  0  0  0  0  0
  190.4360  177.1400  141.5390 C   0  0  0  0  0  0  0  0  0  0  0  0
  189.2750  177.2710  143.4600 N   0  0  0  0  0  0  0  0  0  0  0  0
  187.5380  177.9610  148.5400 N   0  0  0  0  0  1  0  0  0  0  0  0
  186.2270  178.5600  140.7830 C   0  0  0  0  0  0  0  0  0  0  0  0
  190.9550  176.9050  139.1680 C   0  0  0  0  0  0  0  0  0  0  0  0
  187.1070  177.8040  146.1190 C   0  0  0  0  0  0  0  0  0  0  0  0
  188.8690  177.2450  144.6540 C   0  0  0  0  0  0  0  0  0  0  0  0
  185.4490  178.9830  144.6790 C   0  0  0  0  0  3  0  0  0  0  0  0
  183.7430  178.8450  140.8370 O   0  0  0  0  0  1  0  0  0  0  0  0
  184.9330  179.7700  139.1220 O   0  0  0  0  0  0  0  0  0  0  0  0
  184.9070  178.9630  140.1050 C   0  0  0  0  0  0  0  0  0  0  0  0
  191.9610  177.0670  138.1090 N   0  0  0  0  0  2  0  0  0  0  0  0
  193.2600  176.5230  138.0480 N   0  0  0  0  0  0  0  0  0  0  0  0
  193.8440  176.9690  137.0070 O   0  0  0  0  0  1  0  0  0  0  0  0
  193.0570  175.0850  137.6400 C   0  0  0  0  0  1  0  0  0  0  0  0
  1 18  1  0  0  0  0
  2 14  1  0  0  0  0
  3  8  1  0  0  0  0
  4 15  1  0  0  0  0
  5  9  1  0  0  0  0
  6  4  2  0  0  0  0
  7 23  1  0  0  0  0
  7 12  1  0  0  0  0
  8  5  2  0  0  0  0
  8 25  1  0  0  0  0
  9 23  1  0  0  0  0
 10 22  2  0  0  0  0
 10 13  1  0  0  0  0
 11 13  1  0  0  0  0
 11 21  2  0  0  0  0
 13  1  2  0  0  0  0
 14 20  1  0  0  0  0
 15  2  2  0  0  0  0
 16 18  2  0  0  0  0
 17 19  2  0  0  0  0
 17  6  1  0  0  0  0
 18 17  1  0  0  0  0
 19 24  1  0  0  0  0
 21  3  1  0  0  0  0
 22 16  1  0  0  0  0
 23 14  2  0  0  0  0
 24  9  2  0  0  0  0
 24 15  1  0  0  0  0
 25  7  2  0  0  0  0
 27 28  2  0  0  0  0
 28 21  1  0  0  0  0
 28 26  1  0  0  0  0
 29 22  1  0  0  0  0
 30 29  1  0  0  0  0
 31 30  1  0  0  0  0
 32 30  1  0  0  0  0
M  END
>  <MODEL>
2

>  <REMARK>
 VINA RESULT:     -11.0      2.905      6.463
  Name = 
  3 active torsions:
  status: ('A' for Active; 'I' for Inactive)
    1  A    between atoms: N_4  and  N_6
    2  A    between atoms: N_4  and  C_29
    3  A    between atoms: C_22  and  CA_28
                            x       y       z     vdW  Elec       q    Type
                         _______ _______ _______ _____ _____    ______ ____

>  <TORSDO>
F 3

$$$$
=
 OpenBabel10222416293D

 32 36  0  0  0  0  0  0  0  0999 V2000
  187.2620  178.0990  141.7560 N   0  0  0  0  0  0  0  0  0  0  0  0
  191.5990  177.0990  145.4480 N   0  0  0  0  0  0  0  0  0  0  0  0
  186.2580  179.0190  144.8570 C   0  0  0  0  0  2  0  0  0  0  0  0
  191.6210  177.3970  142.9460 C   0  0  0  0  0  3  0  0  0  0  0  0
  187.4800  177.0040  145.1890 C   0  0  0  0  0  3  0  0  0  0  0  0
  190.8920  177.6710  141.7380 C   0  0  0  0  0  3  0  0  0  0  0  0
  188.5460  177.7750  147.5400 C   0  0  0  0  0  0  0  0  0  0  0  0
  186.7930  177.9640  145.8440 C   0  0  0  0  0  0  0  0  0  0  0  0
  188.8630  176.9250  145.3240 C   0  0  0  0  0  0  0  0  0  0  0  0
  185.9110  178.4920  140.0120 C   0  0  0  0  0  3  0  0  0  0  0  0
  185.0440  178.5780  142.3900 N   0  0  0  0  0  0  0  0  0  0  0  0
  188.8270  177.8390  148.9090 O   0  0  0  0  0  1  0  0  0  0  0  0
  186.0900  178.2900  141.3940 C   0  0  0  0  0  0  0  0  0  0  0  0
  190.8570  177.0380  146.6260 C   0  0  0  0  0  0  0  0  0  0  0  0
  190.9200  177.2240  144.2480 C   0  0  0  0  0  0  0  0  0  0  0  0
  188.3110  178.1210  139.6520 C   0  0  0  0  0  3  0  0  0  0  0  0
  189.4890  177.7920  141.9180 C   0  0  0  0  0  0  0  0  0  0  0  0
  188.3880  177.9910  141.0280 C   0  0  0  0  0  0  0  0  0  0  0  0
  188.9950  177.5290  143.1430 N   0  0  0  0  0  0  0  0  0  0  0  0
  191.5250  176.8710  147.8830 N   0  0  0  0  0  1  0  0  0  0  0  0
  184.9960  178.7820  143.8870 C   0  0  0  0  0  0  0  0  0  0  0  0
  187.0100  178.3310  139.0440 C   0  0  0  0  0  0  0  0  0  0  0  0
  189.4630  177.1320  146.5600 C   0  0  0  0  0  0  0  0  0  0  0  0
  189.5860  177.1940  144.2060 C   0  0  0  0  0  0  0  0  0  0  0  0
  187.3120  178.2710  147.1010 C   0  0  0  0  0  3  0  0  0  0  0  0
  182.5030  178.8400  143.6930 O   0  0  0  0  0  0  0  0  0  0  0  0
  183.4660  179.0970  145.7470 O   0  0  0  0  0  1  0  0  0  0  0  0
  183.6100  179.0780  144.4830 C   0  0  0  0  0  0  0  0  0  0  0  0
  186.9330  178.8750  137.6820 N   0  0  0  0  0  2  0  0  0  0  0  0
  186.7060  178.1810  136.4760 N   0  0  0  0  0  0  0  0  0  0  0  0
  186.3830  176.9790  136.7490 O   0  0  0  0  0  1  0  0  0  0  0  0
  188.0810  177.9570  135.8960 C   0  0  0  0  0  1  0  0  0  0  0  0
  2 14  1  0  0  0  0
  3  8  1  0  0  0  0
  4 15  1  0  0  0  0
  5  9  1  0  0  0  0
  5  8  2  0  0  0  0
  6 17  1  0  0  0  0
  6  4  2  0  0  0  0
  7 12  1  0  0  0  0
  8 25  1  0  0  0  0
  9 23  1  0  0  0  0
 10 13  1  0  0  0  0
 11 21  2  0  0  0  0
 13  1  2  0  0  0  0
 13 11  1  0  0  0  0
 14 20  1  0  0  0  0
 15  2  2  0  0  0  0
 16 18  2  0  0  0  0
 17 19  2  0  0  0  0
 18  1  1  0  0  0  0
 18 17  1  0  0  0  0
 19 24  1  0  0  0  0
 21 28  1  0  0  0  0
 21  3  1  0  0  0  0
 22 16  1  0  0  0  0
 22 10  2  0  0  0  0
 23 14  2  0  0  0  0
 23  7  1  0  0  0  0
 24 15  1  0  0  0  0
 24  9  2  0  0  0  0
 25  7  2  0  0  0  0
 26 28  2  0  0  0  0
 28 27  1  0  0  0  0
 29 22  1  0  0  0  0
 30 31  1  0  0  0  0
 30 29  1  0  0  0  0
 32 30  1  0  0  0  0
M  END
>  <MODEL>
3

>  <REMARK>
 VINA RESULT:     -10.5      3.042      8.127
  Name = 
  3 active torsions:
  status: ('A' for Active; 'I' for Inactive)
    1  A    between atoms: N_4  and  N_6
    2  A    between atoms: N_4  and  C_29
    3  A    between atoms: C_22  and  CA_28
                            x       y       z     vdW  Elec       q    Type
                         _______ _______ _______ _____ _____    ______ ____

>  <TORSDO>
F 3

$$$$
=
 OpenBabel10222416293D

 32 36  0  0  0  0  0  0  0  0999 V2000
  188.8780  177.6970  144.0120 N   0  0  0  0  0  0  0  0  0  0  0  0
  187.9090  177.6250  138.3110 N   0  0  0  0  0  0  0  0  0  0  0  0
  185.5310  177.7320  143.4970 C   0  0  0  0  0  2  0  0  0  0  0  0
  189.9420  176.9340  139.6310 C   0  0  0  0  0  3  0  0  0  0  0  0
  186.4150  179.1830  141.8310 C   0  0  0  0  0  3  0  0  0  0  0  0
  190.5680  176.7520  140.9110 C   0  0  0  0  0  3  0  0  0  0  0  0
  184.6270  178.4710  139.9450 C   0  0  0  0  0  0  0  0  0  0  0  0
  185.2600  178.6630  142.3000 C   0  0  0  0  0  0  0  0  0  0  0  0
  186.9110  178.7690  140.5980 C   0  0  0  0  0  0  0  0  0  0  0  0
  189.6560  177.5470  146.1080 C   0  0  0  0  0  3  0  0  0  0  0  0
  187.2470  178.1760  145.6440 N   0  0  0  0  0  0  0  0  0  0  0  0
  183.5660  178.5340  139.0350 O   0  0  0  0  0  1  0  0  0  0  0  0
  188.6260  177.8930  145.2120 C   0  0  0  0  0  0  0  0  0  0  0  0
  186.6170  178.1480  138.3150 C   0  0  0  0  0  0  0  0  0  0  0  0
  188.5980  177.5630  139.5100 C   0  0  0  0  0  0  0  0  0  0  0  0
  191.0970  176.9460  144.2130 C   0  0  0  0  0  3  0  0  0  0  0  0
  189.7820  177.1860  142.0120 C   0  0  0  0  0  0  0  0  0  0  0  0
  190.0060  177.2620  143.4220 C   0  0  0  0  0  0  0  0  0  0  0  0
  188.6210  177.8090  141.7380 N   0  0  0  0  0  0  0  0  0  0  0  0
  185.8890  178.2610  137.0860 N   0  0  0  0  0  1  0  0  0  0  0  0
  185.8940  178.2530  144.9760 C   0  0  0  0  0  0  0  0  0  0  0  0
  190.9930  177.1310  145.6480 C   0  0  0  0  0  0  0  0  0  0  0  0
  186.0520  178.5620  139.5260 C   0  0  0  0  0  0  0  0  0  0  0  0
  188.0790  178.0740  140.6290 C   0  0  0  0  0  0  0  0  0  0  0  0
  184.3170  178.3980  141.3080 C   0  0  0  0  0  3  0  0  0  0  0  0
  184.9340  178.6280  147.2550 O   0  0  0  0  0  1  0  0  0  0  0  0
  183.7160  179.2310  145.4200 O   0  0  0  0  0  0  0  0  0  0  0  0
  184.7070  178.5890  145.8940 C   0  0  0  0  0  0  0  0  0  0  0  0
  191.9390  176.4380  146.5330 N   0  0  0  0  0  2  0  0  0  0  0  0
  191.8800  176.2960  147.9340 N   0  0  0  0  0  0  0  0  0  0  0  0
  192.0560  177.4380  148.4700 O   0  0  0  0  0  1  0  0  0  0  0  0
  193.1800  175.6280  148.3090 C   0  0  0  0  0  1  0  0  0  0  0  0
  1 13  2  0  0  0  0
  2 14  2  0  0  0  0
  2 15  1  0  0  0  0
  3 21  1  0  0  0  0
  4  6  1  0  0  0  0
  5  8  1  0  0  0  0
  6 17  2  0  0  0  0
  7 25  1  0  0  0  0
  8  3  1  0  0  0  0
  9 24  1  0  0  0  0
  9  5  2  0  0  0  0
 12  7  1  0  0  0  0
 13 11  1  0  0  0  0
 13 10  1  0  0  0  0
 14 23  1  0  0  0  0
 15  4  2  0  0  0  0
 15 24  1  0  0  0  0
 16 22  1  0  0  0  0
 17 18  1  0  0  0  0
 18  1  1  0  0  0  0
 18 16  2  0  0  0  0
 19 17  1  0  0  0  0
 20 14  1  0  0  0  0
 21 11  2  0  0  0  0
 21 28  1  0  0  0  0
 22 10  2  0  0  0  0
 22 29  1  0  0  0  0
 23  7  2  0  0  0  0
 23  9  1  0  0  0  0
 24 19  2  0  0  0  0
 25  8  2  0  0  0  0
 27 28  2  0  0  0  0
 28 26  1  0  0  0  0
 29 30  1  0  0  0  0
 30 32  1  0  0  0  0
 30 31  1  0  0  0  0
M  END
>  <MODEL>
4

>  <REMARK>
 VINA RESULT:     -10.1      2.643      5.129
  Name = 
  3 active torsions:
  status: ('A' for Active; 'I' for Inactive)
    1  A    between atoms: N_4  and  N_6
    2  A    between atoms: N_4  and  C_29
    3  A    between atoms: C_22  and  CA_28
                            x       y       z     vdW  Elec       q    Type
                         _______ _______ _______ _____ _____    ______ ____

>  <TORSDO>
F 3

$$$$
=
 OpenBabel10222416293D

 32 36  0  0  0  0  0  0  0  0999 V2000
  187.8760  177.8920  140.2950 N   0  0  0  0  0  0  0  0  0  0  0  0
  189.3930  177.6150  145.8690 N   0  0  0  0  0  0  0  0  0  0  0  0
  185.4600  179.3900  142.1350 C   0  0  0  0  0  2  0  0  0  0  0  0
  190.7960  177.4280  143.7840 C   0  0  0  0  0  3  0  0  0  0  0  0
  186.0850  177.4750  143.4020 C   0  0  0  0  0  3  0  0  0  0  0  0
  190.8700  177.4660  142.3490 C   0  0  0  0  0  3  0  0  0  0  0  0
  185.7860  178.6820  145.7920 C   0  0  0  0  0  0  0  0  0  0  0  0
  185.2600  178.5440  143.4070 C   0  0  0  0  0  0  0  0  0  0  0  0
  187.1580  177.4230  144.2880 C   0  0  0  0  0  0  0  0  0  0  0  0
  187.7330  177.9440  138.0600 C   0  0  0  0  0  3  0  0  0  0  0  0
  185.7340  178.4860  139.5160 N   0  0  0  0  0  0  0  0  0  0  0  0
  185.2870  179.0070  147.0580 O   0  0  0  0  0  1  0  0  0  0  0  0
  187.1140  178.0110  139.3230 C   0  0  0  0  0  0  0  0  0  0  0  0
  188.1300  177.7810  146.4340 C   0  0  0  0  0  0  0  0  0  0  0  0
  189.4890  177.5080  144.4920 C   0  0  0  0  0  0  0  0  0  0  0  0
  189.8920  177.5090  139.1460 C   0  0  0  0  0  3  0  0  0  0  0  0
  189.6140  177.6210  141.7040 C   0  0  0  0  0  0  0  0  0  0  0  0
  189.1980  177.6460  140.3360 C   0  0  0  0  0  0  0  0  0  0  0  0
  188.5120  177.5970  142.4770 N   0  0  0  0  0  0  0  0  0  0  0  0
  187.9900  177.8580  147.8590 N   0  0  0  0  0  1  0  0  0  0  0  0
  184.9060  178.9730  140.6830 C   0  0  0  0  0  0  0  0  0  0  0  0
  189.1570  177.6010  137.8980 C   0  0  0  0  0  0  0  0  0  0  0  0
  187.0130  177.8620  145.5970 C   0  0  0  0  0  0  0  0  0  0  0  0
  188.3950  177.4710  143.7270 C   0  0  0  0  0  0  0  0  0  0  0  0
  185.0460  179.0850  144.6740 C   0  0  0  0  0  3  0  0  0  0  0  0
  183.2010  179.9170  139.1150 O   0  0  0  0  0  0  0  0  0  0  0  0
  182.5020  178.8390  141.0030 O   0  0  0  0  0  1  0  0  0  0  0  0
  183.4580  179.3790  140.3600 C   0  0  0  0  0  0  0  0  0  0  0  0
  189.8870  177.8730  136.6530 N   0  0  0  0  0  2  0  0  0  0  0  0
  189.8670  177.1380  135.4500 N   0  0  0  0  0  0  0  0  0  0  0  0
  188.7690  177.3710  134.8460 O   0  0  0  0  0  1  0  0  0  0  0  0
  189.6340  175.7100  135.8750 C   0  0  0  0  0  1  0  0  0  0  0  0
  1 18  1  0  0  0  0
  2 14  1  0  0  0  0
  3  8  1  0  0  0  0
  4 15  1  0  0  0  0
  5  8  2  0  0  0  0
  5  9  1  0  0  0  0
  6  4  2  0  0  0  0
  7 12  1  0  0  0  0
  8 25  1  0  0  0  0
  9 23  1  0  0  0  0
 10 13  1  0  0  0  0
 11 21  2  0  0  0  0
 13 11  1  0  0  0  0
 13  1  2  0  0  0  0
 14 20  1  0  0  0  0
 15  2  2  0  0  0  0
 16 18  2  0  0  0  0
 17  6  1  0  0  0  0
 17 19  2  0  0  0  0
 18 17  1  0  0  0  0
 19 24  1  0  0  0  0
 21  3  1  0  0  0  0
 22 10  2  0  0  0  0
 22 16  1  0  0  0  0
 23  7  1  0  0  0  0
 23 14  2  0  0  0  0
 24  9  2  0  0  0  0
 24 15  1  0  0  0  0
 25  7  2  0  0  0  0
 26 28  2  0  0  0  0
 28 21  1  0  0  0  0
 28 27  1  0  0  0  0
 29 22  1  0  0  0  0
 30 32  1  0  0  0  0
 30 29  1  0  0  0  0
 31 30  1  0  0  0  0
M  END
>  <MODEL>
5

>  <REMARK>
 VINA RESULT:     -10.1      3.324      7.562
  Name = 
  3 active torsions:
  status: ('A' for Active; 'I' for Inactive)
    1  A    between atoms: N_4  and  N_6
    2  A    between atoms: N_4  and  C_29
    3  A    between atoms: C_22  and  CA_28
                            x       y       z     vdW  Elec       q    Type
                         _______ _______ _______ _____ _____    ______ ____

>  <TORSDO>
F 3

$$$$
=
 OpenBabel10222416293D

 32 36  0  0  0  0  0  0  0  0999 V2000
  187.0420  178.1670  141.3550 N   0  0  0  0  0  0  0  0  0  0  0  0
  188.0190  177.6800  147.0340 N   0  0  0  0  0  0  0  0  0  0  0  0
  189.9180  176.4340  141.7990 C   0  0  0  0  0  2  0  0  0  0  0  0
  185.8840  178.1480  145.7780 C   0  0  0  0  0  3  0  0  0  0  0  0
  189.9910  178.1580  143.4380 C   0  0  0  0  0  3  0  0  0  0  0  0
  185.2140  178.3060  144.5170 C   0  0  0  0  0  3  0  0  0  0  0  0
  191.1950  176.6370  145.3080 C   0  0  0  0  0  0  0  0  0  0  0  0
  190.6800  177.1000  142.9610 C   0  0  0  0  0  0  0  0  0  0  0  0
  189.3920  178.0880  144.6930 C   0  0  0  0  0  0  0  0  0  0  0  0
  186.2320  178.4200  139.2810 C   0  0  0  0  0  3  0  0  0  0  0  0
  188.6230  177.6870  139.6760 N   0  0  0  0  0  0  0  0  0  0  0  0
  192.1590  176.1430  146.1930 O   0  0  0  0  0  1  0  0  0  0  0  0
  187.3190  178.1820  140.1450 C   0  0  0  0  0  0  0  0  0  0  0  0
  189.3900  177.4390  146.9870 C   0  0  0  0  0  0  0  0  0  0  0  0
  187.3610  177.9730  145.8520 C   0  0  0  0  0  0  0  0  0  0  0  0
  184.7560  178.7010  141.2230 C   0  0  0  0  0  3  0  0  0  0  0  0
  186.0730  178.2420  143.3880 C   0  0  0  0  0  0  0  0  0  0  0  0
  185.8750  178.4040  141.9810 C   0  0  0  0  0  0  0  0  0  0  0  0
  187.3970  178.1610  143.6190 N   0  0  0  0  0  0  0  0  0  0  0  0
  190.1100  177.1690  148.1970 N   0  0  0  0  0  1  0  0  0  0  0  0
  189.8350  177.0460  140.3130 C   0  0  0  0  0  0  0  0  0  0  0  0
  184.8940  178.7810  139.7810 C   0  0  0  0  0  0  0  0  0  0  0  0
  190.0480  177.4750  145.7530 C   0  0  0  0  0  0  0  0  0  0  0  0
  188.0340  178.1150  144.7070 C   0  0  0  0  0  0  0  0  0  0  0  0
  191.3740  176.3910  143.9410 C   0  0  0  0  0  3  0  0  0  0  0  0
  192.2330  177.2260  139.6250 O   0  0  0  0  0  1  0  0  0  0  0  0
  190.9150  175.6280  138.6630 O   0  0  0  0  0  0  0  0  0  0  0  0
  190.9890  176.6900  139.3600 C   0  0  0  0  0  0  0  0  0  0  0  0
  183.6950  178.6800  138.9370 N   0  0  0  0  0  2  0  0  0  0  0  0
  182.8130  179.7080  138.5460 N   0  0  0  0  0  0  0  0  0  0  0  0
  183.3130  180.8290  138.8890 O   0  0  0  0  0  1  0  0  0  0  0  0
  181.6660  179.6240  139.5210 C   0  0  0  0  0  1  0  0  0  0  0  0
  1 18  1  0  0  0  0
  3  8  1  0  0  0  0
  4 15  1  0  0  0  0
  5  9  1  0  0  0  0
  6  4  2  0  0  0  0
  7 23  1  0  0  0  0
  7 12  1  0  0  0  0
  8  5  2  0  0  0  0
  8 25  1  0  0  0  0
  9 24  2  0  0  0  0
  9 23  1  0  0  0  0
 10 22  2  0  0  0  0
 10 13  1  0  0  0  0
 11 13  1  0  0  0  0
 11 21  2  0  0  0  0
 13  1  2  0  0  0  0
 14  2  1  0  0  0  0
 14 20  1  0  0  0  0
 15  2  2  0  0  0  0
 16 18  2  0  0  0  0
 17 19  2  0  0  0  0
 17  6  1  0  0  0  0
 18 17  1  0  0  0  0
 19 24  1  0  0  0  0
 21  3  1  0  0  0  0
 22 16  1  0  0  0  0
 23 14  2  0  0  0  0
 24 15  1  0  0  0  0
 25  7  2  0  0  0  0
 27 28  2  0  0  0  0
 28 26  1  0  0  0  0
 28 21  1  0  0  0  0
 29 22  1  0  0  0  0
 30 31  1  0  0  0  0
 30 29  1  0  0  0  0
 30 32  1  0  0  0  0
M  END
>  <MODEL>
6

>  <REMARK>
 VINA RESULT:      -9.8      2.410      7.326
  Name = 
  3 active torsions:
  status: ('A' for Active; 'I' for Inactive)
    1  A    between atoms: N_4  and  N_6
    2  A    between atoms: N_4  and  C_29
    3  A    between atoms: C_22  and  CA_28
                            x       y       z     vdW  Elec       q    Type
                         _______ _______ _______ _____ _____    ______ ____

>  <TORSDO>
F 3

$$$$
=
 OpenBabel10222416293D

 32 36  0  0  0  0  0  0  0  0999 V2000
  188.3860  177.6730  144.0920 N   0  0  0  0  0  0  0  0  0  0  0  0
  182.7780  179.0130  144.5420 N   0  0  0  0  0  0  0  0  0  0  0  0
  187.3650  178.9980  141.1470 C   0  0  0  0  0  2  0  0  0  0  0  0
  184.5210  178.6580  146.3280 C   0  0  0  0  0  3  0  0  0  0  0  0
  185.5650  177.6050  141.8400 C   0  0  0  0  0  3  0  0  0  0  0  0
  185.8900  178.3810  146.6660 C   0  0  0  0  0  3  0  0  0  0  0  0
  183.6420  179.2330  140.8870 C   0  0  0  0  0  0  0  0  0  0  0  0
  185.9580  178.4430  140.8570 C   0  0  0  0  0  0  0  0  0  0  0  0
  184.5540  177.9880  142.7170 C   0  0  0  0  0  0  0  0  0  0  0  0
  190.5540  177.1800  144.3710 C   0  0  0  0  0  3  0  0  0  0  0  0
  189.5890  177.5980  142.0680 N   0  0  0  0  0  0  0  0  0  0  0  0
  182.5900  179.7250  140.1070 O   0  0  0  0  0  1  0  0  0  0  0  0
  189.4540  177.4000  143.5200 C   0  0  0  0  0  0  0  0  0  0  0  0
  182.4610  179.0290  143.1850 C   0  0  0  0  0  0  0  0  0  0  0  0
  184.0510  178.6160  144.9150 C   0  0  0  0  0  0  0  0  0  0  0  0
  189.0970  177.4790  146.3250 C   0  0  0  0  0  3  0  0  0  0  0  0
  186.7240  178.1110  145.5490 C   0  0  0  0  0  0  0  0  0  0  0  0
  188.0950  177.7320  145.4040 C   0  0  0  0  0  0  0  0  0  0  0  0
  186.1360  178.0290  144.3410 N   0  0  0  0  0  0  0  0  0  0  0  0
  181.1420  179.3980  142.7650 N   0  0  0  0  0  1  0  0  0  0  0  0
  188.7210  178.1500  140.9610 C   0  0  0  0  0  0  0  0  0  0  0  0
  190.4160  177.1220  145.8370 C   0  0  0  0  0  0  0  0  0  0  0  0
  183.4400  178.6740  142.2510 C   0  0  0  0  0  0  0  0  0  0  0  0
  184.9270  178.1710  144.0110 C   0  0  0  0  0  0  0  0  0  0  0  0
  184.9210  179.2020  140.3160 C   0  0  0  0  0  3  0  0  0  0  0  0
  188.8010  179.0040  138.6110 O   0  0  0  0  0  0  0  0  0  0  0  0
  190.5370  177.7460  139.4000 O   0  0  0  0  0  1  0  0  0  0  0  0
  189.3400  178.1510  139.5530 C   0  0  0  0  0  0  0  0  0  0  0  0
  191.5730  177.2520  146.7330 N   0  0  0  0  0  2  0  0  0  0  0  0
  191.7540  176.6900  148.0130 N   0  0  0  0  0  0  0  0  0  0  0  0
  192.4190  177.5060  148.7300 O   0  0  0  0  0  1  0  0  0  0  0  0
  192.7890  175.6100  147.8170 C   0  0  0  0  0  1  0  0  0  0  0  0
  1 18  1  0  0  0  0
  2 15  1  0  0  0  0
  4  6  1  0  0  0  0
  5  9  1  0  0  0  0
  7 23  1  0  0  0  0
  8  3  1  0  0  0  0
  8  5  2  0  0  0  0
  9 24  1  0  0  0  0
 10 22  2  0  0  0  0
 11 13  1  0  0  0  0
 12  7  1  0  0  0  0
 13  1  2  0  0  0  0
 13 10  1  0  0  0  0
 14  2  2  0  0  0  0
 15  4  2  0  0  0  0
 17  6  2  0  0  0  0
 18 17  1  0  0  0  0
 18 16  2  0  0  0  0
 19 17  1  0  0  0  0
 20 14  1  0  0  0  0
 21  3  1  0  0  0  0
 21 11  2  0  0  0  0
 22 16  1  0  0  0  0
 22 29  1  0  0  0  0
 23  9  2  0  0  0  0
 23 14  1  0  0  0  0
 24 19  2  0  0  0  0
 24 15  1  0  0  0  0
 25  8  1  0  0  0  0
 25  7  2  0  0  0  0
 26 28  2  0  0  0  0
 27 28  1  0  0  0  0
 28 21  1  0  0  0  0
 29 30  1  0  0  0  0
 30 31  1  0  0  0  0
 32 30  1  0  0  0  0
M  END
>  <MODEL>
7

>  <REMARK>
 VINA RESULT:      -9.7      1.599      2.147
  Name = 
  3 active torsions:
  status: ('A' for Active; 'I' for Inactive)
    1  A    between atoms: N_4  and  N_6
    2  A    between atoms: N_4  and  C_29
    3  A    between atoms: C_22  and  CA_28
                            x       y       z     vdW  Elec       q    Type
                         _______ _______ _______ _____ _____    ______ ____

>  <TORSDO>
F 3

$$$$
=
 OpenBabel10222416293D

 32 36  0  0  0  0  0  0  0  0999 V2000
  185.7670  178.6260  143.6070 N   0  0  0  0  0  0  0  0  0  0  0  0
  189.6120  176.8880  147.5620 N   0  0  0  0  0  0  0  0  0  0  0  0
  188.2890  177.0220  142.0130 C   0  0  0  0  0  2  0  0  0  0  0  0
  187.1790  177.5010  147.8080 C   0  0  0  0  0  3  0  0  0  0  0  0
  189.3630  178.3170  143.6970 C   0  0  0  0  0  3  0  0  0  0  0  0
  185.9490  177.9060  147.1860 C   0  0  0  0  0  3  0  0  0  0  0  0
  191.2670  176.4800  144.2080 C   0  0  0  0  0  0  0  0  0  0  0  0
  189.6040  177.4450  142.6940 C   0  0  0  0  0  0  0  0  0  0  0  0
  189.5330  177.9180  145.0200 C   0  0  0  0  0  0  0  0  0  0  0  0
  183.9890  179.3040  142.4250 C   0  0  0  0  0  3  0  0  0  0  0  0
  186.1530  178.6520  141.2830 N   0  0  0  0  0  0  0  0  0  0  0  0
  192.5160  175.8550  144.2900 O   0  0  0  0  0  1  0  0  0  0  0  0
  185.3480  178.9400  142.4820 C   0  0  0  0  0  0  0  0  0  0  0  0
  190.7190  176.7520  146.7270 C   0  0  0  0  0  0  0  0  0  0  0  0
  188.4450  177.4080  147.0280 C   0  0  0  0  0  0  0  0  0  0  0  0
  183.8180  179.0300  144.8590 C   0  0  0  0  0  3  0  0  0  0  0  0
  186.0560  178.1620  145.7940 C   0  0  0  0  0  0  0  0  0  0  0  0
  185.1440  178.6360  144.7990 C   0  0  0  0  0  0  0  0  0  0  0  0
  187.2850  178.1130  145.2460 N   0  0  0  0  0  0  0  0  0  0  0  0
  191.9540  176.2530  147.2550 N   0  0  0  0  0  1  0  0  0  0  0  0
  187.4640  177.9580  140.9960 C   0  0  0  0  0  0  0  0  0  0  0  0
  183.1630  179.4530  143.6360 C   0  0  0  0  0  0  0  0  0  0  0  0
  190.6080  177.1160  145.3810 C   0  0  0  0  0  0  0  0  0  0  0  0
  188.4030  177.8550  145.7710 C   0  0  0  0  0  0  0  0  0  0  0  0
  190.6610  176.5720  142.9490 C   0  0  0  0  0  3  0  0  0  0  0  0
  186.9770  178.3130  138.5680 O   0  0  0  0  0  0  0  0  0  0  0  0
  189.1300  177.9360  139.2280 O   0  0  0  0  0  1  0  0  0  0  0  0
  187.8920  177.9080  139.5190 C   0  0  0  0  0  0  0  0  0  0  0  0
  181.6950  179.4760  143.5790 N   0  0  0  0  0  2  0  0  0  0  0  0
  180.8680  179.7010  142.4590 N   0  0  0  0  0  0  0  0  0  0  0  0
  180.0570  180.6450  142.7300 O   0  0  0  0  0  1  0  0  0  0  0  0
  179.9150  178.5320  142.4430 C   0  0  0  0  0  1  0  0  0  0  0  0
  1 18  1  0  0  0  0
  3  8  1  0  0  0  0
  5  9  1  0  0  0  0
  6  4  1  0  0  0  0
  7 12  1  0  0  0  0
  7 23  1  0  0  0  0
  8 25  1  0  0  0  0
  8  5  2  0  0  0  0
  9 23  2  0  0  0  0
  9 24  1  0  0  0  0
 10 13  1  0  0  0  0
 10 22  2  0  0  0  0
 11 13  1  0  0  0  0
 13  1  2  0  0  0  0
 14 20  1  0  0  0  0
 14  2  2  0  0  0  0
 15  2  1  0  0  0  0
 15  4  2  0  0  0  0
 17  6  2  0  0  0  0
 18 16  2  0  0  0  0
 18 17  1  0  0  0  0
 19 24  2  0  0  0  0
 19 17  1  0  0  0  0
 21 11  2  0  0  0  0
 21  3  1  0  0  0  0
 22 16  1  0  0  0  0
 23 14  1  0  0  0  0
 24 15  1  0  0  0  0
 25  7  2  0  0  0  0
 26 28  2  0  0  0  0
 27 28  1  0  0  0  0
 28 21  1  0  0  0  0
 29 22  1  0  0  0  0
 30 31  1  0  0  0  0
 30 29  1  0  0  0  0
 32 30  1  0  0  0  0
M  END
>  <MODEL>
8

>  <REMARK>
 VINA RESULT:      -9.6      2.166      7.287
  Name = 
  3 active torsions:
  status: ('A' for Active; 'I' for Inactive)
    1  A    between atoms: N_4  and  N_6
    2  A    between atoms: N_4  and  C_29
    3  A    between atoms: C_22  and  CA_28
                            x       y       z     vdW  Elec       q    Type
                         _______ _______ _______ _____ _____    ______ ____

>  <TORSDO>
F 3

$$$$
=
 OpenBabel10222416293D

 32 36  0  0  0  0  0  0  0  0999 V2000
  186.1340  178.4640  141.7430 N   0  0  0  0  0  0  0  0  0  0  0  0
  188.1650  177.3270  147.0370 N   0  0  0  0  0  0  0  0  0  0  0  0
  189.0550  176.7800  141.4270 C   0  0  0  0  0  2  0  0  0  0  0  0
  185.8290  177.8770  146.2680 C   0  0  0  0  0  3  0  0  0  0  0  0
  189.4220  178.2960  143.2250 C   0  0  0  0  0  3  0  0  0  0  0  0
  184.9320  178.1650  145.1830 C   0  0  0  0  0  3  0  0  0  0  0  0
  190.9680  176.5990  144.6350 C   0  0  0  0  0  0  0  0  0  0  0  0
  190.0170  177.3240  142.5010 C   0  0  0  0  0  0  0  0  0  0  0  0
  189.0710  178.0570  144.5510 C   0  0  0  0  0  0  0  0  0  0  0  0
  184.9460  178.9390  139.9040 C   0  0  0  0  0  3  0  0  0  0  0  0
  187.3750  178.2390  139.7540 N   0  0  0  0  0  0  0  0  0  0  0  0
  192.0850  176.0320  145.2580 O   0  0  0  0  0  1  0  0  0  0  0  0
  186.1780  178.6330  140.5140 C   0  0  0  0  0  0  0  0  0  0  0  0
  189.5060  177.1370  146.7070 C   0  0  0  0  0  0  0  0  0  0  0  0
  187.2950  177.7410  146.0430 C   0  0  0  0  0  0  0  0  0  0  0  0
  183.8590  178.9380  142.1060 C   0  0  0  0  0  3  0  0  0  0  0  0
  185.5640  178.2630  143.9150 C   0  0  0  0  0  0  0  0  0  0  0  0
  185.1040  178.5880  142.6000 C   0  0  0  0  0  0  0  0  0  0  0  0
  186.9080  178.1960  143.8830 N   0  0  0  0  0  0  0  0  0  0  0  0
  190.4420  176.7460  147.7190 N   0  0  0  0  0  1  0  0  0  0  0  0
  188.6900  177.5640  140.0700 C   0  0  0  0  0  0  0  0  0  0  0  0
  183.7230  179.1960  140.6840 C   0  0  0  0  0  0  0  0  0  0  0  0
  189.9190  177.3410  145.3860 C   0  0  0  0  0  0  0  0  0  0  0  0
  187.7390  178.0400  144.8200 C   0  0  0  0  0  0  0  0  0  0  0  0
  190.8880  176.5250  143.2390 C   0  0  0  0  0  3  0  0  0  0  0  0
  189.3390  177.9870  137.6920 O   0  0  0  0  0  0  0  0  0  0  0  0
  190.8540  177.0300  139.1070 O   0  0  0  0  0  1  0  0  0  0  0  0
  189.6460  177.3610  138.8830 C   0  0  0  0  0  0  0  0  0  0  0  0
  182.3870  179.1600  140.0730 N   0  0  0  0  0  2  0  0  0  0  0  0
  181.1340  179.0870  140.7150 N   0  0  0  0  0  0  0  0  0  0  0  0
  180.6330  177.9350  140.5050 O   0  0  0  0  0  1  0  0  0  0  0  0
  180.2170  179.9310  139.8660 C   0  0  0  0  0  1  0  0  0  0  0  0
  1 18  1  0  0  0  0
  3  8  1  0  0  0  0
  5  9  1  0  0  0  0
  6  4  2  0  0  0  0
  7 12  1  0  0  0  0
  7 23  1  0  0  0  0
  8  5  2  0  0  0  0
  8 25  1  0  0  0  0
  9 24  2  0  0  0  0
  9 23  1  0  0  0  0
 10 13  1  0  0  0  0
 10 22  2  0  0  0  0
 11 21  2  0  0  0  0
 11 13  1  0  0  0  0
 13  1  2  0  0  0  0
 14  2  1  0  0  0  0
 14 20  1  0  0  0  0
 15  4  1  0  0  0  0
 15  2  2  0  0  0  0
 16 18  2  0  0  0  0
 17  6  1  0  0  0  0
 18 17  1  0  0  0  0
 19 17  2  0  0  0  0
 19 24  1  0  0  0  0
 21  3  1  0  0  0  0
 22 16  1  0  0  0  0
 23 14  2  0  0  0  0
 24 15  1  0  0  0  0
 25  7  2  0  0  0  0
 26 28  2  0  0  0  0
 28 27  1  0  0  0  0
 28 21  1  0  0  0  0
 29 22  1  0  0  0  0
 29 30  1  0  0  0  0
 31 30  1  0  0  0  0
 32 30  1  0  0  0  0
M  END
>  <MODEL>
9

>  <REMARK>
 VINA RESULT:      -9.5      2.541      7.488
  Name = 
  3 active torsions:
  status: ('A' for Active; 'I' for Inactive)
    1  A    between atoms: N_4  and  N_6
    2  A    between atoms: N_4  and  C_29
    3  A    between atoms: C_22  and  CA_28
                            x       y       z     vdW  Elec       q    Type
                         _______ _______ _______ _____ _____    ______ ____

>  <TORSDO>
F 3

$$$$
