=
 OpenBabel10222416413D

 30 32  0  0  1  0  0  0  0  0999 V2000
  188.5320  177.9330  142.5740 C   0  0  2  0  0  3  0  0  0  0  0  0
  185.4470  179.1870  147.0760 N   0  0  0  0  0  0  0  0  0  0  0  0
  184.8950  178.3060  143.6670 C   0  0  0  0  0  3  0  0  0  0  0  0
  184.6760  179.1990  145.9110 N   0  0  0  0  0  2  0  0  0  0  0  0
  187.4820  177.7310  144.7850 C   0  0  0  0  0  3  0  0  0  0  0  0
  187.3190  177.8870  143.4590 C   0  0  0  0  0  0  0  0  0  0  0  0
  185.9540  178.0820  142.8800 C   0  0  0  0  0  3  0  0  0  0  0  0
  186.3940  178.3110  146.9840 C   0  0  0  0  0  3  0  0  0  0  0  0
  185.1250  178.2930  145.1140 C   0  0  2  0  0  3  0  0  0  0  0  0
  186.2890  177.5720  145.6910 C   0  0  1  0  0  3  0  0  0  0  0  0
  188.1640  178.4060  141.2090 C   0  0  0  0  0  3  0  0  0  0  0  0
  188.3020  177.6250  140.1870 N   0  0  0  0  0  0  0  0  0  0  0  0
  187.9980  178.0200  138.8410 C   0  0  0  0  0  0  0  0  0  0  0  0
  189.1630  178.6580  137.8660 S   0  0  0  0  0  0  0  0  0  0  0  0
  183.9680  177.8020  137.4810 C   0  0  0  0  0  3  0  0  0  0  0  0
  184.3400  178.6340  138.5370 C   0  0  0  0  0  0  0  0  0  0  0  0
  183.3220  179.4850  139.2090 C   0  0  0  0  0  1  0  0  0  0  0  0
  186.2630  177.0650  137.3010 C   0  0  0  0  0  3  0  0  0  0  0  0
  185.6340  178.6670  138.9540 N   0  0  0  0  0  0  0  0  0  0  0  0
  186.6040  177.9070  138.3680 C   0  0  0  0  0  0  0  0  0  0  0  0
  184.9390  177.0150  136.8600 C   0  0  0  0  0  3  0  0  0  0  0  0
  190.4090  176.2910  142.8950 C   0  0  0  0  0  3  0  0  0  0  0  0
  189.1710  176.5820  142.4810 C   0  0  0  0  0  3  0  0  0  0  0  0
  192.0100  178.0460  142.7430 O   0  0  0  0  0  0  0  0  0  0  0  0
  191.3840  177.2380  143.4760 C   0  0  0  0  0  0  0  0  0  0  0  0
  191.6510  177.2300  144.8790 N   0  0  0  0  0  2  0  0  0  0  0  0
  191.0230  176.2850  145.7920 C   0  0  0  0  0  2  0  0  0  0  0  0
  189.7650  177.4290  147.7340 C   0  0  0  0  0  1  0  0  0  0  0  0
  191.0160  176.8450  147.1720 C   0  0  0  0  0  0  0  0  0  0  0  0
  192.0420  176.8560  147.8320 O   0  0  0  0  0  0  0  0  0  0  0  0
  1 11  1  6  0  0  0
  1  6  1  0  0  0  0
  4  2  1  0  0  0  0
  6  5  2  0  0  0  0
  7  6  1  0  0  0  0
  7  3  2  0  0  0  0
  8  2  2  0  0  0  0
  9  3  1  6  0  0  0
  9 10  1  0  0  0  0
  9  4  1  0  0  0  0
 10  5  1  6  0  0  0
 10  8  1  0  0  0  0
 12 11  2  0  0  0  0
 13 12  1  0  0  0  0
 14 13  2  0  0  0  0
 15 16  1  0  0  0  0
 16 19  2  0  0  0  0
 16 17  1  0  0  0  0
 18 20  2  0  0  0  0
 20 13  1  0  0  0  0
 20 19  1  0  0  0  0
 21 18  1  0  0  0  0
 21 15  2  0  0  0  0
 22 25  1  0  0  0  0
 23  1  1  0  0  0  0
 23 22  2  0  0  0  0
 24 25  2  0  0  0  0
 25 26  1  0  0  0  0
 26 27  1  0  0  0  0
 27 29  1  0  0  0  0
 29 28  1  0  0  0  0
 29 30  2  0  0  0  0
M  END
>  <MODEL>
1

>  <REMARK>
 VINA RESULT:      -8.7      0.000      0.000
  Name = 
  8 active torsions:
  status: ('A' for Active; 'I' for Inactive)
    1  A    between atoms: C_1  and  C_24
    2  A    between atoms: C_4  and  C_18
    3  A    between atoms: C_5  and  C_24
    4  A    between atoms: N_10  and  C_15
    5  A    between atoms: C_15  and  C_17
    6  A    between atoms: C_19  and  C_23
    7  A    between atoms: C_19  and  N_29
    8  A    between atoms: C_22  and  C_24
                            x       y       z     vdW  Elec       q    Type
                         _______ _______ _______ _____ _____    ______ ____

>  <TORSDO>
F 8

$$$$
=
 OpenBabel10222416413D

 30 32  0  0  1  0  0  0  0  0999 V2000
  188.2670  177.2970  143.3890 C   0  0  2  0  0  3  0  0  0  0  0  0
  189.3030  178.5390  148.7500 N   0  0  0  0  0  0  0  0  0  0  0  0
  186.4710  177.7920  146.7200 C   0  0  0  0  0  3  0  0  0  0  0  0
  187.9380  178.6210  148.4630 N   0  0  0  0  0  2  0  0  0  0  0  0
  189.0630  177.0700  145.7010 C   0  0  0  0  0  3  0  0  0  0  0  0
  188.0240  177.2760  144.8710 C   0  0  0  0  0  0  0  0  0  0  0  0
  186.6590  177.5480  145.4170 C   0  0  0  0  0  3  0  0  0  0  0  0
  189.8650  177.6260  148.0260 C   0  0  0  0  0  3  0  0  0  0  0  0
  187.6490  177.7230  147.5870 C   0  0  2  0  0  3  0  0  0  0  0  0
  188.8430  176.9340  147.1860 C   0  0  1  0  0  3  0  0  0  0  0  0
  186.9750  177.3940  142.6510 C   0  0  0  0  0  3  0  0  0  0  0  0
  186.6090  178.5150  142.1180 N   0  0  0  0  0  0  0  0  0  0  0  0
  185.3680  178.6920  141.4210 C   0  0  0  0  0  0  0  0  0  0  0  0
  185.3360  178.8400  139.7800 S   0  0  0  0  0  0  0  0  0  0  0  0
  181.7390  178.9410  143.6370 C   0  0  0  0  0  3  0  0  0  0  0  0
  181.7420  178.7050  142.2620 C   0  0  0  0  0  0  0  0  0  0  0  0
  180.4580  178.5200  141.5360 C   0  0  0  0  0  1  0  0  0  0  0  0
  184.1530  179.0400  143.5890 C   0  0  0  0  0  3  0  0  0  0  0  0
  182.9200  178.6460  141.5840 N   0  0  0  0  0  0  0  0  0  0  0  0
  184.1230  178.8070  142.2070 C   0  0  0  0  0  0  0  0  0  0  0  0
  182.9540  179.1060  144.3020 C   0  0  0  0  0  3  0  0  0  0  0  0
  190.2060  176.0600  142.3720 C   0  0  0  0  0  3  0  0  0  0  0  0
  189.0010  176.0660  142.9550 C   0  0  0  0  0  3  0  0  0  0  0  0
  191.5380  177.9600  142.9030 O   0  0  0  0  0  0  0  0  0  0  0  0
  191.0110  177.2450  142.0120 C   0  0  0  0  0  0  0  0  0  0  0  0
  191.1810  177.6140  140.6420 N   0  0  0  0  0  2  0  0  0  0  0  0
  190.5530  176.8850  139.5500 C   0  0  0  0  0  2  0  0  0  0  0  0
  188.3270  176.8580  138.2420 C   0  0  0  0  0  1  0  0  0  0  0  0
  189.2640  177.5350  139.1840 C   0  0  0  0  0  0  0  0  0  0  0  0
  188.9880  178.6370  139.6290 O   0  0  0  0  0  0  0  0  0  0  0  0
  1 11  1  6  0  0  0
  1  6  1  0  0  0  0
  4  2  1  0  0  0  0
  6  7  1  0  0  0  0
  6  5  2  0  0  0  0
  7  3  2  0  0  0  0
  8  2  2  0  0  0  0
  9  3  1  6  0  0  0
  9  4  1  0  0  0  0
 10  5  1  6  0  0  0
 10  9  1  0  0  0  0
 10  8  1  0  0  0  0
 12 11  2  0  0  0  0
 13 12  1  0  0  0  0
 13 20  1  0  0  0  0
 14 13  2  0  0  0  0
 15 21  1  0  0  0  0
 16 15  2  0  0  0  0
 17 16  1  0  0  0  0
 18 21  2  0  0  0  0
 19 20  2  0  0  0  0
 19 16  1  0  0  0  0
 20 18  1  0  0  0  0
 22 23  2  0  0  0  0
 23  1  1  0  0  0  0
 25 22  1  0  0  0  0
 25 24  2  0  0  0  0
 26 25  1  0  0  0  0
 27 26  1  0  0  0  0
 28 29  1  0  0  0  0
 29 27  1  0  0  0  0
 29 30  2  0  0  0  0
M  END
>  <MODEL>
2

>  <REMARK>
 VINA RESULT:      -8.7      2.535      4.727
  Name = 
  8 active torsions:
  status: ('A' for Active; 'I' for Inactive)
    1  A    between atoms: C_1  and  C_24
    2  A    between atoms: C_4  and  C_18
    3  A    between atoms: C_5  and  C_24
    4  A    between atoms: N_10  and  C_15
    5  A    between atoms: C_15  and  C_17
    6  A    between atoms: C_19  and  C_23
    7  A    between atoms: C_19  and  N_29
    8  A    between atoms: C_22  and  C_24
                            x       y       z     vdW  Elec       q    Type
                         _______ _______ _______ _____ _____    ______ ____

>  <TORSDO>
F 8

$$$$
=
 OpenBabel10222416413D

 30 32  0  0  1  0  0  0  0  0999 V2000
  188.4950  177.4340  142.6300 C   0  0  2  0  0  3  0  0  0  0  0  0
  185.6080  179.3010  147.0500 N   0  0  0  0  0  0  0  0  0  0  0  0
  184.9600  178.4480  143.6510 C   0  0  0  0  0  3  0  0  0  0  0  0
  184.8660  179.4170  145.8710 N   0  0  0  0  0  2  0  0  0  0  0  0
  187.3960  177.4660  144.8250 C   0  0  0  0  0  3  0  0  0  0  0  0
  187.2800  177.6170  143.4940 C   0  0  0  0  0  0  0  0  0  0  0  0
  185.9770  178.0280  142.8870 C   0  0  0  0  0  3  0  0  0  0  0  0
  186.3920  178.2740  146.9930 C   0  0  0  0  0  3  0  0  0  0  0  0
  185.1640  178.4290  145.1010 C   0  0  2  0  0  3  0  0  0  0  0  0
  186.1800  177.5350  145.7140 C   0  0  1  0  0  3  0  0  0  0  0  0
  188.1320  177.5530  141.1890 C   0  0  0  0  0  3  0  0  0  0  0  0
  189.0140  177.3180  140.2710 N   0  0  0  0  0  0  0  0  0  0  0  0
  188.7470  177.4420  138.8670 C   0  0  0  0  0  0  0  0  0  0  0  0
  187.3050  178.0310  138.3300 S   0  0  0  0  0  0  0  0  0  0  0  0
  191.7170  176.0000  136.1750 C   0  0  0  0  0  3  0  0  0  0  0  0
  192.0030  176.2450  137.5180 C   0  0  0  0  0  0  0  0  0  0  0  0
  193.3700  175.9890  138.0460 C   0  0  0  0  0  1  0  0  0  0  0  0
  189.4450  176.7250  136.5650 C   0  0  0  0  0  3  0  0  0  0  0  0
  191.0330  176.7190  138.3460 N   0  0  0  0  0  0  0  0  0  0  0  0
  189.7650  176.9660  137.9080 C   0  0  0  0  0  0  0  0  0  0  0  0
  190.4270  176.2410  135.7000 C   0  0  0  0  0  3  0  0  0  0  0  0
  190.3910  175.9140  143.2760 C   0  0  0  0  0  3  0  0  0  0  0  0
  189.1260  176.0990  142.8790 C   0  0  0  0  0  3  0  0  0  0  0  0
  192.1490  177.3510  142.5630 O   0  0  0  0  0  0  0  0  0  0  0  0
  191.4030  176.9660  143.5000 C   0  0  0  0  0  0  0  0  0  0  0  0
  191.5680  177.5460  144.7950 N   0  0  0  0  0  2  0  0  0  0  0  0
  190.7950  177.1150  145.9510 C   0  0  0  0  0  2  0  0  0  0  0  0
  192.3550  175.2220  146.7570 C   0  0  0  0  0  1  0  0  0  0  0  0
  191.7060  176.5440  146.9830 C   0  0  0  0  0  0  0  0  0  0  0  0
  191.8940  177.1440  148.0290 O   0  0  0  0  0  0  0  0  0  0  0  0
  1 11  1  6  0  0  0
  1 23  1  0  0  0  0
  1  6  1  0  0  0  0
  4  2  1  0  0  0  0
  6  5  2  0  0  0  0
  7  6  1  0  0  0  0
  7  3  2  0  0  0  0
  8  2  2  0  0  0  0
  9  3  1  6  0  0  0
  9 10  1  0  0  0  0
  9  4  1  0  0  0  0
 10  5  1  6  0  0  0
 10  8  1  0  0  0  0
 12 11  2  0  0  0  0
 13 12  1  0  0  0  0
 14 13  2  0  0  0  0
 15 16  1  0  0  0  0
 16 17  1  0  0  0  0
 16 19  2  0  0  0  0
 18 20  2  0  0  0  0
 20 19  1  0  0  0  0
 20 13  1  0  0  0  0
 21 15  2  0  0  0  0
 21 18  1  0  0  0  0
 22 25  1  0  0  0  0
 23 22  2  0  0  0  0
 24 25  2  0  0  0  0
 25 26  1  0  0  0  0
 26 27  1  0  0  0  0
 27 29  1  0  0  0  0
 28 29  1  0  0  0  0
 29 30  2  0  0  0  0
M  END
>  <MODEL>
3

>  <REMARK>
 VINA RESULT:      -8.6      2.134      3.438
  Name = 
  8 active torsions:
  status: ('A' for Active; 'I' for Inactive)
    1  A    between atoms: C_1  and  C_24
    2  A    between atoms: C_4  and  C_18
    3  A    between atoms: C_5  and  C_24
    4  A    between atoms: N_10  and  C_15
    5  A    between atoms: C_15  and  C_17
    6  A    between atoms: C_19  and  C_23
    7  A    between atoms: C_19  and  N_29
    8  A    between atoms: C_22  and  C_24
                            x       y       z     vdW  Elec       q    Type
                         _______ _______ _______ _____ _____    ______ ____

>  <TORSDO>
F 8

$$$$
=
 OpenBabel10222416413D

 30 32  0  0  1  0  0  0  0  0999 V2000
  189.4280  177.7250  143.5780 C   0  0  2  0  0  3  0  0  0  0  0  0
  189.9120  175.8780  138.3140 N   0  0  0  0  0  0  0  0  0  0  0  0
  187.9430  178.2500  140.1020 C   0  0  0  0  0  3  0  0  0  0  0  0
  188.7500  176.6360  138.4830 N   0  0  0  0  0  2  0  0  0  0  0  0
  190.3700  177.3330  141.3450 C   0  0  0  0  0  3  0  0  0  0  0  0
  189.3560  177.8220  142.0810 C   0  0  0  0  0  0  0  0  0  0  0  0
  188.1430  178.3910  141.4190 C   0  0  0  0  0  3  0  0  0  0  0  0
  190.8510  176.3080  139.0920 C   0  0  0  0  0  3  0  0  0  0  0  0
  188.9900  177.5680  139.3390 C   0  0  2  0  0  3  0  0  0  0  0  0
  190.3850  177.5080  139.8480 C   0  0  1  0  0  3  0  0  0  0  0  0
  188.2220  178.3440  144.1990 C   0  0  0  0  0  3  0  0  0  0  0  0
  187.2540  177.6020  144.6300 N   0  0  0  0  0  0  0  0  0  0  0  0
  186.0510  178.1260  145.2100 C   0  0  0  0  0  0  0  0  0  0  0  0
  185.9120  178.3130  146.8420 S   0  0  0  0  0  0  0  0  0  0  0  0
  182.7860  178.9220  142.5930 C   0  0  0  0  0  3  0  0  0  0  0  0
  184.0210  178.4850  142.1120 C   0  0  0  0  0  0  0  0  0  0  0  0
  184.2180  178.2730  140.6530 C   0  0  0  0  0  1  0  0  0  0  0  0
  183.6820  178.8650  144.8370 C   0  0  0  0  0  3  0  0  0  0  0  0
  185.0460  178.2550  142.9760 N   0  0  0  0  0  0  0  0  0  0  0  0
  184.9120  178.4330  144.3220 C   0  0  0  0  0  0  0  0  0  0  0  0
  182.6190  179.1090  143.9660 C   0  0  0  0  0  3  0  0  0  0  0  0
  191.6450  177.7890  144.7640 C   0  0  0  0  0  3  0  0  0  0  0  0
  190.6600  178.4010  144.0940 C   0  0  0  0  0  3  0  0  0  0  0  0
  191.8430  175.4650  144.2870 O   0  0  0  0  0  0  0  0  0  0  0  0
  191.6870  176.3650  145.1530 C   0  0  0  0  0  0  0  0  0  0  0  0
  191.5220  175.9850  146.5200 N   0  0  0  0  0  2  0  0  0  0  0  0
  191.2700  176.9520  147.5780 C   0  0  0  0  0  2  0  0  0  0  0  0
  189.2980  178.4050  148.3950 C   0  0  0  0  0  1  0  0  0  0  0  0
  189.8040  177.1770  147.7170 C   0  0  0  0  0  0  0  0  0  0  0  0
  189.0160  176.3410  147.3060 O   0  0  0  0  0  0  0  0  0  0  0  0
  1 23  1  1  0  0  0
  1 11  1  0  0  0  0
  2  4  1  0  0  0  0
  2  8  2  0  0  0  0
  3  7  2  0  0  0  0
  4  9  1  0  0  0  0
  5  6  2  0  0  0  0
  6  1  1  0  0  0  0
  7  6  1  0  0  0  0
  9 10  1  0  0  0  0
  9  3  1  1  0  0  0
 10  8  1  6  0  0  0
 10  5  1  0  0  0  0
 11 12  2  0  0  0  0
 12 13  1  0  0  0  0
 13 14  2  0  0  0  0
 15 21  1  0  0  0  0
 16 15  2  0  0  0  0
 16 19  1  0  0  0  0
 17 16  1  0  0  0  0
 19 20  2  0  0  0  0
 20 18  1  0  0  0  0
 20 13  1  0  0  0  0
 21 18  2  0  0  0  0
 22 25  1  0  0  0  0
 23 22  2  0  0  0  0
 24 25  2  0  0  0  0
 25 26  1  0  0  0  0
 26 27  1  0  0  0  0
 27 29  1  0  0  0  0
 29 28  1  0  0  0  0
 30 29  2  0  0  0  0
M  END
>  <MODEL>
4

>  <REMARK>
 VINA RESULT:      -8.3      2.759      5.392
  Name = 
  8 active torsions:
  status: ('A' for Active; 'I' for Inactive)
    1  A    between atoms: C_1  and  C_24
    2  A    between atoms: C_4  and  C_18
    3  A    between atoms: C_5  and  C_24
    4  A    between atoms: N_10  and  C_15
    5  A    between atoms: C_15  and  C_17
    6  A    between atoms: C_19  and  C_23
    7  A    between atoms: C_19  and  N_29
    8  A    between atoms: C_22  and  C_24
                            x       y       z     vdW  Elec       q    Type
                         _______ _______ _______ _____ _____    ______ ____

>  <TORSDO>
F 8

$$$$
=
 OpenBabel10222416413D

 30 32  0  0  1  0  0  0  0  0999 V2000
  188.6610  177.5590  142.4240 C   0  0  2  0  0  3  0  0  0  0  0  0
  185.4140  179.2990  146.6400 N   0  0  0  0  0  0  0  0  0  0  0  0
  185.0240  178.3960  143.2150 C   0  0  0  0  0  3  0  0  0  0  0  0
  184.7420  179.3700  145.4170 N   0  0  0  0  0  2  0  0  0  0  0  0
  187.4280  177.5460  144.5470 C   0  0  0  0  0  3  0  0  0  0  0  0
  187.3870  177.6840  143.2090 C   0  0  0  0  0  0  0  0  0  0  0  0
  186.1060  178.0240  142.5200 C   0  0  0  0  0  3  0  0  0  0  0  0
  186.2520  178.3140  146.6410 C   0  0  0  0  0  3  0  0  0  0  0  0
  185.1380  178.3950  144.6750 C   0  0  2  0  0  3  0  0  0  0  0  0
  186.1580  177.5570  145.3580 C   0  0  1  0  0  3  0  0  0  0  0  0
  188.3800  177.6170  140.9610 C   0  0  0  0  0  3  0  0  0  0  0  0
  189.2990  177.3070  140.1050 N   0  0  0  0  0  0  0  0  0  0  0  0
  189.1120  177.3680  138.6840 C   0  0  0  0  0  0  0  0  0  0  0  0
  188.9950  178.8180  137.9100 S   0  0  0  0  0  0  0  0  0  0  0  0
  188.5960  173.7740  136.4570 C   0  0  0  0  0  3  0  0  0  0  0  0
  187.5190  174.6030  136.7700 C   0  0  0  0  0  0  0  0  0  0  0  0
  186.1490  174.2460  136.3120 C   0  0  0  0  0  1  0  0  0  0  0  0
  190.0600  175.2970  137.6320 C   0  0  0  0  0  3  0  0  0  0  0  0
  187.7190  175.7360  137.4950 N   0  0  0  0  0  0  0  0  0  0  0  0
  188.9560  176.1050  137.9350 C   0  0  0  0  0  0  0  0  0  0  0  0
  189.8750  174.1280  136.8900 C   0  0  0  0  0  3  0  0  0  0  0  0
  190.5480  176.1850  143.3610 C   0  0  0  0  0  3  0  0  0  0  0  0
  189.3610  176.2760  142.7490 C   0  0  0  0  0  3  0  0  0  0  0  0
  191.6800  178.2460  142.9940 O   0  0  0  0  0  0  0  0  0  0  0  0
  191.4010  177.3120  143.7890 C   0  0  0  0  0  0  0  0  0  0  0  0
  191.9480  177.3440  145.1090 N   0  0  0  0  0  2  0  0  0  0  0  0
  191.7340  176.2740  146.0720 C   0  0  0  0  0  2  0  0  0  0  0  0
  189.7460  177.1100  147.4910 C   0  0  0  0  0  1  0  0  0  0  0  0
  191.2040  176.8380  147.3450 C   0  0  0  0  0  0  0  0  0  0  0  0
  191.9690  177.1100  148.2570 O   0  0  0  0  0  0  0  0  0  0  0  0
  1 11  1  6  0  0  0
  1 23  1  0  0  0  0
  1  6  1  0  0  0  0
  2  8  2  0  0  0  0
  4  2  1  0  0  0  0
  6  5  2  0  0  0  0
  7  6  1  0  0  0  0
  7  3  2  0  0  0  0
  9  3  1  6  0  0  0
  9 10  1  0  0  0  0
  9  4  1  0  0  0  0
 10  5  1  6  0  0  0
 10  8  1  0  0  0  0
 12 11  2  0  0  0  0
 13 12  1  0  0  0  0
 14 13  2  0  0  0  0
 15 16  2  0  0  0  0
 15 21  1  0  0  0  0
 16 19  1  0  0  0  0
 17 16  1  0  0  0  0
 18 20  1  0  0  0  0
 19 20  2  0  0  0  0
 20 13  1  0  0  0  0
 21 18  2  0  0  0  0
 22 25  1  0  0  0  0
 23 22  2  0  0  0  0
 24 25  2  0  0  0  0
 25 26  1  0  0  0  0
 26 27  1  0  0  0  0
 27 29  1  0  0  0  0
 29 28  1  0  0  0  0
 29 30  2  0  0  0  0
M  END
>  <MODEL>
5

>  <REMARK>
 VINA RESULT:      -8.3      1.868      2.541
  Name = 
  8 active torsions:
  status: ('A' for Active; 'I' for Inactive)
    1  A    between atoms: C_1  and  C_24
    2  A    between atoms: C_4  and  C_18
    3  A    between atoms: C_5  and  C_24
    4  A    between atoms: N_10  and  C_15
    5  A    between atoms: C_15  and  C_17
    6  A    between atoms: C_19  and  C_23
    7  A    between atoms: C_19  and  N_29
    8  A    between atoms: C_22  and  C_24
                            x       y       z     vdW  Elec       q    Type
                         _______ _______ _______ _____ _____    ______ ____

>  <TORSDO>
F 8

$$$$
=
 OpenBabel10222416413D

 30 32  0  0  1  0  0  0  0  0999 V2000
  187.8040  177.9810  143.3330 C   0  0  2  0  0  3  0  0  0  0  0  0
  188.8580  178.2620  148.8250 N   0  0  0  0  0  0  0  0  0  0  0  0
  186.0500  178.6230  146.6600 C   0  0  0  0  0  3  0  0  0  0  0  0
  187.5960  178.7800  148.5210 N   0  0  0  0  0  2  0  0  0  0  0  0
  188.3670  177.2750  145.6160 C   0  0  0  0  0  3  0  0  0  0  0  0
  187.4830  177.8720  144.7960 C   0  0  0  0  0  0  0  0  0  0  0  0
  186.2310  178.4780  145.3420 C   0  0  0  0  0  3  0  0  0  0  0  0
  189.1660  177.3080  148.0070 C   0  0  0  0  0  3  0  0  0  0  0  0
  187.1050  178.1100  147.5380 C   0  0  2  0  0  3  0  0  0  0  0  0
  188.0340  177.0500  147.0680 C   0  0  1  0  0  3  0  0  0  0  0  0
  186.6700  178.6090  142.5960 C   0  0  0  0  0  3  0  0  0  0  0  0
  185.6490  177.8990  142.2370 N   0  0  0  0  0  0  0  0  0  0  0  0
  184.5370  178.4260  141.5000 C   0  0  0  0  0  0  0  0  0  0  0  0
  184.7040  178.8690  139.9220 S   0  0  0  0  0  0  0  0  0  0  0  0
  180.7940  178.9370  143.4690 C   0  0  0  0  0  3  0  0  0  0  0  0
  180.8770  178.7530  142.0880 C   0  0  0  0  0  0  0  0  0  0  0  0
  179.6370  178.7180  141.2670 C   0  0  0  0  0  1  0  0  0  0  0  0
  183.2050  178.8080  143.5920 C   0  0  0  0  0  3  0  0  0  0  0  0
  182.0900  178.6080  141.4920 N   0  0  0  0  0  0  0  0  0  0  0  0
  183.2540  178.6300  142.2030 C   0  0  0  0  0  0  0  0  0  0  0  0
  181.9690  178.9610  144.2230 C   0  0  0  0  0  3  0  0  0  0  0  0
  189.0520  176.3760  141.8530 C   0  0  0  0  0  3  0  0  0  0  0  0
  188.0930  176.6320  142.7510 C   0  0  0  0  0  3  0  0  0  0  0  0
  189.6660  177.9360  140.1630 O   0  0  0  0  0  0  0  0  0  0  0  0
  189.9660  177.3620  141.2420 C   0  0  0  0  0  0  0  0  0  0  0  0
  191.2230  177.6590  141.8540 N   0  0  0  0  0  2  0  0  0  0  0  0
  191.6810  176.9940  143.0650 C   0  0  0  0  0  2  0  0  0  0  0  0
  191.2840  179.3680  143.9990 C   0  0  0  0  0  1  0  0  0  0  0  0
  191.5650  177.9220  144.2250 C   0  0  0  0  0  0  0  0  0  0  0  0
  191.7320  177.5040  145.3590 O   0  0  0  0  0  0  0  0  0  0  0  0
  1 11  1  6  0  0  0
  1  6  1  0  0  0  0
  4  2  1  0  0  0  0
  6  7  1  0  0  0  0
  6  5  2  0  0  0  0
  7  3  2  0  0  0  0
  8  2  2  0  0  0  0
  9  3  1  6  0  0  0
  9  4  1  0  0  0  0
 10  5  1  6  0  0  0
 10  9  1  0  0  0  0
 10  8  1  0  0  0  0
 12 11  2  0  0  0  0
 13 20  1  0  0  0  0
 13 12  1  0  0  0  0
 14 13  2  0  0  0  0
 15 21  1  0  0  0  0
 16 15  2  0  0  0  0
 17 16  1  0  0  0  0
 18 21  2  0  0  0  0
 19 16  1  0  0  0  0
 19 20  2  0  0  0  0
 20 18  1  0  0  0  0
 22 23  2  0  0  0  0
 23  1  1  0  0  0  0
 24 25  2  0  0  0  0
 25 22  1  0  0  0  0
 25 26  1  0  0  0  0
 26 27  1  0  0  0  0
 27 29  1  0  0  0  0
 28 29  1  0  0  0  0
 29 30  2  0  0  0  0
M  END
>  <MODEL>
6

>  <REMARK>
 VINA RESULT:      -8.2      2.720      3.952
  Name = 
  8 active torsions:
  status: ('A' for Active; 'I' for Inactive)
    1  A    between atoms: C_1  and  C_24
    2  A    between atoms: C_4  and  C_18
    3  A    between atoms: C_5  and  C_24
    4  A    between atoms: N_10  and  C_15
    5  A    between atoms: C_15  and  C_17
    6  A    between atoms: C_19  and  C_23
    7  A    between atoms: C_19  and  N_29
    8  A    between atoms: C_22  and  C_24
                            x       y       z     vdW  Elec       q    Type
                         _______ _______ _______ _____ _____    ______ ____

>  <TORSDO>
F 8

$$$$
=
 OpenBabel10222416413D

 30 32  0  0  1  0  0  0  0  0999 V2000
  188.4790  177.8660  142.5030 C   0  0  2  0  0  3  0  0  0  0  0  0
  185.6880  179.2130  147.1670 N   0  0  0  0  0  0  0  0  0  0  0  0
  184.9270  178.4510  143.7700 C   0  0  0  0  0  3  0  0  0  0  0  0
  184.8680  179.3030  146.0390 N   0  0  0  0  0  2  0  0  0  0  0  0
  187.5180  177.6810  144.7550 C   0  0  0  0  0  3  0  0  0  0  0  0
  187.3060  177.8790  143.4410 C   0  0  0  0  0  0  0  0  0  0  0  0
  185.9330  178.1760  142.9310 C   0  0  0  0  0  3  0  0  0  0  0  0
  186.5700  178.2800  147.0140 C   0  0  0  0  0  3  0  0  0  0  0  0
  185.2200  178.3880  145.2040 C   0  0  2  0  0  3  0  0  0  0  0  0
  186.3590  177.5800  145.7120 C   0  0  1  0  0  3  0  0  0  0  0  0
  188.0680  178.3380  141.1500 C   0  0  0  0  0  3  0  0  0  0  0  0
  188.2540  177.5890  140.1110 N   0  0  0  0  0  0  0  0  0  0  0  0
  187.9140  177.9880  138.7760 C   0  0  0  0  0  0  0  0  0  0  0  0
  189.0530  178.6200  137.7670 S   0  0  0  0  0  0  0  0  0  0  0  0
  183.8430  177.7960  137.5360 C   0  0  0  0  0  3  0  0  0  0  0  0
  184.2490  178.6090  138.5940 C   0  0  0  0  0  0  0  0  0  0  0  0
  183.2520  179.4480  139.3120 C   0  0  0  0  0  1  0  0  0  0  0  0
  186.1310  177.0610  137.2720 C   0  0  0  0  0  3  0  0  0  0  0  0
  185.5550  178.6340  138.9720 N   0  0  0  0  0  0  0  0  0  0  0  0
  186.5060  177.8840  138.3430 C   0  0  0  0  0  0  0  0  0  0  0  0
  184.7940  177.0200  136.8710 C   0  0  0  0  0  3  0  0  0  0  0  0
  190.3670  176.2120  142.3580 C   0  0  0  0  0  3  0  0  0  0  0  0
  189.0590  176.4900  142.3990 C   0  0  0  0  0  3  0  0  0  0  0  0
  191.8730  177.7040  143.4420 O   0  0  0  0  0  0  0  0  0  0  0  0
  191.4720  177.1930  142.3640 C   0  0  0  0  0  0  0  0  0  0  0  0
  192.0850  177.6000  141.1390 N   0  0  0  0  0  2  0  0  0  0  0  0
  191.6410  177.1130  139.8410 C   0  0  0  0  0  2  0  0  0  0  0  0
  192.6350  176.3630  137.5800 C   0  0  0  0  0  1  0  0  0  0  0  0
  192.8210  176.7560  139.0050 C   0  0  0  0  0  0  0  0  0  0  0  0
  193.9380  176.7520  139.4970 O   0  0  0  0  0  0  0  0  0  0  0  0
  1 11  1  6  0  0  0
  1  6  1  0  0  0  0
  4  2  1  0  0  0  0
  6  5  2  0  0  0  0
  7  6  1  0  0  0  0
  7  3  2  0  0  0  0
  8  2  2  0  0  0  0
  9  3  1  6  0  0  0
  9 10  1  0  0  0  0
  9  4  1  0  0  0  0
 10  5  1  6  0  0  0
 10  8  1  0  0  0  0
 12 11  2  0  0  0  0
 13 12  1  0  0  0  0
 14 13  2  0  0  0  0
 15 16  1  0  0  0  0
 16 19  2  0  0  0  0
 16 17  1  0  0  0  0
 18 20  2  0  0  0  0
 20 13  1  0  0  0  0
 20 19  1  0  0  0  0
 21 18  1  0  0  0  0
 21 15  2  0  0  0  0
 22 25  1  0  0  0  0
 22 23  2  0  0  0  0
 23  1  1  0  0  0  0
 25 24  2  0  0  0  0
 26 25  1  0  0  0  0
 27 26  1  0  0  0  0
 28 29  1  0  0  0  0
 29 30  2  0  0  0  0
 29 27  1  0  0  0  0
M  END
>  <MODEL>
7

>  <REMARK>
 VINA RESULT:      -8.2      1.745      3.209
  Name = 
  8 active torsions:
  status: ('A' for Active; 'I' for Inactive)
    1  A    between atoms: C_1  and  C_24
    2  A    between atoms: C_4  and  C_18
    3  A    between atoms: C_5  and  C_24
    4  A    between atoms: N_10  and  C_15
    5  A    between atoms: C_15  and  C_17
    6  A    between atoms: C_19  and  C_23
    7  A    between atoms: C_19  and  N_29
    8  A    between atoms: C_22  and  C_24
                            x       y       z     vdW  Elec       q    Type
                         _______ _______ _______ _____ _____    ______ ____

>  <TORSDO>
F 8

$$$$
=
 OpenBabel10222416413D

 30 32  0  0  1  0  0  0  0  0999 V2000
  186.7010  177.6080  143.4350 C   0  0  2  0  0  3  0  0  0  0  0  0
  189.2170  178.4260  148.3700 N   0  0  0  0  0  0  0  0  0  0  0  0
  185.9200  178.6170  147.0320 C   0  0  0  0  0  3  0  0  0  0  0  0
  187.9150  178.9330  148.3720 N   0  0  0  0  0  2  0  0  0  0  0  0
  187.8750  177.1270  145.5380 C   0  0  0  0  0  3  0  0  0  0  0  0
  186.7940  177.6540  144.9340 C   0  0  0  0  0  0  0  0  0  0  0  0
  185.7340  178.3360  145.7360 C   0  0  0  0  0  3  0  0  0  0  0  0
  189.2980  177.3880  147.6030 C   0  0  0  0  0  3  0  0  0  0  0  0
  187.1800  178.1770  147.6350 C   0  0  2  0  0  3  0  0  0  0  0  0
  187.9560  177.0570  147.0410 C   0  0  1  0  0  3  0  0  0  0  0  0
  187.9690  177.0870  142.8500 C   0  0  0  0  0  3  0  0  0  0  0  0
  188.7340  177.8620  142.1500 N   0  0  0  0  0  0  0  0  0  0  0  0
  189.9510  177.4240  141.5310 C   0  0  0  0  0  0  0  0  0  0  0  0
  191.2990  177.1290  142.4320 S   0  0  0  0  0  0  0  0  0  0  0  0
  190.0570  176.9840  137.2950 C   0  0  0  0  0  3  0  0  0  0  0  0
  190.6650  176.0580  138.1430 C   0  0  0  0  0  0  0  0  0  0  0  0
  191.3600  174.8730  137.5740 C   0  0  0  0  0  1  0  0  0  0  0  0
  189.3700  178.2530  139.2350 C   0  0  0  0  0  3  0  0  0  0  0  0
  190.6230  176.2380  139.4910 N   0  0  0  0  0  0  0  0  0  0  0  0
  189.9950  177.3070  140.0590 C   0  0  0  0  0  0  0  0  0  0  0  0
  189.4040  178.0860  137.8490 C   0  0  0  0  0  3  0  0  0  0  0  0
  185.2230  179.3780  142.4320 C   0  0  0  0  0  3  0  0  0  0  0  0
  186.4150  178.9690  142.8810 C   0  0  0  0  0  3  0  0  0  0  0  0
  183.3410  178.2880  143.4010 O   0  0  0  0  0  0  0  0  0  0  0  0
  183.9890  178.5680  142.3590 C   0  0  0  0  0  0  0  0  0  0  0  0
  183.5290  178.0640  141.1040 N   0  0  0  0  0  2  0  0  0  0  0  0
  184.2510  178.2810  139.8600 C   0  0  0  0  0  2  0  0  0  0  0  0
  182.3760  179.1980  138.3410 C   0  0  0  0  0  1  0  0  0  0  0  0
  183.6360  179.4110  139.1080 C   0  0  0  0  0  0  0  0  0  0  0  0
  184.1810  180.5030  139.0930 O   0  0  0  0  0  0  0  0  0  0  0  0
  1 11  1  6  0  0  0
  1  6  1  0  0  0  0
  2  4  1  0  0  0  0
  6  5  2  0  0  0  0
  6  7  1  0  0  0  0
  7  3  2  0  0  0  0
  8  2  2  0  0  0  0
  9  3  1  6  0  0  0
  9  4  1  0  0  0  0
 10  5  1  6  0  0  0
 10  8  1  0  0  0  0
 10  9  1  0  0  0  0
 12 11  2  0  0  0  0
 13 12  1  0  0  0  0
 13 14  2  0  0  0  0
 15 21  2  0  0  0  0
 15 16  1  0  0  0  0
 16 19  2  0  0  0  0
 17 16  1  0  0  0  0
 18 20  2  0  0  0  0
 19 20  1  0  0  0  0
 20 13  1  0  0  0  0
 21 18  1  0  0  0  0
 22 23  2  0  0  0  0
 23  1  1  0  0  0  0
 25 22  1  0  0  0  0
 25 24  2  0  0  0  0
 26 25  1  0  0  0  0
 27 26  1  0  0  0  0
 28 29  1  0  0  0  0
 29 27  1  0  0  0  0
 30 29  2  0  0  0  0
M  END
>  <MODEL>
8

>  <REMARK>
 VINA RESULT:      -8.1      3.308      6.227
  Name = 
  8 active torsions:
  status: ('A' for Active; 'I' for Inactive)
    1  A    between atoms: C_1  and  C_24
    2  A    between atoms: C_4  and  C_18
    3  A    between atoms: C_5  and  C_24
    4  A    between atoms: N_10  and  C_15
    5  A    between atoms: C_15  and  C_17
    6  A    between atoms: C_19  and  C_23
    7  A    between atoms: C_19  and  N_29
    8  A    between atoms: C_22  and  C_24
                            x       y       z     vdW  Elec       q    Type
                         _______ _______ _______ _____ _____    ______ ____

>  <TORSDO>
F 8

$$$$
=
 OpenBabel10222416413D

 30 32  0  0  1  0  0  0  0  0999 V2000
  186.7030  177.6260  143.3420 C   0  0  2  0  0  3  0  0  0  0  0  0
  189.1940  178.3460  148.3050 N   0  0  0  0  0  0  0  0  0  0  0  0
  185.8950  178.5060  146.9660 C   0  0  0  0  0  3  0  0  0  0  0  0
  187.8810  178.8250  148.3200 N   0  0  0  0  0  2  0  0  0  0  0  0
  187.8850  177.1060  145.4310 C   0  0  0  0  0  3  0  0  0  0  0  0
  186.7940  177.6270  144.8410 C   0  0  0  0  0  0  0  0  0  0  0  0
  185.7170  178.2600  145.6620 C   0  0  0  0  0  3  0  0  0  0  0  0
  189.2990  177.3350  147.5060 C   0  0  0  0  0  3  0  0  0  0  0  0
  187.1640  178.0750  147.5580 C   0  0  2  0  0  3  0  0  0  0  0  0
  187.9650  176.9920  146.9310 C   0  0  1  0  0  3  0  0  0  0  0  0
  187.9780  177.1370  142.7440 C   0  0  0  0  0  3  0  0  0  0  0  0
  188.6820  177.9100  141.9820 N   0  0  0  0  0  0  0  0  0  0  0  0
  189.9010  177.4990  141.3470 C   0  0  0  0  0  0  0  0  0  0  0  0
  191.2680  177.2410  142.2300 S   0  0  0  0  0  0  0  0  0  0  0  0
  189.9530  177.2540  137.0950 C   0  0  0  0  0  3  0  0  0  0  0  0
  188.9590  177.9570  137.7760 C   0  0  0  0  0  0  0  0  0  0  0  0
  187.8890  178.6570  137.0150 C   0  0  0  0  0  1  0  0  0  0  0  0
  190.9430  176.6680  139.2200 C   0  0  0  0  0  3  0  0  0  0  0  0
  188.9660  178.0020  139.1350 N   0  0  0  0  0  0  0  0  0  0  0  0
  189.9280  177.3780  139.8750 C   0  0  0  0  0  0  0  0  0  0  0  0
  190.9510  176.6090  137.8250 C   0  0  0  0  0  3  0  0  0  0  0  0
  185.2050  179.4110  142.3970 C   0  0  0  0  0  3  0  0  0  0  0  0
  186.4040  179.0000  142.8280 C   0  0  0  0  0  3  0  0  0  0  0  0
  183.3130  178.3150  143.3380 O   0  0  0  0  0  0  0  0  0  0  0  0
  183.9790  178.5930  142.3070 C   0  0  0  0  0  0  0  0  0  0  0  0
  183.5440  178.0810  141.0460 N   0  0  0  0  0  2  0  0  0  0  0  0
  184.2870  178.2960  139.8140 C   0  0  0  0  0  2  0  0  0  0  0  0
  182.3850  179.2910  138.3790 C   0  0  0  0  0  1  0  0  0  0  0  0
  183.7010  179.4410  139.0640 C   0  0  0  0  0  0  0  0  0  0  0  0
  184.3130  180.4940  138.9810 O   0  0  0  0  0  0  0  0  0  0  0  0
  1 11  1  6  0  0  0
  1  6  1  0  0  0  0
  2  4  1  0  0  0  0
  6  5  2  0  0  0  0
  6  7  1  0  0  0  0
  7  3  2  0  0  0  0
  8  2  2  0  0  0  0
  9  3  1  6  0  0  0
  9  4  1  0  0  0  0
 10  5  1  6  0  0  0
 10  8  1  0  0  0  0
 10  9  1  0  0  0  0
 12 11  2  0  0  0  0
 13 12  1  0  0  0  0
 13 14  2  0  0  0  0
 15 16  2  0  0  0  0
 15 21  1  0  0  0  0
 16 19  1  0  0  0  0
 17 16  1  0  0  0  0
 18 20  1  0  0  0  0
 19 20  2  0  0  0  0
 20 13  1  0  0  0  0
 21 18  2  0  0  0  0
 22 23  2  0  0  0  0
 23  1  1  0  0  0  0
 25 22  1  0  0  0  0
 25 24  2  0  0  0  0
 26 25  1  0  0  0  0
 27 26  1  0  0  0  0
 28 29  1  0  0  0  0
 29 27  1  0  0  0  0
 30 29  2  0  0  0  0
M  END
>  <MODEL>
9

>  <REMARK>
 VINA RESULT:      -8.0      3.245      5.984
  Name = 
  8 active torsions:
  status: ('A' for Active; 'I' for Inactive)
    1  A    between atoms: C_1  and  C_24
    2  A    between atoms: C_4  and  C_18
    3  A    between atoms: C_5  and  C_24
    4  A    between atoms: N_10  and  C_15
    5  A    between atoms: C_15  and  C_17
    6  A    between atoms: C_19  and  C_23
    7  A    between atoms: C_19  and  N_29
    8  A    between atoms: C_22  and  C_24
                            x       y       z     vdW  Elec       q    Type
                         _______ _______ _______ _____ _____    ______ ____

>  <TORSDO>
F 8

$$$$
