=
 OpenBabel10222420563D

 56 58  0  0  1  0  0  0  0  0999 V2000
  185.3700  179.8220  142.6960 C   0  0  0  0  0  2  0  0  0  0  0  0
  186.4110  178.0410  144.6160 C   0  0  0  0  0  2  0  0  0  0  0  0
  184.4560  179.5510  143.8960 C   0  0  2  0  0  3  0  0  0  0  0  0
  185.4290  179.6380  146.0800 F   0  0  0  0  0  0  0  0  0  0  0  0
  186.1350  178.5820  142.1770 C   0  0  2  0  0  3  0  0  0  0  0  0
  185.1370  178.7770  145.0410 C   0  0  2  0  0  3  0  0  0  0  0  0
  186.2330  177.4600  143.2160 C   0  0  0  0  0  2  0  0  0  0  0  0
  183.1690  178.8870  143.5160 C   0  0  0  0  0  0  0  0  0  0  0  0
  182.3720  178.4760  144.3970 O   0  0  0  0  0  0  0  0  0  0  0  0
  182.7880  178.8630  142.1420 N   0  0  0  0  0  2  0  0  0  0  0  0
  181.4880  178.5200  141.7410 N   0  0  0  0  0  2  0  0  0  0  0  0
  181.2850  177.5180  140.7480 C   0  0  0  0  0  0  0  0  0  0  0  0
  182.2770  177.0190  140.1500 O   0  0  0  0  0  0  0  0  0  0  0  0
  179.8850  177.1150  140.3920 C   0  0  1  0  0  3  0  0  0  0  0  0
  178.9310  177.6760  141.3320 N   0  0  0  0  0  1  0  0  0  0  0  0
  179.4910  177.4380  138.9470 C   0  0  0  0  0  2  0  0  0  0  0  0
  180.0640  178.7750  138.4760 C   0  0  0  0  0  2  0  0  0  0  0  0
  180.7390  178.7080  137.1010 C   0  0  1  0  0  0  0  0  0  0  0  0
  182.1480  178.3310  137.2670 N   0  0  0  0  0  2  0  0  0  0  0  0
  182.9720  177.6100  136.3400 C   0  0  0  0  0  0  0  0  0  0  0  0
  183.9720  176.9870  136.7650 O   0  0  0  0  0  1  0  0  0  0  0  0
  182.6560  177.5460  134.9890 O   0  0  0  0  0  0  0  0  0  0  0  0
  179.8460  177.5540  136.0190 S   0  0  0  0  0  3  0  0  0  0  0  0
  179.1490  178.4150  134.9720 O   0  0  0  0  0  0  0  0  0  0  0  0
  180.6130  180.1290  136.5140 C   0  0  0  0  0  2  0  0  0  0  0  0
  180.5310  181.3130  137.4860 C   0  0  1  0  0  3  0  0  0  0  0  0
  181.7450  181.4950  138.1490 O   0  0  0  0  0  1  0  0  0  0  0  0
  180.1420  182.5330  136.7960 N   0  0  0  0  0  2  0  0  0  0  0  0
  181.2140  184.6890  137.1340 C   0  0  0  0  0  1  0  0  0  0  0  0
  180.3040  183.6370  137.7300 C   0  0  0  0  0  2  0  0  0  0  0  0
  187.4870  178.9490  141.7630 N   0  0  0  0  0  2  0  0  0  0  0  0
  188.0270  177.8900  141.0090 N   0  0  0  0  0  2  0  0  0  0  0  0
  189.4660  177.8450  141.2650 C   0  0  1  0  0  3  0  0  0  0  0  0
  190.2520  178.3120  144.9500 C   0  0  0  0  0  3  0  0  0  0  0  0
  189.9070  177.0590  145.4800 C   0  0  0  0  0  0  0  0  0  0  0  0
  189.5400  176.0280  144.5970 C   0  0  0  0  0  3  0  0  0  0  0  0
  189.4410  176.2740  143.2210 C   0  0  0  0  0  3  0  0  0  0  0  0
  189.7320  177.5430  142.7090 C   0  0  0  0  0  0  0  0  0  0  0  0
  190.1520  178.5600  143.5790 C   0  0  0  0  0  3  0  0  0  0  0  0
  188.5350  176.4680  147.4890 C   0  0  0  0  0  2  0  0  0  0  0  0
  189.9210  176.8470  146.9780 C   0  0  2  0  0  3  0  0  0  0  0  0
  189.3660  178.2920  148.7280 C   0  0  0  0  0  2  0  0  0  0  0  0
  190.3250  178.0800  147.6510 N   0  0  0  0  0  2  0  0  0  0  0  0
  188.0800  177.6450  148.3070 C   0  0  0  0  0  2  0  0  0  0  0  0
  190.0930  176.8180  140.4350 N   0  0  0  0  0  2  0  0  0  0  0  0
  191.2650  177.3960  139.8030 C   0  0  0  0  0  2  0  0  0  0  0  0
  191.7420  176.5020  138.7560 N   0  0  0  0  0  2  0  0  0  0  0  0
  190.6450  175.7300  138.3420 N   0  0  0  0  0  2  0  0  0  0  0  0
  190.0460  176.4120  137.1980 C   0  0  2  0  0  3  0  0  0  0  0  0
  188.5320  176.5650  137.3620 C   0  0  2  0  0  3  0  0  0  0  0  0
  187.7860  175.4880  136.5900 C   0  0  0  0  0  1  0  0  0  0  0  0
  187.2410  178.1490  135.8350 N   0  0  0  0  0  1  0  0  0  0  0  0
  188.0290  177.9340  137.0030 C   0  0  0  0  0  0  0  0  0  0  0  0
  188.3400  178.9210  137.7250 O   0  0  0  0  0  0  0  0  0  0  0  0
  190.4070  175.7120  135.8960 C   0  0  0  0  0  2  0  0  0  0  0  0
  190.5620  176.6630  134.8910 O   0  0  0  0  0  1  0  0  0  0  0  0
  1  3  1  0  0  0  0
  2  6  1  0  0  0  0
  3  8  1  6  0  0  0
  3  6  1  0  0  0  0
  5 31  1  1  0  0  0
  5  1  1  0  0  0  0
  5  7  1  0  0  0  0
  6  4  1  1  0  0  0
  7  2  1  0  0  0  0
  8  9  2  0  0  0  0
 10  8  1  0  0  0  0
 11 10  1  0  0  0  0
 12 11  1  0  0  0  0
 13 12  2  0  0  0  0
 14 12  1  0  0  0  0
 14 15  1  1  0  0  0
 16 14  1  0  0  0  0
 17 16  1  0  0  0  0
 18 25  1  6  0  0  0
 18 19  1  0  0  0  0
 18 17  1  0  0  0  0
 20 21  1  0  0  0  0
 20 19  1  0  0  0  0
 22 20  2  0  0  0  0
 23 18  1  0  0  0  0
 24 23  2  0  0  0  0
 25 26  1  0  0  0  0
 26 27  1  6  0  0  0
 28 26  1  0  0  0  0
 28 30  1  0  0  0  0
 29 30  1  0  0  0  0
 32 33  1  0  0  0  0
 32 31  1  0  0  0  0
 33 45  1  6  0  0  0
 33 38  1  0  0  0  0
 34 35  1  0  0  0  0
 36 35  2  0  0  0  0
 37 36  1  0  0  0  0
 38 37  2  0  0  0  0
 38 39  1  0  0  0  0
 39 34  2  0  0  0  0
 40 44  1  0  0  0  0
 41 35  1  6  0  0  0
 41 40  1  0  0  0  0
 41 43  1  0  0  0  0
 43 42  1  0  0  0  0
 44 42  1  0  0  0  0
 46 45  1  0  0  0  0
 47 46  1  0  0  0  0
 48 47  1  0  0  0  0
 49 55  1  6  0  0  0
 49 50  1  0  0  0  0
 49 48  1  0  0  0  0
 50 51  1  6  0  0  0
 52 53  1  0  0  0  0
 53 50  1  0  0  0  0
 53 54  2  0  0  0  0
 56 55  1  0  0  0  0
M  END
>  <MODEL>
1

>  <REMARK>
 VINA RESULT:      -6.2      0.000      0.000
  Name = 
  25 active torsions:
  status: ('A' for Active; 'I' for Inactive)
    1  A    between atoms: C_1  and  C_17
    2  A    between atoms: C_3  and  C_38
    3  A    between atoms: C_3  and  C_52
    4  A    between atoms: N_4  and  C_16
    5  A    between atoms: N_4  and  N_26
    6  A    between atoms: C_5  and  C_17
    7  A    between atoms: C_5  and  C_36
    8  A    between atoms: C_8  and  C_20
    9  A    between atoms: N_12  and  C_52
   10  A    between atoms: C_14  and  N_24
   11  A    between atoms: C_15  and  C_38
   12  A    between atoms: C_15  and  C_44
   13  A    between atoms: C_16  and  N_48
   14  A    between atoms: C_17  and  N_26
   15  A    between atoms: C_18  and  C_22
   16  A    between atoms: N_24  and  C_43
   17  A    between atoms: N_27  and  N_28
   18  A    between atoms: C_29  and  N_39
   19  A    between atoms: N_30  and  C_34
   20  A    between atoms: N_30  and  N_39
   21  A    between atoms: S_31  and  C_52
   22  A    between atoms: C_34  and  C_45
   23  A    between atoms: C_34  and  N_48
   24  A    between atoms: C_37  and  C_43
   25  A    between atoms: C_37  and  C_52
                            x       y       z     vdW  Elec       q    Type
                         _______ _______ _______ _____ _____    ______ ____

>  <TORSDO>
F 25

$$$$
=
 OpenBabel10222420563D

 56 58  0  0  1  0  0  0  0  0999 V2000
  189.7960  177.9250  142.5080 C   0  0  0  0  0  2  0  0  0  0  0  0
  191.4350  176.1370  143.9420 C   0  0  0  0  0  2  0  0  0  0  0  0
  189.6740  178.0110  144.0330 C   0  0  2  0  0  3  0  0  0  0  0  0
  191.6960  178.0650  145.3100 F   0  0  0  0  0  0  0  0  0  0  0  0
  189.9380  176.4880  141.9540 C   0  0  2  0  0  3  0  0  0  0  0  0
  190.7450  177.2080  144.7940 C   0  0  2  0  0  3  0  0  0  0  0  0
  190.4210  175.4850  143.0070 C   0  0  0  0  0  2  0  0  0  0  0  0
  188.3080  177.6570  144.5340 C   0  0  0  0  0  0  0  0  0  0  0  0
  188.1110  177.4230  145.7530 O   0  0  0  0  0  0  0  0  0  0  0  0
  187.2040  177.7370  143.6350 N   0  0  0  0  0  2  0  0  0  0  0  0
  185.8770  177.6990  144.0880 N   0  0  0  0  0  2  0  0  0  0  0  0
  184.9420  178.6820  143.6500 C   0  0  0  0  0  0  0  0  0  0  0  0
  185.3350  179.6500  142.9440 O   0  0  0  0  0  0  0  0  0  0  0  0
  183.5110  178.5760  144.0870 C   0  0  1  0  0  3  0  0  0  0  0  0
  183.3110  179.2390  145.3640 N   0  0  0  0  0  1  0  0  0  0  0  0
  182.5020  179.0680  143.0450 C   0  0  0  0  0  2  0  0  0  0  0  0
  182.6660  178.3590  141.7010 C   0  0  0  0  0  2  0  0  0  0  0  0
  181.8250  178.9690  140.5730 C   0  0  1  0  0  0  0  0  0  0  0  0
  180.9960  180.0530  141.1150 N   0  0  0  0  0  2  0  0  0  0  0  0
  179.6290  179.9760  141.5410 C   0  0  0  0  0  0  0  0  0  0  0  0
  178.9320  181.0160  141.5570 O   0  0  0  0  0  0  0  0  0  0  0  0
  179.0470  178.7630  141.8860 O   0  0  0  0  0  1  0  0  0  0  0  0
  182.9020  179.5410  139.2260 S   0  0  0  0  0  3  0  0  0  0  0  0
  182.0880  180.5650  138.4450 O   0  0  0  0  0  0  0  0  0  0  0  0
  180.9490  177.8150  140.0460 C   0  0  0  0  0  2  0  0  0  0  0  0
  181.5620  176.8440  139.0280 C   0  0  1  0  0  3  0  0  0  0  0  0
  182.0290  175.6920  139.6610 O   0  0  0  0  0  1  0  0  0  0  0  0
  180.6020  176.4970  137.9900 N   0  0  0  0  0  2  0  0  0  0  0  0
  181.4120  177.7760  136.0880 C   0  0  0  0  0  1  0  0  0  0  0  0
  180.3750  177.6880  137.1860 C   0  0  0  0  0  2  0  0  0  0  0  0
  190.8690  176.4620  140.8290 N   0  0  0  0  0  2  0  0  0  0  0  0
  190.1850  176.8770  139.6710 N   0  0  0  0  0  2  0  0  0  0  0  0
  190.6340  176.0400  138.5590 C   0  0  1  0  0  3  0  0  0  0  0  0
  188.3770  173.7300  136.5620 C   0  0  0  0  0  3  0  0  0  0  0  0
  187.1490  174.4090  136.6140 C   0  0  0  0  0  0  0  0  0  0  0  0
  187.1070  175.6870  137.1980 C   0  0  0  0  0  3  0  0  0  0  0  0
  188.2530  176.2340  137.7910 C   0  0  0  0  0  3  0  0  0  0  0  0
  189.4580  175.5250  137.7840 C   0  0  0  0  0  0  0  0  0  0  0  0
  189.5190  174.2730  137.1540 C   0  0  0  0  0  3  0  0  0  0  0  0
  184.6700  174.6090  136.3280 C   0  0  0  0  0  2  0  0  0  0  0  0
  185.9040  173.7530  136.0610 C   0  0  2  0  0  3  0  0  0  0  0  0
  184.2940  172.4150  137.1000 C   0  0  0  0  0  2  0  0  0  0  0  0
  185.6960  172.4560  136.7040 N   0  0  0  0  0  2  0  0  0  0  0  0
  183.8580  173.8320  137.3260 C   0  0  0  0  0  2  0  0  0  0  0  0
  191.4990  176.8080  137.6670 N   0  0  0  0  0  2  0  0  0  0  0  0
  192.8650  176.3560  137.8560 C   0  0  0  0  0  2  0  0  0  0  0  0
  193.5260  176.2540  136.5620 N   0  0  0  0  0  2  0  0  0  0  0  0
  194.8610  175.8960  136.8080 N   0  0  0  0  0  2  0  0  0  0  0  0
  194.9150  174.4380  136.8590 C   0  0  2  0  0  3  0  0  0  0  0  0
  196.0050  173.9460  137.8150 C   0  0  2  0  0  3  0  0  0  0  0  0
  195.7480  174.4330  139.2320 C   0  0  0  0  0  1  0  0  0  0  0  0
  198.2530  173.3190  136.7850 N   0  0  0  0  0  1  0  0  0  0  0  0
  197.3940  174.2980  137.3650 C   0  0  0  0  0  0  0  0  0  0  0  0
  197.8270  175.4710  137.5380 O   0  0  0  0  0  0  0  0  0  0  0  0
  195.0760  173.8490  135.4650 C   0  0  0  0  0  2  0  0  0  0  0  0
  193.8310  173.4410  134.9920 O   0  0  0  0  0  1  0  0  0  0  0  0
  1  3  1  0  0  0  0
  2  6  1  0  0  0  0
  3  8  1  6  0  0  0
  3  6  1  0  0  0  0
  5 31  1  6  0  0  0
  5  1  1  0  0  0  0
  5  7  1  0  0  0  0
  6  4  1  6  0  0  0
  7  2  1  0  0  0  0
  8  9  2  0  0  0  0
 10 11  1  0  0  0  0
 10  8  1  0  0  0  0
 12 14  1  0  0  0  0
 12 11  1  0  0  0  0
 13 12  2  0  0  0  0
 14 15  1  1  0  0  0
 16 14  1  0  0  0  0
 17 16  1  0  0  0  0
 18 25  1  6  0  0  0
 18 19  1  0  0  0  0
 18 17  1  0  0  0  0
 19 20  1  0  0  0  0
 20 21  2  0  0  0  0
 20 22  1  0  0  0  0
 23 18  1  0  0  0  0
 24 23  2  0  0  0  0
 26 27  1  1  0  0  0
 26 25  1  0  0  0  0
 28 26  1  0  0  0  0
 29 30  1  0  0  0  0
 30 28  1  0  0  0  0
 32 31  1  0  0  0  0
 33 45  1  6  0  0  0
 33 32  1  0  0  0  0
 34 35  2  0  0  0  0
 34 39  1  0  0  0  0
 35 36  1  0  0  0  0
 36 37  2  0  0  0  0
 38 37  1  0  0  0  0
 38 33  1  0  0  0  0
 39 38  2  0  0  0  0
 40 44  1  0  0  0  0
 41 40  1  0  0  0  0
 41 35  1  1  0  0  0
 41 43  1  0  0  0  0
 42 44  1  0  0  0  0
 43 42  1  0  0  0  0
 45 46  1  0  0  0  0
 47 48  1  0  0  0  0
 47 46  1  0  0  0  0
 48 49  1  0  0  0  0
 49 55  1  6  0  0  0
 49 50  1  0  0  0  0
 50 51  1  1  0  0  0
 52 53  1  0  0  0  0
 53 54  2  0  0  0  0
 53 50  1  0  0  0  0
 56 55  1  0  0  0  0
M  END
>  <MODEL>
2

>  <REMARK>
 VINA RESULT:      -5.8      3.463      6.997
  Name = 
  25 active torsions:
  status: ('A' for Active; 'I' for Inactive)
    1  A    between atoms: C_1  and  C_17
    2  A    between atoms: C_3  and  C_38
    3  A    between atoms: C_3  and  C_52
    4  A    between atoms: N_4  and  C_16
    5  A    between atoms: N_4  and  N_26
    6  A    between atoms: C_5  and  C_17
    7  A    between atoms: C_5  and  C_36
    8  A    between atoms: C_8  and  C_20
    9  A    between atoms: N_12  and  C_52
   10  A    between atoms: C_14  and  N_24
   11  A    between atoms: C_15  and  C_38
   12  A    between atoms: C_15  and  C_44
   13  A    between atoms: C_16  and  N_48
   14  A    between atoms: C_17  and  N_26
   15  A    between atoms: C_18  and  C_22
   16  A    between atoms: N_24  and  C_43
   17  A    between atoms: N_27  and  N_28
   18  A    between atoms: C_29  and  N_39
   19  A    between atoms: N_30  and  C_34
   20  A    between atoms: N_30  and  N_39
   21  A    between atoms: S_31  and  C_52
   22  A    between atoms: C_34  and  C_45
   23  A    between atoms: C_34  and  N_48
   24  A    between atoms: C_37  and  C_43
   25  A    between atoms: C_37  and  C_52
                            x       y       z     vdW  Elec       q    Type
                         _______ _______ _______ _____ _____    ______ ____

>  <TORSDO>
F 25

$$$$
=
 OpenBabel10222420563D

 56 58  0  0  1  0  0  0  0  0999 V2000
  185.6330  179.7520  142.4980 C   0  0  0  0  0  2  0  0  0  0  0  0
  186.5920  178.0930  144.5650 C   0  0  0  0  0  2  0  0  0  0  0  0
  184.6520  179.5150  143.6520 C   0  0  2  0  0  3  0  0  0  0  0  0
  185.4840  179.7330  145.8840 F   0  0  0  0  0  0  0  0  0  0  0  0
  186.4560  178.5080  142.0890 C   0  0  2  0  0  3  0  0  0  0  0  0
  185.2770  178.8160  144.8730 C   0  0  2  0  0  3  0  0  0  0  0  0
  186.5150  177.4400  143.1870 C   0  0  0  0  0  2  0  0  0  0  0  0
  183.4060  178.8010  143.2270 C   0  0  0  0  0  0  0  0  0  0  0  0
  182.5000  178.5390  144.0580 O   0  0  0  0  0  0  0  0  0  0  0  0
  183.1950  178.5560  141.8380 N   0  0  0  0  0  2  0  0  0  0  0  0
  181.9460  178.1550  141.3400 N   0  0  0  0  0  2  0  0  0  0  0  0
  181.8620  177.1160  140.3680 C   0  0  0  0  0  0  0  0  0  0  0  0
  182.9170  176.6340  139.8740 O   0  0  0  0  0  0  0  0  0  0  0  0
  180.5110  176.6520  139.9080 C   0  0  1  0  0  3  0  0  0  0  0  0
  179.4810  177.6010  140.2920 N   0  0  0  0  0  1  0  0  0  0  0  0
  180.4380  176.3330  138.4110 C   0  0  0  0  0  2  0  0  0  0  0  0
  181.0300  174.9630  138.0820 C   0  0  0  0  0  2  0  0  0  0  0  0
  180.7370  174.4910  136.6520 C   0  0  1  0  0  0  0  0  0  0  0  0
  179.6650  173.4880  136.6800 N   0  0  0  0  0  2  0  0  0  0  0  0
  179.7280  172.1590  137.2120 C   0  0  0  0  0  0  0  0  0  0  0  0
  178.9310  171.2900  136.7910 O   0  0  0  0  0  0  0  0  0  0  0  0
  180.6910  171.7990  138.1480 O   0  0  0  0  0  1  0  0  0  0  0  0
  180.3190  175.9090  135.5960 S   0  0  0  0  0  3  0  0  0  0  0  0
  181.4610  176.0360  134.5940 O   0  0  0  0  0  0  0  0  0  0  0  0
  182.0570  173.8740  136.1470 C   0  0  0  0  0  2  0  0  0  0  0  0
  183.3050  174.0010  137.0310 C   0  0  1  0  0  3  0  0  0  0  0  0
  183.7350  172.7470  137.4640 O   0  0  0  0  0  1  0  0  0  0  0  0
  184.3780  174.6910  136.3300 N   0  0  0  0  0  2  0  0  0  0  0  0
  184.1520  177.0930  136.0360 C   0  0  0  0  0  1  0  0  0  0  0  0
  184.5660  175.9820  136.9750 C   0  0  0  0  0  2  0  0  0  0  0  0
  187.8230  178.8890  141.7420 N   0  0  0  0  0  2  0  0  0  0  0  0
  188.3480  177.9210  140.8650 N   0  0  0  0  0  2  0  0  0  0  0  0
  189.7780  177.7900  141.1460 C   0  0  1  0  0  3  0  0  0  0  0  0
  190.3690  178.5130  144.8260 C   0  0  0  0  0  3  0  0  0  0  0  0
  190.1030  177.2660  145.4120 C   0  0  0  0  0  0  0  0  0  0  0  0
  189.8570  176.1630  144.5750 C   0  0  0  0  0  3  0  0  0  0  0  0
  189.7950  176.3270  143.1850 C   0  0  0  0  0  3  0  0  0  0  0  0
  190.0060  177.5870  142.6140 C   0  0  0  0  0  0  0  0  0  0  0  0
  190.3070  178.6790  143.4400 C   0  0  0  0  0  3  0  0  0  0  0  0
  188.8390  176.3600  147.3750 C   0  0  0  0  0  2  0  0  0  0  0  0
  190.0710  177.1350  146.9190 C   0  0  2  0  0  3  0  0  0  0  0  0
  188.9640  178.4060  148.5370 C   0  0  0  0  0  2  0  0  0  0  0  0
  190.0190  178.4610  147.5330 N   0  0  0  0  0  2  0  0  0  0  0  0
  187.9800  177.3670  148.0870 C   0  0  0  0  0  2  0  0  0  0  0  0
  190.3330  176.6550  140.4110 N   0  0  0  0  0  2  0  0  0  0  0  0
  189.4850  176.3990  139.2610 C   0  0  0  0  0  2  0  0  0  0  0  0
  190.2130  175.5890  138.2930 N   0  0  0  0  0  2  0  0  0  0  0  0
  191.4000  176.2750  137.9910 N   0  0  0  0  0  2  0  0  0  0  0  0
  192.2530  175.3540  137.2460 C   0  0  2  0  0  3  0  0  0  0  0  0
  193.7350  175.7030  137.4050 C   0  0  2  0  0  3  0  0  0  0  0  0
  194.3370  176.1460  136.0810 C   0  0  0  0  0  1  0  0  0  0  0  0
  195.5910  174.8800  138.9490 N   0  0  0  0  0  1  0  0  0  0  0  0
  194.5440  174.5990  138.0240 C   0  0  0  0  0  0  0  0  0  0  0  0
  194.3210  173.4020  137.6920 O   0  0  0  0  0  0  0  0  0  0  0  0
  191.8400  175.2900  135.7830 C   0  0  0  0  0  2  0  0  0  0  0  0
  190.8300  174.3420  135.6320 O   0  0  0  0  0  1  0  0  0  0  0  0
  1  3  1  0  0  0  0
  2  6  1  0  0  0  0
  3  8  1  6  0  0  0
  3  6  1  0  0  0  0
  5 31  1  1  0  0  0
  5  1  1  0  0  0  0
  5  7  1  0  0  0  0
  6  4  1  1  0  0  0
  7  2  1  0  0  0  0
  8  9  2  0  0  0  0
 10  8  1  0  0  0  0
 11 10  1  0  0  0  0
 12 11  1  0  0  0  0
 13 12  2  0  0  0  0
 14 15  1  6  0  0  0
 14 12  1  0  0  0  0
 16 14  1  0  0  0  0
 17 16  1  0  0  0  0
 18 25  1  6  0  0  0
 18 19  1  0  0  0  0
 18 17  1  0  0  0  0
 19 20  1  0  0  0  0
 20 22  1  0  0  0  0
 21 20  2  0  0  0  0
 23 18  1  0  0  0  0
 24 23  2  0  0  0  0
 25 26  1  0  0  0  0
 26 27  1  6  0  0  0
 28 30  1  0  0  0  0
 28 26  1  0  0  0  0
 29 30  1  0  0  0  0
 32 33  1  0  0  0  0
 32 31  1  0  0  0  0
 33 45  1  6  0  0  0
 33 38  1  0  0  0  0
 34 35  1  0  0  0  0
 36 35  2  0  0  0  0
 37 36  1  0  0  0  0
 38 37  2  0  0  0  0
 38 39  1  0  0  0  0
 39 34  2  0  0  0  0
 40 44  1  0  0  0  0
 41 35  1  6  0  0  0
 41 40  1  0  0  0  0
 41 43  1  0  0  0  0
 43 42  1  0  0  0  0
 44 42  1  0  0  0  0
 46 45  1  0  0  0  0
 47 46  1  0  0  0  0
 48 47  1  0  0  0  0
 49 55  1  6  0  0  0
 49 50  1  0  0  0  0
 49 48  1  0  0  0  0
 50 51  1  6  0  0  0
 50 53  1  0  0  0  0
 53 52  1  0  0  0  0
 54 53  2  0  0  0  0
 56 55  1  0  0  0  0
M  END
>  <MODEL>
3

>  <REMARK>
 VINA RESULT:      -5.7      2.650      4.111
  Name = 
  25 active torsions:
  status: ('A' for Active; 'I' for Inactive)
    1  A    between atoms: C_1  and  C_17
    2  A    between atoms: C_3  and  C_38
    3  A    between atoms: C_3  and  C_52
    4  A    between atoms: N_4  and  C_16
    5  A    between atoms: N_4  and  N_26
    6  A    between atoms: C_5  and  C_17
    7  A    between atoms: C_5  and  C_36
    8  A    between atoms: C_8  and  C_20
    9  A    between atoms: N_12  and  C_52
   10  A    between atoms: C_14  and  N_24
   11  A    between atoms: C_15  and  C_38
   12  A    between atoms: C_15  and  C_44
   13  A    between atoms: C_16  and  N_48
   14  A    between atoms: C_17  and  N_26
   15  A    between atoms: C_18  and  C_22
   16  A    between atoms: N_24  and  C_43
   17  A    between atoms: N_27  and  N_28
   18  A    between atoms: C_29  and  N_39
   19  A    between atoms: N_30  and  C_34
   20  A    between atoms: N_30  and  N_39
   21  A    between atoms: S_31  and  C_52
   22  A    between atoms: C_34  and  C_45
   23  A    between atoms: C_34  and  N_48
   24  A    between atoms: C_37  and  C_43
   25  A    between atoms: C_37  and  C_52
                            x       y       z     vdW  Elec       q    Type
                         _______ _______ _______ _____ _____    ______ ____

>  <TORSDO>
F 25

$$$$
=
 OpenBabel10222420563D

 56 58  0  0  1  0  0  0  0  0999 V2000
  185.8960  179.3730  142.1120 C   0  0  0  0  0  2  0  0  0  0  0  0
  186.1910  177.9400  144.5210 C   0  0  0  0  0  2  0  0  0  0  0  0
  184.6500  179.3340  143.0030 C   0  0  2  0  0  3  0  0  0  0  0  0
  184.9330  179.7870  145.3340 F   0  0  0  0  0  0  0  0  0  0  0  0
  186.6920  178.0480  142.0590 C   0  0  2  0  0  3  0  0  0  0  0  0
  184.9030  178.7620  144.4100 C   0  0  2  0  0  3  0  0  0  0  0  0
  186.3970  177.1250  143.2470 C   0  0  0  0  0  2  0  0  0  0  0  0
  183.4910  178.6360  142.3610 C   0  0  0  0  0  0  0  0  0  0  0  0
  182.3720  178.5890  142.9320 O   0  0  0  0  0  0  0  0  0  0  0  0
  183.6320  178.1560  141.0260 N   0  0  0  0  0  2  0  0  0  0  0  0
  182.5250  177.7520  140.2640 N   0  0  0  0  0  2  0  0  0  0  0  0
  182.2800  178.3390  138.9880 C   0  0  0  0  0  0  0  0  0  0  0  0
  182.9950  179.3000  138.5940 O   0  0  0  0  0  0  0  0  0  0  0  0
  181.1350  177.8370  138.1600 C   0  0  1  0  0  3  0  0  0  0  0  0
  181.0160  178.5980  136.9290 N   0  0  0  0  0  1  0  0  0  0  0  0
  181.1820  176.3320  137.8770 C   0  0  0  0  0  2  0  0  0  0  0  0
  182.1770  175.9820  136.7710 C   0  0  0  0  0  2  0  0  0  0  0  0
  182.0560  174.5410  136.2640 C   0  0  1  0  0  0  0  0  0  0  0  0
  181.2620  173.7540  137.2150 N   0  0  0  0  0  2  0  0  0  0  0  0
  180.9450  172.3570  137.1400 C   0  0  0  0  0  0  0  0  0  0  0  0
  179.9350  171.9240  137.7410 O   0  0  0  0  0  1  0  0  0  0  0  0
  181.7050  171.4830  136.3730 O   0  0  0  0  0  0  0  0  0  0  0  0
  181.3380  174.5210  134.5940 S   0  0  0  0  0  3  0  0  0  0  0  0
  179.8410  174.7380  134.7800 O   0  0  0  0  0  0  0  0  0  0  0  0
  183.5030  174.0130  136.1820 C   0  0  0  0  0  2  0  0  0  0  0  0
  184.3940  174.1390  137.4240 C   0  0  1  0  0  3  0  0  0  0  0  0
  184.8170  172.8830  137.8600 O   0  0  0  0  0  1  0  0  0  0  0  0
  185.5400  174.9970  137.1630 N   0  0  0  0  0  2  0  0  0  0  0  0
  187.9530  174.9900  136.8650 C   0  0  0  0  0  1  0  0  0  0  0  0
  186.7160  174.1440  137.0720 C   0  0  0  0  0  2  0  0  0  0  0  0
  188.1280  178.3130  142.0250 N   0  0  0  0  0  2  0  0  0  0  0  0
  188.8050  177.0870  141.8810 N   0  0  0  0  0  2  0  0  0  0  0  0
  190.2340  177.3380  142.0760 C   0  0  1  0  0  3  0  0  0  0  0  0
  193.0660  177.0850  139.5610 C   0  0  0  0  0  3  0  0  0  0  0  0
  192.4030  176.5960  138.4250 C   0  0  0  0  0  0  0  0  0  0  0  0
  191.0020  176.4770  138.4600 C   0  0  0  0  0  3  0  0  0  0  0  0
  190.2940  176.7610  139.6350 C   0  0  0  0  0  3  0  0  0  0  0  0
  190.9720  177.1930  140.7790 C   0  0  0  0  0  0  0  0  0  0  0  0
  192.3630  177.3680  140.7340 C   0  0  0  0  0  3  0  0  0  0  0  0
  192.5710  174.9910  136.5120 C   0  0  0  0  0  2  0  0  0  0  0  0
  193.1990  176.1960  137.2030 C   0  0  2  0  0  3  0  0  0  0  0  0
  194.8520  174.5680  136.9250 C   0  0  0  0  0  2  0  0  0  0  0  0
  194.5600  175.8300  137.5930 N   0  0  0  0  0  2  0  0  0  0  0  0
  193.5430  173.8640  136.7220 C   0  0  0  0  0  2  0  0  0  0  0  0
  190.4410  178.6860  142.6000 N   0  0  0  0  0  2  0  0  0  0  0  0
  191.1710  178.5820  143.8510 C   0  0  0  0  0  2  0  0  0  0  0  0
  190.7620  177.3720  144.5510 N   0  0  0  0  0  2  0  0  0  0  0  0
  189.6230  177.6970  145.3050 N   0  0  0  0  0  2  0  0  0  0  0  0
  189.8290  177.1650  146.6490 C   0  0  2  0  0  3  0  0  0  0  0  0
  189.3540  178.1460  147.7240 C   0  0  2  0  0  3  0  0  0  0  0  0
  190.3340  178.2010  148.8850 C   0  0  0  0  0  1  0  0  0  0  0  0
  186.8360  178.5460  147.6440 N   0  0  0  0  0  1  0  0  0  0  0  0
  187.9590  177.8710  148.2070 C   0  0  0  0  0  0  0  0  0  0  0  0
  187.7760  177.0580  149.1550 O   0  0  0  0  0  0  0  0  0  0  0  0
  191.2790  176.7540  146.8570 C   0  0  0  0  0  2  0  0  0  0  0  0
  191.3220  175.5870  147.6170 O   0  0  0  0  0  1  0  0  0  0  0  0
  1  3  1  0  0  0  0
  3  8  1  6  0  0  0
  3  6  1  0  0  0  0
  5 31  1  1  0  0  0
  5  1  1  0  0  0  0
  5  7  1  0  0  0  0
  6  2  1  0  0  0  0
  6  4  1  1  0  0  0
  7  2  1  0  0  0  0
  8  9  2  0  0  0  0
 10  8  1  0  0  0  0
 11 10  1  0  0  0  0
 12 11  1  0  0  0  0
 13 12  2  0  0  0  0
 14 15  1  6  0  0  0
 14 12  1  0  0  0  0
 16 14  1  0  0  0  0
 17 16  1  0  0  0  0
 18 25  1  6  0  0  0
 18 17  1  0  0  0  0
 18 19  1  0  0  0  0
 20 19  1  0  0  0  0
 20 21  1  0  0  0  0
 22 20  2  0  0  0  0
 23 24  2  0  0  0  0
 23 18  1  0  0  0  0
 25 26  1  0  0  0  0
 26 27  1  6  0  0  0
 28 26  1  0  0  0  0
 29 30  1  0  0  0  0
 30 28  1  0  0  0  0
 32 31  1  0  0  0  0
 33 32  1  6  0  0  0
 33 45  1  0  0  0  0
 34 39  1  0  0  0  0
 35 36  1  0  0  0  0
 35 34  2  0  0  0  0
 36 37  2  0  0  0  0
 37 38  1  0  0  0  0
 38 33  1  0  0  0  0
 39 38  2  0  0  0  0
 40 44  1  0  0  0  0
 40 41  1  0  0  0  0
 41 43  1  0  0  0  0
 41 35  1  1  0  0  0
 42 43  1  0  0  0  0
 44 42  1  0  0  0  0
 45 46  1  0  0  0  0
 46 47  1  0  0  0  0
 47 48  1  0  0  0  0
 48 49  1  0  0  0  0
 49 55  1  1  0  0  0
 49 50  1  0  0  0  0
 50 53  1  0  0  0  0
 50 51  1  1  0  0  0
 52 53  1  0  0  0  0
 53 54  2  0  0  0  0
 55 56  1  0  0  0  0
M  END
>  <MODEL>
4

>  <REMARK>
 VINA RESULT:      -5.6      3.102      7.178
  Name = 
  25 active torsions:
  status: ('A' for Active; 'I' for Inactive)
    1  A    between atoms: C_1  and  C_17
    2  A    between atoms: C_3  and  C_38
    3  A    between atoms: C_3  and  C_52
    4  A    between atoms: N_4  and  C_16
    5  A    between atoms: N_4  and  N_26
    6  A    between atoms: C_5  and  C_17
    7  A    between atoms: C_5  and  C_36
    8  A    between atoms: C_8  and  C_20
    9  A    between atoms: N_12  and  C_52
   10  A    between atoms: C_14  and  N_24
   11  A    between atoms: C_15  and  C_38
   12  A    between atoms: C_15  and  C_44
   13  A    between atoms: C_16  and  N_48
   14  A    between atoms: C_17  and  N_26
   15  A    between atoms: C_18  and  C_22
   16  A    between atoms: N_24  and  C_43
   17  A    between atoms: N_27  and  N_28
   18  A    between atoms: C_29  and  N_39
   19  A    between atoms: N_30  and  C_34
   20  A    between atoms: N_30  and  N_39
   21  A    between atoms: S_31  and  C_52
   22  A    between atoms: C_34  and  C_45
   23  A    between atoms: C_34  and  N_48
   24  A    between atoms: C_37  and  C_43
   25  A    between atoms: C_37  and  C_52
                            x       y       z     vdW  Elec       q    Type
                         _______ _______ _______ _____ _____    ______ ____

>  <TORSDO>
F 25

$$$$
=
 OpenBabel10222420563D

 56 58  0  0  1  0  0  0  0  0999 V2000
  188.2430  177.1740  140.9190 C   0  0  0  0  0  2  0  0  0  0  0  0
  189.7320  178.3750  142.9880 C   0  0  0  0  0  2  0  0  0  0  0  0
  189.6230  176.5560  141.1720 C   0  0  2  0  0  3  0  0  0  0  0  0
  190.2380  176.0950  143.4370 F   0  0  0  0  0  0  0  0  0  0  0  0
  188.1990  178.7160  141.0250 C   0  0  2  0  0  3  0  0  0  0  0  0
  190.3110  177.0620  142.4530 C   0  0  2  0  0  3  0  0  0  0  0  0
  189.3720  179.2950  141.8250 C   0  0  0  0  0  2  0  0  0  0  0  0
  190.5480  176.6860  140.0010 C   0  0  0  0  0  0  0  0  0  0  0  0
  191.6150  177.3430  140.0950 O   0  0  0  0  0  0  0  0  0  0  0  0
  190.2750  175.9300  138.8230 N   0  0  0  0  0  2  0  0  0  0  0  0
  191.2290  175.7780  137.8060 N   0  0  0  0  0  2  0  0  0  0  0  0
  191.3130  174.5550  137.0780 C   0  0  0  0  0  0  0  0  0  0  0  0
  190.6040  173.5710  137.4240 O   0  0  0  0  0  0  0  0  0  0  0  0
  192.2880  174.4440  135.9440 C   0  0  1  0  0  3  0  0  0  0  0  0
  192.7490  175.7570  135.5290 N   0  0  0  0  0  1  0  0  0  0  0  0
  193.4670  173.5080  136.2250 C   0  0  0  0  0  2  0  0  0  0  0  0
  194.3670  174.0300  137.3450 C   0  0  0  0  0  2  0  0  0  0  0  0
  195.7140  173.3040  137.4450 C   0  0  1  0  0  0  0  0  0  0  0  0
  196.3060  173.5550  138.7650 N   0  0  0  0  0  2  0  0  0  0  0  0
  196.1390  174.7170  139.5880 C   0  0  0  0  0  0  0  0  0  0  0  0
  197.0120  174.9930  140.4440 O   0  0  0  0  0  1  0  0  0  0  0  0
  195.0580  175.5740  139.4210 O   0  0  0  0  0  0  0  0  0  0  0  0
  195.4950  171.5290  137.1210 S   0  0  0  0  0  3  0  0  0  0  0  0
  195.2990  170.8750  138.4840 O   0  0  0  0  0  0  0  0  0  0  0  0
  196.5870  173.9040  136.3250 C   0  0  0  0  0  2  0  0  0  0  0  0
  197.3620  175.1950  136.6200 C   0  0  1  0  0  3  0  0  0  0  0  0
  198.6430  174.9070  137.0920 O   0  0  0  0  0  1  0  0  0  0  0  0
  197.4360  176.0440  135.4400 N   0  0  0  0  0  2  0  0  0  0  0  0
  196.2110  178.0640  134.8680 C   0  0  0  0  0  1  0  0  0  0  0  0
  196.1090  176.5940  135.2100 C   0  0  0  0  0  2  0  0  0  0  0  0
  186.9530  179.1520  141.6490 N   0  0  0  0  0  2  0  0  0  0  0  0
  185.9770  178.1600  141.4400 N   0  0  0  0  0  2  0  0  0  0  0  0
  185.1440  178.0890  142.6410 C   0  0  1  0  0  3  0  0  0  0  0  0
  186.5130  178.5330  146.1540 C   0  0  0  0  0  3  0  0  0  0  0  0
  187.3670  177.4260  146.2740 C   0  0  0  0  0  0  0  0  0  0  0  0
  187.5830  176.6130  145.1480 C   0  0  0  0  0  3  0  0  0  0  0  0
  186.8920  176.8570  143.9530 C   0  0  0  0  0  3  0  0  0  0  0  0
  186.0000  177.9300  143.8620 C   0  0  0  0  0  0  0  0  0  0  0  0
  185.8220  178.7770  144.9650 C   0  0  0  0  0  3  0  0  0  0  0  0
  188.0820  178.3670  148.4810 C   0  0  0  0  0  2  0  0  0  0  0  0
  188.0200  177.1210  147.6040 C   0  0  2  0  0  3  0  0  0  0  0  0
  190.2260  177.4030  148.3200 C   0  0  0  0  0  2  0  0  0  0  0  0
  189.3890  176.6540  147.3910 N   0  0  0  0  0  2  0  0  0  0  0  0
  189.5420  178.7140  148.5720 C   0  0  0  0  0  2  0  0  0  0  0  0
  184.3420  179.3040  142.7700 N   0  0  0  0  0  2  0  0  0  0  0  0
  182.9480  178.9180  142.8960 C   0  0  0  0  0  2  0  0  0  0  0  0
  182.4420  178.4990  141.5970 N   0  0  0  0  0  2  0  0  0  0  0  0
  181.0770  178.8250  141.5620 N   0  0  0  0  0  2  0  0  0  0  0  0
  180.5710  178.4250  140.2510 C   0  0  2  0  0  3  0  0  0  0  0  0
  180.5440  179.6030  139.2740 C   0  0  2  0  0  3  0  0  0  0  0  0
  179.2660  180.4110  139.4270 C   0  0  0  0  0  1  0  0  0  0  0  0
  181.9990  178.6460  137.4100 N   0  0  0  0  0  1  0  0  0  0  0  0
  180.7580  179.1950  137.8440 C   0  0  0  0  0  0  0  0  0  0  0  0
  179.8370  179.3770  137.0000 O   0  0  0  0  0  0  0  0  0  0  0  0
  179.2090  177.7580  140.3730 C   0  0  0  0  0  2  0  0  0  0  0  0
  179.1340  177.0870  141.5910 O   0  0  0  0  0  1  0  0  0  0  0  0
  1  5  1  0  0  0  0
  1  3  1  0  0  0  0
  3  8  1  6  0  0  0
  3  6  1  0  0  0  0
  5 31  1  1  0  0  0
  5  7  1  0  0  0  0
  6  2  1  0  0  0  0
  6  4  1  1  0  0  0
  7  2  1  0  0  0  0
  8  9  2  0  0  0  0
 10  8  1  0  0  0  0
 11 10  1  0  0  0  0
 12 13  2  0  0  0  0
 12 11  1  0  0  0  0
 14 15  1  1  0  0  0
 14 16  1  0  0  0  0
 14 12  1  0  0  0  0
 16 17  1  0  0  0  0
 17 18  1  0  0  0  0
 18 25  1  6  0  0  0
 18 19  1  0  0  0  0
 19 20  1  0  0  0  0
 20 21  1  0  0  0  0
 22 20  2  0  0  0  0
 23 18  1  0  0  0  0
 23 24  2  0  0  0  0
 25 26  1  0  0  0  0
 26 27  1  6  0  0  0
 28 26  1  0  0  0  0
 29 30  1  0  0  0  0
 30 28  1  0  0  0  0
 32 31  1  0  0  0  0
 33 32  1  6  0  0  0
 33 45  1  0  0  0  0
 33 38  1  0  0  0  0
 34 35  1  0  0  0  0
 36 35  2  0  0  0  0
 37 36  1  0  0  0  0
 38 37  2  0  0  0  0
 38 39  1  0  0  0  0
 39 34  2  0  0  0  0
 40 44  1  0  0  0  0
 41 35  1  6  0  0  0
 41 40  1  0  0  0  0
 42 44  1  0  0  0  0
 43 41  1  0  0  0  0
 43 42  1  0  0  0  0
 45 46  1  0  0  0  0
 47 46  1  0  0  0  0
 48 47  1  0  0  0  0
 49 55  1  1  0  0  0
 49 48  1  0  0  0  0
 50 51  1  6  0  0  0
 50 49  1  0  0  0  0
 52 53  1  0  0  0  0
 53 50  1  0  0  0  0
 54 53  2  0  0  0  0
 55 56  1  0  0  0  0
M  END
>  <MODEL>
5

>  <REMARK>
 VINA RESULT:      -5.5      4.323     10.646
  Name = 
  25 active torsions:
  status: ('A' for Active; 'I' for Inactive)
    1  A    between atoms: C_1  and  C_17
    2  A    between atoms: C_3  and  C_38
    3  A    between atoms: C_3  and  C_52
    4  A    between atoms: N_4  and  C_16
    5  A    between atoms: N_4  and  N_26
    6  A    between atoms: C_5  and  C_17
    7  A    between atoms: C_5  and  C_36
    8  A    between atoms: C_8  and  C_20
    9  A    between atoms: N_12  and  C_52
   10  A    between atoms: C_14  and  N_24
   11  A    between atoms: C_15  and  C_38
   12  A    between atoms: C_15  and  C_44
   13  A    between atoms: C_16  and  N_48
   14  A    between atoms: C_17  and  N_26
   15  A    between atoms: C_18  and  C_22
   16  A    between atoms: N_24  and  C_43
   17  A    between atoms: N_27  and  N_28
   18  A    between atoms: C_29  and  N_39
   19  A    between atoms: N_30  and  C_34
   20  A    between atoms: N_30  and  N_39
   21  A    between atoms: S_31  and  C_52
   22  A    between atoms: C_34  and  C_45
   23  A    between atoms: C_34  and  N_48
   24  A    between atoms: C_37  and  C_43
   25  A    between atoms: C_37  and  C_52
                            x       y       z     vdW  Elec       q    Type
                         _______ _______ _______ _____ _____    ______ ____

>  <TORSDO>
F 25

$$$$
=
 OpenBabel10222420563D

 56 58  0  0  1  0  0  0  0  0999 V2000
  190.1700  174.5970  137.6200 C   0  0  0  0  0  2  0  0  0  0  0  0
  191.3110  175.9750  135.4420 C   0  0  0  0  0  2  0  0  0  0  0  0
  190.1330  173.8470  136.2830 C   0  0  2  0  0  3  0  0  0  0  0  0
  192.1380  173.7940  134.9810 F   0  0  0  0  0  0  0  0  0  0  0  0
  189.8930  176.1150  137.5140 C   0  0  2  0  0  3  0  0  0  0  0  0
  190.9710  174.5060  135.1720 C   0  0  2  0  0  3  0  0  0  0  0  0
  190.1230  176.6690  136.1030 C   0  0  0  0  0  2  0  0  0  0  0  0
  188.7410  173.5840  135.7960 C   0  0  0  0  0  0  0  0  0  0  0  0
  188.5280  173.2730  134.5970 O   0  0  0  0  0  0  0  0  0  0  0  0
  187.6770  173.5450  136.7440 N   0  0  0  0  0  2  0  0  0  0  0  0
  186.4130  173.0320  136.4160 N   0  0  0  0  0  2  0  0  0  0  0  0
  185.3630  173.9120  136.0220 C   0  0  0  0  0  0  0  0  0  0  0  0
  185.5380  175.1590  136.0760 O   0  0  0  0  0  0  0  0  0  0  0  0
  184.0440  173.3340  135.6010 C   0  0  1  0  0  3  0  0  0  0  0  0
  184.0930  171.8830  135.5990 N   0  0  0  0  0  1  0  0  0  0  0  0
  182.8510  173.8450  136.4160 C   0  0  0  0  0  2  0  0  0  0  0  0
  181.5590  173.8620  135.6000 C   0  0  0  0  0  2  0  0  0  0  0  0
  180.3270  174.2990  136.4030 C   0  0  1  0  0  0  0  0  0  0  0  0
  179.3920  173.1730  136.5130 N   0  0  0  0  0  2  0  0  0  0  0  0
  179.6250  171.9040  137.1400 C   0  0  0  0  0  0  0  0  0  0  0  0
  178.9450  170.9120  136.7900 O   0  0  0  0  0  0  0  0  0  0  0  0
  180.6260  171.7400  138.0900 O   0  0  0  0  0  1  0  0  0  0  0  0
  180.8310  174.9300  138.0310 S   0  0  0  0  0  3  0  0  0  0  0  0
  179.5540  175.0180  138.8590 O   0  0  0  0  0  0  0  0  0  0  0  0
  179.7040  175.4580  135.5980 C   0  0  0  0  0  2  0  0  0  0  0  0
  180.1260  176.8920  135.9430 C   0  0  1  0  0  3  0  0  0  0  0  0
  180.8480  177.4620  134.8940 O   0  0  0  0  0  1  0  0  0  0  0  0
  178.9710  177.7150  136.2690 N   0  0  0  0  0  2  0  0  0  0  0  0
  179.5500  179.9190  137.1150 C   0  0  0  0  0  1  0  0  0  0  0  0
  179.2950  178.4710  137.4690 C   0  0  0  0  0  2  0  0  0  0  0  0
  190.7400  176.8560  138.4450 N   0  0  0  0  0  2  0  0  0  0  0  0
  190.0150  177.9630  138.9250 N   0  0  0  0  0  2  0  0  0  0  0  0
  188.9150  177.4570  139.7470 C   0  0  1  0  0  3  0  0  0  0  0  0
  190.9740  177.8060  142.9170 C   0  0  0  0  0  3  0  0  0  0  0  0
  189.9840  177.7760  143.9110 C   0  0  0  0  0  0  0  0  0  0  0  0
  188.6550  177.5100  143.5340 C   0  0  0  0  0  3  0  0  0  0  0  0
  188.3180  177.3630  142.1830 C   0  0  0  0  0  3  0  0  0  0  0  0
  189.3040  177.4510  141.1950 C   0  0  0  0  0  0  0  0  0  0  0  0
  190.6390  177.6610  141.5690 C   0  0  0  0  0  3  0  0  0  0  0  0
  191.4720  177.1090  145.8110 C   0  0  0  0  0  2  0  0  0  0  0  0
  190.3560  178.0420  145.3530 C   0  0  2  0  0  3  0  0  0  0  0  0
  189.6700  176.9940  147.3250 C   0  0  0  0  0  2  0  0  0  0  0  0
  189.1990  177.8150  146.2170 N   0  0  0  0  0  2  0  0  0  0  0  0
  190.8330  176.1930  146.8170 C   0  0  0  0  0  2  0  0  0  0  0  0
  187.7290  178.2910  139.5700 N   0  0  0  0  0  2  0  0  0  0  0  0
  187.3390  178.2390  138.1730 C   0  0  0  0  0  2  0  0  0  0  0  0
  185.9790  178.7390  138.0300 N   0  0  0  0  0  2  0  0  0  0  0  0
  185.1530  177.9180  138.8140 N   0  0  0  0  0  2  0  0  0  0  0  0
  184.1970  178.7900  139.4920 C   0  0  2  0  0  3  0  0  0  0  0  0
  183.7400  178.1960  140.8260 C   0  0  2  0  0  3  0  0  0  0  0  0
  182.2670  178.4790  141.0750 C   0  0  0  0  0  1  0  0  0  0  0  0
  185.5710  179.6480  141.8480 N   0  0  0  0  0  1  0  0  0  0  0  0
  184.5790  178.6350  141.9930 C   0  0  0  0  0  0  0  0  0  0  0  0
  184.4320  178.0720  143.1130 O   0  0  0  0  0  0  0  0  0  0  0  0
  183.0200  179.1180  138.5850 C   0  0  0  0  0  2  0  0  0  0  0  0
  182.8380  178.0790  137.6750 O   0  0  0  0  0  1  0  0  0  0  0  0
  2  7  1  0  0  0  0
  3  8  1  6  0  0  0
  3  1  1  0  0  0  0
  5  1  1  0  0  0  0
  5 31  1  1  0  0  0
  6  4  1  1  0  0  0
  6  2  1  0  0  0  0
  6  3  1  0  0  0  0
  7  5  1  0  0  0  0
  8 10  1  0  0  0  0
  9  8  2  0  0  0  0
 11 10  1  0  0  0  0
 12 13  2  0  0  0  0
 12 11  1  0  0  0  0
 14 15  1  1  0  0  0
 14 12  1  0  0  0  0
 14 16  1  0  0  0  0
 17 18  1  0  0  0  0
 17 16  1  0  0  0  0
 18 25  1  6  0  0  0
 18 19  1  0  0  0  0
 18 23  1  0  0  0  0
 19 20  1  0  0  0  0
 20 22  1  0  0  0  0
 21 20  2  0  0  0  0
 23 24  2  0  0  0  0
 25 26  1  0  0  0  0
 26 27  1  6  0  0  0
 26 28  1  0  0  0  0
 28 30  1  0  0  0  0
 29 30  1  0  0  0  0
 31 32  1  0  0  0  0
 33 32  1  6  0  0  0
 33 38  1  0  0  0  0
 34 35  1  0  0  0  0
 36 35  2  0  0  0  0
 37 36  1  0  0  0  0
 38 39  1  0  0  0  0
 38 37  2  0  0  0  0
 39 34  2  0  0  0  0
 40 44  1  0  0  0  0
 41 35  1  6  0  0  0
 41 40  1  0  0  0  0
 41 43  1  0  0  0  0
 43 42  1  0  0  0  0
 44 42  1  0  0  0  0
 45 33  1  0  0  0  0
 46 45  1  0  0  0  0
 47 46  1  0  0  0  0
 47 48  1  0  0  0  0
 48 49  1  0  0  0  0
 49 55  1  6  0  0  0
 49 50  1  0  0  0  0
 50 51  1  1  0  0  0
 50 53  1  0  0  0  0
 52 53  1  0  0  0  0
 53 54  2  0  0  0  0
 56 55  1  0  0  0  0
M  END
>  <MODEL>
6

>  <REMARK>
 VINA RESULT:      -5.5      3.593      6.702
  Name = 
  25 active torsions:
  status: ('A' for Active; 'I' for Inactive)
    1  A    between atoms: C_1  and  C_17
    2  A    between atoms: C_3  and  C_38
    3  A    between atoms: C_3  and  C_52
    4  A    between atoms: N_4  and  C_16
    5  A    between atoms: N_4  and  N_26
    6  A    between atoms: C_5  and  C_17
    7  A    between atoms: C_5  and  C_36
    8  A    between atoms: C_8  and  C_20
    9  A    between atoms: N_12  and  C_52
   10  A    between atoms: C_14  and  N_24
   11  A    between atoms: C_15  and  C_38
   12  A    between atoms: C_15  and  C_44
   13  A    between atoms: C_16  and  N_48
   14  A    between atoms: C_17  and  N_26
   15  A    between atoms: C_18  and  C_22
   16  A    between atoms: N_24  and  C_43
   17  A    between atoms: N_27  and  N_28
   18  A    between atoms: C_29  and  N_39
   19  A    between atoms: N_30  and  C_34
   20  A    between atoms: N_30  and  N_39
   21  A    between atoms: S_31  and  C_52
   22  A    between atoms: C_34  and  C_45
   23  A    between atoms: C_34  and  N_48
   24  A    between atoms: C_37  and  C_43
   25  A    between atoms: C_37  and  C_52
                            x       y       z     vdW  Elec       q    Type
                         _______ _______ _______ _____ _____    ______ ____

>  <TORSDO>
F 25

$$$$
=
 OpenBabel10222420563D

 56 58  0  0  1  0  0  0  0  0999 V2000
  189.6890  178.0440  141.9740 C   0  0  0  0  0  2  0  0  0  0  0  0
  191.4620  176.4850  143.5130 C   0  0  0  0  0  2  0  0  0  0  0  0
  189.5810  178.2400  143.4900 C   0  0  2  0  0  3  0  0  0  0  0  0
  191.6100  178.5260  144.7240 F   0  0  0  0  0  0  0  0  0  0  0  0
  189.9200  176.5810  141.5290 C   0  0  2  0  0  3  0  0  0  0  0  0
  190.7130  177.5710  144.2910 C   0  0  2  0  0  3  0  0  0  0  0  0
  190.4820  175.6970  142.6480 C   0  0  0  0  0  2  0  0  0  0  0  0
  188.2480  177.8380  144.0410 C   0  0  0  0  0  0  0  0  0  0  0  0
  188.1080  177.5820  145.2630 O   0  0  0  0  0  0  0  0  0  0  0  0
  187.1070  177.8940  143.1870 N   0  0  0  0  0  2  0  0  0  0  0  0
  185.8010  177.8090  143.6930 N   0  0  0  0  0  2  0  0  0  0  0  0
  184.8230  178.7780  143.3220 C   0  0  0  0  0  0  0  0  0  0  0  0
  185.1630  179.7750  142.6270 O   0  0  0  0  0  0  0  0  0  0  0  0
  183.4150  178.6230  143.8130 C   0  0  1  0  0  3  0  0  0  0  0  0
  183.1020  179.6310  144.8100 N   0  0  0  0  0  1  0  0  0  0  0  0
  182.3640  178.6020  142.6990 C   0  0  0  0  0  2  0  0  0  0  0  0
  182.8630  177.8840  141.4460 C   0  0  0  0  0  2  0  0  0  0  0  0
  182.0480  178.1990  140.1860 C   0  0  1  0  0  0  0  0  0  0  0  0
  181.3370  179.4700  140.3710 N   0  0  0  0  0  2  0  0  0  0  0  0
  180.6040  180.2100  139.3850 C   0  0  0  0  0  0  0  0  0  0  0  0
  180.4340  181.4410  139.5430 O   0  0  0  0  0  1  0  0  0  0  0  0
  180.1240  179.6020  138.2320 O   0  0  0  0  0  0  0  0  0  0  0  0
  183.1320  178.2290  138.7280 S   0  0  0  0  0  3  0  0  0  0  0  0
  184.0360  179.4430  138.9030 O   0  0  0  0  0  0  0  0  0  0  0  0
  181.0560  177.0280  140.0370 C   0  0  0  0  0  2  0  0  0  0  0  0
  179.9040  176.9170  141.0450 C   0  0  1  0  0  3  0  0  0  0  0  0
  178.9360  177.8920  140.8000 O   0  0  0  0  0  1  0  0  0  0  0  0
  179.3060  175.5910  141.0160 N   0  0  0  0  0  2  0  0  0  0  0  0
  179.0950  174.1840  139.0440 C   0  0  0  0  0  1  0  0  0  0  0  0
  180.0470  174.7960  140.0480 C   0  0  0  0  0  2  0  0  0  0  0  0
  190.8380  176.5290  140.3940 N   0  0  0  0  0  2  0  0  0  0  0  0
  190.0800  176.4900  139.2080 N   0  0  0  0  0  2  0  0  0  0  0  0
  190.7980  175.6560  138.2440 C   0  0  1  0  0  3  0  0  0  0  0  0
  189.3090  173.3220  135.6460 C   0  0  0  0  0  3  0  0  0  0  0  0
  187.9570  173.6990  135.6580 C   0  0  0  0  0  0  0  0  0  0  0  0
  187.5720  174.8100  136.4300 C   0  0  0  0  0  3  0  0  0  0  0  0
  188.5070  175.4720  137.2360 C   0  0  0  0  0  3  0  0  0  0  0  0
  189.8410  175.0520  137.2600 C   0  0  0  0  0  0  0  0  0  0  0  0
  190.2420  173.9800  136.4500 C   0  0  0  0  0  3  0  0  0  0  0  0
  185.6190  172.8050  135.6050 C   0  0  0  0  0  2  0  0  0  0  0  0
  186.9470  172.9030  134.8610 C   0  0  2  0  0  3  0  0  0  0  0  0
  186.3420  170.6500  134.9830 C   0  0  0  0  0  2  0  0  0  0  0  0
  187.4420  171.5440  134.6460 N   0  0  0  0  0  2  0  0  0  0  0  0
  185.4910  171.3590  135.9960 C   0  0  0  0  0  2  0  0  0  0  0  0
  191.7860  176.4570  137.5240 N   0  0  0  0  0  2  0  0  0  0  0  0
  193.1090  176.0460  137.9590 C   0  0  0  0  0  2  0  0  0  0  0  0
  193.5720  174.9430  137.1270 N   0  0  0  0  0  2  0  0  0  0  0  0
  194.3070  174.0820  137.9570 N   0  0  0  0  0  2  0  0  0  0  0  0
  195.6590  174.6270  138.0540 C   0  0  2  0  0  3  0  0  0  0  0  0
  196.6010  173.9830  137.0340 C   0  0  2  0  0  3  0  0  0  0  0  0
  196.9770  174.9680  135.9390 C   0  0  0  0  0  1  0  0  0  0  0  0
  195.3120  172.7050  135.2420 N   0  0  0  0  0  1  0  0  0  0  0  0
  196.0650  172.7060  136.4510 C   0  0  0  0  0  0  0  0  0  0  0  0
  196.2510  171.6170  137.0620 O   0  0  0  0  0  0  0  0  0  0  0  0
  196.1940  174.5080  139.4730 C   0  0  0  0  0  2  0  0  0  0  0  0
  196.1720  175.7630  140.0780 O   0  0  0  0  0  1  0  0  0  0  0  0
  1  3  1  0  0  0  0
  2  6  1  0  0  0  0
  3  8  1  1  0  0  0
  3  6  1  0  0  0  0
  5 31  1  6  0  0  0
  5  1  1  0  0  0  0
  5  7  1  0  0  0  0
  6  4  1  6  0  0  0
  7  2  1  0  0  0  0
  8  9  2  0  0  0  0
 10 11  1  0  0  0  0
 10  8  1  0  0  0  0
 12 11  1  0  0  0  0
 12 14  1  0  0  0  0
 13 12  2  0  0  0  0
 14 15  1  1  0  0  0
 16 14  1  0  0  0  0
 17 16  1  0  0  0  0
 18 25  1  6  0  0  0
 18 19  1  0  0  0  0
 18 17  1  0  0  0  0
 20 21  1  0  0  0  0
 20 19  1  0  0  0  0
 22 20  2  0  0  0  0
 23 24  2  0  0  0  0
 23 18  1  0  0  0  0
 25 26  1  0  0  0  0
 26 27  1  6  0  0  0
 28 26  1  0  0  0  0
 29 30  1  0  0  0  0
 30 28  1  0  0  0  0
 32 31  1  0  0  0  0
 33 45  1  6  0  0  0
 33 32  1  0  0  0  0
 34 35  2  0  0  0  0
 34 39  1  0  0  0  0
 35 36  1  0  0  0  0
 36 37  2  0  0  0  0
 37 38  1  0  0  0  0
 38 33  1  0  0  0  0
 39 38  2  0  0  0  0
 40 44  1  0  0  0  0
 41 40  1  0  0  0  0
 41 35  1  1  0  0  0
 42 44  1  0  0  0  0
 43 41  1  0  0  0  0
 43 42  1  0  0  0  0
 45 46  1  0  0  0  0
 47 48  1  0  0  0  0
 47 46  1  0  0  0  0
 48 49  1  0  0  0  0
 49 55  1  1  0  0  0
 50 51  1  6  0  0  0
 50 49  1  0  0  0  0
 52 53  1  0  0  0  0
 53 50  1  0  0  0  0
 53 54  2  0  0  0  0
 55 56  1  0  0  0  0
M  END
>  <MODEL>
7

>  <REMARK>
 VINA RESULT:      -4.9      3.606      7.442
  Name = 
  25 active torsions:
  status: ('A' for Active; 'I' for Inactive)
    1  A    between atoms: C_1  and  C_17
    2  A    between atoms: C_3  and  C_38
    3  A    between atoms: C_3  and  C_52
    4  A    between atoms: N_4  and  C_16
    5  A    between atoms: N_4  and  N_26
    6  A    between atoms: C_5  and  C_17
    7  A    between atoms: C_5  and  C_36
    8  A    between atoms: C_8  and  C_20
    9  A    between atoms: N_12  and  C_52
   10  A    between atoms: C_14  and  N_24
   11  A    between atoms: C_15  and  C_38
   12  A    between atoms: C_15  and  C_44
   13  A    between atoms: C_16  and  N_48
   14  A    between atoms: C_17  and  N_26
   15  A    between atoms: C_18  and  C_22
   16  A    between atoms: N_24  and  C_43
   17  A    between atoms: N_27  and  N_28
   18  A    between atoms: C_29  and  N_39
   19  A    between atoms: N_30  and  C_34
   20  A    between atoms: N_30  and  N_39
   21  A    between atoms: S_31  and  C_52
   22  A    between atoms: C_34  and  C_45
   23  A    between atoms: C_34  and  N_48
   24  A    between atoms: C_37  and  C_43
   25  A    between atoms: C_37  and  C_52
                            x       y       z     vdW  Elec       q    Type
                         _______ _______ _______ _____ _____    ______ ____

>  <TORSDO>
F 25

$$$$
=
 OpenBabel10222420563D

 56 58  0  0  1  0  0  0  0  0999 V2000
  189.5230  175.9490  138.4000 C   0  0  0  0  0  2  0  0  0  0  0  0
  190.0520  178.0210  136.5640 C   0  0  0  0  0  2  0  0  0  0  0  0
  189.5290  175.5280  136.9260 C   0  0  2  0  0  3  0  0  0  0  0  0
  191.3360  176.2910  135.5580 F   0  0  0  0  0  0  0  0  0  0  0  0
  188.8730  177.3260  138.6730 C   0  0  2  0  0  3  0  0  0  0  0  0
  190.0570  176.6110  135.9670 C   0  0  2  0  0  3  0  0  0  0  0  0
  188.8070  178.2150  137.4260 C   0  0  0  0  0  2  0  0  0  0  0  0
  188.2010  175.0200  136.4550 C   0  0  0  0  0  0  0  0  0  0  0  0
  187.5810  175.6050  135.5310 O   0  0  0  0  0  0  0  0  0  0  0  0
  187.7200  173.7790  136.9650 N   0  0  0  0  0  2  0  0  0  0  0  0
  186.6410  173.1060  136.3740 N   0  0  0  0  0  2  0  0  0  0  0  0
  185.5220  172.7110  137.1640 C   0  0  0  0  0  0  0  0  0  0  0  0
  185.5520  172.8680  138.4150 O   0  0  0  0  0  0  0  0  0  0  0  0
  184.3470  172.0610  136.4950 C   0  0  1  0  0  3  0  0  0  0  0  0
  183.4540  171.4730  137.4780 N   0  0  0  0  0  1  0  0  0  0  0  0
  183.5850  172.9840  135.5390 C   0  0  0  0  0  2  0  0  0  0  0  0
  183.0470  174.2300  136.2420 C   0  0  0  0  0  2  0  0  0  0  0  0
  181.5570  174.4880  135.9890 C   0  0  1  0  0  0  0  0  0  0  0  0
  181.4000  175.7240  135.2130 N   0  0  0  0  0  2  0  0  0  0  0  0
  182.4190  176.6750  134.8740 C   0  0  0  0  0  0  0  0  0  0  0  0
  182.0930  177.8550  134.6110 O   0  0  0  0  0  0  0  0  0  0  0  0
  183.7640  176.3280  134.8820 O   0  0  0  0  0  1  0  0  0  0  0  0
  180.8050  173.0580  135.1560 S   0  0  0  0  0  3  0  0  0  0  0  0
  180.2240  172.1860  136.2620 O   0  0  0  0  0  0  0  0  0  0  0  0
  180.9230  174.6300  137.3880 C   0  0  0  0  0  2  0  0  0  0  0  0
  179.5490  175.3030  137.5000 C   0  0  1  0  0  3  0  0  0  0  0  0
  178.9790  175.0620  138.7500 O   0  0  0  0  0  1  0  0  0  0  0  0
  179.6450  176.7340  137.2540 N   0  0  0  0  0  2  0  0  0  0  0  0
  179.1680  178.8800  138.2930 C   0  0  0  0  0  1  0  0  0  0  0  0
  179.4510  177.4130  138.5270 C   0  0  0  0  0  2  0  0  0  0  0  0
  189.6050  178.0420  139.7140 N   0  0  0  0  0  2  0  0  0  0  0  0
  188.6750  178.6290  140.5920 N   0  0  0  0  0  2  0  0  0  0  0  0
  187.9420  177.5500  141.2550 C   0  0  1  0  0  3  0  0  0  0  0  0
  187.4560  177.3770  145.0170 C   0  0  0  0  0  3  0  0  0  0  0  0
  188.7720  177.2000  145.4710 C   0  0  0  0  0  0  0  0  0  0  0  0
  189.8240  177.2680  144.5400 C   0  0  0  0  0  3  0  0  0  0  0  0
  189.5540  177.4270  143.1750 C   0  0  0  0  0  3  0  0  0  0  0  0
  188.2340  177.5460  142.7260 C   0  0  0  0  0  0  0  0  0  0  0  0
  187.1840  177.5330  143.6560 C   0  0  0  0  0  3  0  0  0  0  0  0
  187.9330  177.5240  147.8070 C   0  0  0  0  0  2  0  0  0  0  0  0
  189.0320  176.9250  146.9360 C   0  0  2  0  0  3  0  0  0  0  0  0
  190.0390  178.2450  148.5800 C   0  0  0  0  0  2  0  0  0  0  0  0
  190.3010  177.5290  147.3380 N   0  0  0  0  0  2  0  0  0  0  0  0
  188.5930  178.6450  148.5620 C   0  0  0  0  0  2  0  0  0  0  0  0
  186.5050  177.7180  141.0510 N   0  0  0  0  0  2  0  0  0  0  0  0
  186.2790  179.0220  140.4540 C   0  0  0  0  0  2  0  0  0  0  0  0
  184.9490  179.4960  140.8130 N   0  0  0  0  0  2  0  0  0  0  0  0
  184.3000  178.4410  141.4750 N   0  0  0  0  0  2  0  0  0  0  0  0
  183.1110  178.9980  142.1120 C   0  0  2  0  0  3  0  0  0  0  0  0
  183.0350  178.6210  143.5940 C   0  0  2  0  0  3  0  0  0  0  0  0
  181.6130  178.7440  144.1170 C   0  0  0  0  0  1  0  0  0  0  0  0
  184.2280  179.0240  145.8120 N   0  0  0  0  0  1  0  0  0  0  0  0
  183.9970  179.3900  144.4550 C   0  0  0  0  0  0  0  0  0  0  0  0
  184.5840  180.4020  143.9820 O   0  0  0  0  0  0  0  0  0  0  0  0
  181.8510  178.5980  141.3600 C   0  0  0  0  0  2  0  0  0  0  0  0
  182.1630  177.5990  140.4400 O   0  0  0  0  0  1  0  0  0  0  0  0
  1  5  1  0  0  0  0
  2  7  1  0  0  0  0
  3  8  1  6  0  0  0
  3  1  1  0  0  0  0
  5 31  1  1  0  0  0
  6  4  1  1  0  0  0
  6  2  1  0  0  0  0
  6  3  1  0  0  0  0
  7  5  1  0  0  0  0
  8 10  1  0  0  0  0
  9  8  2  0  0  0  0
 11 10  1  0  0  0  0
 11 12  1  0  0  0  0
 12 13  2  0  0  0  0
 14 12  1  0  0  0  0
 14 15  1  1  0  0  0
 16 17  1  0  0  0  0
 16 14  1  0  0  0  0
 18 17  1  1  0  0  0
 18 25  1  0  0  0  0
 19 18  1  0  0  0  0
 20 22  1  0  0  0  0
 20 19  1  0  0  0  0
 21 20  2  0  0  0  0
 23 18  1  0  0  0  0
 23 24  2  0  0  0  0
 25 26  1  0  0  0  0
 26 27  1  1  0  0  0
 28 26  1  0  0  0  0
 28 30  1  0  0  0  0
 29 30  1  0  0  0  0
 31 32  1  0  0  0  0
 33 32  1  6  0  0  0
 33 38  1  0  0  0  0
 34 35  1  0  0  0  0
 36 35  2  0  0  0  0
 37 36  1  0  0  0  0
 38 37  2  0  0  0  0
 38 39  1  0  0  0  0
 39 34  2  0  0  0  0
 40 44  1  0  0  0  0
 41 35  1  6  0  0  0
 41 43  1  0  0  0  0
 41 40  1  0  0  0  0
 43 42  1  0  0  0  0
 44 42  1  0  0  0  0
 45 33  1  0  0  0  0
 46 47  1  0  0  0  0
 46 45  1  0  0  0  0
 47 48  1  0  0  0  0
 48 49  1  0  0  0  0
 49 55  1  6  0  0  0
 49 50  1  0  0  0  0
 50 51  1  1  0  0  0
 50 53  1  0  0  0  0
 53 52  1  0  0  0  0
 54 53  2  0  0  0  0
 56 55  1  0  0  0  0
M  END
>  <MODEL>
8

>  <REMARK>
 VINA RESULT:      -4.8      3.153      6.640
  Name = 
  25 active torsions:
  status: ('A' for Active; 'I' for Inactive)
    1  A    between atoms: C_1  and  C_17
    2  A    between atoms: C_3  and  C_38
    3  A    between atoms: C_3  and  C_52
    4  A    between atoms: N_4  and  C_16
    5  A    between atoms: N_4  and  N_26
    6  A    between atoms: C_5  and  C_17
    7  A    between atoms: C_5  and  C_36
    8  A    between atoms: C_8  and  C_20
    9  A    between atoms: N_12  and  C_52
   10  A    between atoms: C_14  and  N_24
   11  A    between atoms: C_15  and  C_38
   12  A    between atoms: C_15  and  C_44
   13  A    between atoms: C_16  and  N_48
   14  A    between atoms: C_17  and  N_26
   15  A    between atoms: C_18  and  C_22
   16  A    between atoms: N_24  and  C_43
   17  A    between atoms: N_27  and  N_28
   18  A    between atoms: C_29  and  N_39
   19  A    between atoms: N_30  and  C_34
   20  A    between atoms: N_30  and  N_39
   21  A    between atoms: S_31  and  C_52
   22  A    between atoms: C_34  and  C_45
   23  A    between atoms: C_34  and  N_48
   24  A    between atoms: C_37  and  C_43
   25  A    between atoms: C_37  and  C_52
                            x       y       z     vdW  Elec       q    Type
                         _______ _______ _______ _____ _____    ______ ____

>  <TORSDO>
F 25

$$$$
=
 OpenBabel10222420563D

 56 58  0  0  1  0  0  0  0  0999 V2000
  186.0300  179.6880  142.8630 C   0  0  0  0  0  2  0  0  0  0  0  0
  186.8040  177.4820  144.4360 C   0  0  0  0  0  2  0  0  0  0  0  0
  185.0190  179.2660  143.9340 C   0  0  2  0  0  3  0  0  0  0  0  0
  185.8450  178.8370  146.1380 F   0  0  0  0  0  0  0  0  0  0  0  0
  186.7350  178.5140  142.1450 C   0  0  2  0  0  3  0  0  0  0  0  0
  185.5610  178.2260  144.9330 C   0  0  2  0  0  3  0  0  0  0  0  0
  186.6800  177.2050  142.9400 C   0  0  0  0  0  2  0  0  0  0  0  0
  183.7150  178.8030  143.3610 C   0  0  0  0  0  0  0  0  0  0  0  0
  182.7170  178.6180  144.1020 O   0  0  0  0  0  0  0  0  0  0  0  0
  183.5790  178.7180  141.9440 N   0  0  0  0  0  2  0  0  0  0  0  0
  182.3270  178.5700  141.3300 N   0  0  0  0  0  2  0  0  0  0  0  0
  182.1060  177.5160  140.3960 C   0  0  0  0  0  0  0  0  0  0  0  0
  183.0690  176.7840  140.0390 O   0  0  0  0  0  0  0  0  0  0  0  0
  180.7380  177.3310  139.8110 C   0  0  1  0  0  3  0  0  0  0  0  0
  179.7440  178.0560  140.5840 N   0  0  0  0  0  1  0  0  0  0  0  0
  180.6430  177.6820  138.3220 C   0  0  0  0  0  2  0  0  0  0  0  0
  180.7250  176.4440  137.4300 C   0  0  0  0  0  2  0  0  0  0  0  0
  181.7420  176.5710  136.2880 C   0  0  1  0  0  0  0  0  0  0  0  0
  182.3040  175.2490  135.9870 N   0  0  0  0  0  2  0  0  0  0  0  0
  181.9970  174.0040  136.6290 C   0  0  0  0  0  0  0  0  0  0  0  0
  182.8320  173.0720  136.5900 O   0  0  0  0  0  0  0  0  0  0  0  0
  180.8150  173.8280  137.3370 O   0  0  0  0  0  1  0  0  0  0  0  0
  180.9590  177.3290  134.8330 S   0  0  0  0  0  3  0  0  0  0  0  0
  181.5380  178.7350  134.7300 O   0  0  0  0  0  0  0  0  0  0  0  0
  182.8300  177.5280  136.8140 C   0  0  0  0  0  2  0  0  0  0  0  0
  184.2840  177.0380  136.8310 C   0  0  1  0  0  3  0  0  0  0  0  0
  184.8290  177.0580  135.5470 O   0  0  0  0  0  1  0  0  0  0  0  0
  185.0960  177.8340  137.7390 N   0  0  0  0  0  2  0  0  0  0  0  0
  187.2880  178.5730  136.9920 C   0  0  0  0  0  1  0  0  0  0  0  0
  186.4820  177.4270  137.5600 C   0  0  0  0  0  2  0  0  0  0  0  0
  188.1360  178.8380  141.8850 N   0  0  0  0  0  2  0  0  0  0  0  0
  188.6000  178.0130  140.8430 N   0  0  0  0  0  2  0  0  0  0  0  0
  190.0400  177.8260  141.0270 C   0  0  1  0  0  3  0  0  0  0  0  0
  190.3220  178.0760  144.8050 C   0  0  0  0  0  3  0  0  0  0  0  0
  190.5910  176.7460  145.1640 C   0  0  0  0  0  0  0  0  0  0  0  0
  190.8050  175.8000  144.1460 C   0  0  0  0  0  3  0  0  0  0  0  0
  190.6690  176.1640  142.8000 C   0  0  0  0  0  3  0  0  0  0  0  0
  190.3440  177.4800  142.4540 C   0  0  0  0  0  0  0  0  0  0  0  0
  190.1840  178.4410  143.4640 C   0  0  0  0  0  3  0  0  0  0  0  0
  189.4320  176.9290  147.3760 C   0  0  0  0  0  2  0  0  0  0  0  0
  190.6290  176.3550  146.6250 C   0  0  2  0  0  3  0  0  0  0  0  0
  191.4230  177.5120  148.4930 C   0  0  0  0  0  2  0  0  0  0  0  0
  191.8430  176.8800  147.2490 N   0  0  0  0  0  2  0  0  0  0  0  0
  190.0060  177.9650  148.3020 C   0  0  0  0  0  2  0  0  0  0  0  0
  190.5230  176.7550  140.1590 N   0  0  0  0  0  2  0  0  0  0  0  0
  191.6190  177.2740  139.3610 C   0  0  0  0  0  2  0  0  0  0  0  0
  191.6620  176.5760  138.0830 N   0  0  0  0  0  2  0  0  0  0  0  0
  191.2990  175.2430  138.3290 N   0  0  0  0  0  2  0  0  0  0  0  0
  191.0720  174.6110  137.0330 C   0  0  2  0  0  3  0  0  0  0  0  0
  192.1570  174.9910  136.0220 C   0  0  2  0  0  3  0  0  0  0  0  0
  191.7170  174.6730  134.6020 C   0  0  0  0  0  1  0  0  0  0  0  0
  194.6570  174.7370  135.5820 N   0  0  0  0  0  1  0  0  0  0  0  0
  193.4940  174.3770  136.3240 C   0  0  0  0  0  0  0  0  0  0  0  0
  193.5860  173.4970  137.2240 O   0  0  0  0  0  0  0  0  0  0  0  0
  189.6770  174.9220  136.5110 C   0  0  0  0  0  2  0  0  0  0  0  0
  188.8820  175.3670  137.5650 O   0  0  0  0  0  1  0  0  0  0  0  0
  1  3  1  0  0  0  0
  2  6  1  0  0  0  0
  3  8  1  6  0  0  0
  3  6  1  0  0  0  0
  5 31  1  1  0  0  0
  5  1  1  0  0  0  0
  5  7  1  0  0  0  0
  6  4  1  1  0  0  0
  7  2  1  0  0  0  0
  8  9  2  0  0  0  0
 10  8  1  0  0  0  0
 11 10  1  0  0  0  0
 12 11  1  0  0  0  0
 13 12  2  0  0  0  0
 14 12  1  0  0  0  0
 14 15  1  1  0  0  0
 16 14  1  0  0  0  0
 17 16  1  0  0  0  0
 18 25  1  1  0  0  0
 18 17  1  0  0  0  0
 19 18  1  0  0  0  0
 19 20  1  0  0  0  0
 20 22  1  0  0  0  0
 21 20  2  0  0  0  0
 23 18  1  0  0  0  0
 24 23  2  0  0  0  0
 25 26  1  0  0  0  0
 26 27  1  6  0  0  0
 26 28  1  0  0  0  0
 29 30  1  0  0  0  0
 30 28  1  0  0  0  0
 32 33  1  0  0  0  0
 32 31  1  0  0  0  0
 33 45  1  6  0  0  0
 33 38  1  0  0  0  0
 34 35  1  0  0  0  0
 36 35  2  0  0  0  0
 37 36  1  0  0  0  0
 38 37  2  0  0  0  0
 38 39  1  0  0  0  0
 39 34  2  0  0  0  0
 40 44  1  0  0  0  0
 41 35  1  6  0  0  0
 41 43  1  0  0  0  0
 41 40  1  0  0  0  0
 43 42  1  0  0  0  0
 44 42  1  0  0  0  0
 46 45  1  0  0  0  0
 47 48  1  0  0  0  0
 47 46  1  0  0  0  0
 49 55  1  6  0  0  0
 49 48  1  0  0  0  0
 50 51  1  6  0  0  0
 50 53  1  0  0  0  0
 50 49  1  0  0  0  0
 52 53  1  0  0  0  0
 53 54  2  0  0  0  0
 55 56  1  0  0  0  0
M  END
>  <MODEL>
9

>  <REMARK>
 VINA RESULT:      -4.7      2.179      3.330
  Name = 
  25 active torsions:
  status: ('A' for Active; 'I' for Inactive)
    1  A    between atoms: C_1  and  C_17
    2  A    between atoms: C_3  and  C_38
    3  A    between atoms: C_3  and  C_52
    4  A    between atoms: N_4  and  C_16
    5  A    between atoms: N_4  and  N_26
    6  A    between atoms: C_5  and  C_17
    7  A    between atoms: C_5  and  C_36
    8  A    between atoms: C_8  and  C_20
    9  A    between atoms: N_12  and  C_52
   10  A    between atoms: C_14  and  N_24
   11  A    between atoms: C_15  and  C_38
   12  A    between atoms: C_15  and  C_44
   13  A    between atoms: C_16  and  N_48
   14  A    between atoms: C_17  and  N_26
   15  A    between atoms: C_18  and  C_22
   16  A    between atoms: N_24  and  C_43
   17  A    between atoms: N_27  and  N_28
   18  A    between atoms: C_29  and  N_39
   19  A    between atoms: N_30  and  C_34
   20  A    between atoms: N_30  and  N_39
   21  A    between atoms: S_31  and  C_52
   22  A    between atoms: C_34  and  C_45
   23  A    between atoms: C_34  and  N_48
   24  A    between atoms: C_37  and  C_43
   25  A    between atoms: C_37  and  C_52
                            x       y       z     vdW  Elec       q    Type
                         _______ _______ _______ _____ _____    ______ ____

>  <TORSDO>
F 25

$$$$
