=
 OpenBabel10222416093D

 26 28  0  0  1  0  0  0  0  0999 V2000
  188.4500  178.0000  139.4250 C   0  0  0  0  0  2  0  0  0  0  0  0
  190.0080  177.1730  141.0830 C   0  0  2  0  0  3  0  0  0  0  0  0
  190.1270  176.2560  138.7120 C   0  0  0  0  0  0  0  0  0  0  0  0
  189.6760  176.3130  137.3620 N   0  0  0  0  0  1  0  0  0  0  0  0
  188.0940  178.6440  140.7510 C   0  0  0  0  0  2  0  0  0  0  0  0
  190.9740  175.3860  139.0450 O   0  0  0  0  0  0  0  0  0  0  0  0
  189.6110  177.1740  139.6850 N   0  0  0  0  0  0  0  0  0  0  0  0
  188.9150  177.9310  141.8190 C   0  0  1  0  0  3  0  0  0  0  0  0
  188.0250  176.9540  142.5670 C   0  0  0  0  0  2  0  0  0  0  0  0
  186.3880  177.6920  142.8590 S   0  0  0  0  0  0  0  0  0  0  0  0
  188.1310  177.2510  146.4760 C   0  0  0  0  0  3  0  0  0  0  0  0
  185.9350  178.7170  145.4870 C   0  0  0  0  0  0  0  0  0  0  0  0
  187.7930  177.1750  145.1260 C   0  0  0  0  0  3  0  0  0  0  0  0
  186.7050  177.8910  144.6160 C   0  0  0  0  0  0  0  0  0  0  0  0
  186.2920  178.7760  146.8470 C   0  0  0  0  0  0  0  0  0  0  0  0
  187.3790  178.0490  147.3340 C   0  0  0  0  0  3  0  0  0  0  0  0
  185.5620  179.5650  147.7280 O   0  0  0  0  0  1  0  0  0  0  0  0
  183.6460  179.0710  144.7550 C   0  0  0  0  0  0  0  0  0  0  0  0
  182.5220  178.6590  144.4410 O   0  0  0  0  0  0  0  0  0  0  0  0
  184.7980  179.5040  145.0770 N   0  0  0  0  0  0  0  0  0  0  0  0
  191.3250  177.9200  141.2600 C   0  0  0  0  0  2  0  0  0  0  0  0
  192.0050  177.4770  142.4660 N   0  0  0  0  0  0  0  0  0  0  0  0
  191.6310  178.3970  143.5270 C   0  0  0  0  0  2  0  0  0  0  0  0
  191.5030  177.5950  144.8030 C   0  0  0  0  0  2  0  0  0  0  0  0
  191.4240  176.1970  142.8470 C   0  0  0  0  0  2  0  0  0  0  0  0
  191.3280  176.1640  144.3570 C   0  0  0  0  0  2  0  0  0  0  0  0
  1  7  1  0  0  0  0
  1  5  1  0  0  0  0
  2 21  1  6  0  0  0
  2  8  1  0  0  0  0
  3  6  2  0  0  0  0
  3  7  1  0  0  0  0
  4  3  1  0  0  0  0
  5  8  1  0  0  0  0
  7  2  1  0  0  0  0
  8  9  1  6  0  0  0
  9 10  1  0  0  0  0
 10 14  1  0  0  0  0
 11 16  1  0  0  0  0
 12 15  1  0  0  0  0
 13 11  2  0  0  0  0
 14 13  1  0  0  0  0
 14 12  2  0  0  0  0
 15 16  2  0  0  0  0
 15 17  1  0  0  0  0
 18 20  2  0  0  0  0
 19 18  2  0  0  0  0
 20 12  1  0  0  0  0
 21 22  1  0  0  0  0
 22 25  1  0  0  0  0
 22 23  1  0  0  0  0
 23 24  1  0  0  0  0
 25 26  1  0  0  0  0
 26 24  1  0  0  0  0
M  END
>  <MODEL>
1

>  <REMARK>
 VINA RESULT:      -7.4      0.000      0.000
  Name = 
  6 active torsions:
  status: ('A' for Active; 'I' for Inactive)
    1  A    between atoms: N_2  and  C_15
    2  A    between atoms: C_4  and  S_13
    3  A    between atoms: C_4  and  C_25
    4  A    between atoms: C_5  and  N_22
    5  A    between atoms: C_10  and  C_15
    6  A    between atoms: S_13  and  C_14
                            x       y       z     vdW  Elec       q    Type
                         _______ _______ _______ _____ _____    ______ ____

>  <TORSDO>
F 6

$$$$
=
 OpenBabel10222416093D

 26 28  0  0  1  0  0  0  0  0999 V2000
  187.8280  178.1470  139.1920 C   0  0  0  0  0  2  0  0  0  0  0  0
  189.6660  176.5750  139.0940 C   0  0  2  0  0  3  0  0  0  0  0  0
  187.6860  176.2550  137.5290 C   0  0  0  0  0  0  0  0  0  0  0  0
  186.4560  176.7480  137.0090 N   0  0  0  0  0  1  0  0  0  0  0  0
  188.8110  178.5220  140.2840 C   0  0  0  0  0  2  0  0  0  0  0  0
  188.1240  175.1430  137.1310 O   0  0  0  0  0  0  0  0  0  0  0  0
  188.4130  177.0130  138.5060 N   0  0  0  0  0  0  0  0  0  0  0  0
  189.8250  177.3880  140.3690 C   0  0  1  0  0  3  0  0  0  0  0  0
  189.5080  176.5220  141.5760 C   0  0  0  0  0  2  0  0  0  0  0  0
  190.7800  176.7400  142.8570 S   0  0  0  0  0  0  0  0  0  0  0  0
  187.1860  177.3230  144.6050 C   0  0  0  0  0  3  0  0  0  0  0  0
  189.8570  177.2780  145.5080 C   0  0  0  0  0  0  0  0  0  0  0  0
  188.2210  177.0820  143.7040 C   0  0  0  0  0  3  0  0  0  0  0  0
  189.5540  177.0590  144.1300 C   0  0  0  0  0  0  0  0  0  0  0  0
  188.7960  177.5230  146.3980 C   0  0  0  0  0  0  0  0  0  0  0  0
  187.4740  177.5450  145.9490 C   0  0  0  0  0  3  0  0  0  0  0  0
  189.0510  177.7470  147.7460 O   0  0  0  0  0  1  0  0  0  0  0  0
  191.8210  176.2670  146.5170 C   0  0  0  0  0  0  0  0  0  0  0  0
  192.4460  175.2950  146.9590 O   0  0  0  0  0  0  0  0  0  0  0  0
  191.1870  177.2730  146.0640 N   0  0  0  0  0  0  0  0  0  0  0  0
  190.8310  176.8950  138.1630 C   0  0  0  0  0  2  0  0  0  0  0  0
  191.9440  175.9930  138.4100 N   0  0  0  0  0  0  0  0  0  0  0  0
  191.6510  174.7560  137.7050 C   0  0  0  0  0  2  0  0  0  0  0  0
  192.9570  174.2180  137.1670 C   0  0  0  0  0  2  0  0  0  0  0  0
  193.1100  176.5490  137.7380 C   0  0  0  0  0  2  0  0  0  0  0  0
  193.8980  175.3970  137.1510 C   0  0  0  0  0  2  0  0  0  0  0  0
  1  5  1  0  0  0  0
  2 21  1  6  0  0  0
  2  8  1  0  0  0  0
  3  7  1  0  0  0  0
  4  3  1  0  0  0  0
  5  8  1  0  0  0  0
  6  3  2  0  0  0  0
  7  2  1  0  0  0  0
  7  1  1  0  0  0  0
  8  9  1  1  0  0  0
  9 10  1  0  0  0  0
 10 14  1  0  0  0  0
 11 16  1  0  0  0  0
 12 20  1  0  0  0  0
 12 15  1  0  0  0  0
 13 14  1  0  0  0  0
 13 11  2  0  0  0  0
 14 12  2  0  0  0  0
 15 17  1  0  0  0  0
 16 15  2  0  0  0  0
 18 19  2  0  0  0  0
 20 18  2  0  0  0  0
 21 22  1  0  0  0  0
 23 22  1  0  0  0  0
 24 23  1  0  0  0  0
 25 22  1  0  0  0  0
 26 24  1  0  0  0  0
 26 25  1  0  0  0  0
M  END
>  <MODEL>
2

>  <REMARK>
 VINA RESULT:      -7.2      2.937      4.809
  Name = 
  6 active torsions:
  status: ('A' for Active; 'I' for Inactive)
    1  A    between atoms: N_2  and  C_15
    2  A    between atoms: C_4  and  S_13
    3  A    between atoms: C_4  and  C_25
    4  A    between atoms: C_5  and  N_22
    5  A    between atoms: C_10  and  C_15
    6  A    between atoms: S_13  and  C_14
                            x       y       z     vdW  Elec       q    Type
                         _______ _______ _______ _____ _____    ______ ____

>  <TORSDO>
F 6

$$$$
=
 OpenBabel10222416093D

 26 28  0  0  1  0  0  0  0  0999 V2000
  191.2580  178.0580  144.9870 C   0  0  0  0  0  2  0  0  0  0  0  0
  188.9540  177.3160  145.0540 C   0  0  2  0  0  3  0  0  0  0  0  0
  190.5090  176.6850  146.9660 C   0  0  0  0  0  0  0  0  0  0  0  0
  191.7830  176.8120  147.5900 N   0  0  0  0  0  1  0  0  0  0  0  0
  190.5970  178.4940  143.6930 C   0  0  0  0  0  2  0  0  0  0  0  0
  189.6420  175.9290  147.4790 O   0  0  0  0  0  0  0  0  0  0  0  0
  190.2220  177.4020  145.7580 N   0  0  0  0  0  0  0  0  0  0  0  0
  189.2360  177.8100  143.6440 C   0  0  1  0  0  3  0  0  0  0  0  0
  189.3000  176.6320  142.6880 C   0  0  0  0  0  2  0  0  0  0  0  0
  190.7560  176.7790  141.6070 S   0  0  0  0  0  0  0  0  0  0  0  0
  187.7370  178.1240  139.2860 C   0  0  0  0  0  3  0  0  0  0  0  0
  190.0390  176.5550  138.8500 C   0  0  0  0  0  0  0  0  0  0  0  0
  188.5970  177.8410  140.3450 C   0  0  0  0  0  3  0  0  0  0  0  0
  189.7440  177.0620  140.1510 C   0  0  0  0  0  0  0  0  0  0  0  0
  189.1540  176.8500  137.7970 C   0  0  0  0  0  0  0  0  0  0  0  0
  188.0150  177.6270  138.0150 C   0  0  0  0  0  3  0  0  0  0  0  0
  189.4050  176.3700  136.5170 O   0  0  0  0  0  1  0  0  0  0  0  0
  192.3560  176.1640  138.2340 C   0  0  0  0  0  0  0  0  0  0  0  0
  193.4930  176.5590  137.9470 O   0  0  0  0  0  0  0  0  0  0  0  0
  191.1900  175.7480  138.5280 N   0  0  0  0  0  0  0  0  0  0  0  0
  187.9250  178.2390  145.6980 C   0  0  0  0  0  2  0  0  0  0  0  0
  186.5830  177.7120  145.5170 N   0  0  0  0  0  0  0  0  0  0  0  0
  185.7460  178.3230  146.5360 C   0  0  0  0  0  2  0  0  0  0  0  0
  184.3860  178.5700  145.9220 C   0  0  0  0  0  2  0  0  0  0  0  0
  186.0810  178.2270  144.2510 C   0  0  0  0  0  2  0  0  0  0  0  0
  184.6130  178.5460  144.4310 C   0  0  0  0  0  2  0  0  0  0  0  0
  1  7  1  0  0  0  0
  2 21  1  1  0  0  0
  2  7  1  0  0  0  0
  3  6  2  0  0  0  0
  3  4  1  0  0  0  0
  5  1  1  0  0  0  0
  7  3  1  0  0  0  0
  8  9  1  6  0  0  0
  8  5  1  0  0  0  0
  8  2  1  0  0  0  0
 10  9  1  0  0  0  0
 11 13  1  0  0  0  0
 12 14  1  0  0  0  0
 14 13  2  0  0  0  0
 14 10  1  0  0  0  0
 15 16  1  0  0  0  0
 15 12  2  0  0  0  0
 16 11  2  0  0  0  0
 17 15  1  0  0  0  0
 18 20  2  0  0  0  0
 19 18  2  0  0  0  0
 20 12  1  0  0  0  0
 22 21  1  0  0  0  0
 22 23  1  0  0  0  0
 24 23  1  0  0  0  0
 25 26  1  0  0  0  0
 25 22  1  0  0  0  0
 26 24  1  0  0  0  0
M  END
>  <MODEL>
3

>  <REMARK>
 VINA RESULT:      -7.2      2.698      7.679
  Name = 
  6 active torsions:
  status: ('A' for Active; 'I' for Inactive)
    1  A    between atoms: N_2  and  C_15
    2  A    between atoms: C_4  and  S_13
    3  A    between atoms: C_4  and  C_25
    4  A    between atoms: C_5  and  N_22
    5  A    between atoms: C_10  and  C_15
    6  A    between atoms: S_13  and  C_14
                            x       y       z     vdW  Elec       q    Type
                         _______ _______ _______ _____ _____    ______ ____

>  <TORSDO>
F 6

$$$$
=
 OpenBabel10222416093D

 26 28  0  0  1  0  0  0  0  0999 V2000
  189.1450  176.5440  144.3230 C   0  0  0  0  0  2  0  0  0  0  0  0
  189.4010  177.9800  142.3910 C   0  0  2  0  0  3  0  0  0  0  0  0
  191.1130  178.1220  144.2680 C   0  0  0  0  0  0  0  0  0  0  0  0
  191.6130  177.6080  145.4990 N   0  0  0  0  0  1  0  0  0  0  0  0
  187.9480  176.3160  143.4200 C   0  0  0  0  0  2  0  0  0  0  0  0
  191.6680  179.1240  143.7450 O   0  0  0  0  0  0  0  0  0  0  0  0
  189.9790  177.5100  143.6380 N   0  0  0  0  0  0  0  0  0  0  0  0
  187.9980  177.3960  142.3450 C   0  0  1  0  0  3  0  0  0  0  0  0
  186.9790  178.4740  142.6690 C   0  0  0  0  0  2  0  0  0  0  0  0
  185.8850  178.7530  141.2430 S   0  0  0  0  0  0  0  0  0  0  0  0
  183.5780  179.1810  144.5300 C   0  0  0  0  0  3  0  0  0  0  0  0
  183.0890  178.6080  141.8130 C   0  0  0  0  0  0  0  0  0  0  0  0
  184.6410  179.1070  143.6320 C   0  0  0  0  0  3  0  0  0  0  0  0
  184.4210  178.8200  142.2800 C   0  0  0  0  0  0  0  0  0  0  0  0
  182.0320  178.6840  142.7380 C   0  0  0  0  0  0  0  0  0  0  0  0
  182.2770  178.9680  144.0830 C   0  0  0  0  0  3  0  0  0  0  0  0
  180.7220  178.4780  142.3220 O   0  0  0  0  0  1  0  0  0  0  0  0
  182.8020  177.1780  139.8700 C   0  0  0  0  0  0  0  0  0  0  0  0
  182.8600  176.0810  139.3020 O   0  0  0  0  0  0  0  0  0  0  0  0
  182.7380  178.3110  140.4460 N   0  0  0  0  0  0  0  0  0  0  0  0
  190.1930  177.4450  141.2030 C   0  0  0  0  0  2  0  0  0  0  0  0
  189.3320  177.2970  140.0410 N   0  0  0  0  0  0  0  0  0  0  0  0
  189.1770  178.6200  139.4580 C   0  0  0  0  0  2  0  0  0  0  0  0
  189.1350  178.4530  137.9550 C   0  0  0  0  0  2  0  0  0  0  0  0
  190.0690  176.5260  139.0500 C   0  0  0  0  0  2  0  0  0  0  0  0
  189.7530  177.1030  137.6870 C   0  0  0  0  0  2  0  0  0  0  0  0
  2 21  1  6  0  0  0
  2  7  1  0  0  0  0
  3  4  1  0  0  0  0
  5  1  1  0  0  0  0
  6  3  2  0  0  0  0
  7  3  1  0  0  0  0
  7  1  1  0  0  0  0
  8  2  1  0  0  0  0
  8  9  1  1  0  0  0
  8  5  1  0  0  0  0
 10 14  1  0  0  0  0
 10  9  1  0  0  0  0
 12 14  2  0  0  0  0
 12 15  1  0  0  0  0
 13 11  2  0  0  0  0
 14 13  1  0  0  0  0
 15 16  2  0  0  0  0
 16 11  1  0  0  0  0
 17 15  1  0  0  0  0
 18 20  2  0  0  0  0
 19 18  2  0  0  0  0
 20 12  1  0  0  0  0
 22 21  1  0  0  0  0
 23 22  1  0  0  0  0
 24 23  1  0  0  0  0
 25 22  1  0  0  0  0
 26 24  1  0  0  0  0
 26 25  1  0  0  0  0
M  END
>  <MODEL>
4

>  <REMARK>
 VINA RESULT:      -7.1      2.817      5.026
  Name = 
  6 active torsions:
  status: ('A' for Active; 'I' for Inactive)
    1  A    between atoms: N_2  and  C_15
    2  A    between atoms: C_4  and  S_13
    3  A    between atoms: C_4  and  C_25
    4  A    between atoms: C_5  and  N_22
    5  A    between atoms: C_10  and  C_15
    6  A    between atoms: S_13  and  C_14
                            x       y       z     vdW  Elec       q    Type
                         _______ _______ _______ _____ _____    ______ ____

>  <TORSDO>
F 6

$$$$
=
 OpenBabel10222416093D

 26 28  0  0  1  0  0  0  0  0999 V2000
  191.6800  178.0060  145.0430 C   0  0  0  0  0  2  0  0  0  0  0  0
  189.3440  177.3740  145.1100 C   0  0  2  0  0  3  0  0  0  0  0  0
  190.9300  176.4220  146.8570 C   0  0  0  0  0  0  0  0  0  0  0  0
  192.2300  176.4050  147.4390 N   0  0  0  0  0  1  0  0  0  0  0  0
  190.9990  178.6400  143.8450 C   0  0  0  0  0  2  0  0  0  0  0  0
  190.0430  175.6480  147.3040 O   0  0  0  0  0  0  0  0  0  0  0  0
  190.6390  177.3050  145.7650 N   0  0  0  0  0  0  0  0  0  0  0  0
  189.6020  178.0350  143.7650 C   0  0  1  0  0  3  0  0  0  0  0  0
  189.5700  176.9910  142.6630 C   0  0  0  0  0  2  0  0  0  0  0  0
  188.4250  177.5030  141.3460 S   0  0  0  0  0  0  0  0  0  0  0  0
  191.9830  176.8730  139.5420 C   0  0  0  0  0  3  0  0  0  0  0  0
  189.2940  176.8870  138.6940 C   0  0  0  0  0  0  0  0  0  0  0  0
  190.9660  177.1340  140.4580 C   0  0  0  0  0  3  0  0  0  0  0  0
  189.6250  177.1490  140.0570 C   0  0  0  0  0  0  0  0  0  0  0  0
  190.3380  176.6290  137.7870 C   0  0  0  0  0  0  0  0  0  0  0  0
  191.6690  176.6230  138.2090 C   0  0  0  0  0  3  0  0  0  0  0  0
  190.0560  176.3750  136.4500 O   0  0  0  0  0  1  0  0  0  0  0  0
  187.2140  177.8780  137.9260 C   0  0  0  0  0  0  0  0  0  0  0  0
  186.4890  178.8520  137.6900 O   0  0  0  0  0  0  0  0  0  0  0  0
  187.9530  176.8700  138.1660 N   0  0  0  0  0  0  0  0  0  0  0  0
  188.3890  178.2530  145.9110 C   0  0  0  0  0  2  0  0  0  0  0  0
  187.0440  177.7040  145.8810 N   0  0  0  0  0  0  0  0  0  0  0  0
  186.3340  178.2590  147.0210 C   0  0  0  0  0  2  0  0  0  0  0  0
  184.9030  178.4980  146.5940 C   0  0  0  0  0  2  0  0  0  0  0  0
  186.3760  178.2530  144.7090 C   0  0  0  0  0  2  0  0  0  0  0  0
  184.9380  178.5340  145.0860 C   0  0  0  0  0  2  0  0  0  0  0  0
  1  7  1  0  0  0  0
  2  7  1  0  0  0  0
  2 21  1  1  0  0  0
  3  6  2  0  0  0  0
  3  4  1  0  0  0  0
  5  1  1  0  0  0  0
  7  3  1  0  0  0  0
  8  9  1  6  0  0  0
  8  5  1  0  0  0  0
  8  2  1  0  0  0  0
 10  9  1  0  0  0  0
 11 13  1  0  0  0  0
 12 14  1  0  0  0  0
 14 13  2  0  0  0  0
 14 10  1  0  0  0  0
 15 16  1  0  0  0  0
 15 12  2  0  0  0  0
 16 11  2  0  0  0  0
 17 15  1  0  0  0  0
 18 20  2  0  0  0  0
 19 18  2  0  0  0  0
 20 12  1  0  0  0  0
 22 21  1  0  0  0  0
 22 23  1  0  0  0  0
 24 23  1  0  0  0  0
 25 26  1  0  0  0  0
 25 22  1  0  0  0  0
 26 24  1  0  0  0  0
M  END
>  <MODEL>
5

>  <REMARK>
 VINA RESULT:      -6.9      2.599      7.188
  Name = 
  6 active torsions:
  status: ('A' for Active; 'I' for Inactive)
    1  A    between atoms: N_2  and  C_15
    2  A    between atoms: C_4  and  S_13
    3  A    between atoms: C_4  and  C_25
    4  A    between atoms: C_5  and  N_22
    5  A    between atoms: C_10  and  C_15
    6  A    between atoms: S_13  and  C_14
                            x       y       z     vdW  Elec       q    Type
                         _______ _______ _______ _____ _____    ______ ____

>  <TORSDO>
F 6

$$$$
=
 OpenBabel10222416093D

 26 28  0  0  1  0  0  0  0  0999 V2000
  182.4490  178.7360  138.3330 C   0  0  0  0  0  2  0  0  0  0  0  0
  184.6200  177.7650  138.7890 C   0  0  2  0  0  3  0  0  0  0  0  0
  182.7390  176.2550  137.9800 C   0  0  0  0  0  0  0  0  0  0  0  0
  181.4090  176.1270  137.4860 N   0  0  0  0  0  1  0  0  0  0  0  0
  183.3380  179.8360  138.8810 C   0  0  0  0  0  2  0  0  0  0  0  0
  183.4300  175.2190  138.1700 O   0  0  0  0  0  0  0  0  0  0  0  0
  183.2800  177.5510  138.2700 N   0  0  0  0  0  0  0  0  0  0  0  0
  184.6070  179.1610  139.3900 C   0  0  1  0  0  3  0  0  0  0  0  0
  184.5520  179.0700  140.9050 C   0  0  0  0  0  2  0  0  0  0  0  0
  186.2180  178.7880  141.5780 S   0  0  0  0  0  0  0  0  0  0  0  0
  183.7090  179.0640  144.7310 C   0  0  0  0  0  3  0  0  0  0  0  0
  186.3570  178.1660  144.3640 C   0  0  0  0  0  0  0  0  0  0  0  0
  184.2890  179.1070  143.4650 C   0  0  0  0  0  3  0  0  0  0  0  0
  185.6040  178.6700  143.2610 C   0  0  0  0  0  0  0  0  0  0  0  0
  185.7520  178.1350  145.6330 C   0  0  0  0  0  0  0  0  0  0  0  0
  184.4410  178.5800  145.8130 C   0  0  0  0  0  3  0  0  0  0  0  0
  186.4560  177.6570  146.7320 O   0  0  0  0  0  1  0  0  0  0  0  0
  188.1150  176.6410  143.6690 C   0  0  0  0  0  0  0  0  0  0  0  0
  188.5140  175.6270  143.0820 O   0  0  0  0  0  0  0  0  0  0  0  0
  187.7130  177.6840  144.2760 N   0  0  0  0  0  0  0  0  0  0  0  0
  185.6390  177.7310  137.6560 C   0  0  0  0  0  2  0  0  0  0  0  0
  186.8240  178.4950  138.0120 N   0  0  0  0  0  0  0  0  0  0  0  0
  187.7840  177.5550  138.5650 C   0  0  0  0  0  2  0  0  0  0  0  0
  189.1610  177.9950  138.1190 C   0  0  0  0  0  2  0  0  0  0  0  0
  187.4230  178.9710  136.7730 C   0  0  0  0  0  2  0  0  0  0  0  0
  188.9260  178.8870  136.9240 C   0  0  0  0  0  2  0  0  0  0  0  0
  1  5  1  0  0  0  0
  2 21  1  6  0  0  0
  2  8  1  0  0  0  0
  3  6  2  0  0  0  0
  3  7  1  0  0  0  0
  4  3  1  0  0  0  0
  5  8  1  0  0  0  0
  7  1  1  0  0  0  0
  7  2  1  0  0  0  0
  8  9  1  1  0  0  0
  9 10  1  0  0  0  0
 10 14  1  0  0  0  0
 11 16  1  0  0  0  0
 12 15  1  0  0  0  0
 13 11  2  0  0  0  0
 14 13  1  0  0  0  0
 14 12  2  0  0  0  0
 15 16  2  0  0  0  0
 15 17  1  0  0  0  0
 18 20  2  0  0  0  0
 19 18  2  0  0  0  0
 20 12  1  0  0  0  0
 21 22  1  0  0  0  0
 22 23  1  0  0  0  0
 24 23  1  0  0  0  0
 25 26  1  0  0  0  0
 25 22  1  0  0  0  0
 26 24  1  0  0  0  0
M  END
>  <MODEL>
6

>  <REMARK>
 VINA RESULT:      -6.8      3.941      5.682
  Name = 
  6 active torsions:
  status: ('A' for Active; 'I' for Inactive)
    1  A    between atoms: N_2  and  C_15
    2  A    between atoms: C_4  and  S_13
    3  A    between atoms: C_4  and  C_25
    4  A    between atoms: C_5  and  N_22
    5  A    between atoms: C_10  and  C_15
    6  A    between atoms: S_13  and  C_14
                            x       y       z     vdW  Elec       q    Type
                         _______ _______ _______ _____ _____    ______ ____

>  <TORSDO>
F 6

$$$$
=
 OpenBabel10222416093D

 26 28  0  0  1  0  0  0  0  0999 V2000
  187.8220  177.9100  138.4330 C   0  0  0  0  0  2  0  0  0  0  0  0
  189.7650  176.4910  138.7070 C   0  0  2  0  0  3  0  0  0  0  0  0
  187.9180  175.7600  137.1170 C   0  0  0  0  0  0  0  0  0  0  0  0
  186.6940  176.0620  136.4550 N   0  0  0  0  0  1  0  0  0  0  0  0
  188.7040  178.5390  139.4950 C   0  0  0  0  0  2  0  0  0  0  0  0
  188.4550  174.6350  136.9410 O   0  0  0  0  0  0  0  0  0  0  0  0
  188.5260  176.7260  137.9850 N   0  0  0  0  0  0  0  0  0  0  0  0
  189.7850  177.5170  139.8290 C   0  0  1  0  0  3  0  0  0  0  0  0
  189.4480  176.8440  141.1480 C   0  0  0  0  0  2  0  0  0  0  0  0
  188.3130  177.8870  142.1130 S   0  0  0  0  0  0  0  0  0  0  0  0
  191.4140  177.4160  144.6570 C   0  0  0  0  0  3  0  0  0  0  0  0
  188.6060  177.3420  144.9030 C   0  0  0  0  0  0  0  0  0  0  0  0
  190.6120  177.6310  143.5390 C   0  0  0  0  0  3  0  0  0  0  0  0
  189.2160  177.5950  143.6380 C   0  0  0  0  0  0  0  0  0  0  0  0
  189.4360  177.1240  146.0180 C   0  0  0  0  0  0  0  0  0  0  0  0
  190.8260  177.1610  145.8940 C   0  0  0  0  0  3  0  0  0  0  0  0
  188.8790  176.8690  147.2650 O   0  0  0  0  0  1  0  0  0  0  0  0
  186.4240  178.2530  145.4570 C   0  0  0  0  0  0  0  0  0  0  0  0
  185.6780  179.1870  145.7760 O   0  0  0  0  0  0  0  0  0  0  0  0
  187.1830  177.2860  145.1290 N   0  0  0  0  0  0  0  0  0  0  0  0
  190.9640  176.7390  137.7970 C   0  0  0  0  0  2  0  0  0  0  0  0
  192.0770  175.8850  138.1760 N   0  0  0  0  0  0  0  0  0  0  0  0
  191.8250  174.5770  137.5940 C   0  0  0  0  0  2  0  0  0  0  0  0
  193.1570  174.0060  137.1630 C   0  0  0  0  0  2  0  0  0  0  0  0
  193.2610  176.3860  137.4940 C   0  0  0  0  0  2  0  0  0  0  0  0
  194.0840  175.1920  137.0580 C   0  0  0  0  0  2  0  0  0  0  0  0
  1  5  1  0  0  0  0
  2 21  1  6  0  0  0
  2  8  1  0  0  0  0
  3  7  1  0  0  0  0
  4  3  1  0  0  0  0
  5  8  1  0  0  0  0
  6  3  2  0  0  0  0
  7  1  1  0  0  0  0
  7  2  1  0  0  0  0
  8  9  1  1  0  0  0
  9 10  1  0  0  0  0
 10 14  1  0  0  0  0
 11 16  1  0  0  0  0
 12 20  1  0  0  0  0
 12 15  1  0  0  0  0
 13 14  1  0  0  0  0
 13 11  2  0  0  0  0
 14 12  2  0  0  0  0
 15 17  1  0  0  0  0
 16 15  2  0  0  0  0
 18 19  2  0  0  0  0
 20 18  2  0  0  0  0
 21 22  1  0  0  0  0
 23 22  1  0  0  0  0
 24 23  1  0  0  0  0
 25 22  1  0  0  0  0
 26 24  1  0  0  0  0
 26 25  1  0  0  0  0
M  END
>  <MODEL>
7

>  <REMARK>
 VINA RESULT:      -6.8      2.358      4.055
  Name = 
  6 active torsions:
  status: ('A' for Active; 'I' for Inactive)
    1  A    between atoms: N_2  and  C_15
    2  A    between atoms: C_4  and  S_13
    3  A    between atoms: C_4  and  C_25
    4  A    between atoms: C_5  and  N_22
    5  A    between atoms: C_10  and  C_15
    6  A    between atoms: S_13  and  C_14
                            x       y       z     vdW  Elec       q    Type
                         _______ _______ _______ _____ _____    ______ ____

>  <TORSDO>
F 6

$$$$
=
 OpenBabel10222416093D

 26 28  0  0  1  0  0  0  0  0999 V2000
  189.3100  176.4020  144.1910 C   0  0  0  0  0  2  0  0  0  0  0  0
  189.6600  177.8130  142.2540 C   0  0  2  0  0  3  0  0  0  0  0  0
  191.2490  178.0160  144.2310 C   0  0  0  0  0  0  0  0  0  0  0  0
  191.6810  177.5320  145.4990 N   0  0  0  0  0  1  0  0  0  0  0  0
  188.1760  176.1380  143.2190 C   0  0  0  0  0  2  0  0  0  0  0  0
  191.8180  179.0210  143.7270 O   0  0  0  0  0  0  0  0  0  0  0  0
  190.1680  177.3730  143.5420 N   0  0  0  0  0  0  0  0  0  0  0  0
  188.2740  177.2010  142.1310 C   0  0  1  0  0  3  0  0  0  0  0  0
  187.2170  178.2650  142.3740 C   0  0  0  0  0  2  0  0  0  0  0  0
  186.2710  177.8770  143.8780 S   0  0  0  0  0  0  0  0  0  0  0  0
  183.5280  178.5460  140.9910 C   0  0  0  0  0  3  0  0  0  0  0  0
  183.5300  178.6840  143.8070 C   0  0  0  0  0  0  0  0  0  0  0  0
  184.6850  178.2360  141.7010 C   0  0  0  0  0  3  0  0  0  0  0  0
  184.7090  178.3020  143.0990 C   0  0  0  0  0  0  0  0  0  0  0  0
  182.3740  178.9960  143.0680 C   0  0  0  0  0  0  0  0  0  0  0  0
  182.3750  178.9270  141.6730 C   0  0  0  0  0  3  0  0  0  0  0  0
  181.2080  179.3780  143.7210 O   0  0  0  0  0  1  0  0  0  0  0  0
  184.3850  178.9870  146.0600 C   0  0  0  0  0  0  0  0  0  0  0  0
  185.3050  179.1860  146.8630 O   0  0  0  0  0  0  0  0  0  0  0  0
  183.4320  178.7810  145.2420 N   0  0  0  0  0  0  0  0  0  0  0  0
  190.5340  177.2750  141.1270 C   0  0  0  0  0  2  0  0  0  0  0  0
  189.7350  177.0220  139.9390 N   0  0  0  0  0  0  0  0  0  0  0  0
  189.4090  178.3160  139.3640 C   0  0  0  0  0  2  0  0  0  0  0  0
  189.4320  178.1650  137.8590 C   0  0  0  0  0  2  0  0  0  0  0  0
  190.6010  176.3760  138.9620 C   0  0  0  0  0  2  0  0  0  0  0  0
  190.2440  176.9210  137.5960 C   0  0  0  0  0  2  0  0  0  0  0  0
  2 21  1  6  0  0  0
  2  7  1  0  0  0  0
  3  4  1  0  0  0  0
  5  1  1  0  0  0  0
  6  3  2  0  0  0  0
  7  1  1  0  0  0  0
  7  3  1  0  0  0  0
  8  2  1  0  0  0  0
  8  9  1  1  0  0  0
  8  5  1  0  0  0  0
  9 10  1  0  0  0  0
 11 16  2  0  0  0  0
 11 13  1  0  0  0  0
 12 20  1  0  0  0  0
 13 14  2  0  0  0  0
 14 12  1  0  0  0  0
 14 10  1  0  0  0  0
 15 17  1  0  0  0  0
 15 12  2  0  0  0  0
 16 15  1  0  0  0  0
 18 19  2  0  0  0  0
 20 18  2  0  0  0  0
 22 21  1  0  0  0  0
 23 22  1  0  0  0  0
 24 23  1  0  0  0  0
 25 22  1  0  0  0  0
 26 24  1  0  0  0  0
 26 25  1  0  0  0  0
M  END
>  <MODEL>
8

>  <REMARK>
 VINA RESULT:      -6.5      2.163      4.744
  Name = 
  6 active torsions:
  status: ('A' for Active; 'I' for Inactive)
    1  A    between atoms: N_2  and  C_15
    2  A    between atoms: C_4  and  S_13
    3  A    between atoms: C_4  and  C_25
    4  A    between atoms: C_5  and  N_22
    5  A    between atoms: C_10  and  C_15
    6  A    between atoms: S_13  and  C_14
                            x       y       z     vdW  Elec       q    Type
                         _______ _______ _______ _____ _____    ______ ____

>  <TORSDO>
F 6

$$$$
=
 OpenBabel10222416093D

 26 28  0  0  1  0  0  0  0  0999 V2000
  188.6320  178.3380  141.0070 C   0  0  0  0  0  2  0  0  0  0  0  0
  188.0260  177.5340  143.2080 C   0  0  2  0  0  3  0  0  0  0  0  0
  189.8420  176.3160  141.9070 C   0  0  0  0  0  0  0  0  0  0  0  0
  190.6870  176.2590  140.7620 N   0  0  0  0  0  1  0  0  0  0  0  0
  187.4760  179.1850  141.5030 C   0  0  0  0  0  2  0  0  0  0  0  0
  189.8970  175.3930  142.7620 O   0  0  0  0  0  0  0  0  0  0  0  0
  188.9290  177.4090  142.0770 N   0  0  0  0  0  0  0  0  0  0  0  0
  186.9510  178.5130  142.7660 C   0  0  1  0  0  3  0  0  0  0  0  0
  185.6720  177.7620  142.4400 C   0  0  0  0  0  2  0  0  0  0  0  0
  184.7810  178.5960  141.0910 S   0  0  0  0  0  0  0  0  0  0  0  0
  182.2960  178.8030  144.2670 C   0  0  0  0  0  3  0  0  0  0  0  0
  181.9510  178.6870  141.4710 C   0  0  0  0  0  0  0  0  0  0  0  0
  183.4080  178.7390  143.4310 C   0  0  0  0  0  3  0  0  0  0  0  0
  183.2590  178.6770  142.0400 C   0  0  0  0  0  0  0  0  0  0  0  0
  180.8430  178.7480  142.3360 C   0  0  0  0  0  0  0  0  0  0  0  0
  181.0160  178.8050  143.7200 C   0  0  0  0  0  3  0  0  0  0  0  0
  179.5520  178.7540  141.8190 O   0  0  0  0  0  1  0  0  0  0  0  0
  181.8490  179.5640  139.2080 C   0  0  0  0  0  0  0  0  0  0  0  0
  182.0180  180.4640  138.3760 O   0  0  0  0  0  0  0  0  0  0  0  0
  181.6730  178.6330  140.0580 N   0  0  0  0  0  0  0  0  0  0  0  0
  188.7580  178.1220  144.4100 C   0  0  0  0  0  2  0  0  0  0  0  0
  188.6060  177.2620  145.5710 N   0  0  0  0  0  0  0  0  0  0  0  0
  189.7990  177.4310  146.3840 C   0  0  0  0  0  2  0  0  0  0  0  0
  189.3760  177.3640  147.8340 C   0  0  0  0  0  2  0  0  0  0  0  0
  187.5170  177.8030  146.3730 C   0  0  0  0  0  2  0  0  0  0  0  0
  187.8940  177.6460  147.8300 C   0  0  0  0  0  2  0  0  0  0  0  0
  1  5  1  0  0  0  0
  1  7  1  0  0  0  0
  2 21  1  1  0  0  0
  3  7  1  0  0  0  0
  3  6  2  0  0  0  0
  4  3  1  0  0  0  0
  5  8  1  0  0  0  0
  7  2  1  0  0  0  0
  8  9  1  6  0  0  0
  8  2  1  0  0  0  0
 10 14  1  0  0  0  0
 10  9  1  0  0  0  0
 12 14  2  0  0  0  0
 12 15  1  0  0  0  0
 13 11  2  0  0  0  0
 14 13  1  0  0  0  0
 15 16  2  0  0  0  0
 16 11  1  0  0  0  0
 17 15  1  0  0  0  0
 18 20  2  0  0  0  0
 19 18  2  0  0  0  0
 20 12  1  0  0  0  0
 21 22  1  0  0  0  0
 22 25  1  0  0  0  0
 22 23  1  0  0  0  0
 23 24  1  0  0  0  0
 25 26  1  0  0  0  0
 26 24  1  0  0  0  0
M  END
>  <MODEL>
9

>  <REMARK>
 VINA RESULT:      -6.4      3.084      4.795
  Name = 
  6 active torsions:
  status: ('A' for Active; 'I' for Inactive)
    1  A    between atoms: N_2  and  C_15
    2  A    between atoms: C_4  and  S_13
    3  A    between atoms: C_4  and  C_25
    4  A    between atoms: C_5  and  N_22
    5  A    between atoms: C_10  and  C_15
    6  A    between atoms: S_13  and  C_14
                            x       y       z     vdW  Elec       q    Type
                         _______ _______ _______ _____ _____    ______ ____

>  <TORSDO>
F 6

$$$$
