=
 OpenBabel10222416113D

 26 28  0  0  1  0  0  0  0  0999 V2000
  183.9250  179.1470  145.4350 N   0  0  0  0  0  2  0  0  0  0  0  0
  187.6350  178.3750  148.3370 O   0  0  0  0  0  1  0  0  0  0  0  0
  185.1720  178.6470  145.6320 C   0  0  0  0  0  0  0  0  0  0  0  0
  187.0590  178.2380  147.0770 C   0  0  0  0  0  0  0  0  0  0  0  0
  185.2270  177.9360  143.3580 N   0  0  0  0  0  0  0  0  0  0  0  0
  183.3480  178.3170  141.8150 C   0  0  0  0  0  1  0  0  0  0  0  0
  189.3340  176.3710  147.2880 O   0  0  0  0  0  0  0  0  0  0  0  0
  190.2740  177.6220  145.5810 N   0  0  0  0  0  2  0  0  0  0  0  0
  187.1360  177.4910  144.7460 C   0  0  0  0  0  0  0  0  0  0  0  0
  182.1560  179.5350  144.0750 O   0  0  0  0  0  0  0  0  0  0  0  0
  185.8470  178.0240  144.5660 C   0  0  0  0  0  0  0  0  0  0  0  0
  189.9650  177.1530  143.2270 C   0  0  1  0  0  3  0  0  0  0  0  0
  190.1610  178.2420  144.2730 C   0  0  0  0  0  2  0  0  0  0  0  0
  187.7650  177.6150  146.0230 C   0  0  0  0  0  0  0  0  0  0  0  0
  183.9800  178.4380  143.1600 C   0  0  0  0  0  0  0  0  0  0  0  0
  183.3120  179.0600  144.2260 C   0  0  0  0  0  0  0  0  0  0  0  0
  188.9260  176.2040  143.6320 N   0  0  0  0  0  2  0  0  0  0  0  0
  185.7770  178.7450  146.8780 C   0  0  0  0  0  3  0  0  0  0  0  0
  187.7020  176.8420  143.6320 O   0  0  0  0  0  0  0  0  0  0  0  0
  189.1410  177.1420  146.3110 C   0  0  0  0  0  0  0  0  0  0  0  0
  189.7170  177.7140  141.8600 C   0  0  0  0  0  0  0  0  0  0  0  0
  190.1650  177.4890  139.3690 C   0  0  0  0  0  0  0  0  0  0  0  0
  188.9620  178.7140  141.7110 O   0  0  0  0  0  0  0  0  0  0  0  0
  189.4530  178.4840  139.0670 O   0  0  0  0  0  0  0  0  0  0  0  0
  190.3220  177.0770  140.7310 N   0  0  0  0  0  2  0  0  0  0  0  0
  190.8540  176.7310  138.2930 C   0  0  0  0  0  1  0  0  0  0  0  0
  1  3  1  0  0  0  0
  3 18  1  0  0  0  0
  4  2  1  0  0  0  0
  5 11  1  0  0  0  0
  6 15  1  0  0  0  0
  8 20  1  0  0  0  0
  9 14  2  0  0  0  0
 10 16  2  0  0  0  0
 11  9  1  0  0  0  0
 11  3  2  0  0  0  0
 12 21  1  6  0  0  0
 12 17  1  0  0  0  0
 12 13  1  0  0  0  0
 13  8  1  0  0  0  0
 14 20  1  0  0  0  0
 14  4  1  0  0  0  0
 15  5  2  0  0  0  0
 15 16  1  0  0  0  0
 16  1  1  0  0  0  0
 17 19  1  0  0  0  0
 18  4  2  0  0  0  0
 19  9  1  0  0  0  0
 20  7  2  0  0  0  0
 22 25  1  0  0  0  0
 23 21  2  0  0  0  0
 24 22  2  0  0  0  0
 25 21  1  0  0  0  0
 26 22  1  0  0  0  0
M  END
>  <MODEL>
1

>  <REMARK>
 VINA RESULT:     -10.2      0.000      0.000
  Name = 
  1 active torsions:
  status: ('A' for Active; 'I' for Inactive)
    1  A    between atoms: C_4  and  C_18
                            x       y       z     vdW  Elec       q    Type
                         _______ _______ _______ _____ _____    ______ ____

>  <TORSDO>
F 1

$$$$
=
 OpenBabel10222416113D

 26 28  0  0  1  0  0  0  0  0999 V2000
  185.4530  178.9240  146.4440 N   0  0  0  0  0  2  0  0  0  0  0  0
  189.5630  178.0950  148.7240 O   0  0  0  0  0  1  0  0  0  0  0  0
  186.7090  178.4080  146.4400 C   0  0  0  0  0  0  0  0  0  0  0  0
  188.7950  177.9700  147.5700 C   0  0  0  0  0  0  0  0  0  0  0  0
  186.3980  177.7070  144.1840 N   0  0  0  0  0  0  0  0  0  0  0  0
  184.3040  178.1170  142.9570 C   0  0  0  0  0  1  0  0  0  0  0  0
  191.0510  176.0760  147.4160 O   0  0  0  0  0  0  0  0  0  0  0  0
  191.7270  177.3240  145.5860 N   0  0  0  0  0  2  0  0  0  0  0  0
  188.4950  177.2330  145.2540 C   0  0  0  0  0  0  0  0  0  0  0  0
  183.4970  179.3380  145.3790 O   0  0  0  0  0  0  0  0  0  0  0  0
  187.2010  177.7820  145.2800 C   0  0  0  0  0  0  0  0  0  0  0  0
  191.0460  176.8700  143.3080 C   0  0  1  0  0  3  0  0  0  0  0  0
  191.4180  177.9510  144.3130 C   0  0  0  0  0  2  0  0  0  0  0  0
  189.3180  177.3440  146.4160 C   0  0  0  0  0  0  0  0  0  0  0  0
  185.1410  178.2250  144.1860 C   0  0  0  0  0  0  0  0  0  0  0  0
  184.6570  178.8490  145.3450 C   0  0  0  0  0  0  0  0  0  0  0  0
  190.0720  175.9310  143.8690 N   0  0  0  0  0  2  0  0  0  0  0  0
  187.5040  178.4940  147.5760 C   0  0  0  0  0  3  0  0  0  0  0  0
  188.8710  176.5830  144.0630 O   0  0  0  0  0  0  0  0  0  0  0  0
  190.7160  176.8530  146.4830 C   0  0  0  0  0  0  0  0  0  0  0  0
  190.5930  177.4400  141.9990 C   0  0  0  0  0  0  0  0  0  0  0  0
  188.6260  178.2730  140.6240 C   0  0  0  0  0  0  0  0  0  0  0  0
  191.4330  177.6950  141.0920 O   0  0  0  0  0  0  0  0  0  0  0  0
  189.3390  178.5640  139.6270 O   0  0  0  0  0  0  0  0  0  0  0  0
  189.2020  177.7180  141.8100 N   0  0  0  0  0  2  0  0  0  0  0  0
  187.1600  178.5110  140.5670 C   0  0  0  0  0  1  0  0  0  0  0  0
  3  1  1  0  0  0  0
  3 18  1  0  0  0  0
  4 18  2  0  0  0  0
  4  2  1  0  0  0  0
  5 15  2  0  0  0  0
  5 11  1  0  0  0  0
  6 15  1  0  0  0  0
  8 20  1  0  0  0  0
  9 11  1  0  0  0  0
  9 14  2  0  0  0  0
 11  3  2  0  0  0  0
 12 21  1  6  0  0  0
 12 17  1  0  0  0  0
 12 13  1  0  0  0  0
 13  8  1  0  0  0  0
 14 20  1  0  0  0  0
 14  4  1  0  0  0  0
 15 16  1  0  0  0  0
 16 10  2  0  0  0  0
 16  1  1  0  0  0  0
 17 19  1  0  0  0  0
 19  9  1  0  0  0  0
 20  7  2  0  0  0  0
 22 25  1  0  0  0  0
 23 21  2  0  0  0  0
 24 22  2  0  0  0  0
 25 21  1  0  0  0  0
 26 22  1  0  0  0  0
M  END
>  <MODEL>
2

>  <REMARK>
 VINA RESULT:     -10.1      1.517      1.859
  Name = 
  1 active torsions:
  status: ('A' for Active; 'I' for Inactive)
    1  A    between atoms: C_4  and  C_18
                            x       y       z     vdW  Elec       q    Type
                         _______ _______ _______ _____ _____    ______ ____

>  <TORSDO>
F 1

$$$$
=
 OpenBabel10222416113D

 26 28  0  0  1  0  0  0  0  0999 V2000
  186.7590  178.3830  146.7190 N   0  0  0  0  0  2  0  0  0  0  0  0
  191.3390  177.0800  147.0410 O   0  0  0  0  0  1  0  0  0  0  0  0
  187.8690  177.8580  146.1400 C   0  0  0  0  0  0  0  0  0  0  0  0
  190.1810  177.1850  146.2750 C   0  0  0  0  0  0  0  0  0  0  0  0
  186.6610  177.5940  144.1020 N   0  0  0  0  0  0  0  0  0  0  0  0
  184.3020  178.2580  143.8760 C   0  0  0  0  0  1  0  0  0  0  0  0
  192.0340  175.3180  144.9400 O   0  0  0  0  0  0  0  0  0  0  0  0
  192.0680  176.8750  143.2260 N   0  0  0  0  0  2  0  0  0  0  0  0
  188.9580  176.8970  144.1730 C   0  0  0  0  0  0  0  0  0  0  0  0
  184.5880  179.0190  146.5880 O   0  0  0  0  0  0  0  0  0  0  0  0
  187.8240  177.4520  144.7930 C   0  0  0  0  0  0  0  0  0  0  0  0
  190.5330  176.8630  141.3540 C   0  0  1  0  0  3  0  0  0  0  0  0
  191.3520  177.7330  142.2980 C   0  0  0  0  0  2  0  0  0  0  0  0
  190.1690  176.7770  144.9220 C   0  0  0  0  0  0  0  0  0  0  0  0
  185.5500  178.1220  144.6810 C   0  0  0  0  0  0  0  0  0  0  0  0
  185.6000  178.5270  146.0230 C   0  0  0  0  0  0  0  0  0  0  0  0
  189.7680  175.8510  142.0870 N   0  0  0  0  0  2  0  0  0  0  0  0
  189.0410  177.7180  146.8720 C   0  0  0  0  0  3  0  0  0  0  0  0
  188.7940  176.4750  142.8400 O   0  0  0  0  0  0  0  0  0  0  0  0
  191.4380  176.2610  144.3550 C   0  0  0  0  0  0  0  0  0  0  0  0
  189.6660  177.6740  140.4400 C   0  0  0  0  0  0  0  0  0  0  0  0
  189.0020  178.1600  138.0360 C   0  0  0  0  0  0  0  0  0  0  0  0
  188.8380  178.4990  140.9160 O   0  0  0  0  0  0  0  0  0  0  0  0
  188.1460  179.0260  138.3610 O   0  0  0  0  0  0  0  0  0  0  0  0
  189.7720  177.4720  139.0270 N   0  0  0  0  0  2  0  0  0  0  0  0
  189.2160  177.8480  136.5990 C   0  0  0  0  0  1  0  0  0  0  0  0
  3  1  1  0  0  0  0
  3 18  1  0  0  0  0
  4 18  2  0  0  0  0
  4  2  1  0  0  0  0
  5 15  2  0  0  0  0
  5 11  1  0  0  0  0
  6 15  1  0  0  0  0
  8 20  1  0  0  0  0
  9 11  1  0  0  0  0
  9 14  2  0  0  0  0
 11  3  2  0  0  0  0
 12 21  1  1  0  0  0
 12 17  1  0  0  0  0
 12 13  1  0  0  0  0
 13  8  1  0  0  0  0
 14  4  1  0  0  0  0
 15 16  1  0  0  0  0
 16 10  2  0  0  0  0
 16  1  1  0  0  0  0
 17 19  1  0  0  0  0
 19  9  1  0  0  0  0
 20 14  1  0  0  0  0
 20  7  2  0  0  0  0
 21 23  2  0  0  0  0
 22 24  2  0  0  0  0
 22 25  1  0  0  0  0
 25 21  1  0  0  0  0
 26 22  1  0  0  0  0
M  END
>  <MODEL>
3

>  <REMARK>
 VINA RESULT:      -9.8      1.897      2.598
  Name = 
  1 active torsions:
  status: ('A' for Active; 'I' for Inactive)
    1  A    between atoms: C_4  and  C_18
                            x       y       z     vdW  Elec       q    Type
                         _______ _______ _______ _____ _____    ______ ____

>  <TORSDO>
F 1

$$$$
=
 OpenBabel10222416113D

 26 28  0  0  1  0  0  0  0  0999 V2000
  189.2430  176.6500  143.8360 N   0  0  0  0  0  2  0  0  0  0  0  0
  185.0440  177.9960  145.6640 O   0  0  0  0  0  1  0  0  0  0  0  0
  188.0370  177.2530  143.6760 C   0  0  0  0  0  0  0  0  0  0  0  0
  185.9090  177.9500  144.5750 C   0  0  0  0  0  0  0  0  0  0  0  0
  188.5820  177.7030  141.4000 N   0  0  0  0  0  0  0  0  0  0  0  0
  190.7260  177.0240  140.4020 C   0  0  0  0  0  1  0  0  0  0  0  0
  183.8330  179.9790  144.0510 O   0  0  0  0  0  0  0  0  0  0  0  0
  183.2060  178.6080  142.2920 N   0  0  0  0  0  2  0  0  0  0  0  0
  186.4510  178.4310  142.2350 C   0  0  0  0  0  0  0  0  0  0  0  0
  191.2380  175.9920  142.9880 O   0  0  0  0  0  0  0  0  0  0  0  0
  187.6910  177.7950  142.4240 C   0  0  0  0  0  0  0  0  0  0  0  0
  184.1000  178.7850  140.0500 C   0  0  1  0  0  3  0  0  0  0  0  0
  183.5640  177.8380  141.1140 C   0  0  0  0  0  2  0  0  0  0  0  0
  185.5320  178.4960  143.3270 C   0  0  0  0  0  0  0  0  0  0  0  0
  189.7890  177.0990  141.5590 C   0  0  0  0  0  0  0  0  0  0  0  0
  190.1270  176.5580  142.8080 C   0  0  0  0  0  0  0  0  0  0  0  0
  185.0990  179.7020  140.6040 N   0  0  0  0  0  2  0  0  0  0  0  0
  187.1500  177.3380  144.7410 C   0  0  0  0  0  3  0  0  0  0  0  0
  186.2240  178.9860  140.9610 O   0  0  0  0  0  0  0  0  0  0  0  0
  184.1770  179.0910  143.2260 C   0  0  0  0  0  0  0  0  0  0  0  0
  184.6090  178.0570  138.8430 C   0  0  0  0  0  0  0  0  0  0  0  0
  186.4000  177.9380  137.0450 C   0  0  0  0  0  0  0  0  0  0  0  0
  184.0160  177.0230  138.4280 O   0  0  0  0  0  0  0  0  0  0  0  0
  185.9100  176.9090  136.5090 O   0  0  0  0  0  0  0  0  0  0  0  0
  185.7910  178.5360  138.1940 N   0  0  0  0  0  2  0  0  0  0  0  0
  187.6320  178.5440  136.4750 C   0  0  0  0  0  1  0  0  0  0  0  0
  3  1  1  0  0  0  0
  3 18  1  0  0  0  0
  4 18  2  0  0  0  0
  4  2  1  0  0  0  0
  5 15  2  0  0  0  0
  5 11  1  0  0  0  0
  6 15  1  0  0  0  0
  8 20  1  0  0  0  0
  9 11  1  0  0  0  0
  9 14  2  0  0  0  0
 11  3  2  0  0  0  0
 12 21  1  6  0  0  0
 12 17  1  0  0  0  0
 12 13  1  0  0  0  0
 13  8  1  0  0  0  0
 14  4  1  0  0  0  0
 15 16  1  0  0  0  0
 16 10  2  0  0  0  0
 16  1  1  0  0  0  0
 17 19  1  0  0  0  0
 19  9  1  0  0  0  0
 20 14  1  0  0  0  0
 20  7  2  0  0  0  0
 22 25  1  0  0  0  0
 23 21  2  0  0  0  0
 24 22  2  0  0  0  0
 25 21  1  0  0  0  0
 26 22  1  0  0  0  0
M  END
>  <MODEL>
4

>  <REMARK>
 VINA RESULT:      -8.7      2.823      5.675
  Name = 
  1 active torsions:
  status: ('A' for Active; 'I' for Inactive)
    1  A    between atoms: C_4  and  C_18
                            x       y       z     vdW  Elec       q    Type
                         _______ _______ _______ _____ _____    ______ ____

>  <TORSDO>
F 1

$$$$
=
 OpenBabel10222416113D

 26 28  0  0  1  0  0  0  0  0999 V2000
  189.7930  177.8570  140.8770 N   0  0  0  0  0  2  0  0  0  0  0  0
  185.2960  179.4330  140.6120 O   0  0  0  0  0  1  0  0  0  0  0  0
  188.5700  178.0050  141.4470 C   0  0  0  0  0  0  0  0  0  0  0  0
  186.2900  178.7860  141.3390 C   0  0  0  0  0  0  0  0  0  0  0  0
  189.3700  176.9070  143.4060 N   0  0  0  0  0  0  0  0  0  0  0  0
  191.6810  176.0840  143.6020 C   0  0  0  0  0  1  0  0  0  0  0  0
  183.6760  178.1890  142.5690 O   0  0  0  0  0  0  0  0  0  0  0  0
  184.5020  179.3150  144.4170 N   0  0  0  0  0  2  0  0  0  0  0  0
  187.0870  177.6530  143.3590 C   0  0  0  0  0  0  0  0  0  0  0  0
  191.9350  177.1270  140.9820 O   0  0  0  0  0  0  0  0  0  0  0  0
  188.3470  177.5190  142.7490 C   0  0  0  0  0  0  0  0  0  0  0  0
  185.7160  178.2530  146.2210 C   0  0  1  0  0  3  0  0  0  0  0  0
  185.5600  179.5190  145.3910 C   0  0  0  0  0  2  0  0  0  0  0  0
  186.0400  178.3160  142.6490 C   0  0  0  0  0  0  0  0  0  0  0  0
  190.5950  176.7600  142.8360 C   0  0  0  0  0  0  0  0  0  0  0  0
  190.8120  177.2480  141.5390 C   0  0  0  0  0  0  0  0  0  0  0  0
  185.7820  177.0610  145.3710 N   0  0  0  0  0  2  0  0  0  0  0  0
  187.5430  178.6280  140.7510 C   0  0  0  0  0  3  0  0  0  0  0  0
  186.9530  177.0870  144.6410 O   0  0  0  0  0  0  0  0  0  0  0  0
  184.6910  178.5630  143.2140 C   0  0  0  0  0  0  0  0  0  0  0  0
  186.8720  178.3340  147.1710 C   0  0  0  0  0  0  0  0  0  0  0  0
  189.2420  177.5750  147.6880 C   0  0  0  0  0  0  0  0  0  0  0  0
  186.8050  179.0730  148.1920 O   0  0  0  0  0  0  0  0  0  0  0  0
  189.3160  178.2530  148.7470 O   0  0  0  0  0  0  0  0  0  0  0  0
  188.0580  177.5860  146.8830 N   0  0  0  0  0  2  0  0  0  0  0  0
  190.4030  176.7500  147.2650 C   0  0  0  0  0  1  0  0  0  0  0  0
  1  3  1  0  0  0  0
  1 16  1  0  0  0  0
  2  4  1  0  0  0  0
  3 11  1  0  0  0  0
  4 14  2  0  0  0  0
  7 20  2  0  0  0  0
  8 13  1  0  0  0  0
  9 19  1  0  0  0  0
 10 16  2  0  0  0  0
 11  9  2  0  0  0  0
 11  5  1  0  0  0  0
 12 21  1  6  0  0  0
 13 12  1  0  0  0  0
 14 20  1  0  0  0  0
 14  9  1  0  0  0  0
 15  5  2  0  0  0  0
 15  6  1  0  0  0  0
 16 15  1  0  0  0  0
 17 12  1  0  0  0  0
 18  4  1  0  0  0  0
 18  3  2  0  0  0  0
 19 17  1  0  0  0  0
 20  8  1  0  0  0  0
 21 23  2  0  0  0  0
 22 24  2  0  0  0  0
 25 21  1  0  0  0  0
 25 22  1  0  0  0  0
 26 22  1  0  0  0  0
M  END
>  <MODEL>
5

>  <REMARK>
 VINA RESULT:      -8.7      1.890      6.619
  Name = 
  1 active torsions:
  status: ('A' for Active; 'I' for Inactive)
    1  A    between atoms: C_4  and  C_18
                            x       y       z     vdW  Elec       q    Type
                         _______ _______ _______ _____ _____    ______ ____

>  <TORSDO>
F 1

$$$$
=
 OpenBabel10222416113D

 26 28  0  0  1  0  0  0  0  0999 V2000
  187.2220  178.8070  140.6860 N   0  0  0  0  0  2  0  0  0  0  0  0
  183.7370  180.2160  143.6270 O   0  0  0  0  0  1  0  0  0  0  0  0
  186.6330  178.7610  141.9090 C   0  0  0  0  0  0  0  0  0  0  0  0
  184.8800  179.4510  143.4160 C   0  0  0  0  0  0  0  0  0  0  0  0
  188.3230  177.2510  142.6480 N   0  0  0  0  0  0  0  0  0  0  0  0
  190.1490  176.5000  141.1780 C   0  0  0  0  0  1  0  0  0  0  0  0
  183.5170  178.4660  145.8390 O   0  0  0  0  0  0  0  0  0  0  0  0
  185.4300  179.1390  146.9580 N   0  0  0  0  0  2  0  0  0  0  0  0
  186.6010  177.8930  144.1940 C   0  0  0  0  0  0  0  0  0  0  0  0
  188.8720  178.1620  139.2750 O   0  0  0  0  0  0  0  0  0  0  0  0
  187.1970  177.9640  142.9220 C   0  0  0  0  0  0  0  0  0  0  0  0
  187.3540  177.7180  147.3300 C   0  0  1  0  0  3  0  0  0  0  0  0
  186.8770  179.1420  147.0760 C   0  0  0  0  0  2  0  0  0  0  0  0
  185.4290  178.6660  144.4550 C   0  0  0  0  0  0  0  0  0  0  0  0
  188.9140  177.2980  141.4240 C   0  0  0  0  0  0  0  0  0  0  0  0
  188.3490  178.0970  140.4190 C   0  0  0  0  0  0  0  0  0  0  0  0
  186.7410  176.7740  146.3920 N   0  0  0  0  0  2  0  0  0  0  0  0
  185.4800  179.4940  142.1590 C   0  0  0  0  0  3  0  0  0  0  0  0
  187.2120  177.0260  145.1200 O   0  0  0  0  0  0  0  0  0  0  0  0
  184.7510  178.7130  145.7730 C   0  0  0  0  0  0  0  0  0  0  0  0
  188.8480  177.6110  147.3420 C   0  0  0  0  0  0  0  0  0  0  0  0
  190.9340  176.9820  146.0350 C   0  0  0  0  0  0  0  0  0  0  0  0
  189.5030  177.9730  148.3590 O   0  0  0  0  0  0  0  0  0  0  0  0
  191.7160  177.2870  146.9750 O   0  0  0  0  0  0  0  0  0  0  0  0
  189.5170  177.1250  146.1740 N   0  0  0  0  0  2  0  0  0  0  0  0
  191.4930  176.4630  144.7590 C   0  0  0  0  0  1  0  0  0  0  0  0
  1  3  1  0  0  0  0
  3 18  2  0  0  0  0
  3 11  1  0  0  0  0
  4  2  1  0  0  0  0
  4 14  2  0  0  0  0
  5 11  1  0  0  0  0
  6 15  1  0  0  0  0
  8 13  1  0  0  0  0
  9 14  1  0  0  0  0
  9 19  1  0  0  0  0
 10 16  2  0  0  0  0
 11  9  2  0  0  0  0
 12 21  1  6  0  0  0
 13 12  1  0  0  0  0
 14 20  1  0  0  0  0
 15  5  2  0  0  0  0
 16  1  1  0  0  0  0
 16 15  1  0  0  0  0
 17 12  1  0  0  0  0
 18  4  1  0  0  0  0
 19 17  1  0  0  0  0
 20  7  2  0  0  0  0
 20  8  1  0  0  0  0
 21 23  2  0  0  0  0
 22 25  1  0  0  0  0
 22 24  2  0  0  0  0
 25 21  1  0  0  0  0
 26 22  1  0  0  0  0
M  END
>  <MODEL>
6

>  <REMARK>
 VINA RESULT:      -8.4      1.893      5.402
  Name = 
  1 active torsions:
  status: ('A' for Active; 'I' for Inactive)
    1  A    between atoms: C_4  and  C_18
                            x       y       z     vdW  Elec       q    Type
                         _______ _______ _______ _____ _____    ______ ____

>  <TORSDO>
F 1

$$$$
=
 OpenBabel10222416113D

 26 28  0  0  1  0  0  0  0  0999 V2000
  185.0640  178.2760  145.1360 N   0  0  0  0  0  2  0  0  0  0  0  0
  186.0800  178.2340  140.4730 O   0  0  0  0  0  1  0  0  0  0  0  0
  185.9860  178.2590  144.1400 C   0  0  0  0  0  0  0  0  0  0  0  0
  186.5300  178.2430  141.7900 C   0  0  0  0  0  0  0  0  0  0  0  0
  187.7230  178.2330  145.7720 N   0  0  0  0  0  0  0  0  0  0  0  0
  187.2570  178.2430  148.1890 C   0  0  0  0  0  1  0  0  0  0  0  0
  188.7650  179.0030  140.0200 O   0  0  0  0  0  0  0  0  0  0  0  0
  189.7750  177.0620  140.7790 N   0  0  0  0  0  2  0  0  0  0  0  0
  188.3310  178.2250  143.4490 C   0  0  0  0  0  0  0  0  0  0  0  0
  184.5550  178.2860  147.3440 O   0  0  0  0  0  0  0  0  0  0  0  0
  187.3560  178.2350  144.4620 C   0  0  0  0  0  0  0  0  0  0  0  0
  191.2090  176.9520  142.7250 C   0  0  1  0  0  3  0  0  0  0  0  0
  190.1820  176.2100  141.8820 C   0  0  0  0  0  2  0  0  0  0  0  0
  187.9120  178.2100  142.0830 C   0  0  0  0  0  0  0  0  0  0  0  0
  186.8000  178.2490  146.7690 C   0  0  0  0  0  0  0  0  0  0  0  0
  185.4360  178.2700  146.4430 C   0  0  0  0  0  0  0  0  0  0  0  0
  190.7650  178.3130  143.0340 N   0  0  0  0  0  2  0  0  0  0  0  0
  185.5830  178.2680  142.8110 C   0  0  0  0  0  3  0  0  0  0  0  0
  189.6720  178.2550  143.8760 O   0  0  0  0  0  0  0  0  0  0  0  0
  188.8500  178.1420  140.9360 C   0  0  0  0  0  0  0  0  0  0  0  0
  191.5930  176.1900  143.9570 C   0  0  0  0  0  0  0  0  0  0  0  0
  191.7010  176.1900  146.4960 C   0  0  0  0  0  0  0  0  0  0  0  0
  192.0560  175.0200  143.8620 O   0  0  0  0  0  0  0  0  0  0  0  0
  192.1850  175.0290  146.5580 O   0  0  0  0  0  0  0  0  0  0  0  0
  191.3960  176.7990  145.2370 N   0  0  0  0  0  2  0  0  0  0  0  0
  191.4420  176.9420  147.7510 C   0  0  0  0  0  1  0  0  0  0  0  0
  1 16  1  0  0  0  0
  2  4  1  0  0  0  0
  3 11  1  0  0  0  0
  3  1  1  0  0  0  0
  4 14  2  0  0  0  0
  4 18  1  0  0  0  0
  5 15  2  0  0  0  0
  7 20  2  0  0  0  0
  8 20  1  0  0  0  0
  8 13  1  0  0  0  0
  9 19  1  0  0  0  0
  9 11  2  0  0  0  0
 11  5  1  0  0  0  0
 12 17  1  0  0  0  0
 12 21  1  1  0  0  0
 13 12  1  0  0  0  0
 14  9  1  0  0  0  0
 15  6  1  0  0  0  0
 16 15  1  0  0  0  0
 16 10  2  0  0  0  0
 17 19  1  0  0  0  0
 18  3  2  0  0  0  0
 20 14  1  0  0  0  0
 21 25  1  0  0  0  0
 22 24  2  0  0  0  0
 22 26  1  0  0  0  0
 23 21  2  0  0  0  0
 25 22  1  0  0  0  0
M  END
>  <MODEL>
7

>  <REMARK>
 VINA RESULT:      -8.2      2.181      5.087
  Name = 
  1 active torsions:
  status: ('A' for Active; 'I' for Inactive)
    1  A    between atoms: C_4  and  C_18
                            x       y       z     vdW  Elec       q    Type
                         _______ _______ _______ _____ _____    ______ ____

>  <TORSDO>
F 1

$$$$
=
 OpenBabel10222416113D

 26 28  0  0  1  0  0  0  0  0999 V2000
  186.8270  177.6690  137.9030 N   0  0  0  0  0  2  0  0  0  0  0  0
  191.4080  176.4030  138.3410 O   0  0  0  0  0  1  0  0  0  0  0  0
  187.9510  177.5920  138.6590 C   0  0  0  0  0  0  0  0  0  0  0  0
  190.2680  176.9670  138.9080 C   0  0  0  0  0  0  0  0  0  0  0  0
  186.7780  178.5930  140.4760 N   0  0  0  0  0  0  0  0  0  0  0  0
  184.4140  179.2560  140.3100 C   0  0  0  0  0  1  0  0  0  0  0  0
  192.6070  177.7120  140.5440 O   0  0  0  0  0  0  0  0  0  0  0  0
  191.5800  176.4950  142.2250 N   0  0  0  0  0  2  0  0  0  0  0  0
  189.0860  178.0020  140.7860 C   0  0  0  0  0  0  0  0  0  0  0  0
  184.6490  178.2520  137.6730 O   0  0  0  0  0  0  0  0  0  0  0  0
  187.9320  178.0640  139.9850 C   0  0  0  0  0  0  0  0  0  0  0  0
  190.0250  177.4370  143.8230 C   0  0  1  0  0  3  0  0  0  0  0  0
  190.3980  176.2010  143.0160 C   0  0  0  0  0  2  0  0  0  0  0  0
  190.2750  177.4260  140.2450 C   0  0  0  0  0  0  0  0  0  0  0  0
  185.6520  178.6700  139.7200 C   0  0  0  0  0  0  0  0  0  0  0  0
  185.6770  178.1950  138.4000 C   0  0  0  0  0  0  0  0  0  0  0  0
  190.0120  178.6390  142.9850 N   0  0  0  0  0  2  0  0  0  0  0  0
  189.1160  177.0530  138.1290 C   0  0  0  0  0  3  0  0  0  0  0  0
  188.9760  178.5490  142.0780 O   0  0  0  0  0  0  0  0  0  0  0  0
  191.5320  177.2570  141.0150 C   0  0  0  0  0  0  0  0  0  0  0  0
  188.7420  177.2600  144.5770 C   0  0  0  0  0  0  0  0  0  0  0  0
  187.4890  177.6820  146.7460 C   0  0  0  0  0  0  0  0  0  0  0  0
  187.7540  176.6990  144.0270 O   0  0  0  0  0  0  0  0  0  0  0  0
  186.4310  177.1330  146.3380 O   0  0  0  0  0  0  0  0  0  0  0  0
  188.6490  177.7650  145.9120 N   0  0  0  0  0  2  0  0  0  0  0  0
  187.5340  178.2530  148.1180 C   0  0  0  0  0  1  0  0  0  0  0  0
  1 16  1  0  0  0  0
  1  3  1  0  0  0  0
  2  4  1  0  0  0  0
  3 11  1  0  0  0  0
  4 14  2  0  0  0  0
  7 20  2  0  0  0  0
  8 13  1  0  0  0  0
  9 19  1  0  0  0  0
 10 16  2  0  0  0  0
 11  5  1  0  0  0  0
 11  9  2  0  0  0  0
 12 21  1  6  0  0  0
 13 12  1  0  0  0  0
 14  9  1  0  0  0  0
 14 20  1  0  0  0  0
 15  6  1  0  0  0  0
 15  5  2  0  0  0  0
 16 15  1  0  0  0  0
 17 12  1  0  0  0  0
 18  3  2  0  0  0  0
 18  4  1  0  0  0  0
 19 17  1  0  0  0  0
 20  8  1  0  0  0  0
 21 25  1  0  0  0  0
 22 26  1  0  0  0  0
 23 21  2  0  0  0  0
 24 22  2  0  0  0  0
 25 22  1  0  0  0  0
M  END
>  <MODEL>
8

>  <REMARK>
 VINA RESULT:      -8.2      2.522      6.287
  Name = 
  1 active torsions:
  status: ('A' for Active; 'I' for Inactive)
    1  A    between atoms: C_4  and  C_18
                            x       y       z     vdW  Elec       q    Type
                         _______ _______ _______ _____ _____    ______ ____

>  <TORSDO>
F 1

$$$$
=
 OpenBabel10222416113D

 26 28  0  0  1  0  0  0  0  0999 V2000
  187.0000  177.5910  144.4150 N   0  0  0  0  0  2  0  0  0  0  0  0
  183.5020  178.9270  141.4550 O   0  0  0  0  0  1  0  0  0  0  0  0
  186.5930  177.9420  143.1680 C   0  0  0  0  0  0  0  0  0  0  0  0
  184.8460  178.6240  141.6510 C   0  0  0  0  0  0  0  0  0  0  0  0
  188.8230  177.6550  142.3770 N   0  0  0  0  0  0  0  0  0  0  0  0
  190.6630  176.9580  143.8550 C   0  0  0  0  0  1  0  0  0  0  0  0
  184.5620  180.0660  139.0930 O   0  0  0  0  0  0  0  0  0  0  0  0
  185.3300  178.1090  138.1220 N   0  0  0  0  0  2  0  0  0  0  0  0
  187.1320  178.3430  140.8170 C   0  0  0  0  0  0  0  0  0  0  0  0
  188.6410  176.9460  145.8370 O   0  0  0  0  0  0  0  0  0  0  0  0
  187.5270  177.9750  142.1150 C   0  0  0  0  0  0  0  0  0  0  0  0
  187.6660  177.6230  137.7150 C   0  0  1  0  0  3  0  0  0  0  0  0
  186.3070  177.0360  138.0690 C   0  0  0  0  0  2  0  0  0  0  0  0
  185.7600  178.6570  140.5730 C   0  0  0  0  0  0  0  0  0  0  0  0
  189.2310  177.3020  143.6250 C   0  0  0  0  0  0  0  0  0  0  0  0
  188.2960  177.2680  144.6700 C   0  0  0  0  0  0  0  0  0  0  0  0
  187.9730  178.7950  138.5390 N   0  0  0  0  0  2  0  0  0  0  0  0
  185.2650  178.2700  142.9310 C   0  0  0  0  0  3  0  0  0  0  0  0
  188.1520  178.3960  139.8480 O   0  0  0  0  0  0  0  0  0  0  0  0
  185.2210  179.0020  139.2350 C   0  0  0  0  0  0  0  0  0  0  0  0
  188.7590  176.6000  137.7590 C   0  0  0  0  0  0  0  0  0  0  0  0
  191.2380  176.1670  138.1080 C   0  0  0  0  0  0  0  0  0  0  0  0
  188.4920  175.3770  137.5940 O   0  0  0  0  0  0  0  0  0  0  0  0
  191.1280  174.9230  137.9480 O   0  0  0  0  0  0  0  0  0  0  0  0
  190.0980  177.0290  138.0220 N   0  0  0  0  0  2  0  0  0  0  0  0
  192.5750  176.7530  138.3900 C   0  0  0  0  0  1  0  0  0  0  0  0
  1 16  1  0  0  0  0
  2  4  1  0  0  0  0
  3  1  1  0  0  0  0
  4 18  2  0  0  0  0
  5 15  2  0  0  0  0
  7 20  2  0  0  0  0
  8 20  1  0  0  0  0
  9 11  1  0  0  0  0
 11  5  1  0  0  0  0
 11  3  2  0  0  0  0
 12 21  1  1  0  0  0
 12 13  1  0  0  0  0
 12 17  1  0  0  0  0
 13  8  1  0  0  0  0
 14  9  2  0  0  0  0
 14  4  1  0  0  0  0
 15  6  1  0  0  0  0
 15 16  1  0  0  0  0
 16 10  2  0  0  0  0
 17 19  1  0  0  0  0
 18  3  1  0  0  0  0
 19  9  1  0  0  0  0
 20 14  1  0  0  0  0
 21 25  1  0  0  0  0
 22 26  1  0  0  0  0
 23 21  2  0  0  0  0
 24 22  2  0  0  0  0
 25 22  1  0  0  0  0
M  END
>  <MODEL>
9

>  <REMARK>
 VINA RESULT:      -8.1      2.782      5.725
  Name = 
  1 active torsions:
  status: ('A' for Active; 'I' for Inactive)
    1  A    between atoms: C_4  and  C_18
                            x       y       z     vdW  Elec       q    Type
                         _______ _______ _______ _____ _____    ______ ____

>  <TORSDO>
F 1

$$$$
