=
 OpenBabel10222416343D

 32 35  0  0  1  0  0  0  0  0999 V2000
  183.4970  178.6480  143.2360 C   0  0  0  0  0  0  0  0  0  0  0  0
  188.1780  177.7160  146.3110 C   0  0  0  0  0  0  0  0  0  0  0  0
  185.4720  178.4260  145.7660 C   0  0  0  0  0  0  0  0  0  0  0  0
  190.6150  176.0880  143.1620 C   0  0  0  0  0  1  0  0  0  0  0  0
  187.8760  178.1600  144.9010 C   0  0  1  0  0  3  0  0  0  0  0  0
  189.8500  176.7990  144.2250 C   0  0  0  0  0  0  0  0  0  0  0  0
  189.5240  177.2190  146.6200 C   0  0  0  0  0  3  0  0  0  0  0  0
  184.0790  178.8720  145.7000 C   0  0  0  0  0  3  0  0  0  0  0  0
  188.6820  177.3660  143.8990 C   0  0  0  0  0  3  0  0  0  0  0  0
  183.2660  178.9680  144.6530 C   0  0  0  0  0  2  0  0  0  0  0  0
  186.0140  178.2460  143.3280 C   0  0  0  0  0  3  0  0  0  0  0  0
  187.2920  177.8190  147.2530 N   0  0  0  0  0  0  0  0  0  0  0  0
  185.9450  178.2390  147.0020 C   0  0  0  0  0  2  0  0  0  0  0  0
  190.3370  176.8150  145.6320 C   0  0  0  0  0  0  0  0  0  0  0  0
  184.6900  178.3590  142.7100 C   0  0  0  0  0  3  0  0  0  0  0  0
  186.3890  178.2400  144.6100 C   0  0  0  0  0  0  0  0  0  0  0  0
  182.4150  178.8750  140.9140 C   0  0  1  0  0  3  0  0  0  0  0  0
  180.2200  178.8240  141.5010 C   0  0  1  0  0  3  0  0  0  0  0  0
  181.1120  179.1680  140.4590 O   0  0  0  0  0  0  0  0  0  0  0  0
  180.9950  178.7200  142.7920 C   0  0  0  0  0  2  0  0  0  0  0  0
  182.3590  178.6910  142.3520 N   0  0  0  0  0  0  0  0  0  0  0  0
  179.1890  179.8380  141.6270 N   0  0  0  0  0  2  0  0  0  0  0  0
  179.5390  180.9210  140.7250 C   0  0  0  0  0  1  0  0  0  0  0  0
  182.9270  177.6040  140.2460 C   0  0  0  0  0  2  0  0  0  0  0  0
  183.4960  177.9110  138.8720 C   0  0  0  0  0  2  0  0  0  0  0  0
  184.8950  178.4810  139.0050 C   0  0  2  0  0  3  0  0  0  0  0  0
  184.8340  179.8730  138.9410 O   0  0  0  0  0  1  0  0  0  0  0  0
  185.7790  177.9600  137.8830 C   0  0  0  0  0  2  0  0  0  0  0  0
  187.5170  177.9290  138.4150 S   0  0  0  0  0  0  0  0  0  0  0  0
  188.0850  178.6970  136.8710 C   0  0  0  0  0  1  0  0  0  0  0  0
  192.1440  176.3600  147.1220 O   0  0  0  0  0  0  0  0  0  0  0  0
  191.6860  176.3220  145.9490 C   0  0  0  0  0  3  0  0  0  0  0  0
  1 10  1  0  0  0  0
  2  7  1  0  0  0  0
  2 12  2  0  0  0  0
  3 13  1  0  0  0  0
  4  6  1  0  0  0  0
  5  9  1  6  0  0  0
  5  2  1  0  0  0  0
  6 14  1  0  0  0  0
  8  3  2  0  0  0  0
  9  6  2  0  0  0  0
 10  8  1  0  0  0  0
 11 16  2  0  0  0  0
 13 12  1  0  0  0  0
 14 32  1  0  0  0  0
 14  7  2  0  0  0  0
 15  1  2  0  0  0  0
 15 11  1  0  0  0  0
 16  5  1  0  0  0  0
 16  3  1  0  0  0  0
 17 24  1  6  0  0  0
 17 21  1  0  0  0  0
 18 22  1  1  0  0  0
 18 20  1  0  0  0  0
 19 17  1  0  0  0  0
 19 18  1  0  0  0  0
 21 20  1  0  0  0  0
 21  1  1  0  0  0  0
 23 22  1  0  0  0  0
 25 26  1  0  0  0  0
 25 24  1  0  0  0  0
 26 27  1  6  0  0  0
 28 29  1  0  0  0  0
 28 26  1  0  0  0  0
 30 29  1  0  0  0  0
 32 31  2  0  0  0  0
M  END
>  <MODEL>
1

>  <REMARK>
 VINA RESULT:      -9.3      0.000      0.000
  Name = 
  8 active torsions:
  status: ('A' for Active; 'I' for Inactive)
    1  A    between atoms: C_1  and  N_25
    2  A    between atoms: C_5  and  C_31
    3  A    between atoms: S_7  and  C_17
    4  A    between atoms: C_9  and  N_27
    5  A    between atoms: C_14  and  C_28
    6  A    between atoms: C_16  and  C_17
    7  A    between atoms: C_16  and  C_20
    8  A    between atoms: C_20  and  C_31
                            x       y       z     vdW  Elec       q    Type
                         _______ _______ _______ _____ _____    ______ ____

>  <TORSDO>
F 8

$$$$
=
 OpenBabel10222416343D

 32 35  0  0  1  0  0  0  0  0999 V2000
  188.2840  177.4280  145.3470 C   0  0  0  0  0  0  0  0  0  0  0  0
  183.2430  178.8550  143.1610 C   0  0  0  0  0  0  0  0  0  0  0  0
  185.2030  178.3340  145.1630 C   0  0  0  0  0  0  0  0  0  0  0  0
  184.4000  178.8710  139.0180 C   0  0  0  0  0  1  0  0  0  0  0  0
  184.3860  177.9570  142.7580 C   0  0  1  0  0  3  0  0  0  0  0  0
  183.9380  178.7090  140.4260 C   0  0  0  0  0  0  0  0  0  0  0  0
  182.2700  179.2610  142.1380 C   0  0  0  0  0  3  0  0  0  0  0  0
  186.0350  178.0730  146.3400 C   0  0  0  0  0  3  0  0  0  0  0  0
  184.7950  178.2120  141.3250 C   0  0  0  0  0  3  0  0  0  0  0  0
  187.3060  177.6930  146.4140 C   0  0  0  0  0  2  0  0  0  0  0  0
  186.7130  177.5200  143.3400 C   0  0  0  0  0  3  0  0  0  0  0  0
  183.0790  179.2240  144.3940 N   0  0  0  0  0  0  0  0  0  0  0  0
  184.0250  178.9110  145.4240 C   0  0  0  0  0  2  0  0  0  0  0  0
  182.5800  179.1610  140.8370 C   0  0  0  0  0  0  0  0  0  0  0  0
  187.9850  177.3480  144.0480 C   0  0  0  0  0  3  0  0  0  0  0  0
  185.5240  177.9590  143.7610 C   0  0  0  0  0  0  0  0  0  0  0  0
  190.7820  177.0890  144.8420 C   0  0  1  0  0  3  0  0  0  0  0  0
  191.5530  176.6830  146.9410 C   0  0  1  0  0  3  0  0  0  0  0  0
  191.8720  176.5640  145.5690 O   0  0  0  0  0  0  0  0  0  0  0  0
  190.0640  176.8840  147.0800 C   0  0  0  0  0  2  0  0  0  0  0  0
  189.6510  177.1980  145.7430 N   0  0  0  0  0  0  0  0  0  0  0  0
  191.9550  175.4820  147.6510 N   0  0  0  0  0  2  0  0  0  0  0  0
  192.9690  175.8710  148.6150 C   0  0  0  0  0  1  0  0  0  0  0  0
  191.1400  178.4610  144.2850 C   0  0  0  0  0  2  0  0  0  0  0  0
  190.8410  178.5330  142.7970 C   0  0  0  0  0  2  0  0  0  0  0  0
  191.3010  177.2600  142.1140 C   0  0  2  0  0  3  0  0  0  0  0  0
  192.3540  177.5570  141.2480 O   0  0  0  0  0  1  0  0  0  0  0  0
  190.1550  176.6470  141.3250 C   0  0  0  0  0  2  0  0  0  0  0  0
  190.1200  177.3240  139.6380 S   0  0  0  0  0  0  0  0  0  0  0  0
  188.5000  178.1000  139.8990 C   0  0  0  0  0  1  0  0  0  0  0  0
  180.4000  179.8110  140.1170 O   0  0  0  0  0  0  0  0  0  0  0  0
  181.6000  179.5660  139.8180 C   0  0  0  0  0  3  0  0  0  0  0  0
  1 21  1  0  0  0  0
  1 10  1  0  0  0  0
  2 12  2  0  0  0  0
  3 13  1  0  0  0  0
  3  8  2  0  0  0  0
  4  6  1  0  0  0  0
  5  9  1  6  0  0  0
  5  2  1  0  0  0  0
  5 16  1  0  0  0  0
  6 14  1  0  0  0  0
  6  9  2  0  0  0  0
  7  2  1  0  0  0  0
  8 10  1  0  0  0  0
 11 16  2  0  0  0  0
 11 15  1  0  0  0  0
 12 13  1  0  0  0  0
 14  7  2  0  0  0  0
 15  1  2  0  0  0  0
 16  3  1  0  0  0  0
 17 24  1  1  0  0  0
 17 19  1  0  0  0  0
 17 21  1  0  0  0  0
 18 20  1  0  0  0  0
 18 22  1  1  0  0  0
 19 18  1  0  0  0  0
 21 20  1  0  0  0  0
 22 23  1  0  0  0  0
 25 24  1  0  0  0  0
 26 27  1  6  0  0  0
 26 25  1  0  0  0  0
 28 26  1  0  0  0  0
 29 30  1  0  0  0  0
 29 28  1  0  0  0  0
 32 31  2  0  0  0  0
 32 14  1  0  0  0  0
M  END
>  <MODEL>
2

>  <REMARK>
 VINA RESULT:      -9.0      2.100      8.279
  Name = 
  8 active torsions:
  status: ('A' for Active; 'I' for Inactive)
    1  A    between atoms: C_1  and  N_25
    2  A    between atoms: C_5  and  C_31
    3  A    between atoms: S_7  and  C_17
    4  A    between atoms: C_9  and  N_27
    5  A    between atoms: C_14  and  C_28
    6  A    between atoms: C_16  and  C_17
    7  A    between atoms: C_16  and  C_20
    8  A    between atoms: C_20  and  C_31
                            x       y       z     vdW  Elec       q    Type
                         _______ _______ _______ _____ _____    ______ ____

>  <TORSDO>
F 8

$$$$
=
 OpenBabel10222416343D

 32 35  0  0  1  0  0  0  0  0999 V2000
  190.1760  177.4120  143.6110 C   0  0  0  0  0  0  0  0  0  0  0  0
  189.4910  177.5990  137.9780 C   0  0  0  0  0  0  0  0  0  0  0  0
  190.8500  177.3100  140.4660 C   0  0  0  0  0  0  0  0  0  0  0  0
  185.2050  177.9680  137.9350 C   0  0  0  0  0  1  0  0  0  0  0  0
  188.8400  178.2500  139.1720 C   0  0  1  0  0  3  0  0  0  0  0  0
  186.6950  178.0080  137.9290 C   0  0  0  0  0  0  0  0  0  0  0  0
  188.7760  177.6060  136.6950 C   0  0  0  0  0  3  0  0  0  0  0  0
  191.7400  177.1740  141.6210 C   0  0  0  0  0  3  0  0  0  0  0  0
  187.3340  178.1370  139.0980 C   0  0  0  0  0  3  0  0  0  0  0  0
  191.4610  177.2210  142.9190 C   0  0  0  0  0  3  0  0  0  0  0  0
  188.7320  178.0200  141.5980 C   0  0  0  0  0  3  0  0  0  0  0  0
  190.6810  177.0890  138.0540 N   0  0  0  0  0  0  0  0  0  0  0  0
  191.4030  176.9980  139.2900 C   0  0  0  0  0  2  0  0  0  0  0  0
  187.4560  177.8350  136.6610 C   0  0  0  0  0  0  0  0  0  0  0  0
  189.0380  177.7670  143.0090 C   0  0  0  0  0  2  0  0  0  0  0  0
  189.4520  177.8160  140.4910 C   0  0  0  0  0  0  0  0  0  0  0  0
  189.2810  177.9330  145.9640 C   0  0  1  0  0  3  0  0  0  0  0  0
  190.7030  176.6720  147.2100 C   0  0  1  0  0  3  0  0  0  0  0  0
  189.7740  177.7350  147.2710 O   0  0  0  0  0  0  0  0  0  0  0  0
  191.1310  176.4800  145.7750 C   0  0  0  0  0  2  0  0  0  0  0  0
  190.1620  177.2420  145.0410 N   0  0  0  0  0  0  0  0  0  0  0  0
  191.8620  176.9770  148.0300 N   0  0  0  0  0  2  0  0  0  0  0  0
  192.6580  175.7650  148.1160 C   0  0  0  0  0  1  0  0  0  0  0  0
  187.8670  177.3750  145.8510 C   0  0  0  0  0  2  0  0  0  0  0  0
  186.9400  178.0540  146.8450 C   0  0  0  0  0  2  0  0  0  0  0  0
  185.8320  178.7810  146.1090 C   0  0  2  0  0  3  0  0  0  0  0  0
  184.6200  178.5560  146.7620 O   0  0  0  0  0  1  0  0  0  0  0  0
  185.7380  178.2770  144.6780 C   0  0  0  0  0  2  0  0  0  0  0  0
  184.3780  179.1090  143.8060 S   0  0  0  0  0  0  0  0  0  0  0  0
  185.1710  178.8830  142.1890 C   0  0  0  0  0  1  0  0  0  0  0  0
  186.7760  176.8520  134.5950 O   0  0  0  0  0  0  0  0  0  0  0  0
  186.7470  177.8440  135.3720 C   0  0  0  0  0  3  0  0  0  0  0  0
  1 21  1  0  0  0  0
  2 12  2  0  0  0  0
  2  5  1  0  0  0  0
  3 16  1  0  0  0  0
  3  8  2  0  0  0  0
  5  9  1  1  0  0  0
  5 16  1  0  0  0  0
  6  4  1  0  0  0  0
  6  9  2  0  0  0  0
  7  2  1  0  0  0  0
  8 10  1  0  0  0  0
 10  1  2  0  0  0  0
 11 15  1  0  0  0  0
 12 13  1  0  0  0  0
 13  3  1  0  0  0  0
 14  7  2  0  0  0  0
 14  6  1  0  0  0  0
 15  1  1  0  0  0  0
 16 11  2  0  0  0  0
 17 24  1  1  0  0  0
 17 19  1  0  0  0  0
 18 19  1  0  0  0  0
 18 22  1  1  0  0  0
 20 18  1  0  0  0  0
 21 20  1  0  0  0  0
 21 17  1  0  0  0  0
 22 23  1  0  0  0  0
 24 25  1  0  0  0  0
 26 27  1  1  0  0  0
 26 25  1  0  0  0  0
 28 26  1  0  0  0  0
 29 28  1  0  0  0  0
 30 29  1  0  0  0  0
 31 32  2  0  0  0  0
 32 14  1  0  0  0  0
M  END
>  <MODEL>
3

>  <REMARK>
 VINA RESULT:      -8.8      3.906      9.045
  Name = 
  8 active torsions:
  status: ('A' for Active; 'I' for Inactive)
    1  A    between atoms: C_1  and  N_25
    2  A    between atoms: C_5  and  C_31
    3  A    between atoms: S_7  and  C_17
    4  A    between atoms: C_9  and  N_27
    5  A    between atoms: C_14  and  C_28
    6  A    between atoms: C_16  and  C_17
    7  A    between atoms: C_16  and  C_20
    8  A    between atoms: C_20  and  C_31
                            x       y       z     vdW  Elec       q    Type
                         _______ _______ _______ _____ _____    ______ ____

>  <TORSDO>
F 8

$$$$
=
 OpenBabel10222416343D

 32 35  0  0  1  0  0  0  0  0999 V2000
  183.6570  178.6040  142.9740 C   0  0  0  0  0  0  0  0  0  0  0  0
  188.1750  177.7400  146.3010 C   0  0  0  0  0  0  0  0  0  0  0  0
  185.4990  178.4300  145.6060 C   0  0  0  0  0  0  0  0  0  0  0  0
  190.7790  176.0760  143.3090 C   0  0  0  0  0  1  0  0  0  0  0  0
  187.9450  178.1610  144.8720 C   0  0  1  0  0  3  0  0  0  0  0  0
  189.9570  176.8000  144.3190 C   0  0  0  0  0  0  0  0  0  0  0  0
  189.5060  177.2540  146.6870 C   0  0  0  0  0  3  0  0  0  0  0  0
  184.1090  178.8680  145.4610 C   0  0  0  0  0  3  0  0  0  0  0  0
  188.8050  177.3560  143.9240 C   0  0  0  0  0  3  0  0  0  0  0  0
  183.3510  178.9440  144.3730 C   0  0  0  0  0  2  0  0  0  0  0  0
  186.1670  178.2150  143.2030 C   0  0  0  0  0  3  0  0  0  0  0  0
  187.2420  177.8530  147.1950 N   0  0  0  0  0  0  0  0  0  0  0  0
  185.9070  178.2630  146.8680 C   0  0  0  0  0  2  0  0  0  0  0  0
  190.3700  176.8400  145.7490 C   0  0  0  0  0  0  0  0  0  0  0  0
  184.8760  178.3130  142.5150 C   0  0  0  0  0  3  0  0  0  0  0  0
  186.4750  178.2300  144.5030 C   0  0  0  0  0  0  0  0  0  0  0  0
  182.6920  178.4950  140.5940 C   0  0  1  0  0  3  0  0  0  0  0  0
  180.5000  178.8950  141.0430 C   0  0  1  0  0  3  0  0  0  0  0  0
  181.4650  178.8760  140.0100 O   0  0  0  0  0  0  0  0  0  0  0  0
  181.2110  178.9520  142.3730 C   0  0  0  0  0  2  0  0  0  0  0  0
  182.5660  178.6290  142.0330 N   0  0  0  0  0  0  0  0  0  0  0  0
  179.6390  180.0550  140.8970 N   0  0  0  0  0  2  0  0  0  0  0  0
  179.4630  180.6290  142.2190 C   0  0  0  0  0  1  0  0  0  0  0  0
  183.0150  177.0500  140.2310 C   0  0  0  0  0  2  0  0  0  0  0  0
  183.1090  176.8830  138.7240 C   0  0  0  0  0  2  0  0  0  0  0  0
  183.0260  175.4130  138.3590 C   0  0  2  0  0  3  0  0  0  0  0  0
  184.1660  175.0520  137.6410 O   0  0  0  0  0  1  0  0  0  0  0  0
  181.7900  175.1540  137.5120 C   0  0  0  0  0  2  0  0  0  0  0  0
  180.3560  174.8250  138.5780 S   0  0  0  0  0  0  0  0  0  0  0  0
  179.3280  174.3160  137.1700 C   0  0  0  0  0  1  0  0  0  0  0  0
  192.1180  176.4590  147.3280 O   0  0  0  0  0  0  0  0  0  0  0  0
  191.7030  176.3580  146.1430 C   0  0  0  0  0  3  0  0  0  0  0  0
  1 10  1  0  0  0  0
  2  7  1  0  0  0  0
  2 12  2  0  0  0  0
  3 13  1  0  0  0  0
  4  6  1  0  0  0  0
  5  9  1  6  0  0  0
  5  2  1  0  0  0  0
  6 14  1  0  0  0  0
  8  3  2  0  0  0  0
  9  6  2  0  0  0  0
 10  8  1  0  0  0  0
 11 16  2  0  0  0  0
 13 12  1  0  0  0  0
 14 32  1  0  0  0  0
 14  7  2  0  0  0  0
 15  1  2  0  0  0  0
 15 11  1  0  0  0  0
 16  5  1  0  0  0  0
 16  3  1  0  0  0  0
 17 24  1  1  0  0  0
 17 21  1  0  0  0  0
 18 22  1  6  0  0  0
 18 20  1  0  0  0  0
 19 17  1  0  0  0  0
 19 18  1  0  0  0  0
 21 20  1  0  0  0  0
 21  1  1  0  0  0  0
 22 23  1  0  0  0  0
 25 24  1  0  0  0  0
 26 27  1  6  0  0  0
 26 25  1  0  0  0  0
 28 26  1  0  0  0  0
 28 29  1  0  0  0  0
 30 29  1  0  0  0  0
 32 31  2  0  0  0  0
M  END
>  <MODEL>
4

>  <REMARK>
 VINA RESULT:      -8.7      2.131      2.659
  Name = 
  8 active torsions:
  status: ('A' for Active; 'I' for Inactive)
    1  A    between atoms: C_1  and  N_25
    2  A    between atoms: C_5  and  C_31
    3  A    between atoms: S_7  and  C_17
    4  A    between atoms: C_9  and  N_27
    5  A    between atoms: C_14  and  C_28
    6  A    between atoms: C_16  and  C_17
    7  A    between atoms: C_16  and  C_20
    8  A    between atoms: C_20  and  C_31
                            x       y       z     vdW  Elec       q    Type
                         _______ _______ _______ _____ _____    ______ ____

>  <TORSDO>
F 8

$$$$
=
 OpenBabel10222416343D

 32 35  0  0  1  0  0  0  0  0999 V2000
  188.1850  177.4240  144.5790 C   0  0  0  0  0  0  0  0  0  0  0  0
  182.8790  178.9590  143.2650 C   0  0  0  0  0  0  0  0  0  0  0  0
  185.1370  178.4000  144.9120 C   0  0  0  0  0  0  0  0  0  0  0  0
  183.3200  178.9330  138.9860 C   0  0  0  0  0  1  0  0  0  0  0  0
  183.9170  178.0340  142.6810 C   0  0  1  0  0  3  0  0  0  0  0  0
  183.0990  178.7870  140.4530 C   0  0  0  0  0  0  0  0  0  0  0  0
  181.7570  179.3830  142.4180 C   0  0  0  0  0  3  0  0  0  0  0  0
  186.1500  178.1230  145.9320 C   0  0  0  0  0  3  0  0  0  0  0  0
  184.0840  178.2730  141.1980 C   0  0  0  0  0  3  0  0  0  0  0  0
  187.4070  177.7160  145.7940 C   0  0  0  0  0  2  0  0  0  0  0  0
  186.2990  177.5450  142.8660 C   0  0  0  0  0  3  0  0  0  0  0  0
  182.9340  179.3350  144.5050 N   0  0  0  0  0  0  0  0  0  0  0  0
  184.0330  179.0040  145.3630 C   0  0  0  0  0  2  0  0  0  0  0  0
  181.8400  179.2720  141.0850 C   0  0  0  0  0  0  0  0  0  0  0  0
  187.6680  177.3470  143.3500 C   0  0  0  0  0  3  0  0  0  0  0  0
  185.2080  178.0130  143.4780 C   0  0  0  0  0  0  0  0  0  0  0  0
  190.5020  176.7620  143.6840 C   0  0  1  0  0  3  0  0  0  0  0  0
  191.6820  176.7540  145.6260 C   0  0  1  0  0  3  0  0  0  0  0  0
  191.6980  176.3130  144.2840 O   0  0  0  0  0  0  0  0  0  0  0  0
  190.2660  177.1120  146.0060 C   0  0  0  0  0  2  0  0  0  0  0  0
  189.5930  177.1650  144.7400 N   0  0  0  0  0  0  0  0  0  0  0  0
  192.1740  175.7030  146.5000 N   0  0  0  0  0  2  0  0  0  0  0  0
  192.0490  176.1860  147.8640 C   0  0  0  0  0  1  0  0  0  0  0  0
  190.7920  177.9450  142.7670 C   0  0  0  0  0  2  0  0  0  0  0  0
  191.2600  177.4660  141.4040 C   0  0  0  0  0  2  0  0  0  0  0  0
  190.0960  176.8700  140.6360 C   0  0  2  0  0  3  0  0  0  0  0  0
  190.5840  175.9910  139.6680 O   0  0  0  0  0  1  0  0  0  0  0  0
  189.2970  177.9730  139.9600 C   0  0  0  0  0  2  0  0  0  0  0  0
  189.4530  177.8460  138.1540 S   0  0  0  0  0  0  0  0  0  0  0  0
  187.8560  176.9980  137.9970 C   0  0  0  0  0  1  0  0  0  0  0  0
  179.5980  180.0110  140.7410 O   0  0  0  0  0  0  0  0  0  0  0  0
  180.7110  179.6950  140.2430 C   0  0  0  0  0  3  0  0  0  0  0  0
  1 21  1  0  0  0  0
  1 10  1  0  0  0  0
  2 12  2  0  0  0  0
  3 13  1  0  0  0  0
  3  8  2  0  0  0  0
  4  6  1  0  0  0  0
  5  9  1  6  0  0  0
  5  2  1  0  0  0  0
  5 16  1  0  0  0  0
  6 14  1  0  0  0  0
  6  9  2  0  0  0  0
  7  2  1  0  0  0  0
 10  8  1  0  0  0  0
 11 15  1  0  0  0  0
 11 16  2  0  0  0  0
 12 13  1  0  0  0  0
 14  7  2  0  0  0  0
 15  1  2  0  0  0  0
 16  3  1  0  0  0  0
 17 24  1  6  0  0  0
 17 19  1  0  0  0  0
 17 21  1  0  0  0  0
 18 20  1  0  0  0  0
 18 22  1  1  0  0  0
 19 18  1  0  0  0  0
 21 20  1  0  0  0  0
 22 23  1  0  0  0  0
 25 24  1  0  0  0  0
 26 27  1  6  0  0  0
 26 25  1  0  0  0  0
 28 26  1  0  0  0  0
 29 28  1  0  0  0  0
 30 29  1  0  0  0  0
 32 31  2  0  0  0  0
 32 14  1  0  0  0  0
M  END
>  <MODEL>
5

>  <REMARK>
 VINA RESULT:      -8.5      2.257      8.089
  Name = 
  8 active torsions:
  status: ('A' for Active; 'I' for Inactive)
    1  A    between atoms: C_1  and  N_25
    2  A    between atoms: C_5  and  C_31
    3  A    between atoms: S_7  and  C_17
    4  A    between atoms: C_9  and  N_27
    5  A    between atoms: C_14  and  C_28
    6  A    between atoms: C_16  and  C_17
    7  A    between atoms: C_16  and  C_20
    8  A    between atoms: C_20  and  C_31
                            x       y       z     vdW  Elec       q    Type
                         _______ _______ _______ _____ _____    ______ ____

>  <TORSDO>
F 8

$$$$
=
 OpenBabel10222416343D

 32 35  0  0  1  0  0  0  0  0999 V2000
  188.9240  177.5190  139.5650 C   0  0  0  0  0  0  0  0  0  0  0  0
  189.9220  177.3770  145.1530 C   0  0  0  0  0  0  0  0  0  0  0  0
  190.5020  177.3270  142.3630 C   0  0  0  0  0  0  0  0  0  0  0  0
  185.9280  178.2820  146.4700 C   0  0  0  0  0  1  0  0  0  0  0  0
  188.7860  176.9810  144.2430 C   0  0  1  0  0  3  0  0  0  0  0  0
  187.2740  177.8060  146.0420 C   0  0  0  0  0  0  0  0  0  0  0  0
  189.6510  177.5430  146.5870 C   0  0  0  0  0  3  0  0  0  0  0  0
  191.0070  177.2290  140.9920 C   0  0  0  0  0  3  0  0  0  0  0  0
  187.4710  177.5300  144.7470 C   0  0  0  0  0  3  0  0  0  0  0  0
  190.3540  177.3040  139.8380 C   0  0  0  0  0  3  0  0  0  0  0  0
  188.0330  177.3040  141.9460 C   0  0  0  0  0  3  0  0  0  0  0  0
  191.1290  177.5170  144.7000 N   0  0  0  0  0  0  0  0  0  0  0  0
  191.4450  177.4280  143.3050 C   0  0  0  0  0  2  0  0  0  0  0  0
  188.3930  177.7110  147.0200 C   0  0  0  0  0  0  0  0  0  0  0  0
  187.9650  177.4970  140.4940 C   0  0  0  0  0  2  0  0  0  0  0  0
  189.0760  177.2550  142.7790 C   0  0  0  0  0  0  0  0  0  0  0  0
  187.2250  177.4470  137.6370 C   0  0  1  0  0  3  0  0  0  0  0  0
  188.5530  178.1220  135.9220 C   0  0  1  0  0  3  0  0  0  0  0  0
  187.3290  177.4870  136.2300 O   0  0  0  0  0  0  0  0  0  0  0  0
  189.4390  178.0950  137.1430 C   0  0  0  0  0  2  0  0  0  0  0  0
  188.5350  177.7280  138.1940 N   0  0  0  0  0  0  0  0  0  0  0  0
  189.2090  177.4320  134.8240 N   0  0  0  0  0  2  0  0  0  0  0  0
  190.1640  176.5070  135.4080 C   0  0  0  0  0  1  0  0  0  0  0  0
  186.2210  178.4890  138.1150 C   0  0  0  0  0  2  0  0  0  0  0  0
  184.8430  177.8700  138.2830 C   0  0  0  0  0  2  0  0  0  0  0  0
  183.9610  178.7850  139.1110 C   0  0  2  0  0  3  0  0  0  0  0  0
  184.5590  180.0420  139.2030 O   0  0  0  0  0  1  0  0  0  0  0  0
  183.7760  178.2090  140.5060 C   0  0  0  0  0  2  0  0  0  0  0  0
  184.8710  179.0540  141.6850 S   0  0  0  0  0  0  0  0  0  0  0  0
  183.8110  178.6270  143.0950 C   0  0  0  0  0  1  0  0  0  0  0  0
  189.0280  178.2530  149.2550 O   0  0  0  0  0  0  0  0  0  0  0  0
  188.1290  177.8720  148.4570 C   0  0  0  0  0  3  0  0  0  0  0  0
  1 10  2  0  0  0  0
  1 15  1  0  0  0  0
  2  7  1  0  0  0  0
  3 16  1  0  0  0  0
  3 13  1  0  0  0  0
  5  9  1  1  0  0  0
  5  2  1  0  0  0  0
  6  4  1  0  0  0  0
  6 14  1  0  0  0  0
  7 14  2  0  0  0  0
  8  3  2  0  0  0  0
  9  6  2  0  0  0  0
 10  8  1  0  0  0  0
 11 16  2  0  0  0  0
 12  2  2  0  0  0  0
 13 12  1  0  0  0  0
 14 32  1  0  0  0  0
 15 11  1  0  0  0  0
 16  5  1  0  0  0  0
 17 24  1  1  0  0  0
 17 21  1  0  0  0  0
 18 22  1  6  0  0  0
 18 19  1  0  0  0  0
 18 20  1  0  0  0  0
 19 17  1  0  0  0  0
 20 21  1  0  0  0  0
 21  1  1  0  0  0  0
 22 23  1  0  0  0  0
 24 25  1  0  0  0  0
 25 26  1  0  0  0  0
 26 27  1  1  0  0  0
 26 28  1  0  0  0  0
 28 29  1  0  0  0  0
 29 30  1  0  0  0  0
 32 31  2  0  0  0  0
M  END
>  <MODEL>
6

>  <REMARK>
 VINA RESULT:      -8.5      3.155      6.154
  Name = 
  8 active torsions:
  status: ('A' for Active; 'I' for Inactive)
    1  A    between atoms: C_1  and  N_25
    2  A    between atoms: C_5  and  C_31
    3  A    between atoms: S_7  and  C_17
    4  A    between atoms: C_9  and  N_27
    5  A    between atoms: C_14  and  C_28
    6  A    between atoms: C_16  and  C_17
    7  A    between atoms: C_16  and  C_20
    8  A    between atoms: C_20  and  C_31
                            x       y       z     vdW  Elec       q    Type
                         _______ _______ _______ _____ _____    ______ ____

>  <TORSDO>
F 8

$$$$
=
 OpenBabel10222416343D

 32 35  0  0  1  0  0  0  0  0999 V2000
  183.9330  178.6710  141.8950 C   0  0  0  0  0  0  0  0  0  0  0  0
  189.1720  177.7550  143.8820 C   0  0  0  0  0  0  0  0  0  0  0  0
  187.1330  178.3470  141.9810 C   0  0  0  0  0  0  0  0  0  0  0  0
  188.1570  177.4530  148.0510 C   0  0  0  0  0  1  0  0  0  0  0  0
  187.7830  177.2780  144.2240 C   0  0  1  0  0  3  0  0  0  0  0  0
  188.5080  177.3880  146.6040 C   0  0  0  0  0  0  0  0  0  0  0  0
  190.2390  177.5910  144.8780 C   0  0  0  0  0  3  0  0  0  0  0  0
  186.2480  178.6190  140.8470 C   0  0  0  0  0  3  0  0  0  0  0  0
  187.5150  177.4040  145.7060 C   0  0  0  0  0  3  0  0  0  0  0  0
  184.9260  178.7480  140.8110 C   0  0  0  0  0  3  0  0  0  0  0  0
  185.4520  177.8270  143.7620 C   0  0  0  0  0  3  0  0  0  0  0  0
  189.4450  178.2520  142.7150 N   0  0  0  0  0  0  0  0  0  0  0  0
  188.4370  178.4930  141.7250 C   0  0  0  0  0  2  0  0  0  0  0  0
  189.9310  177.3810  146.1660 C   0  0  0  0  0  0  0  0  0  0  0  0
  184.1980  178.2580  143.1370 C   0  0  0  0  0  2  0  0  0  0  0  0
  186.7140  177.8720  143.3260 C   0  0  0  0  0  0  0  0  0  0  0  0
  182.0700  179.3230  140.2470 C   0  0  1  0  0  3  0  0  0  0  0  0
  180.3650  179.6780  141.7070 C   0  0  1  0  0  3  0  0  0  0  0  0
  180.7990  179.9200  140.3840 O   0  0  0  0  0  0  0  0  0  0  0  0
  181.5590  179.3010  142.5510 C   0  0  0  0  0  2  0  0  0  0  0  0
  182.5740  179.0280  141.5750 N   0  0  0  0  0  0  0  0  0  0  0  0
  179.7370  180.8690  142.2500 N   0  0  0  0  0  2  0  0  0  0  0  0
  178.9340  181.4530  141.1900 C   0  0  0  0  0  1  0  0  0  0  0  0
  181.9570  178.0380  139.4350 C   0  0  0  0  0  2  0  0  0  0  0  0
  182.5470  178.2250  138.0480 C   0  0  0  0  0  2  0  0  0  0  0  0
  183.5290  177.1100  137.7460 C   0  0  2  0  0  3  0  0  0  0  0  0
  184.7620  177.6630  137.3990 O   0  0  0  0  0  1  0  0  0  0  0  0
  183.0140  176.2580  136.5970 C   0  0  0  0  0  2  0  0  0  0  0  0
  182.4800  174.6330  137.2090 S   0  0  0  0  0  0  0  0  0  0  0  0
  184.1800  174.1350  137.6050 C   0  0  0  0  0  1  0  0  0  0  0  0
  191.4430  176.0730  147.4680 O   0  0  0  0  0  0  0  0  0  0  0  0
  191.0040  177.2130  147.1570 C   0  0  0  0  0  3  0  0  0  0  0  0
  1 15  1  0  0  0  0
  2  5  1  0  0  0  0
  2  7  1  0  0  0  0
  3 16  1  0  0  0  0
  5  9  1  1  0  0  0
  6  4  1  0  0  0  0
  7 14  2  0  0  0  0
  8  3  2  0  0  0  0
  9  6  2  0  0  0  0
 10  8  1  0  0  0  0
 10  1  2  0  0  0  0
 12  2  2  0  0  0  0
 13  3  1  0  0  0  0
 13 12  1  0  0  0  0
 14  6  1  0  0  0  0
 14 32  1  0  0  0  0
 15 11  1  0  0  0  0
 16 11  2  0  0  0  0
 16  5  1  0  0  0  0
 17 24  1  6  0  0  0
 17 19  1  0  0  0  0
 17 21  1  0  0  0  0
 18 22  1  1  0  0  0
 18 20  1  0  0  0  0
 19 18  1  0  0  0  0
 21  1  1  0  0  0  0
 21 20  1  0  0  0  0
 23 22  1  0  0  0  0
 25 24  1  0  0  0  0
 26 27  1  6  0  0  0
 26 25  1  0  0  0  0
 28 29  1  0  0  0  0
 28 26  1  0  0  0  0
 29 30  1  0  0  0  0
 32 31  2  0  0  0  0
M  END
>  <MODEL>
7

>  <REMARK>
 VINA RESULT:      -8.3      2.126      3.045
  Name = 
  8 active torsions:
  status: ('A' for Active; 'I' for Inactive)
    1  A    between atoms: C_1  and  N_25
    2  A    between atoms: C_5  and  C_31
    3  A    between atoms: S_7  and  C_17
    4  A    between atoms: C_9  and  N_27
    5  A    between atoms: C_14  and  C_28
    6  A    between atoms: C_16  and  C_17
    7  A    between atoms: C_16  and  C_20
    8  A    between atoms: C_20  and  C_31
                            x       y       z     vdW  Elec       q    Type
                         _______ _______ _______ _____ _____    ______ ____

>  <TORSDO>
F 8

$$$$
=
 OpenBabel10222416343D

 32 35  0  0  1  0  0  0  0  0999 V2000
  182.1300  178.2330  140.8980 C   0  0  0  0  0  0  0  0  0  0  0  0
  185.6610  178.5240  145.3350 C   0  0  0  0  0  0  0  0  0  0  0  0
  183.2440  178.8320  143.8570 C   0  0  0  0  0  0  0  0  0  0  0  0
  188.9530  176.3770  143.5870 C   0  0  0  0  0  1  0  0  0  0  0  0
  185.7990  178.5700  143.8330 C   0  0  1  0  0  3  0  0  0  0  0  0
  187.8950  177.2630  144.1500 C   0  0  0  0  0  0  0  0  0  0  0  0
  186.8540  178.2420  146.1440 C   0  0  0  0  0  3  0  0  0  0  0  0
  181.9330  179.1210  143.2710 C   0  0  0  0  0  3  0  0  0  0  0  0
  186.8780  177.6230  143.3590 C   0  0  0  0  0  3  0  0  0  0  0  0
  181.4760  178.8780  142.0480 C   0  0  0  0  0  2  0  0  0  0  0  0
  184.5030  178.0920  141.8230 C   0  0  0  0  0  3  0  0  0  0  0  0
  184.5300  178.7820  145.9150 N   0  0  0  0  0  0  0  0  0  0  0  0
  183.3200  179.0050  145.1800 C   0  0  0  0  0  2  0  0  0  0  0  0
  187.9310  177.6760  145.5800 C   0  0  0  0  0  0  0  0  0  0  0  0
  183.4290  177.9280  140.8390 C   0  0  0  0  0  3  0  0  0  0  0  0
  184.4700  178.4420  143.1120 C   0  0  0  0  0  0  0  0  0  0  0  0
  180.3810  178.8740  139.1260 C   0  0  1  0  0  3  0  0  0  0  0  0
  180.1940  176.8920  138.0300 C   0  0  1  0  0  3  0  0  0  0  0  0
  179.5660  178.1410  138.2370 O   0  0  0  0  0  0  0  0  0  0  0  0
  181.1930  176.6580  139.1360 C   0  0  0  0  0  2  0  0  0  0  0  0
  181.3150  177.9520  139.7440 N   0  0  0  0  0  0  0  0  0  0  0  0
  179.2020  175.8310  138.0320 N   0  0  0  0  0  2  0  0  0  0  0  0
  179.2740  175.1740  136.7380 C   0  0  0  0  0  1  0  0  0  0  0  0
  181.1410  179.9540  138.3650 C   0  0  0  0  0  2  0  0  0  0  0  0
  180.2460  180.6130  137.3300 C   0  0  0  0  0  2  0  0  0  0  0  0
  180.3890  182.1210  137.4050 C   0  0  2  0  0  3  0  0  0  0  0  0
  179.8340  182.5780  138.6000 O   0  0  0  0  0  1  0  0  0  0  0  0
  179.6720  182.7720  136.2330 C   0  0  0  0  0  2  0  0  0  0  0  0
  180.8050  183.8730  135.3360 S   0  0  0  0  0  0  0  0  0  0  0  0
  180.6110  185.1990  136.5610 C   0  0  0  0  0  1  0  0  0  0  0  0
  189.0850  176.6100  147.3760 O   0  0  0  0  0  0  0  0  0  0  0  0
  189.1240  177.4000  146.3950 C   0  0  0  0  0  3  0  0  0  0  0  0
  1 10  1  0  0  0  0
  2 12  2  0  0  0  0
  2  7  1  0  0  0  0
  3 13  1  0  0  0  0
  4  6  1  0  0  0  0
  5  9  1  6  0  0  0
  5  2  1  0  0  0  0
  6 14  1  0  0  0  0
  8  3  2  0  0  0  0
  9  6  2  0  0  0  0
 10  8  1  0  0  0  0
 11 16  2  0  0  0  0
 13 12  1  0  0  0  0
 14  7  2  0  0  0  0
 14 32  1  0  0  0  0
 15  1  2  0  0  0  0
 15 11  1  0  0  0  0
 16  5  1  0  0  0  0
 16  3  1  0  0  0  0
 17 24  1  6  0  0  0
 17 21  1  0  0  0  0
 18 22  1  1  0  0  0
 18 19  1  0  0  0  0
 18 20  1  0  0  0  0
 19 17  1  0  0  0  0
 20 21  1  0  0  0  0
 21  1  1  0  0  0  0
 23 22  1  0  0  0  0
 25 26  1  0  0  0  0
 25 24  1  0  0  0  0
 26 27  1  1  0  0  0
 28 26  1  0  0  0  0
 29 28  1  0  0  0  0
 29 30  1  0  0  0  0
 32 31  2  0  0  0  0
M  END
>  <MODEL>
8

>  <REMARK>
 VINA RESULT:      -8.2      3.219      4.396
  Name = 
  8 active torsions:
  status: ('A' for Active; 'I' for Inactive)
    1  A    between atoms: C_1  and  N_25
    2  A    between atoms: C_5  and  C_31
    3  A    between atoms: S_7  and  C_17
    4  A    between atoms: C_9  and  N_27
    5  A    between atoms: C_14  and  C_28
    6  A    between atoms: C_16  and  C_17
    7  A    between atoms: C_16  and  C_20
    8  A    between atoms: C_20  and  C_31
                            x       y       z     vdW  Elec       q    Type
                         _______ _______ _______ _____ _____    ______ ____

>  <TORSDO>
F 8

$$$$
=
 OpenBabel10222416343D

 32 35  0  0  1  0  0  0  0  0999 V2000
  190.6800  177.1450  139.8540 C   0  0  0  0  0  0  0  0  0  0  0  0
  187.8680  177.8100  144.7410 C   0  0  0  0  0  0  0  0  0  0  0  0
  188.2970  177.7680  141.9240 C   0  0  0  0  0  0  0  0  0  0  0  0
  190.9510  176.3760  147.3750 C   0  0  0  0  0  1  0  0  0  0  0  0
  189.2960  177.9610  144.2820 C   0  0  1  0  0  3  0  0  0  0  0  0
  189.9360  177.0290  146.5010 C   0  0  0  0  0  0  0  0  0  0  0  0
  187.5980  177.6990  146.1800 C   0  0  0  0  0  3  0  0  0  0  0  0
  188.3170  177.8540  140.4620 C   0  0  0  0  0  3  0  0  0  0  0  0
  190.2450  177.2470  145.2180 C   0  0  0  0  0  3  0  0  0  0  0  0
  189.3030  177.6010  139.6090 C   0  0  0  0  0  3  0  0  0  0  0  0
  190.7240  177.3730  142.3940 C   0  0  0  0  0  3  0  0  0  0  0  0
  186.8830  177.8330  143.8960 N   0  0  0  0  0  0  0  0  0  0  0  0
  187.0850  177.8790  142.4780 C   0  0  0  0  0  2  0  0  0  0  0  0
  188.5830  177.3640  147.0260 C   0  0  0  0  0  0  0  0  0  0  0  0
  191.2520  177.0770  141.0590 C   0  0  0  0  0  2  0  0  0  0  0  0
  189.4840  177.6410  142.8110 C   0  0  0  0  0  0  0  0  0  0  0  0
  190.9980  176.0630  137.5440 C   0  0  1  0  0  3  0  0  0  0  0  0
  193.2310  176.3810  137.2680 C   0  0  1  0  0  3  0  0  0  0  0  0
  192.1210  175.6430  136.7990 O   0  0  0  0  0  0  0  0  0  0  0  0
  192.8960  176.9590  138.6210 C   0  0  0  0  0  2  0  0  0  0  0  0
  191.4750  176.7880  138.7060 N   0  0  0  0  0  0  0  0  0  0  0  0
  194.3920  175.5150  137.3780 N   0  0  0  0  0  2  0  0  0  0  0  0
  193.9470  174.1610  137.0990 C   0  0  0  0  0  1  0  0  0  0  0  0
  190.1150  176.9660  136.6920 C   0  0  0  0  0  2  0  0  0  0  0  0
  189.0670  176.1510  135.9520 C   0  0  0  0  0  2  0  0  0  0  0  0
  188.3380  175.2420  136.9220 C   0  0  2  0  0  3  0  0  0  0  0  0
  188.6010  173.9120  136.5930 O   0  0  0  0  0  1  0  0  0  0  0  0
  186.8400  175.4950  136.8480 C   0  0  0  0  0  2  0  0  0  0  0  0
  186.5090  177.0570  135.9810 S   0  0  0  0  0  0  0  0  0  0  0  0
  186.0580  177.9070  137.5200 C   0  0  0  0  0  1  0  0  0  0  0  0
  188.3010  178.2720  149.2140 O   0  0  0  0  0  0  0  0  0  0  0  0
  188.3060  177.2580  148.4670 C   0  0  0  0  0  3  0  0  0  0  0  0
  1 15  1  0  0  0  0
  2  7  1  0  0  0  0
  3 13  1  0  0  0  0
  3 16  1  0  0  0  0
  5  2  1  0  0  0  0
  5  9  1  1  0  0  0
  6 14  1  0  0  0  0
  6  4  1  0  0  0  0
  7 14  2  0  0  0  0
  8  3  2  0  0  0  0
  9  6  2  0  0  0  0
 10  1  2  0  0  0  0
 10  8  1  0  0  0  0
 11 16  2  0  0  0  0
 12  2  2  0  0  0  0
 13 12  1  0  0  0  0
 14 32  1  0  0  0  0
 15 11  1  0  0  0  0
 16  5  1  0  0  0  0
 17 24  1  6  0  0  0
 17 21  1  0  0  0  0
 18 22  1  1  0  0  0
 18 20  1  0  0  0  0
 19 18  1  0  0  0  0
 19 17  1  0  0  0  0
 20 21  1  0  0  0  0
 21  1  1  0  0  0  0
 23 22  1  0  0  0  0
 25 24  1  0  0  0  0
 25 26  1  0  0  0  0
 26 27  1  6  0  0  0
 28 26  1  0  0  0  0
 29 28  1  0  0  0  0
 29 30  1  0  0  0  0
 32 31  2  0  0  0  0
M  END
>  <MODEL>
9

>  <REMARK>
 VINA RESULT:      -8.0      4.473      7.582
  Name = 
  8 active torsions:
  status: ('A' for Active; 'I' for Inactive)
    1  A    between atoms: C_1  and  N_25
    2  A    between atoms: C_5  and  C_31
    3  A    between atoms: S_7  and  C_17
    4  A    between atoms: C_9  and  N_27
    5  A    between atoms: C_14  and  C_28
    6  A    between atoms: C_16  and  C_17
    7  A    between atoms: C_16  and  C_20
    8  A    between atoms: C_20  and  C_31
                            x       y       z     vdW  Elec       q    Type
                         _______ _______ _______ _____ _____    ______ ____

>  <TORSDO>
F 8

$$$$
