=
 OpenBabel10222416153D

 44 48  0  0  1  0  0  0  0  0999 V2000
  187.1420  178.8410  141.9890 C   0  0  0  0  0  1  0  0  0  0  0  0
  188.3630  177.9950  142.3230 C   0  0  1  0  0  3  0  0  0  0  0  0
  187.9410  176.8390  143.1880 C   0  0  0  0  0  0  0  0  0  0  0  0
  188.4270  175.7300  143.0210 O   0  0  0  0  0  0  0  0  0  0  0  0
  186.8990  177.0400  144.2400 C   0  0  0  0  0  2  0  0  0  0  0  0
  186.8310  178.1820  146.5270 C   0  0  0  0  0  0  0  0  0  0  0  0
  189.4650  177.2900  147.0070 C   0  0  0  0  0  0  0  0  0  0  0  0
  187.4680  178.4380  147.7510 C   0  0  0  0  0  3  0  0  0  0  0  0
  187.5300  177.4500  145.5340 C   0  0  0  0  0  0  0  0  0  0  0  0
  188.8360  177.0130  145.7850 C   0  0  0  0  0  3  0  0  0  0  0  0
  188.7720  177.9990  147.9880 C   0  0  0  0  0  3  0  0  0  0  0  0
  191.6850  176.5100  146.2430 C   0  0  0  0  0  1  0  0  0  0  0  0
  190.7700  176.8680  147.2720 O   0  0  0  0  0  0  0  0  0  0  0  0
  185.4530  178.6920  146.3370 C   0  0  0  0  0  0  0  0  0  0  0  0
  184.5180  178.2090  147.0320 O   0  0  0  0  0  0  0  0  0  0  0  0
  184.3940  179.7660  144.4000 C   0  0  0  0  0  3  0  0  0  0  0  0
  185.1990  179.7740  145.4230 N   0  0  0  0  0  0  0  0  0  0  0  0
  183.6130  178.5720  143.9540 C   0  0  0  0  0  2  0  0  0  0  0  0
  183.3540  178.6560  142.4620 C   0  0  0  0  0  2  0  0  0  0  0  0
  181.3820  178.4650  141.1430 O   0  0  0  0  0  0  0  0  0  0  0  0
  181.1220  179.5130  143.1650 O   0  0  0  0  0  1  0  0  0  0  0  0
  181.9050  178.8780  142.2100 C   0  0  0  0  0  0  0  0  0  0  0  0
  189.0810  177.5240  141.0500 C   0  0  2  0  0  3  0  0  0  0  0  0
  191.1110  177.6820  142.5140 O   0  0  0  0  0  1  0  0  0  0  0  0
  190.5610  177.4370  141.2600 C   0  0  0  0  0  0  0  0  0  0  0  0
  191.3130  177.1280  140.3000 O   0  0  0  0  0  0  0  0  0  0  0  0
  188.7970  178.4610  139.8800 C   0  0  0  0  0  2  0  0  0  0  0  0
  188.1770  177.6960  138.7270 C   0  0  0  0  0  2  0  0  0  0  0  0
  186.8460  178.4550  136.7700 C   0  0  2  0  0  3  0  0  0  0  0  0
  188.0000  177.6370  136.3990 C   0  0  0  0  0  2  0  0  0  0  0  0
  188.1170  178.5530  137.5440 N   0  0  0  0  0  0  0  0  0  0  0  0
  184.7650  177.0480  136.5000 C   0  0  1  0  0  3  0  0  0  0  0  0
  185.7210  177.6520  137.4480 C   0  0  1  0  0  0  0  0  0  0  0  0
  183.5870  177.5820  138.6050 C   0  0  0  0  0  2  0  0  0  0  0  0
  185.6860  176.2620  137.2350 O   0  0  0  0  0  0  0  0  0  0  0  0
  184.9840  178.1650  138.6680 C   0  0  0  0  0  2  0  0  0  0  0  0
  183.3860  177.0700  137.1770 C   0  0  2  0  0  0  0  0  0  0  0  0
  182.8650  175.6380  137.2380 C   0  0  0  0  0  1  0  0  0  0  0  0
  181.6100  177.1440  135.4520 C   0  0  0  0  0  2  0  0  0  0  0  0
  179.6020  177.7170  136.6370 O   0  0  0  0  0  0  0  0  0  0  0  0
  180.3210  176.6370  136.1070 C   0  0  0  0  0  2  0  0  0  0  0  0
  182.4440  177.9130  136.3980 N   0  0  0  0  0  0  0  0  0  0  0  0
  180.3510  178.1840  137.7270 C   0  0  0  0  0  2  0  0  0  0  0  0
  181.6420  178.8390  137.2250 C   0  0  0  0  0  2  0  0  0  0  0  0
  2  1  1  6  0  0  0
  2  3  1  0  0  0  0
  3  5  1  0  0  0  0
  4  3  2  0  0  0  0
  5  9  1  0  0  0  0
  6  8  1  0  0  0  0
  7 13  1  0  0  0  0
  7 11  1  0  0  0  0
  8 11  2  0  0  0  0
  9 10  1  0  0  0  0
  9  6  2  0  0  0  0
 10  7  2  0  0  0  0
 12 13  1  0  0  0  0
 14  6  1  0  0  0  0
 14 15  2  0  0  0  0
 16 17  2  0  0  0  0
 17 14  1  0  0  0  0
 18 16  1  0  0  0  0
 19 18  1  0  0  0  0
 20 22  2  0  0  0  0
 22 19  1  0  0  0  0
 22 21  1  0  0  0  0
 23 27  1  6  0  0  0
 23 25  1  0  0  0  0
 23  2  1  0  0  0  0
 25 24  1  0  0  0  0
 26 25  2  0  0  0  0
 28 27  1  0  0  0  0
 29 30  1  6  0  0  0
 29 33  1  0  0  0  0
 29 31  1  0  0  0  0
 30 31  1  0  0  0  0
 31 28  1  0  0  0  0
 32 37  1  0  0  0  0
 32 35  1  1  0  0  0
 32 33  1  0  0  0  0
 33 36  1  1  0  0  0
 34 36  1  0  0  0  0
 35 33  1  0  0  0  0
 37 38  1  1  0  0  0
 37 34  1  0  0  0  0
 39 41  1  0  0  0  0
 39 42  1  0  0  0  0
 40 43  1  0  0  0  0
 41 40  1  0  0  0  0
 42 37  1  0  0  0  0
 42 44  1  0  0  0  0
 44 43  1  0  0  0  0
M  END
>  <MODEL>
1

>  <REMARK>
 VINA RESULT:      -8.0      0.000      0.000
  Name = 
  16 active torsions:
  status: ('A' for Active; 'I' for Inactive)
    1  A    between atoms: C_1  and  C_21
    2  A    between atoms: C_4  and  C_37
    3  A    between atoms: C_4  and  C_43
    4  A    between atoms: C_6  and  C_27
    5  A    between atoms: C_7  and  C_9
    6  A    between atoms: C_8  and  O_33
    7  A    between atoms: N_17  and  C_34
    8  A    between atoms: C_19  and  C_43
    9  A    between atoms: C_21  and  N_23
   10  A    between atoms: C_24  and  C_28
   11  A    between atoms: C_24  and  C_43
   12  A    between atoms: C_25  and  C_38
   13  A    between atoms: C_27  and  C_36
   14  A    between atoms: C_28  and  C_38
   15  A    between atoms: N_31  and  C_37
   16  A    between atoms: C_36  and  C_40
                            x       y       z     vdW  Elec       q    Type
                         _______ _______ _______ _____ _____    ______ ____

>  <TORSDO>
F 16

$$$$
=
 OpenBabel10222416153D

 44 48  0  0  1  0  0  0  0  0999 V2000
  188.4530  178.2230  141.1190 C   0  0  0  0  0  1  0  0  0  0  0  0
  189.2070  177.6710  142.3220 C   0  0  1  0  0  3  0  0  0  0  0  0
  188.3070  176.7370  143.0820 C   0  0  0  0  0  0  0  0  0  0  0  0
  188.4950  175.5300  143.0480 O   0  0  0  0  0  0  0  0  0  0  0  0
  187.1570  177.2850  143.8640 C   0  0  0  0  0  2  0  0  0  0  0  0
  186.7010  178.1520  146.2260 C   0  0  0  0  0  0  0  0  0  0  0  0
  189.1720  177.0730  147.0580 C   0  0  0  0  0  0  0  0  0  0  0  0
  187.1070  178.2300  147.5670 C   0  0  0  0  0  3  0  0  0  0  0  0
  187.5500  177.5070  145.2910 C   0  0  0  0  0  0  0  0  0  0  0  0
  188.7730  176.9750  145.7170 C   0  0  0  0  0  3  0  0  0  0  0  0
  188.3310  177.6980  147.9780 C   0  0  0  0  0  3  0  0  0  0  0  0
  191.6070  176.7320  146.7790 C   0  0  0  0  0  1  0  0  0  0  0  0
  190.3920  176.5550  147.4990 O   0  0  0  0  0  0  0  0  0  0  0  0
  185.3980  178.7540  145.8560 C   0  0  0  0  0  0  0  0  0  0  0  0
  184.3570  178.3860  146.4650 O   0  0  0  0  0  0  0  0  0  0  0  0
  184.6510  179.7820  143.7550 C   0  0  0  0  0  3  0  0  0  0  0  0
  185.3350  179.7940  144.8640 N   0  0  0  0  0  0  0  0  0  0  0  0
  183.8360  178.6220  143.2830 C   0  0  0  0  0  2  0  0  0  0  0  0
  184.4070  178.0900  141.9820 C   0  0  0  0  0  2  0  0  0  0  0  0
  182.7410  179.0760  140.5990 O   0  0  0  0  0  1  0  0  0  0  0  0
  184.9060  179.6210  140.0800 O   0  0  0  0  0  0  0  0  0  0  0  0
  183.9670  178.9440  140.8470 C   0  0  0  0  0  0  0  0  0  0  0  0
  190.5130  176.9850  141.8950 C   0  0  2  0  0  3  0  0  0  0  0  0
  191.8270  175.6400  143.5540 O   0  0  0  0  0  1  0  0  0  0  0  0
  191.4730  176.8820  143.0400 C   0  0  0  0  0  0  0  0  0  0  0  0
  191.9740  177.9260  143.5330 O   0  0  0  0  0  0  0  0  0  0  0  0
  191.1820  177.7410  140.7500 C   0  0  0  0  0  2  0  0  0  0  0  0
  191.9130  176.7760  139.8350 C   0  0  0  0  0  2  0  0  0  0  0  0
  191.4760  175.4700  137.7660 C   0  0  2  0  0  3  0  0  0  0  0  0
  190.7880  176.7610  137.7890 C   0  0  0  0  0  2  0  0  0  0  0  0
  190.9440  176.0160  139.0480 N   0  0  0  0  0  0  0  0  0  0  0  0
  193.4170  175.7230  136.1690 C   0  0  1  0  0  3  0  0  0  0  0  0
  192.9990  175.5950  137.5790 C   0  0  1  0  0  0  0  0  0  0  0  0
  195.1930  174.5650  137.4380 C   0  0  0  0  0  2  0  0  0  0  0  0
  193.5030  176.8080  137.0760 O   0  0  0  0  0  0  0  0  0  0  0  0
  193.9800  174.7190  138.3310 C   0  0  0  0  0  2  0  0  0  0  0  0
  194.7680  175.0030  136.0350 C   0  0  2  0  0  0  0  0  0  0  0  0
  195.7880  176.0040  135.5030 C   0  0  0  0  0  1  0  0  0  0  0  0
  195.4380  172.6780  135.5000 C   0  0  0  0  0  2  0  0  0  0  0  0
  193.4520  171.3630  135.8040 O   0  0  0  0  0  0  0  0  0  0  0  0
  194.6440  171.7530  136.4290 C   0  0  0  0  0  2  0  0  0  0  0  0
  194.6490  173.8600  135.0940 N   0  0  0  0  0  0  0  0  0  0  0  0
  192.6520  172.5130  135.7420 C   0  0  0  0  0  2  0  0  0  0  0  0
  193.2550  173.5100  134.7470 C   0  0  0  0  0  2  0  0  0  0  0  0
  2  1  1  6  0  0  0
  2  3  1  0  0  0  0
  3  5  1  0  0  0  0
  4  3  2  0  0  0  0
  5  9  1  0  0  0  0
  6  8  1  0  0  0  0
  7 13  1  0  0  0  0
  7 11  1  0  0  0  0
  8 11  2  0  0  0  0
  9 10  1  0  0  0  0
  9  6  2  0  0  0  0
 10  7  2  0  0  0  0
 12 13  1  0  0  0  0
 14  6  1  0  0  0  0
 14 15  2  0  0  0  0
 16 17  2  0  0  0  0
 17 14  1  0  0  0  0
 18 16  1  0  0  0  0
 19 18  1  0  0  0  0
 20 22  1  0  0  0  0
 21 22  2  0  0  0  0
 22 19  1  0  0  0  0
 23 27  1  6  0  0  0
 23  2  1  0  0  0  0
 23 25  1  0  0  0  0
 25 26  2  0  0  0  0
 25 24  1  0  0  0  0
 28 27  1  0  0  0  0
 29 30  1  6  0  0  0
 29 31  1  0  0  0  0
 30 31  1  0  0  0  0
 31 28  1  0  0  0  0
 32 35  1  1  0  0  0
 32 33  1  0  0  0  0
 33 29  1  0  0  0  0
 33 36  1  1  0  0  0
 34 36  1  0  0  0  0
 35 33  1  0  0  0  0
 37 38  1  6  0  0  0
 37 32  1  0  0  0  0
 37 34  1  0  0  0  0
 39 41  1  0  0  0  0
 40 41  1  0  0  0  0
 42 39  1  0  0  0  0
 42 37  1  0  0  0  0
 43 40  1  0  0  0  0
 44 42  1  0  0  0  0
 44 43  1  0  0  0  0
M  END
>  <MODEL>
2

>  <REMARK>
 VINA RESULT:      -7.9      4.046      6.881
  Name = 
  16 active torsions:
  status: ('A' for Active; 'I' for Inactive)
    1  A    between atoms: C_1  and  C_21
    2  A    between atoms: C_4  and  C_37
    3  A    between atoms: C_4  and  C_43
    4  A    between atoms: C_6  and  C_27
    5  A    between atoms: C_7  and  C_9
    6  A    between atoms: C_8  and  O_33
    7  A    between atoms: N_17  and  C_34
    8  A    between atoms: C_19  and  C_43
    9  A    between atoms: C_21  and  N_23
   10  A    between atoms: C_24  and  C_28
   11  A    between atoms: C_24  and  C_43
   12  A    between atoms: C_25  and  C_38
   13  A    between atoms: C_27  and  C_36
   14  A    between atoms: C_28  and  C_38
   15  A    between atoms: N_31  and  C_37
   16  A    between atoms: C_36  and  C_40
                            x       y       z     vdW  Elec       q    Type
                         _______ _______ _______ _____ _____    ______ ____

>  <TORSDO>
F 16

$$$$
=
 OpenBabel10222416153D

 44 48  0  0  1  0  0  0  0  0999 V2000
  188.0210  178.2720  141.2670 C   0  0  0  0  0  1  0  0  0  0  0  0
  188.9170  177.6470  142.3270 C   0  0  1  0  0  3  0  0  0  0  0  0
  188.0920  176.7460  143.2030 C   0  0  0  0  0  0  0  0  0  0  0  0
  188.2640  175.5360  143.1840 O   0  0  0  0  0  0  0  0  0  0  0  0
  187.0340  177.3290  144.0820 C   0  0  0  0  0  2  0  0  0  0  0  0
  186.7880  178.1500  146.4920 C   0  0  0  0  0  0  0  0  0  0  0  0
  189.4050  177.2400  147.0270 C   0  0  0  0  0  0  0  0  0  0  0  0
  187.3370  178.2480  147.7790 C   0  0  0  0  0  3  0  0  0  0  0  0
  187.5680  177.5700  145.4590 C   0  0  0  0  0  0  0  0  0  0  0  0
  188.8650  177.1220  145.7390 C   0  0  0  0  0  3  0  0  0  0  0  0
  188.6320  177.8000  148.0440 C   0  0  0  0  0  3  0  0  0  0  0  0
  191.6680  176.5380  146.3150 C   0  0  0  0  0  1  0  0  0  0  0  0
  190.7000  176.8060  147.3220 O   0  0  0  0  0  0  0  0  0  0  0  0
  185.4140  178.6620  146.2780 C   0  0  0  0  0  0  0  0  0  0  0  0
  184.4620  178.1590  146.9350 O   0  0  0  0  0  0  0  0  0  0  0  0
  184.4400  179.7670  144.3140 C   0  0  0  0  0  3  0  0  0  0  0  0
  185.1810  179.7650  145.3840 N   0  0  0  0  0  0  0  0  0  0  0  0
  183.7300  178.5640  143.7820 C   0  0  0  0  0  2  0  0  0  0  0  0
  182.9590  178.9360  142.5290 C   0  0  0  0  0  2  0  0  0  0  0  0
  184.6870  179.3660  140.9510 O   0  0  0  0  0  1  0  0  0  0  0  0
  183.5070  177.4290  140.6210 O   0  0  0  0  0  0  0  0  0  0  0  0
  183.7600  178.6010  141.3220 C   0  0  0  0  0  0  0  0  0  0  0  0
  190.0980  176.9000  141.6900 C   0  0  2  0  0  3  0  0  0  0  0  0
  191.9450  178.1940  142.7880 O   0  0  0  0  0  0  0  0  0  0  0  0
  191.3190  176.9750  142.5540 C   0  0  0  0  0  0  0  0  0  0  0  0
  191.7760  175.9290  143.0840 O   0  0  0  0  0  1  0  0  0  0  0  0
  190.4280  177.4660  140.3120 C   0  0  0  0  0  2  0  0  0  0  0  0
  191.1720  176.4380  139.4810 C   0  0  0  0  0  2  0  0  0  0  0  0
  192.6770  176.5690  137.5080 C   0  0  2  0  0  3  0  0  0  0  0  0
  193.3080  175.9530  138.6740 C   0  0  0  0  0  2  0  0  0  0  0  0
  192.3540  177.0530  138.8810 N   0  0  0  0  0  0  0  0  0  0  0  0
  190.4620  176.4290  136.3000 C   0  0  1  0  0  3  0  0  0  0  0  0
  191.6050  175.6780  136.8540 C   0  0  1  0  0  0  0  0  0  0  0  0
  189.6800  174.2100  137.0530 C   0  0  0  0  0  2  0  0  0  0  0  0
  191.4120  175.7920  135.4650 O   0  0  0  0  0  0  0  0  0  0  0  0
  191.1160  174.3960  137.4990 C   0  0  0  0  0  2  0  0  0  0  0  0
  189.2140  175.5550  136.4920 C   0  0  2  0  0  0  0  0  0  0  0  0
  188.5820  175.3220  135.1230 C   0  0  0  0  0  1  0  0  0  0  0  0
  188.3140  177.7100  137.3170 C   0  0  0  0  0  2  0  0  0  0  0  0
  186.0950  177.8570  136.4110 O   0  0  0  0  0  0  0  0  0  0  0  0
  187.4170  178.2790  136.2130 C   0  0  0  0  0  2  0  0  0  0  0  0
  188.2410  176.2360  137.3830 N   0  0  0  0  0  0  0  0  0  0  0  0
  186.0860  176.4790  136.1510 C   0  0  0  0  0  2  0  0  0  0  0  0
  186.8550  175.7390  137.2500 C   0  0  0  0  0  2  0  0  0  0  0  0
  2  1  1  6  0  0  0
  2  3  1  0  0  0  0
  3  5  1  0  0  0  0
  4  3  2  0  0  0  0
  5  9  1  0  0  0  0
  6  8  1  0  0  0  0
  7 13  1  0  0  0  0
  7 11  1  0  0  0  0
  8 11  2  0  0  0  0
  9 10  1  0  0  0  0
  9  6  2  0  0  0  0
 10  7  2  0  0  0  0
 12 13  1  0  0  0  0
 14  6  1  0  0  0  0
 14 15  2  0  0  0  0
 16 17  2  0  0  0  0
 17 14  1  0  0  0  0
 18 16  1  0  0  0  0
 19 18  1  0  0  0  0
 20 22  1  0  0  0  0
 21 22  2  0  0  0  0
 22 19  1  0  0  0  0
 23 27  1  6  0  0  0
 23  2  1  0  0  0  0
 23 25  1  0  0  0  0
 25 24  2  0  0  0  0
 25 26  1  0  0  0  0
 28 27  1  0  0  0  0
 29 30  1  1  0  0  0
 29 31  1  0  0  0  0
 30 31  1  0  0  0  0
 31 28  1  0  0  0  0
 32 35  1  6  0  0  0
 32 37  1  0  0  0  0
 32 33  1  0  0  0  0
 33 36  1  1  0  0  0
 33 29  1  0  0  0  0
 34 36  1  0  0  0  0
 35 33  1  0  0  0  0
 37 38  1  6  0  0  0
 37 34  1  0  0  0  0
 37 42  1  0  0  0  0
 39 42  1  0  0  0  0
 41 40  1  0  0  0  0
 41 39  1  0  0  0  0
 43 40  1  0  0  0  0
 43 44  1  0  0  0  0
 44 42  1  0  0  0  0
M  END
>  <MODEL>
3

>  <REMARK>
 VINA RESULT:      -7.6      2.453      3.999
  Name = 
  16 active torsions:
  status: ('A' for Active; 'I' for Inactive)
    1  A    between atoms: C_1  and  C_21
    2  A    between atoms: C_4  and  C_37
    3  A    between atoms: C_4  and  C_43
    4  A    between atoms: C_6  and  C_27
    5  A    between atoms: C_7  and  C_9
    6  A    between atoms: C_8  and  O_33
    7  A    between atoms: N_17  and  C_34
    8  A    between atoms: C_19  and  C_43
    9  A    between atoms: C_21  and  N_23
   10  A    between atoms: C_24  and  C_28
   11  A    between atoms: C_24  and  C_43
   12  A    between atoms: C_25  and  C_38
   13  A    between atoms: C_27  and  C_36
   14  A    between atoms: C_28  and  C_38
   15  A    between atoms: N_31  and  C_37
   16  A    between atoms: C_36  and  C_40
                            x       y       z     vdW  Elec       q    Type
                         _______ _______ _______ _____ _____    ______ ____

>  <TORSDO>
F 16

$$$$
=
 OpenBabel10222416153D

 44 48  0  0  1  0  0  0  0  0999 V2000
  188.0490  178.9860  141.4970 C   0  0  0  0  0  1  0  0  0  0  0  0
  189.0590  177.8630  141.6940 C   0  0  1  0  0  3  0  0  0  0  0  0
  188.5130  176.8770  142.6890 C   0  0  0  0  0  0  0  0  0  0  0  0
  189.1850  175.9220  143.0490 O   0  0  0  0  0  0  0  0  0  0  0  0
  187.1260  177.0490  143.2210 C   0  0  0  0  0  2  0  0  0  0  0  0
  186.1210  178.2910  145.2180 C   0  0  0  0  0  0  0  0  0  0  0  0
  188.3020  177.4410  146.7950 C   0  0  0  0  0  0  0  0  0  0  0  0
  186.1910  178.6060  146.5830 C   0  0  0  0  0  3  0  0  0  0  0  0
  187.1630  177.5210  144.6410 C   0  0  0  0  0  0  0  0  0  0  0  0
  188.2390  177.1050  145.4350 C   0  0  0  0  0  3  0  0  0  0  0  0
  187.2710  178.1880  147.3630 C   0  0  0  0  0  3  0  0  0  0  0  0
  190.6500  176.7120  147.0700 C   0  0  0  0  0  1  0  0  0  0  0  0
  189.3710  177.0410  147.6000 O   0  0  0  0  0  0  0  0  0  0  0  0
  184.9560  178.7830  144.4470 C   0  0  0  0  0  0  0  0  0  0  0  0
  185.1230  179.1560  143.2530 O   0  0  0  0  0  0  0  0  0  0  0  0
  182.5020  178.8350  144.4020 C   0  0  0  0  0  3  0  0  0  0  0  0
  183.6400  178.7680  145.0300 N   0  0  0  0  0  0  0  0  0  0  0  0
  182.3660  179.0030  142.9230 C   0  0  0  0  0  2  0  0  0  0  0  0
  180.9850  178.5580  142.4800 C   0  0  0  0  0  2  0  0  0  0  0  0
  179.9770  180.6670  142.9260 O   0  0  0  0  0  0  0  0  0  0  0  0
  178.9330  178.8540  143.8630 O   0  0  0  0  0  1  0  0  0  0  0  0
  179.9490  179.4220  143.1060 C   0  0  0  0  0  0  0  0  0  0  0  0
  189.4130  177.1910  140.3590 C   0  0  2  0  0  3  0  0  0  0  0  0
  191.4270  176.4500  139.0610 O   0  0  0  0  0  0  0  0  0  0  0  0
  190.8940  177.0470  140.1990 C   0  0  0  0  0  0  0  0  0  0  0  0
  191.6660  177.4820  141.0930 O   0  0  0  0  0  1  0  0  0  0  0  0
  188.8580  177.9850  139.1800 C   0  0  0  0  0  2  0  0  0  0  0  0
  187.9740  177.1030  138.3170 C   0  0  0  0  0  2  0  0  0  0  0  0
  186.3650  177.9360  136.6160 C   0  0  2  0  0  3  0  0  0  0  0  0
  187.0750  176.7280  136.1950 C   0  0  0  0  0  2  0  0  0  0  0  0
  187.7890  177.7250  137.0080 N   0  0  0  0  0  0  0  0  0  0  0  0
  183.9780  177.3730  137.2230 C   0  0  1  0  0  3  0  0  0  0  0  0
  185.3310  177.6790  137.7270 C   0  0  1  0  0  0  0  0  0  0  0  0
  183.7890  178.5220  139.4020 C   0  0  0  0  0  2  0  0  0  0  0  0
  184.7890  176.3860  137.8350 O   0  0  0  0  0  0  0  0  0  0  0  0
  185.2370  178.5540  138.9610 C   0  0  0  0  0  2  0  0  0  0  0  0
  182.9800  177.9730  138.2250 C   0  0  2  0  0  0  0  0  0  0  0  0
  182.0820  176.8480  138.7300 C   0  0  0  0  0  1  0  0  0  0  0  0
  180.8670  178.5070  137.0480 C   0  0  0  0  0  2  0  0  0  0  0  0
  179.6220  179.8790  138.5760 O   0  0  0  0  0  0  0  0  0  0  0  0
  179.7610  178.5650  138.1060 C   0  0  0  0  0  2  0  0  0  0  0  0
  182.1540  179.0160  137.5660 N   0  0  0  0  0  0  0  0  0  0  0  0
  180.7830  180.1510  139.3130 C   0  0  0  0  0  2  0  0  0  0  0  0
  181.9860  180.2450  138.3690 C   0  0  0  0  0  2  0  0  0  0  0  0
  2  1  1  6  0  0  0
  2  3  1  0  0  0  0
  3  4  2  0  0  0  0
  3  5  1  0  0  0  0
  5  9  1  0  0  0  0
  6  8  1  0  0  0  0
  7 11  1  0  0  0  0
  7 13  1  0  0  0  0
  8 11  2  0  0  0  0
  9  6  2  0  0  0  0
  9 10  1  0  0  0  0
 10  7  2  0  0  0  0
 12 13  1  0  0  0  0
 14 17  1  0  0  0  0
 14  6  1  0  0  0  0
 15 14  2  0  0  0  0
 16 17  2  0  0  0  0
 18 16  1  0  0  0  0
 19 18  1  0  0  0  0
 19 22  1  0  0  0  0
 20 22  2  0  0  0  0
 22 21  1  0  0  0  0
 23 27  1  6  0  0  0
 23  2  1  0  0  0  0
 24 25  2  0  0  0  0
 25 23  1  0  0  0  0
 25 26  1  0  0  0  0
 28 27  1  0  0  0  0
 29 30  1  6  0  0  0
 29 31  1  0  0  0  0
 29 33  1  0  0  0  0
 30 31  1  0  0  0  0
 31 28  1  0  0  0  0
 32 33  1  0  0  0  0
 32 35  1  1  0  0  0
 32 37  1  0  0  0  0
 33 35  1  0  0  0  0
 33 36  1  1  0  0  0
 36 34  1  0  0  0  0
 37 38  1  1  0  0  0
 37 34  1  0  0  0  0
 39 42  1  0  0  0  0
 39 41  1  0  0  0  0
 40 43  1  0  0  0  0
 41 40  1  0  0  0  0
 42 37  1  0  0  0  0
 42 44  1  0  0  0  0
 44 43  1  0  0  0  0
M  END
>  <MODEL>
4

>  <REMARK>
 VINA RESULT:      -7.2      1.433      1.793
  Name = 
  16 active torsions:
  status: ('A' for Active; 'I' for Inactive)
    1  A    between atoms: C_1  and  C_21
    2  A    between atoms: C_4  and  C_37
    3  A    between atoms: C_4  and  C_43
    4  A    between atoms: C_6  and  C_27
    5  A    between atoms: C_7  and  C_9
    6  A    between atoms: C_8  and  O_33
    7  A    between atoms: N_17  and  C_34
    8  A    between atoms: C_19  and  C_43
    9  A    between atoms: C_21  and  N_23
   10  A    between atoms: C_24  and  C_28
   11  A    between atoms: C_24  and  C_43
   12  A    between atoms: C_25  and  C_38
   13  A    between atoms: C_27  and  C_36
   14  A    between atoms: C_28  and  C_38
   15  A    between atoms: N_31  and  C_37
   16  A    between atoms: C_36  and  C_40
                            x       y       z     vdW  Elec       q    Type
                         _______ _______ _______ _____ _____    ______ ____

>  <TORSDO>
F 16

$$$$
=
 OpenBabel10222416153D

 44 48  0  0  1  0  0  0  0  0999 V2000
  184.9590  178.8610  143.0350 C   0  0  0  0  0  1  0  0  0  0  0  0
  185.7620  178.9890  141.7480 C   0  0  1  0  0  3  0  0  0  0  0  0
  187.1560  178.4770  141.9830 C   0  0  0  0  0  0  0  0  0  0  0  0
  188.1260  179.1640  141.6970 O   0  0  0  0  0  0  0  0  0  0  0  0
  187.3600  177.1070  142.5450 C   0  0  0  0  0  2  0  0  0  0  0  0
  189.3520  176.8850  144.1330 C   0  0  0  0  0  0  0  0  0  0  0  0
  187.7270  177.8250  146.2410 C   0  0  0  0  0  0  0  0  0  0  0  0
  189.8790  177.0790  145.4190 C   0  0  0  0  0  3  0  0  0  0  0  0
  187.9850  177.1830  143.9030 C   0  0  0  0  0  0  0  0  0  0  0  0
  187.1910  177.6500  144.9570 C   0  0  0  0  0  3  0  0  0  0  0  0
  189.0750  177.5420  146.4620 C   0  0  0  0  0  3  0  0  0  0  0  0
  185.7380  179.0070  147.1160 C   0  0  0  0  0  1  0  0  0  0  0  0
  186.9480  178.2820  147.3060 O   0  0  0  0  0  0  0  0  0  0  0  0
  190.2580  176.3740  143.0780 C   0  0  0  0  0  0  0  0  0  0  0  0
  190.2370  175.1450  142.7920 O   0  0  0  0  0  0  0  0  0  0  0  0
  191.0710  177.5130  141.0610 C   0  0  0  0  0  3  0  0  0  0  0  0
  191.0990  177.2800  142.3410 N   0  0  0  0  0  0  0  0  0  0  0  0
  190.1680  176.8110  140.0980 C   0  0  0  0  0  2  0  0  0  0  0  0
  190.5310  177.2000  138.6770 C   0  0  0  0  0  2  0  0  0  0  0  0
  188.7160  177.3440  137.1460 O   0  0  0  0  0  0  0  0  0  0  0  0
  189.0590  179.1980  138.4500 O   0  0  0  0  0  1  0  0  0  0  0  0
  189.3940  177.9140  138.0400 C   0  0  0  0  0  0  0  0  0  0  0  0
  185.0740  178.2570  140.5860 C   0  0  2  0  0  3  0  0  0  0  0  0
  185.8380  178.6650  138.2320 O   0  0  0  0  0  0  0  0  0  0  0  0
  185.0990  179.0800  139.3350 C   0  0  0  0  0  0  0  0  0  0  0  0
  184.4360  180.1480  139.2740 O   0  0  0  0  0  1  0  0  0  0  0  0
  183.6270  177.9170  140.9300 C   0  0  0  0  0  2  0  0  0  0  0  0
  183.0190  177.0370  139.8540 C   0  0  0  0  0  2  0  0  0  0  0  0
  180.7530  176.6680  138.9040 C   0  0  2  0  0  3  0  0  0  0  0  0
  180.9190  177.9940  139.4990 C   0  0  0  0  0  2  0  0  0  0  0  0
  181.5960  176.8450  140.1220 N   0  0  0  0  0  0  0  0  0  0  0  0
  182.0430  175.1230  137.3780 C   0  0  1  0  0  3  0  0  0  0  0  0
  181.5290  176.4900  137.5860 C   0  0  1  0  0  0  0  0  0  0  0  0
  183.5720  176.7350  136.2970 C   0  0  0  0  0  2  0  0  0  0  0  0
  180.9760  175.6450  136.6070 O   0  0  0  0  0  0  0  0  0  0  0  0
  182.5470  177.5040  137.1040 C   0  0  0  0  0  2  0  0  0  0  0  0
  183.3820  175.2550  136.6370 C   0  0  2  0  0  0  0  0  0  0  0  0
  183.2850  174.4620  135.3370 C   0  0  0  0  0  1  0  0  0  0  0  0
  184.5170  173.2400  137.5250 C   0  0  0  0  0  2  0  0  0  0  0  0
  186.6400  173.1660  136.4060 O   0  0  0  0  0  0  0  0  0  0  0  0
  185.3400  172.6410  136.3800 C   0  0  0  0  0  2  0  0  0  0  0  0
  184.4870  174.7170  137.4700 N   0  0  0  0  0  0  0  0  0  0  0  0
  186.5210  174.5140  136.0410 C   0  0  0  0  0  2  0  0  0  0  0  0
  185.8120  175.2910  137.1550 C   0  0  0  0  0  2  0  0  0  0  0  0
  2  3  1  0  0  0  0
  2  1  1  1  0  0  0
  3  5  1  0  0  0  0
  4  3  2  0  0  0  0
  5  9  1  0  0  0  0
  6  8  1  0  0  0  0
  7 11  1  0  0  0  0
  7 13  1  0  0  0  0
  8 11  2  0  0  0  0
  9  6  2  0  0  0  0
  9 10  1  0  0  0  0
 10  7  2  0  0  0  0
 12 13  1  0  0  0  0
 14  6  1  0  0  0  0
 15 14  2  0  0  0  0
 16 17  2  0  0  0  0
 17 14  1  0  0  0  0
 18 16  1  0  0  0  0
 19 18  1  0  0  0  0
 20 22  2  0  0  0  0
 22 21  1  0  0  0  0
 22 19  1  0  0  0  0
 23 27  1  1  0  0  0
 23  2  1  0  0  0  0
 24 25  2  0  0  0  0
 25 23  1  0  0  0  0
 26 25  1  0  0  0  0
 28 31  1  0  0  0  0
 28 27  1  0  0  0  0
 29 30  1  6  0  0  0
 29 31  1  0  0  0  0
 30 31  1  0  0  0  0
 32 35  1  6  0  0  0
 32 33  1  0  0  0  0
 33 36  1  6  0  0  0
 33 29  1  0  0  0  0
 34 37  1  0  0  0  0
 34 36  1  0  0  0  0
 35 33  1  0  0  0  0
 37 38  1  6  0  0  0
 37 32  1  0  0  0  0
 37 42  1  0  0  0  0
 41 40  1  0  0  0  0
 41 39  1  0  0  0  0
 42 39  1  0  0  0  0
 43 40  1  0  0  0  0
 43 44  1  0  0  0  0
 44 42  1  0  0  0  0
M  END
>  <MODEL>
5

>  <REMARK>
 VINA RESULT:      -7.2      2.486      5.625
  Name = 
  16 active torsions:
  status: ('A' for Active; 'I' for Inactive)
    1  A    between atoms: C_1  and  C_21
    2  A    between atoms: C_4  and  C_37
    3  A    between atoms: C_4  and  C_43
    4  A    between atoms: C_6  and  C_27
    5  A    between atoms: C_7  and  C_9
    6  A    between atoms: C_8  and  O_33
    7  A    between atoms: N_17  and  C_34
    8  A    between atoms: C_19  and  C_43
    9  A    between atoms: C_21  and  N_23
   10  A    between atoms: C_24  and  C_28
   11  A    between atoms: C_24  and  C_43
   12  A    between atoms: C_25  and  C_38
   13  A    between atoms: C_27  and  C_36
   14  A    between atoms: C_28  and  C_38
   15  A    between atoms: N_31  and  C_37
   16  A    between atoms: C_36  and  C_40
                            x       y       z     vdW  Elec       q    Type
                         _______ _______ _______ _____ _____    ______ ____

>  <TORSDO>
F 16

$$$$
=
 OpenBabel10222416153D

 44 48  0  0  1  0  0  0  0  0999 V2000
  189.6870  178.9890  142.7870 C   0  0  0  0  0  1  0  0  0  0  0  0
  189.7530  177.4910  142.5260 C   0  0  1  0  0  3  0  0  0  0  0  0
  188.6730  176.8030  143.3150 C   0  0  0  0  0  0  0  0  0  0  0  0
  188.6020  175.5840  143.3370 O   0  0  0  0  0  0  0  0  0  0  0  0
  187.6620  177.6180  144.0560 C   0  0  0  0  0  2  0  0  0  0  0  0
  187.0310  177.9450  146.5120 C   0  0  0  0  0  0  0  0  0  0  0  0
  189.6890  177.3290  147.2360 C   0  0  0  0  0  0  0  0  0  0  0  0
  187.4160  177.8830  147.8600 C   0  0  0  0  0  3  0  0  0  0  0  0
  188.0010  177.6780  145.5130 C   0  0  0  0  0  0  0  0  0  0  0  0
  189.3150  177.3730  145.8860 C   0  0  0  0  0  3  0  0  0  0  0  0
  188.7310  177.5810  148.2190 C   0  0  0  0  0  3  0  0  0  0  0  0
  191.8330  176.1430  146.8980 C   0  0  0  0  0  1  0  0  0  0  0  0
  190.9970  177.0350  147.6260 O   0  0  0  0  0  0  0  0  0  0  0  0
  185.6240  178.2890  146.2040 C   0  0  0  0  0  0  0  0  0  0  0  0
  184.7170  177.4480  146.4530 O   0  0  0  0  0  0  0  0  0  0  0  0
  184.8200  179.8770  144.5120 C   0  0  0  0  0  3  0  0  0  0  0  0
  185.2900  179.5920  145.6930 N   0  0  0  0  0  0  0  0  0  0  0  0
  184.5970  178.8690  143.4310 C   0  0  0  0  0  2  0  0  0  0  0  0
  185.3880  179.2570  142.1960 C   0  0  0  0  0  2  0  0  0  0  0  0
  184.9590  179.4080  139.8600 O   0  0  0  0  0  0  0  0  0  0  0  0
  183.5120  178.0850  141.0490 O   0  0  0  0  0  1  0  0  0  0  0  0
  184.6080  178.9340  140.9720 C   0  0  0  0  0  0  0  0  0  0  0  0
  189.6470  177.1810  141.0250 C   0  0  2  0  0  3  0  0  0  0  0  0
  192.1430  177.4150  141.1120 O   0  0  0  0  0  1  0  0  0  0  0  0
  191.0020  177.0700  140.3960 C   0  0  0  0  0  0  0  0  0  0  0  0
  191.1120  176.6470  139.2160 O   0  0  0  0  0  0  0  0  0  0  0  0
  188.8470  178.2570  140.2960 C   0  0  0  0  0  2  0  0  0  0  0  0
  188.1450  177.6670  139.0880 C   0  0  0  0  0  2  0  0  0  0  0  0
  187.6590  178.3020  136.7350 C   0  0  2  0  0  3  0  0  0  0  0  0
  188.9250  178.8430  137.2280 C   0  0  0  0  0  2  0  0  0  0  0  0
  187.7890  178.7350  138.1570 N   0  0  0  0  0  0  0  0  0  0  0  0
  186.9560  176.3420  135.3040 C   0  0  1  0  0  3  0  0  0  0  0  0
  187.6960  176.7810  136.5040 C   0  0  1  0  0  0  0  0  0  0  0  0
  186.8660  174.5550  137.0080 C   0  0  0  0  0  2  0  0  0  0  0  0
  188.3710  176.3040  135.3650 O   0  0  0  0  0  0  0  0  0  0  0  0
  187.4890  175.7870  137.6290 C   0  0  0  0  0  2  0  0  0  0  0  0
  186.3480  174.9690  135.6290 C   0  0  2  0  0  0  0  0  0  0  0  0
  186.8540  173.9700  134.5940 C   0  0  0  0  0  1  0  0  0  0  0  0
  184.2170  174.8020  136.8820 C   0  0  0  0  0  2  0  0  0  0  0  0
  183.3400  177.0360  136.9370 O   0  0  0  0  0  0  0  0  0  0  0  0
  184.0610  176.0970  137.6860 C   0  0  0  0  0  2  0  0  0  0  0  0
  184.8650  175.0380  135.5750 N   0  0  0  0  0  0  0  0  0  0  0  0
  184.1790  177.4170  135.8800 C   0  0  0  0  0  2  0  0  0  0  0  0
  184.3450  176.2480  134.9040 C   0  0  0  0  0  2  0  0  0  0  0  0
  2  1  1  6  0  0  0
  2  3  1  0  0  0  0
  3  4  2  0  0  0  0
  3  5  1  0  0  0  0
  5  9  1  0  0  0  0
  6  8  1  0  0  0  0
  7 13  1  0  0  0  0
  7 11  1  0  0  0  0
  8 11  2  0  0  0  0
  9 10  1  0  0  0  0
  9  6  2  0  0  0  0
 10  7  2  0  0  0  0
 12 13  1  0  0  0  0
 14 15  2  0  0  0  0
 14  6  1  0  0  0  0
 16 17  2  0  0  0  0
 17 14  1  0  0  0  0
 18 16  1  0  0  0  0
 19 18  1  0  0  0  0
 20 22  2  0  0  0  0
 22 21  1  0  0  0  0
 22 19  1  0  0  0  0
 23 27  1  6  0  0  0
 23  2  1  0  0  0  0
 25 23  1  0  0  0  0
 25 24  1  0  0  0  0
 26 25  2  0  0  0  0
 28 27  1  0  0  0  0
 29 30  1  6  0  0  0
 29 31  1  0  0  0  0
 30 31  1  0  0  0  0
 31 28  1  0  0  0  0
 32 35  1  6  0  0  0
 32 37  1  0  0  0  0
 32 33  1  0  0  0  0
 33 29  1  0  0  0  0
 33 36  1  1  0  0  0
 34 36  1  0  0  0  0
 35 33  1  0  0  0  0
 37 38  1  6  0  0  0
 37 34  1  0  0  0  0
 39 41  1  0  0  0  0
 40 41  1  0  0  0  0
 42 37  1  0  0  0  0
 42 39  1  0  0  0  0
 43 40  1  0  0  0  0
 44 42  1  0  0  0  0
 44 43  1  0  0  0  0
M  END
>  <MODEL>
6

>  <REMARK>
 VINA RESULT:      -6.6      1.866      2.458
  Name = 
  16 active torsions:
  status: ('A' for Active; 'I' for Inactive)
    1  A    between atoms: C_1  and  C_21
    2  A    between atoms: C_4  and  C_37
    3  A    between atoms: C_4  and  C_43
    4  A    between atoms: C_6  and  C_27
    5  A    between atoms: C_7  and  C_9
    6  A    between atoms: C_8  and  O_33
    7  A    between atoms: N_17  and  C_34
    8  A    between atoms: C_19  and  C_43
    9  A    between atoms: C_21  and  N_23
   10  A    between atoms: C_24  and  C_28
   11  A    between atoms: C_24  and  C_43
   12  A    between atoms: C_25  and  C_38
   13  A    between atoms: C_27  and  C_36
   14  A    between atoms: C_28  and  C_38
   15  A    between atoms: N_31  and  C_37
   16  A    between atoms: C_36  and  C_40
                            x       y       z     vdW  Elec       q    Type
                         _______ _______ _______ _____ _____    ______ ____

>  <TORSDO>
F 16

$$$$
=
 OpenBabel10222416153D

 44 48  0  0  1  0  0  0  0  0999 V2000
  185.7630  178.8300  142.3200 C   0  0  0  0  0  1  0  0  0  0  0  0
  185.2960  178.0940  143.5690 C   0  0  1  0  0  3  0  0  0  0  0  0
  186.4870  177.4910  144.2610 C   0  0  0  0  0  0  0  0  0  0  0  0
  186.3370  176.7230  145.1990 O   0  0  0  0  0  0  0  0  0  0  0  0
  187.8680  177.8570  143.8170 C   0  0  0  0  0  2  0  0  0  0  0  0
  190.1040  176.8680  144.5650 C   0  0  0  0  0  0  0  0  0  0  0  0
  189.5190  177.6460  147.2140 C   0  0  0  0  0  0  0  0  0  0  0  0
  191.0270  176.6560  145.6000 C   0  0  0  0  0  3  0  0  0  0  0  0
  188.8700  177.4960  144.8690 C   0  0  0  0  0  0  0  0  0  0  0  0
  188.5930  177.8780  146.1870 C   0  0  0  0  0  3  0  0  0  0  0  0
  190.7370  177.0390  146.9110 C   0  0  0  0  0  3  0  0  0  0  0  0
  187.9570  177.9320  149.1110 C   0  0  0  0  0  1  0  0  0  0  0  0
  189.2560  178.0140  148.5350 O   0  0  0  0  0  0  0  0  0  0  0  0
  190.4700  176.4200  143.2010 C   0  0  0  0  0  0  0  0  0  0  0  0
  190.1630  175.2520  142.8350 O   0  0  0  0  0  0  0  0  0  0  0  0
  190.6110  177.7960  141.1720 C   0  0  0  0  0  3  0  0  0  0  0  0
  191.1050  177.3290  142.2830 N   0  0  0  0  0  0  0  0  0  0  0  0
  189.2810  177.4060  140.6140 C   0  0  0  0  0  2  0  0  0  0  0  0
  188.6780  178.5760  139.8600 C   0  0  0  0  0  2  0  0  0  0  0  0
  189.3170  177.3640  137.9150 O   0  0  0  0  0  1  0  0  0  0  0  0
  187.6350  178.8940  137.6190 O   0  0  0  0  0  0  0  0  0  0  0  0
  188.5730  178.2480  138.4140 C   0  0  0  0  0  0  0  0  0  0  0  0
  184.5040  179.0240  144.5010 C   0  0  2  0  0  3  0  0  0  0  0  0
  186.1240  179.8390  146.2330 O   0  0  0  0  0  0  0  0  0  0  0  0
  185.0640  179.0070  145.8890 C   0  0  0  0  0  0  0  0  0  0  0  0
  184.5650  178.2450  146.7570 O   0  0  0  0  0  1  0  0  0  0  0  0
  183.0320  178.6260  144.5520 C   0  0  0  0  0  2  0  0  0  0  0  0
  182.2930  179.1770  143.3470 C   0  0  0  0  0  2  0  0  0  0  0  0
  180.2400  178.6460  142.0500 C   0  0  2  0  0  3  0  0  0  0  0  0
  180.1200  179.8680  142.8450 C   0  0  0  0  0  2  0  0  0  0  0  0
  180.8980  178.7430  143.3850 N   0  0  0  0  0  0  0  0  0  0  0  0
  180.4760  179.0280  139.5640 C   0  0  1  0  0  3  0  0  0  0  0  0
  181.1800  178.7980  140.8400 C   0  0  1  0  0  0  0  0  0  0  0  0
  182.5730  177.8000  139.1200 C   0  0  0  0  0  2  0  0  0  0  0  0
  181.2280  180.0480  140.1970 O   0  0  0  0  0  0  0  0  0  0  0  0
  182.3650  177.8800  140.6170 C   0  0  0  0  0  2  0  0  0  0  0  0
  181.2950  178.3310  138.4670 C   0  0  2  0  0  0  0  0  0  0  0  0
  181.6760  179.3770  137.4230 C   0  0  0  0  0  1  0  0  0  0  0  0
  181.3110  176.1440  137.3040 C   0  0  0  0  0  2  0  0  0  0  0  0
  180.3400  174.5940  138.8620 O   0  0  0  0  0  0  0  0  0  0  0  0
  181.5630  175.0680  138.3660 C   0  0  0  0  0  2  0  0  0  0  0  0
  180.4930  177.2570  137.8300 N   0  0  0  0  0  0  0  0  0  0  0  0
  179.7880  175.6490  139.6020 C   0  0  0  0  0  2  0  0  0  0  0  0
  179.3650  176.7790  138.6580 C   0  0  0  0  0  2  0  0  0  0  0  0
  2  1  1  6  0  0  0
  2  3  1  0  0  0  0
  2 23  1  0  0  0  0
  3  4  2  0  0  0  0
  5  3  1  0  0  0  0
  5  9  1  0  0  0  0
  6  9  2  0  0  0  0
  6  8  1  0  0  0  0
  7 13  1  0  0  0  0
  8 11  2  0  0  0  0
  9 10  1  0  0  0  0
 10  7  2  0  0  0  0
 11  7  1  0  0  0  0
 13 12  1  0  0  0  0
 14  6  1  0  0  0  0
 15 14  2  0  0  0  0
 16 17  2  0  0  0  0
 17 14  1  0  0  0  0
 18 16  1  0  0  0  0
 19 18  1  0  0  0  0
 20 22  1  0  0  0  0
 21 22  2  0  0  0  0
 22 19  1  0  0  0  0
 23 27  1  1  0  0  0
 23 25  1  0  0  0  0
 25 24  2  0  0  0  0
 25 26  1  0  0  0  0
 28 31  1  0  0  0  0
 28 27  1  0  0  0  0
 29 30  1  1  0  0  0
 29 31  1  0  0  0  0
 30 31  1  0  0  0  0
 32 35  1  6  0  0  0
 32 33  1  0  0  0  0
 33 36  1  6  0  0  0
 33 29  1  0  0  0  0
 34 36  1  0  0  0  0
 35 33  1  0  0  0  0
 37 38  1  6  0  0  0
 37 34  1  0  0  0  0
 37 32  1  0  0  0  0
 39 42  1  0  0  0  0
 39 41  1  0  0  0  0
 40 43  1  0  0  0  0
 41 40  1  0  0  0  0
 42 37  1  0  0  0  0
 42 44  1  0  0  0  0
 44 43  1  0  0  0  0
M  END
>  <MODEL>
7

>  <REMARK>
 VINA RESULT:      -6.6      2.166      5.629
  Name = 
  16 active torsions:
  status: ('A' for Active; 'I' for Inactive)
    1  A    between atoms: C_1  and  C_21
    2  A    between atoms: C_4  and  C_37
    3  A    between atoms: C_4  and  C_43
    4  A    between atoms: C_6  and  C_27
    5  A    between atoms: C_7  and  C_9
    6  A    between atoms: C_8  and  O_33
    7  A    between atoms: N_17  and  C_34
    8  A    between atoms: C_19  and  C_43
    9  A    between atoms: C_21  and  N_23
   10  A    between atoms: C_24  and  C_28
   11  A    between atoms: C_24  and  C_43
   12  A    between atoms: C_25  and  C_38
   13  A    between atoms: C_27  and  C_36
   14  A    between atoms: C_28  and  C_38
   15  A    between atoms: N_31  and  C_37
   16  A    between atoms: C_36  and  C_40
                            x       y       z     vdW  Elec       q    Type
                         _______ _______ _______ _____ _____    ______ ____

>  <TORSDO>
F 16

$$$$
=
 OpenBabel10222416153D

 44 48  0  0  1  0  0  0  0  0999 V2000
  187.0130  178.6130  141.6270 C   0  0  0  0  0  1  0  0  0  0  0  0
  188.5330  178.5680  141.7010 C   0  0  1  0  0  3  0  0  0  0  0  0
  188.9500  178.2390  143.1080 C   0  0  0  0  0  0  0  0  0  0  0  0
  189.9990  178.6730  143.5610 O   0  0  0  0  0  0  0  0  0  0  0  0
  188.0900  177.3520  143.9490 C   0  0  0  0  0  2  0  0  0  0  0  0
  187.4980  177.8640  146.3830 C   0  0  0  0  0  0  0  0  0  0  0  0
  190.1370  177.1940  147.1250 C   0  0  0  0  0  0  0  0  0  0  0  0
  187.8940  177.8760  147.7290 C   0  0  0  0  0  3  0  0  0  0  0  0
  188.4460  177.4940  145.3960 C   0  0  0  0  0  0  0  0  0  0  0  0
  189.7520  177.1630  145.7780 C   0  0  0  0  0  3  0  0  0  0  0  0
  189.2000  177.5470  148.0970 C   0  0  0  0  0  3  0  0  0  0  0  0
  192.0520  175.6300  147.2120 C   0  0  0  0  0  1  0  0  0  0  0  0
  191.4380  176.8750  147.5240 O   0  0  0  0  0  0  0  0  0  0  0  0
  186.1020  178.2420  146.0640 C   0  0  0  0  0  0  0  0  0  0  0  0
  185.1560  177.5430  146.5210 O   0  0  0  0  0  0  0  0  0  0  0  0
  184.8950  179.5940  144.4080 C   0  0  0  0  0  3  0  0  0  0  0  0
  185.8270  179.4310  145.3020 N   0  0  0  0  0  0  0  0  0  0  0  0
  183.9570  178.5180  143.9660 C   0  0  0  0  0  2  0  0  0  0  0  0
  183.2580  178.9390  142.6860 C   0  0  0  0  0  2  0  0  0  0  0  0
  181.3040  178.6410  144.0110 O   0  0  0  0  0  1  0  0  0  0  0  0
  180.9550  179.4880  141.9090 O   0  0  0  0  0  0  0  0  0  0  0  0
  181.7890  179.0020  142.9070 C   0  0  0  0  0  0  0  0  0  0  0  0
  189.1110  177.5710  140.6860 C   0  0  2  0  0  3  0  0  0  0  0  0
  191.6120  177.6850  140.8490 O   0  0  0  0  0  0  0  0  0  0  0  0
  190.4260  177.0230  141.1500 C   0  0  0  0  0  0  0  0  0  0  0  0
  190.4590  175.9640  141.8290 O   0  0  0  0  0  1  0  0  0  0  0  0
  189.2970  178.2220  139.3190 C   0  0  0  0  0  2  0  0  0  0  0  0
  189.1830  177.1850  138.2180 C   0  0  0  0  0  2  0  0  0  0  0  0
  187.5690  175.6290  137.1470 C   0  0  2  0  0  3  0  0  0  0  0  0
  187.1180  177.0200  137.1420 C   0  0  0  0  0  2  0  0  0  0  0  0
  187.8820  176.5250  138.2970 N   0  0  0  0  0  0  0  0  0  0  0  0
  189.6970  174.3550  136.6670 C   0  0  1  0  0  3  0  0  0  0  0  0
  188.7370  175.3650  136.1800 C   0  0  1  0  0  0  0  0  0  0  0  0
  190.8950  175.9980  135.2640 C   0  0  0  0  0  2  0  0  0  0  0  0
  188.8230  174.0940  135.5830 O   0  0  0  0  0  0  0  0  0  0  0  0
  189.4790  176.4870  135.4820 C   0  0  0  0  0  2  0  0  0  0  0  0
  191.0870  174.7810  136.1710 C   0  0  2  0  0  0  0  0  0  0  0  0
  191.6660  173.6380  135.3420 C   0  0  0  0  0  1  0  0  0  0  0  0
  192.9580  173.9910  137.5890 C   0  0  0  0  0  2  0  0  0  0  0  0
  194.8030  175.4350  137.0640 O   0  0  0  0  0  0  0  0  0  0  0  0
  194.2480  174.1780  136.7840 C   0  0  0  0  0  2  0  0  0  0  0  0
  191.9800  175.0660  137.3230 N   0  0  0  0  0  0  0  0  0  0  0  0
  193.9340  176.3770  136.4960 C   0  0  0  0  0  2  0  0  0  0  0  0
  192.6150  176.4000  137.2750 C   0  0  0  0  0  2  0  0  0  0  0  0
  2  1  1  1  0  0  0
  2  3  1  0  0  0  0
  3  4  2  0  0  0  0
  3  5  1  0  0  0  0
  5  9  1  0  0  0  0
  6  8  1  0  0  0  0
  7 13  1  0  0  0  0
  7 11  1  0  0  0  0
  8 11  2  0  0  0  0
  9 10  1  0  0  0  0
  9  6  2  0  0  0  0
 10  7  2  0  0  0  0
 12 13  1  0  0  0  0
 14  6  1  0  0  0  0
 14 15  2  0  0  0  0
 16 17  2  0  0  0  0
 17 14  1  0  0  0  0
 18 16  1  0  0  0  0
 19 22  1  0  0  0  0
 19 18  1  0  0  0  0
 21 22  2  0  0  0  0
 22 20  1  0  0  0  0
 23 27  1  6  0  0  0
 23 25  1  0  0  0  0
 23  2  1  0  0  0  0
 24 25  2  0  0  0  0
 25 26  1  0  0  0  0
 28 31  1  0  0  0  0
 28 27  1  0  0  0  0
 29 30  1  6  0  0  0
 29 31  1  0  0  0  0
 30 31  1  0  0  0  0
 32 35  1  6  0  0  0
 33 36  1  6  0  0  0
 33 32  1  0  0  0  0
 33 29  1  0  0  0  0
 34 36  1  0  0  0  0
 34 37  1  0  0  0  0
 35 33  1  0  0  0  0
 37 38  1  6  0  0  0
 37 32  1  0  0  0  0
 37 42  1  0  0  0  0
 41 40  1  0  0  0  0
 41 39  1  0  0  0  0
 42 39  1  0  0  0  0
 43 40  1  0  0  0  0
 43 44  1  0  0  0  0
 44 42  1  0  0  0  0
M  END
>  <MODEL>
8

>  <REMARK>
 VINA RESULT:      -6.6      2.736      5.585
  Name = 
  16 active torsions:
  status: ('A' for Active; 'I' for Inactive)
    1  A    between atoms: C_1  and  C_21
    2  A    between atoms: C_4  and  C_37
    3  A    between atoms: C_4  and  C_43
    4  A    between atoms: C_6  and  C_27
    5  A    between atoms: C_7  and  C_9
    6  A    between atoms: C_8  and  O_33
    7  A    between atoms: N_17  and  C_34
    8  A    between atoms: C_19  and  C_43
    9  A    between atoms: C_21  and  N_23
   10  A    between atoms: C_24  and  C_28
   11  A    between atoms: C_24  and  C_43
   12  A    between atoms: C_25  and  C_38
   13  A    between atoms: C_27  and  C_36
   14  A    between atoms: C_28  and  C_38
   15  A    between atoms: N_31  and  C_37
   16  A    between atoms: C_36  and  C_40
                            x       y       z     vdW  Elec       q    Type
                         _______ _______ _______ _____ _____    ______ ____

>  <TORSDO>
F 16

$$$$
=
 OpenBabel10222416153D

 44 48  0  0  1  0  0  0  0  0999 V2000
  186.8350  176.7490  145.4280 C   0  0  0  0  0  1  0  0  0  0  0  0
  187.0140  178.0030  144.5830 C   0  0  1  0  0  3  0  0  0  0  0  0
  187.6090  177.6230  143.2560 C   0  0  0  0  0  0  0  0  0  0  0  0
  187.5680  176.4660  142.8650 O   0  0  0  0  0  0  0  0  0  0  0  0
  188.2810  178.6630  142.4180 C   0  0  0  0  0  2  0  0  0  0  0  0
  189.8090  177.2110  140.9700 C   0  0  0  0  0  0  0  0  0  0  0  0
  188.1910  177.8060  138.7360 C   0  0  0  0  0  0  0  0  0  0  0  0
  190.0720  176.6390  139.7170 C   0  0  0  0  0  3  0  0  0  0  0  0
  188.7020  178.0870  141.1020 C   0  0  0  0  0  0  0  0  0  0  0  0
  187.9070  178.3730  139.9860 C   0  0  0  0  0  3  0  0  0  0  0  0
  189.2730  176.9350  138.6100 C   0  0  0  0  0  3  0  0  0  0  0  0
  186.0590  177.6690  137.4880 C   0  0  0  0  0  1  0  0  0  0  0  0
  187.4140  178.0860  137.6090 O   0  0  0  0  0  0  0  0  0  0  0  0
  190.7080  176.8670  142.0960 C   0  0  0  0  0  0  0  0  0  0  0  0
  190.7830  175.6670  142.4780 O   0  0  0  0  0  0  0  0  0  0  0  0
  191.6400  178.1540  143.9680 C   0  0  0  0  0  3  0  0  0  0  0  0
  191.5350  177.8780  142.7000 N   0  0  0  0  0  0  0  0  0  0  0  0
  190.8470  177.4830  145.0430 C   0  0  0  0  0  2  0  0  0  0  0  0
  191.6690  176.3730  145.6700 C   0  0  0  0  0  2  0  0  0  0  0  0
  192.3060  175.7570  147.8790 O   0  0  0  0  0  1  0  0  0  0  0  0
  190.4750  177.1290  147.7230 O   0  0  0  0  0  0  0  0  0  0  0  0
  191.5010  176.3900  147.1470 C   0  0  0  0  0  0  0  0  0  0  0  0
  185.6880  178.7600  144.4200 C   0  0  2  0  0  3  0  0  0  0  0  0
  185.7200  179.4080  146.8420 O   0  0  0  0  0  1  0  0  0  0  0  0
  185.0060  178.9530  145.7390 C   0  0  0  0  0  0  0  0  0  0  0  0
  183.7750  178.7170  145.8490 O   0  0  0  0  0  0  0  0  0  0  0  0
  184.7460  178.0190  143.4750 C   0  0  0  0  0  2  0  0  0  0  0  0
  183.8440  179.0010  142.7500 C   0  0  0  0  0  2  0  0  0  0  0  0
  183.4630  179.0100  140.2950 C   0  0  2  0  0  3  0  0  0  0  0  0
  184.4250  177.9950  140.7250 C   0  0  0  0  0  2  0  0  0  0  0  0
  184.3940  179.2880  141.4270 N   0  0  0  0  0  0  0  0  0  0  0  0
  181.2960  177.8470  139.7170 C   0  0  1  0  0  3  0  0  0  0  0  0
  182.0130  178.6850  140.6970 C   0  0  1  0  0  0  0  0  0  0  0  0
  179.6770  179.3290  140.8510 C   0  0  0  0  0  2  0  0  0  0  0  0
  181.6940  177.3450  140.9800 O   0  0  0  0  0  0  0  0  0  0  0  0
  181.0770  179.7340  141.2630 C   0  0  0  0  0  2  0  0  0  0  0  0
  179.8270  178.2950  139.7340 C   0  0  2  0  0  0  0  0  0  0  0  0
  178.9650  177.0810  140.0700 C   0  0  0  0  0  1  0  0  0  0  0  0
  179.2770  180.3010  138.3890 C   0  0  0  0  0  2  0  0  0  0  0  0
  181.1140  180.5620  136.8640 O   0  0  0  0  0  0  0  0  0  0  0  0
  180.5970  181.0180  138.0840 C   0  0  0  0  0  2  0  0  0  0  0  0
  179.4380  178.8330  138.4050 N   0  0  0  0  0  0  0  0  0  0  0  0
  181.5150  179.2370  137.0850 C   0  0  0  0  0  2  0  0  0  0  0  0
  180.2830  178.3500  137.2920 C   0  0  0  0  0  2  0  0  0  0  0  0
  2  1  1  1  0  0  0
  3  2  1  0  0  0  0
  4  3  2  0  0  0  0
  5  3  1  0  0  0  0
  6  9  1  0  0  0  0
  6 14  1  0  0  0  0
  7 10  1  0  0  0  0
  8  6  2  0  0  0  0
  9  5  1  0  0  0  0
 10  9  2  0  0  0  0
 11  7  2  0  0  0  0
 11  8  1  0  0  0  0
 12 13  1  0  0  0  0
 13  7  1  0  0  0  0
 14 15  2  0  0  0  0
 14 17  1  0  0  0  0
 16 18  1  0  0  0  0
 17 16  2  0  0  0  0
 18 19  1  0  0  0  0
 19 22  1  0  0  0  0
 22 21  2  0  0  0  0
 22 20  1  0  0  0  0
 23 27  1  6  0  0  0
 23  2  1  0  0  0  0
 23 25  1  0  0  0  0
 25 26  2  0  0  0  0
 25 24  1  0  0  0  0
 28 27  1  0  0  0  0
 29 33  1  0  0  0  0
 29 30  1  1  0  0  0
 29 31  1  0  0  0  0
 30 31  1  0  0  0  0
 31 28  1  0  0  0  0
 32 37  1  0  0  0  0
 32 33  1  0  0  0  0
 32 35  1  1  0  0  0
 33 35  1  0  0  0  0
 33 36  1  1  0  0  0
 34 36  1  0  0  0  0
 37 38  1  1  0  0  0
 37 34  1  0  0  0  0
 39 42  1  0  0  0  0
 40 43  1  0  0  0  0
 40 41  1  0  0  0  0
 41 39  1  0  0  0  0
 42 37  1  0  0  0  0
 43 44  1  0  0  0  0
 44 42  1  0  0  0  0
M  END
>  <MODEL>
9

>  <REMARK>
 VINA RESULT:      -6.5      2.133      6.693
  Name = 
  16 active torsions:
  status: ('A' for Active; 'I' for Inactive)
    1  A    between atoms: C_1  and  C_21
    2  A    between atoms: C_4  and  C_37
    3  A    between atoms: C_4  and  C_43
    4  A    between atoms: C_6  and  C_27
    5  A    between atoms: C_7  and  C_9
    6  A    between atoms: C_8  and  O_33
    7  A    between atoms: N_17  and  C_34
    8  A    between atoms: C_19  and  C_43
    9  A    between atoms: C_21  and  N_23
   10  A    between atoms: C_24  and  C_28
   11  A    between atoms: C_24  and  C_43
   12  A    between atoms: C_25  and  C_38
   13  A    between atoms: C_27  and  C_36
   14  A    between atoms: C_28  and  C_38
   15  A    between atoms: N_31  and  C_37
   16  A    between atoms: C_36  and  C_40
                            x       y       z     vdW  Elec       q    Type
                         _______ _______ _______ _____ _____    ______ ____

>  <TORSDO>
F 16

$$$$
