=
 OpenBabel10222416343D

 32 36  0  0  1  0  0  0  0  0999 V2000
  188.0230  177.5410  144.1910 N   0  0  0  0  0  0  0  0  0  0  0  0
  189.9490  177.0130  145.4390 C   0  0  2  0  0  3  0  0  0  0  0  0
  189.1890  177.3250  142.0840 N   0  0  0  0  0  0  0  0  0  0  0  0
  188.8790  176.6940  143.3710 C   0  0  1  0  0  3  0  0  0  0  0  0
  187.8010  177.8090  146.4760 C   0  0  0  0  0  0  0  0  0  0  0  0
  190.3640  177.2300  141.5210 C   0  0  0  0  0  0  0  0  0  0  0  0
  190.1260  176.5580  144.2010 C   0  0  1  0  0  3  0  0  0  0  0  0
  191.4130  176.3130  143.5460 C   0  0  0  0  0  3  0  0  0  0  0  0
  188.1630  177.5670  147.9010 C   0  0  0  0  0  1  0  0  0  0  0  0
  191.5100  176.6160  142.2480 C   0  0  0  0  0  3  0  0  0  0  0  0
  186.5710  177.5080  144.2430 C   0  0  1  0  0  3  0  0  0  0  0  0
  188.6170  177.5960  145.4620 C   0  0  0  0  0  0  0  0  0  0  0  0
  186.1030  178.0280  145.9440 S   0  0  0  0  0  0  0  0  0  0  0  0
  189.6990  176.9360  138.2110 O   0  0  0  0  0  0  0  0  0  0  0  0
  191.2950  175.1460  138.1900 C   0  0  0  0  0  1  0  0  0  0  0  0
  189.3700  177.6580  139.3170 C   0  0  0  0  0  0  0  0  0  0  0  0
  191.0810  176.6460  138.2630 C   0  0  2  0  0  3  0  0  0  0  0  0
  187.1410  177.9360  138.6920 F   0  0  0  0  0  0  0  0  0  0  0  0
  190.5630  177.8220  140.1590 C   0  0  2  0  0  3  0  0  0  0  0  0
  188.1600  178.1490  139.5600 C   0  0  0  0  0  3  0  0  0  0  0  0
  191.6120  177.1490  139.4850 O   0  0  0  0  0  0  0  0  0  0  0  0
  185.9870  178.4910  143.2430 C   0  0  0  0  0  2  0  0  0  0  0  0
  184.4700  178.4670  143.3070 C   0  0  0  0  0  2  0  0  0  0  0  0
  183.9640  178.8720  138.6040 C   0  0  0  0  0  3  0  0  0  0  0  0
  184.0540  178.4250  140.8110 C   0  0  0  0  0  0  0  0  0  0  0  0
  183.5380  177.8080  139.5630 C   0  0  0  0  0  2  0  0  0  0  0  0
  184.5680  179.8310  139.2250 N   0  0  0  0  0  0  0  0  0  0  0  0
  184.6260  179.5590  140.5930 N   0  0  0  0  0  0  0  0  0  0  0  0
  183.9310  177.8410  142.1090 N   0  0  0  0  0  2  0  0  0  0  0  0
  191.0180  177.2200  146.4670 C   0  0  0  0  0  2  0  0  0  0  0  0
  191.2180  176.0040  147.2400 N   0  0  0  0  0  2  0  0  0  0  0  0
  192.4750  175.5710  146.9830 O   0  0  0  0  0  1  0  0  0  0  0  0
  1 11  1  0  0  0  0
  1 12  1  0  0  0  0
  2 12  1  0  0  0  0
  2 30  1  6  0  0  0
  4  3  1  6  0  0  0
  4  1  1  0  0  0  0
  4  7  1  0  0  0  0
  5  9  1  0  0  0  0
  6  3  2  0  0  0  0
  6 10  1  0  0  0  0
  7  8  1  6  0  0  0
  7  2  1  0  0  0  0
 10  8  2  0  0  0  0
 11 22  1  6  0  0  0
 11 13  1  0  0  0  0
 12  5  2  0  0  0  0
 13  5  1  0  0  0  0
 14 17  1  0  0  0  0
 14 16  1  0  0  0  0
 16 20  2  0  0  0  0
 16 19  1  0  0  0  0
 17 15  1  1  0  0  0
 17 21  1  0  0  0  0
 18 20  1  0  0  0  0
 19  6  1  1  0  0  0
 21 19  1  0  0  0  0
 22 23  1  0  0  0  0
 24 27  2  0  0  0  0
 24 26  1  0  0  0  0
 25 29  1  0  0  0  0
 26 25  1  0  0  0  0
 27 28  1  0  0  0  0
 28 25  2  0  0  0  0
 29 23  1  0  0  0  0
 30 31  1  0  0  0  0
 32 31  1  0  0  0  0
M  END
>  <MODEL>
1

>  <REMARK>
 VINA RESULT:      -8.9      0.000      0.000
  Name = 
  6 active torsions:
  status: ('A' for Active; 'I' for Inactive)
    1  A    between atoms: C_2  and  C_17
    2  A    between atoms: N_7  and  C_17
    3  A    between atoms: C_9  and  C_27
    4  A    between atoms: C_9  and  C_30
    5  A    between atoms: C_15  and  C_19
    6  A    between atoms: N_28  and  C_30
                            x       y       z     vdW  Elec       q    Type
                         _______ _______ _______ _____ _____    ______ ____

>  <TORSDO>
F 6

$$$$
=
 OpenBabel10222416343D

 32 36  0  0  1  0  0  0  0  0999 V2000
  187.7190  177.8210  144.5980 N   0  0  0  0  0  0  0  0  0  0  0  0
  189.9420  177.1450  144.9820 C   0  0  2  0  0  3  0  0  0  0  0  0
  188.0050  177.7950  142.1970 N   0  0  0  0  0  0  0  0  0  0  0  0
  188.1640  177.0460  143.4470 C   0  0  1  0  0  3  0  0  0  0  0  0
  188.3770  177.8680  146.8130 C   0  0  0  0  0  0  0  0  0  0  0  0
  188.8800  177.7380  141.2280 C   0  0  0  0  0  0  0  0  0  0  0  0
  189.6220  176.8110  143.7340 C   0  0  1  0  0  3  0  0  0  0  0  0
  190.5590  176.6120  142.6260 C   0  0  0  0  0  3  0  0  0  0  0  0
  189.2300  177.4820  147.9720 C   0  0  0  0  0  1  0  0  0  0  0  0
  190.1820  177.0390  141.4180 C   0  0  0  0  0  3  0  0  0  0  0  0
  186.3910  177.8050  145.1870 C   0  0  1  0  0  3  0  0  0  0  0  0
  188.7460  177.7430  145.5520 C   0  0  0  0  0  0  0  0  0  0  0  0
  186.6170  178.1630  146.9770 S   0  0  0  0  0  0  0  0  0  0  0  0
  187.2290  177.6390  138.2700 O   0  0  0  0  0  0  0  0  0  0  0  0
  188.8800  176.0520  137.5600 C   0  0  0  0  0  1  0  0  0  0  0  0
  187.2080  178.2270  139.4980 C   0  0  0  0  0  0  0  0  0  0  0  0
  188.5760  177.5060  137.8640 C   0  0  2  0  0  3  0  0  0  0  0  0
  184.8810  178.2970  139.6210 F   0  0  0  0  0  0  0  0  0  0  0  0
  188.5880  178.4580  139.9470 C   0  0  2  0  0  3  0  0  0  0  0  0
  186.1010  178.5540  140.1540 C   0  0  0  0  0  3  0  0  0  0  0  0
  189.4220  177.9660  138.9120 O   0  0  0  0  0  0  0  0  0  0  0  0
  185.5270  178.8900  144.5680 C   0  0  0  0  0  2  0  0  0  0  0  0
  184.5330  178.2800  143.5960 C   0  0  0  0  0  2  0  0  0  0  0  0
  180.3070  179.3770  141.7350 C   0  0  0  0  0  3  0  0  0  0  0  0
  182.1970  178.9340  142.8790 C   0  0  0  0  0  0  0  0  0  0  0  0
  180.8100  179.3970  143.1410 C   0  0  0  0  0  2  0  0  0  0  0  0
  181.2350  178.9890  140.9230 N   0  0  0  0  0  0  0  0  0  0  0  0
  182.4080  178.7140  141.6280 N   0  0  0  0  0  0  0  0  0  0  0  0
  183.1900  178.7570  143.8900 N   0  0  0  0  0  2  0  0  0  0  0  0
  191.3260  177.2340  145.5470 C   0  0  0  0  0  2  0  0  0  0  0  0
  191.7610  175.9310  146.0270 N   0  0  0  0  0  2  0  0  0  0  0  0
  192.4620  176.1420  147.1670 O   0  0  0  0  0  1  0  0  0  0  0  0
  1 11  1  0  0  0  0
  1 12  1  0  0  0  0
  2 30  1  6  0  0  0
  2 12  1  0  0  0  0
  4  3  1  6  0  0  0
  4  7  1  0  0  0  0
  4  1  1  0  0  0  0
  5 13  1  0  0  0  0
  5  9  1  0  0  0  0
  6 10  1  0  0  0  0
  6  3  2  0  0  0  0
  7  8  1  6  0  0  0
  7  2  1  0  0  0  0
 10  8  2  0  0  0  0
 11 22  1  6  0  0  0
 11 13  1  0  0  0  0
 12  5  2  0  0  0  0
 14 16  1  0  0  0  0
 16 19  1  0  0  0  0
 16 20  2  0  0  0  0
 17 15  1  1  0  0  0
 17 14  1  0  0  0  0
 17 21  1  0  0  0  0
 18 20  1  0  0  0  0
 19  6  1  1  0  0  0
 21 19  1  0  0  0  0
 23 29  1  0  0  0  0
 23 22  1  0  0  0  0
 24 26  1  0  0  0  0
 25 26  1  0  0  0  0
 25 29  1  0  0  0  0
 27 28  1  0  0  0  0
 27 24  2  0  0  0  0
 28 25  2  0  0  0  0
 30 31  1  0  0  0  0
 31 32  1  0  0  0  0
M  END
>  <MODEL>
2

>  <REMARK>
 VINA RESULT:      -8.9      1.756      2.140
  Name = 
  6 active torsions:
  status: ('A' for Active; 'I' for Inactive)
    1  A    between atoms: C_2  and  C_17
    2  A    between atoms: N_7  and  C_17
    3  A    between atoms: C_9  and  C_27
    4  A    between atoms: C_9  and  C_30
    5  A    between atoms: C_15  and  C_19
    6  A    between atoms: N_28  and  C_30
                            x       y       z     vdW  Elec       q    Type
                         _______ _______ _______ _____ _____    ______ ____

>  <TORSDO>
F 6

$$$$
=
 OpenBabel10222416343D

 32 36  0  0  1  0  0  0  0  0999 V2000
  187.1770  178.0000  142.6530 N   0  0  0  0  0  0  0  0  0  0  0  0
  185.9030  178.1700  144.6260 C   0  0  2  0  0  3  0  0  0  0  0  0
  185.2350  178.2760  141.2390 N   0  0  0  0  0  0  0  0  0  0  0  0
  186.0020  178.8130  142.3680 C   0  0  1  0  0  3  0  0  0  0  0  0
  188.3370  177.5410  144.5980 C   0  0  0  0  0  0  0  0  0  0  0  0
  183.9290  178.2830  141.2130 C   0  0  0  0  0  0  0  0  0  0  0  0
  185.2010  178.7180  143.6370 C   0  0  1  0  0  3  0  0  0  0  0  0
  183.7450  178.8690  143.5920 C   0  0  0  0  0  3  0  0  0  0  0  0
  188.5790  177.6000  146.0680 C   0  0  0  0  0  1  0  0  0  0  0  0
  183.1440  178.6830  142.4140 C   0  0  0  0  0  3  0  0  0  0  0  0
  188.5150  178.2010  142.1230 C   0  0  1  0  0  3  0  0  0  0  0  0
  187.1630  177.7520  144.0350 C   0  0  0  0  0  0  0  0  0  0  0  0
  189.6770  177.5800  143.4070 S   0  0  0  0  0  0  0  0  0  0  0  0
  181.1670  178.5630  139.2670 O   0  0  0  0  0  0  0  0  0  0  0  0
  180.0100  177.3390  140.9740 C   0  0  0  0  0  1  0  0  0  0  0  0
  182.4870  178.8900  139.3180 C   0  0  0  0  0  0  0  0  0  0  0  0
  181.0050  177.2770  139.8310 C   0  0  2  0  0  3  0  0  0  0  0  0
  182.2080  180.9290  138.2230 F   0  0  0  0  0  0  0  0  0  0  0  0
  183.2290  177.8050  139.9770 C   0  0  2  0  0  3  0  0  0  0  0  0
  183.0040  180.0080  138.8210 C   0  0  0  0  0  3  0  0  0  0  0  0
  182.2650  176.8230  140.3130 O   0  0  0  0  0  0  0  0  0  0  0  0
  188.7040  177.3960  140.8500 C   0  0  0  0  0  2  0  0  0  0  0  0
  188.9270  178.3250  139.6700 C   0  0  0  0  0  2  0  0  0  0  0  0
  185.9040  176.5790  136.4530 C   0  0  0  0  0  3  0  0  0  0  0  0
  187.1530  177.6370  138.0020 C   0  0  0  0  0  0  0  0  0  0  0  0
  185.8670  177.8200  137.2820 C   0  0  0  0  0  2  0  0  0  0  0  0
  186.9800  175.9010  136.6930 N   0  0  0  0  0  0  0  0  0  0  0  0
  187.7560  176.5530  137.6520 N   0  0  0  0  0  0  0  0  0  0  0  0
  187.6720  178.5520  138.9690 N   0  0  0  0  0  2  0  0  0  0  0  0
  185.3690  177.7390  145.9570 C   0  0  0  0  0  2  0  0  0  0  0  0
  184.7830  178.8710  146.6580 N   0  0  0  0  0  2  0  0  0  0  0  0
  185.8000  179.5410  147.2520 O   0  0  0  0  0  1  0  0  0  0  0  0
  1 12  1  0  0  0  0
  2 30  1  6  0  0  0
  4  3  1  6  0  0  0
  4  1  1  0  0  0  0
  4  7  1  0  0  0  0
  5  9  1  0  0  0  0
  6  3  2  0  0  0  0
  6 10  1  0  0  0  0
  7  8  1  6  0  0  0
  7  2  1  0  0  0  0
 10  8  2  0  0  0  0
 11 22  1  6  0  0  0
 11  1  1  0  0  0  0
 11 13  1  0  0  0  0
 12  5  2  0  0  0  0
 12  2  1  0  0  0  0
 13  5  1  0  0  0  0
 14 16  1  0  0  0  0
 14 17  1  0  0  0  0
 16 19  1  0  0  0  0
 17 21  1  0  0  0  0
 17 15  1  1  0  0  0
 18 20  1  0  0  0  0
 19 21  1  0  0  0  0
 19  6  1  1  0  0  0
 20 16  2  0  0  0  0
 23 22  1  0  0  0  0
 24 27  2  0  0  0  0
 24 26  1  0  0  0  0
 25 29  1  0  0  0  0
 26 25  1  0  0  0  0
 27 28  1  0  0  0  0
 28 25  2  0  0  0  0
 29 23  1  0  0  0  0
 30 31  1  0  0  0  0
 31 32  1  0  0  0  0
M  END
>  <MODEL>
3

>  <REMARK>
 VINA RESULT:      -8.9      3.559      6.103
  Name = 
  6 active torsions:
  status: ('A' for Active; 'I' for Inactive)
    1  A    between atoms: C_2  and  C_17
    2  A    between atoms: N_7  and  C_17
    3  A    between atoms: C_9  and  C_27
    4  A    between atoms: C_9  and  C_30
    5  A    between atoms: C_15  and  C_19
    6  A    between atoms: N_28  and  C_30
                            x       y       z     vdW  Elec       q    Type
                         _______ _______ _______ _____ _____    ______ ____

>  <TORSDO>
F 6

$$$$
=
 OpenBabel10222416343D

 32 36  0  0  1  0  0  0  0  0999 V2000
  187.2770  178.0280  142.5690 N   0  0  0  0  0  0  0  0  0  0  0  0
  186.0350  178.0830  144.5680 C   0  0  2  0  0  3  0  0  0  0  0  0
  185.3060  178.3300  141.2010 N   0  0  0  0  0  0  0  0  0  0  0  0
  186.0830  178.8300  142.3400 C   0  0  1  0  0  3  0  0  0  0  0  0
  188.4790  177.5030  144.4710 C   0  0  0  0  0  0  0  0  0  0  0  0
  183.9990  178.3140  141.1960 C   0  0  0  0  0  0  0  0  0  0  0  0
  185.3050  178.6620  143.6170 C   0  0  1  0  0  3  0  0  0  0  0  0
  183.8460  178.7870  143.6030 C   0  0  0  0  0  3  0  0  0  0  0  0
  188.7450  177.5000  145.9380 C   0  0  0  0  0  1  0  0  0  0  0  0
  183.2280  178.6430  142.4280 C   0  0  0  0  0  3  0  0  0  0  0  0
  188.6020  178.2780  142.0270 C   0  0  1  0  0  3  0  0  0  0  0  0
  187.2920  177.7170  143.9380 C   0  0  0  0  0  0  0  0  0  0  0  0
  189.7970  177.6220  143.2610 S   0  0  0  0  0  0  0  0  0  0  0  0
  181.2070  178.6400  139.3040 O   0  0  0  0  0  0  0  0  0  0  0  0
  180.0890  177.3340  140.9740 C   0  0  0  0  0  1  0  0  0  0  0  0
  182.5240  178.9810  139.3500 C   0  0  0  0  0  0  0  0  0  0  0  0
  181.0670  177.3310  139.8150 C   0  0  2  0  0  3  0  0  0  0  0  0
  182.2060  181.0600  138.3440 F   0  0  0  0  0  0  0  0  0  0  0  0
  183.2870  177.8790  139.9520 C   0  0  2  0  0  3  0  0  0  0  0  0
  183.0200  180.1240  138.8920 C   0  0  0  0  0  3  0  0  0  0  0  0
  182.3390  176.8720  140.2610 O   0  0  0  0  0  0  0  0  0  0  0  0
  188.7830  177.5360  140.7150 C   0  0  0  0  0  2  0  0  0  0  0  0
  190.1350  176.8470  140.6820 C   0  0  0  0  0  2  0  0  0  0  0  0
  193.1520  175.9740  137.1230 C   0  0  0  0  0  3  0  0  0  0  0  0
  191.5260  176.2190  138.6640 C   0  0  0  0  0  0  0  0  0  0  0  0
  191.7550  175.5110  137.3790 C   0  0  0  0  0  2  0  0  0  0  0  0
  193.5560  176.7550  138.0710 N   0  0  0  0  0  0  0  0  0  0  0  0
  192.5520  176.9090  139.0280 N   0  0  0  0  0  0  0  0  0  0  0  0
  190.3120  176.1540  139.4150 N   0  0  0  0  0  2  0  0  0  0  0  0
  185.5320  177.5820  145.8870 C   0  0  0  0  0  2  0  0  0  0  0  0
  184.7940  178.6280  146.5780 N   0  0  0  0  0  2  0  0  0  0  0  0
  185.7010  179.3760  147.2510 O   0  0  0  0  0  1  0  0  0  0  0  0
  1 12  1  0  0  0  0
  2 30  1  6  0  0  0
  4  3  1  6  0  0  0
  4  1  1  0  0  0  0
  4  7  1  0  0  0  0
  5  9  1  0  0  0  0
  6  3  2  0  0  0  0
  6 10  1  0  0  0  0
  7  8  1  6  0  0  0
  7  2  1  0  0  0  0
 10  8  2  0  0  0  0
 11 22  1  6  0  0  0
 11  1  1  0  0  0  0
 11 13  1  0  0  0  0
 12  5  2  0  0  0  0
 12  2  1  0  0  0  0
 13  5  1  0  0  0  0
 14 16  1  0  0  0  0
 14 17  1  0  0  0  0
 16 19  1  0  0  0  0
 17 21  1  0  0  0  0
 17 15  1  1  0  0  0
 18 20  1  0  0  0  0
 19 21  1  0  0  0  0
 19  6  1  1  0  0  0
 20 16  2  0  0  0  0
 23 22  1  0  0  0  0
 24 26  1  0  0  0  0
 24 27  2  0  0  0  0
 25 28  2  0  0  0  0
 25 29  1  0  0  0  0
 26 25  1  0  0  0  0
 27 28  1  0  0  0  0
 29 23  1  0  0  0  0
 30 31  1  0  0  0  0
 31 32  1  0  0  0  0
M  END
>  <MODEL>
4

>  <REMARK>
 VINA RESULT:      -8.7      3.493      6.892
  Name = 
  6 active torsions:
  status: ('A' for Active; 'I' for Inactive)
    1  A    between atoms: C_2  and  C_17
    2  A    between atoms: N_7  and  C_17
    3  A    between atoms: C_9  and  C_27
    4  A    between atoms: C_9  and  C_30
    5  A    between atoms: C_15  and  C_19
    6  A    between atoms: N_28  and  C_30
                            x       y       z     vdW  Elec       q    Type
                         _______ _______ _______ _____ _____    ______ ____

>  <TORSDO>
F 6

$$$$
=
 OpenBabel10222416343D

 32 36  0  0  1  0  0  0  0  0999 V2000
  186.9450  177.9970  143.5050 N   0  0  0  0  0  0  0  0  0  0  0  0
  188.6280  177.0410  144.8450 C   0  0  2  0  0  3  0  0  0  0  0  0
  188.1910  177.6150  141.4680 N   0  0  0  0  0  0  0  0  0  0  0  0
  187.6670  177.0200  142.7010 C   0  0  1  0  0  3  0  0  0  0  0  0
  186.6190  178.2290  145.7810 C   0  0  0  0  0  0  0  0  0  0  0  0
  189.3600  177.2980  140.9770 C   0  0  0  0  0  0  0  0  0  0  0  0
  188.7970  176.6010  143.6010 C   0  0  1  0  0  3  0  0  0  0  0  0
  190.0510  176.1170  143.0180 C   0  0  0  0  0  3  0  0  0  0  0  0
  186.8200  177.8690  147.2130 C   0  0  0  0  0  1  0  0  0  0  0  0
  190.3010  176.4370  141.7450 C   0  0  0  0  0  3  0  0  0  0  0  0
  185.5170  178.2640  143.4620 C   0  0  1  0  0  3  0  0  0  0  0  0
  187.4450  177.8850  144.8110 C   0  0  0  0  0  0  0  0  0  0  0  0
  185.0440  178.8110  145.1530 S   0  0  0  0  0  0  0  0  0  0  0  0
  189.4860  176.8380  137.6210 O   0  0  0  0  0  0  0  0  0  0  0  0
  191.2720  175.2940  138.0390 C   0  0  0  0  0  1  0  0  0  0  0  0
  188.8280  177.5310  138.5900 C   0  0  0  0  0  0  0  0  0  0  0  0
  190.8480  176.7500  137.9850 C   0  0  2  0  0  3  0  0  0  0  0  0
  186.7750  177.4750  137.4870 F   0  0  0  0  0  0  0  0  0  0  0  0
  189.7720  177.8820  139.6600 C   0  0  2  0  0  3  0  0  0  0  0  0
  187.5400  177.8500  138.5420 C   0  0  0  0  0  3  0  0  0  0  0  0
  191.0250  177.3500  139.2640 O   0  0  0  0  0  0  0  0  0  0  0  0
  185.2190  179.3790  142.4760 C   0  0  0  0  0  2  0  0  0  0  0  0
  184.7060  178.8020  141.1690 C   0  0  0  0  0  2  0  0  0  0  0  0
  180.8430  176.4410  139.7420 C   0  0  0  0  0  3  0  0  0  0  0  0
  182.4890  177.7590  140.5370 C   0  0  0  0  0  0  0  0  0  0  0  0
  181.0050  177.7000  140.5300 C   0  0  0  0  0  2  0  0  0  0  0  0
  181.9950  175.9560  139.4120 N   0  0  0  0  0  0  0  0  0  0  0  0
  183.0180  176.7700  139.9020 N   0  0  0  0  0  0  0  0  0  0  0  0
  183.2510  178.7910  141.1650 N   0  0  0  0  0  2  0  0  0  0  0  0
  189.6400  176.9870  145.9480 C   0  0  0  0  0  2  0  0  0  0  0  0
  190.8220  177.7560  145.5890 N   0  0  0  0  0  2  0  0  0  0  0  0
  191.8920  177.1000  146.0960 O   0  0  0  0  0  1  0  0  0  0  0  0
  1 12  1  0  0  0  0
  2 30  1  6  0  0  0
  4  3  1  6  0  0  0
  4  1  1  0  0  0  0
  4  7  1  0  0  0  0
  5  9  1  0  0  0  0
  6  3  2  0  0  0  0
  6 10  1  0  0  0  0
  7  8  1  6  0  0  0
  7  2  1  0  0  0  0
 10  8  2  0  0  0  0
 11 22  1  6  0  0  0
 11  1  1  0  0  0  0
 11 13  1  0  0  0  0
 12  2  1  0  0  0  0
 12  5  2  0  0  0  0
 13  5  1  0  0  0  0
 14 17  1  0  0  0  0
 14 16  1  0  0  0  0
 16 19  1  0  0  0  0
 17 15  1  1  0  0  0
 17 21  1  0  0  0  0
 18 20  1  0  0  0  0
 19  6  1  1  0  0  0
 20 16  2  0  0  0  0
 21 19  1  0  0  0  0
 23 22  1  0  0  0  0
 24 26  1  0  0  0  0
 25 29  1  0  0  0  0
 26 25  1  0  0  0  0
 27 24  2  0  0  0  0
 27 28  1  0  0  0  0
 28 25  2  0  0  0  0
 29 23  1  0  0  0  0
 31 30  1  0  0  0  0
 31 32  1  0  0  0  0
M  END
>  <MODEL>
5

>  <REMARK>
 VINA RESULT:      -8.4      1.555      1.872
  Name = 
  6 active torsions:
  status: ('A' for Active; 'I' for Inactive)
    1  A    between atoms: C_2  and  C_17
    2  A    between atoms: N_7  and  C_17
    3  A    between atoms: C_9  and  C_27
    4  A    between atoms: C_9  and  C_30
    5  A    between atoms: C_15  and  C_19
    6  A    between atoms: N_28  and  C_30
                            x       y       z     vdW  Elec       q    Type
                         _______ _______ _______ _____ _____    ______ ____

>  <TORSDO>
F 6

$$$$
=
 OpenBabel10222416343D

 32 36  0  0  1  0  0  0  0  0999 V2000
  184.4400  178.6820  142.6400 N   0  0  0  0  0  0  0  0  0  0  0  0
  184.2010  178.6620  140.2980 C   0  0  2  0  0  3  0  0  0  0  0  0
  186.8220  178.2840  142.5150 N   0  0  0  0  0  0  0  0  0  0  0  0
  185.7020  179.1090  142.0510 C   0  0  1  0  0  3  0  0  0  0  0  0
  182.2550  178.7340  141.8890 C   0  0  0  0  0  0  0  0  0  0  0  0
  187.8030  177.9260  141.7300 C   0  0  0  0  0  0  0  0  0  0  0  0
  185.4790  178.9050  140.5770 C   0  0  1  0  0  3  0  0  0  0  0  0
  186.6210  178.6420  139.6980 C   0  0  0  0  0  3  0  0  0  0  0  0
  181.1820  178.9840  140.8850 C   0  0  0  0  0  1  0  0  0  0  0  0
  187.7440  178.1940  140.2660 C   0  0  0  0  0  3  0  0  0  0  0  0
  183.8370  179.2000  143.8570 C   0  0  1  0  0  3  0  0  0  0  0  0
  183.5260  178.5600  141.5810 C   0  0  0  0  0  0  0  0  0  0  0  0
  182.0170  179.0390  143.6390 S   0  0  0  0  0  0  0  0  0  0  0  0
  191.1700  177.7810  142.0920 O   0  0  0  0  0  0  0  0  0  0  0  0
  191.2470  177.0770  139.8020 C   0  0  0  0  0  1  0  0  0  0  0  0
  190.0240  178.0680  142.7690 C   0  0  0  0  0  0  0  0  0  0  0  0
  190.9160  176.6900  141.2300 C   0  0  2  0  0  3  0  0  0  0  0  0
  190.9910  179.7630  144.0450 F   0  0  0  0  0  0  0  0  0  0  0  0
  188.9550  177.1670  142.3140 C   0  0  2  0  0  3  0  0  0  0  0  0
  189.9200  179.0030  143.7060 C   0  0  0  0  0  3  0  0  0  0  0  0
  189.5400  176.3360  141.3270 O   0  0  0  0  0  0  0  0  0  0  0  0
  184.2700  178.3720  145.0530 C   0  0  0  0  0  2  0  0  0  0  0  0
  185.4140  179.0560  145.7790 C   0  0  0  0  0  2  0  0  0  0  0  0
  189.2500  177.3580  148.0010 C   0  0  0  0  0  3  0  0  0  0  0  0
  187.5390  178.0370  146.7020 C   0  0  0  0  0  0  0  0  0  0  0  0
  188.7850  177.2370  146.5870 C   0  0  0  0  0  2  0  0  0  0  0  0
  188.4230  178.0680  148.6960 N   0  0  0  0  0  0  0  0  0  0  0  0
  187.3610  178.4910  147.8940 N   0  0  0  0  0  0  0  0  0  0  0  0
  186.6380  178.2850  145.6210 N   0  0  0  0  0  2  0  0  0  0  0  0
  183.6530  178.2170  138.9770 C   0  0  0  0  0  2  0  0  0  0  0  0
  183.3660  176.7910  139.0030 N   0  0  0  0  0  2  0  0  0  0  0  0
  183.9220  176.2530  137.8910 O   0  0  0  0  0  1  0  0  0  0  0  0
  1 11  1  0  0  0  0
  2 30  1  1  0  0  0
  2  7  1  0  0  0  0
  2 12  1  0  0  0  0
  4  3  1  1  0  0  0
  4  1  1  0  0  0  0
  5 13  1  0  0  0  0
  6  3  2  0  0  0  0
  7  8  1  1  0  0  0
  7  4  1  0  0  0  0
  8 10  2  0  0  0  0
  9  5  1  0  0  0  0
 10  6  1  0  0  0  0
 11 22  1  1  0  0  0
 12  5  2  0  0  0  0
 12  1  1  0  0  0  0
 13 11  1  0  0  0  0
 14 16  1  0  0  0  0
 16 20  2  0  0  0  0
 17 15  1  6  0  0  0
 17 21  1  0  0  0  0
 17 14  1  0  0  0  0
 19  6  1  6  0  0  0
 19 16  1  0  0  0  0
 20 18  1  0  0  0  0
 21 19  1  0  0  0  0
 22 23  1  0  0  0  0
 24 27  2  0  0  0  0
 25 28  2  0  0  0  0
 26 25  1  0  0  0  0
 26 24  1  0  0  0  0
 28 27  1  0  0  0  0
 29 23  1  0  0  0  0
 29 25  1  0  0  0  0
 30 31  1  0  0  0  0
 32 31  1  0  0  0  0
M  END
>  <MODEL>
6

>  <REMARK>
 VINA RESULT:      -8.4      2.635      6.650
  Name = 
  6 active torsions:
  status: ('A' for Active; 'I' for Inactive)
    1  A    between atoms: C_2  and  C_17
    2  A    between atoms: N_7  and  C_17
    3  A    between atoms: C_9  and  C_27
    4  A    between atoms: C_9  and  C_30
    5  A    between atoms: C_15  and  C_19
    6  A    between atoms: N_28  and  C_30
                            x       y       z     vdW  Elec       q    Type
                         _______ _______ _______ _____ _____    ______ ____

>  <TORSDO>
F 6

$$$$
=
 OpenBabel10222416343D

 32 36  0  0  1  0  0  0  0  0999 V2000
  186.5120  178.3110  141.9700 N   0  0  0  0  0  0  0  0  0  0  0  0
  186.0580  178.1380  144.2740 C   0  0  2  0  0  3  0  0  0  0  0  0
  184.1860  178.6900  141.4240 N   0  0  0  0  0  0  0  0  0  0  0  0
  185.3200  179.0980  142.2600 C   0  0  1  0  0  3  0  0  0  0  0  0
  188.3050  177.6380  143.2630 C   0  0  0  0  0  0  0  0  0  0  0  0
  182.9630  178.6380  141.8790 C   0  0  0  0  0  0  0  0  0  0  0  0
  185.0440  178.7860  143.7050 C   0  0  1  0  0  3  0  0  0  0  0  0
  183.6750  178.8710  144.2190 C   0  0  0  0  0  3  0  0  0  0  0  0
  189.0720  177.5010  144.5330 C   0  0  0  0  0  1  0  0  0  0  0  0
  182.6800  178.8250  143.3300 C   0  0  0  0  0  3  0  0  0  0  0  0
  187.5610  178.6490  141.0230 C   0  0  1  0  0  3  0  0  0  0  0  0
  187.0070  177.8690  143.2070 C   0  0  0  0  0  0  0  0  0  0  0  0
  189.1100  177.9100  141.6840 S   0  0  0  0  0  0  0  0  0  0  0  0
  182.0800  178.2240  138.6330 O   0  0  0  0  0  0  0  0  0  0  0  0
  182.1680  180.6120  138.4490 C   0  0  0  0  0  1  0  0  0  0  0  0
  182.3370  177.5320  139.7770 C   0  0  0  0  0  0  0  0  0  0  0  0
  181.4020  179.4150  138.9760 C   0  0  2  0  0  3  0  0  0  0  0  0
  183.3050  175.7190  138.6760 F   0  0  0  0  0  0  0  0  0  0  0  0
  181.8530  178.3060  140.9290 C   0  0  2  0  0  3  0  0  0  0  0  0
  182.9130  176.3360  139.8180 C   0  0  0  0  0  3  0  0  0  0  0  0
  181.2990  179.4960  140.3940 O   0  0  0  0  0  0  0  0  0  0  0  0
  187.2590  178.0430  139.6650 C   0  0  0  0  0  2  0  0  0  0  0  0
  188.5500  177.6980  138.9450 C   0  0  0  0  0  2  0  0  0  0  0  0
  190.4280  173.8440  136.9060 C   0  0  0  0  0  3  0  0  0  0  0  0
  189.2970  175.6210  137.7080 C   0  0  0  0  0  0  0  0  0  0  0  0
  189.0920  174.4950  136.7610 C   0  0  0  0  0  2  0  0  0  0  0  0
  191.1650  174.4950  137.7470 N   0  0  0  0  0  0  0  0  0  0  0  0
  190.4680  175.5960  138.2450 N   0  0  0  0  0  0  0  0  0  0  0  0
  188.3190  176.6220  137.9920 N   0  0  0  0  0  2  0  0  0  0  0  0
  186.0500  177.4980  145.6280 C   0  0  0  0  0  2  0  0  0  0  0  0
  186.3500  178.4830  146.6560 N   0  0  0  0  0  2  0  0  0  0  0  0
  185.1760  178.8150  147.2440 O   0  0  0  0  0  1  0  0  0  0  0  0
  1  4  1  0  0  0  0
  1 12  1  0  0  0  0
  2 30  1  6  0  0  0
  3  6  2  0  0  0  0
  4  3  1  6  0  0  0
  4  7  1  0  0  0  0
  5  9  1  0  0  0  0
  6 10  1  0  0  0  0
  7  8  1  6  0  0  0
  7  2  1  0  0  0  0
 10  8  2  0  0  0  0
 11 22  1  6  0  0  0
 11 13  1  0  0  0  0
 11  1  1  0  0  0  0
 12  5  2  0  0  0  0
 12  2  1  0  0  0  0
 13  5  1  0  0  0  0
 14 17  1  0  0  0  0
 14 16  1  0  0  0  0
 16 20  2  0  0  0  0
 16 19  1  0  0  0  0
 17 15  1  1  0  0  0
 17 21  1  0  0  0  0
 18 20  1  0  0  0  0
 19  6  1  1  0  0  0
 21 19  1  0  0  0  0
 23 22  1  0  0  0  0
 24 27  2  0  0  0  0
 25 29  1  0  0  0  0
 25 28  2  0  0  0  0
 26 24  1  0  0  0  0
 26 25  1  0  0  0  0
 27 28  1  0  0  0  0
 29 23  1  0  0  0  0
 30 31  1  0  0  0  0
 31 32  1  0  0  0  0
M  END
>  <MODEL>
7

>  <REMARK>
 VINA RESULT:      -8.3      3.541      6.728
  Name = 
  6 active torsions:
  status: ('A' for Active; 'I' for Inactive)
    1  A    between atoms: C_2  and  C_17
    2  A    between atoms: N_7  and  C_17
    3  A    between atoms: C_9  and  C_27
    4  A    between atoms: C_9  and  C_30
    5  A    between atoms: C_15  and  C_19
    6  A    between atoms: N_28  and  C_30
                            x       y       z     vdW  Elec       q    Type
                         _______ _______ _______ _____ _____    ______ ____

>  <TORSDO>
F 6

$$$$
=
 OpenBabel10222416343D

 32 36  0  0  1  0  0  0  0  0999 V2000
  187.7100  178.0870  142.0920 N   0  0  0  0  0  0  0  0  0  0  0  0
  186.3310  178.0700  144.0010 C   0  0  2  0  0  3  0  0  0  0  0  0
  185.8760  178.6840  140.6330 N   0  0  0  0  0  0  0  0  0  0  0  0
  186.6050  179.0080  141.8640 C   0  0  1  0  0  3  0  0  0  0  0  0
  188.7210  177.2890  144.0110 C   0  0  0  0  0  0  0  0  0  0  0  0
  184.5770  178.7820  140.5400 C   0  0  0  0  0  0  0  0  0  0  0  0
  185.7240  178.7950  143.0640 C   0  0  1  0  0  3  0  0  0  0  0  0
  184.2850  179.0480  142.9660 C   0  0  0  0  0  3  0  0  0  0  0  0
  188.8770  177.1300  145.4840 C   0  0  0  0  0  1  0  0  0  0  0  0
  183.7460  179.0650  141.7440 C   0  0  0  0  0  3  0  0  0  0  0  0
  189.0870  178.2680  141.6650 C   0  0  1  0  0  3  0  0  0  0  0  0
  187.5980  177.6530  143.4230 C   0  0  0  0  0  0  0  0  0  0  0  0
  190.1300  177.4000  142.9080 S   0  0  0  0  0  0  0  0  0  0  0  0
  184.0820  176.5420  138.0460 O   0  0  0  0  0  0  0  0  0  0  0  0
  186.3450  176.9820  137.3890 C   0  0  0  0  0  1  0  0  0  0  0  0
  183.4590  177.1370  139.0990 C   0  0  0  0  0  0  0  0  0  0  0  0
  184.9190  177.4970  137.4260 C   0  0  2  0  0  3  0  0  0  0  0  0
  182.1990  175.2540  139.6490 F   0  0  0  0  0  0  0  0  0  0  0  0
  183.9260  178.5260  139.2150 C   0  0  2  0  0  3  0  0  0  0  0  0
  182.5550  176.5440  139.8700 C   0  0  0  0  0  3  0  0  0  0  0  0
  184.8650  178.7090  138.1690 O   0  0  0  0  0  0  0  0  0  0  0  0
  189.3030  177.6340  140.3030 C   0  0  0  0  0  2  0  0  0  0  0  0
  190.5460  176.7620  140.3200 C   0  0  0  0  0  2  0  0  0  0  0  0
  193.4100  175.7620  136.6690 C   0  0  0  0  0  3  0  0  0  0  0  0
  191.8490  176.0670  138.2660 C   0  0  0  0  0  0  0  0  0  0  0  0
  192.0180  175.3260  136.9900 C   0  0  0  0  0  2  0  0  0  0  0  0
  193.8610  176.5590  137.5820 N   0  0  0  0  0  0  0  0  0  0  0  0
  192.8970  176.7510  138.5730 N   0  0  0  0  0  0  0  0  0  0  0  0
  190.6650  176.0370  139.0640 N   0  0  0  0  0  2  0  0  0  0  0  0
  185.6930  177.4980  145.2300 C   0  0  0  0  0  2  0  0  0  0  0  0
  185.7830  178.4420  146.3330 N   0  0  0  0  0  2  0  0  0  0  0  0
  184.5480  178.9690  146.5070 O   0  0  0  0  0  1  0  0  0  0  0  0
  1 12  1  0  0  0  0
  2 30  1  6  0  0  0
  4  3  1  6  0  0  0
  4  1  1  0  0  0  0
  4  7  1  0  0  0  0
  5  9  1  0  0  0  0
  6  3  2  0  0  0  0
  6 10  1  0  0  0  0
  7  8  1  6  0  0  0
  7  2  1  0  0  0  0
 10  8  2  0  0  0  0
 11 22  1  6  0  0  0
 11  1  1  0  0  0  0
 11 13  1  0  0  0  0
 12  2  1  0  0  0  0
 12  5  2  0  0  0  0
 13  5  1  0  0  0  0
 14 16  1  0  0  0  0
 16 19  1  0  0  0  0
 16 20  2  0  0  0  0
 17 15  1  1  0  0  0
 17 14  1  0  0  0  0
 17 21  1  0  0  0  0
 18 20  1  0  0  0  0
 19  6  1  1  0  0  0
 21 19  1  0  0  0  0
 22 23  1  0  0  0  0
 24 26  1  0  0  0  0
 24 27  2  0  0  0  0
 25 28  2  0  0  0  0
 25 29  1  0  0  0  0
 26 25  1  0  0  0  0
 27 28  1  0  0  0  0
 29 23  1  0  0  0  0
 30 31  1  0  0  0  0
 31 32  1  0  0  0  0
M  END
>  <MODEL>
8

>  <REMARK>
 VINA RESULT:      -8.1      3.217      6.373
  Name = 
  6 active torsions:
  status: ('A' for Active; 'I' for Inactive)
    1  A    between atoms: C_2  and  C_17
    2  A    between atoms: N_7  and  C_17
    3  A    between atoms: C_9  and  C_27
    4  A    between atoms: C_9  and  C_30
    5  A    between atoms: C_15  and  C_19
    6  A    between atoms: N_28  and  C_30
                            x       y       z     vdW  Elec       q    Type
                         _______ _______ _______ _____ _____    ______ ____

>  <TORSDO>
F 6

$$$$
=
 OpenBabel10222416343D

 32 36  0  0  1  0  0  0  0  0999 V2000
  184.9150  178.4010  142.3220 N   0  0  0  0  0  0  0  0  0  0  0  0
  184.7260  178.2240  144.6630 C   0  0  2  0  0  3  0  0  0  0  0  0
  187.2920  177.9600  142.3660 N   0  0  0  0  0  0  0  0  0  0  0  0
  185.9650  177.5100  142.7980 C   0  0  1  0  0  3  0  0  0  0  0  0
  182.8520  178.9960  143.1760 C   0  0  0  0  0  0  0  0  0  0  0  0
  188.3460  177.8730  143.1340 C   0  0  0  0  0  0  0  0  0  0  0  0
  185.8430  177.6010  144.2940 C   0  0  1  0  0  3  0  0  0  0  0  0
  187.0170  177.3620  145.1360 C   0  0  0  0  0  3  0  0  0  0  0  0
  181.7700  179.0040  144.2010 C   0  0  0  0  0  1  0  0  0  0  0  0
  188.2180  177.4700  144.5620 C   0  0  0  0  0  3  0  0  0  0  0  0
  184.1570  178.2620  141.0910 C   0  0  1  0  0  3  0  0  0  0  0  0
  184.1100  178.6960  143.4340 C   0  0  0  0  0  0  0  0  0  0  0  0
  182.5020  178.9960  141.4180 S   0  0  0  0  0  0  0  0  0  0  0  0
  191.2110  176.7820  141.6880 O   0  0  0  0  0  0  0  0  0  0  0  0
  191.8240  175.9530  143.8520 C   0  0  0  0  0  1  0  0  0  0  0  0
  190.0480  177.4370  141.4180 C   0  0  0  0  0  0  0  0  0  0  0  0
  191.6560  177.1750  142.9700 C   0  0  2  0  0  3  0  0  0  0  0  0
  189.8390  176.5520  139.2710 F   0  0  0  0  0  0  0  0  0  0  0  0
  189.6800  178.2650  142.5750 C   0  0  2  0  0  3  0  0  0  0  0  0
  189.3840  177.3460  140.2710 C   0  0  0  0  0  3  0  0  0  0  0  0
  190.6930  178.0540  143.5430 O   0  0  0  0  0  0  0  0  0  0  0  0
  184.8300  179.0310  139.9680 C   0  0  0  0  0  2  0  0  0  0  0  0
  185.2780  178.0800  138.8730 C   0  0  0  0  0  2  0  0  0  0  0  0
  188.9640  177.0320  136.0710 C   0  0  0  0  0  3  0  0  0  0  0  0
  187.3160  177.8080  137.3990 C   0  0  0  0  0  0  0  0  0  0  0  0
  188.5040  178.3210  136.6710 C   0  0  0  0  0  2  0  0  0  0  0  0
  188.1810  176.0630  136.4170 N   0  0  0  0  0  0  0  0  0  0  0  0
  187.1590  176.5390  137.2400 N   0  0  0  0  0  0  0  0  0  0  0  0
  186.4460  178.6170  138.1920 N   0  0  0  0  0  2  0  0  0  0  0  0
  184.3780  178.6690  146.0500 C   0  0  0  0  0  2  0  0  0  0  0  0
  185.3040  179.6970  146.5000 N   0  0  0  0  0  2  0  0  0  0  0  0
  185.8250  179.2750  147.6770 O   0  0  0  0  0  1  0  0  0  0  0  0
  1  4  1  0  0  0  0
  1 12  1  0  0  0  0
  2 30  1  1  0  0  0
  3  6  2  0  0  0  0
  4  3  1  1  0  0  0
  4  7  1  0  0  0  0
  5 12  2  0  0  0  0
  5  9  1  0  0  0  0
  6 10  1  0  0  0  0
  7  2  1  0  0  0  0
  7  8  1  6  0  0  0
 10  8  2  0  0  0  0
 11 22  1  6  0  0  0
 11 13  1  0  0  0  0
 11  1  1  0  0  0  0
 12  2  1  0  0  0  0
 13  5  1  0  0  0  0
 14 17  1  0  0  0  0
 16 14  1  0  0  0  0
 16 19  1  0  0  0  0
 17 21  1  0  0  0  0
 17 15  1  1  0  0  0
 18 20  1  0  0  0  0
 19  6  1  1  0  0  0
 19 21  1  0  0  0  0
 20 16  2  0  0  0  0
 23 22  1  0  0  0  0
 24 27  2  0  0  0  0
 24 26  1  0  0  0  0
 25 29  1  0  0  0  0
 26 25  1  0  0  0  0
 27 28  1  0  0  0  0
 28 25  2  0  0  0  0
 29 23  1  0  0  0  0
 30 31  1  0  0  0  0
 31 32  1  0  0  0  0
M  END
>  <MODEL>
9

>  <REMARK>
 VINA RESULT:      -8.0      2.902      4.895
  Name = 
  6 active torsions:
  status: ('A' for Active; 'I' for Inactive)
    1  A    between atoms: C_2  and  C_17
    2  A    between atoms: N_7  and  C_17
    3  A    between atoms: C_9  and  C_27
    4  A    between atoms: C_9  and  C_30
    5  A    between atoms: C_15  and  C_19
    6  A    between atoms: N_28  and  C_30
                            x       y       z     vdW  Elec       q    Type
                         _______ _______ _______ _____ _____    ______ ____

>  <TORSDO>
F 6

$$$$
