=
 OpenBabel10222417083D

 25 27  0  0  1  0  0  0  0  0999 V2000
  186.4660  178.1460  143.3090 C   0  0  0  0  0  3  0  0  0  0  0  0
  184.0760  178.8820  143.7680 C   0  0  0  0  0  1  0  0  0  0  0  0
  187.2740  178.0340  145.3260 C   0  0  0  0  0  0  0  0  0  0  0  0
  188.4290  177.1810  140.9850 C   0  0  0  0  0  2  0  0  0  0  0  0
  190.2660  177.3360  147.2870 O   0  0  0  0  0  0  0  0  0  0  0  0
  188.6590  176.5640  142.2460 O   0  0  0  0  0  0  0  0  0  0  0  0
  190.2290  178.3570  145.1410 C   0  0  0  0  0  2  0  0  0  0  0  0
  190.8150  176.7830  140.3950 C   0  0  1  0  0  3  0  0  0  0  0  0
  185.4580  178.5110  144.1790 C   0  0  0  0  0  0  0  0  0  0  0  0
  191.1490  176.9530  143.2840 N   0  0  0  0  0  0  0  0  0  0  0  0
  187.5840  177.8680  144.0150 N   0  0  0  0  0  0  0  0  0  0  0  0
  189.7070  177.8240  140.4650 C   0  0  0  0  0  2  0  0  0  0  0  0
  185.9560  178.4280  145.4680 C   0  0  0  0  0  0  0  0  0  0  0  0
  188.1460  177.7330  146.4230 N   0  0  0  0  0  2  0  0  0  0  0  0
  191.9420  177.8370  142.4370 C   0  0  0  0  0  2  0  0  0  0  0  0
  191.0590  176.3840  138.9540 C   0  0  0  0  0  1  0  0  0  0  0  0
  188.7760  177.3110  143.4210 C   0  0  0  0  0  0  0  0  0  0  0  0
  190.0020  177.4850  143.9520 C   0  0  0  0  0  0  0  0  0  0  0  0
  192.1160  177.2780  141.0220 C   0  0  0  0  0  2  0  0  0  0  0  0
  189.5680  177.7730  146.3360 C   0  0  0  0  0  0  0  0  0  0  0  0
  185.7130  179.6530  147.6580 N   0  0  0  0  0  1  0  0  0  0  0  0
  184.1670  178.0660  146.9910 O   0  0  0  0  0  0  0  0  0  0  0  0
  185.2280  178.6900  146.7270 C   0  0  0  0  0  0  0  0  0  0  0  0
  191.6470  175.6940  143.6540 C   0  0  0  0  0  0  0  0  0  0  0  0
  192.0570  174.6560  143.9600 N   0  0  0  0  0  0  0  0  0  0  0  0
  1 11  1  0  0  0  0
  1  9  2  0  0  0  0
  2  9  1  0  0  0  0
  3 13  2  0  0  0  0
  3 14  1  0  0  0  0
  4  6  1  0  0  0  0
  6 17  1  0  0  0  0
  7 20  1  0  0  0  0
  8 16  1  6  0  0  0
  8 12  1  0  0  0  0
  8 19  1  0  0  0  0
  9 13  1  0  0  0  0
 10 24  1  0  0  0  0
 10 18  1  0  0  0  0
 11  3  1  0  0  0  0
 12  4  1  0  0  0  0
 13 23  1  0  0  0  0
 15 10  1  0  0  0  0
 17 18  2  0  0  0  0
 17 11  1  0  0  0  0
 18  7  1  0  0  0  0
 19 15  1  0  0  0  0
 20 14  1  0  0  0  0
 20  5  2  0  0  0  0
 23 22  2  0  0  0  0
 23 21  1  0  0  0  0
 24 25  3  0  0  0  0
M  END
>  <MODEL>
1

>  <REMARK>
 VINA RESULT:      -8.2      0.000      0.000
  Name = 
  2 active torsions:
  status: ('A' for Active; 'I' for Inactive)
    1  A    between atoms: N_12  and  C_18
    2  A    between atoms: C_15  and  C_21
                            x       y       z     vdW  Elec       q    Type
                         _______ _______ _______ _____ _____    ______ ____

>  <TORSDO>
F 2

$$$$
=
 OpenBabel10222417083D

 25 27  0  0  1  0  0  0  0  0999 V2000
  184.6820  178.4530  143.2330 C   0  0  0  0  0  3  0  0  0  0  0  0
  182.3380  178.7220  142.2850 C   0  0  0  0  0  1  0  0  0  0  0  0
  185.8860  178.5210  141.4220 C   0  0  0  0  0  0  0  0  0  0  0  0
  186.3190  178.3100  145.9690 C   0  0  0  0  0  2  0  0  0  0  0  0
  189.2790  178.3110  140.1080 O   0  0  0  0  0  0  0  0  0  0  0  0
  187.0050  178.9570  144.9030 O   0  0  0  0  0  0  0  0  0  0  0  0
  188.4460  177.1050  141.9790 C   0  0  0  0  0  2  0  0  0  0  0  0
  188.5170  177.7150  146.9760 C   0  0  1  0  0  3  0  0  0  0  0  0
  183.8180  178.6050  142.1670 C   0  0  0  0  0  0  0  0  0  0  0  0
  189.3750  177.8130  144.1930 N   0  0  0  0  0  0  0  0  0  0  0  0
  185.9500  178.3870  142.7710 N   0  0  0  0  0  0  0  0  0  0  0  0
  187.1630  177.1770  146.5360 C   0  0  0  0  0  2  0  0  0  0  0  0
  184.5740  178.6650  141.0090 C   0  0  0  0  0  0  0  0  0  0  0  0
  187.0190  178.6180  140.5490 N   0  0  0  0  0  2  0  0  0  0  0  0
  189.6230  176.5950  144.9570 C   0  0  0  0  0  2  0  0  0  0  0  0
  188.5720  177.8030  148.4870 C   0  0  0  0  0  1  0  0  0  0  0  0
  187.1070  178.3800  143.6350 C   0  0  0  0  0  0  0  0  0  0  0  0
  188.2840  177.8350  143.2690 C   0  0  0  0  0  0  0  0  0  0  0  0
  189.6740  176.8590  146.4650 C   0  0  0  0  0  2  0  0  0  0  0  0
  188.2900  178.0440  140.8380 C   0  0  0  0  0  0  0  0  0  0  0  0
  184.1310  180.1420  139.0140 N   0  0  0  0  0  1  0  0  0  0  0  0
  183.6180  177.8860  138.9770 O   0  0  0  0  0  0  0  0  0  0  0  0
  184.0830  178.8580  139.6280 C   0  0  0  0  0  0  0  0  0  0  0  0
  190.3360  178.8350  144.1580 C   0  0  0  0  0  0  0  0  0  0  0  0
  191.1290  179.6770  144.1290 N   0  0  0  0  0  0  0  0  0  0  0  0
  3 11  1  0  0  0  0
  4 12  1  0  0  0  0
  5 20  2  0  0  0  0
  6  4  1  0  0  0  0
  7 18  1  0  0  0  0
  8 16  1  1  0  0  0
  9  2  1  0  0  0  0
  9  1  2  0  0  0  0
 10 15  1  0  0  0  0
 11  1  1  0  0  0  0
 11 17  1  0  0  0  0
 12  8  1  0  0  0  0
 13  3  2  0  0  0  0
 13  9  1  0  0  0  0
 14 20  1  0  0  0  0
 14  3  1  0  0  0  0
 15 19  1  0  0  0  0
 17  6  1  0  0  0  0
 18 17  2  0  0  0  0
 18 10  1  0  0  0  0
 19  8  1  0  0  0  0
 20  7  1  0  0  0  0
 21 23  1  0  0  0  0
 22 23  2  0  0  0  0
 23 13  1  0  0  0  0
 24 10  1  0  0  0  0
 25 24  3  0  0  0  0
M  END
>  <MODEL>
2

>  <REMARK>
 VINA RESULT:      -8.1      2.716      5.393
  Name = 
  2 active torsions:
  status: ('A' for Active; 'I' for Inactive)
    1  A    between atoms: N_12  and  C_18
    2  A    between atoms: C_15  and  C_21
                            x       y       z     vdW  Elec       q    Type
                         _______ _______ _______ _____ _____    ______ ____

>  <TORSDO>
F 2

$$$$
=
 OpenBabel10222417083D

 25 27  0  0  1  0  0  0  0  0999 V2000
  187.0030  177.8330  139.2990 C   0  0  0  0  0  3  0  0  0  0  0  0
  185.9970  177.7130  136.9670 C   0  0  0  0  0  1  0  0  0  0  0  0
  189.1240  177.6230  138.8610 C   0  0  0  0  0  0  0  0  0  0  0  0
  186.2780  178.3860  142.3580 C   0  0  0  0  0  2  0  0  0  0  0  0
  192.4500  177.4190  140.3360 O   0  0  0  0  0  0  0  0  0  0  0  0
  187.5630  178.8530  141.9620 O   0  0  0  0  0  0  0  0  0  0  0  0
  190.4560  176.5600  141.3030 C   0  0  0  0  0  2  0  0  0  0  0  0
  187.1110  178.1870  144.6960 C   0  0  1  0  0  3  0  0  0  0  0  0
  187.1300  177.6930  137.9320 C   0  0  0  0  0  0  0  0  0  0  0  0
  189.6560  177.7790  143.3380 N   0  0  0  0  0  0  0  0  0  0  0  0
  188.2270  177.7750  139.8680 N   0  0  0  0  0  0  0  0  0  0  0  0
  186.3950  177.4630  143.5640 C   0  0  0  0  0  2  0  0  0  0  0  0
  188.4780  177.5750  137.6390 C   0  0  0  0  0  0  0  0  0  0  0  0
  190.5480  177.6290  139.0180 N   0  0  0  0  0  2  0  0  0  0  0  0
  189.2020  176.7680  144.2860 C   0  0  0  0  0  2  0  0  0  0  0  0
  186.1150  178.5870  145.7650 C   0  0  0  0  0  1  0  0  0  0  0  0
  188.4610  178.0370  141.2690 C   0  0  0  0  0  0  0  0  0  0  0  0
  189.5120  177.5250  141.9380 C   0  0  0  0  0  0  0  0  0  0  0  0
  188.2210  177.3390  145.3140 C   0  0  0  0  0  2  0  0  0  0  0  0
  191.2130  177.2290  140.2140 C   0  0  0  0  0  0  0  0  0  0  0  0
  189.6780  176.2080  135.8930 N   0  0  0  0  0  1  0  0  0  0  0  0
  189.1100  178.4170  135.5080 O   0  0  0  0  0  0  0  0  0  0  0  0
  189.0950  177.4410  136.3020 C   0  0  0  0  0  0  0  0  0  0  0  0
  190.4600  178.8450  143.7710 C   0  0  0  0  0  0  0  0  0  0  0  0
  191.1220  179.7240  144.1280 N   0  0  0  0  0  0  0  0  0  0  0  0
  1 11  1  0  0  0  0
  2  9  1  0  0  0  0
  3 14  1  0  0  0  0
  3 11  1  0  0  0  0
  4 12  1  0  0  0  0
  6  4  1  0  0  0  0
  7 18  1  0  0  0  0
  8 19  1  0  0  0  0
  8 16  1  1  0  0  0
  9  1  2  0  0  0  0
 10 24  1  0  0  0  0
 10 15  1  0  0  0  0
 11 17  1  0  0  0  0
 12  8  1  0  0  0  0
 13  9  1  0  0  0  0
 13  3  2  0  0  0  0
 14 20  1  0  0  0  0
 15 19  1  0  0  0  0
 17 18  2  0  0  0  0
 17  6  1  0  0  0  0
 18 10  1  0  0  0  0
 20  5  2  0  0  0  0
 20  7  1  0  0  0  0
 21 23  1  0  0  0  0
 22 23  2  0  0  0  0
 23 13  1  0  0  0  0
 24 25  3  0  0  0  0
M  END
>  <MODEL>
3

>  <REMARK>
 VINA RESULT:      -7.5      3.189      6.641
  Name = 
  2 active torsions:
  status: ('A' for Active; 'I' for Inactive)
    1  A    between atoms: N_12  and  C_18
    2  A    between atoms: C_15  and  C_21
                            x       y       z     vdW  Elec       q    Type
                         _______ _______ _______ _____ _____    ______ ____

>  <TORSDO>
F 2

$$$$
=
 OpenBabel10222417083D

 25 27  0  0  1  0  0  0  0  0999 V2000
  188.3740  177.8250  139.6650 C   0  0  0  0  0  3  0  0  0  0  0  0
  189.0060  177.7620  137.2020 C   0  0  0  0  0  1  0  0  0  0  0  0
  190.0420  176.7530  140.5610 C   0  0  0  0  0  0  0  0  0  0  0  0
  186.2650  179.0540  141.7200 C   0  0  0  0  0  2  0  0  0  0  0  0
  191.4230  175.5020  143.6930 O   0  0  0  0  0  0  0  0  0  0  0  0
  187.5860  178.9270  142.2340 O   0  0  0  0  0  0  0  0  0  0  0  0
  189.1110  175.6280  143.1560 C   0  0  0  0  0  2  0  0  0  0  0  0
  185.3830  178.8930  144.0430 C   0  0  1  0  0  3  0  0  0  0  0  0
  189.2220  177.4480  138.6410 C   0  0  0  0  0  0  0  0  0  0  0  0
  187.8180  177.3440  144.4410 N   0  0  0  0  0  0  0  0  0  0  0  0
  188.8730  177.3830  140.8400 N   0  0  0  0  0  0  0  0  0  0  0  0
  185.2690  178.3440  142.6280 C   0  0  0  0  0  2  0  0  0  0  0  0
  190.2960  176.7790  139.2020 C   0  0  0  0  0  0  0  0  0  0  0  0
  190.9520  176.2330  141.5380 N   0  0  0  0  0  2  0  0  0  0  0  0
  186.5390  176.7350  144.7920 C   0  0  0  0  0  2  0  0  0  0  0  0
  184.2050  179.7970  144.3430 C   0  0  0  0  0  1  0  0  0  0  0  0
  188.3090  177.7370  142.1210 C   0  0  0  0  0  0  0  0  0  0  0  0
  188.4480  176.9630  143.2150 C   0  0  0  0  0  0  0  0  0  0  0  0
  185.4630  177.7840  145.0900 C   0  0  0  0  0  2  0  0  0  0  0  0
  190.5520  175.7870  142.8320 C   0  0  0  0  0  0  0  0  0  0  0  0
  191.4420  174.9020  137.9680 N   0  0  0  0  0  1  0  0  0  0  0  0
  192.5120  176.9170  138.3530 O   0  0  0  0  0  0  0  0  0  0  0  0
  191.4710  176.2240  138.4970 C   0  0  0  0  0  0  0  0  0  0  0  0
  188.5430  178.0690  145.3990 C   0  0  0  0  0  0  0  0  0  0  0  0
  189.1400  178.6670  146.1890 N   0  0  0  0  0  0  0  0  0  0  0  0
  1 11  1  0  0  0  0
  2  9  1  0  0  0  0
  3 11  1  0  0  0  0
  3 14  1  0  0  0  0
  4  6  1  0  0  0  0
  4 12  1  0  0  0  0
  7 18  1  0  0  0  0
  8 16  1  1  0  0  0
  8 19  1  0  0  0  0
  9 13  1  0  0  0  0
  9  1  2  0  0  0  0
 10 15  1  0  0  0  0
 10 24  1  0  0  0  0
 11 17  1  0  0  0  0
 12  8  1  0  0  0  0
 13  3  2  0  0  0  0
 14 20  1  0  0  0  0
 15 19  1  0  0  0  0
 17  6  1  0  0  0  0
 17 18  2  0  0  0  0
 18 10  1  0  0  0  0
 20  7  1  0  0  0  0
 20  5  2  0  0  0  0
 21 23  1  0  0  0  0
 22 23  2  0  0  0  0
 23 13  1  0  0  0  0
 24 25  3  0  0  0  0
M  END
>  <MODEL>
4

>  <REMARK>
 VINA RESULT:      -7.0      2.306      6.522
  Name = 
  2 active torsions:
  status: ('A' for Active; 'I' for Inactive)
    1  A    between atoms: N_12  and  C_18
    2  A    between atoms: C_15  and  C_21
                            x       y       z     vdW  Elec       q    Type
                         _______ _______ _______ _____ _____    ______ ____

>  <TORSDO>
F 2

$$$$
=
 OpenBabel10222417083D

 25 27  0  0  1  0  0  0  0  0999 V2000
  187.5990  177.8690  142.7890 C   0  0  0  0  0  3  0  0  0  0  0  0
  188.9640  177.4370  144.8910 C   0  0  0  0  0  1  0  0  0  0  0  0
  185.6500  178.3410  143.6350 C   0  0  0  0  0  0  0  0  0  0  0  0
  187.8330  178.1640  139.6200 C   0  0  0  0  0  2  0  0  0  0  0  0
  182.2000  179.1990  142.8330 O   0  0  0  0  0  0  0  0  0  0  0  0
  186.8620  179.0140  140.2230 O   0  0  0  0  0  0  0  0  0  0  0  0
  183.5940  177.7540  141.5620 C   0  0  0  0  0  2  0  0  0  0  0  0
  186.5300  178.2390  137.5000 C   0  0  1  0  0  3  0  0  0  0  0  0
  187.7110  177.7770  144.1630 C   0  0  0  0  0  0  0  0  0  0  0  0
  184.3080  178.6570  139.3390 N   0  0  0  0  0  0  0  0  0  0  0  0
  186.3300  178.2010  142.4680 N   0  0  0  0  0  0  0  0  0  0  0  0
  187.1970  177.3260  138.5190 C   0  0  0  0  0  2  0  0  0  0  0  0
  186.4800  178.0910  144.7130 C   0  0  0  0  0  0  0  0  0  0  0  0
  184.2970  178.7970  143.7500 N   0  0  0  0  0  2  0  0  0  0  0  0
  184.2280  177.5550  138.3880 C   0  0  0  0  0  2  0  0  0  0  0  0
  187.3650  178.3040  136.2380 C   0  0  0  0  0  1  0  0  0  0  0  0
  185.9130  178.5240  141.1240 C   0  0  0  0  0  0  0  0  0  0  0  0
  184.6440  178.3700  140.6990 C   0  0  0  0  0  0  0  0  0  0  0  0
  185.1110  177.7860  137.1580 C   0  0  0  0  0  2  0  0  0  0  0  0
  183.3160  178.6280  142.7300 C   0  0  0  0  0  0  0  0  0  0  0  0
  185.6810  179.3780  146.7280 N   0  0  0  0  0  1  0  0  0  0  0  0
  186.2280  177.1350  146.8740 O   0  0  0  0  0  0  0  0  0  0  0  0
  186.1320  178.1580  146.1480 C   0  0  0  0  0  0  0  0  0  0  0  0
  183.8060  179.9230  139.0000 C   0  0  0  0  0  0  0  0  0  0  0  0
  183.3910  180.9660  138.7190 N   0  0  0  0  0  0  0  0  0  0  0  0
  1  9  2  0  0  0  0
  3 14  1  0  0  0  0
  3 13  2  0  0  0  0
  4  6  1  0  0  0  0
  6 17  1  0  0  0  0
  7 20  1  0  0  0  0
  8 16  1  6  0  0  0
  8 12  1  0  0  0  0
  9 13  1  0  0  0  0
  9  2  1  0  0  0  0
 10 18  1  0  0  0  0
 11  1  1  0  0  0  0
 11  3  1  0  0  0  0
 12  4  1  0  0  0  0
 13 23  1  0  0  0  0
 15 10  1  0  0  0  0
 17 11  1  0  0  0  0
 18 17  2  0  0  0  0
 18  7  1  0  0  0  0
 19  8  1  0  0  0  0
 19 15  1  0  0  0  0
 20  5  2  0  0  0  0
 20 14  1  0  0  0  0
 23 21  1  0  0  0  0
 23 22  2  0  0  0  0
 24 10  1  0  0  0  0
 25 24  3  0  0  0  0
M  END
>  <MODEL>
5

>  <REMARK>
 VINA RESULT:      -7.0      3.477      5.860
  Name = 
  2 active torsions:
  status: ('A' for Active; 'I' for Inactive)
    1  A    between atoms: N_12  and  C_18
    2  A    between atoms: C_15  and  C_21
                            x       y       z     vdW  Elec       q    Type
                         _______ _______ _______ _____ _____    ______ ____

>  <TORSDO>
F 2

$$$$
=
 OpenBabel10222417083D

 25 27  0  0  1  0  0  0  0  0999 V2000
  186.3050  178.0130  145.7240 C   0  0  0  0  0  3  0  0  0  0  0  0
  183.8410  178.5310  146.0740 C   0  0  0  0  0  1  0  0  0  0  0  0
  186.4500  178.0710  143.5530 C   0  0  0  0  0  0  0  0  0  0  0  0
  189.0610  177.5870  147.2760 C   0  0  0  0  0  2  0  0  0  0  0  0
  188.7010  177.6390  140.7200 O   0  0  0  0  0  0  0  0  0  0  0  0
  189.1880  178.2270  146.0120 O   0  0  0  0  0  0  0  0  0  0  0  0
  188.7910  176.4130  142.7540 C   0  0  0  0  0  2  0  0  0  0  0  0
  191.3960  176.7530  147.0500 C   0  0  1  0  0  3  0  0  0  0  0  0
  185.0460  178.2940  145.2330 C   0  0  0  0  0  0  0  0  0  0  0  0
  190.7630  176.9210  144.2100 N   0  0  0  0  0  0  0  0  0  0  0  0
  187.1620  177.8620  144.6900 N   0  0  0  0  0  0  0  0  0  0  0  0
  189.9560  176.3570  147.3430 C   0  0  0  0  0  2  0  0  0  0  0  0
  185.1290  178.3500  143.8520 C   0  0  0  0  0  0  0  0  0  0  0  0
  187.0030  178.1160  142.2320 N   0  0  0  0  0  2  0  0  0  0  0  0
  191.2340  175.6490  144.7450 C   0  0  0  0  0  2  0  0  0  0  0  0
  192.2030  176.7570  148.3310 C   0  0  0  0  0  1  0  0  0  0  0  0
  188.5880  177.7100  144.8610 C   0  0  0  0  0  0  0  0  0  0  0  0
  189.3650  177.0860  143.9550 C   0  0  0  0  0  0  0  0  0  0  0  0
  192.0530  175.8280  146.0270 C   0  0  0  0  0  2  0  0  0  0  0  0
  188.1850  177.4200  141.8460 C   0  0  0  0  0  0  0  0  0  0  0  0
  183.9000  177.9140  141.6940 N   0  0  0  0  0  1  0  0  0  0  0  0
  183.2180  179.5780  143.1500 O   0  0  0  0  0  0  0  0  0  0  0  0
  184.0390  178.6560  142.9010 C   0  0  0  0  0  0  0  0  0  0  0  0
  191.6770  177.8570  143.7020 C   0  0  0  0  0  0  0  0  0  0  0  0
  192.4310  178.6290  143.2830 N   0  0  0  0  0  0  0  0  0  0  0  0
  3 13  2  0  0  0  0
  3 11  1  0  0  0  0
  4 12  1  0  0  0  0
  5 20  2  0  0  0  0
  6  4  1  0  0  0  0
  7 18  1  0  0  0  0
  8 12  1  0  0  0  0
  8 16  1  1  0  0  0
  9  1  2  0  0  0  0
  9  2  1  0  0  0  0
 10 15  1  0  0  0  0
 11 17  1  0  0  0  0
 11  1  1  0  0  0  0
 13  9  1  0  0  0  0
 14  3  1  0  0  0  0
 15 19  1  0  0  0  0
 17  6  1  0  0  0  0
 18 10  1  0  0  0  0
 18 17  2  0  0  0  0
 19  8  1  0  0  0  0
 20 14  1  0  0  0  0
 20  7  1  0  0  0  0
 21 23  1  0  0  0  0
 23 22  2  0  0  0  0
 23 13  1  0  0  0  0
 24 10  1  0  0  0  0
 25 24  3  0  0  0  0
M  END
>  <MODEL>
6

>  <REMARK>
 VINA RESULT:      -6.9      2.052      4.465
  Name = 
  2 active torsions:
  status: ('A' for Active; 'I' for Inactive)
    1  A    between atoms: N_12  and  C_18
    2  A    between atoms: C_15  and  C_21
                            x       y       z     vdW  Elec       q    Type
                         _______ _______ _______ _____ _____    ______ ____

>  <TORSDO>
F 2

$$$$
=
 OpenBabel10222417083D

 25 27  0  0  1  0  0  0  0  0999 V2000
  191.0020  176.3850  140.1500 C   0  0  0  0  0  3  0  0  0  0  0  0
  191.9120  175.9080  137.8240 C   0  0  0  0  0  1  0  0  0  0  0  0
  189.1150  177.3620  139.6780 C   0  0  0  0  0  0  0  0  0  0  0  0
  191.5390  175.8570  143.2510 C   0  0  0  0  0  2  0  0  0  0  0  0
  186.1670  178.9610  141.1030 O   0  0  0  0  0  0  0  0  0  0  0  0
  190.1640  175.8910  142.8870 O   0  0  0  0  0  0  0  0  0  0  0  0
  188.3630  179.0600  142.0060 C   0  0  0  0  0  2  0  0  0  0  0  0
  190.9120  176.5590  145.5550 C   0  0  1  0  0  3  0  0  0  0  0  0
  190.9010  176.4470  138.7740 C   0  0  0  0  0  0  0  0  0  0  0  0
  188.6850  177.8040  144.1470 N   0  0  0  0  0  0  0  0  0  0  0  0
  189.9110  176.9610  140.7010 N   0  0  0  0  0  0  0  0  0  0  0  0
  191.8200  176.8510  144.3700 C   0  0  0  0  0  2  0  0  0  0  0  0
  189.6960  177.0530  138.4610 C   0  0  0  0  0  0  0  0  0  0  0  0
  187.8040  177.9210  139.8240 N   0  0  0  0  0  2  0  0  0  0  0  0
  189.5200  178.6370  145.0050 C   0  0  0  0  0  2  0  0  0  0  0  0
  191.7040  175.8970  146.6630 C   0  0  0  0  0  1  0  0  0  0  0  0
  189.6310  176.9290  142.1180 C   0  0  0  0  0  0  0  0  0  0  0  0
  188.8790  177.8630  142.7310 C   0  0  0  0  0  0  0  0  0  0  0  0
  190.2320  177.8200  146.0870 C   0  0  0  0  0  2  0  0  0  0  0  0
  187.3780  178.6470  140.9740 C   0  0  0  0  0  0  0  0  0  0  0  0
  188.5290  176.2500  136.3750 N   0  0  0  0  0  1  0  0  0  0  0  0
  189.2050  178.4510  136.6020 O   0  0  0  0  0  0  0  0  0  0  0  0
  189.1420  177.3020  137.1130 C   0  0  0  0  0  0  0  0  0  0  0  0
  187.5450  177.1720  144.6660 C   0  0  0  0  0  0  0  0  0  0  0  0
  186.6040  176.6520  145.0940 N   0  0  0  0  0  0  0  0  0  0  0  0
  1 11  1  0  0  0  0
  2  9  1  0  0  0  0
  3 14  1  0  0  0  0
  3 11  1  0  0  0  0
  4 12  1  0  0  0  0
  6  4  1  0  0  0  0
  7 18  1  0  0  0  0
  8 19  1  0  0  0  0
  8 16  1  1  0  0  0
  9  1  2  0  0  0  0
 10 24  1  0  0  0  0
 10 15  1  0  0  0  0
 11 17  1  0  0  0  0
 12  8  1  0  0  0  0
 13  9  1  0  0  0  0
 13  3  2  0  0  0  0
 14 20  1  0  0  0  0
 15 19  1  0  0  0  0
 17 18  2  0  0  0  0
 17  6  1  0  0  0  0
 18 10  1  0  0  0  0
 20  5  2  0  0  0  0
 20  7  1  0  0  0  0
 21 23  1  0  0  0  0
 22 23  2  0  0  0  0
 23 13  1  0  0  0  0
 24 25  3  0  0  0  0
M  END
>  <MODEL>
7

>  <REMARK>
 VINA RESULT:      -6.5      2.681      6.626
  Name = 
  2 active torsions:
  status: ('A' for Active; 'I' for Inactive)
    1  A    between atoms: N_12  and  C_18
    2  A    between atoms: C_15  and  C_21
                            x       y       z     vdW  Elec       q    Type
                         _______ _______ _______ _____ _____    ______ ____

>  <TORSDO>
F 2

$$$$
=
 OpenBabel10222417083D

 25 27  0  0  1  0  0  0  0  0999 V2000
  188.0960  177.3690  143.0710 C   0  0  0  0  0  3  0  0  0  0  0  0
  187.4320  177.1280  145.5140 C   0  0  0  0  0  1  0  0  0  0  0  0
  186.3700  178.4170  142.2600 C   0  0  0  0  0  0  0  0  0  0  0  0
  190.5080  176.9070  141.0330 C   0  0  0  0  0  2  0  0  0  0  0  0
  184.8930  179.7920  139.2260 O   0  0  0  0  0  0  0  0  0  0  0  0
  189.7120  178.0540  140.7560 O   0  0  0  0  0  0  0  0  0  0  0  0
  186.2460  177.8410  139.3410 C   0  0  0  0  0  2  0  0  0  0  0  0
  191.1170  176.7910  138.6220 C   0  0  1  0  0  3  0  0  0  0  0  0
  187.2030  177.5580  144.1070 C   0  0  0  0  0  0  0  0  0  0  0  0
  188.5150  178.0630  138.3070 N   0  0  0  0  0  0  0  0  0  0  0  0
  187.5760  177.8840  141.9360 N   0  0  0  0  0  0  0  0  0  0  0  0
  190.5840  176.0030  139.8100 C   0  0  0  0  0  2  0  0  0  0  0  0
  186.1060  178.2390  143.6060 C   0  0  0  0  0  0  0  0  0  0  0  0
  185.5330  179.1640  141.3690 N   0  0  0  0  0  2  0  0  0  0  0  0
  188.7750  176.8220  137.5870 C   0  0  0  0  0  2  0  0  0  0  0  0
  192.5530  176.3990  138.3440 C   0  0  0  0  0  1  0  0  0  0  0  0
  188.3170  177.9860  140.7020 C   0  0  0  0  0  0  0  0  0  0  0  0
  187.7190  178.0160  139.4950 C   0  0  0  0  0  0  0  0  0  0  0  0
  190.2720  176.5860  137.3660 C   0  0  0  0  0  2  0  0  0  0  0  0
  185.5290  178.9880  139.9550 C   0  0  0  0  0  0  0  0  0  0  0  0
  185.0550  179.3830  145.5920 N   0  0  0  0  0  1  0  0  0  0  0  0
  183.7600  178.4710  143.9060 O   0  0  0  0  0  0  0  0  0  0  0  0
  184.9150  178.6910  144.3560 C   0  0  0  0  0  0  0  0  0  0  0  0
  188.7990  179.3010  137.7100 C   0  0  0  0  0  0  0  0  0  0  0  0
  189.0340  180.3210  137.2180 N   0  0  0  0  0  0  0  0  0  0  0  0
  1  9  2  0  0  0  0
  3 13  2  0  0  0  0
  5 20  2  0  0  0  0
  6  4  1  0  0  0  0
  7 18  1  0  0  0  0
  7 20  1  0  0  0  0
  8 16  1  6  0  0  0
  8 12  1  0  0  0  0
  9  2  1  0  0  0  0
 10 18  1  0  0  0  0
 11  3  1  0  0  0  0
 11  1  1  0  0  0  0
 12  4  1  0  0  0  0
 13  9  1  0  0  0  0
 13 23  1  0  0  0  0
 14  3  1  0  0  0  0
 15 10  1  0  0  0  0
 17  6  1  0  0  0  0
 17 11  1  0  0  0  0
 18 17  2  0  0  0  0
 19 15  1  0  0  0  0
 19  8  1  0  0  0  0
 20 14  1  0  0  0  0
 22 23  2  0  0  0  0
 23 21  1  0  0  0  0
 24 10  1  0  0  0  0
 25 24  3  0  0  0  0
M  END
>  <MODEL>
8

>  <REMARK>
 VINA RESULT:      -6.2      2.910      4.847
  Name = 
  2 active torsions:
  status: ('A' for Active; 'I' for Inactive)
    1  A    between atoms: N_12  and  C_18
    2  A    between atoms: C_15  and  C_21
                            x       y       z     vdW  Elec       q    Type
                         _______ _______ _______ _____ _____    ______ ____

>  <TORSDO>
F 2

$$$$
=
 OpenBabel10222417083D

 25 27  0  0  1  0  0  0  0  0999 V2000
  185.1620  178.1520  142.0610 C   0  0  0  0  0  3  0  0  0  0  0  0
  187.1150  177.8380  143.6600 C   0  0  0  0  0  1  0  0  0  0  0  0
  183.6340  178.9280  143.4020 C   0  0  0  0  0  0  0  0  0  0  0  0
  184.3550  178.0300  138.9760 C   0  0  0  0  0  2  0  0  0  0  0  0
  180.1710  180.0430  143.6190 O   0  0  0  0  0  0  0  0  0  0  0  0
  183.6910  179.0450  139.7210 O   0  0  0  0  0  0  0  0  0  0  0  0
  180.9780  178.3130  142.2030 C   0  0  0  0  0  2  0  0  0  0  0  0
  182.4330  177.9830  137.3940 C   0  0  1  0  0  3  0  0  0  0  0  0
  185.7150  178.2170  143.3250 C   0  0  0  0  0  0  0  0  0  0  0  0
  180.9720  178.8570  139.7600 N   0  0  0  0  0  0  0  0  0  0  0  0
  183.8800  178.5750  142.1140 N   0  0  0  0  0  0  0  0  0  0  0  0
  183.3420  177.1360  138.2730 C   0  0  0  0  0  2  0  0  0  0  0  0
  184.7560  178.7250  144.1840 C   0  0  0  0  0  0  0  0  0  0  0  0
  182.4240  179.5360  143.8720 N   0  0  0  0  0  2  0  0  0  0  0  0
  180.5160  177.6610  139.0610 C   0  0  0  0  0  2  0  0  0  0  0  0
  182.8080  177.8040  135.9380 C   0  0  0  0  0  1  0  0  0  0  0  0
  183.0640  178.7730  140.9400 C   0  0  0  0  0  0  0  0  0  0  0  0
  181.7190  178.7040  140.9700 C   0  0  0  0  0  0  0  0  0  0  0  0
  180.9560  177.6450  137.5940 C   0  0  0  0  0  2  0  0  0  0  0  0
  181.1540  179.3480  143.2540 C   0  0  0  0  0  0  0  0  0  0  0  0
  184.1790  178.2490  146.5930 N   0  0  0  0  0  1  0  0  0  0  0  0
  185.6800  179.9150  146.0230 O   0  0  0  0  0  0  0  0  0  0  0  0
  184.9050  179.0050  145.6280 C   0  0  0  0  0  0  0  0  0  0  0  0
  180.4630  180.1170  139.4120 C   0  0  0  0  0  0  0  0  0  0  0  0
  180.0430  181.1570  139.1250 N   0  0  0  0  0  0  0  0  0  0  0  0
  1 11  1  0  0  0  0
  1  9  2  0  0  0  0
  3 14  1  0  0  0  0
  3 13  2  0  0  0  0
  4  6  1  0  0  0  0
  6 17  1  0  0  0  0
  7 20  1  0  0  0  0
  8 16  1  6  0  0  0
  8 19  1  0  0  0  0
  8 12  1  0  0  0  0
  9  2  1  0  0  0  0
  9 13  1  0  0  0  0
 10 18  1  0  0  0  0
 11  3  1  0  0  0  0
 12  4  1  0  0  0  0
 13 23  1  0  0  0  0
 15 10  1  0  0  0  0
 17 18  2  0  0  0  0
 17 11  1  0  0  0  0
 18  7  1  0  0  0  0
 19 15  1  0  0  0  0
 20  5  2  0  0  0  0
 20 14  1  0  0  0  0
 23 22  2  0  0  0  0
 23 21  1  0  0  0  0
 24 10  1  0  0  0  0
 25 24  3  0  0  0  0
M  END
>  <MODEL>
9

>  <REMARK>
 VINA RESULT:      -5.9      4.915      7.909
  Name = 
  2 active torsions:
  status: ('A' for Active; 'I' for Inactive)
    1  A    between atoms: N_12  and  C_18
    2  A    between atoms: C_15  and  C_21
                            x       y       z     vdW  Elec       q    Type
                         _______ _______ _______ _____ _____    ______ ____

>  <TORSDO>
F 2

$$$$
