=
 OpenBabel10222415593D

 63 67  0  0  1  0  0  0  0  0999 V2000
  189.9380  177.8990  139.1800 C   0  0  2  0  0  3  0  0  0  0  0  0
  189.2130  177.4110  141.5010 C   0  0  0  0  0  0  0  0  0  0  0  0
  187.7490  178.2270  139.6140 C   0  0  0  0  0  2  0  0  0  0  0  0
  190.3740  177.1630  143.7020 C   0  0  0  0  0  3  0  0  0  0  0  0
  187.7940  177.6610  141.0360 C   0  0  2  0  0  3  0  0  0  0  0  0
  190.2450  177.5080  140.6200 C   0  0  0  0  0  0  0  0  0  0  0  0
  191.6740  177.3010  140.9750 C   0  0  0  0  0  3  0  0  0  0  0  0
  192.2320  177.5280  142.1650 C   0  0  0  0  0  3  0  0  0  0  0  0
  188.6350  177.5120  138.7980 O   0  0  0  0  0  0  0  0  0  0  0  0
  191.4760  178.0870  143.3220 C   0  0  0  0  0  2  0  0  0  0  0  0
  189.3580  176.8920  142.8800 C   0  0  0  0  0  3  0  0  0  0  0  0
  190.8430  175.9980  137.7250 C   0  0  0  0  0  0  0  0  0  0  0  0
  189.9250  175.2150  138.0940 O   0  0  0  0  0  0  0  0  0  0  0  0
  191.8210  175.5670  136.7800 N   0  0  0  0  0  2  0  0  0  0  0  0
  190.9080  177.3300  138.2420 N   0  0  0  0  0  2  0  0  0  0  0  0
  191.7670  174.2540  136.1600 C   0  0  0  0  0  2  0  0  0  0  0  0
  192.6380  173.2650  136.9120 C   0  0  0  0  0  2  0  0  0  0  0  0
  193.6640  172.6210  135.9780 C   0  0  0  0  0  2  0  0  0  0  0  0
  194.9320  172.1700  136.7110 C   0  0  1  0  0  3  0  0  0  0  0  0
  194.8380  170.6900  137.0640 C   0  0  0  0  0  1  0  0  0  0  0  0
  196.0930  171.9860  134.5940 O   0  0  0  0  0  1  0  0  0  0  0  0
  196.2090  172.4660  135.9030 C   0  0  1  0  0  3  0  0  0  0  0  0
  196.6110  173.9440  135.8700 C   0  0  2  0  0  3  0  0  0  0  0  0
  196.4420  174.4930  134.5940 O   0  0  0  0  0  0  0  0  0  0  0  0
  195.5710  175.5670  134.7780 C   0  0  0  0  0  1  0  0  0  0  0  0
  198.0180  174.2080  136.4140 C   0  0  0  0  0  2  0  0  0  0  0  0
  198.0180  175.2840  137.3050 O   0  0  0  0  0  0  0  0  0  0  0  0
  197.6330  175.3430  140.8140 C   0  0  0  0  0  2  0  0  0  0  0  0
  196.3290  175.0500  138.8370 O   0  0  0  0  0  0  0  0  0  0  0  0
  196.2540  175.0860  140.2430 C   0  0  0  0  0  2  0  0  0  0  0  0
  198.5380  175.3060  139.6210 C   0  0  0  0  0  2  0  0  0  0  0  0
  197.6650  174.7310  138.5370 C   0  0  2  0  0  3  0  0  0  0  0  0
  187.0330  178.5620  142.0100 C   0  0  0  0  0  2  0  0  0  0  0  0
  186.1360  177.7610  142.9430 C   0  0  0  0  0  2  0  0  0  0  0  0
  184.4500  179.1420  144.2850 C   0  0  0  0  0  0  0  0  0  0  0  0
  182.5130  178.6270  142.2910 C   0  0  0  0  0  0  0  0  0  0  0  0
  184.7920  178.3940  143.1360 C   0  0  0  0  0  0  0  0  0  0  0  0
  183.8200  178.1320  142.1670 C   0  0  0  0  0  3  0  0  0  0  0  0
  183.1480  179.6490  144.4040 C   0  0  0  0  0  3  0  0  0  0  0  0
  182.1900  179.3930  143.4200 C   0  0  0  0  0  3  0  0  0  0  0  0
  186.4850  179.0580  147.4910 O   0  0  0  0  0  1  0  0  0  0  0  0
  185.4100  178.8200  146.6520 C   0  0  0  0  0  0  0  0  0  0  0  0
  185.4270  179.3490  145.3190 N   0  0  0  0  0  2  0  0  0  0  0  0
  184.4550  178.1060  147.0590 O   0  0  0  0  0  0  0  0  0  0  0  0
  181.8030  177.5190  140.1070 C   0  0  0  0  0  0  0  0  0  0  0  0
  181.5160  178.2620  141.3130 N   0  0  0  0  0  0  0  0  0  0  0  0
  180.8720  176.8980  139.5210 O   0  0  0  0  0  0  0  0  0  0  0  0
  180.1300  178.6510  141.5650 C   0  0  0  0  0  2  0  0  0  0  0  0
  179.4990  177.6880  142.3550 O   0  0  0  0  0  1  0  0  0  0  0  0
  183.1670  177.4780  139.4970 C   0  0  0  0  0  2  0  0  0  0  0  0
  183.1660  178.1350  138.1280 C   0  0  0  0  0  2  0  0  0  0  0  0
  183.1450  177.0400  137.0630 C   0  0  1  0  0  3  0  0  0  0  0  0
  181.3730  178.6210  136.2090 C   0  0  0  0  0  1  0  0  0  0  0  0
  181.0560  176.2030  135.9680 C   0  0  0  0  0  1  0  0  0  0  0  0
  182.0960  177.3060  135.9710 C   0  0  0  0  0  3  0  0  0  0  0  0
  185.4470  177.7490  136.9750 O   0  0  0  0  0  1  0  0  0  0  0  0
  184.5430  176.8110  136.4680 C   0  0  1  0  0  3  0  0  0  0  0  0
  185.0510  175.3850  136.7150 C   0  0  2  0  0  3  0  0  0  0  0  0
  183.9160  172.0870  136.4300 N   0  0  0  0  0  1  0  0  0  0  0  0
  183.9320  174.0320  135.0590 N   0  0  0  0  0  2  0  0  0  0  0  0
  185.2070  174.6360  135.4060 C   0  0  0  0  0  2  0  0  0  0  0  0
  183.3970  173.4350  136.2740 C   0  0  2  0  0  3  0  0  0  0  0  0
  183.8610  174.4460  137.7130 S   0  0  0  0  0  0  0  0  0  0  0  0
  1 15  1  6  0  0  0
  1  6  1  0  0  0  0
  2 11  1  0  0  0  0
  3  5  1  0  0  0  0
  5  2  1  0  0  0  0
  5 33  1  1  0  0  0
  6  7  1  0  0  0  0
  6  2  2  0  0  0  0
  7  8  2  0  0  0  0
  8 10  1  0  0  0  0
  9  1  1  0  0  0  0
  9  3  1  0  0  0  0
 10  4  1  0  0  0  0
 11  4  2  0  0  0  0
 12 13  2  0  0  0  0
 12 15  1  0  0  0  0
 14 12  1  0  0  0  0
 16 14  1  0  0  0  0
 16 17  1  0  0  0  0
 18 19  1  0  0  0  0
 18 17  1  0  0  0  0
 19 20  1  6  0  0  0
 22 21  1  6  0  0  0
 22 19  1  0  0  0  0
 23 22  1  0  0  0  0
 23 26  1  6  0  0  0
 24 25  1  0  0  0  0
 24 23  1  0  0  0  0
 26 27  1  0  0  0  0
 29 30  1  0  0  0  0
 30 28  1  0  0  0  0
 31 28  1  0  0  0  0
 32 27  1  6  0  0  0
 32 29  1  0  0  0  0
 32 31  1  0  0  0  0
 33 34  1  0  0  0  0
 34 37  1  0  0  0  0
 35 39  1  0  0  0  0
 35 43  1  0  0  0  0
 36 40  1  0  0  0  0
 37 35  2  0  0  0  0
 38 36  2  0  0  0  0
 38 37  1  0  0  0  0
 40 39  2  0  0  0  0
 42 44  2  0  0  0  0
 42 41  1  0  0  0  0
 43 42  1  0  0  0  0
 45 46  1  0  0  0  0
 46 48  1  0  0  0  0
 46 36  1  0  0  0  0
 47 45  2  0  0  0  0
 48 49  1  0  0  0  0
 50 45  1  0  0  0  0
 51 50  1  0  0  0  0
 52 51  1  1  0  0  0
 54 55  1  0  0  0  0
 55 53  1  0  0  0  0
 55 52  1  0  0  0  0
 57 56  1  1  0  0  0
 57 52  1  0  0  0  0
 58 57  1  6  0  0  0
 58 63  1  0  0  0  0
 60 61  1  0  0  0  0
 60 62  1  0  0  0  0
 61 58  1  0  0  0  0
 62 59  1  1  0  0  0
 62 63  1  0  0  0  0
M  END
>  <MODEL>
1

>  <REMARK>
 VINA RESULT:      -7.0      0.000      0.000
  Name = 
  23 active torsions:
  status: ('A' for Active; 'I' for Inactive)
    1  A    between atoms: C_1  and  N_60
    2  A    between atoms: C_2  and  C_22
    3  A    between atoms: C_2  and  C_49
    4  A    between atoms: O_3  and  C_10
    5  A    between atoms: C_6  and  C_43
    6  A    between atoms: C_6  and  C_63
    7  A    between atoms: C_9  and  N_56
    8  A    between atoms: C_10  and  C_26
    9  A    between atoms: C_10  and  C_34
   10  A    between atoms: C_11  and  N_50
   11  A    between atoms: C_12  and  C_14
   12  A    between atoms: C_12  and  C_34
   13  A    between atoms: C_14  and  C_53
   14  A    between atoms: C_15  and  N_50
   15  A    between atoms: C_16  and  N_47
   16  A    between atoms: C_16  and  C_53
   17  A    between atoms: C_21  and  C_49
   18  A    between atoms: C_24  and  C_58
   19  A    between atoms: C_26  and  O_30
   20  A    between atoms: C_29  and  C_43
   21  A    between atoms: O_30  and  C_46
   22  A    between atoms: C_31  and  C_63
   23  A    between atoms: C_58  and  C_63
                            x       y       z     vdW  Elec       q    Type
                         _______ _______ _______ _____ _____    ______ ____

>  <TORSDO>
F 23

$$$$
=
 OpenBabel10222415593D

 63 67  0  0  1  0  0  0  0  0999 V2000
  183.3230  178.9170  143.0110 C   0  0  2  0  0  3  0  0  0  0  0  0
  181.6580  178.2500  141.2990 C   0  0  0  0  0  0  0  0  0  0  0  0
  184.1390  178.5480  140.9410 C   0  0  0  0  0  2  0  0  0  0  0  0
  179.1700  178.3990  141.0980 C   0  0  0  0  0  3  0  0  0  0  0  0
  182.8210  178.0390  140.3520 C   0  0  2  0  0  3  0  0  0  0  0  0
  181.8870  178.6560  142.5770 C   0  0  0  0  0  0  0  0  0  0  0  0
  180.8210  178.9100  143.5810 C   0  0  0  0  0  3  0  0  0  0  0  0
  179.5750  179.3110  143.3230 C   0  0  0  0  0  3  0  0  0  0  0  0
  184.2440  178.1380  142.2760 O   0  0  0  0  0  0  0  0  0  0  0  0
  179.0890  179.6170  141.9480 C   0  0  0  0  0  2  0  0  0  0  0  0
  180.3330  177.8150  140.8020 C   0  0  0  0  0  3  0  0  0  0  0  0
  184.6580  179.0980  145.1880 C   0  0  0  0  0  0  0  0  0  0  0  0
  185.6020  179.7050  144.6130 O   0  0  0  0  0  0  0  0  0  0  0  0
  184.7140  178.8400  146.5900 N   0  0  0  0  0  2  0  0  0  0  0  0
  183.5140  178.6710  144.4430 N   0  0  0  0  0  2  0  0  0  0  0  0
  185.8100  179.3140  147.4180 C   0  0  0  0  0  2  0  0  0  0  0  0
  186.8330  178.2160  147.6410 C   0  0  0  0  0  2  0  0  0  0  0  0
  188.2510  178.7890  147.6630 C   0  0  0  0  0  2  0  0  0  0  0  0
  189.3190  177.7420  147.3320 C   0  0  1  0  0  3  0  0  0  0  0  0
  188.8750  176.3650  147.8110 C   0  0  0  0  0  1  0  0  0  0  0  0
  190.1990  178.9480  145.4260 O   0  0  0  0  0  1  0  0  0  0  0  0
  189.6690  177.7190  145.8320 C   0  0  1  0  0  3  0  0  0  0  0  0
  190.6210  176.5920  145.4200 C   0  0  2  0  0  3  0  0  0  0  0  0
  191.9230  176.8280  145.8760 O   0  0  0  0  0  0  0  0  0  0  0  0
  192.0930  175.9500  146.9470 C   0  0  0  0  0  1  0  0  0  0  0  0
  190.5970  176.2890  143.9190 C   0  0  0  0  0  2  0  0  0  0  0  0
  191.7010  176.8550  143.2750 O   0  0  0  0  0  0  0  0  0  0  0  0
  191.1190  177.2430  139.8150 C   0  0  0  0  0  2  0  0  0  0  0  0
  189.9070  176.9690  141.8530 O   0  0  0  0  0  0  0  0  0  0  0  0
  189.7530  177.1290  140.4610 C   0  0  0  0  0  2  0  0  0  0  0  0
  192.0710  177.2830  140.9700 C   0  0  0  0  0  2  0  0  0  0  0  0
  191.1710  177.5020  142.1580 C   0  0  2  0  0  3  0  0  0  0  0  0
  182.5510  178.6660  138.9830 C   0  0  0  0  0  2  0  0  0  0  0  0
  182.1450  177.6240  137.9500 C   0  0  0  0  0  2  0  0  0  0  0  0
  183.2280  175.3210  137.6910 C   0  0  0  0  0  0  0  0  0  0  0  0
  185.6000  176.5870  136.8160 C   0  0  0  0  0  0  0  0  0  0  0  0
  183.2780  176.7260  137.5580 C   0  0  0  0  0  0  0  0  0  0  0  0
  184.4620  177.3400  137.1430 C   0  0  0  0  0  3  0  0  0  0  0  0
  184.3600  174.5640  137.3520 C   0  0  0  0  0  3  0  0  0  0  0  0
  185.5330  175.1900  136.9220 C   0  0  0  0  0  3  0  0  0  0  0  0
  179.9300  173.4770  138.0800 O   0  0  0  0  0  1  0  0  0  0  0  0
  180.9660  174.1210  137.4260 C   0  0  0  0  0  0  0  0  0  0  0  0
  182.0360  174.6910  138.1910 N   0  0  0  0  0  2  0  0  0  0  0  0
  180.9730  174.1570  136.1660 O   0  0  0  0  0  0  0  0  0  0  0  0
  187.8160  176.7280  135.5630 C   0  0  0  0  0  0  0  0  0  0  0  0
  186.8290  177.2620  136.4740 N   0  0  0  0  0  0  0  0  0  0  0  0
  188.6380  177.5100  135.0060 O   0  0  0  0  0  0  0  0  0  0  0  0
  187.0850  178.5710  137.0710 C   0  0  0  0  0  2  0  0  0  0  0  0
  187.8870  178.4300  138.2050 O   0  0  0  0  0  1  0  0  0  0  0  0
  187.9270  175.2670  135.2690 C   0  0  0  0  0  2  0  0  0  0  0  0
  189.2510  174.9500  134.5980 C   0  0  0  0  0  2  0  0  0  0  0  0
  190.2660  174.5750  135.6780 C   0  0  1  0  0  3  0  0  0  0  0  0
  190.4260  172.2450  134.7210 C   0  0  0  0  0  1  0  0  0  0  0  0
  188.9480  172.6720  136.6280 C   0  0  0  0  0  1  0  0  0  0  0  0
  190.2630  173.0700  135.9870 C   0  0  0  0  0  3  0  0  0  0  0  0
  191.6260  176.4350  134.9670 O   0  0  0  0  0  1  0  0  0  0  0  0
  191.6720  175.0830  135.3240 C   0  0  1  0  0  3  0  0  0  0  0  0
  192.6730  174.8610  136.4640 C   0  0  2  0  0  3  0  0  0  0  0  0
  196.1010  175.2020  137.0770 N   0  0  0  0  0  1  0  0  0  0  0  0
  194.3750  176.5400  136.1320 N   0  0  0  0  0  2  0  0  0  0  0  0
  193.2310  176.1830  136.9540 C   0  0  0  0  0  2  0  0  0  0  0  0
  195.1750  175.3350  135.9660 C   0  0  2  0  0  3  0  0  0  0  0  0
  194.0880  173.8790  135.8910 S   0  0  0  0  0  0  0  0  0  0  0  0
  1 15  1  1  0  0  0
  2  6  2  0  0  0  0
  3  9  1  0  0  0  0
  4 10  1  0  0  0  0
  5 33  1  6  0  0  0
  5  3  1  0  0  0  0
  5  2  1  0  0  0  0
  6  1  1  0  0  0  0
  6  7  1  0  0  0  0
  8  7  2  0  0  0  0
  9  1  1  0  0  0  0
 10  8  1  0  0  0  0
 11  4  2  0  0  0  0
 11  2  1  0  0  0  0
 12 14  1  0  0  0  0
 13 12  2  0  0  0  0
 14 16  1  0  0  0  0
 15 12  1  0  0  0  0
 16 17  1  0  0  0  0
 17 18  1  0  0  0  0
 19 18  1  0  0  0  0
 19 20  1  6  0  0  0
 22 21  1  1  0  0  0
 22 19  1  0  0  0  0
 23 26  1  6  0  0  0
 23 22  1  0  0  0  0
 23 24  1  0  0  0  0
 24 25  1  0  0  0  0
 27 26  1  0  0  0  0
 28 30  1  0  0  0  0
 28 31  1  0  0  0  0
 29 32  1  0  0  0  0
 30 29  1  0  0  0  0
 31 32  1  0  0  0  0
 32 27  1  1  0  0  0
 34 33  1  0  0  0  0
 35 43  1  0  0  0  0
 36 40  2  0  0  0  0
 36 38  1  0  0  0  0
 37 35  1  0  0  0  0
 37 34  1  0  0  0  0
 38 37  2  0  0  0  0
 39 35  2  0  0  0  0
 40 39  1  0  0  0  0
 42 41  1  0  0  0  0
 42 43  1  0  0  0  0
 44 42  2  0  0  0  0
 45 46  1  0  0  0  0
 46 36  1  0  0  0  0
 46 48  1  0  0  0  0
 47 45  2  0  0  0  0
 48 49  1  0  0  0  0
 50 45  1  0  0  0  0
 51 50  1  0  0  0  0
 52 51  1  6  0  0  0
 52 55  1  0  0  0  0
 53 55  1  0  0  0  0
 55 54  1  0  0  0  0
 57 56  1  1  0  0  0
 57 52  1  0  0  0  0
 58 57  1  6  0  0  0
 58 61  1  0  0  0  0
 60 61  1  0  0  0  0
 62 60  1  0  0  0  0
 62 59  1  1  0  0  0
 63 62  1  0  0  0  0
 63 58  1  0  0  0  0
M  END
>  <MODEL>
2

>  <REMARK>
 VINA RESULT:      -6.9      3.210      9.773
  Name = 
  23 active torsions:
  status: ('A' for Active; 'I' for Inactive)
    1  A    between atoms: C_1  and  N_60
    2  A    between atoms: C_2  and  C_22
    3  A    between atoms: C_2  and  C_49
    4  A    between atoms: O_3  and  C_10
    5  A    between atoms: C_6  and  C_43
    6  A    between atoms: C_6  and  C_63
    7  A    between atoms: C_9  and  N_56
    8  A    between atoms: C_10  and  C_26
    9  A    between atoms: C_10  and  C_34
   10  A    between atoms: C_11  and  N_50
   11  A    between atoms: C_12  and  C_14
   12  A    between atoms: C_12  and  C_34
   13  A    between atoms: C_14  and  C_53
   14  A    between atoms: C_15  and  N_50
   15  A    between atoms: C_16  and  N_47
   16  A    between atoms: C_16  and  C_53
   17  A    between atoms: C_21  and  C_49
   18  A    between atoms: C_24  and  C_58
   19  A    between atoms: C_26  and  O_30
   20  A    between atoms: C_29  and  C_43
   21  A    between atoms: O_30  and  C_46
   22  A    between atoms: C_31  and  C_63
   23  A    between atoms: C_58  and  C_63
                            x       y       z     vdW  Elec       q    Type
                         _______ _______ _______ _____ _____    ______ ____

>  <TORSDO>
F 23

$$$$
=
 OpenBabel10222415593D

 63 67  0  0  1  0  0  0  0  0999 V2000
  190.3500  177.7920  139.6490 C   0  0  2  0  0  3  0  0  0  0  0  0
  189.1570  177.3530  141.7780 C   0  0  0  0  0  0  0  0  0  0  0  0
  188.1340  178.2140  139.6370 C   0  0  0  0  0  2  0  0  0  0  0  0
  189.8440  177.0740  144.1660 C   0  0  0  0  0  3  0  0  0  0  0  0
  187.8710  177.6580  141.0390 C   0  0  2  0  0  3  0  0  0  0  0  0
  190.3470  177.4000  141.1210 C   0  0  0  0  0  0  0  0  0  0  0  0
  191.6670  177.1360  141.7530 C   0  0  0  0  0  3  0  0  0  0  0  0
  191.9850  177.3490  143.0310 C   0  0  0  0  0  3  0  0  0  0  0  0
  189.1340  177.4570  139.0140 O   0  0  0  0  0  0  0  0  0  0  0  0
  191.0380  177.9480  144.0140 C   0  0  0  0  0  2  0  0  0  0  0  0
  189.0020  176.8380  143.1580 C   0  0  0  0  0  3  0  0  0  0  0  0
  191.3200  176.0960  137.9950 C   0  0  0  0  0  0  0  0  0  0  0  0
  190.1860  175.5890  137.7780 O   0  0  0  0  0  0  0  0  0  0  0  0
  192.4720  175.6050  137.3120 N   0  0  0  0  0  2  0  0  0  0  0  0
  191.4630  177.1760  138.9220 N   0  0  0  0  0  2  0  0  0  0  0  0
  192.3840  174.5640  136.3020 C   0  0  0  0  0  2  0  0  0  0  0  0
  192.8460  173.2300  136.8600 C   0  0  0  0  0  2  0  0  0  0  0  0
  193.7480  172.5040  135.8610 C   0  0  0  0  0  2  0  0  0  0  0  0
  194.3560  171.2200  136.4340 C   0  0  1  0  0  3  0  0  0  0  0  0
  193.4790  170.0220  136.0880 C   0  0  0  0  0  1  0  0  0  0  0  0
  195.8470  170.7170  134.5940 O   0  0  0  0  0  1  0  0  0  0  0  0
  195.8050  171.0000  135.9630 C   0  0  1  0  0  3  0  0  0  0  0  0
  196.7560  172.1600  136.2730 C   0  0  2  0  0  3  0  0  0  0  0  0
  197.8790  172.1410  135.4370 O   0  0  0  0  0  0  0  0  0  0  0  0
  198.5030  173.3700  135.6470 C   0  0  0  0  0  1  0  0  0  0  0  0
  197.1560  172.2460  137.7500 C   0  0  0  0  0  2  0  0  0  0  0  0
  196.2130  172.9700  138.4840 O   0  0  0  0  0  0  0  0  0  0  0  0
  197.5230  175.6070  140.4310 C   0  0  0  0  0  2  0  0  0  0  0  0
  198.1880  174.1140  138.6920 O   0  0  0  0  0  0  0  0  0  0  0  0
  198.6400  175.1730  139.5050 C   0  0  0  0  0  2  0  0  0  0  0  0
  196.3390  174.8070  139.9810 C   0  0  0  0  0  2  0  0  0  0  0  0
  196.7870  174.2290  138.6650 C   0  0  2  0  0  3  0  0  0  0  0  0
  186.9700  178.5970  141.8430 C   0  0  0  0  0  2  0  0  0  0  0  0
  186.1640  177.8490  142.8960 C   0  0  0  0  0  2  0  0  0  0  0  0
  184.4210  179.1130  144.2780 C   0  0  0  0  0  0  0  0  0  0  0  0
  182.5250  178.6360  142.2360 C   0  0  0  0  0  0  0  0  0  0  0  0
  184.7990  178.4320  143.1000 C   0  0  0  0  0  0  0  0  0  0  0  0
  183.8480  178.1870  142.1070 C   0  0  0  0  0  3  0  0  0  0  0  0
  183.1020  179.5760  144.4040 C   0  0  0  0  0  3  0  0  0  0  0  0
  182.1650  179.3370  143.3960 C   0  0  0  0  0  3  0  0  0  0  0  0
  186.4610  178.8890  147.4750 O   0  0  0  0  0  1  0  0  0  0  0  0
  185.4090  178.6450  146.6090 C   0  0  0  0  0  0  0  0  0  0  0  0
  185.3790  179.3010  145.3350 N   0  0  0  0  0  2  0  0  0  0  0  0
  184.5180  177.8170  146.9380 O   0  0  0  0  0  0  0  0  0  0  0  0
  181.8340  177.4420  140.0920 C   0  0  0  0  0  0  0  0  0  0  0  0
  181.5510  178.2880  141.2290 N   0  0  0  0  0  0  0  0  0  0  0  0
  180.8840  176.8610  139.4950 O   0  0  0  0  0  0  0  0  0  0  0  0
  180.1930  178.8080  141.3760 C   0  0  0  0  0  2  0  0  0  0  0  0
  180.1640  180.1660  141.0540 O   0  0  0  0  0  1  0  0  0  0  0  0
  183.2190  177.2460  139.5650 C   0  0  0  0  0  2  0  0  0  0  0  0
  183.3010  177.6440  138.1020 C   0  0  0  0  0  2  0  0  0  0  0  0
  183.1740  176.3840  137.2460 C   0  0  1  0  0  3  0  0  0  0  0  0
  182.2050  175.7560  135.0020 C   0  0  0  0  0  1  0  0  0  0  0  0
  181.5090  177.8440  136.0810 C   0  0  0  0  0  1  0  0  0  0  0  0
  181.9300  176.4110  136.3450 C   0  0  0  0  0  3  0  0  0  0  0  0
  184.9720  177.3240  135.9430 O   0  0  0  0  0  1  0  0  0  0  0  0
  184.4570  176.1230  136.4420 C   0  0  1  0  0  3  0  0  0  0  0  0
  185.5180  175.3840  137.2660 C   0  0  2  0  0  3  0  0  0  0  0  0
  187.9500  172.9060  136.8330 N   0  0  0  0  0  1  0  0  0  0  0  0
  187.2890  174.8930  135.7020 N   0  0  0  0  0  2  0  0  0  0  0  0
  186.9130  175.7590  136.8070 C   0  0  0  0  0  2  0  0  0  0  0  0
  186.8920  173.5400  136.0650 C   0  0  2  0  0  3  0  0  0  0  0  0
  185.3620  173.5890  137.0460 S   0  0  0  0  0  0  0  0  0  0  0  0
  1 15  1  6  0  0  0
  1  6  1  0  0  0  0
  2 11  1  0  0  0  0
  3  5  1  0  0  0  0
  5  2  1  0  0  0  0
  5 33  1  1  0  0  0
  6  7  1  0  0  0  0
  6  2  2  0  0  0  0
  7  8  2  0  0  0  0
  8 10  1  0  0  0  0
  9  3  1  0  0  0  0
  9  1  1  0  0  0  0
 10  4  1  0  0  0  0
 11  4  2  0  0  0  0
 12 15  1  0  0  0  0
 13 12  2  0  0  0  0
 14 12  1  0  0  0  0
 16 17  1  0  0  0  0
 16 14  1  0  0  0  0
 18 19  1  0  0  0  0
 18 17  1  0  0  0  0
 19 20  1  6  0  0  0
 22 21  1  6  0  0  0
 22 23  1  0  0  0  0
 22 19  1  0  0  0  0
 23 26  1  1  0  0  0
 24 25  1  0  0  0  0
 24 23  1  0  0  0  0
 26 27  1  0  0  0  0
 29 30  1  0  0  0  0
 30 28  1  0  0  0  0
 31 28  1  0  0  0  0
 32 27  1  1  0  0  0
 32 29  1  0  0  0  0
 32 31  1  0  0  0  0
 33 34  1  0  0  0  0
 34 37  1  0  0  0  0
 35 39  1  0  0  0  0
 35 43  1  0  0  0  0
 36 40  1  0  0  0  0
 37 35  2  0  0  0  0
 38 36  2  0  0  0  0
 38 37  1  0  0  0  0
 40 39  2  0  0  0  0
 42 44  2  0  0  0  0
 42 41  1  0  0  0  0
 43 42  1  0  0  0  0
 45 46  1  0  0  0  0
 46 48  1  0  0  0  0
 46 36  1  0  0  0  0
 47 45  2  0  0  0  0
 49 48  1  0  0  0  0
 50 45  1  0  0  0  0
 51 50  1  0  0  0  0
 52 51  1  6  0  0  0
 53 55  1  0  0  0  0
 54 55  1  0  0  0  0
 55 52  1  0  0  0  0
 57 56  1  1  0  0  0
 57 52  1  0  0  0  0
 58 57  1  6  0  0  0
 60 62  1  0  0  0  0
 60 61  1  0  0  0  0
 61 58  1  0  0  0  0
 62 59  1  1  0  0  0
 62 63  1  0  0  0  0
 63 58  1  0  0  0  0
M  END
>  <MODEL>
3

>  <REMARK>
 VINA RESULT:      -6.2      1.298      1.554
  Name = 
  23 active torsions:
  status: ('A' for Active; 'I' for Inactive)
    1  A    between atoms: C_1  and  N_60
    2  A    between atoms: C_2  and  C_22
    3  A    between atoms: C_2  and  C_49
    4  A    between atoms: O_3  and  C_10
    5  A    between atoms: C_6  and  C_43
    6  A    between atoms: C_6  and  C_63
    7  A    between atoms: C_9  and  N_56
    8  A    between atoms: C_10  and  C_26
    9  A    between atoms: C_10  and  C_34
   10  A    between atoms: C_11  and  N_50
   11  A    between atoms: C_12  and  C_14
   12  A    between atoms: C_12  and  C_34
   13  A    between atoms: C_14  and  C_53
   14  A    between atoms: C_15  and  N_50
   15  A    between atoms: C_16  and  N_47
   16  A    between atoms: C_16  and  C_53
   17  A    between atoms: C_21  and  C_49
   18  A    between atoms: C_24  and  C_58
   19  A    between atoms: C_26  and  O_30
   20  A    between atoms: C_29  and  C_43
   21  A    between atoms: O_30  and  C_46
   22  A    between atoms: C_31  and  C_63
   23  A    between atoms: C_58  and  C_63
                            x       y       z     vdW  Elec       q    Type
                         _______ _______ _______ _____ _____    ______ ____

>  <TORSDO>
F 23

$$$$
=
 OpenBabel10222415593D

 63 67  0  0  1  0  0  0  0  0999 V2000
  187.5460  177.4850  142.2740 C   0  0  2  0  0  3  0  0  0  0  0  0
  189.9670  177.5910  141.7460 C   0  0  0  0  0  0  0  0  0  0  0  0
  188.0650  177.7340  140.0930 C   0  0  0  0  0  2  0  0  0  0  0  0
  192.0680  176.9390  142.9370 C   0  0  0  0  0  3  0  0  0  0  0  0
  189.5710  177.8990  140.3180 C   0  0  2  0  0  3  0  0  0  0  0  0
  189.0080  177.4050  142.6940 C   0  0  0  0  0  0  0  0  0  0  0  0
  189.2860  177.0820  144.1180 C   0  0  0  0  0  3  0  0  0  0  0  0
  190.3450  176.4170  144.5830 C   0  0  0  0  0  3  0  0  0  0  0  0
  187.3670  178.3250  141.1540 O   0  0  0  0  0  0  0  0  0  0  0  0
  191.4000  175.8490  143.6960 C   0  0  0  0  0  2  0  0  0  0  0  0
  191.4130  177.6940  142.0520 C   0  0  0  0  0  3  0  0  0  0  0  0
  185.5370  178.7750  143.1940 C   0  0  0  0  0  0  0  0  0  0  0  0
  185.2140  179.1850  142.0460 O   0  0  0  0  0  0  0  0  0  0  0  0
  184.7500  179.1260  144.3320 N   0  0  0  0  0  2  0  0  0  0  0  0
  186.6890  177.9460  143.3690 N   0  0  0  0  0  2  0  0  0  0  0  0
  183.5260  179.9000  144.2140 C   0  0  0  0  0  2  0  0  0  0  0  0
  182.3130  178.9900  144.1700 C   0  0  0  0  0  2  0  0  0  0  0  0
  182.0010  178.5650  142.7340 C   0  0  0  0  0  2  0  0  0  0  0  0
  180.5510  178.8470  142.3330 C   0  0  1  0  0  3  0  0  0  0  0  0
  180.1950  180.3000  142.6280 C   0  0  0  0  0  1  0  0  0  0  0  0
  178.9360  178.7400  140.5320 O   0  0  0  0  0  1  0  0  0  0  0  0
  180.2750  178.4990  140.8580 C   0  0  1  0  0  3  0  0  0  0  0  0
  181.1820  179.2200  139.8560 C   0  0  2  0  0  3  0  0  0  0  0  0
  180.6690  180.4760  139.5120 O   0  0  0  0  0  0  0  0  0  0  0  0
  180.9630  180.6250  138.1570 C   0  0  0  0  0  1  0  0  0  0  0  0
  181.5050  178.3850  138.6130 C   0  0  0  0  0  2  0  0  0  0  0  0
  181.5370  177.0220  138.9180 O   0  0  0  0  0  0  0  0  0  0  0  0
  183.4670  177.0220  135.9620 C   0  0  0  0  0  2  0  0  0  0  0  0
  183.4350  176.0110  138.1240 O   0  0  0  0  0  0  0  0  0  0  0  0
  184.1530  176.0630  136.9130 C   0  0  0  0  0  2  0  0  0  0  0  0
  182.2070  177.4080  136.6740 C   0  0  0  0  0  2  0  0  0  0  0  0
  182.1280  176.4190  137.8070 C   0  0  2  0  0  3  0  0  0  0  0  0
  190.3710  177.0600  139.3190 C   0  0  0  0  0  2  0  0  0  0  0  0
  189.5290  175.9520  138.7040 C   0  0  0  0  0  2  0  0  0  0  0  0
  189.6750  176.6740  136.2540 C   0  0  0  0  0  0  0  0  0  0  0  0
  190.5530  174.0710  135.5880 C   0  0  0  0  0  0  0  0  0  0  0  0
  189.8620  175.7050  137.2640 C   0  0  0  0  0  0  0  0  0  0  0  0
  190.2790  174.4180  136.9190 C   0  0  0  0  0  3  0  0  0  0  0  0
  189.9620  176.3340  134.9230 C   0  0  0  0  0  3  0  0  0  0  0  0
  190.3930  175.0470  134.5940 C   0  0  0  0  0  3  0  0  0  0  0  0
  187.5170  179.7400  136.8680 O   0  0  0  0  0  1  0  0  0  0  0  0
  187.8460  178.4810  136.3960 C   0  0  0  0  0  0  0  0  0  0  0  0
  189.1740  177.9780  136.5960 N   0  0  0  0  0  2  0  0  0  0  0  0
  186.9610  177.7810  135.8360 O   0  0  0  0  0  0  0  0  0  0  0  0
  192.2280  172.1570  135.3950 C   0  0  0  0  0  0  0  0  0  0  0  0
  190.8980  172.7070  135.2620 N   0  0  0  0  0  0  0  0  0  0  0  0
  192.3790  170.9060  135.4860 O   0  0  0  0  0  0  0  0  0  0  0  0
  189.8360  171.8240  134.7840 C   0  0  0  0  0  2  0  0  0  0  0  0
  188.6050  172.2340  135.3000 O   0  0  0  0  0  1  0  0  0  0  0  0
  193.4520  173.0150  135.4020 C   0  0  0  0  0  2  0  0  0  0  0  0
  194.6980  172.1790  135.1720 C   0  0  0  0  0  2  0  0  0  0  0  0
  195.6680  172.4230  136.3280 C   0  0  1  0  0  3  0  0  0  0  0  0
  196.9250  170.3100  135.7610 C   0  0  0  0  0  1  0  0  0  0  0  0
  195.1890  170.2590  137.4900 C   0  0  0  0  0  1  0  0  0  0  0  0
  196.2730  171.1180  136.8700 C   0  0  0  0  0  3  0  0  0  0  0  0
  196.6260  173.7990  134.5960 O   0  0  0  0  0  1  0  0  0  0  0  0
  196.7530  173.4400  135.9420 C   0  0  1  0  0  3  0  0  0  0  0  0
  196.7260  174.6840  136.8370 C   0  0  2  0  0  3  0  0  0  0  0  0
  196.2520  175.5100  140.2040 N   0  0  0  0  0  1  0  0  0  0  0  0
  197.5370  173.9250  138.9800 N   0  0  0  0  0  2  0  0  0  0  0  0
  197.9020  174.6820  137.7940 C   0  0  0  0  0  2  0  0  0  0  0  0
  196.1910  174.3350  139.3510 C   0  0  2  0  0  3  0  0  0  0  0  0
  195.2250  174.7070  137.8560 S   0  0  0  0  0  0  0  0  0  0  0  0
  1  6  1  0  0  0  0
  1 15  1  1  0  0  0
  2 11  1  0  0  0  0
  2  6  2  0  0  0  0
  3  5  1  0  0  0  0
  3  9  1  0  0  0  0
  4 10  1  0  0  0  0
  5 33  1  6  0  0  0
  5  2  1  0  0  0  0
  6  7  1  0  0  0  0
  7  8  2  0  0  0  0
  9  1  1  0  0  0  0
 10  8  1  0  0  0  0
 11  4  2  0  0  0  0
 12 15  1  0  0  0  0
 12 14  1  0  0  0  0
 13 12  2  0  0  0  0
 16 14  1  0  0  0  0
 17 16  1  0  0  0  0
 18 17  1  0  0  0  0
 19 20  1  6  0  0  0
 19 18  1  0  0  0  0
 22 21  1  6  0  0  0
 22 19  1  0  0  0  0
 23 26  1  6  0  0  0
 23 22  1  0  0  0  0
 24 23  1  0  0  0  0
 25 24  1  0  0  0  0
 26 27  1  0  0  0  0
 28 31  1  0  0  0  0
 28 30  1  0  0  0  0
 30 29  1  0  0  0  0
 31 32  1  0  0  0  0
 32 29  1  0  0  0  0
 32 27  1  1  0  0  0
 34 33  1  0  0  0  0
 35 43  1  0  0  0  0
 35 37  1  0  0  0  0
 36 38  1  0  0  0  0
 37 34  1  0  0  0  0
 38 37  2  0  0  0  0
 39 35  2  0  0  0  0
 40 39  1  0  0  0  0
 40 36  2  0  0  0  0
 42 43  1  0  0  0  0
 42 41  1  0  0  0  0
 44 42  2  0  0  0  0
 45 50  1  0  0  0  0
 45 47  2  0  0  0  0
 46 45  1  0  0  0  0
 46 36  1  0  0  0  0
 48 46  1  0  0  0  0
 48 49  1  0  0  0  0
 51 50  1  0  0  0  0
 52 51  1  6  0  0  0
 52 55  1  0  0  0  0
 53 55  1  0  0  0  0
 55 54  1  0  0  0  0
 57 56  1  6  0  0  0
 57 52  1  0  0  0  0
 58 57  1  1  0  0  0
 58 61  1  0  0  0  0
 58 63  1  0  0  0  0
 60 62  1  0  0  0  0
 61 60  1  0  0  0  0
 62 59  1  1  0  0  0
 63 62  1  0  0  0  0
M  END
>  <MODEL>
4

>  <REMARK>
 VINA RESULT:      -6.0      2.777     12.186
  Name = 
  23 active torsions:
  status: ('A' for Active; 'I' for Inactive)
    1  A    between atoms: C_1  and  N_60
    2  A    between atoms: C_2  and  C_22
    3  A    between atoms: C_2  and  C_49
    4  A    between atoms: O_3  and  C_10
    5  A    between atoms: C_6  and  C_43
    6  A    between atoms: C_6  and  C_63
    7  A    between atoms: C_9  and  N_56
    8  A    between atoms: C_10  and  C_26
    9  A    between atoms: C_10  and  C_34
   10  A    between atoms: C_11  and  N_50
   11  A    between atoms: C_12  and  C_14
   12  A    between atoms: C_12  and  C_34
   13  A    between atoms: C_14  and  C_53
   14  A    between atoms: C_15  and  N_50
   15  A    between atoms: C_16  and  N_47
   16  A    between atoms: C_16  and  C_53
   17  A    between atoms: C_21  and  C_49
   18  A    between atoms: C_24  and  C_58
   19  A    between atoms: C_26  and  O_30
   20  A    between atoms: C_29  and  C_43
   21  A    between atoms: O_30  and  C_46
   22  A    between atoms: C_31  and  C_63
   23  A    between atoms: C_58  and  C_63
                            x       y       z     vdW  Elec       q    Type
                         _______ _______ _______ _____ _____    ______ ____

>  <TORSDO>
F 23

$$$$
=
 OpenBabel10222415593D

 63 67  0  0  1  0  0  0  0  0999 V2000
  190.0030  177.6920  139.1680 C   0  0  2  0  0  3  0  0  0  0  0  0
  188.5380  177.5500  141.1640 C   0  0  0  0  0  0  0  0  0  0  0  0
  187.8220  178.1510  138.8200 C   0  0  0  0  0  2  0  0  0  0  0  0
  188.9120  177.5630  143.6370 C   0  0  0  0  0  3  0  0  0  0  0  0
  187.3670  177.7830  140.2340 C   0  0  2  0  0  3  0  0  0  0  0  0
  189.8020  177.4900  140.6640 C   0  0  0  0  0  0  0  0  0  0  0  0
  191.0230  177.2840  141.4880 C   0  0  0  0  0  3  0  0  0  0  0  0
  191.1860  177.6520  142.7600 C   0  0  0  0  0  3  0  0  0  0  0  0
  188.8650  177.3020  138.4280 O   0  0  0  0  0  0  0  0  0  0  0  0
  190.1460  178.3880  143.5320 C   0  0  0  0  0  2  0  0  0  0  0  0
  188.1950  177.2180  142.5660 C   0  0  0  0  0  3  0  0  0  0  0  0
  191.2020  176.2160  137.4550 C   0  0  0  0  0  0  0  0  0  0  0  0
  190.1650  176.1170  136.7430 O   0  0  0  0  0  0  0  0  0  0  0  0
  192.4170  175.5870  137.0490 N   0  0  0  0  0  2  0  0  0  0  0  0
  191.1760  176.9680  138.6710 N   0  0  0  0  0  2  0  0  0  0  0  0
  192.5320  174.8740  135.7880 C   0  0  0  0  0  2  0  0  0  0  0  0
  193.0910  175.7780  134.7050 C   0  0  0  0  0  2  0  0  0  0  0  0
  194.3250  176.5300  135.2060 C   0  0  0  0  0  2  0  0  0  0  0  0
  195.6310  175.9780  134.6270 C   0  0  1  0  0  3  0  0  0  0  0  0
  196.6960  177.0680  134.5940 C   0  0  0  0  0  1  0  0  0  0  0  0
  195.9540  173.5780  134.6340 O   0  0  0  0  0  1  0  0  0  0  0  0
  196.1320  174.7400  135.3940 C   0  0  1  0  0  3  0  0  0  0  0  0
  197.5890  174.8270  135.8580 C   0  0  2  0  0  3  0  0  0  0  0  0
  198.3560  173.7770  135.3410 O   0  0  0  0  0  0  0  0  0  0  0  0
  198.1640  172.7200  136.2310 C   0  0  0  0  0  1  0  0  0  0  0  0
  197.7420  174.9390  137.3780 C   0  0  0  0  0  2  0  0  0  0  0  0
  196.5340  174.6640  138.0250 O   0  0  0  0  0  0  0  0  0  0  0  0
  198.5580  175.2040  140.8660 C   0  0  0  0  0  2  0  0  0  0  0  0
  196.3150  175.5530  140.1270 O   0  0  0  0  0  0  0  0  0  0  0  0
  197.1840  175.7340  141.2220 C   0  0  0  0  0  2  0  0  0  0  0  0
  198.3710  174.5670  139.5240 C   0  0  0  0  0  2  0  0  0  0  0  0
  196.8740  174.5090  139.3700 C   0  0  2  0  0  3  0  0  0  0  0  0
  186.4050  178.8340  140.7930 C   0  0  0  0  0  2  0  0  0  0  0  0
  186.3870  178.8360  142.3150 C   0  0  0  0  0  2  0  0  0  0  0  0
  184.7290  178.7320  144.2610 C   0  0  0  0  0  0  0  0  0  0  0  0
  182.6120  178.6560  142.3900 C   0  0  0  0  0  0  0  0  0  0  0  0
  184.9990  178.8070  142.8760 C   0  0  0  0  0  0  0  0  0  0  0  0
  183.9440  178.7500  141.9630 C   0  0  0  0  0  3  0  0  0  0  0  0
  183.3960  178.6530  144.6910 C   0  0  0  0  0  3  0  0  0  0  0  0
  182.3500  178.6120  143.7670 C   0  0  0  0  0  3  0  0  0  0  0  0
  186.8980  178.4950  147.3710 O   0  0  0  0  0  1  0  0  0  0  0  0
  185.7340  178.5760  146.6260 C   0  0  0  0  0  0  0  0  0  0  0  0
  185.8160  178.7150  145.2020 N   0  0  0  0  0  2  0  0  0  0  0  0
  184.6210  178.4830  147.2090 O   0  0  0  0  0  0  0  0  0  0  0  0
  181.6360  177.6420  140.2630 C   0  0  0  0  0  0  0  0  0  0  0  0
  181.5570  178.5120  141.4140 N   0  0  0  0  0  0  0  0  0  0  0  0
  180.5740  177.2600  139.6960 O   0  0  0  0  0  0  0  0  0  0  0  0
  180.3280  179.2790  141.6100 C   0  0  0  0  0  2  0  0  0  0  0  0
  180.6070  180.6470  141.5660 O   0  0  0  0  0  1  0  0  0  0  0  0
  182.9400  177.1910  139.6880 C   0  0  0  0  0  2  0  0  0  0  0  0
  183.3880  178.1200  138.5730 C   0  0  0  0  0  2  0  0  0  0  0  0
  183.0180  177.4840  137.2330 C   0  0  1  0  0  3  0  0  0  0  0  0
  181.1040  179.1150  137.0200 C   0  0  0  0  0  1  0  0  0  0  0  0
  181.7280  177.7230  135.1020 C   0  0  0  0  0  1  0  0  0  0  0  0
  182.2760  178.4610  136.3080 C   0  0  0  0  0  3  0  0  0  0  0  0
  185.3430  176.8740  137.4180 O   0  0  0  0  0  1  0  0  0  0  0  0
  184.2480  176.8700  136.5480 C   0  0  1  0  0  3  0  0  0  0  0  0
  183.9760  175.4520  136.0310 C   0  0  2  0  0  3  0  0  0  0  0  0
  184.4920  172.1340  137.0150 N   0  0  0  0  0  1  0  0  0  0  0  0
  183.6460  174.1200  138.0170 N   0  0  0  0  0  2  0  0  0  0  0  0
  182.9540  174.7490  136.9040 C   0  0  0  0  0  2  0  0  0  0  0  0
  184.8300  173.4720  137.4720 C   0  0  2  0  0  3  0  0  0  0  0  0
  185.4870  174.4490  136.0880 S   0  0  0  0  0  0  0  0  0  0  0  0
  1 15  1  6  0  0  0
  1  6  1  0  0  0  0
  2 11  1  0  0  0  0
  3  5  1  0  0  0  0
  5 33  1  1  0  0  0
  5  2  1  0  0  0  0
  6  2  2  0  0  0  0
  6  7  1  0  0  0  0
  7  8  2  0  0  0  0
  8 10  1  0  0  0  0
  9  3  1  0  0  0  0
  9  1  1  0  0  0  0
 10  4  1  0  0  0  0
 11  4  2  0  0  0  0
 12 15  1  0  0  0  0
 13 12  2  0  0  0  0
 14 12  1  0  0  0  0
 16 14  1  0  0  0  0
 17 18  1  0  0  0  0
 17 16  1  0  0  0  0
 19 20  1  1  0  0  0
 19 18  1  0  0  0  0
 19 22  1  0  0  0  0
 22 21  1  6  0  0  0
 22 23  1  0  0  0  0
 23 26  1  1  0  0  0
 24 23  1  0  0  0  0
 24 25  1  0  0  0  0
 26 27  1  0  0  0  0
 28 30  1  0  0  0  0
 29 30  1  0  0  0  0
 31 28  1  0  0  0  0
 32 27  1  6  0  0  0
 32 31  1  0  0  0  0
 32 29  1  0  0  0  0
 33 34  1  0  0  0  0
 34 37  1  0  0  0  0
 35 39  1  0  0  0  0
 35 43  1  0  0  0  0
 36 40  1  0  0  0  0
 37 35  2  0  0  0  0
 38 36  2  0  0  0  0
 38 37  1  0  0  0  0
 40 39  2  0  0  0  0
 42 44  2  0  0  0  0
 42 41  1  0  0  0  0
 43 42  1  0  0  0  0
 45 46  1  0  0  0  0
 46 48  1  0  0  0  0
 46 36  1  0  0  0  0
 47 45  2  0  0  0  0
 49 48  1  0  0  0  0
 50 45  1  0  0  0  0
 51 50  1  0  0  0  0
 52 51  1  1  0  0  0
 54 55  1  0  0  0  0
 55 53  1  0  0  0  0
 55 52  1  0  0  0  0
 57 52  1  0  0  0  0
 57 56  1  1  0  0  0
 58 63  1  0  0  0  0
 58 57  1  1  0  0  0
 58 61  1  0  0  0  0
 61 60  1  0  0  0  0
 62 59  1  6  0  0  0
 62 60  1  0  0  0  0
 63 62  1  0  0  0  0
M  END
>  <MODEL>
5

>  <REMARK>
 VINA RESULT:      -5.6      1.318      1.825
  Name = 
  23 active torsions:
  status: ('A' for Active; 'I' for Inactive)
    1  A    between atoms: C_1  and  N_60
    2  A    between atoms: C_2  and  C_22
    3  A    between atoms: C_2  and  C_49
    4  A    between atoms: O_3  and  C_10
    5  A    between atoms: C_6  and  C_43
    6  A    between atoms: C_6  and  C_63
    7  A    between atoms: C_9  and  N_56
    8  A    between atoms: C_10  and  C_26
    9  A    between atoms: C_10  and  C_34
   10  A    between atoms: C_11  and  N_50
   11  A    between atoms: C_12  and  C_14
   12  A    between atoms: C_12  and  C_34
   13  A    between atoms: C_14  and  C_53
   14  A    between atoms: C_15  and  N_50
   15  A    between atoms: C_16  and  N_47
   16  A    between atoms: C_16  and  C_53
   17  A    between atoms: C_21  and  C_49
   18  A    between atoms: C_24  and  C_58
   19  A    between atoms: C_26  and  O_30
   20  A    between atoms: C_29  and  C_43
   21  A    between atoms: O_30  and  C_46
   22  A    between atoms: C_31  and  C_63
   23  A    between atoms: C_58  and  C_63
                            x       y       z     vdW  Elec       q    Type
                         _______ _______ _______ _____ _____    ______ ____

>  <TORSDO>
F 23

$$$$
=
 OpenBabel10222415593D

 63 67  0  0  1  0  0  0  0  0999 V2000
  187.5750  177.2740  142.3590 C   0  0  2  0  0  3  0  0  0  0  0  0
  189.9480  177.6400  141.7380 C   0  0  0  0  0  0  0  0  0  0  0  0
  187.9740  177.6070  140.1640 C   0  0  0  0  0  2  0  0  0  0  0  0
  192.1520  177.1940  142.8320 C   0  0  0  0  0  3  0  0  0  0  0  0
  189.4630  177.9250  140.3330 C   0  0  2  0  0  3  0  0  0  0  0  0
  189.0530  177.3410  142.7190 C   0  0  0  0  0  0  0  0  0  0  0  0
  189.4220  177.0280  144.1250 C   0  0  0  0  0  3  0  0  0  0  0  0
  190.5620  176.4710  144.5350 C   0  0  0  0  0  3  0  0  0  0  0  0
  187.2630  178.1070  141.2620 O   0  0  0  0  0  0  0  0  0  0  0  0
  191.6320  176.0290  143.5970 C   0  0  0  0  0  2  0  0  0  0  0  0
  191.3860  177.8880  141.9880 C   0  0  0  0  0  3  0  0  0  0  0  0
  185.6700  178.5970  143.4410 C   0  0  0  0  0  0  0  0  0  0  0  0
  185.4450  179.2350  142.3770 O   0  0  0  0  0  0  0  0  0  0  0  0
  184.8720  178.8270  144.6020 N   0  0  0  0  0  2  0  0  0  0  0  0
  186.7200  177.6280  143.4950 N   0  0  0  0  0  2  0  0  0  0  0  0
  183.7420  179.7410  144.5920 C   0  0  0  0  0  2  0  0  0  0  0  0
  182.4750  179.0290  144.1560 C   0  0  0  0  0  2  0  0  0  0  0  0
  182.5180  178.7060  142.6610 C   0  0  0  0  0  2  0  0  0  0  0  0
  181.1360  178.3840  142.0840 C   0  0  1  0  0  3  0  0  0  0  0  0
  180.0510  179.0970  142.8820 C   0  0  0  0  0  1  0  0  0  0  0  0
  182.1500  178.2440  139.8890 O   0  0  0  0  0  1  0  0  0  0  0  0
  181.0350  178.7240  140.5850 C   0  0  1  0  0  3  0  0  0  0  0  0
  179.7560  178.2250  139.9060 C   0  0  2  0  0  3  0  0  0  0  0  0
  179.7580  176.8320  139.7690 O   0  0  0  0  0  0  0  0  0  0  0  0
  179.5790  176.6060  138.4050 C   0  0  0  0  0  1  0  0  0  0  0  0
  179.4590  178.9210  138.5740 C   0  0  0  0  0  2  0  0  0  0  0  0
  180.6040  179.5400  138.0650 O   0  0  0  0  0  0  0  0  0  0  0  0
  181.0440  183.0100  137.5940 C   0  0  0  0  0  2  0  0  0  0  0  0
  180.5140  181.0490  136.3410 O   0  0  0  0  0  0  0  0  0  0  0  0
  180.7040  182.4410  136.2320 C   0  0  0  0  0  2  0  0  0  0  0  0
  180.8890  181.8500  138.5270 C   0  0  0  0  0  2  0  0  0  0  0  0
  180.1850  180.8170  137.6880 C   0  0  2  0  0  3  0  0  0  0  0  0
  190.3030  177.1880  139.2880 C   0  0  0  0  0  2  0  0  0  0  0  0
  189.5070  176.1030  138.5790 C   0  0  0  0  0  2  0  0  0  0  0  0
  189.8950  176.8000  136.1470 C   0  0  0  0  0  0  0  0  0  0  0  0
  190.8860  174.2070  135.6120 C   0  0  0  0  0  0  0  0  0  0  0  0
  189.9930  175.8460  137.1850 C   0  0  0  0  0  0  0  0  0  0  0  0
  190.4680  174.5640  136.9030 C   0  0  0  0  0  3  0  0  0  0  0  0
  190.3250  176.4500  134.8590 C   0  0  0  0  0  3  0  0  0  0  0  0
  190.8120  175.1680  134.5940 C   0  0  0  0  0  3  0  0  0  0  0  0
  187.5880  179.7510  136.7830 O   0  0  0  0  0  1  0  0  0  0  0  0
  187.9510  178.4670  136.4130 C   0  0  0  0  0  0  0  0  0  0  0  0
  189.3360  178.0970  136.4180 N   0  0  0  0  0  2  0  0  0  0  0  0
  187.0540  177.6330  136.1190 O   0  0  0  0  0  0  0  0  0  0  0  0
  192.6080  172.3260  135.6190 C   0  0  0  0  0  0  0  0  0  0  0  0
  191.2890  172.8480  135.3420 N   0  0  0  0  0  0  0  0  0  0  0  0
  192.7730  171.0800  135.7410 O   0  0  0  0  0  0  0  0  0  0  0  0
  190.2990  171.9370  134.7690 C   0  0  0  0  0  2  0  0  0  0  0  0
  189.2910  171.6800  135.7010 O   0  0  0  0  0  1  0  0  0  0  0  0
  193.8080  173.2090  135.7390 C   0  0  0  0  0  2  0  0  0  0  0  0
  195.0740  172.4510  135.3800 C   0  0  0  0  0  2  0  0  0  0  0  0
  195.9260  172.3030  136.6400 C   0  0  1  0  0  3  0  0  0  0  0  0
  196.1710  169.9690  135.7110 C   0  0  0  0  0  1  0  0  0  0  0  0
  195.2620  170.2860  137.9650 C   0  0  0  0  0  1  0  0  0  0  0  0
  196.2530  170.8350  136.9570 C   0  0  0  0  0  3  0  0  0  0  0  0
  197.5560  173.3810  135.2280 O   0  0  0  0  0  1  0  0  0  0  0  0
  197.1940  173.1670  136.5620 C   0  0  1  0  0  3  0  0  0  0  0  0
  197.0320  174.5020  137.2980 C   0  0  2  0  0  3  0  0  0  0  0  0
  197.2820  175.7780  140.5460 N   0  0  0  0  0  1  0  0  0  0  0  0
  198.6020  174.3960  139.1290 N   0  0  0  0  0  2  0  0  0  0  0  0
  198.3680  174.9910  137.8230 C   0  0  0  0  0  2  0  0  0  0  0  0
  197.3550  174.4930  139.8720 C   0  0  2  0  0  3  0  0  0  0  0  0
  195.9450  174.3110  138.7380 S   0  0  0  0  0  0  0  0  0  0  0  0
  1  6  1  0  0  0  0
  1 15  1  1  0  0  0
  2 11  1  0  0  0  0
  2  6  2  0  0  0  0
  3  5  1  0  0  0  0
  3  9  1  0  0  0  0
  4 10  1  0  0  0  0
  5 33  1  6  0  0  0
  5  2  1  0  0  0  0
  6  7  1  0  0  0  0
  7  8  2  0  0  0  0
  9  1  1  0  0  0  0
 10  8  1  0  0  0  0
 11  4  2  0  0  0  0
 12 15  1  0  0  0  0
 12 14  1  0  0  0  0
 13 12  2  0  0  0  0
 16 14  1  0  0  0  0
 17 16  1  0  0  0  0
 18 17  1  0  0  0  0
 19 18  1  0  0  0  0
 19 20  1  1  0  0  0
 22 21  1  6  0  0  0
 22 19  1  0  0  0  0
 23 26  1  6  0  0  0
 23 22  1  0  0  0  0
 24 23  1  0  0  0  0
 25 24  1  0  0  0  0
 27 26  1  0  0  0  0
 28 31  1  0  0  0  0
 29 32  1  0  0  0  0
 30 29  1  0  0  0  0
 30 28  1  0  0  0  0
 32 27  1  1  0  0  0
 32 31  1  0  0  0  0
 34 33  1  0  0  0  0
 35 43  1  0  0  0  0
 35 37  1  0  0  0  0
 36 38  1  0  0  0  0
 37 34  1  0  0  0  0
 38 37  2  0  0  0  0
 39 35  2  0  0  0  0
 40 39  1  0  0  0  0
 40 36  2  0  0  0  0
 42 43  1  0  0  0  0
 42 41  1  0  0  0  0
 44 42  2  0  0  0  0
 45 50  1  0  0  0  0
 45 47  2  0  0  0  0
 46 36  1  0  0  0  0
 46 45  1  0  0  0  0
 48 46  1  0  0  0  0
 48 49  1  0  0  0  0
 51 50  1  0  0  0  0
 52 51  1  6  0  0  0
 52 55  1  0  0  0  0
 53 55  1  0  0  0  0
 55 54  1  0  0  0  0
 57 56  1  6  0  0  0
 57 52  1  0  0  0  0
 58 57  1  1  0  0  0
 58 61  1  0  0  0  0
 58 63  1  0  0  0  0
 60 62  1  0  0  0  0
 61 60  1  0  0  0  0
 62 59  1  6  0  0  0
 63 62  1  0  0  0  0
M  END
>  <MODEL>
6

>  <REMARK>
 VINA RESULT:      -5.4      3.128     12.693
  Name = 
  23 active torsions:
  status: ('A' for Active; 'I' for Inactive)
    1  A    between atoms: C_1  and  N_60
    2  A    between atoms: C_2  and  C_22
    3  A    between atoms: C_2  and  C_49
    4  A    between atoms: O_3  and  C_10
    5  A    between atoms: C_6  and  C_43
    6  A    between atoms: C_6  and  C_63
    7  A    between atoms: C_9  and  N_56
    8  A    between atoms: C_10  and  C_26
    9  A    between atoms: C_10  and  C_34
   10  A    between atoms: C_11  and  N_50
   11  A    between atoms: C_12  and  C_14
   12  A    between atoms: C_12  and  C_34
   13  A    between atoms: C_14  and  C_53
   14  A    between atoms: C_15  and  N_50
   15  A    between atoms: C_16  and  N_47
   16  A    between atoms: C_16  and  C_53
   17  A    between atoms: C_21  and  C_49
   18  A    between atoms: C_24  and  C_58
   19  A    between atoms: C_26  and  O_30
   20  A    between atoms: C_29  and  C_43
   21  A    between atoms: O_30  and  C_46
   22  A    between atoms: C_31  and  C_63
   23  A    between atoms: C_58  and  C_63
                            x       y       z     vdW  Elec       q    Type
                         _______ _______ _______ _____ _____    ______ ____

>  <TORSDO>
F 23

$$$$
=
 OpenBabel10222415593D

 63 67  0  0  1  0  0  0  0  0999 V2000
  187.8540  177.8530  141.7830 C   0  0  2  0  0  3  0  0  0  0  0  0
  190.2180  177.6170  141.0730 C   0  0  0  0  0  0  0  0  0  0  0  0
  188.1840  177.4600  139.5860 C   0  0  0  0  0  2  0  0  0  0  0  0
  192.3780  177.1440  142.2420 C   0  0  0  0  0  3  0  0  0  0  0  0
  189.7100  177.5570  139.6480 C   0  0  2  0  0  3  0  0  0  0  0  0
  189.3410  177.7720  142.1010 C   0  0  0  0  0  0  0  0  0  0  0  0
  189.7290  177.8250  143.5350 C   0  0  0  0  0  3  0  0  0  0  0  0
  190.7860  177.2280  144.0880 C   0  0  0  0  0  3  0  0  0  0  0  0
  187.6210  178.3700  140.4900 O   0  0  0  0  0  0  0  0  0  0  0  0
  191.7200  176.3570  143.3190 C   0  0  0  0  0  2  0  0  0  0  0  0
  191.6890  177.6810  141.2330 C   0  0  0  0  0  3  0  0  0  0  0  0
  186.4830  178.1290  143.9260 C   0  0  0  0  0  0  0  0  0  0  0  0
  186.4860  176.8870  144.1450 O   0  0  0  0  0  0  0  0  0  0  0  0
  185.8430  179.0200  144.8400 N   0  0  0  0  0  2  0  0  0  0  0  0
  187.1280  178.6610  142.7670 N   0  0  0  0  0  2  0  0  0  0  0  0
  185.2360  178.5520  146.0740 C   0  0  0  0  0  2  0  0  0  0  0  0
  183.7220  178.5850  145.9780 C   0  0  0  0  0  2  0  0  0  0  0  0
  183.2530  178.1280  144.5960 C   0  0  0  0  0  2  0  0  0  0  0  0
  182.4500  179.2020  143.8560 C   0  0  1  0  0  3  0  0  0  0  0  0
  183.2560  179.7530  142.6860 C   0  0  0  0  0  1  0  0  0  0  0  0
  180.1480  178.7210  144.4330 O   0  0  0  0  0  1  0  0  0  0  0  0
  181.0770  178.6850  143.3870 C   0  0  1  0  0  3  0  0  0  0  0  0
  180.5040  179.4190  142.1710 C   0  0  2  0  0  3  0  0  0  0  0  0
  179.8280  180.5850  142.5480 O   0  0  0  0  0  0  0  0  0  0  0  0
  179.0380  180.9140  141.4460 C   0  0  0  0  0  1  0  0  0  0  0  0
  179.6380  178.5320  141.2720 C   0  0  0  0  0  2  0  0  0  0  0  0
  179.6950  177.1960  141.6800 O   0  0  0  0  0  0  0  0  0  0  0  0
  179.0740  175.0890  138.9180 C   0  0  0  0  0  2  0  0  0  0  0  0
  179.8720  177.2870  139.3970 O   0  0  0  0  0  0  0  0  0  0  0  0
  179.6010  176.3880  138.3450 C   0  0  0  0  0  2  0  0  0  0  0  0
  179.2030  175.2600  140.4000 C   0  0  0  0  0  2  0  0  0  0  0  0
  180.0650  176.4870  140.5370 C   0  0  2  0  0  3  0  0  0  0  0  0
  190.3660  176.4170  138.8650 C   0  0  0  0  0  2  0  0  0  0  0  0
  190.2580  176.6250  137.3610 C   0  0  0  0  0  2  0  0  0  0  0  0
  191.4550  175.0650  135.7240 C   0  0  0  0  0  0  0  0  0  0  0  0
  189.2940  173.2550  135.9430 C   0  0  0  0  0  0  0  0  0  0  0  0
  190.3760  175.3450  136.5910 C   0  0  0  0  0  0  0  0  0  0  0  0
  189.3060  174.4510  136.6760 C   0  0  0  0  0  3  0  0  0  0  0  0
  191.4510  173.8630  135.0000 C   0  0  0  0  0  3  0  0  0  0  0  0
  190.3820  172.9700  135.1060 C   0  0  0  0  0  3  0  0  0  0  0  0
  194.6850  177.0420  136.0120 O   0  0  0  0  0  0  0  0  0  0  0  0
  193.7240  176.1060  136.3520 C   0  0  0  0  0  0  0  0  0  0  0  0
  192.5210  176.0180  135.5760 N   0  0  0  0  0  2  0  0  0  0  0  0
  193.9410  175.3190  137.3110 O   0  0  0  0  0  1  0  0  0  0  0  0
  186.8020  172.8220  135.6150 C   0  0  0  0  0  0  0  0  0  0  0  0
  188.1320  172.4000  135.9920 N   0  0  0  0  0  0  0  0  0  0  0  0
  185.9390  171.9560  135.2970 O   0  0  0  0  0  0  0  0  0  0  0  0
  188.3120  171.0180  136.4330 C   0  0  0  0  0  2  0  0  0  0  0  0
  188.7510  170.2300  135.3670 O   0  0  0  0  0  1  0  0  0  0  0  0
  186.3890  174.2590  135.6130 C   0  0  0  0  0  2  0  0  0  0  0  0
  185.2030  174.4810  136.5350 C   0  0  0  0  0  2  0  0  0  0  0  0
  184.1220  175.2380  135.7630 C   0  0  1  0  0  3  0  0  0  0  0  0
  182.7100  173.5620  137.0140 C   0  0  0  0  0  1  0  0  0  0  0  0
  182.4250  173.8180  134.5940 C   0  0  0  0  0  1  0  0  0  0  0  0
  182.7450  174.5650  135.8740 C   0  0  0  0  0  3  0  0  0  0  0  0
  182.7760  177.2210  136.0230 O   0  0  0  0  0  1  0  0  0  0  0  0
  184.0720  176.7160  136.1760 C   0  0  1  0  0  3  0  0  0  0  0  0
  184.5680  176.9340  137.6110 C   0  0  2  0  0  3  0  0  0  0  0  0
  184.7620  179.5020  139.9800 N   0  0  0  0  0  1  0  0  0  0  0  0
  183.0990  178.6160  138.5270 N   0  0  0  0  0  2  0  0  0  0  0  0
  183.4050  177.1950  138.5480 C   0  0  0  0  0  2  0  0  0  0  0  0
  184.3670  179.3270  138.5930 C   0  0  2  0  0  3  0  0  0  0  0  0
  185.6450  178.3920  137.7000 S   0  0  0  0  0  0  0  0  0  0  0  0
  1  6  1  0  0  0  0
  1 15  1  1  0  0  0
  2 11  1  0  0  0  0
  2  6  2  0  0  0  0
  3  5  1  0  0  0  0
  3  9  1  0  0  0  0
  4 10  1  0  0  0  0
  5 33  1  1  0  0  0
  5  2  1  0  0  0  0
  6  7  1  0  0  0  0
  7  8  2  0  0  0  0
  9  1  1  0  0  0  0
 10  8  1  0  0  0  0
 11  4  2  0  0  0  0
 12 13  2  0  0  0  0
 12 14  1  0  0  0  0
 14 16  1  0  0  0  0
 15 12  1  0  0  0  0
 17 16  1  0  0  0  0
 18 17  1  0  0  0  0
 19 20  1  6  0  0  0
 19 18  1  0  0  0  0
 22 19  1  0  0  0  0
 22 21  1  1  0  0  0
 23 26  1  1  0  0  0
 23 24  1  0  0  0  0
 23 22  1  0  0  0  0
 25 24  1  0  0  0  0
 26 27  1  0  0  0  0
 28 31  1  0  0  0  0
 29 32  1  0  0  0  0
 30 28  1  0  0  0  0
 30 29  1  0  0  0  0
 31 32  1  0  0  0  0
 32 27  1  1  0  0  0
 34 33  1  0  0  0  0
 35 37  1  0  0  0  0
 36 46  1  0  0  0  0
 36 38  1  0  0  0  0
 37 38  2  0  0  0  0
 37 34  1  0  0  0  0
 39 40  1  0  0  0  0
 39 35  2  0  0  0  0
 40 36  2  0  0  0  0
 41 42  2  0  0  0  0
 42 44  1  0  0  0  0
 43 35  1  0  0  0  0
 43 42  1  0  0  0  0
 45 46  1  0  0  0  0
 46 48  1  0  0  0  0
 47 45  2  0  0  0  0
 49 48  1  0  0  0  0
 50 45  1  0  0  0  0
 50 51  1  0  0  0  0
 52 55  1  0  0  0  0
 52 57  1  0  0  0  0
 52 51  1  1  0  0  0
 54 55  1  0  0  0  0
 55 53  1  0  0  0  0
 57 56  1  1  0  0  0
 58 57  1  6  0  0  0
 58 63  1  0  0  0  0
 58 61  1  0  0  0  0
 60 61  1  0  0  0  0
 60 62  1  0  0  0  0
 62 59  1  1  0  0  0
 63 62  1  0  0  0  0
M  END
>  <MODEL>
7

>  <REMARK>
 VINA RESULT:      -5.3      2.784     11.249
  Name = 
  23 active torsions:
  status: ('A' for Active; 'I' for Inactive)
    1  A    between atoms: C_1  and  N_60
    2  A    between atoms: C_2  and  C_22
    3  A    between atoms: C_2  and  C_49
    4  A    between atoms: O_3  and  C_10
    5  A    between atoms: C_6  and  C_43
    6  A    between atoms: C_6  and  C_63
    7  A    between atoms: C_9  and  N_56
    8  A    between atoms: C_10  and  C_26
    9  A    between atoms: C_10  and  C_34
   10  A    between atoms: C_11  and  N_50
   11  A    between atoms: C_12  and  C_14
   12  A    between atoms: C_12  and  C_34
   13  A    between atoms: C_14  and  C_53
   14  A    between atoms: C_15  and  N_50
   15  A    between atoms: C_16  and  N_47
   16  A    between atoms: C_16  and  C_53
   17  A    between atoms: C_21  and  C_49
   18  A    between atoms: C_24  and  C_58
   19  A    between atoms: C_26  and  O_30
   20  A    between atoms: C_29  and  C_43
   21  A    between atoms: O_30  and  C_46
   22  A    between atoms: C_31  and  C_63
   23  A    between atoms: C_58  and  C_63
                            x       y       z     vdW  Elec       q    Type
                         _______ _______ _______ _____ _____    ______ ____

>  <TORSDO>
F 23

$$$$
=
 OpenBabel10222415593D

 63 67  0  0  1  0  0  0  0  0999 V2000
  190.2910  176.1900  137.7190 C   0  0  2  0  0  3  0  0  0  0  0  0
  187.9950  175.9330  136.8190 C   0  0  0  0  0  0  0  0  0  0  0  0
  189.7780  174.1490  136.9060 C   0  0  0  0  0  2  0  0  0  0  0  0
  186.2100  177.5070  136.0480 C   0  0  0  0  0  3  0  0  0  0  0  0
  188.3010  174.4600  136.6490 C   0  0  2  0  0  3  0  0  0  0  0  0
  188.9330  176.7680  137.3430 C   0  0  0  0  0  0  0  0  0  0  0  0
  188.7430  178.2290  137.5360 C   0  0  0  0  0  3  0  0  0  0  0  0
  187.9620  179.0260  136.8050 C   0  0  0  0  0  3  0  0  0  0  0  0
  190.2040  174.8220  138.0580 O   0  0  0  0  0  0  0  0  0  0  0  0
  187.1890  178.5440  135.6250 C   0  0  0  0  0  2  0  0  0  0  0  0
  186.5930  176.3360  136.5600 C   0  0  0  0  0  3  0  0  0  0  0  0
  190.3330  177.0580  140.1260 C   0  0  0  0  0  0  0  0  0  0  0  0
  189.2070  176.5500  140.3790 O   0  0  0  0  0  0  0  0  0  0  0  0
  191.0500  177.7620  141.1390 N   0  0  0  0  0  2  0  0  0  0  0  0
  190.9100  176.9260  138.8250 N   0  0  0  0  0  2  0  0  0  0  0  0
  190.5560  177.8660  142.5020 C   0  0  0  0  0  2  0  0  0  0  0  0
  191.5050  178.6810  143.3600 C   0  0  0  0  0  2  0  0  0  0  0  0
  191.8490  177.9370  144.6510 C   0  0  0  0  0  2  0  0  0  0  0  0
  190.8900  176.7790  144.9420 C   0  0  1  0  0  3  0  0  0  0  0  0
  191.5580  175.4470  144.6220 C   0  0  0  0  0  1  0  0  0  0  0  0
  191.4260  176.9380  147.2980 O   0  0  0  0  0  1  0  0  0  0  0  0
  190.3690  176.8020  146.3910 C   0  0  1  0  0  3  0  0  0  0  0  0
  189.3170  177.8800  146.6700 C   0  0  2  0  0  3  0  0  0  0  0  0
  188.8400  177.8040  147.9840 O   0  0  0  0  0  0  0  0  0  0  0  0
  188.5840  176.4490  148.1940 C   0  0  0  0  0  1  0  0  0  0  0  0
  188.1690  177.8920  145.6550 C   0  0  0  0  0  2  0  0  0  0  0  0
  186.9300  177.8480  146.2990 O   0  0  0  0  0  0  0  0  0  0  0  0
  184.5310  178.3500  143.7590 C   0  0  0  0  0  2  0  0  0  0  0  0
  184.8140  178.7080  146.1020 O   0  0  0  0  0  0  0  0  0  0  0  0
  183.9080  178.8780  145.0360 C   0  0  0  0  0  2  0  0  0  0  0  0
  185.9320  177.9970  144.1510 C   0  0  0  0  0  2  0  0  0  0  0  0
  186.0860  178.6300  145.5090 C   0  0  2  0  0  3  0  0  0  0  0  0
  187.8620  173.9500  135.2750 C   0  0  0  0  0  2  0  0  0  0  0  0
  186.4020  174.2680  134.9900 C   0  0  0  0  0  2  0  0  0  0  0  0
  185.8810  171.7630  135.0540 C   0  0  0  0  0  0  0  0  0  0  0  0
  183.2390  172.3820  135.8470 C   0  0  0  0  0  0  0  0  0  0  0  0
  185.4950  173.1070  135.2600 C   0  0  0  0  0  0  0  0  0  0  0  0
  184.1810  173.3990  135.6340 C   0  0  0  0  0  3  0  0  0  0  0  0
  184.9440  170.7440  135.2800 C   0  0  0  0  0  3  0  0  0  0  0  0
  183.6380  171.0500  135.6690 C   0  0  0  0  0  3  0  0  0  0  0  0
  189.4710  170.5700  134.7130 O   0  0  0  0  0  0  0  0  0  0  0  0
  188.2750  170.8640  135.3460 C   0  0  0  0  0  0  0  0  0  0  0  0
  187.2100  171.4630  134.5960 N   0  0  0  0  0  2  0  0  0  0  0  0
  188.1280  170.5590  136.5600 O   0  0  0  0  0  1  0  0  0  0  0  0
  181.4210  174.0730  136.4320 C   0  0  0  0  0  0  0  0  0  0  0  0
  181.8700  172.7280  136.1470 N   0  0  0  0  0  0  0  0  0  0  0  0
  180.2010  174.3670  136.2860 O   0  0  0  0  0  0  0  0  0  0  0  0
  180.8730  171.6590  136.1480 C   0  0  0  0  0  2  0  0  0  0  0  0
  180.4370  171.4140  137.4520 O   0  0  0  0  0  1  0  0  0  0  0  0
  182.3470  175.1380  136.9250 C   0  0  0  0  0  2  0  0  0  0  0  0
  182.3690  175.1720  138.4430 C   0  0  0  0  0  2  0  0  0  0  0  0
  181.1680  175.9830  138.9290 C   0  0  1  0  0  3  0  0  0  0  0  0
  179.3080  174.3670  139.4730 C   0  0  0  0  0  1  0  0  0  0  0  0
  179.7180  176.2820  140.9460 C   0  0  0  0  0  1  0  0  0  0  0  0
  180.3910  175.2660  140.0440 C   0  0  0  0  0  3  0  0  0  0  0  0
  182.9170  177.6420  138.9950 O   0  0  0  0  0  1  0  0  0  0  0  0
  181.5830  177.4030  139.3430 C   0  0  1  0  0  3  0  0  0  0  0  0
  180.6690  178.4740  138.7370 C   0  0  2  0  0  3  0  0  0  0  0  0
  180.5660  180.6020  135.9610 N   0  0  0  0  0  1  0  0  0  0  0  0
  180.9980  178.2950  136.3520 N   0  0  0  0  0  2  0  0  0  0  0  0
  180.0700  177.9920  137.4290 C   0  0  0  0  0  2  0  0  0  0  0  0
  181.4790  179.6510  136.5710 C   0  0  2  0  0  3  0  0  0  0  0  0
  181.6100  179.9780  138.3550 S   0  0  0  0  0  0  0  0  0  0  0  0
  1  9  1  0  0  0  0
  1 15  1  1  0  0  0
  2  6  2  0  0  0  0
  3  9  1  0  0  0  0
  4 11  2  0  0  0  0
  5 33  1  6  0  0  0
  5  2  1  0  0  0  0
  5  3  1  0  0  0  0
  6  7  1  0  0  0  0
  6  1  1  0  0  0  0
  8  7  2  0  0  0  0
 10  4  1  0  0  0  0
 10  8  1  0  0  0  0
 11  2  1  0  0  0  0
 12 13  2  0  0  0  0
 12 14  1  0  0  0  0
 14 16  1  0  0  0  0
 15 12  1  0  0  0  0
 16 17  1  0  0  0  0
 17 18  1  0  0  0  0
 18 19  1  0  0  0  0
 19 20  1  1  0  0  0
 19 22  1  0  0  0  0
 22 23  1  0  0  0  0
 22 21  1  1  0  0  0
 23 26  1  6  0  0  0
 23 24  1  0  0  0  0
 24 25  1  0  0  0  0
 26 27  1  0  0  0  0
 28 31  1  0  0  0  0
 28 30  1  0  0  0  0
 30 29  1  0  0  0  0
 31 32  1  0  0  0  0
 32 29  1  0  0  0  0
 32 27  1  1  0  0  0
 34 37  1  0  0  0  0
 34 33  1  0  0  0  0
 35 37  2  0  0  0  0
 35 39  1  0  0  0  0
 36 46  1  0  0  0  0
 37 38  1  0  0  0  0
 38 36  2  0  0  0  0
 39 40  2  0  0  0  0
 40 36  1  0  0  0  0
 41 42  2  0  0  0  0
 42 44  1  0  0  0  0
 43 35  1  0  0  0  0
 43 42  1  0  0  0  0
 45 50  1  0  0  0  0
 46 48  1  0  0  0  0
 46 45  1  0  0  0  0
 47 45  2  0  0  0  0
 48 49  1  0  0  0  0
 50 51  1  0  0  0  0
 52 51  1  1  0  0  0
 52 57  1  0  0  0  0
 52 55  1  0  0  0  0
 53 55  1  0  0  0  0
 55 54  1  0  0  0  0
 57 56  1  6  0  0  0
 58 57  1  6  0  0  0
 60 62  1  0  0  0  0
 60 61  1  0  0  0  0
 61 58  1  0  0  0  0
 62 59  1  1  0  0  0
 62 63  1  0  0  0  0
 63 58  1  0  0  0  0
M  END
>  <MODEL>
8

>  <REMARK>
 VINA RESULT:      -4.8      3.952      9.369
  Name = 
  23 active torsions:
  status: ('A' for Active; 'I' for Inactive)
    1  A    between atoms: C_1  and  N_60
    2  A    between atoms: C_2  and  C_22
    3  A    between atoms: C_2  and  C_49
    4  A    between atoms: O_3  and  C_10
    5  A    between atoms: C_6  and  C_43
    6  A    between atoms: C_6  and  C_63
    7  A    between atoms: C_9  and  N_56
    8  A    between atoms: C_10  and  C_26
    9  A    between atoms: C_10  and  C_34
   10  A    between atoms: C_11  and  N_50
   11  A    between atoms: C_12  and  C_14
   12  A    between atoms: C_12  and  C_34
   13  A    between atoms: C_14  and  C_53
   14  A    between atoms: C_15  and  N_50
   15  A    between atoms: C_16  and  N_47
   16  A    between atoms: C_16  and  C_53
   17  A    between atoms: C_21  and  C_49
   18  A    between atoms: C_24  and  C_58
   19  A    between atoms: C_26  and  O_30
   20  A    between atoms: C_29  and  C_43
   21  A    between atoms: O_30  and  C_46
   22  A    between atoms: C_31  and  C_63
   23  A    between atoms: C_58  and  C_63
                            x       y       z     vdW  Elec       q    Type
                         _______ _______ _______ _____ _____    ______ ____

>  <TORSDO>
F 23

$$$$
=
 OpenBabel10222415593D

 63 67  0  0  1  0  0  0  0  0999 V2000
  190.5330  176.3350  137.8750 C   0  0  2  0  0  3  0  0  0  0  0  0
  188.1340  176.3700  137.2490 C   0  0  0  0  0  0  0  0  0  0  0  0
  189.7300  174.4360  136.9620 C   0  0  0  0  0  2  0  0  0  0  0  0
  186.4380  178.1620  136.8410 C   0  0  0  0  0  3  0  0  0  0  0  0
  188.2720  174.8990  136.9180 C   0  0  2  0  0  3  0  0  0  0  0  0
  189.2050  177.0640  137.7210 C   0  0  0  0  0  0  0  0  0  0  0  0
  189.1850  178.5120  138.0590 C   0  0  0  0  0  3  0  0  0  0  0  0
  188.4080  179.4410  137.5010 C   0  0  0  0  0  3  0  0  0  0  0  0
  190.3510  174.9540  138.1060 O   0  0  0  0  0  0  0  0  0  0  0  0
  187.4600  179.1450  136.3900 C   0  0  0  0  0  2  0  0  0  0  0  0
  186.7590  176.9180  137.2010 C   0  0  0  0  0  3  0  0  0  0  0  0
  191.1840  176.5820  140.3380 C   0  0  0  0  0  0  0  0  0  0  0  0
  190.2790  175.7850  140.7070 O   0  0  0  0  0  0  0  0  0  0  0  0
  192.0650  177.1660  141.2980 N   0  0  0  0  0  2  0  0  0  0  0  0
  191.3460  176.9040  138.9540 N   0  0  0  0  0  2  0  0  0  0  0  0
  192.0040  176.8220  142.7080 C   0  0  0  0  0  2  0  0  0  0  0  0
  191.9710  178.0730  143.5680 C   0  0  0  0  0  2  0  0  0  0  0  0
  191.5680  177.7360  145.0040 C   0  0  0  0  0  2  0  0  0  0  0  0
  190.1110  177.2780  145.1200 C   0  0  1  0  0  3  0  0  0  0  0  0
  189.7300  177.0960  146.5850 C   0  0  0  0  0  1  0  0  0  0  0  0
  189.8340  179.2820  143.7900 O   0  0  0  0  0  1  0  0  0  0  0  0
  189.1390  178.2390  144.4120 C   0  0  1  0  0  3  0  0  0  0  0  0
  188.2120  177.5670  143.3940 C   0  0  2  0  0  3  0  0  0  0  0  0
  188.7610  177.5900  142.1060 O   0  0  0  0  0  0  0  0  0  0  0  0
  187.8340  178.2890  141.3330 C   0  0  0  0  0  1  0  0  0  0  0  0
  186.7840  178.1220  143.4060 C   0  0  0  0  0  2  0  0  0  0  0  0
  186.1800  177.9260  144.6510 O   0  0  0  0  0  0  0  0  0  0  0  0
  182.9990  179.3880  144.1960 C   0  0  0  0  0  2  0  0  0  0  0  0
  184.5890  178.0630  143.0070 O   0  0  0  0  0  0  0  0  0  0  0  0
  183.3240  178.6730  142.9000 C   0  0  0  0  0  2  0  0  0  0  0  0
  184.1220  179.0130  145.1140 C   0  0  0  0  0  2  0  0  0  0  0  0
  184.8110  177.8900  144.3840 C   0  0  2  0  0  3  0  0  0  0  0  0
  187.6290  174.5640  135.5710 C   0  0  0  0  0  2  0  0  0  0  0  0
  186.1190  174.7560  135.5970 C   0  0  0  0  0  2  0  0  0  0  0  0
  185.9610  172.2230  135.2760 C   0  0  0  0  0  0  0  0  0  0  0  0
  183.2090  172.3630  135.9060 C   0  0  0  0  0  0  0  0  0  0  0  0
  185.3720  173.4580  135.6260 C   0  0  0  0  0  0  0  0  0  0  0  0
  184.0080  173.5160  135.9170 C   0  0  0  0  0  3  0  0  0  0  0  0
  185.1670  171.0660  135.2780 C   0  0  0  0  0  3  0  0  0  0  0  0
  183.8070  171.1350  135.5860 C   0  0  0  0  0  3  0  0  0  0  0  0
  189.6000  171.2580  134.7680 O   0  0  0  0  0  0  0  0  0  0  0  0
  188.3220  171.1960  135.2960 C   0  0  0  0  0  0  0  0  0  0  0  0
  187.3490  172.1720  134.9020 N   0  0  0  0  0  2  0  0  0  0  0  0
  188.0240  170.2580  136.0820 O   0  0  0  0  0  1  0  0  0  0  0  0
  181.1550  173.6240  136.7390 C   0  0  0  0  0  0  0  0  0  0  0  0
  181.7870  172.4770  136.1280 N   0  0  0  0  0  0  0  0  0  0  0  0
  179.9260  173.8380  136.5410 O   0  0  0  0  0  0  0  0  0  0  0  0
  180.9310  171.3740  135.6930 C   0  0  0  0  0  2  0  0  0  0  0  0
  180.1500  170.9270  136.7610 O   0  0  0  0  0  1  0  0  0  0  0  0
  181.8970  174.5650  137.6330 C   0  0  0  0  0  2  0  0  0  0  0  0
  180.9490  175.2520  138.5990 C   0  0  0  0  0  2  0  0  0  0  0  0
  181.3250  176.7310  138.6810 C   0  0  1  0  0  3  0  0  0  0  0  0
  183.6240  177.5780  139.2860 C   0  0  0  0  0  1  0  0  0  0  0  0
  182.7290  178.0010  137.0440 C   0  0  0  0  0  1  0  0  0  0  0  0
  182.7540  177.0000  138.1830 C   0  0  0  0  0  3  0  0  0  0  0  0
  179.4800  176.8290  137.1310 O   0  0  0  0  0  1  0  0  0  0  0  0
  180.2930  177.6110  137.9590 C   0  0  1  0  0  3  0  0  0  0  0  0
  179.4390  178.4250  138.9380 C   0  0  2  0  0  3  0  0  0  0  0  0
  179.8580  180.8330  141.4420 N   0  0  0  0  0  1  0  0  0  0  0  0
  180.6260  180.5080  139.2130 N   0  0  0  0  0  2  0  0  0  0  0  0
  179.4690  179.8980  138.5800 C   0  0  0  0  0  2  0  0  0  0  0  0
  180.6820  180.0050  140.5780 C   0  0  2  0  0  3  0  0  0  0  0  0
  180.0920  178.2860  140.6260 S   0  0  0  0  0  0  0  0  0  0  0  0
  1  9  1  0  0  0  0
  1 15  1  1  0  0  0
  2  6  2  0  0  0  0
  3  9  1  0  0  0  0
  4 11  2  0  0  0  0
  5 33  1  6  0  0  0
  5  3  1  0  0  0  0
  5  2  1  0  0  0  0
  6  1  1  0  0  0  0
  6  7  1  0  0  0  0
  8  7  2  0  0  0  0
 10  4  1  0  0  0  0
 10  8  1  0  0  0  0
 11  2  1  0  0  0  0
 12 13  2  0  0  0  0
 12 14  1  0  0  0  0
 14 16  1  0  0  0  0
 15 12  1  0  0  0  0
 16 17  1  0  0  0  0
 17 18  1  0  0  0  0
 18 19  1  0  0  0  0
 19 20  1  1  0  0  0
 22 21  1  6  0  0  0
 22 19  1  0  0  0  0
 23 26  1  6  0  0  0
 23 22  1  0  0  0  0
 24 23  1  0  0  0  0
 25 24  1  0  0  0  0
 26 27  1  0  0  0  0
 28 31  1  0  0  0  0
 29 32  1  0  0  0  0
 30 29  1  0  0  0  0
 30 28  1  0  0  0  0
 32 27  1  6  0  0  0
 32 31  1  0  0  0  0
 33 34  1  0  0  0  0
 34 37  1  0  0  0  0
 35 39  2  0  0  0  0
 35 37  1  0  0  0  0
 36 38  1  0  0  0  0
 36 46  1  0  0  0  0
 37 38  2  0  0  0  0
 39 40  1  0  0  0  0
 40 36  2  0  0  0  0
 41 42  2  0  0  0  0
 42 44  1  0  0  0  0
 43 35  1  0  0  0  0
 43 42  1  0  0  0  0
 45 50  1  0  0  0  0
 46 45  1  0  0  0  0
 47 45  2  0  0  0  0
 48 46  1  0  0  0  0
 48 49  1  0  0  0  0
 50 51  1  0  0  0  0
 52 51  1  6  0  0  0
 54 55  1  0  0  0  0
 55 52  1  0  0  0  0
 55 53  1  0  0  0  0
 57 56  1  1  0  0  0
 57 52  1  0  0  0  0
 58 57  1  6  0  0  0
 58 63  1  0  0  0  0
 60 62  1  0  0  0  0
 61 58  1  0  0  0  0
 61 60  1  0  0  0  0
 62 63  1  0  0  0  0
 62 59  1  1  0  0  0
M  END
>  <MODEL>
9

>  <REMARK>
 VINA RESULT:      -4.7      3.829      9.236
  Name = 
  23 active torsions:
  status: ('A' for Active; 'I' for Inactive)
    1  A    between atoms: C_1  and  N_60
    2  A    between atoms: C_2  and  C_22
    3  A    between atoms: C_2  and  C_49
    4  A    between atoms: O_3  and  C_10
    5  A    between atoms: C_6  and  C_43
    6  A    between atoms: C_6  and  C_63
    7  A    between atoms: C_9  and  N_56
    8  A    between atoms: C_10  and  C_26
    9  A    between atoms: C_10  and  C_34
   10  A    between atoms: C_11  and  N_50
   11  A    between atoms: C_12  and  C_14
   12  A    between atoms: C_12  and  C_34
   13  A    between atoms: C_14  and  C_53
   14  A    between atoms: C_15  and  N_50
   15  A    between atoms: C_16  and  N_47
   16  A    between atoms: C_16  and  C_53
   17  A    between atoms: C_21  and  C_49
   18  A    between atoms: C_24  and  C_58
   19  A    between atoms: C_26  and  O_30
   20  A    between atoms: C_29  and  C_43
   21  A    between atoms: O_30  and  C_46
   22  A    between atoms: C_31  and  C_63
   23  A    between atoms: C_58  and  C_63
                            x       y       z     vdW  Elec       q    Type
                         _______ _______ _______ _____ _____    ______ ____

>  <TORSDO>
F 23

$$$$
