=
 OpenBabel10222417063D

 55 64  0  0  1  0  0  0  0  0999 V2000
  189.0130  178.3160  141.1650 C   0  0  0  0  0  2  0  0  0  0  0  0
  187.6360  178.3980  140.6660 N   0  0  0  0  0  0  0  0  0  0  0  0
  185.1670  178.7140  143.4900 C   0  0  0  0  0  0  0  0  0  0  0  0
  187.2660  179.1680  137.0050 C   0  0  2  0  0  3  0  0  0  0  0  0
  184.1160  178.7820  141.2320 C   0  0  0  0  0  0  0  0  0  0  0  0
  185.4090  178.6060  140.7130 C   0  0  0  0  0  0  0  0  0  0  0  0
  182.3460  178.7890  143.3400 Cl  0  0  0  0  0  0  0  0  0  0  0  0
  186.4300  178.6190  142.8790 C   0  0  0  0  0  3  0  0  0  0  0  0
  188.7100  178.7910  137.3380 C   0  0  1  0  0  3  0  0  0  0  0  0
  187.7580  179.2820  138.4650 C   0  0  2  0  0  3  0  0  0  0  0  0
  185.8350  178.4120  139.4100 O   0  0  0  0  0  0  0  0  0  0  0  0
  183.9860  178.7780  142.6580 C   0  0  0  0  0  0  0  0  0  0  0  0
  186.3730  177.9860  136.6430 C   0  0  0  0  0  1  0  0  0  0  0  0
  189.2040  177.3810  137.5940 C   0  0  1  0  0  3  0  0  0  0  0  0
  190.8440  176.3230  139.0670 C   0  0  0  0  0  2  0  0  0  0  0  0
  187.2130  178.2140  139.3210 N   0  0  2  0  0  0  0  0  0  0  0  0
  189.5200  176.9070  141.2200 C   0  0  2  0  0  3  0  0  0  0  0  0
  190.4520  177.3210  138.0740 C   0  0  0  0  0  2  0  0  0  0  0  0
  186.5030  178.5680  141.4960 C   0  0  0  0  0  0  0  0  0  0  0  0
  190.2210  176.5010  140.2000 C   0  0  0  0  0  2  0  0  0  0  0  0
  182.6280  175.0340  137.1220 C   0  0  0  0  0  3  0  0  0  0  0  0
  183.2770  176.3190  137.1570 N   0  0  0  0  0  0  0  0  0  0  0  0
  183.1200  177.1350  138.1590 C   0  0  0  0  0  0  0  0  0  0  0  0
  181.8680  177.8410  140.2650 C   0  0  0  0  0  2  0  0  0  0  0  0
  181.1920  175.7750  138.9800 C   0  0  0  0  0  2  0  0  0  0  0  0
  182.8840  178.9940  140.3520 C   0  0  2  0  0  3  0  0  0  0  0  0
  182.3520  176.6870  139.3820 C   0  0  1  0  0  3  0  0  0  0  0  0
  183.2650  179.4790  138.9430 C   0  0  1  0  0  3  0  0  0  0  0  0
  181.6750  174.7280  138.0150 C   0  0  0  0  0  0  0  0  0  0  0  0
  183.7060  178.4040  138.1120 O   0  0  0  0  0  0  0  0  0  0  0  0
  181.1940  179.7170  137.3320 C   0  0  0  0  0  0  0  0  0  0  0  0
  180.5960  179.6570  135.2930 C   0  0  0  0  0  3  0  0  0  0  0  0
  179.8570  180.6290  135.8760 N   0  0  0  0  0  0  0  0  0  0  0  0
  181.4750  179.1030  136.1660 N   0  0  0  0  0  0  0  0  0  0  0  0
  180.5440  181.8390  138.0050 C   0  0  0  0  0  3  0  0  0  0  0  0
  180.2390  180.6490  137.1600 C   0  0  0  0  0  0  0  0  0  0  0  0
  181.7480  181.4070  138.7270 N   0  0  0  0  0  0  0  0  0  0  0  0
  182.1250  180.2310  138.3140 C   0  0  1  0  0  3  0  0  0  0  0  0
  178.9720  181.5640  135.2030 C   0  0  0  0  0  2  0  0  0  0  0  0
  179.3000  183.9640  135.1120 N   0  0  0  0  0  1  0  0  0  0  0  0
  179.7860  182.6960  134.6090 C   0  0  0  0  0  2  0  0  0  0  0  0
  180.5550  172.3370  137.9780 C   0  0  0  0  0  3  0  0  0  0  0  0
  181.0730  173.4250  137.9980 C   0  0  0  0  0  0  0  0  0  0  0  0
  185.2370  178.7340  145.0100 C   0  0  0  0  0  3  0  0  0  0  0  0
  185.7010  177.4380  145.6490 C   0  0  0  0  0  2  0  0  0  0  0  0
  186.6490  178.6230  145.5470 C   0  0  0  0  0  2  0  0  0  0  0  0
  188.3010  176.1730  137.6690 C   0  0  0  0  0  2  0  0  0  0  0  0
  188.6380  175.1820  136.5630 C   0  0  0  0  0  1  0  0  0  0  0  0
  189.1660  176.0040  142.3690 C   0  0  0  0  0  2  0  0  0  0  0  0
  190.4580  177.5230  145.6740 C   0  0  0  0  0  2  0  0  0  0  0  0
  190.0680  176.1850  143.5960 C   0  0  0  0  0  3  0  0  0  0  0  0
  189.4080  177.0280  144.6890 C   0  0  0  0  0  2  0  0  0  0  0  0
  191.4720  178.4520  144.9920 C   0  0  0  0  0  2  0  0  0  0  0  0
  191.4840  176.6450  143.2090 C   0  0  0  0  0  2  0  0  0  0  0  0
  191.7040  178.1250  143.5110 C   0  0  0  0  0  2  0  0  0  0  0  0
  1 17  1  0  0  0  0
  2  1  1  0  0  0  0
  2 19  1  0  0  0  0
  3 44  1  0  0  0  0
  4 13  1  1  0  0  0
  4  9  1  0  0  0  0
  4 10  1  0  0  0  0
  5 12  1  0  0  0  0
  6  5  2  0  0  0  0
  6 19  1  0  0  0  0
  8  3  1  0  0  0  0
  9 14  1  0  0  0  0
  9 10  1  0  0  0  0
 10 16  1  0  0  0  0
 11  6  1  0  0  0  0
 12  7  1  0  0  0  0
 12  3  2  0  0  0  0
 14 47  1  0  0  0  0
 14 18  1  0  0  0  0
 15 20  1  0  0  0  0
 16 11  1  0  0  0  0
 16  2  1  0  0  0  0
 17 49  1  0  0  0  0
 18 15  1  0  0  0  0
 19  8  2  0  0  0  0
 20 17  1  0  0  0  0
 21 22  1  0  0  0  0
 21 29  2  0  0  0  0
 22 23  2  0  0  0  0
 23 27  1  0  0  0  0
 24 26  1  0  0  0  0
 25 27  1  0  0  0  0
 26  5  1  0  0  0  0
 27 24  1  0  0  0  0
 28 26  1  0  0  0  0
 29 25  1  0  0  0  0
 30 23  1  0  0  0  0
 30 28  1  0  0  0  0
 31 38  1  0  0  0  0
 32 33  1  0  0  0  0
 32 34  2  0  0  0  0
 33 36  1  0  0  0  0
 34 31  1  0  0  0  0
 35 37  2  0  0  0  0
 36 31  2  0  0  0  0
 36 35  1  0  0  0  0
 38 37  1  0  0  0  0
 38 28  1  0  0  0  0
 39 33  1  0  0  0  0
 41 40  1  0  0  0  0
 41 39  1  0  0  0  0
 42 43  3  0  0  0  0
 43 29  1  0  0  0  0
 44 46  1  0  0  0  0
 44 45  1  0  0  0  0
 46 45  1  0  0  0  0
 48 47  1  0  0  0  0
 49 51  1  0  0  0  0
 51 52  1  0  0  0  0
 52 50  1  0  0  0  0
 53 50  1  0  0  0  0
 54 55  1  0  0  0  0
 54 51  1  0  0  0  0
 55 53  1  0  0  0  0
M  END
>  <MODEL>
1

>  <REMARK>
 VINA RESULT:      -8.6      0.000      0.000
  Name = 
  9 active torsions:
  status: ('A' for Active; 'I' for Inactive)
    1  A    between atoms: C_4  and  C_8
    2  A    between atoms: C_11  and  C_51
    3  A    between atoms: N_13  and  C_36
    4  A    between atoms: C_14  and  C_28
    5  A    between atoms: C_15  and  C_45
    6  A    between atoms: C_33  and  C_36
    7  A    between atoms: C_39  and  C_46
    8  A    between atoms: C_41  and  C_54
    9  A    between atoms: C_49  and  C_51
                            x       y       z     vdW  Elec       q    Type
                         _______ _______ _______ _____ _____    ______ ____

>  <TORSDO>
F 9

$$$$
=
 OpenBabel10222417063D

 55 64  0  0  1  0  0  0  0  0999 V2000
  188.9150  178.7490  140.6030 C   0  0  0  0  0  2  0  0  0  0  0  0
  187.6240  178.4380  139.9820 N   0  0  0  0  0  0  0  0  0  0  0  0
  184.7690  179.0980  142.3450 C   0  0  0  0  0  0  0  0  0  0  0  0
  187.6550  178.0570  136.2420 C   0  0  2  0  0  3  0  0  0  0  0  0
  184.0400  178.3330  140.0880 C   0  0  0  0  0  0  0  0  0  0  0  0
  185.4040  178.2500  139.7650 C   0  0  0  0  0  0  0  0  0  0  0  0
  182.0140  178.6210  141.9290 Cl  0  0  0  0  0  0  0  0  0  0  0  0
  186.1040  179.0600  141.9070 C   0  0  0  0  0  3  0  0  0  0  0  0
  189.0780  178.0550  136.8000 C   0  0  1  0  0  3  0  0  0  0  0  0
  187.9190  178.6680  137.6360 C   0  0  2  0  0  3  0  0  0  0  0  0
  186.0300  177.7730  138.6260 O   0  0  0  0  0  0  0  0  0  0  0  0
  183.7170  178.7110  141.4310 C   0  0  0  0  0  0  0  0  0  0  0  0
  187.0000  176.6810  136.1770 C   0  0  0  0  0  1  0  0  0  0  0  0
  189.7300  176.8880  137.5150 C   0  0  1  0  0  3  0  0  0  0  0  0
  191.2860  176.6020  139.3790 C   0  0  0  0  0  2  0  0  0  0  0  0
  187.4210  177.8080  138.7240 N   0  0  2  0  0  0  0  0  0  0  0  0
  189.6070  177.5280  141.1270 C   0  0  2  0  0  3  0  0  0  0  0  0
  190.8960  177.1900  138.1000 C   0  0  0  0  0  2  0  0  0  0  0  0
  186.3740  178.6320  140.6170 C   0  0  0  0  0  0  0  0  0  0  0  0
  190.4930  176.9800  140.3450 C   0  0  0  0  0  2  0  0  0  0  0  0
  179.8030  182.1150  139.1490 C   0  0  0  0  0  3  0  0  0  0  0  0
  179.9380  180.8830  139.8810 N   0  0  0  0  0  0  0  0  0  0  0  0
  180.8690  180.0190  139.5950 C   0  0  0  0  0  0  0  0  0  0  0  0
  182.6600  179.1380  138.0090 C   0  0  0  0  0  2  0  0  0  0  0  0
  181.3130  181.1940  137.4360 C   0  0  0  0  0  2  0  0  0  0  0  0
  182.9240  178.0620  139.0790 C   0  0  2  0  0  3  0  0  0  0  0  0
  181.9200  180.3580  138.5630 C   0  0  1  0  0  3  0  0  0  0  0  0
  181.6110  177.6640  139.7730 C   0  0  1  0  0  3  0  0  0  0  0  0
  180.4900  182.3130  138.0140 C   0  0  0  0  0  0  0  0  0  0  0  0
  180.9120  178.8010  140.2810 O   0  0  0  0  0  0  0  0  0  0  0  0
  180.9560  175.4700  138.4680 C   0  0  0  0  0  0  0  0  0  0  0  0
  181.6140  174.1030  136.9790 C   0  0  0  0  0  3  0  0  0  0  0  0
  180.2750  174.2240  136.8190 N   0  0  0  0  0  0  0  0  0  0  0  0
  182.0740  174.9080  137.9700 N   0  0  0  0  0  0  0  0  0  0  0  0
  178.9310  176.2260  137.6270 C   0  0  0  0  0  3  0  0  0  0  0  0
  179.8750  175.0800  137.7680 C   0  0  0  0  0  0  0  0  0  0  0  0
  179.5960  177.2750  138.4120 N   0  0  0  0  0  0  0  0  0  0  0  0
  180.7470  176.8520  138.8480 C   0  0  1  0  0  3  0  0  0  0  0  0
  179.4820  173.6750  135.7330 C   0  0  0  0  0  2  0  0  0  0  0  0
  178.9320  171.6190  136.8930 N   0  0  0  0  0  1  0  0  0  0  0  0
  179.6000  172.1640  135.7300 C   0  0  0  0  0  2  0  0  0  0  0  0
  180.3070  184.6200  136.7430 C   0  0  0  0  0  3  0  0  0  0  0  0
  180.3820  183.5650  137.3230 C   0  0  0  0  0  0  0  0  0  0  0  0
  184.6240  179.5600  143.7870 C   0  0  0  0  0  3  0  0  0  0  0  0
  183.8890  178.5960  144.7010 C   0  0  0  0  0  2  0  0  0  0  0  0
  185.4040  178.7110  144.7700 C   0  0  0  0  0  2  0  0  0  0  0  0
  189.0090  175.6090  137.8710 C   0  0  0  0  0  2  0  0  0  0  0  0
  189.6390  174.4210  137.1570 C   0  0  0  0  0  1  0  0  0  0  0  0
  189.2320  176.9400  142.4590 C   0  0  0  0  0  2  0  0  0  0  0  0
  191.6210  176.7960  145.4880 C   0  0  0  0  0  2  0  0  0  0  0  0
  190.0880  177.4540  143.6230 C   0  0  0  0  0  3  0  0  0  0  0  0
  191.1030  176.4170  144.1070 C   0  0  0  0  0  2  0  0  0  0  0  0
  190.4940  176.7870  146.5300 C   0  0  0  0  0  2  0  0  0  0  0  0
  189.2310  178.0710  144.7420 C   0  0  0  0  0  2  0  0  0  0  0  0
  189.1200  177.1450  145.9510 C   0  0  0  0  0  2  0  0  0  0  0  0
  1 17  1  0  0  0  0
  2  1  1  0  0  0  0
  2 19  1  0  0  0  0
  3 44  1  0  0  0  0
  4 13  1  1  0  0  0
  4  9  1  0  0  0  0
  4 10  1  0  0  0  0
  5 12  1  0  0  0  0
  6  5  2  0  0  0  0
  6 19  1  0  0  0  0
  8  3  1  0  0  0  0
  9 14  1  0  0  0  0
  9 10  1  0  0  0  0
 10 16  1  0  0  0  0
 11 16  1  0  0  0  0
 11  6  1  0  0  0  0
 12  7  1  0  0  0  0
 12  3  2  0  0  0  0
 14 47  1  0  0  0  0
 14 18  1  0  0  0  0
 15 20  1  0  0  0  0
 16  2  1  0  0  0  0
 17 49  1  0  0  0  0
 18 15  1  0  0  0  0
 19  8  2  0  0  0  0
 20 17  1  0  0  0  0
 21 22  1  0  0  0  0
 23 22  2  0  0  0  0
 23 30  1  0  0  0  0
 24 27  1  0  0  0  0
 24 26  1  0  0  0  0
 25 29  1  0  0  0  0
 25 27  1  0  0  0  0
 26 28  1  0  0  0  0
 26  5  1  0  0  0  0
 27 23  1  0  0  0  0
 28 30  1  0  0  0  0
 29 21  2  0  0  0  0
 31 38  1  0  0  0  0
 32 34  2  0  0  0  0
 33 32  1  0  0  0  0
 33 36  1  0  0  0  0
 34 31  1  0  0  0  0
 35 36  1  0  0  0  0
 35 37  2  0  0  0  0
 36 31  2  0  0  0  0
 37 38  1  0  0  0  0
 38 28  1  0  0  0  0
 39 33  1  0  0  0  0
 41 39  1  0  0  0  0
 41 40  1  0  0  0  0
 42 43  3  0  0  0  0
 43 29  1  0  0  0  0
 44 45  1  0  0  0  0
 44 46  1  0  0  0  0
 45 46  1  0  0  0  0
 48 47  1  0  0  0  0
 49 51  1  0  0  0  0
 50 53  1  0  0  0  0
 51 52  1  0  0  0  0
 51 54  1  0  0  0  0
 52 50  1  0  0  0  0
 54 55  1  0  0  0  0
 55 53  1  0  0  0  0
M  END
>  <MODEL>
2

>  <REMARK>
 VINA RESULT:      -8.5      1.762      4.528
  Name = 
  9 active torsions:
  status: ('A' for Active; 'I' for Inactive)
    1  A    between atoms: C_4  and  C_8
    2  A    between atoms: C_11  and  C_51
    3  A    between atoms: N_13  and  C_36
    4  A    between atoms: C_14  and  C_28
    5  A    between atoms: C_15  and  C_45
    6  A    between atoms: C_33  and  C_36
    7  A    between atoms: C_39  and  C_46
    8  A    between atoms: C_41  and  C_54
    9  A    between atoms: C_49  and  C_51
                            x       y       z     vdW  Elec       q    Type
                         _______ _______ _______ _____ _____    ______ ____

>  <TORSDO>
F 9

$$$$
