=
 OpenBabel10222420423D

 66 71  0  0  1  0  0  0  0  0999 V2000
  189.2770  176.9480  139.0500 C   0  0  1  0  0  3  0  0  0  0  0  0
  188.3430  178.1110  138.8370 C   0  0  0  0  0  0  0  0  0  0  0  0
  188.7530  179.1720  138.3970 O   0  0  0  0  0  0  0  0  0  0  0  0
  186.9020  177.9900  139.2250 C   0  0  0  0  0  2  0  0  0  0  0  0
  186.0800  178.7490  138.2960 N   0  0  0  0  0  2  0  0  0  0  0  0
  184.8190  178.0320  138.1230 C   0  0  0  0  0  2  0  0  0  0  0  0
  181.8590  178.3840  137.4130 N   0  0  0  0  0  0  0  0  0  0  0  0
  180.3320  180.1400  136.9140 C   0  0  0  0  0  3  0  0  0  0  0  0
  182.7720  176.3480  139.6760 C   0  0  0  0  0  2  0  0  0  0  0  0
  181.1060  181.0260  137.6770 C   0  0  0  0  0  0  0  0  0  0  0  0
  183.2690  177.7190  140.1370 C   0  0  0  0  0  2  0  0  0  0  0  0
  182.5910  179.1990  138.2140 C   0  0  0  0  0  0  0  0  0  0  0  0
  183.7320  178.6500  139.0060 C   0  0  2  0  0  3  0  0  0  0  0  0
  180.0270  176.4850  136.0170 N   0  0  0  0  0  2  0  0  0  0  0  0
  179.9230  177.8930  136.0360 N   0  0  0  0  0  2  0  0  0  0  0  0
  180.7200  178.7990  136.8070 C   0  0  0  0  0  0  0  0  0  0  0  0
  182.2320  180.5420  138.3540 C   0  0  0  0  0  3  0  0  0  0  0  0
  180.4410  175.6020  137.0750 C   0  0  0  0  0  3  0  0  0  0  0  0
  181.3010  176.3470  139.4260 C   0  0  0  0  0  3  0  0  0  0  0  0
  180.8480  175.9850  138.2570 C   0  0  0  0  0  0  0  0  0  0  0  0
  179.8790  182.6560  138.8970 F   0  0  0  0  0  0  0  0  0  0  0  0
  181.8600  183.2340  138.0080 F   0  0  0  0  0  0  0  0  0  0  0  0
  180.0760  182.8980  136.6660 F   0  0  0  0  0  0  0  0  0  0  0  0
  180.7240  182.4710  137.8170 C   0  0  0  0  0  0  0  0  0  0  0  0
  190.4850  176.9470  138.1040 C   0  0  1  0  0  3  0  0  0  0  0  0
  191.8110  176.9090  138.8410 C   0  0  0  0  0  1  0  0  0  0  0  0
  190.3960  175.8120  137.0900 C   0  0  0  0  0  2  0  0  0  0  0  0
  191.4850  175.9150  136.1240 N   0  0  0  0  0  2  0  0  0  0  0  0
  192.0280  174.5790  135.9100 C   0  0  1  0  0  3  0  0  0  0  0  0
  193.4330  174.4450  136.5210 C   0  0  2  0  0  3  0  0  0  0  0  0
  195.7390  173.3150  136.3940 C   0  0  1  0  0  3  0  0  0  0  0  0
  197.2410  176.3220  135.9190 O   0  0  0  0  0  0  0  0  0  0  0  0
  193.6820  172.0640  136.3130 O   0  0  0  0  0  1  0  0  0  0  0  0
  194.9540  176.1670  135.3990 C   0  0  0  0  0  2  0  0  0  0  0  0
  196.5640  174.1310  135.4050 C   0  0  0  0  0  2  0  0  0  0  0  0
  194.1200  175.8160  136.6220 C   0  0  0  0  0  2  0  0  0  0  0  0
  194.2720  173.2790  135.9470 C   0  0  1  0  0  3  0  0  0  0  0  0
  196.3250  175.5960  135.5720 C   0  0  0  0  0  0  0  0  0  0  0  0
  196.2680  172.0230  136.4460 O   0  0  0  0  0  1  0  0  0  0  0  0
  191.0490  173.5030  136.3810 C   0  0  0  0  0  2  0  0  0  0  0  0
  190.1810  173.1300  135.3540 O   0  0  0  0  0  1  0  0  0  0  0  0
  189.6020  176.6240  140.5160 C   0  0  0  0  0  2  0  0  0  0  0  0
  189.4650  177.8010  141.3590 N   0  0  0  0  0  2  0  0  0  0  0  0
  190.4150  178.1390  142.3660 C   0  0  0  0  0  0  0  0  0  0  0  0
  190.2060  179.1420  143.1010 O   0  0  0  0  0  0  0  0  0  0  0  0
  191.6740  177.3460  142.5460 C   0  0  0  0  0  2  0  0  0  0  0  0
  191.5950  176.4640  143.7530 C   0  0  0  0  0  0  0  0  0  0  0  0
  191.8060  175.2250  143.6390 O   0  0  0  0  0  0  0  0  0  0  0  0
  191.9890  178.0960  145.4350 O   0  0  0  0  0  0  0  0  0  0  0  0
  191.3680  177.0530  145.0880 C   0  0  0  0  0  0  0  0  0  0  0  0
  190.3940  176.4180  146.0400 C   0  0  2  0  0  3  0  0  0  0  0  0
  189.0050  176.9400  145.8580 C   0  0  0  0  0  0  0  0  0  0  0  0
  186.4360  178.0320  145.5370 C   0  0  0  0  0  0  0  0  0  0  0  0
  187.0480  177.3380  144.4820 C   0  0  0  0  0  3  0  0  0  0  0  0
  188.3920  177.6210  146.9170 C   0  0  0  0  0  3  0  0  0  0  0  0
  188.3260  176.7960  144.6400 C   0  0  0  0  0  3  0  0  0  0  0  0
  187.1160  178.1680  146.7580 C   0  0  0  0  0  3  0  0  0  0  0  0
  185.0820  178.6450  145.3320 C   0  0  1  0  0  0  0  0  0  0  0  0
  184.8860  179.5030  144.1620 C   0  0  2  0  0  3  0  0  0  0  0  0
  183.5110  180.1320  144.1130 C   0  0  0  0  0  2  0  0  0  0  0  0
  184.3330  178.1250  144.1700 N   0  0  2  0  0  0  0  0  0  0  0  0
  182.9950  178.7110  144.1190 C   0  0  0  0  0  2  0  0  0  0  0  0
  184.2980  178.8990  146.4720 O   0  0  0  0  0  1  0  0  0  0  0  0
  190.8080  176.5790  147.3680 O   0  0  0  0  0  0  0  0  0  0  0  0
  191.5700  175.5320  147.6130 O   0  0  0  0  0  0  0  0  0  0  0  0
  192.6460  176.0400  148.3480 C   0  0  0  0  0  1  0  0  0  0  0  0
  1 42  1  1  0  0  0
  2  1  1  0  0  0  0
  2  4  1  0  0  0  0
  3  2  2  0  0  0  0
  5  4  1  0  0  0  0
  6  5  1  0  0  0  0
  7 12  1  0  0  0  0
  8 10  2  0  0  0  0
  9 11  1  0  0  0  0
 10 24  1  0  0  0  0
 10 17  1  0  0  0  0
 12 17  2  0  0  0  0
 12 13  1  0  0  0  0
 13  6  1  6  0  0  0
 13 11  1  0  0  0  0
 14 15  1  0  0  0  0
 14 18  1  0  0  0  0
 15 16  1  0  0  0  0
 16  8  1  0  0  0  0
 16  7  2  0  0  0  0
 18 20  2  0  0  0  0
 19  9  1  0  0  0  0
 20 19  2  0  0  0  0
 23 24  1  0  0  0  0
 24 22  1  0  0  0  0
 24 21  1  0  0  0  0
 25 26  1  1  0  0  0
 25  1  1  0  0  0  0
 27 25  1  0  0  0  0
 28 27  1  0  0  0  0
 29 28  1  0  0  0  0
 29 40  1  1  0  0  0
 30 29  1  6  0  0  0
 30 36  1  0  0  0  0
 31 39  1  6  0  0  0
 34 38  1  0  0  0  0
 34 36  1  0  0  0  0
 35 38  1  0  0  0  0
 35 31  1  0  0  0  0
 37 33  1  1  0  0  0
 37 31  1  0  0  0  0
 37 30  1  0  0  0  0
 38 32  2  0  0  0  0
 41 40  1  0  0  0  0
 42 43  1  0  0  0  0
 43 44  1  0  0  0  0
 44 46  1  0  0  0  0
 44 45  2  0  0  0  0
 46 47  1  0  0  0  0
 47 50  1  0  0  0  0
 48 47  2  0  0  0  0
 50 49  2  0  0  0  0
 51 50  1  6  0  0  0
 51 64  1  0  0  0  0
 52 51  1  0  0  0  0
 52 55  1  0  0  0  0
 53 57  1  0  0  0  0
 54 56  1  0  0  0  0
 54 53  2  0  0  0  0
 56 52  2  0  0  0  0
 57 55  2  0  0  0  0
 58 53  1  0  0  0  0
 58 63  1  1  0  0  0
 59 60  1  1  0  0  0
 59 61  1  0  0  0  0
 59 58  1  0  0  0  0
 60 62  1  0  0  0  0
 61 62  1  1  0  0  0
 61 58  1  0  0  0  0
 64 65  1  0  0  0  0
 65 66  1  0  0  0  0
M  END
>  <MODEL>
1

>  <REMARK>
 VINA RESULT:      -8.3      0.000      0.000
  Name = 
  22 active torsions:
  status: ('A' for Active; 'I' for Inactive)
    1  A    between atoms: C_1  and  C_34
    2  A    between atoms: N_3  and  C_36
    3  A    between atoms: C_4  and  C_6
    4  A    between atoms: O_5  and  C_34
    5  A    between atoms: O_5  and  O_41
    6  A    between atoms: C_9  and  C_26
    7  A    between atoms: C_9  and  N_60
    8  A    between atoms: CA_10  and  C_14
    9  A    between atoms: CA_10  and  C_15
   10  A    between atoms: CA_10  and  N_64
   11  A    between atoms: C_11  and  C_25
   12  A    between atoms: C_11  and  N_64
   13  A    between atoms: C_13  and  C_58
   14  A    between atoms: C_17  and  C_30
   15  A    between atoms: C_17  and  C_53
   16  A    between atoms: C_21  and  C_24
   17  A    between atoms: C_21  and  C_34
   18  A    between atoms: C_24  and  C_47
   19  A    between atoms: C_25  and  C_30
   20  A    between atoms: C_30  and  C_36
   21  A    between atoms: C_31  and  C_47
   22  A    between atoms: C_53  and  N_60
                            x       y       z     vdW  Elec       q    Type
                         _______ _______ _______ _____ _____    ______ ____

>  <TORSDO>
F 22

$$$$
=
 OpenBabel10222420423D

 66 71  0  0  1  0  0  0  0  0999 V2000
  188.0940  178.1200  138.7510 C   0  0  1  0  0  3  0  0  0  0  0  0
  189.3810  177.7790  139.4550 C   0  0  0  0  0  0  0  0  0  0  0  0
  190.4490  177.8250  138.8660 O   0  0  0  0  0  0  0  0  0  0  0  0
  189.3520  177.3190  140.8790 C   0  0  0  0  0  2  0  0  0  0  0  0
  190.0920  178.2550  141.7100 N   0  0  0  0  0  2  0  0  0  0  0  0
  189.3790  178.3910  142.9780 C   0  0  0  0  0  2  0  0  0  0  0  0
  188.8910  177.9440  145.9700 N   0  0  0  0  0  0  0  0  0  0  0  0
  190.0970  177.2430  147.8980 C   0  0  0  0  0  3  0  0  0  0  0  0
  186.7580  177.0160  143.8040 C   0  0  0  0  0  2  0  0  0  0  0  0
  190.9560  176.4910  147.0840 C   0  0  0  0  0  0  0  0  0  0  0  0
  188.0430  176.2610  143.4610 C   0  0  0  0  0  2  0  0  0  0  0  0
  189.6620  177.1720  145.1630 C   0  0  0  0  0  0  0  0  0  0  0  0
  189.3390  177.0470  143.7090 C   0  0  2  0  0  3  0  0  0  0  0  0
  186.9280  179.2920  147.7710 N   0  0  0  0  0  2  0  0  0  0  0  0
  188.1610  178.7170  148.1510 N   0  0  0  0  0  2  0  0  0  0  0  0
  189.0430  177.9580  147.3170 C   0  0  0  0  0  0  0  0  0  0  0  0
  190.7170  176.4360  145.7050 C   0  0  0  0  0  3  0  0  0  0  0  0
  185.9890  178.8280  146.7840 C   0  0  0  0  0  3  0  0  0  0  0  0
  186.3300  176.7700  145.2110 C   0  0  0  0  0  3  0  0  0  0  0  0
  186.1590  177.7820  146.0180 C   0  0  0  0  0  0  0  0  0  0  0  0
  192.9400  175.2470  146.6740 F   0  0  0  0  0  0  0  0  0  0  0  0
  192.8220  176.5180  148.5230 F   0  0  0  0  0  0  0  0  0  0  0  0
  191.6050  174.6220  148.3770 F   0  0  0  0  0  0  0  0  0  0  0  0
  192.0970  175.7090  147.6680 C   0  0  0  0  0  0  0  0  0  0  0  0
  188.0290  177.6120  137.3040 C   0  0  1  0  0  3  0  0  0  0  0  0
  188.9250  178.3980  136.3640 C   0  0  0  0  0  1  0  0  0  0  0  0
  188.3340  176.1210  137.2220 C   0  0  0  0  0  2  0  0  0  0  0  0
  187.5720  175.5110  136.1380 N   0  0  0  0  0  2  0  0  0  0  0  0
  186.7070  174.4870  136.7130 C   0  0  1  0  0  3  0  0  0  0  0  0
  185.2450  174.6880  136.2820 C   0  0  2  0  0  3  0  0  0  0  0  0
  182.7630  174.5030  136.9280 C   0  0  1  0  0  3  0  0  0  0  0  0
  182.3650  177.8530  136.5470 O   0  0  0  0  0  0  0  0  0  0  0  0
  184.3180  172.6900  137.2440 O   0  0  0  0  0  1  0  0  0  0  0  0
  184.5470  177.0640  136.9170 C   0  0  0  0  0  2  0  0  0  0  0  0
  182.4150  175.7880  137.6700 C   0  0  0  0  0  2  0  0  0  0  0  0
  185.0050  176.1290  135.8080 C   0  0  0  0  0  2  0  0  0  0  0  0
  184.2030  174.0840  137.2530 C   0  0  1  0  0  3  0  0  0  0  0  0
  183.0590  176.9770  137.0350 C   0  0  0  0  0  0  0  0  0  0  0  0
  181.8620  173.5110  137.3240 O   0  0  0  0  0  1  0  0  0  0  0  0
  187.2460  173.0860  136.4270 C   0  0  0  0  0  2  0  0  0  0  0  0
  188.4020  172.8310  137.1650 O   0  0  0  0  0  1  0  0  0  0  0  0
  186.8150  177.8990  139.5720 C   0  0  0  0  0  2  0  0  0  0  0  0
  186.7010  178.8790  140.6410 N   0  0  0  0  0  2  0  0  0  0  0  0
  185.4840  179.1060  141.3480 C   0  0  0  0  0  0  0  0  0  0  0  0
  185.4380  180.0120  142.2250 O   0  0  0  0  0  0  0  0  0  0  0  0
  184.2680  178.2670  141.0930 C   0  0  0  0  0  2  0  0  0  0  0  0
  183.2440  178.4510  142.1700 C   0  0  0  0  0  0  0  0  0  0  0  0
  183.5930  178.3970  143.3820 O   0  0  0  0  0  0  0  0  0  0  0  0
  181.1490  179.4840  142.6090 O   0  0  0  0  0  0  0  0  0  0  0  0
  181.8520  178.7940  141.8190 C   0  0  0  0  0  0  0  0  0  0  0  0
  181.2630  178.3290  140.5170 C   0  0  2  0  0  3  0  0  0  0  0  0
  181.0050  179.4620  139.5770 C   0  0  0  0  0  0  0  0  0  0  0  0
  180.4570  181.6470  137.8970 C   0  0  0  0  0  0  0  0  0  0  0  0
  181.7810  181.3190  138.2230 C   0  0  0  0  0  3  0  0  0  0  0  0
  179.6830  179.7800  139.2440 C   0  0  0  0  0  3  0  0  0  0  0  0
  182.0550  180.2330  139.0590 C   0  0  0  0  0  3  0  0  0  0  0  0
  179.4080  180.8690  138.4120 C   0  0  0  0  0  3  0  0  0  0  0  0
  180.1820  182.8440  137.0340 C   0  0  1  0  0  0  0  0  0  0  0  0
  180.1460  184.1590  137.6760 C   0  0  2  0  0  3  0  0  0  0  0  0
  179.7730  185.2720  136.7210 C   0  0  0  0  0  2  0  0  0  0  0  0
  181.3250  183.7640  136.8640 N   0  0  2  0  0  0  0  0  0  0  0  0
  180.9850  184.8350  135.9310 C   0  0  0  0  0  2  0  0  0  0  0  0
  179.4020  182.6530  135.8800 O   0  0  0  0  0  1  0  0  0  0  0  0
  180.0920  177.5900  140.7260 O   0  0  0  0  0  0  0  0  0  0  0  0
  180.1990  176.5540  139.9180 O   0  0  0  0  0  0  0  0  0  0  0  0
  179.9010  175.4470  140.7200 C   0  0  0  0  0  1  0  0  0  0  0  0
  1  2  1  0  0  0  0
  1 42  1  1  0  0  0
  2  4  1  0  0  0  0
  3  2  2  0  0  0  0
  4  5  1  0  0  0  0
  5  6  1  0  0  0  0
  7 16  2  0  0  0  0
  9 19  1  0  0  0  0
 10 24  1  0  0  0  0
 10  8  2  0  0  0  0
 11 13  1  0  0  0  0
 11  9  1  0  0  0  0
 12 17  2  0  0  0  0
 12  7  1  0  0  0  0
 13  6  1  1  0  0  0
 13 12  1  0  0  0  0
 14 15  1  0  0  0  0
 16  8  1  0  0  0  0
 16 15  1  0  0  0  0
 17 10  1  0  0  0  0
 18 14  1  0  0  0  0
 19 20  2  0  0  0  0
 20 18  2  0  0  0  0
 21 24  1  0  0  0  0
 24 23  1  0  0  0  0
 24 22  1  0  0  0  0
 25 26  1  6  0  0  0
 25  1  1  0  0  0  0
 27 25  1  0  0  0  0
 28 29  1  0  0  0  0
 28 27  1  0  0  0  0
 29 40  1  6  0  0  0
 30 29  1  1  0  0  0
 30 37  1  0  0  0  0
 31 37  1  0  0  0  0
 31 39  1  1  0  0  0
 31 35  1  0  0  0  0
 32 38  2  0  0  0  0
 34 38  1  0  0  0  0
 36 30  1  0  0  0  0
 36 34  1  0  0  0  0
 37 33  1  6  0  0  0
 38 35  1  0  0  0  0
 40 41  1  0  0  0  0
 42 43  1  0  0  0  0
 43 44  1  0  0  0  0
 44 45  2  0  0  0  0
 46 44  1  0  0  0  0
 46 47  1  0  0  0  0
 47 48  2  0  0  0  0
 50 47  1  0  0  0  0
 50 49  2  0  0  0  0
 51 64  1  1  0  0  0
 51 50  1  0  0  0  0
 52 51  1  0  0  0  0
 53 54  2  0  0  0  0
 53 57  1  0  0  0  0
 54 56  1  0  0  0  0
 55 52  1  0  0  0  0
 56 52  2  0  0  0  0
 57 55  2  0  0  0  0
 58 63  1  6  0  0  0
 58 59  1  0  0  0  0
 58 53  1  0  0  0  0
 59 60  1  6  0  0  0
 61 62  1  6  0  0  0
 61 58  1  0  0  0  0
 61 59  1  0  0  0  0
 62 60  1  0  0  0  0
 65 66  1  0  0  0  0
 65 64  1  0  0  0  0
M  END
>  <MODEL>
2

>  <REMARK>
 VINA RESULT:      -7.8      5.417     10.378
  Name = 
  22 active torsions:
  status: ('A' for Active; 'I' for Inactive)
    1  A    between atoms: C_1  and  C_34
    2  A    between atoms: N_3  and  C_36
    3  A    between atoms: C_4  and  C_6
    4  A    between atoms: O_5  and  C_34
    5  A    between atoms: O_5  and  O_41
    6  A    between atoms: C_9  and  C_26
    7  A    between atoms: C_9  and  N_60
    8  A    between atoms: CA_10  and  C_14
    9  A    between atoms: CA_10  and  C_15
   10  A    between atoms: CA_10  and  N_64
   11  A    between atoms: C_11  and  C_25
   12  A    between atoms: C_11  and  N_64
   13  A    between atoms: C_13  and  C_58
   14  A    between atoms: C_17  and  C_30
   15  A    between atoms: C_17  and  C_53
   16  A    between atoms: C_21  and  C_24
   17  A    between atoms: C_21  and  C_34
   18  A    between atoms: C_24  and  C_47
   19  A    between atoms: C_25  and  C_30
   20  A    between atoms: C_30  and  C_36
   21  A    between atoms: C_31  and  C_47
   22  A    between atoms: C_53  and  N_60
                            x       y       z     vdW  Elec       q    Type
                         _______ _______ _______ _____ _____    ______ ____

>  <TORSDO>
F 22

$$$$
=
 OpenBabel10222420423D

 66 71  0  0  1  0  0  0  0  0999 V2000
  187.3890  178.3550  139.3940 C   0  0  1  0  0  3  0  0  0  0  0  0
  188.8540  178.1050  139.6390 C   0  0  0  0  0  0  0  0  0  0  0  0
  189.6990  178.5150  138.8610 O   0  0  0  0  0  0  0  0  0  0  0  0
  189.2840  177.2910  140.8200 C   0  0  0  0  0  2  0  0  0  0  0  0
  190.1650  178.0820  141.6650 N   0  0  0  0  0  2  0  0  0  0  0  0
  189.5100  178.2540  142.9590 C   0  0  0  0  0  2  0  0  0  0  0  0
  188.9770  177.8680  145.9530 N   0  0  0  0  0  0  0  0  0  0  0  0
  190.1640  177.2410  147.9180 C   0  0  0  0  0  3  0  0  0  0  0  0
  186.9060  176.8390  143.7730 C   0  0  0  0  0  2  0  0  0  0  0  0
  191.0550  176.4900  147.1370 C   0  0  0  0  0  0  0  0  0  0  0  0
  188.2140  176.1060  143.4710 C   0  0  0  0  0  2  0  0  0  0  0  0
  189.7800  177.0950  145.1780 C   0  0  0  0  0  0  0  0  0  0  0  0
  189.4870  176.9280  143.7220 C   0  0  2  0  0  3  0  0  0  0  0  0
  186.9520  179.2120  147.6860 N   0  0  0  0  0  2  0  0  0  0  0  0
  188.1910  178.6750  148.1010 N   0  0  0  0  0  2  0  0  0  0  0  0
  189.1050  177.9180  147.3010 C   0  0  0  0  0  0  0  0  0  0  0  0
  190.8420  176.3970  145.7560 C   0  0  0  0  0  3  0  0  0  0  0  0
  186.0420  178.7040  146.6940 C   0  0  0  0  0  3  0  0  0  0  0  0
  186.4580  176.6180  145.1780 C   0  0  0  0  0  3  0  0  0  0  0  0
  186.2500  177.6440  145.9560 C   0  0  0  0  0  0  0  0  0  0  0  0
  193.1040  175.3340  146.7970 F   0  0  0  0  0  0  0  0  0  0  0  0
  192.8570  176.5760  148.6530 F   0  0  0  0  0  0  0  0  0  0  0  0
  191.7280  174.6340  148.4370 F   0  0  0  0  0  0  0  0  0  0  0  0
  192.2030  175.7490  147.7600 C   0  0  0  0  0  0  0  0  0  0  0  0
  186.9120  177.9110  138.0050 C   0  0  1  0  0  3  0  0  0  0  0  0
  185.4160  178.0800  137.8140 C   0  0  0  0  0  1  0  0  0  0  0  0
  187.6830  178.6210  136.8980 C   0  0  0  0  0  2  0  0  0  0  0  0
  187.7540  177.7750  135.7120 N   0  0  0  0  0  2  0  0  0  0  0  0
  188.3930  176.5190  136.0910 C   0  0  1  0  0  3  0  0  0  0  0  0
  187.7320  175.3250  135.3840 C   0  0  2  0  0  3  0  0  0  0  0  0
  186.8390  172.9220  135.5920 C   0  0  1  0  0  3  0  0  0  0  0  0
  183.7170  173.9580  134.7540 O   0  0  0  0  0  0  0  0  0  0  0  0
  189.0190  173.5630  136.3930 O   0  0  0  0  0  1  0  0  0  0  0  0
  185.1970  175.5750  135.5990 C   0  0  0  0  0  2  0  0  0  0  0  0
  185.4080  173.0380  136.1030 C   0  0  0  0  0  2  0  0  0  0  0  0
  186.4180  175.7450  134.7080 C   0  0  0  0  0  2  0  0  0  0  0  0
  187.7080  174.0210  136.2170 C   0  0  1  0  0  3  0  0  0  0  0  0
  184.6880  174.1770  135.4580 C   0  0  0  0  0  0  0  0  0  0  0  0
  187.3260  171.6580  135.9350 O   0  0  0  0  0  1  0  0  0  0  0  0
  189.9070  176.5890  135.8940 C   0  0  0  0  0  2  0  0  0  0  0  0
  190.2340  177.3510  134.7720 O   0  0  0  0  0  1  0  0  0  0  0  0
  186.4530  177.9770  140.5510 C   0  0  0  0  0  2  0  0  0  0  0  0
  186.2440  179.1020  141.4490 N   0  0  0  0  0  2  0  0  0  0  0  0
  185.0480  179.2690  142.2050 C   0  0  0  0  0  0  0  0  0  0  0  0
  184.9080  180.2990  142.9200 O   0  0  0  0  0  0  0  0  0  0  0  0
  183.9690  178.2290  142.1940 C   0  0  0  0  0  2  0  0  0  0  0  0
  182.7680  178.6820  142.9660 C   0  0  0  0  0  0  0  0  0  0  0  0
  182.8760  178.9430  144.1960 O   0  0  0  0  0  0  0  0  0  0  0  0
  180.4950  179.3760  142.9060 O   0  0  0  0  0  0  0  0  0  0  0  0
  181.4860  178.9180  142.2720 C   0  0  0  0  0  0  0  0  0  0  0  0
  181.3540  178.6200  140.8050 C   0  0  2  0  0  3  0  0  0  0  0  0
  181.3200  179.8640  139.9770 C   0  0  0  0  0  0  0  0  0  0  0  0
  181.2840  182.1350  138.3220 C   0  0  0  0  0  0  0  0  0  0  0  0
  180.1250  181.7370  139.0040 C   0  0  0  0  0  3  0  0  0  0  0  0
  182.4820  180.2650  139.3070 C   0  0  0  0  0  3  0  0  0  0  0  0
  180.1410  180.6070  139.8260 C   0  0  0  0  0  3  0  0  0  0  0  0
  182.4650  181.3920  138.4800 C   0  0  0  0  0  3  0  0  0  0  0  0
  181.2350  183.3250  137.4090 C   0  0  1  0  0  0  0  0  0  0  0  0
  180.6840  183.1370  136.0660 C   0  0  2  0  0  3  0  0  0  0  0  0
  180.7690  184.3840  135.2130 C   0  0  0  0  0  2  0  0  0  0  0  0
  179.8760  183.8210  137.1080 N   0  0  2  0  0  0  0  0  0  0  0  0
  179.9430  185.0350  136.2980 C   0  0  0  0  0  2  0  0  0  0  0  0
  182.2020  184.3290  137.5890 O   0  0  0  0  0  1  0  0  0  0  0  0
  180.2260  177.8300  140.5490 O   0  0  0  0  0  0  0  0  0  0  0  0
  180.6500  176.5880  140.6720 O   0  0  0  0  0  0  0  0  0  0  0  0
  181.4620  176.3780  139.5520 C   0  0  0  0  0  1  0  0  0  0  0  0
  1  2  1  0  0  0  0
  1 42  1  1  0  0  0
  2  4  1  0  0  0  0
  3  2  2  0  0  0  0
  4  5  1  0  0  0  0
  5  6  1  0  0  0  0
  7 16  2  0  0  0  0
  9 19  1  0  0  0  0
 10 24  1  0  0  0  0
 10  8  2  0  0  0  0
 11 13  1  0  0  0  0
 11  9  1  0  0  0  0
 12 17  2  0  0  0  0
 12  7  1  0  0  0  0
 13  6  1  1  0  0  0
 13 12  1  0  0  0  0
 14 15  1  0  0  0  0
 16  8  1  0  0  0  0
 16 15  1  0  0  0  0
 17 10  1  0  0  0  0
 18 14  1  0  0  0  0
 19 20  2  0  0  0  0
 20 18  2  0  0  0  0
 21 24  1  0  0  0  0
 24 23  1  0  0  0  0
 24 22  1  0  0  0  0
 25 26  1  6  0  0  0
 25  1  1  0  0  0  0
 27 25  1  0  0  0  0
 28 29  1  0  0  0  0
 28 27  1  0  0  0  0
 29 40  1  6  0  0  0
 30 29  1  1  0  0  0
 30 37  1  0  0  0  0
 31 39  1  1  0  0  0
 31 35  1  0  0  0  0
 31 37  1  0  0  0  0
 32 38  2  0  0  0  0
 36 30  1  0  0  0  0
 36 34  1  0  0  0  0
 37 33  1  6  0  0  0
 38 34  1  0  0  0  0
 38 35  1  0  0  0  0
 41 40  1  0  0  0  0
 42 43  1  0  0  0  0
 43 44  1  0  0  0  0
 44 45  2  0  0  0  0
 46 44  1  0  0  0  0
 46 47  1  0  0  0  0
 47 48  2  0  0  0  0
 50 49  2  0  0  0  0
 50 47  1  0  0  0  0
 51 64  1  1  0  0  0
 51 50  1  0  0  0  0
 52 51  1  0  0  0  0
 53 57  2  0  0  0  0
 53 54  1  0  0  0  0
 54 56  2  0  0  0  0
 55 52  2  0  0  0  0
 56 52  1  0  0  0  0
 57 55  1  0  0  0  0
 58 63  1  1  0  0  0
 58 53  1  0  0  0  0
 59 60  1  6  0  0  0
 59 61  1  0  0  0  0
 59 58  1  0  0  0  0
 60 62  1  0  0  0  0
 61 62  1  6  0  0  0
 61 58  1  0  0  0  0
 64 65  1  0  0  0  0
 66 65  1  0  0  0  0
M  END
>  <MODEL>
3

>  <REMARK>
 VINA RESULT:      -7.4      5.230      9.957
  Name = 
  22 active torsions:
  status: ('A' for Active; 'I' for Inactive)
    1  A    between atoms: C_1  and  C_34
    2  A    between atoms: N_3  and  C_36
    3  A    between atoms: C_4  and  C_6
    4  A    between atoms: O_5  and  C_34
    5  A    between atoms: O_5  and  O_41
    6  A    between atoms: C_9  and  C_26
    7  A    between atoms: C_9  and  N_60
    8  A    between atoms: CA_10  and  C_14
    9  A    between atoms: CA_10  and  C_15
   10  A    between atoms: CA_10  and  N_64
   11  A    between atoms: C_11  and  C_25
   12  A    between atoms: C_11  and  N_64
   13  A    between atoms: C_13  and  C_58
   14  A    between atoms: C_17  and  C_30
   15  A    between atoms: C_17  and  C_53
   16  A    between atoms: C_21  and  C_24
   17  A    between atoms: C_21  and  C_34
   18  A    between atoms: C_24  and  C_47
   19  A    between atoms: C_25  and  C_30
   20  A    between atoms: C_30  and  C_36
   21  A    between atoms: C_31  and  C_47
   22  A    between atoms: C_53  and  N_60
                            x       y       z     vdW  Elec       q    Type
                         _______ _______ _______ _____ _____    ______ ____

>  <TORSDO>
F 22

$$$$
=
 OpenBabel10222420423D

 66 71  0  0  1  0  0  0  0  0999 V2000
  187.2750  177.4780  138.4270 C   0  0  1  0  0  3  0  0  0  0  0  0
  186.2350  178.4380  138.9430 C   0  0  0  0  0  0  0  0  0  0  0  0
  185.6560  179.2010  138.1870 O   0  0  0  0  0  0  0  0  0  0  0  0
  185.9470  178.5070  140.4100 C   0  0  0  0  0  2  0  0  0  0  0  0
  184.5140  178.3970  140.6320 N   0  0  0  0  0  2  0  0  0  0  0  0
  183.8390  178.7240  139.3790 C   0  0  0  0  0  2  0  0  0  0  0  0
  181.5890  179.2470  137.3640 N   0  0  0  0  0  0  0  0  0  0  0  0
  180.5650  181.0890  136.2600 C   0  0  0  0  0  3  0  0  0  0  0  0
  181.2240  177.1470  139.7220 C   0  0  0  0  0  2  0  0  0  0  0  0
  180.9240  181.9250  137.3270 C   0  0  0  0  0  0  0  0  0  0  0  0
  181.5060  178.4850  140.4070 C   0  0  0  0  0  2  0  0  0  0  0  0
  181.8900  180.0140  138.4420 C   0  0  0  0  0  0  0  0  0  0  0  0
  182.4930  179.3960  139.6620 C   0  0  2  0  0  3  0  0  0  0  0  0
  180.5540  177.4630  135.2060 N   0  0  0  0  0  2  0  0  0  0  0  0
  180.5180  178.8760  135.2200 N   0  0  0  0  0  2  0  0  0  0  0  0
  180.8940  179.7290  136.3050 C   0  0  0  0  0  0  0  0  0  0  0  0
  181.5700  181.3730  138.4400 C   0  0  0  0  0  3  0  0  0  0  0  0
  180.3750  176.5520  136.3040 C   0  0  0  0  0  3  0  0  0  0  0  0
  180.0500  177.2300  138.8060 C   0  0  0  0  0  3  0  0  0  0  0  0
  180.1890  176.9030  137.5500 C   0  0  0  0  0  0  0  0  0  0  0  0
  181.7300  184.1580  137.4430 F   0  0  0  0  0  0  0  0  0  0  0  0
  179.9640  183.7120  136.1270 F   0  0  0  0  0  0  0  0  0  0  0  0
  179.7350  183.6810  138.3720 F   0  0  0  0  0  0  0  0  0  0  0  0
  180.5880  183.3890  137.3170 C   0  0  0  0  0  0  0  0  0  0  0  0
  187.6920  177.7430  136.9740 C   0  0  1  0  0  3  0  0  0  0  0  0
  188.9310  178.6130  136.8670 C   0  0  0  0  0  1  0  0  0  0  0  0
  187.8760  176.4420  136.2020 C   0  0  0  0  0  2  0  0  0  0  0  0
  189.2960  176.1310  136.0700 N   0  0  0  0  0  2  0  0  0  0  0  0
  189.4610  174.6920  136.2380 C   0  0  1  0  0  3  0  0  0  0  0  0
  190.6860  174.3720  137.1100 C   0  0  2  0  0  3  0  0  0  0  0  0
  193.1880  173.7800  137.1770 C   0  0  1  0  0  3  0  0  0  0  0  0
  193.8650  176.6260  138.8990 O   0  0  0  0  0  0  0  0  0  0  0  0
  191.6220  172.6120  135.7670 O   0  0  0  0  0  1  0  0  0  0  0  0
  191.8740  176.5700  137.6530 C   0  0  0  0  0  2  0  0  0  0  0  0
  193.9450  175.1020  137.1110 C   0  0  0  0  0  2  0  0  0  0  0  0
  190.9310  175.4820  138.1430 C   0  0  0  0  0  2  0  0  0  0  0  0
  191.9160  173.8620  136.3220 C   0  0  1  0  0  3  0  0  0  0  0  0
  193.2810  176.1530  137.9390 C   0  0  0  0  0  0  0  0  0  0  0  0
  194.0310  172.7690  136.7070 O   0  0  0  0  0  1  0  0  0  0  0  0
  188.1690  174.0420  136.7320 C   0  0  0  0  0  2  0  0  0  0  0  0
  187.9060  172.8590  136.0410 O   0  0  0  0  0  1  0  0  0  0  0  0
  188.4340  177.1820  139.3900 C   0  0  0  0  0  2  0  0  0  0  0  0
  188.5430  178.2080  140.4150 N   0  0  0  0  0  2  0  0  0  0  0  0
  189.5300  178.1650  141.4430 C   0  0  0  0  0  0  0  0  0  0  0  0
  189.5320  179.0580  142.3340 O   0  0  0  0  0  0  0  0  0  0  0  0
  190.5850  177.1010  141.4650 C   0  0  0  0  0  2  0  0  0  0  0  0
  190.5460  176.3230  142.7430 C   0  0  0  0  0  0  0  0  0  0  0  0
  190.2620  175.0940  142.7200 O   0  0  0  0  0  0  0  0  0  0  0  0
  191.9230  177.7520  144.0520 O   0  0  0  0  0  0  0  0  0  0  0  0
  190.9360  176.9650  144.0150 C   0  0  0  0  0  0  0  0  0  0  0  0
  190.1580  176.6920  145.2710 C   0  0  2  0  0  3  0  0  0  0  0  0
  188.7740  177.2540  145.2120 C   0  0  0  0  0  0  0  0  0  0  0  0
  186.1290  178.1960  145.1070 C   0  0  0  0  0  0  0  0  0  0  0  0
  186.9730  178.5720  146.1620 C   0  0  0  0  0  3  0  0  0  0  0  0
  187.9370  176.8870  144.1510 C   0  0  0  0  0  3  0  0  0  0  0  0
  188.2890  178.1020  146.2160 C   0  0  0  0  0  3  0  0  0  0  0  0
  186.6200  177.3510  144.0990 C   0  0  0  0  0  3  0  0  0  0  0  0
  184.7060  178.6750  145.0910 C   0  0  1  0  0  0  0  0  0  0  0  0
  184.2930  179.5630  144.0030 C   0  0  2  0  0  3  0  0  0  0  0  0
  182.8670  180.0470  144.1450 C   0  0  0  0  0  2  0  0  0  0  0  0
  183.8820  178.1360  143.9900 N   0  0  2  0  0  0  0  0  0  0  0  0
  182.4970  178.5820  144.1230 C   0  0  0  0  0  2  0  0  0  0  0  0
  184.0400  178.7910  146.3240 O   0  0  0  0  0  1  0  0  0  0  0  0
  190.8340  177.1720  146.3990 O   0  0  0  0  0  0  0  0  0  0  0  0
  190.7270  176.2070  147.2920 O   0  0  0  0  0  0  0  0  0  0  0  0
  192.0150  175.6720  147.3910 C   0  0  0  0  0  1  0  0  0  0  0  0
  1  2  1  0  0  0  0
  1 42  1  1  0  0  0
  2  4  1  0  0  0  0
  3  2  2  0  0  0  0
  4  5  1  0  0  0  0
  6  5  1  0  0  0  0
  7 12  1  0  0  0  0
  8 16  1  0  0  0  0
  8 10  2  0  0  0  0
  9 11  1  0  0  0  0
 10 17  1  0  0  0  0
 12 13  1  0  0  0  0
 13  6  1  6  0  0  0
 13 11  1  0  0  0  0
 14 15  1  0  0  0  0
 14 18  1  0  0  0  0
 15 16  1  0  0  0  0
 16  7  2  0  0  0  0
 17 12  2  0  0  0  0
 18 20  2  0  0  0  0
 19  9  1  0  0  0  0
 20 19  2  0  0  0  0
 22 24  1  0  0  0  0
 24 10  1  0  0  0  0
 24 21  1  0  0  0  0
 24 23  1  0  0  0  0
 25 26  1  1  0  0  0
 25  1  1  0  0  0  0
 27 25  1  0  0  0  0
 28 27  1  0  0  0  0
 28 29  1  0  0  0  0
 29 40  1  1  0  0  0
 30 29  1  6  0  0  0
 30 36  1  0  0  0  0
 31 39  1  6  0  0  0
 34 38  1  0  0  0  0
 34 36  1  0  0  0  0
 35 31  1  0  0  0  0
 35 38  1  0  0  0  0
 37 33  1  1  0  0  0
 37 30  1  0  0  0  0
 37 31  1  0  0  0  0
 38 32  2  0  0  0  0
 41 40  1  0  0  0  0
 42 43  1  0  0  0  0
 43 44  1  0  0  0  0
 44 46  1  0  0  0  0
 44 45  2  0  0  0  0
 46 47  1  0  0  0  0
 47 50  1  0  0  0  0
 48 47  2  0  0  0  0
 50 49  2  0  0  0  0
 51 50  1  6  0  0  0
 51 64  1  0  0  0  0
 52 51  1  0  0  0  0
 52 56  1  0  0  0  0
 53 54  1  0  0  0  0
 54 56  2  0  0  0  0
 55 52  2  0  0  0  0
 57 55  1  0  0  0  0
 57 53  2  0  0  0  0
 58 53  1  0  0  0  0
 58 63  1  1  0  0  0
 59 60  1  1  0  0  0
 59 58  1  0  0  0  0
 61 59  1  0  0  0  0
 61 62  1  1  0  0  0
 61 58  1  0  0  0  0
 62 60  1  0  0  0  0
 64 65  1  0  0  0  0
 65 66  1  0  0  0  0
M  END
>  <MODEL>
4

>  <REMARK>
 VINA RESULT:      -7.1      1.488      2.106
  Name = 
  22 active torsions:
  status: ('A' for Active; 'I' for Inactive)
    1  A    between atoms: C_1  and  C_34
    2  A    between atoms: N_3  and  C_36
    3  A    between atoms: C_4  and  C_6
    4  A    between atoms: O_5  and  C_34
    5  A    between atoms: O_5  and  O_41
    6  A    between atoms: C_9  and  C_26
    7  A    between atoms: C_9  and  N_60
    8  A    between atoms: CA_10  and  C_14
    9  A    between atoms: CA_10  and  C_15
   10  A    between atoms: CA_10  and  N_64
   11  A    between atoms: C_11  and  C_25
   12  A    between atoms: C_11  and  N_64
   13  A    between atoms: C_13  and  C_58
   14  A    between atoms: C_17  and  C_30
   15  A    between atoms: C_17  and  C_53
   16  A    between atoms: C_21  and  C_24
   17  A    between atoms: C_21  and  C_34
   18  A    between atoms: C_24  and  C_47
   19  A    between atoms: C_25  and  C_30
   20  A    between atoms: C_30  and  C_36
   21  A    between atoms: C_31  and  C_47
   22  A    between atoms: C_53  and  N_60
                            x       y       z     vdW  Elec       q    Type
                         _______ _______ _______ _____ _____    ______ ____

>  <TORSDO>
F 22

$$$$
=
 OpenBabel10222420423D

 66 71  0  0  1  0  0  0  0  0999 V2000
  188.0230  177.9880  138.4120 C   0  0  1  0  0  3  0  0  0  0  0  0
  188.6980  177.4840  139.6610 C   0  0  0  0  0  0  0  0  0  0  0  0
  188.7890  176.2890  139.8850 O   0  0  0  0  0  0  0  0  0  0  0  0
  189.2130  178.4580  140.6740 C   0  0  0  0  0  2  0  0  0  0  0  0
  188.2990  178.5160  141.8050 N   0  0  0  0  0  2  0  0  0  0  0  0
  189.0980  178.5500  143.0270 C   0  0  0  0  0  2  0  0  0  0  0  0
  188.7550  178.0120  146.0240 N   0  0  0  0  0  0  0  0  0  0  0  0
  190.0450  177.2270  147.8640 C   0  0  0  0  0  3  0  0  0  0  0  0
  186.4990  177.1910  143.9420 C   0  0  0  0  0  2  0  0  0  0  0  0
  190.8490  176.4890  146.9820 C   0  0  0  0  0  0  0  0  0  0  0  0
  187.7510  176.4270  143.5090 C   0  0  0  0  0  2  0  0  0  0  0  0
  189.4700  177.2550  145.1540 C   0  0  0  0  0  0  0  0  0  0  0  0
  189.0710  177.1830  143.7150 C   0  0  2  0  0  3  0  0  0  0  0  0
  186.9110  179.3300  147.9670 N   0  0  0  0  0  2  0  0  0  0  0  0
  188.1510  178.7230  148.2640 N   0  0  0  0  0  2  0  0  0  0  0  0
  188.9760  177.9790  147.3610 C   0  0  0  0  0  0  0  0  0  0  0  0
  190.5390  176.4840  145.6170 C   0  0  0  0  0  3  0  0  0  0  0  0
  185.9150  178.9150  147.0150 C   0  0  0  0  0  3  0  0  0  0  0  0
  186.1380  176.9060  145.3610 C   0  0  0  0  0  3  0  0  0  0  0  0
  186.0270  177.8930  146.2080 C   0  0  0  0  0  0  0  0  0  0  0  0
  192.8930  175.3950  146.4580 F   0  0  0  0  0  0  0  0  0  0  0  0
  192.6690  176.3650  148.4730 F   0  0  0  0  0  0  0  0  0  0  0  0
  191.5370  174.4710  148.0010 F   0  0  0  0  0  0  0  0  0  0  0  0
  192.0040  175.6700  147.4820 C   0  0  0  0  0  0  0  0  0  0  0  0
  188.8930  177.8760  137.1530 C   0  0  1  0  0  3  0  0  0  0  0  0
  189.1390  179.2180  136.4860 C   0  0  0  0  0  1  0  0  0  0  0  0
  190.2100  177.1680  137.4470 C   0  0  0  0  0  2  0  0  0  0  0  0
  190.3020  175.9360  136.6700 N   0  0  0  0  0  2  0  0  0  0  0  0
  191.5080  176.0060  135.8530 C   0  0  1  0  0  3  0  0  0  0  0  0
  192.7620  175.6910  136.6840 C   0  0  2  0  0  3  0  0  0  0  0  0
  194.5950  173.9800  137.2560 C   0  0  1  0  0  3  0  0  0  0  0  0
  196.9960  176.1070  136.1450 O   0  0  0  0  0  0  0  0  0  0  0  0
  192.2550  173.4070  137.2350 O   0  0  0  0  0  1  0  0  0  0  0  0
  194.8100  176.4410  135.3500 C   0  0  0  0  0  2  0  0  0  0  0  0
  195.6880  174.1550  136.2090 C   0  0  0  0  0  2  0  0  0  0  0  0
  193.8410  176.7650  136.4780 C   0  0  0  0  0  2  0  0  0  0  0  0
  193.2180  174.2140  136.6200 C   0  0  1  0  0  3  0  0  0  0  0  0
  195.9170  175.5970  135.8940 C   0  0  0  0  0  0  0  0  0  0  0  0
  194.6830  172.6840  137.7710 O   0  0  0  0  0  1  0  0  0  0  0  0
  191.3730  175.1480  134.5950 C   0  0  0  0  0  2  0  0  0  0  0  0
  190.2260  174.3550  134.6490 O   0  0  0  0  0  1  0  0  0  0  0  0
  186.5620  177.5520  138.2310 C   0  0  0  0  0  2  0  0  0  0  0  0
  186.4390  176.5390  137.1950 N   0  0  0  0  0  2  0  0  0  0  0  0
  185.1900  176.2010  136.5960 C   0  0  0  0  0  0  0  0  0  0  0  0
  185.1460  175.2710  135.7440 O   0  0  0  0  0  0  0  0  0  0  0  0
  183.9370  176.9510  136.9320 C   0  0  0  0  0  2  0  0  0  0  0  0
  183.3040  176.4210  138.1810 C   0  0  0  0  0  0  0  0  0  0  0  0
  183.2490  175.1750  138.3750 O   0  0  0  0  0  0  0  0  0  0  0  0
  183.6500  177.8260  140.0660 O   0  0  0  0  0  0  0  0  0  0  0  0
  182.8350  177.3510  139.2280 C   0  0  0  0  0  0  0  0  0  0  0  0
  181.3860  177.7430  139.2980 C   0  0  2  0  0  3  0  0  0  0  0  0
  181.1350  179.0880  138.6960 C   0  0  0  0  0  0  0  0  0  0  0  0
  180.5630  181.5700  137.5100 C   0  0  0  0  0  0  0  0  0  0  0  0
  180.6060  181.4460  138.9070 C   0  0  0  0  0  3  0  0  0  0  0  0
  181.1040  179.2120  137.3010 C   0  0  0  0  0  3  0  0  0  0  0  0
  180.8890  180.2110  139.4970 C   0  0  0  0  0  3  0  0  0  0  0  0
  180.8160  180.4440  136.7100 C   0  0  0  0  0  3  0  0  0  0  0  0
  180.2130  182.8940  136.8960 C   0  0  1  0  0  0  0  0  0  0  0  0
  180.1960  184.0720  137.7650 C   0  0  2  0  0  3  0  0  0  0  0  0
  179.7440  185.3270  137.0520 C   0  0  0  0  0  2  0  0  0  0  0  0
  181.3280  183.8610  136.8260 N   0  0  2  0  0  0  0  0  0  0  0  0
  180.9100  185.0730  136.1240 C   0  0  0  0  0  2  0  0  0  0  0  0
  179.3630  182.8920  135.7750 O   0  0  0  0  0  1  0  0  0  0  0  0
  180.9140  177.7000  140.6160 O   0  0  0  0  0  0  0  0  0  0  0  0
  180.2020  176.5930  140.6830 O   0  0  0  0  0  0  0  0  0  0  0  0
  179.3510  176.6520  139.5740 C   0  0  0  0  0  1  0  0  0  0  0  0
  1 42  1  6  0  0  0
  1  2  1  0  0  0  0
  2  3  2  0  0  0  0
  2  4  1  0  0  0  0
  4  5  1  0  0  0  0
  5  6  1  0  0  0  0
  7 16  2  0  0  0  0
  9 19  1  0  0  0  0
 10 24  1  0  0  0  0
 10  8  2  0  0  0  0
 11 13  1  0  0  0  0
 11  9  1  0  0  0  0
 12 17  2  0  0  0  0
 12  7  1  0  0  0  0
 13  6  1  1  0  0  0
 13 12  1  0  0  0  0
 14 15  1  0  0  0  0
 16  8  1  0  0  0  0
 16 15  1  0  0  0  0
 17 10  1  0  0  0  0
 18 14  1  0  0  0  0
 19 20  2  0  0  0  0
 20 18  2  0  0  0  0
 21 24  1  0  0  0  0
 24 23  1  0  0  0  0
 24 22  1  0  0  0  0
 25 26  1  1  0  0  0
 25 27  1  0  0  0  0
 25  1  1  0  0  0  0
 28 27  1  0  0  0  0
 29 40  1  6  0  0  0
 29 28  1  0  0  0  0
 30 29  1  6  0  0  0
 31 39  1  6  0  0  0
 34 38  1  0  0  0  0
 34 36  1  0  0  0  0
 35 31  1  0  0  0  0
 36 30  1  0  0  0  0
 37 30  1  0  0  0  0
 37 33  1  1  0  0  0
 37 31  1  0  0  0  0
 38 32  2  0  0  0  0
 38 35  1  0  0  0  0
 40 41  1  0  0  0  0
 43 42  1  0  0  0  0
 44 46  1  0  0  0  0
 44 43  1  0  0  0  0
 45 44  2  0  0  0  0
 46 47  1  0  0  0  0
 47 48  2  0  0  0  0
 47 50  1  0  0  0  0
 50 49  2  0  0  0  0
 51 50  1  1  0  0  0
 51 64  1  0  0  0  0
 52 51  1  0  0  0  0
 52 56  1  0  0  0  0
 53 54  1  0  0  0  0
 54 56  2  0  0  0  0
 55 52  2  0  0  0  0
 57 55  1  0  0  0  0
 57 53  2  0  0  0  0
 58 63  1  6  0  0  0
 58 53  1  0  0  0  0
 58 59  1  0  0  0  0
 59 60  1  6  0  0  0
 61 62  1  6  0  0  0
 61 58  1  0  0  0  0
 61 59  1  0  0  0  0
 62 60  1  0  0  0  0
 64 65  1  0  0  0  0
 66 65  1  0  0  0  0
M  END
>  <MODEL>
5

>  <REMARK>
 VINA RESULT:      -6.6      4.586      9.406
  Name = 
  22 active torsions:
  status: ('A' for Active; 'I' for Inactive)
    1  A    between atoms: C_1  and  C_34
    2  A    between atoms: N_3  and  C_36
    3  A    between atoms: C_4  and  C_6
    4  A    between atoms: O_5  and  C_34
    5  A    between atoms: O_5  and  O_41
    6  A    between atoms: C_9  and  C_26
    7  A    between atoms: C_9  and  N_60
    8  A    between atoms: CA_10  and  C_14
    9  A    between atoms: CA_10  and  C_15
   10  A    between atoms: CA_10  and  N_64
   11  A    between atoms: C_11  and  C_25
   12  A    between atoms: C_11  and  N_64
   13  A    between atoms: C_13  and  C_58
   14  A    between atoms: C_17  and  C_30
   15  A    between atoms: C_17  and  C_53
   16  A    between atoms: C_21  and  C_24
   17  A    between atoms: C_21  and  C_34
   18  A    between atoms: C_24  and  C_47
   19  A    between atoms: C_25  and  C_30
   20  A    between atoms: C_30  and  C_36
   21  A    between atoms: C_31  and  C_47
   22  A    between atoms: C_53  and  N_60
                            x       y       z     vdW  Elec       q    Type
                         _______ _______ _______ _____ _____    ______ ____

>  <TORSDO>
F 22

$$$$
=
 OpenBabel10222420423D

 66 71  0  0  1  0  0  0  0  0999 V2000
  185.6620  178.9320  140.0380 C   0  0  1  0  0  3  0  0  0  0  0  0
  184.1680  178.9190  139.8410 C   0  0  0  0  0  0  0  0  0  0  0  0
  183.4160  179.2770  140.7330 O   0  0  0  0  0  0  0  0  0  0  0  0
  183.5900  178.4060  138.5600 C   0  0  0  0  0  2  0  0  0  0  0  0
  182.1580  178.2020  138.7160 N   0  0  0  0  0  2  0  0  0  0  0  0
  181.8680  176.8030  138.4160 C   0  0  0  0  0  2  0  0  0  0  0  0
  181.9790  173.9770  137.2340 N   0  0  0  0  0  0  0  0  0  0  0  0
  183.5550  172.2190  136.9390 C   0  0  0  0  0  3  0  0  0  0  0  0
  180.4490  176.3240  135.7330 C   0  0  0  0  0  2  0  0  0  0  0  0
  184.5970  173.1570  136.9260 C   0  0  0  0  0  0  0  0  0  0  0  0
  181.8990  176.7960  135.8560 C   0  0  0  0  0  2  0  0  0  0  0  0
  182.9580  174.9150  137.1560 C   0  0  0  0  0  0  0  0  0  0  0  0
  182.6080  176.3680  137.1490 C   0  0  2  0  0  3  0  0  0  0  0  0
  179.7880  171.9680  136.9700 N   0  0  0  0  0  2  0  0  0  0  0  0
  181.1700  171.6960  137.0800 N   0  0  0  0  0  2  0  0  0  0  0  0
  182.2320  172.6550  137.0770 C   0  0  0  0  0  0  0  0  0  0  0  0
  184.2890  174.5210  137.0090 C   0  0  0  0  0  3  0  0  0  0  0  0
  179.1400  173.0450  136.2700 C   0  0  0  0  0  3  0  0  0  0  0  0
  180.3520  175.0060  135.0420 C   0  0  0  0  0  3  0  0  0  0  0  0
  179.7570  174.0090  135.6380 C   0  0  0  0  0  0  0  0  0  0  0  0
  186.1160  171.5160  136.1210 F   0  0  0  0  0  0  0  0  0  0  0  0
  186.7230  173.6790  136.0530 F   0  0  0  0  0  0  0  0  0  0  0  0
  186.6100  172.6000  138.0320 F   0  0  0  0  0  0  0  0  0  0  0  0
  186.0290  172.7300  136.7790 C   0  0  0  0  0  0  0  0  0  0  0  0
  186.0900  178.9740  141.5110 C   0  0  1  0  0  3  0  0  0  0  0  0
  185.2910  178.0220  142.3830 C   0  0  0  0  0  1  0  0  0  0  0  0
  187.5850  178.7230  141.6640 C   0  0  0  0  0  2  0  0  0  0  0  0
  187.8150  177.4610  142.3590 N   0  0  0  0  0  2  0  0  0  0  0  0
  189.1480  177.5040  142.9460 C   0  0  1  0  0  3  0  0  0  0  0  0
  189.1580  176.8760  144.3500 C   0  0  2  0  0  3  0  0  0  0  0  0
  190.0920  176.9640  146.7440 C   0  0  1  0  0  3  0  0  0  0  0  0
  186.9740  177.4520  147.9950 O   0  0  0  0  0  0  0  0  0  0  0  0
  191.5120  177.0560  144.8000 O   0  0  0  0  0  1  0  0  0  0  0  0
  187.3260  177.9970  145.7360 C   0  0  0  0  0  2  0  0  0  0  0  0
  189.2200  177.9520  147.5100 C   0  0  0  0  0  2  0  0  0  0  0  0
  187.7340  176.7810  144.9180 C   0  0  0  0  0  2  0  0  0  0  0  0
  190.2550  177.4280  145.2900 C   0  0  1  0  0  3  0  0  0  0  0  0
  187.7780  177.8020  147.1470 C   0  0  0  0  0  0  0  0  0  0  0  0
  191.3350  176.8930  147.3790 O   0  0  0  0  0  1  0  0  0  0  0  0
  190.1890  176.9070  141.9990 C   0  0  0  0  0  2  0  0  0  0  0  0
  189.6470  176.6850  140.7330 O   0  0  0  0  0  1  0  0  0  0  0  0
  186.4500  177.9470  139.1620 C   0  0  0  0  0  2  0  0  0  0  0  0
  187.4510  178.6360  138.3640 N   0  0  0  0  0  2  0  0  0  0  0  0
  188.2620  177.9650  137.4020 C   0  0  0  0  0  0  0  0  0  0  0  0
  189.1510  178.6120  136.7850 O   0  0  0  0  0  0  0  0  0  0  0  0
  188.0540  176.5150  137.0850 C   0  0  0  0  0  2  0  0  0  0  0  0
  189.2580  175.9260  136.4170 C   0  0  0  0  0  0  0  0  0  0  0  0
  189.4390  176.1040  135.1820 O   0  0  0  0  0  0  0  0  0  0  0  0
  190.0320  174.0900  137.7140 O   0  0  0  0  0  0  0  0  0  0  0  0
  190.2810  175.2240  137.2180 C   0  0  0  0  0  0  0  0  0  0  0  0
  191.6270  175.8530  137.4440 C   0  0  2  0  0  3  0  0  0  0  0  0
  192.7430  174.9930  136.9460 C   0  0  0  0  0  0  0  0  0  0  0  0
  194.9110  173.4750  136.0000 C   0  0  0  0  0  0  0  0  0  0  0  0
  194.3690  173.2210  137.2680 C   0  0  0  0  0  3  0  0  0  0  0  0
  193.2750  175.2410  135.6740 C   0  0  0  0  0  3  0  0  0  0  0  0
  193.2910  173.9770  137.7400 C   0  0  0  0  0  3  0  0  0  0  0  0
  194.3560  174.4900  135.2040 C   0  0  0  0  0  3  0  0  0  0  0  0
  196.0960  172.6830  135.5300 C   0  0  1  0  0  0  0  0  0  0  0  0
  196.5600  171.5780  136.3700 C   0  0  2  0  0  3  0  0  0  0  0  0
  197.8110  170.9150  135.8360 C   0  0  0  0  0  2  0  0  0  0  0  0
  195.7960  171.2940  135.1280 N   0  0  2  0  0  0  0  0  0  0  0  0
  196.9920  170.6460  134.5940 C   0  0  0  0  0  2  0  0  0  0  0  0
  197.0430  173.3380  134.7230 O   0  0  0  0  0  1  0  0  0  0  0  0
  191.8180  176.1680  138.7950 O   0  0  0  0  0  0  0  0  0  0  0  0
  192.4580  177.3200  138.7860 O   0  0  0  0  0  0  0  0  0  0  0  0
  193.2030  177.3220  139.9700 C   0  0  0  0  0  1  0  0  0  0  0  0
  1 42  1  1  0  0  0
  1 25  1  0  0  0  0
  2  1  1  0  0  0  0
  2  3  2  0  0  0  0
  4  5  1  0  0  0  0
  4  2  1  0  0  0  0
  6  5  1  0  0  0  0
  8 16  1  0  0  0  0
  9 11  1  0  0  0  0
 10  8  2  0  0  0  0
 10 17  1  0  0  0  0
 11 13  1  0  0  0  0
 12  7  1  0  0  0  0
 13 12  1  0  0  0  0
 13  6  1  1  0  0  0
 14 15  1  0  0  0  0
 16 15  1  0  0  0  0
 16  7  2  0  0  0  0
 17 12  2  0  0  0  0
 18 14  1  0  0  0  0
 19 20  2  0  0  0  0
 19  9  1  0  0  0  0
 20 18  2  0  0  0  0
 21 24  1  0  0  0  0
 22 24  1  0  0  0  0
 24 10  1  0  0  0  0
 24 23  1  0  0  0  0
 25 27  1  0  0  0  0
 25 26  1  1  0  0  0
 27 28  1  0  0  0  0
 28 29  1  0  0  0  0
 29 40  1  6  0  0  0
 30 29  1  6  0  0  0
 30 36  1  0  0  0  0
 30 37  1  0  0  0  0
 31 39  1  1  0  0  0
 31 35  1  0  0  0  0
 34 38  1  0  0  0  0
 36 34  1  0  0  0  0
 37 33  1  6  0  0  0
 37 31  1  0  0  0  0
 38 35  1  0  0  0  0
 38 32  2  0  0  0  0
 41 40  1  0  0  0  0
 43 42  1  0  0  0  0
 44 43  1  0  0  0  0
 45 44  2  0  0  0  0
 46 44  1  0  0  0  0
 47 46  1  0  0  0  0
 47 50  1  0  0  0  0
 48 47  2  0  0  0  0
 50 49  2  0  0  0  0
 51 50  1  1  0  0  0
 51 64  1  0  0  0  0
 52 51  1  0  0  0  0
 52 56  1  0  0  0  0
 53 54  1  0  0  0  0
 54 56  2  0  0  0  0
 55 52  2  0  0  0  0
 57 55  1  0  0  0  0
 57 53  2  0  0  0  0
 58 63  1  6  0  0  0
 58 53  1  0  0  0  0
 58 59  1  0  0  0  0
 59 60  1  6  0  0  0
 61 62  1  6  0  0  0
 61 58  1  0  0  0  0
 61 59  1  0  0  0  0
 62 60  1  0  0  0  0
 65 64  1  0  0  0  0
 65 66  1  0  0  0  0
M  END
>  <MODEL>
6

>  <REMARK>
 VINA RESULT:      -6.6      3.601      9.849
  Name = 
  22 active torsions:
  status: ('A' for Active; 'I' for Inactive)
    1  A    between atoms: C_1  and  C_34
    2  A    between atoms: N_3  and  C_36
    3  A    between atoms: C_4  and  C_6
    4  A    between atoms: O_5  and  C_34
    5  A    between atoms: O_5  and  O_41
    6  A    between atoms: C_9  and  C_26
    7  A    between atoms: C_9  and  N_60
    8  A    between atoms: CA_10  and  C_14
    9  A    between atoms: CA_10  and  C_15
   10  A    between atoms: CA_10  and  N_64
   11  A    between atoms: C_11  and  C_25
   12  A    between atoms: C_11  and  N_64
   13  A    between atoms: C_13  and  C_58
   14  A    between atoms: C_17  and  C_30
   15  A    between atoms: C_17  and  C_53
   16  A    between atoms: C_21  and  C_24
   17  A    between atoms: C_21  and  C_34
   18  A    between atoms: C_24  and  C_47
   19  A    between atoms: C_25  and  C_30
   20  A    between atoms: C_30  and  C_36
   21  A    between atoms: C_31  and  C_47
   22  A    between atoms: C_53  and  N_60
                            x       y       z     vdW  Elec       q    Type
                         _______ _______ _______ _____ _____    ______ ____

>  <TORSDO>
F 22

$$$$
=
 OpenBabel10222420423D

 66 71  0  0  1  0  0  0  0  0999 V2000
  187.5880  178.2620  139.5460 C   0  0  1  0  0  3  0  0  0  0  0  0
  189.0640  178.0120  139.7160 C   0  0  0  0  0  0  0  0  0  0  0  0
  189.8700  178.4520  138.9130 O   0  0  0  0  0  0  0  0  0  0  0  0
  189.5500  177.1610  140.8470 C   0  0  0  0  0  2  0  0  0  0  0  0
  190.2750  177.9850  141.8020 N   0  0  0  0  0  2  0  0  0  0  0  0
  189.4470  178.1210  142.9980 C   0  0  0  0  0  2  0  0  0  0  0  0
  189.0460  177.7930  146.0190 N   0  0  0  0  0  0  0  0  0  0  0  0
  190.3090  177.1660  147.9360 C   0  0  0  0  0  3  0  0  0  0  0  0
  186.8520  176.7810  143.9540 C   0  0  0  0  0  2  0  0  0  0  0  0
  191.1450  176.3820  147.1270 C   0  0  0  0  0  0  0  0  0  0  0  0
  188.1260  176.0120  143.6030 C   0  0  0  0  0  2  0  0  0  0  0  0
  189.7940  176.9890  145.2200 C   0  0  0  0  0  0  0  0  0  0  0  0
  189.4280  176.8070  143.7820 C   0  0  2  0  0  3  0  0  0  0  0  0
  187.1370  179.2100  147.8220 N   0  0  0  0  0  2  0  0  0  0  0  0
  188.3810  178.6500  148.1880 N   0  0  0  0  0  2  0  0  0  0  0  0
  189.2390  177.8590  147.3590 C   0  0  0  0  0  0  0  0  0  0  0  0
  190.8650  176.2740  145.7590 C   0  0  0  0  0  3  0  0  0  0  0  0
  186.1700  178.7090  146.8820 C   0  0  0  0  0  3  0  0  0  0  0  0
  186.4650  176.5910  145.3820 C   0  0  0  0  0  3  0  0  0  0  0  0
  186.3180  177.6340  146.1530 C   0  0  0  0  0  0  0  0  0  0  0  0
  193.1540  176.4710  148.3940 F   0  0  0  0  0  0  0  0  0  0  0  0
  191.8340  174.6630  148.5830 F   0  0  0  0  0  0  0  0  0  0  0  0
  193.0150  175.0040  146.6900 F   0  0  0  0  0  0  0  0  0  0  0  0
  192.3030  175.6240  147.7080 C   0  0  0  0  0  0  0  0  0  0  0  0
  187.0410  177.8250  138.1800 C   0  0  1  0  0  3  0  0  0  0  0  0
  185.5320  177.9490  138.0830 C   0  0  0  0  0  1  0  0  0  0  0  0
  187.7210  178.5770  137.0420 C   0  0  0  0  0  2  0  0  0  0  0  0
  187.7530  177.7490  135.8410 N   0  0  0  0  0  2  0  0  0  0  0  0
  187.9050  176.3590  136.2550 C   0  0  1  0  0  3  0  0  0  0  0  0
  187.0420  175.4240  135.3920 C   0  0  2  0  0  3  0  0  0  0  0  0
  185.7030  173.2320  135.2650 C   0  0  1  0  0  3  0  0  0  0  0  0
  182.8520  174.9550  134.6080 O   0  0  0  0  0  0  0  0  0  0  0  0
  187.9490  173.3250  136.1300 O   0  0  0  0  0  1  0  0  0  0  0  0
  184.5970  176.1230  135.6620 C   0  0  0  0  0  2  0  0  0  0  0  0
  184.3100  173.5480  135.7990 C   0  0  0  0  0  2  0  0  0  0  0  0
  185.8450  176.1790  134.7930 C   0  0  0  0  0  2  0  0  0  0  0  0
  186.7540  174.0450  136.0320 C   0  0  1  0  0  3  0  0  0  0  0  0
  183.8340  174.8820  135.3280 C   0  0  0  0  0  0  0  0  0  0  0  0
  185.9330  171.8630  135.4200 O   0  0  0  0  0  1  0  0  0  0  0  0
  189.3780  175.9570  136.3110 C   0  0  0  0  0  2  0  0  0  0  0  0
  189.8650  175.6550  135.0390 O   0  0  0  0  0  1  0  0  0  0  0  0
  186.7120  177.8780  140.7470 C   0  0  0  0  0  2  0  0  0  0  0  0
  186.3680  179.0460  141.5430 N   0  0  0  0  0  2  0  0  0  0  0  0
  185.1370  179.1570  142.2530 C   0  0  0  0  0  0  0  0  0  0  0  0
  184.8770  180.2220  142.8770 O   0  0  0  0  0  0  0  0  0  0  0  0
  184.1620  178.0200  142.3010 C   0  0  0  0  0  2  0  0  0  0  0  0
  182.7490  178.5150  142.3310 C   0  0  0  0  0  0  0  0  0  0  0  0
  182.1980  178.7700  143.4360 O   0  0  0  0  0  0  0  0  0  0  0  0
  182.6180  179.4210  140.1370 O   0  0  0  0  0  0  0  0  0  0  0  0
  182.0360  178.7990  141.0690 C   0  0  0  0  0  0  0  0  0  0  0  0
  180.6160  178.3440  140.8840 C   0  0  2  0  0  3  0  0  0  0  0  0
  180.5180  177.1410  140.0020 C   0  0  0  0  0  0  0  0  0  0  0  0
  180.2560  174.9420  138.2730 C   0  0  0  0  0  0  0  0  0  0  0  0
  181.5090  175.5400  138.4740 C   0  0  0  0  0  3  0  0  0  0  0  0
  179.2680  176.5400  139.8120 C   0  0  0  0  0  3  0  0  0  0  0  0
  181.6400  176.6350  139.3330 C   0  0  0  0  0  3  0  0  0  0  0  0
  179.1350  175.4480  138.9500 C   0  0  0  0  0  3  0  0  0  0  0  0
  180.1280  173.7960  137.3120 C   0  0  1  0  0  0  0  0  0  0  0  0
  180.9730  172.6200  137.5300 C   0  0  2  0  0  3  0  0  0  0  0  0
  180.8180  171.5730  136.4490 C   0  0  0  0  0  2  0  0  0  0  0  0
  179.5310  172.5700  137.8830 N   0  0  2  0  0  0  0  0  0  0  0  0
  179.3600  171.5550  136.8460 C   0  0  0  0  0  2  0  0  0  0  0  0
  179.7320  174.0860  135.9950 O   0  0  0  0  0  1  0  0  0  0  0  0
  179.8140  179.3810  140.3890 O   0  0  0  0  0  0  0  0  0  0  0  0
  179.9140  180.3420  141.2860 O   0  0  0  0  0  0  0  0  0  0  0  0
  178.9510  181.2820  140.9070 C   0  0  0  0  0  1  0  0  0  0  0  0
  1  2  1  0  0  0  0
  1 42  1  1  0  0  0
  2  4  1  0  0  0  0
  3  2  2  0  0  0  0
  4  5  1  0  0  0  0
  5  6  1  0  0  0  0
  7 16  2  0  0  0  0
  9 19  1  0  0  0  0
 10 24  1  0  0  0  0
 10  8  2  0  0  0  0
 11 13  1  0  0  0  0
 11  9  1  0  0  0  0
 12 17  2  0  0  0  0
 12  7  1  0  0  0  0
 13  6  1  1  0  0  0
 13 12  1  0  0  0  0
 14 15  1  0  0  0  0
 16  8  1  0  0  0  0
 16 15  1  0  0  0  0
 17 10  1  0  0  0  0
 18 14  1  0  0  0  0
 19 20  2  0  0  0  0
 20 18  2  0  0  0  0
 23 24  1  0  0  0  0
 24 21  1  0  0  0  0
 24 22  1  0  0  0  0
 25 26  1  1  0  0  0
 25  1  1  0  0  0  0
 27 25  1  0  0  0  0
 28 29  1  0  0  0  0
 28 27  1  0  0  0  0
 29 40  1  6  0  0  0
 30 37  1  0  0  0  0
 30 29  1  1  0  0  0
 31 39  1  1  0  0  0
 31 35  1  0  0  0  0
 31 37  1  0  0  0  0
 32 38  2  0  0  0  0
 36 30  1  0  0  0  0
 36 34  1  0  0  0  0
 37 33  1  6  0  0  0
 38 34  1  0  0  0  0
 38 35  1  0  0  0  0
 41 40  1  0  0  0  0
 42 43  1  0  0  0  0
 43 44  1  0  0  0  0
 44 46  1  0  0  0  0
 44 45  2  0  0  0  0
 46 47  1  0  0  0  0
 47 48  2  0  0  0  0
 49 50  2  0  0  0  0
 50 47  1  0  0  0  0
 51 64  1  6  0  0  0
 51 50  1  0  0  0  0
 52 51  1  0  0  0  0
 53 54  2  0  0  0  0
 53 57  1  0  0  0  0
 54 56  1  0  0  0  0
 55 52  1  0  0  0  0
 56 52  2  0  0  0  0
 57 55  2  0  0  0  0
 58 63  1  6  0  0  0
 58 59  1  0  0  0  0
 58 61  1  0  0  0  0
 58 53  1  0  0  0  0
 59 60  1  6  0  0  0
 59 61  1  0  0  0  0
 60 62  1  0  0  0  0
 61 62  1  6  0  0  0
 64 65  1  0  0  0  0
 66 65  1  0  0  0  0
M  END
>  <MODEL>
7

>  <REMARK>
 VINA RESULT:      -6.4      5.310     10.276
  Name = 
  22 active torsions:
  status: ('A' for Active; 'I' for Inactive)
    1  A    between atoms: C_1  and  C_34
    2  A    between atoms: N_3  and  C_36
    3  A    between atoms: C_4  and  C_6
    4  A    between atoms: O_5  and  C_34
    5  A    between atoms: O_5  and  O_41
    6  A    between atoms: C_9  and  C_26
    7  A    between atoms: C_9  and  N_60
    8  A    between atoms: CA_10  and  C_14
    9  A    between atoms: CA_10  and  C_15
   10  A    between atoms: CA_10  and  N_64
   11  A    between atoms: C_11  and  C_25
   12  A    between atoms: C_11  and  N_64
   13  A    between atoms: C_13  and  C_58
   14  A    between atoms: C_17  and  C_30
   15  A    between atoms: C_17  and  C_53
   16  A    between atoms: C_21  and  C_24
   17  A    between atoms: C_21  and  C_34
   18  A    between atoms: C_24  and  C_47
   19  A    between atoms: C_25  and  C_30
   20  A    between atoms: C_30  and  C_36
   21  A    between atoms: C_31  and  C_47
   22  A    between atoms: C_53  and  N_60
                            x       y       z     vdW  Elec       q    Type
                         _______ _______ _______ _____ _____    ______ ____

>  <TORSDO>
F 22

$$$$
=
 OpenBabel10222420423D

 66 71  0  0  1  0  0  0  0  0999 V2000
  185.7360  178.9170  141.7090 C   0  0  1  0  0  3  0  0  0  0  0  0
  184.2770  179.0210  142.0730 C   0  0  0  0  0  0  0  0  0  0  0  0
  183.9330  179.3590  143.1930 O   0  0  0  0  0  0  0  0  0  0  0  0
  183.2310  178.6460  141.0700 C   0  0  0  0  0  2  0  0  0  0  0  0
  183.8000  177.7400  140.0840 N   0  0  0  0  0  2  0  0  0  0  0  0
  182.8420  176.6610  139.8600 C   0  0  0  0  0  2  0  0  0  0  0  0
  181.7890  176.9600  136.9970 N   0  0  0  0  0  0  0  0  0  0  0  0
  181.3090  178.6910  135.4370 C   0  0  0  0  0  3  0  0  0  0  0  0
  180.4690  174.8980  139.0230 C   0  0  0  0  0  2  0  0  0  0  0  0
  181.0730  179.5780  136.4970 C   0  0  0  0  0  0  0  0  0  0  0  0
  180.3180  176.2700  139.6820 C   0  0  0  0  0  2  0  0  0  0  0  0
  181.5010  177.7750  138.0440 C   0  0  0  0  0  0  0  0  0  0  0  0
  181.4870  177.2350  139.4370 C   0  0  2  0  0  3  0  0  0  0  0  0
  182.0000  175.0500  134.7130 N   0  0  0  0  0  2  0  0  0  0  0  0
  181.8830  176.4550  134.6270 N   0  0  0  0  0  2  0  0  0  0  0  0
  181.6530  177.3620  135.7100 C   0  0  0  0  0  0  0  0  0  0  0  0
  181.1450  179.1050  137.8120 C   0  0  0  0  0  3  0  0  0  0  0  0
  181.3730  174.1550  135.6500 C   0  0  0  0  0  3  0  0  0  0  0  0
  179.8660  174.8690  137.6600 C   0  0  0  0  0  3  0  0  0  0  0  0
  180.6010  174.5210  136.6390 C   0  0  0  0  0  0  0  0  0  0  0  0
  180.9940  181.3750  134.9430 F   0  0  0  0  0  0  0  0  0  0  0  0
  179.3460  181.1820  136.4580 F   0  0  0  0  0  0  0  0  0  0  0  0
  181.4060  181.8370  137.1090 F   0  0  0  0  0  0  0  0  0  0  0  0
  180.7010  181.0110  136.2450 C   0  0  0  0  0  0  0  0  0  0  0  0
  186.5960  178.2530  142.7920 C   0  0  1  0  0  3  0  0  0  0  0  0
  185.8600  177.1520  143.5350 C   0  0  0  0  0  1  0  0  0  0  0  0
  187.9100  177.7350  142.2200 C   0  0  0  0  0  2  0  0  0  0  0  0
  189.0360  178.4120  142.8550 N   0  0  0  0  0  2  0  0  0  0  0  0
  189.9100  177.3960  143.4290 C   0  0  1  0  0  3  0  0  0  0  0  0
  190.2490  177.7180  144.8930 C   0  0  2  0  0  3  0  0  0  0  0  0
  189.6880  177.3280  147.3730 C   0  0  1  0  0  3  0  0  0  0  0  0
  192.7710  176.0130  147.9140 O   0  0  0  0  0  0  0  0  0  0  0  0
  188.0080  177.9010  145.7430 O   0  0  0  0  0  1  0  0  0  0  0  0
  191.9730  176.0120  145.7040 C   0  0  0  0  0  2  0  0  0  0  0  0
  190.4240  176.0580  147.7850 C   0  0  0  0  0  2  0  0  0  0  0  0
  191.7280  177.4240  145.1910 C   0  0  0  0  0  2  0  0  0  0  0  0
  189.2100  177.2060  145.9190 C   0  0  1  0  0  3  0  0  0  0  0  0
  191.7920  176.0010  147.1870 C   0  0  0  0  0  0  0  0  0  0  0  0
  188.6010  177.5040  148.2330 O   0  0  0  0  0  1  0  0  0  0  0  0
  189.3350  175.9950  143.2260 C   0  0  0  0  0  2  0  0  0  0  0  0
  190.3270  175.0970  142.8310 O   0  0  0  0  0  1  0  0  0  0  0  0
  186.0260  178.4510  140.2750 C   0  0  0  0  0  2  0  0  0  0  0  0
  187.3580  178.8500  139.8500 N   0  0  0  0  0  2  0  0  0  0  0  0
  188.0290  178.2390  138.7510 C   0  0  0  0  0  0  0  0  0  0  0  0
  189.2070  178.5940  138.4720 O   0  0  0  0  0  0  0  0  0  0  0  0
  187.3500  177.2090  137.9000 C   0  0  0  0  0  2  0  0  0  0  0  0
  187.8070  177.2920  136.4770 C   0  0  0  0  0  0  0  0  0  0  0  0
  187.3910  178.2280  135.7390 O   0  0  0  0  0  0  0  0  0  0  0  0
  189.4800  176.6200  134.9270 O   0  0  0  0  0  0  0  0  0  0  0  0
  188.8160  176.3430  135.9650 C   0  0  0  0  0  0  0  0  0  0  0  0
  189.0640  175.0440  136.6790 C   0  0  2  0  0  3  0  0  0  0  0  0
  190.5210  174.7750  136.8740 C   0  0  0  0  0  0  0  0  0  0  0  0
  193.2380  174.2480  137.3570 C   0  0  0  0  0  0  0  0  0  0  0  0
  192.5160  173.4650  136.4440 C   0  0  0  0  0  3  0  0  0  0  0  0
  191.2420  175.5660  137.7770 C   0  0  0  0  0  3  0  0  0  0  0  0
  191.1640  173.7250  136.2040 C   0  0  0  0  0  3  0  0  0  0  0  0
  192.5920  175.3030  138.0220 C   0  0  0  0  0  3  0  0  0  0  0  0
  194.6770  173.9230  137.6350 C   0  0  1  0  0  0  0  0  0  0  0  0
  195.5550  173.6650  136.4930 C   0  0  2  0  0  3  0  0  0  0  0  0
  196.9560  173.2630  136.9020 C   0  0  0  0  0  2  0  0  0  0  0  0
  195.6410  174.9610  137.2130 N   0  0  2  0  0  0  0  0  0  0  0  0
  196.9960  174.5940  137.6180 C   0  0  0  0  0  2  0  0  0  0  0  0
  194.9840  173.2960  138.8550 O   0  0  0  0  0  1  0  0  0  0  0  0
  188.4540  173.9750  136.0110 O   0  0  0  0  0  0  0  0  0  0  0  0
  187.2830  173.8330  136.6000 O   0  0  0  0  0  0  0  0  0  0  0  0
  187.3550  172.5900  137.2370 C   0  0  0  0  0  1  0  0  0  0  0  0
  1 42  1  6  0  0  0
  1  2  1  0  0  0  0
  1 25  1  0  0  0  0
  2  3  2  0  0  0  0
  4  2  1  0  0  0  0
  5  4  1  0  0  0  0
  6  5  1  0  0  0  0
  7 12  1  0  0  0  0
  8 16  1  0  0  0  0
  8 10  2  0  0  0  0
  9 11  1  0  0  0  0
 10 17  1  0  0  0  0
 12 13  1  0  0  0  0
 13 11  1  0  0  0  0
 13  6  1  6  0  0  0
 14 18  1  0  0  0  0
 15 14  1  0  0  0  0
 15 16  1  0  0  0  0
 16  7  2  0  0  0  0
 17 12  2  0  0  0  0
 18 20  2  0  0  0  0
 19  9  1  0  0  0  0
 20 19  2  0  0  0  0
 21 24  1  0  0  0  0
 24 22  1  0  0  0  0
 24 10  1  0  0  0  0
 24 23  1  0  0  0  0
 25 26  1  6  0  0  0
 27 25  1  0  0  0  0
 27 28  1  0  0  0  0
 28 29  1  0  0  0  0
 29 40  1  1  0  0  0
 30 29  1  6  0  0  0
 30 36  1  0  0  0  0
 30 37  1  0  0  0  0
 31 35  1  0  0  0  0
 31 39  1  1  0  0  0
 34 38  1  0  0  0  0
 36 34  1  0  0  0  0
 37 33  1  1  0  0  0
 37 31  1  0  0  0  0
 38 35  1  0  0  0  0
 38 32  2  0  0  0  0
 41 40  1  0  0  0  0
 43 42  1  0  0  0  0
 44 43  1  0  0  0  0
 45 44  2  0  0  0  0
 46 44  1  0  0  0  0
 47 46  1  0  0  0  0
 48 47  2  0  0  0  0
 49 50  2  0  0  0  0
 50 47  1  0  0  0  0
 51 50  1  6  0  0  0
 51 52  1  0  0  0  0
 52 55  1  0  0  0  0
 53 58  1  0  0  0  0
 53 57  1  0  0  0  0
 54 53  2  0  0  0  0
 55 57  2  0  0  0  0
 56 54  1  0  0  0  0
 56 52  2  0  0  0  0
 58 63  1  1  0  0  0
 59 60  1  1  0  0  0
 59 61  1  0  0  0  0
 59 58  1  0  0  0  0
 60 62  1  0  0  0  0
 61 62  1  1  0  0  0
 61 58  1  0  0  0  0
 64 65  1  0  0  0  0
 64 51  1  0  0  0  0
 65 66  1  0  0  0  0
M  END
>  <MODEL>
8

>  <REMARK>
 VINA RESULT:      -6.4      2.082      8.763
  Name = 
  22 active torsions:
  status: ('A' for Active; 'I' for Inactive)
    1  A    between atoms: C_1  and  C_34
    2  A    between atoms: N_3  and  C_36
    3  A    between atoms: C_4  and  C_6
    4  A    between atoms: O_5  and  C_34
    5  A    between atoms: O_5  and  O_41
    6  A    between atoms: C_9  and  C_26
    7  A    between atoms: C_9  and  N_60
    8  A    between atoms: CA_10  and  C_14
    9  A    between atoms: CA_10  and  C_15
   10  A    between atoms: CA_10  and  N_64
   11  A    between atoms: C_11  and  C_25
   12  A    between atoms: C_11  and  N_64
   13  A    between atoms: C_13  and  C_58
   14  A    between atoms: C_17  and  C_30
   15  A    between atoms: C_17  and  C_53
   16  A    between atoms: C_21  and  C_24
   17  A    between atoms: C_21  and  C_34
   18  A    between atoms: C_24  and  C_47
   19  A    between atoms: C_25  and  C_30
   20  A    between atoms: C_30  and  C_36
   21  A    between atoms: C_31  and  C_47
   22  A    between atoms: C_53  and  N_60
                            x       y       z     vdW  Elec       q    Type
                         _______ _______ _______ _____ _____    ______ ____

>  <TORSDO>
F 22

$$$$
=
 OpenBabel10222420423D

 66 71  0  0  1  0  0  0  0  0999 V2000
  186.3430  178.6260  141.7770 C   0  0  1  0  0  3  0  0  0  0  0  0
  184.8800  178.5900  141.4190 C   0  0  0  0  0  0  0  0  0  0  0  0
  184.1020  177.8770  142.0310 O   0  0  0  0  0  0  0  0  0  0  0  0
  184.3770  179.3900  140.2580 C   0  0  0  0  0  2  0  0  0  0  0  0
  184.2490  178.5310  139.0910 N   0  0  0  0  0  2  0  0  0  0  0  0
  183.1240  177.6270  139.3190 C   0  0  0  0  0  2  0  0  0  0  0  0
  181.3120  178.3990  136.9710 N   0  0  0  0  0  0  0  0  0  0  0  0
  180.6630  180.3510  135.7750 C   0  0  0  0  0  3  0  0  0  0  0  0
  180.3580  176.2980  139.1580 C   0  0  0  0  0  2  0  0  0  0  0  0
  180.9070  181.1290  136.9160 C   0  0  0  0  0  0  0  0  0  0  0  0
  180.6370  177.5900  139.9280 C   0  0  0  0  0  2  0  0  0  0  0  0
  181.4900  179.1140  138.1110 C   0  0  0  0  0  0  0  0  0  0  0  0
  181.8160  178.4170  139.3930 C   0  0  2  0  0  3  0  0  0  0  0  0
  180.5080  176.7630  134.6070 N   0  0  0  0  0  2  0  0  0  0  0  0
  180.5970  178.1720  134.6640 N   0  0  0  0  0  2  0  0  0  0  0  0
  180.8560  178.9650  135.8270 C   0  0  0  0  0  0  0  0  0  0  0  0
  181.2990  180.4970  138.1020 C   0  0  0  0  0  3  0  0  0  0  0  0
  180.0610  175.8510  135.6270 C   0  0  0  0  0  3  0  0  0  0  0  0
  179.3720  176.5100  138.0590 C   0  0  0  0  0  3  0  0  0  0  0  0
  179.6950  176.1950  136.8350 C   0  0  0  0  0  0  0  0  0  0  0  0
  179.3840  182.9430  137.1190 F   0  0  0  0  0  0  0  0  0  0  0  0
  181.4790  183.1950  137.8930 F   0  0  0  0  0  0  0  0  0  0  0  0
  181.0980  183.1270  135.6690 F   0  0  0  0  0  0  0  0  0  0  0  0
  180.7110  182.6170  136.9000 C   0  0  0  0  0  0  0  0  0  0  0  0
  186.6240  178.3160  143.2530 C   0  0  1  0  0  3  0  0  0  0  0  0
  185.5340  178.8250  144.1790 C   0  0  0  0  0  1  0  0  0  0  0  0
  186.8720  176.8290  143.4720 C   0  0  0  0  0  2  0  0  0  0  0  0
  188.2930  176.5290  143.3300 N   0  0  0  0  0  2  0  0  0  0  0  0
  189.0400  177.4900  144.1330 C   0  0  1  0  0  3  0  0  0  0  0  0
  189.2960  176.9510  145.5500 C   0  0  2  0  0  3  0  0  0  0  0  0
  190.6900  177.1260  147.7030 C   0  0  1  0  0  3  0  0  0  0  0  0
  187.9120  177.8920  149.4980 O   0  0  0  0  0  0  0  0  0  0  0  0
  191.6980  177.0060  145.5180 O   0  0  0  0  0  1  0  0  0  0  0  0
  187.8350  178.2720  147.1810 C   0  0  0  0  0  2  0  0  0  0  0  0
  190.0390  178.2140  148.5500 C   0  0  0  0  0  2  0  0  0  0  0  0
  188.0100  176.9840  146.3910 C   0  0  0  0  0  2  0  0  0  0  0  0
  190.5850  177.4880  146.2160 C   0  0  1  0  0  3  0  0  0  0  0  0
  188.5490  178.1360  148.4870 C   0  0  0  0  0  0  0  0  0  0  0  0
  192.0290  177.0140  148.0870 O   0  0  0  0  0  1  0  0  0  0  0  0
  190.3070  177.9470  143.4110 C   0  0  0  0  0  2  0  0  0  0  0  0
  190.4080  177.3550  142.1520 O   0  0  0  0  0  1  0  0  0  0  0  0
  187.2830  177.9350  140.7780 C   0  0  0  0  0  2  0  0  0  0  0  0
  187.8220  178.8850  139.8180 N   0  0  0  0  0  2  0  0  0  0  0  0
  188.5700  178.4800  138.6740 C   0  0  0  0  0  0  0  0  0  0  0  0
  189.0580  179.3580  137.9120 O   0  0  0  0  0  0  0  0  0  0  0  0
  188.7570  177.0300  138.3400 C   0  0  0  0  0  2  0  0  0  0  0  0
  188.1090  176.6840  137.0350 C   0  0  0  0  0  0  0  0  0  0  0  0
  186.9150  177.0260  136.8180 O   0  0  0  0  0  0  0  0  0  0  0  0
  189.1020  176.6350  134.8760 O   0  0  0  0  0  0  0  0  0  0  0  0
  188.8950  176.0340  135.9670 C   0  0  0  0  0  0  0  0  0  0  0  0
  189.4580  174.6560  136.1730 C   0  0  2  0  0  3  0  0  0  0  0  0
  190.9520  174.6580  136.2290 C   0  0  0  0  0  0  0  0  0  0  0  0
  193.7610  174.6890  136.2150 C   0  0  0  0  0  0  0  0  0  0  0  0
  193.0470  175.5790  137.0310 C   0  0  0  0  0  3  0  0  0  0  0  0
  191.6620  173.7610  135.4220 C   0  0  0  0  0  3  0  0  0  0  0  0
  191.6500  175.5660  137.0370 C   0  0  0  0  0  3  0  0  0  0  0  0
  193.0590  173.7770  135.4110 C   0  0  0  0  0  3  0  0  0  0  0  0
  195.2610  174.7500  136.1880 C   0  0  1  0  0  0  0  0  0  0  0  0
  195.9270  174.6870  134.8860 C   0  0  2  0  0  3  0  0  0  0  0  0
  197.4370  174.6670  134.9960 C   0  0  0  0  0  2  0  0  0  0  0  0
  195.8220  175.9840  135.6010 N   0  0  2  0  0  0  0  0  0  0  0  0
  197.2790  175.9870  135.7150 C   0  0  0  0  0  2  0  0  0  0  0  0
  195.9560  174.2610  137.3080 O   0  0  0  0  0  1  0  0  0  0  0  0
  189.0060  173.7720  135.1860 O   0  0  0  0  0  0  0  0  0  0  0  0
  187.8510  173.3250  135.6370 O   0  0  0  0  0  0  0  0  0  0  0  0
  188.1740  172.1700  136.3570 C   0  0  0  0  0  1  0  0  0  0  0  0
  1 42  1  6  0  0  0
  1 25  1  0  0  0  0
  2  1  1  0  0  0  0
  2  3  2  0  0  0  0
  4  2  1  0  0  0  0
  5  6  1  0  0  0  0
  5  4  1  0  0  0  0
  7 12  1  0  0  0  0
  8 16  1  0  0  0  0
  8 10  2  0  0  0  0
  9 11  1  0  0  0  0
 10 17  1  0  0  0  0
 12 13  1  0  0  0  0
 13  6  1  6  0  0  0
 13 11  1  0  0  0  0
 14 15  1  0  0  0  0
 14 18  1  0  0  0  0
 15 16  1  0  0  0  0
 16  7  2  0  0  0  0
 17 12  2  0  0  0  0
 18 20  2  0  0  0  0
 19  9  1  0  0  0  0
 20 19  2  0  0  0  0
 23 24  1  0  0  0  0
 24 10  1  0  0  0  0
 24 21  1  0  0  0  0
 24 22  1  0  0  0  0
 25 27  1  0  0  0  0
 25 26  1  1  0  0  0
 28 27  1  0  0  0  0
 28 29  1  0  0  0  0
 29 40  1  6  0  0  0
 30 29  1  6  0  0  0
 30 37  1  0  0  0  0
 30 36  1  0  0  0  0
 31 39  1  1  0  0  0
 31 35  1  0  0  0  0
 34 38  1  0  0  0  0
 36 34  1  0  0  0  0
 37 33  1  6  0  0  0
 37 31  1  0  0  0  0
 38 35  1  0  0  0  0
 38 32  2  0  0  0  0
 41 40  1  0  0  0  0
 43 42  1  0  0  0  0
 44 43  1  0  0  0  0
 45 44  2  0  0  0  0
 46 44  1  0  0  0  0
 47 46  1  0  0  0  0
 48 47  2  0  0  0  0
 49 50  2  0  0  0  0
 50 51  1  0  0  0  0
 50 47  1  0  0  0  0
 51 64  1  6  0  0  0
 51 52  1  0  0  0  0
 52 56  1  0  0  0  0
 53 54  1  0  0  0  0
 54 56  2  0  0  0  0
 55 52  2  0  0  0  0
 57 55  1  0  0  0  0
 57 53  2  0  0  0  0
 58 53  1  0  0  0  0
 58 63  1  1  0  0  0
 59 60  1  1  0  0  0
 59 61  1  0  0  0  0
 59 58  1  0  0  0  0
 60 62  1  0  0  0  0
 61 62  1  1  0  0  0
 61 58  1  0  0  0  0
 64 65  1  0  0  0  0
 65 66  1  0  0  0  0
M  END
>  <MODEL>
9

>  <REMARK>
 VINA RESULT:      -6.3      1.815      9.228
  Name = 
  22 active torsions:
  status: ('A' for Active; 'I' for Inactive)
    1  A    between atoms: C_1  and  C_34
    2  A    between atoms: N_3  and  C_36
    3  A    between atoms: C_4  and  C_6
    4  A    between atoms: O_5  and  C_34
    5  A    between atoms: O_5  and  O_41
    6  A    between atoms: C_9  and  C_26
    7  A    between atoms: C_9  and  N_60
    8  A    between atoms: CA_10  and  C_14
    9  A    between atoms: CA_10  and  C_15
   10  A    between atoms: CA_10  and  N_64
   11  A    between atoms: C_11  and  C_25
   12  A    between atoms: C_11  and  N_64
   13  A    between atoms: C_13  and  C_58
   14  A    between atoms: C_17  and  C_30
   15  A    between atoms: C_17  and  C_53
   16  A    between atoms: C_21  and  C_24
   17  A    between atoms: C_21  and  C_34
   18  A    between atoms: C_24  and  C_47
   19  A    between atoms: C_25  and  C_30
   20  A    between atoms: C_30  and  C_36
   21  A    between atoms: C_31  and  C_47
   22  A    between atoms: C_53  and  N_60
                            x       y       z     vdW  Elec       q    Type
                         _______ _______ _______ _____ _____    ______ ____

>  <TORSDO>
F 22

$$$$
