=
 OpenBabel10222417193D

 46 48  0  0  1  0  0  0  0  0999 V2000
  188.0680  177.3910  144.5820 C   0  0  1  0  0  3  0  0  0  0  0  0
  188.6870  178.3500  143.6760 N   0  0  0  0  0  2  0  0  0  0  0  0
  189.4650  177.9670  142.5390 C   0  0  0  0  0  0  0  0  0  0  0  0
  190.9600  177.2170  140.2770 C   0  0  0  0  0  0  0  0  0  0  0  0
  189.5830  177.4720  140.1700 C   0  0  0  0  0  3  0  0  0  0  0  0
  190.8390  177.7090  142.6520 C   0  0  0  0  0  3  0  0  0  0  0  0
  191.5790  177.3370  141.5250 C   0  0  0  0  0  3  0  0  0  0  0  0
  188.8420  177.8440  141.2940 C   0  0  0  0  0  3  0  0  0  0  0  0
  191.7460  176.8320  139.1820 O   0  0  0  0  0  0  0  0  0  0  0  0
  191.0100  177.1870  137.0040 O   0  0  0  0  0  0  0  0  0  0  0  0
  191.2750  176.3860  137.9380 C   0  0  0  0  0  0  0  0  0  0  0  0
  191.0570  174.9260  137.7300 C   0  0  0  0  0  2  0  0  0  0  0  0
  187.0680  173.8120  136.5670 C   0  0  1  0  0  3  0  0  0  0  0  0
  189.5550  173.2010  136.6920 C   0  0  0  0  0  2  0  0  0  0  0  0
  188.6810  175.2650  137.6480 O   0  0  0  0  0  0  0  0  0  0  0  0
  188.1120  172.7620  136.9770 C   0  0  0  0  0  2  0  0  0  0  0  0
  189.7700  174.7010  136.9580 C   0  0  1  0  0  3  0  0  0  0  0  0
  185.9170  173.6190  137.3340 O   0  0  0  0  0  1  0  0  0  0  0  0
  187.6220  175.2460  136.7280 C   0  0  2  0  0  3  0  0  0  0  0  0
  186.5600  176.2830  137.0820 C   0  0  0  0  0  2  0  0  0  0  0  0
  186.5210  177.4310  136.0780 C   0  0  0  0  0  2  0  0  0  0  0  0
  187.2800  178.6460  136.5860 C   0  0  0  0  0  2  0  0  0  0  0  0
  187.2820  178.6580  137.9810 O   0  0  0  0  0  1  0  0  0  0  0  0
  187.9480  177.9740  145.8760 O   0  0  0  0  0  0  0  0  0  0  0  0
  188.9090  177.7940  146.8730 C   0  0  0  0  0  0  0  0  0  0  0  0
  190.0720  177.0200  146.5840 N   0  0  0  0  0  2  0  0  0  0  0  0
  188.7530  178.3060  148.0160 O   0  0  0  0  0  0  0  0  0  0  0  0
  191.1200  176.8030  147.5690 C   0  0  0  0  0  2  0  0  0  0  0  0
  193.2160  175.6450  147.9910 N   0  0  0  0  0  1  0  0  0  0  0  0
  192.1540  175.8400  147.0180 C   0  0  0  0  0  2  0  0  0  0  0  0
  186.6920  177.0110  144.0610 C   0  0  0  0  0  2  0  0  0  0  0  0
  185.8100  178.2410  143.9230 C   0  0  0  0  0  2  0  0  0  0  0  0
  185.1520  178.2720  142.5520 C   0  0  0  0  0  2  0  0  0  0  0  0
  181.5110  178.7360  142.0970 C   0  0  0  0  0  3  0  0  0  0  0  0
  183.1260  179.0920  143.7500 C   0  0  0  0  0  3  0  0  0  0  0  0
  183.7040  178.6230  142.6570 C   0  0  0  0  0  0  0  0  0  0  0  0
  181.6620  179.2660  143.4890 C   0  0  0  0  0  2  0  0  0  0  0  0
  182.7080  178.4280  141.6240 C   0  0  0  0  0  0  0  0  0  0  0  0
  183.2160  178.2810  139.2110 C   0  0  0  0  0  0  0  0  0  0  0  0
  182.9680  177.7590  140.3800 N   0  0  0  0  0  0  0  0  0  0  0  0
  182.3810  180.5910  138.7560 O   0  0  0  0  0  0  0  0  0  0  0  0
  184.6030  180.2120  139.1230 O   0  0  0  0  0  1  0  0  0  0  0  0
  183.4440  179.7320  139.0020 C   0  0  0  0  0  0  0  0  0  0  0  0
  182.4480  177.7530  137.0180 O   0  0  0  0  0  1  0  0  0  0  0  0
  183.2960  177.3420  138.0470 C   0  0  2  0  0  3  0  0  0  0  0  0
  182.9540  175.9260  138.4690 C   0  0  0  0  0  1  0  0  0  0  0  0
  1 31  1  6  0  0  0
  1 24  1  0  0  0  0
  2  1  1  0  0  0  0
  3  6  1  0  0  0  0
  3  2  1  0  0  0  0
  4  7  1  0  0  0  0
  5  4  2  0  0  0  0
  5  8  1  0  0  0  0
  7  6  2  0  0  0  0
  8  3  2  0  0  0  0
  9  4  1  0  0  0  0
 10 11  2  0  0  0  0
 11  9  1  0  0  0  0
 12 11  1  0  0  0  0
 13 19  1  0  0  0  0
 13 16  1  0  0  0  0
 13 18  1  1  0  0  0
 14 17  1  0  0  0  0
 14 16  1  0  0  0  0
 17 15  1  0  0  0  0
 17 12  1  1  0  0  0
 19 20  1  1  0  0  0
 19 15  1  0  0  0  0
 21 22  1  0  0  0  0
 21 20  1  0  0  0  0
 22 23  1  0  0  0  0
 24 25  1  0  0  0  0
 25 27  2  0  0  0  0
 26 25  1  0  0  0  0
 26 28  1  0  0  0  0
 30 28  1  0  0  0  0
 30 29  1  0  0  0  0
 32 31  1  0  0  0  0
 33 36  1  0  0  0  0
 33 32  1  0  0  0  0
 34 37  1  0  0  0  0
 36 35  2  0  0  0  0
 37 35  1  0  0  0  0
 38 34  2  0  0  0  0
 38 36  1  0  0  0  0
 39 40  2  0  0  0  0
 40 38  1  0  0  0  0
 41 43  2  0  0  0  0
 43 42  1  0  0  0  0
 43 39  1  0  0  0  0
 44 45  1  0  0  0  0
 45 46  1  1  0  0  0
 45 39  1  0  0  0  0
M  END
>  <MODEL>
1

>  <REMARK>
 VINA RESULT:      -7.3      0.000      0.000
  Name = 
  20 active torsions:
  status: ('A' for Active; 'I' for Inactive)
    1  A    between atoms: C_1  and  N_32
    2  A    between atoms: C_2  and  O_45
    3  A    between atoms: C_7  and  C_18
    4  A    between atoms: C_7  and  O_27
    5  A    between atoms: C_7  and  N_32
    6  A    between atoms: C_8  and  C_16
    7  A    between atoms: CA_10  and  C_28
    8  A    between atoms: CA_10  and  CB_43
    9  A    between atoms: N_11  and  C_35
   10  A    between atoms: C_15  and  C_18
   11  A    between atoms: C_15  and  C_41
   12  A    between atoms: C_16  and  C_17
   13  A    between atoms: C_17  and  C_39
   14  A    between atoms: C_21  and  C_41
   15  A    between atoms: C_22  and  O_27
   16  A    between atoms: C_23  and  C_36
   17  A    between atoms: C_23  and  C_42
   18  A    between atoms: N_25  and  C_29
   19  A    between atoms: C_29  and  C_38
   20  A    between atoms: C_42  and  O_45
                            x       y       z     vdW  Elec       q    Type
                         _______ _______ _______ _____ _____    ______ ____

>  <TORSDO>
F 20

$$$$
=
 OpenBabel10222417193D

 46 48  0  0  1  0  0  0  0  0999 V2000
  189.8360  177.0670  139.0240 C   0  0  1  0  0  3  0  0  0  0  0  0
  189.6920  177.7610  140.2970 N   0  0  0  0  0  2  0  0  0  0  0  0
  190.2520  177.2780  141.5210 C   0  0  0  0  0  0  0  0  0  0  0  0
  191.3260  176.2940  143.9290 C   0  0  0  0  0  0  0  0  0  0  0  0
  190.2300  175.6580  143.3230 C   0  0  0  0  0  3  0  0  0  0  0  0
  191.3430  177.9200  142.1250 C   0  0  0  0  0  3  0  0  0  0  0  0
  191.8740  177.4280  143.3210 C   0  0  0  0  0  3  0  0  0  0  0  0
  189.6980  176.1470  142.1280 C   0  0  0  0  0  3  0  0  0  0  0  0
  191.8900  175.8480  145.1320 O   0  0  0  0  0  0  0  0  0  0  0  0
  191.7870  175.5780  147.4400 O   0  0  0  0  0  0  0  0  0  0  0  0
  191.5410  176.2760  146.4220 C   0  0  0  0  0  0  0  0  0  0  0  0
  190.8360  177.5790  146.5840 C   0  0  0  0  0  2  0  0  0  0  0  0
  186.6380  178.0730  147.3880 C   0  0  1  0  0  3  0  0  0  0  0  0
  189.0210  177.8230  148.3030 C   0  0  0  0  0  2  0  0  0  0  0  0
  188.5610  177.9580  145.9140 O   0  0  0  0  0  0  0  0  0  0  0  0
  187.7120  178.6250  148.3370 C   0  0  0  0  0  2  0  0  0  0  0  0
  189.3670  177.3370  146.8850 C   0  0  1  0  0  3  0  0  0  0  0  0
  185.7640  179.1090  147.0530 O   0  0  0  0  0  1  0  0  0  0  0  0
  187.2750  177.4410  146.1290 C   0  0  2  0  0  3  0  0  0  0  0  0
  186.4120  177.5580  144.8750 C   0  0  0  0  0  2  0  0  0  0  0  0
  187.2020  178.0910  143.6830 C   0  0  0  0  0  2  0  0  0  0  0  0
  186.4220  177.9510  142.3860 C   0  0  0  0  0  2  0  0  0  0  0  0
  186.4160  179.1640  141.6990 O   0  0  0  0  0  1  0  0  0  0  0  0
  189.5990  177.9820  137.9580 O   0  0  0  0  0  0  0  0  0  0  0  0
  188.3130  178.3450  137.5530 C   0  0  0  0  0  0  0  0  0  0  0  0
  187.2320  177.4440  137.7860 N   0  0  0  0  0  2  0  0  0  0  0  0
  188.1070  179.4530  136.9850 O   0  0  0  0  0  0  0  0  0  0  0  0
  185.8650  177.7620  137.4020 C   0  0  0  0  0  2  0  0  0  0  0  0
  183.7030  178.2240  138.4130 N   0  0  0  0  0  1  0  0  0  0  0  0
  185.1370  178.3970  138.5720 C   0  0  0  0  0  2  0  0  0  0  0  0
  191.2410  176.4980  138.9080 C   0  0  0  0  0  2  0  0  0  0  0  0
  191.7100  176.5130  137.4620 C   0  0  0  0  0  2  0  0  0  0  0  0
  193.0910  175.8870  137.3440 C   0  0  0  0  0  2  0  0  0  0  0  0
  193.7440  172.6380  135.7010 C   0  0  0  0  0  3  0  0  0  0  0  0
  191.9290  173.8160  136.5880 C   0  0  0  0  0  3  0  0  0  0  0  0
  193.0220  174.5530  136.6750 C   0  0  0  0  0  0  0  0  0  0  0  0
  192.2650  172.5270  135.9040 C   0  0  0  0  0  3  0  0  0  0  0  0
  194.1410  173.8360  136.1010 C   0  0  1  0  0  3  0  0  0  0  0  0
  196.3000  174.2360  137.2320 C   0  0  0  0  0  0  0  0  0  0  0  0
  195.5060  174.2720  136.1990 N   0  0  0  0  0  0  0  0  0  0  0  0
  195.8810  174.2520  139.6940 O   0  0  0  0  0  1  0  0  0  0  0  0
  195.6440  172.3260  138.4900 O   0  0  0  0  0  0  0  0  0  0  0  0
  195.9540  173.5470  138.4990 C   0  0  0  0  0  0  0  0  0  0  0  0
  197.5430  176.0210  136.2580 O   0  0  0  0  0  1  0  0  0  0  0  0
  197.6330  174.9060  137.0920 C   0  0  2  0  0  3  0  0  0  0  0  0
  198.6720  173.9380  136.5580 C   0  0  0  0  0  1  0  0  0  0  0  0
  1 31  1  6  0  0  0
  1  2  1  0  0  0  0
  2  3  1  0  0  0  0
  3  6  2  0  0  0  0
  3  8  1  0  0  0  0
  4  9  1  0  0  0  0
  5  4  1  0  0  0  0
  6  7  1  0  0  0  0
  7  4  2  0  0  0  0
  8  5  2  0  0  0  0
  9 11  1  0  0  0  0
 11 12  1  0  0  0  0
 11 10  2  0  0  0  0
 13 18  1  6  0  0  0
 13 16  1  0  0  0  0
 14 16  1  0  0  0  0
 15 19  1  0  0  0  0
 15 17  1  0  0  0  0
 17 12  1  6  0  0  0
 17 14  1  0  0  0  0
 19 20  1  6  0  0  0
 19 13  1  0  0  0  0
 21 20  1  0  0  0  0
 22 21  1  0  0  0  0
 23 22  1  0  0  0  0
 24  1  1  0  0  0  0
 25 26  1  0  0  0  0
 25 24  1  0  0  0  0
 27 25  2  0  0  0  0
 28 26  1  0  0  0  0
 28 30  1  0  0  0  0
 29 30  1  0  0  0  0
 32 31  1  0  0  0  0
 33 32  1  0  0  0  0
 34 37  2  0  0  0  0
 34 38  1  0  0  0  0
 35 36  2  0  0  0  0
 36 33  1  0  0  0  0
 37 35  1  0  0  0  0
 38 40  1  1  0  0  0
 38 36  1  0  0  0  0
 39 43  1  0  0  0  0
 40 39  2  0  0  0  0
 42 43  2  0  0  0  0
 43 41  1  0  0  0  0
 44 45  1  0  0  0  0
 45 46  1  6  0  0  0
 45 39  1  0  0  0  0
M  END
>  <MODEL>
2

>  <REMARK>
 VINA RESULT:      -7.1      3.568     10.478
  Name = 
  20 active torsions:
  status: ('A' for Active; 'I' for Inactive)
    1  A    between atoms: C_1  and  N_32
    2  A    between atoms: C_2  and  O_45
    3  A    between atoms: C_7  and  C_18
    4  A    between atoms: C_7  and  O_27
    5  A    between atoms: C_7  and  N_32
    6  A    between atoms: C_8  and  C_16
    7  A    between atoms: CA_10  and  C_28
    8  A    between atoms: CA_10  and  CB_43
    9  A    between atoms: N_11  and  C_35
   10  A    between atoms: C_15  and  C_18
   11  A    between atoms: C_15  and  C_41
   12  A    between atoms: C_16  and  C_17
   13  A    between atoms: C_17  and  C_39
   14  A    between atoms: C_21  and  C_41
   15  A    between atoms: C_22  and  O_27
   16  A    between atoms: C_23  and  C_36
   17  A    between atoms: C_23  and  C_42
   18  A    between atoms: N_25  and  C_29
   19  A    between atoms: C_29  and  C_38
   20  A    between atoms: C_42  and  O_45
                            x       y       z     vdW  Elec       q    Type
                         _______ _______ _______ _____ _____    ______ ____

>  <TORSDO>
F 20

$$$$
=
 OpenBabel10222417193D

 46 48  0  0  1  0  0  0  0  0999 V2000
  188.1910  177.3330  144.4080 C   0  0  1  0  0  3  0  0  0  0  0  0
  188.7740  178.3030  143.4900 N   0  0  0  0  0  2  0  0  0  0  0  0
  189.6050  177.9380  142.3860 C   0  0  0  0  0  0  0  0  0  0  0  0
  191.2070  177.2230  140.1870 C   0  0  0  0  0  0  0  0  0  0  0  0
  189.8290  177.4370  140.0260 C   0  0  0  0  0  3  0  0  0  0  0  0
  190.9810  177.7200  142.5530 C   0  0  0  0  0  3  0  0  0  0  0  0
  191.7740  177.3650  141.4570 C   0  0  0  0  0  3  0  0  0  0  0  0
  189.0340  177.7920  141.1190 C   0  0  0  0  0  3  0  0  0  0  0  0
  192.0450  176.8560  139.1250 O   0  0  0  0  0  0  0  0  0  0  0  0
  191.2340  174.8210  138.3420 O   0  0  0  0  0  0  0  0  0  0  0  0
  191.7380  175.9490  138.0990 C   0  0  0  0  0  0  0  0  0  0  0  0
  192.0430  176.3230  136.6890 C   0  0  0  0  0  2  0  0  0  0  0  0
  196.1410  175.4800  135.6880 C   0  0  1  0  0  3  0  0  0  0  0  0
  193.8220  176.2570  134.9180 C   0  0  0  0  0  2  0  0  0  0  0  0
  194.3070  175.7510  137.2510 O   0  0  0  0  0  0  0  0  0  0  0  0
  195.3300  176.5460  134.9370 C   0  0  0  0  0  2  0  0  0  0  0  0
  193.3300  175.6520  136.2440 C   0  0  1  0  0  3  0  0  0  0  0  0
  197.3270  176.0600  136.1430 O   0  0  0  0  0  1  0  0  0  0  0  0
  195.3260  174.8720  136.8520 C   0  0  2  0  0  3  0  0  0  0  0  0
  196.1770  174.4330  138.0410 C   0  0  0  0  0  2  0  0  0  0  0  0
  195.5520  173.2620  138.7930 C   0  0  0  0  0  2  0  0  0  0  0  0
  195.3770  172.0480  137.8940 C   0  0  0  0  0  2  0  0  0  0  0  0
  196.6220  171.5930  137.4590 O   0  0  0  0  0  1  0  0  0  0  0  0
  188.0750  177.9170  145.7020 O   0  0  0  0  0  0  0  0  0  0  0  0
  188.8970  177.5470  146.7690 C   0  0  0  0  0  0  0  0  0  0  0  0
  190.2580  177.2060  146.5100 N   0  0  0  0  0  2  0  0  0  0  0  0
  188.4450  177.5120  147.9470 O   0  0  0  0  0  0  0  0  0  0  0  0
  191.1740  176.8250  147.5740 C   0  0  0  0  0  2  0  0  0  0  0  0
  193.2360  175.6200  148.0280 N   0  0  0  0  0  1  0  0  0  0  0  0
  192.1760  175.8130  147.0520 C   0  0  0  0  0  2  0  0  0  0  0  0
  186.8160  176.9180  143.9090 C   0  0  0  0  0  2  0  0  0  0  0  0
  185.8830  178.1160  143.8440 C   0  0  0  0  0  2  0  0  0  0  0  0
  185.2210  178.2010  142.4770 C   0  0  0  0  0  2  0  0  0  0  0  0
  181.5720  178.6610  142.0780 C   0  0  0  0  0  3  0  0  0  0  0  0
  183.2190  179.0570  143.6900 C   0  0  0  0  0  3  0  0  0  0  0  0
  183.7760  178.5580  142.6000 C   0  0  0  0  0  0  0  0  0  0  0  0
  181.7510  179.2270  143.4520 C   0  0  0  0  0  2  0  0  0  0  0  0
  182.7610  178.3370  141.5920 C   0  0  0  0  0  0  0  0  0  0  0  0
  183.1650  178.1240  139.1650 C   0  0  0  0  0  0  0  0  0  0  0  0
  182.9950  177.6350  140.3610 N   0  0  0  0  0  0  0  0  0  0  0  0
  184.5290  180.2160  139.1130 O   0  0  0  0  0  1  0  0  0  0  0  0
  182.3640  180.2230  138.3850 O   0  0  0  0  0  0  0  0  0  0  0  0
  183.3160  179.5740  138.8930 C   0  0  0  0  0  0  0  0  0  0  0  0
  183.9960  177.6600  136.9790 O   0  0  0  0  0  1  0  0  0  0  0  0
  183.2380  177.1460  138.0320 C   0  0  2  0  0  3  0  0  0  0  0  0
  181.8500  176.7790  137.5430 C   0  0  0  0  0  1  0  0  0  0  0  0
  1 31  1  6  0  0  0
  1 24  1  0  0  0  0
  2  1  1  0  0  0  0
  3  6  1  0  0  0  0
  3  2  1  0  0  0  0
  4  7  1  0  0  0  0
  5  4  2  0  0  0  0
  5  8  1  0  0  0  0
  7  6  2  0  0  0  0
  8  3  2  0  0  0  0
  9  4  1  0  0  0  0
 11 10  2  0  0  0  0
 11  9  1  0  0  0  0
 12 11  1  0  0  0  0
 13 18  1  1  0  0  0
 13 19  1  0  0  0  0
 14 16  1  0  0  0  0
 14 17  1  0  0  0  0
 16 13  1  0  0  0  0
 17 12  1  1  0  0  0
 17 15  1  0  0  0  0
 19 15  1  0  0  0  0
 19 20  1  1  0  0  0
 20 21  1  0  0  0  0
 22 21  1  0  0  0  0
 23 22  1  0  0  0  0
 24 25  1  0  0  0  0
 25 27  2  0  0  0  0
 26 25  1  0  0  0  0
 26 28  1  0  0  0  0
 30 28  1  0  0  0  0
 30 29  1  0  0  0  0
 32 31  1  0  0  0  0
 33 36  1  0  0  0  0
 33 32  1  0  0  0  0
 34 37  1  0  0  0  0
 36 35  2  0  0  0  0
 37 35  1  0  0  0  0
 38 34  2  0  0  0  0
 38 36  1  0  0  0  0
 39 40  2  0  0  0  0
 40 38  1  0  0  0  0
 42 43  2  0  0  0  0
 43 41  1  0  0  0  0
 43 39  1  0  0  0  0
 44 45  1  0  0  0  0
 45 46  1  6  0  0  0
 45 39  1  0  0  0  0
M  END
>  <MODEL>
3

>  <REMARK>
 VINA RESULT:      -7.1      2.538      4.450
  Name = 
  20 active torsions:
  status: ('A' for Active; 'I' for Inactive)
    1  A    between atoms: C_1  and  N_32
    2  A    between atoms: C_2  and  O_45
    3  A    between atoms: C_7  and  C_18
    4  A    between atoms: C_7  and  O_27
    5  A    between atoms: C_7  and  N_32
    6  A    between atoms: C_8  and  C_16
    7  A    between atoms: CA_10  and  C_28
    8  A    between atoms: CA_10  and  CB_43
    9  A    between atoms: N_11  and  C_35
   10  A    between atoms: C_15  and  C_18
   11  A    between atoms: C_15  and  C_41
   12  A    between atoms: C_16  and  C_17
   13  A    between atoms: C_17  and  C_39
   14  A    between atoms: C_21  and  C_41
   15  A    between atoms: C_22  and  O_27
   16  A    between atoms: C_23  and  C_36
   17  A    between atoms: C_23  and  C_42
   18  A    between atoms: N_25  and  C_29
   19  A    between atoms: C_29  and  C_38
   20  A    between atoms: C_42  and  O_45
                            x       y       z     vdW  Elec       q    Type
                         _______ _______ _______ _____ _____    ______ ____

>  <TORSDO>
F 20

$$$$
=
 OpenBabel10222417193D

 46 48  0  0  1  0  0  0  0  0999 V2000
  183.6690  178.6320  141.0560 C   0  0  1  0  0  3  0  0  0  0  0  0
  184.8950  179.3150  141.4470 N   0  0  0  0  0  2  0  0  0  0  0  0
  186.1390  178.6390  141.6490 C   0  0  0  0  0  0  0  0  0  0  0  0
  188.6020  177.3280  142.0090 C   0  0  0  0  0  0  0  0  0  0  0  0
  188.3600  178.0860  140.8520 C   0  0  0  0  0  3  0  0  0  0  0  0
  186.3750  177.8790  142.8040 C   0  0  0  0  0  3  0  0  0  0  0  0
  187.6000  177.2290  142.9800 C   0  0  0  0  0  3  0  0  0  0  0  0
  187.1360  178.7360  140.6740 C   0  0  0  0  0  3  0  0  0  0  0  0
  189.8080  176.6490  142.2300 O   0  0  0  0  0  0  0  0  0  0  0  0
  191.7930  177.3480  141.2380 O   0  0  0  0  0  0  0  0  0  0  0  0
  191.0880  177.2220  142.2740 C   0  0  0  0  0  0  0  0  0  0  0  0
  191.6360  177.6670  143.5870 C   0  0  0  0  0  2  0  0  0  0  0  0
  189.7750  176.9440  147.3980 C   0  0  1  0  0  3  0  0  0  0  0  0
  191.6680  176.4010  145.7560 C   0  0  0  0  0  2  0  0  0  0  0  0
  190.0220  178.1390  145.3020 O   0  0  0  0  0  0  0  0  0  0  0  0
  191.2880  176.7790  147.1940 C   0  0  0  0  0  2  0  0  0  0  0  0
  190.7860  177.1120  144.7160 C   0  0  1  0  0  3  0  0  0  0  0  0
  189.5620  177.7970  148.4820 O   0  0  0  0  0  1  0  0  0  0  0  0
  189.0920  177.4750  146.1170 C   0  0  2  0  0  3  0  0  0  0  0  0
  187.8670  178.3460  146.3840 C   0  0  0  0  0  2  0  0  0  0  0  0
  186.5800  177.5280  146.4290 C   0  0  0  0  0  2  0  0  0  0  0  0
  185.3960  178.3700  146.8740 C   0  0  0  0  0  2  0  0  0  0  0  0
  185.1900  179.4170  145.9760 O   0  0  0  0  0  1  0  0  0  0  0  0
  182.6680  178.8550  142.0450 O   0  0  0  0  0  0  0  0  0  0  0  0
  181.3050  178.8810  141.7420 C   0  0  0  0  0  0  0  0  0  0  0  0
  180.5800  180.0990  141.9080 N   0  0  0  0  0  2  0  0  0  0  0  0
  180.7190  177.8420  141.3300 O   0  0  0  0  0  0  0  0  0  0  0  0
  179.1620  180.2010  141.6000 C   0  0  0  0  0  2  0  0  0  0  0  0
  179.7010  181.7000  139.7630 N   0  0  0  0  0  1  0  0  0  0  0  0
  178.9770  180.4920  140.1230 C   0  0  0  0  0  2  0  0  0  0  0  0
  183.1920  179.1650  139.7150 C   0  0  0  0  0  2  0  0  0  0  0  0
  184.0000  178.5610  138.5780 C   0  0  0  0  0  2  0  0  0  0  0  0
  183.5910  177.1140  138.3470 C   0  0  0  0  0  2  0  0  0  0  0  0
  184.6700  175.9410  135.0080 C   0  0  0  0  0  3  0  0  0  0  0  0
  182.7160  176.6890  136.0520 C   0  0  0  0  0  3  0  0  0  0  0  0
  183.7230  176.7410  136.9060 C   0  0  0  0  0  0  0  0  0  0  0  0
  183.2270  176.2200  134.7250 C   0  0  0  0  0  3  0  0  0  0  0  0
  184.9390  176.3040  136.2530 C   0  0  1  0  0  3  0  0  0  0  0  0
  187.2540  176.7960  136.9600 C   0  0  0  0  0  0  0  0  0  0  0  0
  186.1760  176.0640  136.9430 N   0  0  0  0  0  0  0  0  0  0  0  0
  187.4180  178.3260  134.9930 O   0  0  0  0  0  0  0  0  0  0  0  0
  187.2150  179.1700  137.1050 O   0  0  0  0  0  1  0  0  0  0  0  0
  187.3220  178.1550  136.3680 C   0  0  0  0  0  0  0  0  0  0  0  0
  189.5280  177.1160  137.5950 O   0  0  0  0  0  1  0  0  0  0  0  0
  188.4570  176.2240  137.6450 C   0  0  2  0  0  3  0  0  0  0  0  0
  188.8540  174.8990  137.0230 C   0  0  0  0  0  1  0  0  0  0  0  0
  1 31  1  6  0  0  0
  1  2  1  0  0  0  0
  1 24  1  0  0  0  0
  2  3  1  0  0  0  0
  3  6  1  0  0  0  0
  4  9  1  0  0  0  0
  4  7  1  0  0  0  0
  5  4  2  0  0  0  0
  6  7  2  0  0  0  0
  8  5  1  0  0  0  0
  8  3  2  0  0  0  0
  9 11  1  0  0  0  0
 10 11  2  0  0  0  0
 11 12  1  0  0  0  0
 13 18  1  1  0  0  0
 14 16  1  0  0  0  0
 15 19  1  0  0  0  0
 16 13  1  0  0  0  0
 17 12  1  6  0  0  0
 17 15  1  0  0  0  0
 17 14  1  0  0  0  0
 19 20  1  1  0  0  0
 19 13  1  0  0  0  0
 20 21  1  0  0  0  0
 21 22  1  0  0  0  0
 23 22  1  0  0  0  0
 25 26  1  0  0  0  0
 25 24  1  0  0  0  0
 27 25  2  0  0  0  0
 28 26  1  0  0  0  0
 29 30  1  0  0  0  0
 30 28  1  0  0  0  0
 32 31  1  0  0  0  0
 33 32  1  0  0  0  0
 34 38  1  0  0  0  0
 35 36  2  0  0  0  0
 36 33  1  0  0  0  0
 37 34  2  0  0  0  0
 37 35  1  0  0  0  0
 38 36  1  0  0  0  0
 38 40  1  1  0  0  0
 39 45  1  0  0  0  0
 40 39  2  0  0  0  0
 41 43  2  0  0  0  0
 43 39  1  0  0  0  0
 43 42  1  0  0  0  0
 44 45  1  0  0  0  0
 45 46  1  6  0  0  0
M  END
>  <MODEL>
4

>  <REMARK>
 VINA RESULT:      -6.9      2.847      8.143
  Name = 
  20 active torsions:
  status: ('A' for Active; 'I' for Inactive)
    1  A    between atoms: C_1  and  N_32
    2  A    between atoms: C_2  and  O_45
    3  A    between atoms: C_7  and  C_18
    4  A    between atoms: C_7  and  O_27
    5  A    between atoms: C_7  and  N_32
    6  A    between atoms: C_8  and  C_16
    7  A    between atoms: CA_10  and  C_28
    8  A    between atoms: CA_10  and  CB_43
    9  A    between atoms: N_11  and  C_35
   10  A    between atoms: C_15  and  C_18
   11  A    between atoms: C_15  and  C_41
   12  A    between atoms: C_16  and  C_17
   13  A    between atoms: C_17  and  C_39
   14  A    between atoms: C_21  and  C_41
   15  A    between atoms: C_22  and  O_27
   16  A    between atoms: C_23  and  C_36
   17  A    between atoms: C_23  and  C_42
   18  A    between atoms: N_25  and  C_29
   19  A    between atoms: C_29  and  C_38
   20  A    between atoms: C_42  and  O_45
                            x       y       z     vdW  Elec       q    Type
                         _______ _______ _______ _____ _____    ______ ____

>  <TORSDO>
F 20

$$$$
=
 OpenBabel10222417193D

 46 48  0  0  1  0  0  0  0  0999 V2000
  189.0800  177.2730  143.4430 C   0  0  1  0  0  3  0  0  0  0  0  0
  189.5320  178.1910  142.4050 N   0  0  0  0  0  2  0  0  0  0  0  0
  189.5410  177.8610  141.0140 C   0  0  0  0  0  0  0  0  0  0  0  0
  189.5880  177.1810  138.2850 C   0  0  0  0  0  0  0  0  0  0  0  0
  190.5030  176.6030  139.1800 C   0  0  0  0  0  3  0  0  0  0  0  0
  188.6290  178.4440  140.1220 C   0  0  0  0  0  3  0  0  0  0  0  0
  188.6550  178.1030  138.7670 C   0  0  0  0  0  3  0  0  0  0  0  0
  190.4780  176.9410  140.5350 C   0  0  0  0  0  3  0  0  0  0  0  0
  189.5780  176.8810  136.9150 O   0  0  0  0  0  0  0  0  0  0  0  0
  187.7850  175.4440  136.5560 O   0  0  0  0  0  0  0  0  0  0  0  0
  188.9780  175.7650  136.3130 C   0  0  0  0  0  0  0  0  0  0  0  0
  189.7850  174.9240  135.3860 C   0  0  0  0  0  2  0  0  0  0  0  0
  193.6730  173.3080  136.2690 C   0  0  1  0  0  3  0  0  0  0  0  0
  191.1560  172.9080  135.9890 C   0  0  0  0  0  2  0  0  0  0  0  0
  192.1760  175.0780  135.5580 O   0  0  0  0  0  0  0  0  0  0  0  0
  192.5750  172.4570  135.6140 C   0  0  0  0  0  2  0  0  0  0  0  0
  191.0400  174.4380  136.0880 C   0  0  1  0  0  3  0  0  0  0  0  0
  194.8250  173.2300  135.4840 O   0  0  0  0  0  1  0  0  0  0  0  0
  193.2120  174.7720  136.4520 C   0  0  2  0  0  3  0  0  0  0  0  0
  194.3440  175.7930  136.3610 C   0  0  0  0  0  2  0  0  0  0  0  0
  194.3360  176.5400  135.0310 C   0  0  0  0  0  2  0  0  0  0  0  0
  195.4840  177.5320  134.9390 C   0  0  0  0  0  2  0  0  0  0  0  0
  196.6320  176.9890  135.5180 O   0  0  0  0  0  1  0  0  0  0  0  0
  189.0060  177.9640  144.6860 O   0  0  0  0  0  0  0  0  0  0  0  0
  189.3520  177.3660  145.8990 C   0  0  0  0  0  0  0  0  0  0  0  0
  190.7320  177.1810  146.2130 N   0  0  0  0  0  2  0  0  0  0  0  0
  188.4600  176.9910  146.7090 O   0  0  0  0  0  0  0  0  0  0  0  0
  191.1650  176.5790  147.4640 C   0  0  0  0  0  2  0  0  0  0  0  0
  193.3200  175.7350  148.2080 N   0  0  0  0  0  1  0  0  0  0  0  0
  192.2850  175.5900  147.1980 C   0  0  0  0  0  2  0  0  0  0  0  0
  187.7090  176.7250  143.0780 C   0  0  0  0  0  2  0  0  0  0  0  0
  186.6150  177.6950  143.4920 C   0  0  0  0  0  2  0  0  0  0  0  0
  185.6970  177.9930  142.3170 C   0  0  0  0  0  2  0  0  0  0  0  0
  182.1470  178.9160  142.8030 C   0  0  0  0  0  3  0  0  0  0  0  0
  184.1660  179.0470  143.9770 C   0  0  0  0  0  3  0  0  0  0  0  0
  184.3800  178.5220  142.7840 C   0  0  0  0  0  0  0  0  0  0  0  0
  182.7170  179.4060  144.0980 C   0  0  0  0  0  2  0  0  0  0  0  0
  183.1350  178.4650  142.0450 C   0  0  0  0  0  0  0  0  0  0  0  0
  183.2080  178.2310  139.5880 C   0  0  0  0  0  0  0  0  0  0  0  0
  182.9800  177.7840  140.7910 N   0  0  0  0  0  0  0  0  0  0  0  0
  183.1030  180.6440  138.9520 O   0  0  0  0  0  0  0  0  0  0  0  0
  185.0980  179.6730  139.4910 O   0  0  0  0  0  1  0  0  0  0  0  0
  183.8580  179.5370  139.3160 C   0  0  0  0  0  0  0  0  0  0  0  0
  181.5050  177.6250  138.0350 O   0  0  0  0  0  1  0  0  0  0  0  0
  182.8100  177.3490  138.4440 C   0  0  2  0  0  3  0  0  0  0  0  0
  182.9400  175.8850  138.8200 C   0  0  0  0  0  1  0  0  0  0  0  0
  1 31  1  6  0  0  0
  1 24  1  0  0  0  0
  2  1  1  0  0  0  0
  3  2  1  0  0  0  0
  4  7  2  0  0  0  0
  4  5  1  0  0  0  0
  5  8  2  0  0  0  0
  6  3  2  0  0  0  0
  7  6  1  0  0  0  0
  8  3  1  0  0  0  0
  9  4  1  0  0  0  0
 11 10  2  0  0  0  0
 11  9  1  0  0  0  0
 12 11  1  0  0  0  0
 13 18  1  6  0  0  0
 13 19  1  0  0  0  0
 14 17  1  0  0  0  0
 15 17  1  0  0  0  0
 15 19  1  0  0  0  0
 16 14  1  0  0  0  0
 16 13  1  0  0  0  0
 17 12  1  6  0  0  0
 19 20  1  6  0  0  0
 21 20  1  0  0  0  0
 22 21  1  0  0  0  0
 22 23  1  0  0  0  0
 24 25  1  0  0  0  0
 25 26  1  0  0  0  0
 25 27  2  0  0  0  0
 26 28  1  0  0  0  0
 30 28  1  0  0  0  0
 30 29  1  0  0  0  0
 31 32  1  0  0  0  0
 33 36  1  0  0  0  0
 33 32  1  0  0  0  0
 34 37  1  0  0  0  0
 35 37  1  0  0  0  0
 36 35  2  0  0  0  0
 38 36  1  0  0  0  0
 38 34  2  0  0  0  0
 39 40  2  0  0  0  0
 40 38  1  0  0  0  0
 41 43  2  0  0  0  0
 43 42  1  0  0  0  0
 43 39  1  0  0  0  0
 44 45  1  0  0  0  0
 45 46  1  1  0  0  0
 45 39  1  0  0  0  0
M  END
>  <MODEL>
5

>  <REMARK>
 VINA RESULT:      -6.7      2.127      3.618
  Name = 
  20 active torsions:
  status: ('A' for Active; 'I' for Inactive)
    1  A    between atoms: C_1  and  N_32
    2  A    between atoms: C_2  and  O_45
    3  A    between atoms: C_7  and  C_18
    4  A    between atoms: C_7  and  O_27
    5  A    between atoms: C_7  and  N_32
    6  A    between atoms: C_8  and  C_16
    7  A    between atoms: CA_10  and  C_28
    8  A    between atoms: CA_10  and  CB_43
    9  A    between atoms: N_11  and  C_35
   10  A    between atoms: C_15  and  C_18
   11  A    between atoms: C_15  and  C_41
   12  A    between atoms: C_16  and  C_17
   13  A    between atoms: C_17  and  C_39
   14  A    between atoms: C_21  and  C_41
   15  A    between atoms: C_22  and  O_27
   16  A    between atoms: C_23  and  C_36
   17  A    between atoms: C_23  and  C_42
   18  A    between atoms: N_25  and  C_29
   19  A    between atoms: C_29  and  C_38
   20  A    between atoms: C_42  and  O_45
                            x       y       z     vdW  Elec       q    Type
                         _______ _______ _______ _____ _____    ______ ____

>  <TORSDO>
F 20

$$$$
=
 OpenBabel10222417193D

 46 48  0  0  1  0  0  0  0  0999 V2000
  190.6320  177.4100  141.7620 C   0  0  1  0  0  3  0  0  0  0  0  0
  189.4690  176.7150  142.2970 N   0  0  0  0  0  2  0  0  0  0  0  0
  188.2070  177.3510  142.5160 C   0  0  0  0  0  0  0  0  0  0  0  0
  185.7210  178.5820  142.9840 C   0  0  0  0  0  0  0  0  0  0  0  0
  186.2270  177.6300  143.8850 C   0  0  0  0  0  3  0  0  0  0  0  0
  187.7030  178.2980  141.6110 C   0  0  0  0  0  3  0  0  0  0  0  0
  186.4680  178.9070  141.8480 C   0  0  0  0  0  3  0  0  0  0  0  0
  187.4610  177.0200  143.6510 C   0  0  0  0  0  3  0  0  0  0  0  0
  184.4840  179.2160  143.1690 O   0  0  0  0  0  0  0  0  0  0  0  0
  184.2990  179.1260  145.4860 O   0  0  0  0  0  0  0  0  0  0  0  0
  183.7490  179.2710  144.3620 C   0  0  0  0  0  0  0  0  0  0  0  0
  182.2750  179.4770  144.2940 C   0  0  0  0  0  2  0  0  0  0  0  0
  180.0370  178.0080  140.9260 C   0  0  1  0  0  3  0  0  0  0  0  0
  180.1830  178.3640  143.4610 C   0  0  0  0  0  2  0  0  0  0  0  0
  181.9010  179.1830  141.9400 O   0  0  0  0  0  0  0  0  0  0  0  0
  179.3410  178.5360  142.1890 C   0  0  0  0  0  2  0  0  0  0  0  0
  181.6800  178.6050  143.2030 C   0  0  1  0  0  3  0  0  0  0  0  0
  179.5170  178.6790  139.8180 O   0  0  0  0  0  1  0  0  0  0  0  0
  181.5710  178.1760  141.0200 C   0  0  2  0  0  3  0  0  0  0  0  0
  182.2520  178.4090  139.6740 C   0  0  0  0  0  2  0  0  0  0  0  0
  183.7010  177.9330  139.6730 C   0  0  0  0  0  2  0  0  0  0  0  0
  184.5820  178.8200  138.8100 C   0  0  0  0  0  2  0  0  0  0  0  0
  184.4350  180.1540  139.1900 O   0  0  0  0  0  1  0  0  0  0  0  0
  191.7360  177.2310  142.6430 O   0  0  0  0  0  0  0  0  0  0  0  0
  191.6910  177.5980  143.9890 C   0  0  0  0  0  0  0  0  0  0  0  0
  191.5200  176.5840  144.9790 N   0  0  0  0  0  2  0  0  0  0  0  0
  191.7950  178.8090  144.3290 O   0  0  0  0  0  0  0  0  0  0  0  0
  191.4770  176.8930  146.4000 C   0  0  0  0  0  2  0  0  0  0  0  0
  189.2600  177.8570  146.6510 N   0  0  0  0  0  1  0  0  0  0  0  0
  190.0710  176.6840  146.9300 C   0  0  0  0  0  2  0  0  0  0  0  0
  190.9750  176.8510  140.3900 C   0  0  0  0  0  2  0  0  0  0  0  0
  190.1410  177.5230  139.3120 C   0  0  0  0  0  2  0  0  0  0  0  0
  189.1790  176.5250  138.6860 C   0  0  0  0  0  2  0  0  0  0  0  0
  186.6710  177.4520  136.1290 C   0  0  0  0  0  3  0  0  0  0  0  0
  188.5180  178.4110  137.1960 C   0  0  0  0  0  3  0  0  0  0  0  0
  188.3610  177.1660  137.6120 C   0  0  0  0  0  0  0  0  0  0  0  0
  187.4810  178.7110  136.1580 C   0  0  0  0  0  3  0  0  0  0  0  0
  187.2340  176.5620  136.9320 C   0  0  1  0  0  3  0  0  0  0  0  0
  187.1190  174.0960  136.9820 C   0  0  0  0  0  0  0  0  0  0  0  0
  186.6790  175.2850  137.2830 N   0  0  0  0  0  0  0  0  0  0  0  0
  188.6060  174.1120  134.9760 O   0  0  0  0  0  0  0  0  0  0  0  0
  189.4180  173.4880  137.0170 O   0  0  0  0  0  1  0  0  0  0  0  0
  188.4290  173.8550  136.3290 C   0  0  0  0  0  0  0  0  0  0  0  0
  186.1960  172.0030  136.3130 O   0  0  0  0  0  1  0  0  0  0  0  0
  186.2490  172.9330  137.3510 C   0  0  2  0  0  3  0  0  0  0  0  0
  184.8500  173.3950  137.7090 C   0  0  0  0  0  1  0  0  0  0  0  0
  1 31  1  6  0  0  0
  1  2  1  0  0  0  0
  1 24  1  0  0  0  0
  2  3  1  0  0  0  0
  3  8  1  0  0  0  0
  4  9  1  0  0  0  0
  4  5  1  0  0  0  0
  6  7  1  0  0  0  0
  6  3  2  0  0  0  0
  7  4  2  0  0  0  0
  8  5  2  0  0  0  0
  9 11  1  0  0  0  0
 11 10  2  0  0  0  0
 12 11  1  0  0  0  0
 13 18  1  6  0  0  0
 13 19  1  0  0  0  0
 13 16  1  0  0  0  0
 15 17  1  0  0  0  0
 16 14  1  0  0  0  0
 17 14  1  0  0  0  0
 17 12  1  1  0  0  0
 19 20  1  6  0  0  0
 19 15  1  0  0  0  0
 21 20  1  0  0  0  0
 22 23  1  0  0  0  0
 22 21  1  0  0  0  0
 24 25  1  0  0  0  0
 25 27  2  0  0  0  0
 25 26  1  0  0  0  0
 26 28  1  0  0  0  0
 28 30  1  0  0  0  0
 29 30  1  0  0  0  0
 32 31  1  0  0  0  0
 33 32  1  0  0  0  0
 34 37  2  0  0  0  0
 34 38  1  0  0  0  0
 35 36  2  0  0  0  0
 36 33  1  0  0  0  0
 37 35  1  0  0  0  0
 38 40  1  1  0  0  0
 38 36  1  0  0  0  0
 39 40  2  0  0  0  0
 39 45  1  0  0  0  0
 41 43  2  0  0  0  0
 43 39  1  0  0  0  0
 43 42  1  0  0  0  0
 44 45  1  0  0  0  0
 45 46  1  6  0  0  0
M  END
>  <MODEL>
6

>  <REMARK>
 VINA RESULT:      -6.7      2.136      7.042
  Name = 
  20 active torsions:
  status: ('A' for Active; 'I' for Inactive)
    1  A    between atoms: C_1  and  N_32
    2  A    between atoms: C_2  and  O_45
    3  A    between atoms: C_7  and  C_18
    4  A    between atoms: C_7  and  O_27
    5  A    between atoms: C_7  and  N_32
    6  A    between atoms: C_8  and  C_16
    7  A    between atoms: CA_10  and  C_28
    8  A    between atoms: CA_10  and  CB_43
    9  A    between atoms: N_11  and  C_35
   10  A    between atoms: C_15  and  C_18
   11  A    between atoms: C_15  and  C_41
   12  A    between atoms: C_16  and  C_17
   13  A    between atoms: C_17  and  C_39
   14  A    between atoms: C_21  and  C_41
   15  A    between atoms: C_22  and  O_27
   16  A    between atoms: C_23  and  C_36
   17  A    between atoms: C_23  and  C_42
   18  A    between atoms: N_25  and  C_29
   19  A    between atoms: C_29  and  C_38
   20  A    between atoms: C_42  and  O_45
                            x       y       z     vdW  Elec       q    Type
                         _______ _______ _______ _____ _____    ______ ____

>  <TORSDO>
F 20

$$$$
=
 OpenBabel10222417193D

 46 48  0  0  1  0  0  0  0  0999 V2000
  187.8320  177.7240  143.8610 C   0  0  1  0  0  3  0  0  0  0  0  0
  186.6050  177.5130  144.6190 N   0  0  0  0  0  2  0  0  0  0  0  0
  185.3470  178.0840  144.2500 C   0  0  0  0  0  0  0  0  0  0  0  0
  182.8780  179.1930  143.4820 C   0  0  0  0  0  0  0  0  0  0  0  0
  183.7470  178.6520  142.5210 C   0  0  0  0  0  3  0  0  0  0  0  0
  184.4840  178.6280  145.2130 C   0  0  0  0  0  3  0  0  0  0  0  0
  183.2580  179.1780  144.8280 C   0  0  0  0  0  3  0  0  0  0  0  0
  184.9730  178.1010  142.9030 C   0  0  0  0  0  3  0  0  0  0  0  0
  181.6430  179.7650  143.1490 O   0  0  0  0  0  0  0  0  0  0  0  0
  180.6850  180.0920  141.0540 O   0  0  0  0  0  0  0  0  0  0  0  0
  180.8100  179.3820  142.0870 C   0  0  0  0  0  0  0  0  0  0  0  0
  180.0320  178.1160  142.1990 C   0  0  0  0  0  2  0  0  0  0  0  0
  180.6570  176.7220  138.1780 C   0  0  1  0  0  3  0  0  0  0  0  0
  179.0140  177.2390  140.0780 C   0  0  0  0  0  2  0  0  0  0  0  0
  181.3980  177.7040  140.2680 O   0  0  0  0  0  0  0  0  0  0  0  0
  179.3590  177.4300  138.5940 C   0  0  0  0  0  2  0  0  0  0  0  0
  180.2660  177.2550  140.9720 C   0  0  1  0  0  3  0  0  0  0  0  0
  181.1820  177.3740  137.0610 O   0  0  0  0  0  1  0  0  0  0  0  0
  181.6740  176.6870  139.3420 C   0  0  2  0  0  3  0  0  0  0  0  0
  183.1320  176.7260  138.8910 C   0  0  0  0  0  2  0  0  0  0  0  0
  183.5320  178.1010  138.3630 C   0  0  0  0  0  2  0  0  0  0  0  0
  184.7460  178.6500  139.0950 C   0  0  0  0  0  2  0  0  0  0  0  0
  184.5620  180.0040  139.3740 O   0  0  0  0  0  1  0  0  0  0  0  0
  188.8350  178.2510  144.7220 O   0  0  0  0  0  0  0  0  0  0  0  0
  189.1340  177.6840  145.9630 C   0  0  0  0  0  0  0  0  0  0  0  0
  190.2850  176.8490  146.0860 N   0  0  0  0  0  2  0  0  0  0  0  0
  188.3960  177.9010  146.9640 O   0  0  0  0  0  0  0  0  0  0  0  0
  190.6630  176.2370  147.3500 C   0  0  0  0  0  2  0  0  0  0  0  0
  192.8160  175.9940  148.4540 N   0  0  0  0  0  1  0  0  0  0  0  0
  192.0690  175.6750  147.2490 C   0  0  0  0  0  2  0  0  0  0  0  0
  188.3030  176.4030  143.2730 C   0  0  0  0  0  2  0  0  0  0  0  0
  189.6020  176.5890  142.5060 C   0  0  0  0  0  2  0  0  0  0  0  0
  189.3340  177.2350  141.1560 C   0  0  0  0  0  2  0  0  0  0  0  0
  191.5900  176.4830  138.3210 C   0  0  0  0  0  3  0  0  0  0  0  0
  191.7080  177.4780  140.4340 C   0  0  0  0  0  3  0  0  0  0  0  0
  190.4830  177.0280  140.2230 C   0  0  0  0  0  0  0  0  0  0  0  0
  192.5640  177.1290  139.2570 C   0  0  0  0  0  2  0  0  0  0  0  0
  190.4160  176.3880  138.9260 C   0  0  0  0  0  0  0  0  0  0  0  0
  188.3090  176.6670  137.6670 C   0  0  0  0  0  0  0  0  0  0  0  0
  189.1920  175.9560  138.3100 N   0  0  0  0  0  0  0  0  0  0  0  0
  189.2400  178.4360  136.1690 O   0  0  0  0  0  0  0  0  0  0  0  0
  187.9780  179.0010  137.9870 O   0  0  0  0  0  1  0  0  0  0  0  0
  188.5200  178.0900  137.3060 C   0  0  0  0  0  0  0  0  0  0  0  0
  187.2580  174.6110  137.0790 O   0  0  0  0  0  1  0  0  0  0  0  0
  187.0430  175.9780  137.2610 C   0  0  2  0  0  3  0  0  0  0  0  0
  186.4760  176.5890  135.9930 C   0  0  0  0  0  1  0  0  0  0  0  0
  1 31  1  1  0  0  0
  1  2  1  0  0  0  0
  1 24  1  0  0  0  0
  3  2  1  0  0  0  0
  3  6  1  0  0  0  0
  4  7  1  0  0  0  0
  5  8  1  0  0  0  0
  5  4  2  0  0  0  0
  7  6  2  0  0  0  0
  8  3  2  0  0  0  0
  9  4  1  0  0  0  0
 10 11  2  0  0  0  0
 11 12  1  0  0  0  0
 11  9  1  0  0  0  0
 13 18  1  6  0  0  0
 13 16  1  0  0  0  0
 13 19  1  0  0  0  0
 14 17  1  0  0  0  0
 15 17  1  0  0  0  0
 16 14  1  0  0  0  0
 17 12  1  1  0  0  0
 19 20  1  6  0  0  0
 19 15  1  0  0  0  0
 21 20  1  0  0  0  0
 21 22  1  0  0  0  0
 22 23  1  0  0  0  0
 24 25  1  0  0  0  0
 25 26  1  0  0  0  0
 25 27  2  0  0  0  0
 26 28  1  0  0  0  0
 30 28  1  0  0  0  0
 30 29  1  0  0  0  0
 32 31  1  0  0  0  0
 33 32  1  0  0  0  0
 34 38  2  0  0  0  0
 34 37  1  0  0  0  0
 36 35  2  0  0  0  0
 36 33  1  0  0  0  0
 37 35  1  0  0  0  0
 38 36  1  0  0  0  0
 39 40  2  0  0  0  0
 40 38  1  0  0  0  0
 41 43  2  0  0  0  0
 43 39  1  0  0  0  0
 43 42  1  0  0  0  0
 44 45  1  0  0  0  0
 45 46  1  6  0  0  0
 45 39  1  0  0  0  0
M  END
>  <MODEL>
7

>  <REMARK>
 VINA RESULT:      -6.5      1.933      6.947
  Name = 
  20 active torsions:
  status: ('A' for Active; 'I' for Inactive)
    1  A    between atoms: C_1  and  N_32
    2  A    between atoms: C_2  and  O_45
    3  A    between atoms: C_7  and  C_18
    4  A    between atoms: C_7  and  O_27
    5  A    between atoms: C_7  and  N_32
    6  A    between atoms: C_8  and  C_16
    7  A    between atoms: CA_10  and  C_28
    8  A    between atoms: CA_10  and  CB_43
    9  A    between atoms: N_11  and  C_35
   10  A    between atoms: C_15  and  C_18
   11  A    between atoms: C_15  and  C_41
   12  A    between atoms: C_16  and  C_17
   13  A    between atoms: C_17  and  C_39
   14  A    between atoms: C_21  and  C_41
   15  A    between atoms: C_22  and  O_27
   16  A    between atoms: C_23  and  C_36
   17  A    between atoms: C_23  and  C_42
   18  A    between atoms: N_25  and  C_29
   19  A    between atoms: C_29  and  C_38
   20  A    between atoms: C_42  and  O_45
                            x       y       z     vdW  Elec       q    Type
                         _______ _______ _______ _____ _____    ______ ____

>  <TORSDO>
F 20

$$$$
=
 OpenBabel10222417193D

 46 48  0  0  1  0  0  0  0  0999 V2000
  188.5510  178.0860  143.7700 C   0  0  1  0  0  3  0  0  0  0  0  0
  187.3300  177.4270  144.2160 N   0  0  0  0  0  2  0  0  0  0  0  0
  186.0270  177.9890  144.0420 C   0  0  0  0  0  0  0  0  0  0  0  0
  183.4610  179.1050  143.7440 C   0  0  0  0  0  0  0  0  0  0  0  0
  184.0530  179.0070  145.0140 C   0  0  0  0  0  3  0  0  0  0  0  0
  185.4370  178.0810  142.7730 C   0  0  0  0  0  3  0  0  0  0  0  0
  184.1620  178.6360  142.6290 C   0  0  0  0  0  3  0  0  0  0  0  0
  185.3270  178.4530  145.1610 C   0  0  0  0  0  3  0  0  0  0  0  0
  182.1820  179.6440  143.5450 O   0  0  0  0  0  0  0  0  0  0  0  0
  180.5610  178.1760  144.3390 O   0  0  0  0  0  0  0  0  0  0  0  0
  180.9870  178.9210  143.4170 C   0  0  0  0  0  0  0  0  0  0  0  0
  180.2190  179.0160  142.1440 C   0  0  0  0  0  2  0  0  0  0  0  0
  180.7590  176.5040  138.6940 C   0  0  1  0  0  3  0  0  0  0  0  0
  179.6850  176.8470  140.9970 C   0  0  0  0  0  2  0  0  0  0  0  0
  181.0240  178.5770  139.9250 O   0  0  0  0  0  0  0  0  0  0  0  0
  179.4680  176.4660  139.5260 C   0  0  0  0  0  2  0  0  0  0  0  0
  180.7180  177.9750  141.1590 C   0  0  1  0  0  3  0  0  0  0  0  0
  180.4210  176.7120  137.3550 O   0  0  0  0  0  1  0  0  0  0  0  0
  181.7260  177.5950  139.2090 C   0  0  2  0  0  3  0  0  0  0  0  0
  182.5950  178.2170  138.1190 C   0  0  0  0  0  2  0  0  0  0  0  0
  184.0660  177.8480  138.2780 C   0  0  0  0  0  2  0  0  0  0  0  0
  184.9020  179.0450  138.7010 C   0  0  0  0  0  2  0  0  0  0  0  0
  185.9640  178.6270  139.5020 O   0  0  0  0  0  1  0  0  0  0  0  0
  189.3650  178.3880  144.8980 O   0  0  0  0  0  0  0  0  0  0  0  0
  190.5620  177.7190  145.1620 C   0  0  0  0  0  0  0  0  0  0  0  0
  190.5260  176.5000  145.9050 N   0  0  0  0  0  2  0  0  0  0  0  0
  191.6610  178.1830  144.7530 O   0  0  0  0  0  0  0  0  0  0  0  0
  191.7310  175.7440  146.2050 C   0  0  0  0  0  2  0  0  0  0  0  0
  193.3900  175.7340  147.9820 N   0  0  0  0  0  1  0  0  0  0  0  0
  191.9640  175.7190  147.7040 C   0  0  0  0  0  2  0  0  0  0  0  0
  189.3090  177.1710  142.8210 C   0  0  0  0  0  2  0  0  0  0  0  0
  188.9360  177.4650  141.3770 C   0  0  0  0  0  2  0  0  0  0  0  0
  190.0630  177.0510  140.4430 C   0  0  0  0  0  2  0  0  0  0  0  0
  189.8080  177.5890  136.7920 C   0  0  0  0  0  3  0  0  0  0  0  0
  189.0890  178.6160  138.7660 C   0  0  0  0  0  3  0  0  0  0  0  0
  189.8290  177.5610  139.0590 C   0  0  0  0  0  0  0  0  0  0  0  0
  189.0410  178.7790  137.2780 C   0  0  0  0  0  3  0  0  0  0  0  0
  190.2970  176.9400  137.8370 C   0  0  1  0  0  3  0  0  0  0  0  0
  192.2490  175.4270  137.7990 C   0  0  0  0  0  0  0  0  0  0  0  0
  190.9690  175.6710  137.7920 N   0  0  0  0  0  0  0  0  0  0  0  0
  193.9120  177.0950  136.9670 O   0  0  0  0  0  0  0  0  0  0  0  0
  193.5200  176.8650  139.2050 O   0  0  0  0  0  1  0  0  0  0  0  0
  193.2740  176.4740  138.0330 C   0  0  0  0  0  0  0  0  0  0  0  0
  194.0660  173.9020  137.5680 O   0  0  0  0  0  1  0  0  0  0  0  0
  192.6740  174.0060  137.5860 C   0  0  2  0  0  3  0  0  0  0  0  0
  192.0940  173.4550  136.2980 C   0  0  0  0  0  1  0  0  0  0  0  0
  1 31  1  6  0  0  0
  1  2  1  0  0  0  0
  1 24  1  0  0  0  0
  3  2  1  0  0  0  0
  3  8  1  0  0  0  0
  4  5  1  0  0  0  0
  5  8  2  0  0  0  0
  6  3  2  0  0  0  0
  7  6  1  0  0  0  0
  7  4  2  0  0  0  0
  9  4  1  0  0  0  0
 11  9  1  0  0  0  0
 11 10  2  0  0  0  0
 12 11  1  0  0  0  0
 13 18  1  6  0  0  0
 13 19  1  0  0  0  0
 13 16  1  0  0  0  0
 14 17  1  0  0  0  0
 15 17  1  0  0  0  0
 16 14  1  0  0  0  0
 17 12  1  1  0  0  0
 19 20  1  6  0  0  0
 19 15  1  0  0  0  0
 20 21  1  0  0  0  0
 21 22  1  0  0  0  0
 22 23  1  0  0  0  0
 24 25  1  0  0  0  0
 25 26  1  0  0  0  0
 26 28  1  0  0  0  0
 27 25  2  0  0  0  0
 28 30  1  0  0  0  0
 30 29  1  0  0  0  0
 32 31  1  0  0  0  0
 33 32  1  0  0  0  0
 34 37  2  0  0  0  0
 34 38  1  0  0  0  0
 35 36  2  0  0  0  0
 36 33  1  0  0  0  0
 37 35  1  0  0  0  0
 38 40  1  6  0  0  0
 38 36  1  0  0  0  0
 39 43  1  0  0  0  0
 40 39  2  0  0  0  0
 41 43  2  0  0  0  0
 43 42  1  0  0  0  0
 44 45  1  0  0  0  0
 45 46  1  6  0  0  0
 45 39  1  0  0  0  0
M  END
>  <MODEL>
8

>  <REMARK>
 VINA RESULT:      -6.5      2.381      7.741
  Name = 
  20 active torsions:
  status: ('A' for Active; 'I' for Inactive)
    1  A    between atoms: C_1  and  N_32
    2  A    between atoms: C_2  and  O_45
    3  A    between atoms: C_7  and  C_18
    4  A    between atoms: C_7  and  O_27
    5  A    between atoms: C_7  and  N_32
    6  A    between atoms: C_8  and  C_16
    7  A    between atoms: CA_10  and  C_28
    8  A    between atoms: CA_10  and  CB_43
    9  A    between atoms: N_11  and  C_35
   10  A    between atoms: C_15  and  C_18
   11  A    between atoms: C_15  and  C_41
   12  A    between atoms: C_16  and  C_17
   13  A    between atoms: C_17  and  C_39
   14  A    between atoms: C_21  and  C_41
   15  A    between atoms: C_22  and  O_27
   16  A    between atoms: C_23  and  C_36
   17  A    between atoms: C_23  and  C_42
   18  A    between atoms: N_25  and  C_29
   19  A    between atoms: C_29  and  C_38
   20  A    between atoms: C_42  and  O_45
                            x       y       z     vdW  Elec       q    Type
                         _______ _______ _______ _____ _____    ______ ____

>  <TORSDO>
F 20

$$$$
=
 OpenBabel10222417193D

 46 48  0  0  1  0  0  0  0  0999 V2000
  184.1560  178.0880  139.2040 C   0  0  1  0  0  3  0  0  0  0  0  0
  185.3280  178.9550  139.1840 N   0  0  0  0  0  2  0  0  0  0  0  0
  186.5710  178.6080  139.7990 C   0  0  0  0  0  0  0  0  0  0  0  0
  189.0360  177.9210  140.9690 C   0  0  0  0  0  0  0  0  0  0  0  0
  188.8720  177.8800  139.5750 C   0  0  0  0  0  3  0  0  0  0  0  0
  186.7290  178.6470  141.1920 C   0  0  0  0  0  3  0  0  0  0  0  0
  187.9560  178.3050  141.7700 C   0  0  0  0  0  3  0  0  0  0  0  0
  187.6470  178.2210  138.9950 C   0  0  0  0  0  3  0  0  0  0  0  0
  190.2400  177.5800  141.6000 O   0  0  0  0  0  0  0  0  0  0  0  0
  190.2310  175.6160  142.8470 O   0  0  0  0  0  0  0  0  0  0  0  0
  190.3760  176.8660  142.8000 C   0  0  0  0  0  0  0  0  0  0  0  0
  190.6710  177.6130  144.0550 C   0  0  0  0  0  2  0  0  0  0  0  0
  188.4830  177.1960  147.7350 C   0  0  1  0  0  3  0  0  0  0  0  0
  190.6350  176.7510  146.4130 C   0  0  0  0  0  2  0  0  0  0  0  0
  188.7950  178.0530  145.4880 O   0  0  0  0  0  0  0  0  0  0  0  0
  190.0160  177.2840  147.7140 C   0  0  0  0  0  2  0  0  0  0  0  0
  189.7880  177.1040  145.1800 C   0  0  1  0  0  3  0  0  0  0  0  0
  187.9930  178.1620  148.6160 O   0  0  0  0  0  1  0  0  0  0  0  0
  187.8920  177.3710  146.3180 C   0  0  2  0  0  3  0  0  0  0  0  0
  186.5150  178.0310  146.2990 C   0  0  0  0  0  2  0  0  0  0  0  0
  186.0080  178.2610  144.8780 C   0  0  0  0  0  2  0  0  0  0  0  0
  184.5190  178.5630  144.8570 C   0  0  0  0  0  2  0  0  0  0  0  0
  184.1030  179.0070  146.1120 O   0  0  0  0  0  1  0  0  0  0  0  0
  182.9790  178.8870  139.2700 O   0  0  0  0  0  0  0  0  0  0  0  0
  182.2290  179.0250  140.4400 C   0  0  0  0  0  0  0  0  0  0  0  0
  180.9040  179.5470  140.3570 N   0  0  0  0  0  2  0  0  0  0  0  0
  182.7150  178.6960  141.5580 O   0  0  0  0  0  0  0  0  0  0  0  0
  180.0610  179.7050  141.5320 C   0  0  0  0  0  2  0  0  0  0  0  0
  179.6380  177.9640  143.1760 N   0  0  0  0  0  1  0  0  0  0  0  0
  179.3360  178.4050  141.8240 C   0  0  0  0  0  2  0  0  0  0  0  0
  184.1280  177.2370  137.9450 C   0  0  0  0  0  2  0  0  0  0  0  0
  183.1340  176.0970  138.0890 C   0  0  0  0  0  2  0  0  0  0  0  0
  182.1420  176.1080  136.9360 C   0  0  0  0  0  2  0  0  0  0  0  0
  182.6710  172.8620  135.2440 C   0  0  0  0  0  3  0  0  0  0  0  0
  180.9840  173.9580  136.4360 C   0  0  0  0  0  3  0  0  0  0  0  0
  182.0300  174.7570  136.3090 C   0  0  0  0  0  0  0  0  0  0  0  0
  181.2640  172.6740  135.7190 C   0  0  0  0  0  2  0  0  0  0  0  0
  183.0640  174.0890  135.5470 C   0  0  0  0  0  0  0  0  0  0  0  0
  185.4970  174.2040  135.9550 C   0  0  0  0  0  0  0  0  0  0  0  0
  184.3950  174.6030  135.3850 N   0  0  0  0  0  0  0  0  0  0  0  0
  185.3180  173.0250  138.1500 O   0  0  0  0  0  1  0  0  0  0  0  0
  185.8240  171.8660  136.2490 O   0  0  0  0  0  0  0  0  0  0  0  0
  185.5840  172.9790  136.7870 C   0  0  0  0  0  0  0  0  0  0  0  0
  187.4270  175.2300  136.9060 O   0  0  0  0  0  1  0  0  0  0  0  0
  186.7260  175.0280  135.7170 C   0  0  2  0  0  3  0  0  0  0  0  0
  186.3710  176.3610  135.0880 C   0  0  0  0  0  1  0  0  0  0  0  0
  1 31  1  6  0  0  0
  1 24  1  0  0  0  0
  2  1  1  0  0  0  0
  2  3  1  0  0  0  0
  3  6  1  0  0  0  0
  4  9  1  0  0  0  0
  4  7  1  0  0  0  0
  5  4  2  0  0  0  0
  6  7  2  0  0  0  0
  8  5  1  0  0  0  0
  8  3  2  0  0  0  0
  9 11  1  0  0  0  0
 11 10  2  0  0  0  0
 11 12  1  0  0  0  0
 13 18  1  1  0  0  0
 14 16  1  0  0  0  0
 15 19  1  0  0  0  0
 16 13  1  0  0  0  0
 17 12  1  6  0  0  0
 17 15  1  0  0  0  0
 17 14  1  0  0  0  0
 19 20  1  1  0  0  0
 19 13  1  0  0  0  0
 21 20  1  0  0  0  0
 22 21  1  0  0  0  0
 22 23  1  0  0  0  0
 24 25  1  0  0  0  0
 25 27  2  0  0  0  0
 26 25  1  0  0  0  0
 26 28  1  0  0  0  0
 28 30  1  0  0  0  0
 30 29  1  0  0  0  0
 31 32  1  0  0  0  0
 33 32  1  0  0  0  0
 34 38  2  0  0  0  0
 34 37  1  0  0  0  0
 36 35  2  0  0  0  0
 36 33  1  0  0  0  0
 37 35  1  0  0  0  0
 38 36  1  0  0  0  0
 39 43  1  0  0  0  0
 40 38  1  0  0  0  0
 40 39  2  0  0  0  0
 42 43  2  0  0  0  0
 43 41  1  0  0  0  0
 45 46  1  1  0  0  0
 45 39  1  0  0  0  0
 45 44  1  0  0  0  0
M  END
>  <MODEL>
9

>  <REMARK>
 VINA RESULT:      -6.4      3.155      8.292
  Name = 
  20 active torsions:
  status: ('A' for Active; 'I' for Inactive)
    1  A    between atoms: C_1  and  N_32
    2  A    between atoms: C_2  and  O_45
    3  A    between atoms: C_7  and  C_18
    4  A    between atoms: C_7  and  O_27
    5  A    between atoms: C_7  and  N_32
    6  A    between atoms: C_8  and  C_16
    7  A    between atoms: CA_10  and  C_28
    8  A    between atoms: CA_10  and  CB_43
    9  A    between atoms: N_11  and  C_35
   10  A    between atoms: C_15  and  C_18
   11  A    between atoms: C_15  and  C_41
   12  A    between atoms: C_16  and  C_17
   13  A    between atoms: C_17  and  C_39
   14  A    between atoms: C_21  and  C_41
   15  A    between atoms: C_22  and  O_27
   16  A    between atoms: C_23  and  C_36
   17  A    between atoms: C_23  and  C_42
   18  A    between atoms: N_25  and  C_29
   19  A    between atoms: C_29  and  C_38
   20  A    between atoms: C_42  and  O_45
                            x       y       z     vdW  Elec       q    Type
                         _______ _______ _______ _____ _____    ______ ____

>  <TORSDO>
F 20

$$$$
