=
 OpenBabel10222420283D

 31 36  0  0  1  0  0  0  0  0999 V2000
  183.7550  178.9980  145.5210 C   0  0  0  0  0  3  0  0  0  0  0  0
  186.6740  178.1030  145.1110 C   0  0  0  0  0  0  0  0  0  0  0  0
  189.6640  177.0250  142.4300 C   0  0  0  0  0  0  0  0  0  0  0  0
  183.9200  179.0090  144.1940 C   0  0  0  0  0  3  0  0  0  0  0  0
  184.5570  178.2430  146.5350 C   0  0  0  0  0  2  0  0  0  0  0  0
  190.6870  176.8810  143.2740 C   0  0  0  0  0  3  0  0  0  0  0  0
  187.1720  177.6730  142.7880 C   0  0  0  0  0  3  0  0  0  0  0  0
  186.0280  178.2520  146.3110 C   0  0  0  0  0  0  0  0  0  0  0  0
  187.9790  177.8680  145.4650 C   0  0  0  0  0  0  0  0  0  0  0  0
  186.9290  178.1540  147.2740 O   0  0  0  0  0  0  0  0  0  0  0  0
  188.9120  177.5300  144.4970 C   0  0  0  0  0  0  0  0  0  0  0  0
  188.5050  177.4440  143.1850 C   0  0  0  0  0  0  0  0  0  0  0  0
  185.0000  178.4070  143.3810 C   0  0  0  0  0  3  0  0  0  0  0  0
  190.1920  177.2020  144.6320 C   0  0  0  0  0  3  0  0  0  0  0  0
  188.1280  177.9240  146.8010 N   0  0  0  0  0  0  0  0  0  0  0  0
  186.2250  178.0390  143.7760 C   0  0  0  0  0  0  0  0  0  0  0  0
  189.9680  177.6710  138.8090 C   0  0  0  0  0  2  0  0  0  0  0  0
  189.7310  176.8780  141.0080 N   0  0  0  0  0  0  0  0  0  0  0  0
  189.3700  177.9000  140.1100 C   0  0  0  0  0  0  0  0  0  0  0  0
  190.6730  176.3350  139.0760 C   0  0  2  0  0  3  0  0  0  0  0  0
  188.6570  178.8920  140.4140 O   0  0  0  0  0  0  0  0  0  0  0  0
  190.5180  175.9300  140.4360 O   0  0  0  0  0  0  0  0  0  0  0  0
  192.6320  175.6210  137.6090 N   0  0  0  0  0  0  0  0  0  0  0  0
  192.8940  177.1800  139.3320 O   0  0  0  0  0  0  0  0  0  0  0  0
  192.2760  173.9270  134.5940 O   0  0  0  0  0  0  0  0  0  0  0  0
  191.3730  173.6110  137.3970 N   0  0  0  0  0  1  0  0  0  0  0  0
  191.7720  174.8410  136.7320 C   0  0  2  0  0  3  0  0  0  0  0  0
  194.0310  175.0610  135.7470 C   0  0  0  0  0  3  0  0  0  0  0  0
  193.9840  175.7890  137.0870 C   0  0  0  0  0  3  0  0  0  0  0  0
  192.6540  174.5260  135.5880 C   0  0  0  0  0  0  0  0  0  0  0  0
  192.1250  176.4030  138.7030 C   0  0  0  0  0  0  0  0  0  0  0  0
  1  5  1  0  0  0  0
  2  9  1  0  0  0  0
  2  8  2  0  0  0  0
  3 12  1  0  0  0  0
  3  6  2  0  0  0  0
  4  1  2  0  0  0  0
  6 14  1  0  0  0  0
  7 12  2  0  0  0  0
  7 16  1  0  0  0  0
  8  5  1  0  0  0  0
  8 10  1  0  0  0  0
  9 15  2  0  0  0  0
 11 14  2  0  0  0  0
 11  9  1  0  0  0  0
 12 11  1  0  0  0  0
 13 16  2  0  0  0  0
 13  4  1  0  0  0  0
 15 10  1  0  0  0  0
 16  2  1  0  0  0  0
 17 20  1  0  0  0  0
 17 19  1  0  0  0  0
 18  3  1  0  0  0  0
 19 21  2  0  0  0  0
 19 18  1  0  0  0  0
 20 31  1  1  0  0  0
 20 22  1  0  0  0  0
 22 18  1  0  0  0  0
 23 31  1  0  0  0  0
 25 30  2  0  0  0  0
 27 26  1  1  0  0  0
 27 23  1  0  0  0  0
 28 29  2  0  0  0  0
 29 23  1  0  0  0  0
 30 28  1  0  0  0  0
 30 27  1  0  0  0  0
 31 24  2  0  0  0  0
M  END
>  <MODEL>
1

>  <REMARK>
 VINA RESULT:     -10.4      0.000      0.000
  Name = 
  2 active torsions:
  status: ('A' for Active; 'I' for Inactive)
    1  A    between atoms: C_6  and  N_9
    2  A    between atoms: C_26  and  C_29
                            x       y       z     vdW  Elec       q    Type
                         _______ _______ _______ _____ _____    ______ ____

>  <TORSDO>
F 2

$$$$
=
 OpenBabel10222420283D

 31 36  0  0  1  0  0  0  0  0999 V2000
  183.0630  179.0250  143.3420 C   0  0  0  0  0  3  0  0  0  0  0  0
  185.5690  178.4520  145.0410 C   0  0  0  0  0  0  0  0  0  0  0  0
  189.6430  177.6230  145.1050 C   0  0  0  0  0  0  0  0  0  0  0  0
  184.0650  179.0070  142.4570 C   0  0  0  0  0  3  0  0  0  0  0  0
  183.0370  178.4020  144.7040 C   0  0  0  0  0  2  0  0  0  0  0  0
  189.8560  177.6260  146.4220 C   0  0  0  0  0  3  0  0  0  0  0  0
  187.5060  177.9980  143.6740 C   0  0  0  0  0  3  0  0  0  0  0  0
  184.2830  178.5690  145.5000 C   0  0  0  0  0  0  0  0  0  0  0  0
  186.3230  178.3780  146.1860 C   0  0  0  0  0  0  0  0  0  0  0  0
  184.3230  178.6090  146.8210 O   0  0  0  0  0  0  0  0  0  0  0  0
  187.6810  178.1130  146.1070 C   0  0  0  0  0  0  0  0  0  0  0  0
  188.2530  177.9350  144.8670 C   0  0  0  0  0  0  0  0  0  0  0  0
  185.4470  178.5010  142.6180 C   0  0  0  0  0  3  0  0  0  0  0  0
  188.5680  177.9380  147.0810 C   0  0  0  0  0  3  0  0  0  0  0  0
  185.5460  178.4990  147.2770 N   0  0  0  0  0  0  0  0  0  0  0  0
  186.1220  178.2890  143.7540 C   0  0  0  0  0  0  0  0  0  0  0  0
  191.9560  176.1410  142.6400 C   0  0  0  0  0  2  0  0  0  0  0  0
  190.6440  177.4330  144.1010 N   0  0  0  0  0  0  0  0  0  0  0  0
  191.3900  176.2460  143.9710 C   0  0  0  0  0  0  0  0  0  0  0  0
  191.4780  177.4730  142.0470 C   0  0  2  0  0  3  0  0  0  0  0  0
  191.5110  175.3810  144.8780 O   0  0  0  0  0  0  0  0  0  0  0  0
  190.6610  178.1890  142.9720 O   0  0  0  0  0  0  0  0  0  0  0  0
  191.4870  176.9890  139.5440 N   0  0  0  0  0  0  0  0  0  0  0  0
  189.4930  177.2840  140.7290 O   0  0  0  0  0  0  0  0  0  0  0  0
  194.2590  175.8050  137.8110 O   0  0  0  0  0  0  0  0  0  0  0  0
  193.6180  178.0480  139.6340 N   0  0  0  0  0  1  0  0  0  0  0  0
  192.9260  176.7740  139.5270 C   0  0  2  0  0  3  0  0  0  0  0  0
  191.9270  176.0650  137.3780 C   0  0  0  0  0  3  0  0  0  0  0  0
  190.8320  176.5920  138.3020 C   0  0  0  0  0  3  0  0  0  0  0  0
  193.1640  176.1880  138.1900 C   0  0  0  0  0  0  0  0  0  0  0  0
  190.7540  177.2600  140.7500 C   0  0  0  0  0  0  0  0  0  0  0  0
  1  5  1  0  0  0  0
  2  8  2  0  0  0  0
  2  9  1  0  0  0  0
  3  6  2  0  0  0  0
  4 13  1  0  0  0  0
  4  1  2  0  0  0  0
  5  8  1  0  0  0  0
  6 14  1  0  0  0  0
  7 16  1  0  0  0  0
  7 12  2  0  0  0  0
  8 10  1  0  0  0  0
  9 15  2  0  0  0  0
 10 15  1  0  0  0  0
 11  9  1  0  0  0  0
 11 14  2  0  0  0  0
 12  3  1  0  0  0  0
 12 11  1  0  0  0  0
 13 16  2  0  0  0  0
 16  2  1  0  0  0  0
 17 19  1  0  0  0  0
 18  3  1  0  0  0  0
 19 18  1  0  0  0  0
 19 21  2  0  0  0  0
 20 31  1  6  0  0  0
 20 17  1  0  0  0  0
 20 22  1  0  0  0  0
 22 18  1  0  0  0  0
 23 31  1  0  0  0  0
 24 31  2  0  0  0  0
 25 30  2  0  0  0  0
 27 23  1  0  0  0  0
 27 26  1  6  0  0  0
 28 30  1  0  0  0  0
 28 29  2  0  0  0  0
 29 23  1  0  0  0  0
 30 27  1  0  0  0  0
M  END
>  <MODEL>
2

>  <REMARK>
 VINA RESULT:     -10.2      1.917      3.153
  Name = 
  2 active torsions:
  status: ('A' for Active; 'I' for Inactive)
    1  A    between atoms: C_6  and  N_9
    2  A    between atoms: C_26  and  C_29
                            x       y       z     vdW  Elec       q    Type
                         _______ _______ _______ _____ _____    ______ ____

>  <TORSDO>
F 2

$$$$
=
 OpenBabel10222420283D

 31 36  0  0  1  0  0  0  0  0999 V2000
  186.7550  177.8440  146.7030 C   0  0  0  0  0  3  0  0  0  0  0  0
  189.1540  177.5820  144.7890 C   0  0  0  0  0  0  0  0  0  0  0  0
  190.5050  177.4890  140.8570 C   0  0  0  0  0  0  0  0  0  0  0  0
  186.2390  178.0800  145.4930 C   0  0  0  0  0  3  0  0  0  0  0  0
  188.0200  177.1120  147.0300 C   0  0  0  0  0  2  0  0  0  0  0  0
  191.8210  177.4170  141.0690 C   0  0  0  0  0  3  0  0  0  0  0  0
  188.4720  177.5990  142.4730 C   0  0  0  0  0  3  0  0  0  0  0  0
  189.1780  177.4290  146.1510 C   0  0  0  0  0  0  0  0  0  0  0  0
  190.4790  177.5460  144.4290 C   0  0  0  0  0  0  0  0  0  0  0  0
  190.4420  177.3620  146.5320 O   0  0  0  0  0  0  0  0  0  0  0  0
  190.8350  177.5350  143.0900 C   0  0  0  0  0  0  0  0  0  0  0  0
  189.8410  177.5680  142.1380 C   0  0  0  0  0  0  0  0  0  0  0  0
  186.8230  177.8170  144.1580 C   0  0  0  0  0  3  0  0  0  0  0  0
  192.0370  177.4370  142.5330 C   0  0  0  0  0  3  0  0  0  0  0  0
  191.2640  177.4330  145.5150 N   0  0  0  0  0  0  0  0  0  0  0  0
  188.1100  177.6320  143.8420 C   0  0  0  0  0  0  0  0  0  0  0  0
  188.6940  176.6880  137.7430 C   0  0  0  0  0  2  0  0  0  0  0  0
  189.8720  177.5670  139.5770 N   0  0  0  0  0  0  0  0  0  0  0  0
  189.7550  176.4660  138.7070 C   0  0  0  0  0  0  0  0  0  0  0  0
  188.2640  178.1040  138.1480 C   0  0  2  0  0  3  0  0  0  0  0  0
  190.4530  175.4220  138.7870 O   0  0  0  0  0  0  0  0  0  0  0  0
  188.9940  178.5620  139.2860 O   0  0  0  0  0  0  0  0  0  0  0  0
  185.8560  177.7510  137.3880 N   0  0  0  0  0  0  0  0  0  0  0  0
  186.3630  178.5640  139.5210 O   0  0  0  0  0  0  0  0  0  0  0  0
  184.9620  175.8850  134.5940 O   0  0  0  0  0  0  0  0  0  0  0  0
  186.7810  178.1350  135.2280 N   0  0  0  0  0  1  0  0  0  0  0  0
  186.2750  177.1250  136.1430 C   0  0  2  0  0  3  0  0  0  0  0  0
  183.8410  176.8360  136.4730 C   0  0  0  0  0  3  0  0  0  0  0  0
  184.4260  177.6180  137.6450 C   0  0  0  0  0  3  0  0  0  0  0  0
  185.0180  176.5550  135.6120 C   0  0  0  0  0  0  0  0  0  0  0  0
  186.7860  178.1710  138.4010 C   0  0  0  0  0  0  0  0  0  0  0  0
  1  5  1  0  0  0  0
  2  8  2  0  0  0  0
  3  6  2  0  0  0  0
  3 12  1  0  0  0  0
  4  1  2  0  0  0  0
  6 14  1  0  0  0  0
  7 16  1  0  0  0  0
  8 10  1  0  0  0  0
  8  5  1  0  0  0  0
  9  2  1  0  0  0  0
  9 15  2  0  0  0  0
 11  9  1  0  0  0  0
 12  7  2  0  0  0  0
 12 11  1  0  0  0  0
 13  4  1  0  0  0  0
 14 11  2  0  0  0  0
 15 10  1  0  0  0  0
 16 13  2  0  0  0  0
 16  2  1  0  0  0  0
 17 20  1  0  0  0  0
 17 19  1  0  0  0  0
 18  3  1  0  0  0  0
 19 21  2  0  0  0  0
 19 18  1  0  0  0  0
 20 31  1  1  0  0  0
 20 22  1  0  0  0  0
 22 18  1  0  0  0  0
 23 29  1  0  0  0  0
 23 31  1  0  0  0  0
 25 30  2  0  0  0  0
 27 26  1  6  0  0  0
 27 23  1  0  0  0  0
 28 29  2  0  0  0  0
 30 27  1  0  0  0  0
 30 28  1  0  0  0  0
 31 24  2  0  0  0  0
M  END
>  <MODEL>
3

>  <REMARK>
 VINA RESULT:     -10.2      3.298      4.748
  Name = 
  2 active torsions:
  status: ('A' for Active; 'I' for Inactive)
    1  A    between atoms: C_6  and  N_9
    2  A    between atoms: C_26  and  C_29
                            x       y       z     vdW  Elec       q    Type
                         _______ _______ _______ _____ _____    ______ ____

>  <TORSDO>
F 2

$$$$
=
 OpenBabel10222420283D

 31 36  0  0  1  0  0  0  0  0999 V2000
  192.0560  176.3470  147.9930 C   0  0  0  0  0  3  0  0  0  0  0  0
  189.5270  177.1400  146.4230 C   0  0  0  0  0  0  0  0  0  0  0  0
  187.6850  177.5330  142.7150 C   0  0  0  0  0  0  0  0  0  0  0  0
  192.3290  176.0020  146.7310 C   0  0  0  0  0  3  0  0  0  0  0  0
  191.0430  177.3440  148.4680 C   0  0  0  0  0  2  0  0  0  0  0  0
  186.4620  177.8980  143.1040 C   0  0  0  0  0  3  0  0  0  0  0  0
  189.8520  176.9710  144.0360 C   0  0  0  0  0  3  0  0  0  0  0  0
  189.7310  177.2940  147.7690 C   0  0  0  0  0  0  0  0  0  0  0  0
  188.2060  177.4710  146.2480 C   0  0  0  0  0  0  0  0  0  0  0  0
  188.5810  177.6430  148.3190 O   0  0  0  0  0  0  0  0  0  0  0  0
  187.6750  177.5620  144.9710 C   0  0  0  0  0  0  0  0  0  0  0  0
  188.4910  177.3070  143.8930 C   0  0  0  0  0  0  0  0  0  0  0  0
  191.6340  176.3890  145.4830 C   0  0  0  0  0  3  0  0  0  0  0  0
  186.4570  177.9270  144.5840 C   0  0  0  0  0  3  0  0  0  0  0  0
  187.6270  177.7580  147.4280 N   0  0  0  0  0  0  0  0  0  0  0  0
  190.3880  176.8580  145.3420 C   0  0  0  0  0  0  0  0  0  0  0  0
  188.7830  178.0050  139.2230 C   0  0  0  0  0  2  0  0  0  0  0  0
  188.0970  177.3150  141.3620 N   0  0  0  0  0  0  0  0  0  0  0  0
  187.8780  178.2480  140.3310 C   0  0  0  0  0  0  0  0  0  0  0  0
  189.5070  176.7580  139.7450 C   0  0  2  0  0  3  0  0  0  0  0  0
  187.0380  179.1840  140.3870 O   0  0  0  0  0  0  0  0  0  0  0  0
  189.0680  176.4150  141.0590 O   0  0  0  0  0  0  0  0  0  0  0  0
  191.7660  176.4380  138.6070 N   0  0  0  0  0  0  0  0  0  0  0  0
  191.5670  177.5740  140.6410 O   0  0  0  0  0  0  0  0  0  0  0  0
  192.1440  175.4590  135.2930 O   0  0  0  0  0  0  0  0  0  0  0  0
  190.7190  174.4990  137.7050 N   0  0  0  0  0  1  0  0  0  0  0  0
  191.1570  175.8560  137.4210 C   0  0  2  0  0  3  0  0  0  0  0  0
  193.5470  176.3440  137.0080 C   0  0  0  0  0  3  0  0  0  0  0  0
  193.1810  176.7500  138.4330 C   0  0  0  0  0  3  0  0  0  0  0  0
  192.2710  175.8280  136.4490 C   0  0  0  0  0  0  0  0  0  0  0  0
  190.9970  176.9420  139.7120 C   0  0  0  0  0  0  0  0  0  0  0  0
  1  5  1  0  0  0  0
  2  8  2  0  0  0  0
  3  6  2  0  0  0  0
  3 12  1  0  0  0  0
  4  1  2  0  0  0  0
  6 14  1  0  0  0  0
  7 16  1  0  0  0  0
  8 10  1  0  0  0  0
  8  5  1  0  0  0  0
  9  2  1  0  0  0  0
  9 15  2  0  0  0  0
 11  9  1  0  0  0  0
 12  7  2  0  0  0  0
 12 11  1  0  0  0  0
 13  4  1  0  0  0  0
 14 11  2  0  0  0  0
 15 10  1  0  0  0  0
 16 13  2  0  0  0  0
 16  2  1  0  0  0  0
 17 20  1  0  0  0  0
 17 19  1  0  0  0  0
 18  3  1  0  0  0  0
 19 21  2  0  0  0  0
 19 18  1  0  0  0  0
 20 31  1  1  0  0  0
 20 22  1  0  0  0  0
 22 18  1  0  0  0  0
 23 31  1  0  0  0  0
 25 30  2  0  0  0  0
 27 26  1  1  0  0  0
 27 23  1  0  0  0  0
 28 29  2  0  0  0  0
 29 23  1  0  0  0  0
 30 28  1  0  0  0  0
 30 27  1  0  0  0  0
 31 24  2  0  0  0  0
M  END
>  <MODEL>
4

>  <REMARK>
 VINA RESULT:     -10.2      1.756      3.634
  Name = 
  2 active torsions:
  status: ('A' for Active; 'I' for Inactive)
    1  A    between atoms: C_6  and  N_9
    2  A    between atoms: C_26  and  C_29
                            x       y       z     vdW  Elec       q    Type
                         _______ _______ _______ _____ _____    ______ ____

>  <TORSDO>
F 2

$$$$
=
 OpenBabel10222420283D

 31 36  0  0  1  0  0  0  0  0999 V2000
  189.1100  177.1300  145.5600 C   0  0  0  0  0  3  0  0  0  0  0  0
  186.2070  178.0750  145.1490 C   0  0  0  0  0  0  0  0  0  0  0  0
  183.0220  178.5710  142.5210 C   0  0  0  0  0  0  0  0  0  0  0  0
  188.8170  176.7640  144.3080 C   0  0  0  0  0  3  0  0  0  0  0  0
  188.4420  178.1900  146.3810 C   0  0  0  0  0  2  0  0  0  0  0  0
  182.0920  179.0140  143.3690 C   0  0  0  0  0  3  0  0  0  0  0  0
  185.5060  177.8780  142.8470 C   0  0  0  0  0  3  0  0  0  0  0  0
  186.9570  178.2210  146.2870 C   0  0  0  0  0  0  0  0  0  0  0  0
  184.9520  178.4890  145.5260 C   0  0  0  0  0  0  0  0  0  0  0  0
  186.1590  178.6430  147.2520 O   0  0  0  0  0  0  0  0  0  0  0  0
  183.9470  178.6080  144.5790 C   0  0  0  0  0  0  0  0  0  0  0  0
  184.2290  178.2990  143.2680 C   0  0  0  0  0  0  0  0  0  0  0  0
  187.6920  177.1900  143.4460 C   0  0  0  0  0  3  0  0  0  0  0  0
  182.7000  179.0470  144.7180 C   0  0  0  0  0  3  0  0  0  0  0  0
  184.9300  178.8140  146.8300 N   0  0  0  0  0  0  0  0  0  0  0  0
  186.5270  177.7360  143.8190 C   0  0  0  0  0  0  0  0  0  0  0  0
  182.3880  178.9600  138.9060 C   0  0  0  0  0  2  0  0  0  0  0  0
  182.8250  178.3240  141.1260 N   0  0  0  0  0  0  0  0  0  0  0  0
  182.0370  179.1490  140.3010 C   0  0  0  0  0  0  0  0  0  0  0  0
  183.4470  177.8600  139.0490 C   0  0  2  0  0  3  0  0  0  0  0  0
  181.1760  179.9620  140.7270 O   0  0  0  0  0  0  0  0  0  0  0  0
  183.6880  177.5470  140.4210 O   0  0  0  0  0  0  0  0  0  0  0  0
  185.2260  177.4510  137.2690 N   0  0  0  0  0  0  0  0  0  0  0  0
  185.3350  179.2870  138.7130 O   0  0  0  0  0  0  0  0  0  0  0  0
  184.8320  175.2480  134.6080 O   0  0  0  0  0  0  0  0  0  0  0  0
  184.5880  175.1750  137.5590 N   0  0  0  0  0  1  0  0  0  0  0  0
  184.4840  176.3390  136.6940 C   0  0  2  0  0  3  0  0  0  0  0  0
  186.3620  176.9760  135.2140 C   0  0  0  0  0  3  0  0  0  0  0  0
  186.3520  177.8780  136.4450 C   0  0  0  0  0  3  0  0  0  0  0  0
  185.1950  176.0810  135.4230 C   0  0  0  0  0  0  0  0  0  0  0  0
  184.7230  178.2430  138.3580 C   0  0  0  0  0  0  0  0  0  0  0  0
  1  5  1  0  0  0  0
  2  9  1  0  0  0  0
  2  8  2  0  0  0  0
  3 12  1  0  0  0  0
  3  6  2  0  0  0  0
  4  1  2  0  0  0  0
  6 14  1  0  0  0  0
  7 12  2  0  0  0  0
  7 16  1  0  0  0  0
  8  5  1  0  0  0  0
  8 10  1  0  0  0  0
  9 15  2  0  0  0  0
 11 14  2  0  0  0  0
 11  9  1  0  0  0  0
 12 11  1  0  0  0  0
 13 16  2  0  0  0  0
 13  4  1  0  0  0  0
 15 10  1  0  0  0  0
 16  2  1  0  0  0  0
 17 20  1  0  0  0  0
 17 19  1  0  0  0  0
 18  3  1  0  0  0  0
 19 21  2  0  0  0  0
 19 18  1  0  0  0  0
 20 31  1  1  0  0  0
 20 22  1  0  0  0  0
 22 18  1  0  0  0  0
 23 31  1  0  0  0  0
 25 30  2  0  0  0  0
 27 23  1  0  0  0  0
 27 26  1  1  0  0  0
 28 30  1  0  0  0  0
 28 29  2  0  0  0  0
 29 23  1  0  0  0  0
 30 27  1  0  0  0  0
 31 24  2  0  0  0  0
M  END
>  <MODEL>
5

>  <REMARK>
 VINA RESULT:     -10.0      4.600      6.192
  Name = 
  2 active torsions:
  status: ('A' for Active; 'I' for Inactive)
    1  A    between atoms: C_6  and  N_9
    2  A    between atoms: C_26  and  C_29
                            x       y       z     vdW  Elec       q    Type
                         _______ _______ _______ _____ _____    ______ ____

>  <TORSDO>
F 2

$$$$
=
 OpenBabel10222420283D

 31 36  0  0  1  0  0  0  0  0999 V2000
  185.3980  178.5110  146.4840 C   0  0  0  0  0  3  0  0  0  0  0  0
  187.6240  177.7630  144.4900 C   0  0  0  0  0  0  0  0  0  0  0  0
  188.8440  177.5440  140.5210 C   0  0  0  0  0  0  0  0  0  0  0  0
  184.9360  178.9300  145.3010 C   0  0  0  0  0  3  0  0  0  0  0  0
  186.4470  177.4720  146.7390 C   0  0  0  0  0  2  0  0  0  0  0  0
  190.1030  177.1370  140.6910 C   0  0  0  0  0  3  0  0  0  0  0  0
  186.9290  178.0690  142.1990 C   0  0  0  0  0  3  0  0  0  0  0  0
  187.6320  177.5380  145.8430 C   0  0  0  0  0  0  0  0  0  0  0  0
  188.8920  177.4190  144.0910 C   0  0  0  0  0  0  0  0  0  0  0  0
  188.8460  177.1400  146.1830 O   0  0  0  0  0  0  0  0  0  0  0  0
  189.2110  177.3900  142.7420 C   0  0  0  0  0  0  0  0  0  0  0  0
  188.2410  177.7180  141.8220 C   0  0  0  0  0  0  0  0  0  0  0  0
  185.4140  178.6000  143.9400 C   0  0  0  0  0  3  0  0  0  0  0  0
  190.3430  177.0270  142.1470 C   0  0  0  0  0  3  0  0  0  0  0  0
  189.6430  177.0580  145.1470 N   0  0  0  0  0  0  0  0  0  0  0  0
  186.6100  178.1190  143.5780 C   0  0  0  0  0  0  0  0  0  0  0  0
  187.5840  177.3590  137.0560 C   0  0  0  0  0  2  0  0  0  0  0  0
  188.2280  177.8430  139.2640 N   0  0  0  0  0  0  0  0  0  0  0  0
  188.6380  177.2630  138.0490 C   0  0  0  0  0  0  0  0  0  0  0  0
  186.5350  178.1350  137.8630 C   0  0  2  0  0  3  0  0  0  0  0  0
  189.7530  176.7060  137.8690 O   0  0  0  0  0  0  0  0  0  0  0  0
  186.9760  178.3650  139.2010 O   0  0  0  0  0  0  0  0  0  0  0  0
  184.0190  178.1140  138.2730 N   0  0  0  0  0  0  0  0  0  0  0  0
  185.1420  176.2420  137.4350 O   0  0  0  0  0  0  0  0  0  0  0  0
  182.1170  180.9780  138.7890 O   0  0  0  0  0  0  0  0  0  0  0  0
  184.5600  179.7450  139.9220 N   0  0  0  0  0  1  0  0  0  0  0  0
  183.9970  179.5320  138.5980 C   0  0  2  0  0  3  0  0  0  0  0  0
  181.6910  178.6740  138.3380 C   0  0  0  0  0  3  0  0  0  0  0  0
  182.6880  177.5410  138.1070 C   0  0  0  0  0  3  0  0  0  0  0  0
  182.5530  179.8520  138.6130 C   0  0  0  0  0  0  0  0  0  0  0  0
  185.2110  177.4300  137.8520 C   0  0  0  0  0  0  0  0  0  0  0  0
  1  5  1  0  0  0  0
  2  8  2  0  0  0  0
  3  6  2  0  0  0  0
  3 12  1  0  0  0  0
  4  1  2  0  0  0  0
  6 14  1  0  0  0  0
  7 16  1  0  0  0  0
  8 10  1  0  0  0  0
  8  5  1  0  0  0  0
  9  2  1  0  0  0  0
  9 15  2  0  0  0  0
 11  9  1  0  0  0  0
 12  7  2  0  0  0  0
 12 11  1  0  0  0  0
 13  4  1  0  0  0  0
 14 11  2  0  0  0  0
 15 10  1  0  0  0  0
 16 13  2  0  0  0  0
 16  2  1  0  0  0  0
 17 20  1  0  0  0  0
 17 19  1  0  0  0  0
 18  3  1  0  0  0  0
 19 18  1  0  0  0  0
 20 31  1  1  0  0  0
 20 22  1  0  0  0  0
 21 19  2  0  0  0  0
 22 18  1  0  0  0  0
 23 27  1  0  0  0  0
 24 31  2  0  0  0  0
 27 30  1  0  0  0  0
 27 26  1  1  0  0  0
 28 30  1  0  0  0  0
 29 23  1  0  0  0  0
 29 28  2  0  0  0  0
 30 25  2  0  0  0  0
 31 23  1  0  0  0  0
M  END
>  <MODEL>
6

>  <REMARK>
 VINA RESULT:      -9.9      3.455      5.994
  Name = 
  2 active torsions:
  status: ('A' for Active; 'I' for Inactive)
    1  A    between atoms: C_6  and  N_9
    2  A    between atoms: C_26  and  C_29
                            x       y       z     vdW  Elec       q    Type
                         _______ _______ _______ _____ _____    ______ ____

>  <TORSDO>
F 2

$$$$
=
 OpenBabel10222420283D

 31 36  0  0  1  0  0  0  0  0999 V2000
  191.8480  177.1700  140.6390 C   0  0  0  0  0  3  0  0  0  0  0  0
  189.9570  177.4180  143.0580 C   0  0  0  0  0  0  0  0  0  0  0  0
  186.0520  177.8550  144.4220 C   0  0  0  0  0  0  0  0  0  0  0  0
  190.6230  177.1390  140.1050 C   0  0  0  0  0  3  0  0  0  0  0  0
  192.2490  177.7240  141.9730 C   0  0  0  0  0  2  0  0  0  0  0  0
  186.2580  177.7660  145.7370 C   0  0  0  0  0  3  0  0  0  0  0  0
  187.6630  177.7560  142.3840 C   0  0  0  0  0  3  0  0  0  0  0  0
  191.3270  177.4000  143.0940 C   0  0  0  0  0  0  0  0  0  0  0  0
  189.5900  177.3630  144.3800 C   0  0  0  0  0  0  0  0  0  0  0  0
  191.7000  177.2900  144.3580 O   0  0  0  0  0  0  0  0  0  0  0  0
  188.2590  177.5020  144.7390 C   0  0  0  0  0  0  0  0  0  0  0  0
  187.3200  177.6880  143.7490 C   0  0  0  0  0  0  0  0  0  0  0  0
  189.3250  177.5030  140.7170 C   0  0  0  0  0  3  0  0  0  0  0  0
  187.7060  177.5440  145.9470 C   0  0  0  0  0  3  0  0  0  0  0  0
  190.6740  177.2610  145.1710 N   0  0  0  0  0  0  0  0  0  0  0  0
  189.0220  177.5920  142.0170 C   0  0  0  0  0  0  0  0  0  0  0  0
  182.8340  179.1780  143.1920 C   0  0  0  0  0  2  0  0  0  0  0  0
  184.7780  178.0000  143.7870 N   0  0  0  0  0  0  0  0  0  0  0  0
  183.7850  178.8850  144.2480 C   0  0  0  0  0  0  0  0  0  0  0  0
  183.3930  178.2820  142.0790 C   0  0  2  0  0  3  0  0  0  0  0  0
  183.7550  179.3780  145.4050 O   0  0  0  0  0  0  0  0  0  0  0  0
  184.5900  177.6250  142.4950 O   0  0  0  0  0  0  0  0  0  0  0  0
  182.5650  179.2290  139.8620 N   0  0  0  0  0  0  0  0  0  0  0  0
  184.7450  179.6060  140.6190 O   0  0  0  0  0  0  0  0  0  0  0  0
  179.2120  179.3990  138.9600 O   0  0  0  0  0  0  0  0  0  0  0  0
  181.1140  177.3430  139.9220 N   0  0  0  0  0  1  0  0  0  0  0  0
  181.2030  178.7820  140.1080 C   0  0  2  0  0  3  0  0  0  0  0  0
  181.2700  180.2980  138.1540 C   0  0  0  0  0  3  0  0  0  0  0  0
  182.6780  180.1290  138.7180 C   0  0  0  0  0  3  0  0  0  0  0  0
  180.4270  179.4700  139.0530 C   0  0  0  0  0  0  0  0  0  0  0  0
  183.6250  179.0630  140.8190 C   0  0  0  0  0  0  0  0  0  0  0  0
  1  5  1  0  0  0  0
  2  8  2  0  0  0  0
  2  9  1  0  0  0  0
  3  6  2  0  0  0  0
  4  1  2  0  0  0  0
  4 13  1  0  0  0  0
  5  8  1  0  0  0  0
  6 14  1  0  0  0  0
  7 12  2  0  0  0  0
  8 10  1  0  0  0  0
  9 11  1  0  0  0  0
  9 15  2  0  0  0  0
 10 15  1  0  0  0  0
 11 14  2  0  0  0  0
 12  3  1  0  0  0  0
 12 11  1  0  0  0  0
 13 16  2  0  0  0  0
 16  7  1  0  0  0  0
 16  2  1  0  0  0  0
 17 19  1  0  0  0  0
 18 19  1  0  0  0  0
 18  3  1  0  0  0  0
 19 21  2  0  0  0  0
 20 31  1  6  0  0  0
 20 22  1  0  0  0  0
 20 17  1  0  0  0  0
 22 18  1  0  0  0  0
 23 27  1  0  0  0  0
 23 31  1  0  0  0  0
 24 31  2  0  0  0  0
 25 30  2  0  0  0  0
 27 26  1  6  0  0  0
 28 29  2  0  0  0  0
 28 30  1  0  0  0  0
 29 23  1  0  0  0  0
 30 27  1  0  0  0  0
M  END
>  <MODEL>
7

>  <REMARK>
 VINA RESULT:      -9.9      4.009      8.104
  Name = 
  2 active torsions:
  status: ('A' for Active; 'I' for Inactive)
    1  A    between atoms: C_6  and  N_9
    2  A    between atoms: C_26  and  C_29
                            x       y       z     vdW  Elec       q    Type
                         _______ _______ _______ _____ _____    ______ ____

>  <TORSDO>
F 2

$$$$
=
 OpenBabel10222420283D

 31 36  0  0  1  0  0  0  0  0999 V2000
  188.7900  177.1050  145.2470 C   0  0  0  0  0  3  0  0  0  0  0  0
  185.9120  178.0570  144.7020 C   0  0  0  0  0  0  0  0  0  0  0  0
  182.8920  178.6650  141.9080 C   0  0  0  0  0  0  0  0  0  0  0  0
  188.5780  176.7980  143.9630 C   0  0  0  0  0  3  0  0  0  0  0  0
  188.0660  178.1220  146.0740 C   0  0  0  0  0  2  0  0  0  0  0  0
  181.9090  179.0630  142.7170 C   0  0  0  0  0  3  0  0  0  0  0  0
  185.3560  177.9670  142.3540 C   0  0  0  0  0  3  0  0  0  0  0  0
  186.5900  178.1510  145.8900 C   0  0  0  0  0  0  0  0  0  0  0  0
  184.6340  178.4470  145.0190 C   0  0  0  0  0  0  0  0  0  0  0  0
  185.7300  178.5230  146.8220 O   0  0  0  0  0  0  0  0  0  0  0  0
  183.6880  178.6080  144.0190 C   0  0  0  0  0  0  0  0  0  0  0  0
  184.0520  178.3620  142.7140 C   0  0  0  0  0  0  0  0  0  0  0  0
  187.5050  177.2600  143.0540 C   0  0  0  0  0  3  0  0  0  0  0  0
  182.4320  179.0350  144.1010 C   0  0  0  0  0  3  0  0  0  0  0  0
  184.5290  178.7100  146.3340 N   0  0  0  0  0  0  0  0  0  0  0  0
  186.3160  177.7830  143.3790 C   0  0  0  0  0  0  0  0  0  0  0  0
  183.6450  178.1950  138.3250 C   0  0  0  0  0  2  0  0  0  0  0  0
  182.7840  178.4830  140.4930 N   0  0  0  0  0  0  0  0  0  0  0  0
  183.7730  178.9050  139.5840 C   0  0  0  0  0  0  0  0  0  0  0  0
  182.3990  177.3520  138.6250 C   0  0  2  0  0  3  0  0  0  0  0  0
  184.6640  179.7530  139.8490 O   0  0  0  0  0  0  0  0  0  0  0  0
  181.9500  177.5490  139.9660 O   0  0  0  0  0  0  0  0  0  0  0  0
  181.6550  175.0970  137.6970 N   0  0  0  0  0  0  0  0  0  0  0  0
  183.7580  175.3870  138.6790 O   0  0  0  0  0  0  0  0  0  0  0  0
  178.9310  174.6790  135.5780 O   0  0  0  0  0  0  0  0  0  0  0  0
  179.4820  175.9220  138.2090 N   0  0  0  0  0  1  0  0  0  0  0  0
  180.4330  175.6580  137.1420 C   0  0  2  0  0  3  0  0  0  0  0  0
  180.7770  173.3550  136.3080 C   0  0  0  0  0  3  0  0  0  0  0  0
  181.9200  173.7350  137.2460 C   0  0  0  0  0  3  0  0  0  0  0  0
  179.9250  174.5710  136.2780 C   0  0  0  0  0  0  0  0  0  0  0  0
  182.6510  175.8970  138.3560 C   0  0  0  0  0  0  0  0  0  0  0  0
  1  5  1  0  0  0  0
  2  9  1  0  0  0  0
  2  8  2  0  0  0  0
  3 12  1  0  0  0  0
  3  6  2  0  0  0  0
  4  1  2  0  0  0  0
  6 14  1  0  0  0  0
  7 12  2  0  0  0  0
  7 16  1  0  0  0  0
  8  5  1  0  0  0  0
  8 10  1  0  0  0  0
  9 15  2  0  0  0  0
 11 14  2  0  0  0  0
 11  9  1  0  0  0  0
 12 11  1  0  0  0  0
 13 16  2  0  0  0  0
 13  4  1  0  0  0  0
 15 10  1  0  0  0  0
 16  2  1  0  0  0  0
 17 20  1  0  0  0  0
 17 19  1  0  0  0  0
 18  3  1  0  0  0  0
 19 21  2  0  0  0  0
 19 18  1  0  0  0  0
 20 31  1  1  0  0  0
 20 22  1  0  0  0  0
 22 18  1  0  0  0  0
 23 31  1  0  0  0  0
 25 30  2  0  0  0  0
 27 23  1  0  0  0  0
 27 26  1  1  0  0  0
 28 29  2  0  0  0  0
 29 23  1  0  0  0  0
 30 28  1  0  0  0  0
 30 27  1  0  0  0  0
 31 24  2  0  0  0  0
M  END
>  <MODEL>
8

>  <REMARK>
 VINA RESULT:      -9.8      5.578      7.799
  Name = 
  2 active torsions:
  status: ('A' for Active; 'I' for Inactive)
    1  A    between atoms: C_6  and  N_9
    2  A    between atoms: C_26  and  C_29
                            x       y       z     vdW  Elec       q    Type
                         _______ _______ _______ _____ _____    ______ ____

>  <TORSDO>
F 2

$$$$
=
 OpenBabel10222420283D

 31 36  0  0  1  0  0  0  0  0999 V2000
  187.8040  177.6760  147.7850 C   0  0  0  0  0  3  0  0  0  0  0  0
  188.9130  177.5310  144.9140 C   0  0  0  0  0  0  0  0  0  0  0  0
  188.2040  178.0750  140.8530 C   0  0  0  0  0  0  0  0  0  0  0  0
  186.8380  178.2080  147.0300 C   0  0  0  0  0  3  0  0  0  0  0  0
  188.9000  176.7530  147.3480 C   0  0  0  0  0  2  0  0  0  0  0  0
  189.4200  177.8110  140.3710 C   0  0  0  0  0  3  0  0  0  0  0  0
  187.2390  178.0910  143.2670 C   0  0  0  0  0  3  0  0  0  0  0  0
  189.5450  177.1050  146.0540 C   0  0  0  0  0  0  0  0  0  0  0  0
  189.8750  177.4160  143.9410 C   0  0  0  0  0  0  0  0  0  0  0  0
  190.7970  176.8180  145.7430 O   0  0  0  0  0  0  0  0  0  0  0  0
  189.5470  177.6330  142.6120 C   0  0  0  0  0  0  0  0  0  0  0  0
  188.2510  177.9710  142.2930 C   0  0  0  0  0  0  0  0  0  0  0  0
  186.6590  178.1530  145.5620 C   0  0  0  0  0  3  0  0  0  0  0  0
  190.2990  177.5120  141.5230 C   0  0  0  0  0  3  0  0  0  0  0  0
  191.0390  176.9970  144.4680 N   0  0  0  0  0  0  0  0  0  0  0  0
  187.5800  177.8890  144.6270 C   0  0  0  0  0  0  0  0  0  0  0  0
  185.3260  178.1360  138.5430 C   0  0  0  0  0  2  0  0  0  0  0  0
  187.0720  178.4810  140.0780 N   0  0  0  0  0  0  0  0  0  0  0  0
  186.7190  177.8780  138.8560 C   0  0  0  0  0  0  0  0  0  0  0  0
  184.9510  179.0280  139.7330 C   0  0  2  0  0  3  0  0  0  0  0  0
  187.5000  177.1800  138.1570 O   0  0  0  0  0  0  0  0  0  0  0  0
  186.0440  179.1680  140.6410 O   0  0  0  0  0  0  0  0  0  0  0  0
  182.4230  178.7500  139.9040 N   0  0  0  0  0  0  0  0  0  0  0  0
  183.8690  177.8220  141.4900 O   0  0  0  0  0  0  0  0  0  0  0  0
  180.2220  179.4030  137.2920 O   0  0  0  0  0  0  0  0  0  0  0  0
  182.4000  180.8150  138.7190 N   0  0  0  0  0  1  0  0  0  0  0  0
  182.2040  179.3780  138.6100 C   0  0  2  0  0  3  0  0  0  0  0  0
  180.1140  178.3320  139.4220 C   0  0  0  0  0  3  0  0  0  0  0  0
  181.2260  178.1120  140.4440 C   0  0  0  0  0  3  0  0  0  0  0  0
  180.7800  179.0890  138.3320 C   0  0  0  0  0  0  0  0  0  0  0  0
  183.7340  178.5070  140.4400 C   0  0  0  0  0  0  0  0  0  0  0  0
  2  8  2  0  0  0  0
  3 12  1  0  0  0  0
  4  1  2  0  0  0  0
  5  1  1  0  0  0  0
  6  3  2  0  0  0  0
  6 14  1  0  0  0  0
  7 16  1  0  0  0  0
  8  5  1  0  0  0  0
  9 15  2  0  0  0  0
  9  2  1  0  0  0  0
 10  8  1  0  0  0  0
 11  9  1  0  0  0  0
 12 11  1  0  0  0  0
 12  7  2  0  0  0  0
 13  4  1  0  0  0  0
 14 11  2  0  0  0  0
 15 10  1  0  0  0  0
 16  2  1  0  0  0  0
 16 13  2  0  0  0  0
 17 19  1  0  0  0  0
 17 20  1  0  0  0  0
 18 22  1  0  0  0  0
 18  3  1  0  0  0  0
 19 18  1  0  0  0  0
 20 31  1  1  0  0  0
 20 22  1  0  0  0  0
 21 19  2  0  0  0  0
 23 31  1  0  0  0  0
 23 29  1  0  0  0  0
 25 30  2  0  0  0  0
 27 26  1  1  0  0  0
 27 23  1  0  0  0  0
 28 29  2  0  0  0  0
 30 27  1  0  0  0  0
 30 28  1  0  0  0  0
 31 24  2  0  0  0  0
M  END
>  <MODEL>
9

>  <REMARK>
 VINA RESULT:      -9.7      4.045      7.111
  Name = 
  2 active torsions:
  status: ('A' for Active; 'I' for Inactive)
    1  A    between atoms: C_6  and  N_9
    2  A    between atoms: C_26  and  C_29
                            x       y       z     vdW  Elec       q    Type
                         _______ _______ _______ _____ _____    ______ ____

>  <TORSDO>
F 2

$$$$
