=
 OpenBabel10222415353D

 54 60  0  0  1  0  0  0  0  0999 V2000
  189.6680  176.7590  137.9980 C   0  0  0  0  0  0  0  0  0  0  0  0
  190.6800  176.3100  138.7100 C   0  0  2  0  0  3  0  0  0  0  0  0
  190.7160  177.0600  140.2510 S   0  0  0  0  0  0  0  0  0  0  0  0
  189.3160  176.0700  136.7240 C   0  0  0  0  0  0  0  0  0  0  0  0
  189.1620  179.1850  137.9300 C   0  0  0  0  0  1  0  0  0  0  0  0
  193.2880  174.4250  136.8850 C   0  0  0  0  0  0  0  0  0  0  0  0
  191.5780  175.7610  135.8410 C   0  0  0  0  0  0  0  0  0  0  0  0
  192.3570  175.7280  134.6580 C   0  0  0  0  0  3  0  0  0  0  0  0
  188.8780  177.8820  138.6470 C   0  0  2  0  0  3  0  0  0  0  0  0
  191.6860  175.3910  138.2610 N   0  0  0  0  0  0  0  0  0  0  0  0
  193.9650  174.4000  135.7060 C   0  0  0  0  0  0  0  0  0  0  0  0
  190.6000  176.0670  141.3760 O   0  0  0  0  0  0  0  0  0  0  0  0
  192.1110  175.1620  137.0410 C   0  0  0  0  0  0  0  0  0  0  0  0
  196.1270  173.5040  134.8570 C   0  0  0  0  0  1  0  0  0  0  0  0
  194.0800  173.7370  137.7910 C   0  0  0  0  0  3  0  0  0  0  0  0
  189.2890  178.0340  140.0570 N   0  0  0  0  0  0  0  0  0  0  0  0
  191.9340  177.9260  140.4120 O   0  0  0  0  0  0  0  0  0  0  0  0
  195.1060  173.7300  135.8630 N   0  0  0  0  0  0  0  0  0  0  0  0
  193.5460  175.0640  134.6050 N   0  0  0  0  0  0  0  0  0  0  0  0
  195.1840  173.3180  137.1220 N   0  0  0  0  0  0  0  0  0  0  0  0
  190.3640  176.2200  135.7260 N   0  0  0  0  0  0  0  0  0  0  0  0
  187.9180  176.9380  134.8290 C   0  0  0  0  0  1  0  0  0  0  0  0
  187.8760  176.2060  136.1730 C   0  0  2  0  0  0  0  0  0  0  0  0
  185.9240  177.8590  136.4330 C   0  0  0  0  0  1  0  0  0  0  0  0
  186.9510  176.9790  137.1340 C   0  0  0  0  0  2  0  0  0  0  0  0
  187.2820  174.7860  135.9640 C   0  0  1  0  0  3  0  0  0  0  0  0
  182.9690  173.8230  138.0360 F   0  0  0  0  0  0  0  0  0  0  0  0
  182.9980  174.4240  135.7330 C   0  0  0  0  0  3  0  0  0  0  0  0
  183.7240  174.7860  134.5940 C   0  0  0  0  0  3  0  0  0  0  0  0
  183.6680  174.1760  136.9350 C   0  0  0  0  0  0  0  0  0  0  0  0
  185.1150  174.8990  134.6570 C   0  0  0  0  0  3  0  0  0  0  0  0
  185.7860  174.6520  135.8610 C   0  0  0  0  0  0  0  0  0  0  0  0
  185.0600  174.2910  136.9960 C   0  0  0  0  0  3  0  0  0  0  0  0
  188.0080  173.9030  135.1220 O   0  0  0  0  0  0  0  0  0  0  0  0
  188.6540  173.0050  135.9140 N   0  0  0  0  0  0  0  0  0  0  0  0
  188.9120  170.9610  134.6230 C   0  0  0  0  0  2  0  0  0  0  0  0
  187.6600  172.0260  136.3470 C   0  0  0  0  0  2  0  0  0  0  0  0
  189.5820  172.2580  135.0640 C   0  0  0  0  0  2  0  0  0  0  0  0
  187.5570  170.9620  135.2800 C   0  0  0  0  0  2  0  0  0  0  0  0
  188.2200  177.5940  140.9610 C   0  0  0  0  0  2  0  0  0  0  0  0
  188.0960  178.4260  142.2410 C   0  0  0  0  0  2  0  0  0  0  0  0
  185.6570  178.7230  142.7450 C   0  0  0  0  0  0  0  0  0  0  0  0
  185.5660  179.5600  141.8150 O   0  0  0  0  0  0  0  0  0  0  0  0
  186.9020  178.0300  142.9700 N   0  0  0  0  0  0  0  0  0  0  0  0
  184.4600  178.4810  143.5960 C   0  0  0  0  0  1  0  0  0  0  0  0
  187.0730  176.9720  143.9690 C   0  0  1  0  0  3  0  0  0  0  0  0
  188.0120  175.8890  143.4560 C   0  0  0  0  0  1  0  0  0  0  0  0
  188.9690  177.2720  147.2930 C   0  0  2  0  0  3  0  0  0  0  0  0
  188.8810  177.5350  145.7840 C   0  0  0  0  0  2  0  0  0  0  0  0
  186.8070  178.4330  147.4960 C   0  0  0  0  0  3  0  0  0  0  0  0
  187.4440  177.5150  145.3250 C   0  0  0  0  0  0  0  0  0  0  0  0
  187.9920  178.1370  148.0390 C   0  0  0  0  0  3  0  0  0  0  0  0
  186.4850  177.9850  146.1300 C   0  0  0  0  0  3  0  0  0  0  0  0
  190.2620  177.5190  147.7350 O   0  0  0  0  0  1  0  0  0  0  0  0
  1  9  1  0  0  0  0
  2  1  1  6  0  0  0
  2  3  1  0  0  0  0
  3 17  2  0  0  0  0
  3 12  2  0  0  0  0
  4  1  2  0  0  0  0
  6 13  1  0  0  0  0
  6 15  1  0  0  0  0
  7 13  1  0  0  0  0
  8  7  1  0  0  0  0
  9  5  1  6  0  0  0
  9 16  1  0  0  0  0
 10  2  1  0  0  0  0
 11 18  1  0  0  0  0
 11  6  2  0  0  0  0
 13 10  2  0  0  0  0
 14 18  1  0  0  0  0
 16  3  1  0  0  0  0
 16 40  1  0  0  0  0
 18 20  1  0  0  0  0
 19  8  2  0  0  0  0
 19 11  1  0  0  0  0
 20 15  2  0  0  0  0
 21  7  2  0  0  0  0
 21  4  1  0  0  0  0
 23 22  1  6  0  0  0
 23  4  1  0  0  0  0
 23 25  1  0  0  0  0
 24 25  1  0  0  0  0
 26 34  1  6  0  0  0
 26 23  1  0  0  0  0
 28 30  1  0  0  0  0
 29 31  1  0  0  0  0
 29 28  2  0  0  0  0
 30 33  2  0  0  0  0
 30 27  1  0  0  0  0
 31 32  2  0  0  0  0
 32 26  1  0  0  0  0
 32 33  1  0  0  0  0
 34 35  1  0  0  0  0
 35 37  1  0  0  0  0
 36 38  1  0  0  0  0
 36 39  1  0  0  0  0
 38 35  1  0  0  0  0
 39 37  1  0  0  0  0
 40 41  1  0  0  0  0
 41 44  1  0  0  0  0
 42 44  1  0  0  0  0
 42 45  1  0  0  0  0
 43 42  2  0  0  0  0
 44 46  1  0  0  0  0
 46 47  1  6  0  0  0
 46 51  1  0  0  0  0
 48 54  1  1  0  0  0
 48 52  1  0  0  0  0
 49 48  1  0  0  0  0
 50 52  2  0  0  0  0
 51 49  1  0  0  0  0
 51 53  2  0  0  0  0
 53 50  1  0  0  0  0
M  END
>  <MODEL>
1

>  <REMARK>
 VINA RESULT:      -8.8      0.000      0.000
  Name = 
  11 active torsions:
  status: ('A' for Active; 'I' for Inactive)
    1  A    between atoms: C_5  and  C_8
    2  A    between atoms: C_5  and  N_41
    3  A    between atoms: C_6  and  C_35
    4  A    between atoms: C_6  and  N_43
    5  A    between atoms: C_8  and  N_43
    6  A    between atoms: C_10  and  C_37
    7  A    between atoms: C_13  and  C_37
    8  A    between atoms: C_13  and  C_39
    9  A    between atoms: C_13  and  O_50
   10  A    between atoms: N_23  and  O_50
   11  A    between atoms: C_36  and  C_37
                            x       y       z     vdW  Elec       q    Type
                         _______ _______ _______ _____ _____    ______ ____

>  <TORSDO>
F 11

$$$$
=
 OpenBabel10222415353D

 54 60  0  0  1  0  0  0  0  0999 V2000
  189.4010  176.9490  137.8950 C   0  0  0  0  0  0  0  0  0  0  0  0
  190.3450  176.4020  138.6300 C   0  0  2  0  0  3  0  0  0  0  0  0
  190.4180  177.1440  140.1730 S   0  0  0  0  0  0  0  0  0  0  0  0
  189.0140  176.2990  136.6100 C   0  0  0  0  0  0  0  0  0  0  0  0
  189.1420  179.4140  137.8190 C   0  0  0  0  0  1  0  0  0  0  0  0
  192.7960  174.2650  136.8650 C   0  0  0  0  0  0  0  0  0  0  0  0
  191.2550  175.7650  135.7820 C   0  0  0  0  0  0  0  0  0  0  0  0
  192.0550  175.6540  134.6190 C   0  0  0  0  0  3  0  0  0  0  0  0
  188.7110  178.1460  138.5260 C   0  0  2  0  0  3  0  0  0  0  0  0
  191.2640  175.3860  138.2030 N   0  0  0  0  0  0  0  0  0  0  0  0
  193.4960  174.1720  135.7030 C   0  0  0  0  0  0  0  0  0  0  0  0
  190.1750  176.1670  141.2920 O   0  0  0  0  0  0  0  0  0  0  0  0
  191.6950  175.1150  136.9940 C   0  0  0  0  0  0  0  0  0  0  0  0
  195.5770  173.0640  134.9050 C   0  0  0  0  0  1  0  0  0  0  0  0
  193.4930  173.5010  137.7880 C   0  0  0  0  0  3  0  0  0  0  0  0
  189.1010  178.2560  139.9460 N   0  0  0  0  0  0  0  0  0  0  0  0
  191.7130  177.8830  140.3660 O   0  0  0  0  0  0  0  0  0  0  0  0
  194.5600  173.3910  135.8870 N   0  0  0  0  0  0  0  0  0  0  0  0
  193.1730  174.8740  134.5940 N   0  0  0  0  0  0  0  0  0  0  0  0
  194.5650  172.9730  137.1460 N   0  0  0  0  0  0  0  0  0  0  0  0
  190.0950  176.3430  135.6390 N   0  0  0  0  0  0  0  0  0  0  0  0
  187.5140  175.9590  134.6270 C   0  0  0  0  0  1  0  0  0  0  0  0
  187.6080  176.5780  136.0240 C   0  0  2  0  0  0  0  0  0  0  0  0
  186.6920  178.5080  134.5940 C   0  0  0  0  0  1  0  0  0  0  0  0
  187.3040  178.0860  135.9240 C   0  0  0  0  0  2  0  0  0  0  0  0
  186.5410  175.9270  136.9460 C   0  0  1  0  0  3  0  0  0  0  0  0
  182.2380  177.7120  135.4910 F   0  0  0  0  0  0  0  0  0  0  0  0
  182.9190  178.1180  137.7340 C   0  0  0  0  0  3  0  0  0  0  0  0
  183.8710  177.9670  138.7480 C   0  0  0  0  0  3  0  0  0  0  0  0
  183.1540  177.5640  136.4720 C   0  0  0  0  0  0  0  0  0  0  0  0
  185.0520  177.2630  138.5000 C   0  0  0  0  0  3  0  0  0  0  0  0
  185.2870  176.7060  137.2360 C   0  0  0  0  0  0  0  0  0  0  0  0
  184.3360  176.8590  136.2260 C   0  0  0  0  0  3  0  0  0  0  0  0
  186.3440  174.5280  136.8120 O   0  0  0  0  0  0  0  0  0  0  0  0
  185.0040  174.2900  136.8210 N   0  0  0  0  0  0  0  0  0  0  0  0
  184.6980  171.8910  137.0710 C   0  0  0  0  0  2  0  0  0  0  0  0
  184.6640  173.7060  135.5270 C   0  0  0  0  0  2  0  0  0  0  0  0
  184.7530  173.2290  137.7990 C   0  0  0  0  0  2  0  0  0  0  0  0
  184.8960  172.2150  135.6130 C   0  0  0  0  0  2  0  0  0  0  0  0
  187.9710  177.9250  140.8230 C   0  0  0  0  0  2  0  0  0  0  0  0
  188.1850  178.2980  142.2920 C   0  0  0  0  0  2  0  0  0  0  0  0
  185.7820  178.7440  142.8580 C   0  0  0  0  0  0  0  0  0  0  0  0
  185.7150  179.5750  141.9200 O   0  0  0  0  0  0  0  0  0  0  0  0
  186.9900  177.9810  143.0580 N   0  0  0  0  0  0  0  0  0  0  0  0
  184.5970  178.5820  143.7440 C   0  0  0  0  0  1  0  0  0  0  0  0
  187.1260  176.9260  144.0650 C   0  0  1  0  0  3  0  0  0  0  0  0
  187.9540  175.7670  143.5270 C   0  0  0  0  0  1  0  0  0  0  0  0
  189.1810  177.1080  147.3020 C   0  0  2  0  0  3  0  0  0  0  0  0
  189.0530  177.3540  145.7930 C   0  0  0  0  0  2  0  0  0  0  0  0
  187.1410  178.4600  147.5700 C   0  0  0  0  0  3  0  0  0  0  0  0
  187.6010  177.4550  145.3940 C   0  0  0  0  0  0  0  0  0  0  0  0
  188.3170  178.0690  148.0700 C   0  0  0  0  0  3  0  0  0  0  0  0
  186.7220  178.0220  146.2290 C   0  0  0  0  0  3  0  0  0  0  0  0
  190.5090  177.2460  147.6850 O   0  0  0  0  0  1  0  0  0  0  0  0
  1  9  1  0  0  0  0
  2  1  1  6  0  0  0
  2  3  1  0  0  0  0
  3 17  2  0  0  0  0
  3 12  2  0  0  0  0
  4  1  2  0  0  0  0
  6 13  1  0  0  0  0
  6 15  1  0  0  0  0
  7 13  1  0  0  0  0
  8  7  1  0  0  0  0
  9  5  1  6  0  0  0
  9 16  1  0  0  0  0
 10  2  1  0  0  0  0
 11 18  1  0  0  0  0
 11  6  2  0  0  0  0
 13 10  2  0  0  0  0
 14 18  1  0  0  0  0
 16  3  1  0  0  0  0
 16 40  1  0  0  0  0
 18 20  1  0  0  0  0
 19  8  2  0  0  0  0
 19 11  1  0  0  0  0
 20 15  2  0  0  0  0
 21  7  2  0  0  0  0
 21  4  1  0  0  0  0
 23 22  1  6  0  0  0
 23  4  1  0  0  0  0
 23 26  1  0  0  0  0
 24 25  1  0  0  0  0
 25 23  1  0  0  0  0
 26 34  1  6  0  0  0
 26 32  1  0  0  0  0
 27 30  1  0  0  0  0
 28 29  1  0  0  0  0
 30 28  2  0  0  0  0
 31 29  2  0  0  0  0
 32 31  1  0  0  0  0
 33 30  1  0  0  0  0
 33 32  2  0  0  0  0
 34 35  1  0  0  0  0
 35 38  1  0  0  0  0
 36 38  1  0  0  0  0
 37 39  1  0  0  0  0
 37 35  1  0  0  0  0
 39 36  1  0  0  0  0
 40 41  1  0  0  0  0
 41 44  1  0  0  0  0
 42 44  1  0  0  0  0
 42 45  1  0  0  0  0
 43 42  2  0  0  0  0
 44 46  1  0  0  0  0
 46 47  1  6  0  0  0
 46 51  1  0  0  0  0
 48 54  1  1  0  0  0
 48 52  1  0  0  0  0
 49 48  1  0  0  0  0
 50 52  2  0  0  0  0
 51 49  1  0  0  0  0
 51 53  2  0  0  0  0
 53 50  1  0  0  0  0
M  END
>  <MODEL>
2

>  <REMARK>
 VINA RESULT:      -8.2      1.499      2.062
  Name = 
  11 active torsions:
  status: ('A' for Active; 'I' for Inactive)
    1  A    between atoms: C_5  and  C_8
    2  A    between atoms: C_5  and  N_41
    3  A    between atoms: C_6  and  C_35
    4  A    between atoms: C_6  and  N_43
    5  A    between atoms: C_8  and  N_43
    6  A    between atoms: C_10  and  C_37
    7  A    between atoms: C_13  and  C_37
    8  A    between atoms: C_13  and  C_39
    9  A    between atoms: C_13  and  O_50
   10  A    between atoms: N_23  and  O_50
   11  A    between atoms: C_36  and  C_37
                            x       y       z     vdW  Elec       q    Type
                         _______ _______ _______ _____ _____    ______ ____

>  <TORSDO>
F 11

$$$$
=
 OpenBabel10222415353D

 54 60  0  0  1  0  0  0  0  0999 V2000
  189.6640  177.1570  137.9540 C   0  0  0  0  0  0  0  0  0  0  0  0
  190.5540  176.4990  138.6640 C   0  0  2  0  0  3  0  0  0  0  0  0
  190.6060  177.0900  140.2720 S   0  0  0  0  0  0  0  0  0  0  0  0
  189.2940  176.6480  136.6030 C   0  0  0  0  0  0  0  0  0  0  0  0
  189.5200  179.6280  138.1040 C   0  0  0  0  0  1  0  0  0  0  0  0
  192.9680  174.4180  136.7850 C   0  0  0  0  0  0  0  0  0  0  0  0
  191.5370  176.0860  135.7990 C   0  0  0  0  0  0  0  0  0  0  0  0
  192.3720  176.0440  134.6570 C   0  0  0  0  0  3  0  0  0  0  0  0
  189.0070  178.3230  138.6740 C   0  0  2  0  0  3  0  0  0  0  0  0
  191.4420  175.4830  138.1730 N   0  0  0  0  0  0  0  0  0  0  0  0
  193.7050  174.4000  135.6420 C   0  0  0  0  0  0  0  0  0  0  0  0
  190.2780  176.0270  141.2860 O   0  0  0  0  0  0  0  0  0  0  0  0
  191.9030  175.3060  136.9580 C   0  0  0  0  0  0  0  0  0  0  0  0
  195.7610  173.2710  134.8090 C   0  0  0  0  0  1  0  0  0  0  0  0
  193.5960  173.5390  137.6530 C   0  0  0  0  0  3  0  0  0  0  0  0
  189.3490  178.2810  140.1090 N   0  0  0  0  0  0  0  0  0  0  0  0
  191.9240  177.7450  140.5750 O   0  0  0  0  0  0  0  0  0  0  0  0
  194.7250  173.5550  135.7840 N   0  0  0  0  0  0  0  0  0  0  0  0
  193.4540  175.2170  134.5940 N   0  0  0  0  0  0  0  0  0  0  0  0
  194.6660  173.0220  136.9980 N   0  0  0  0  0  0  0  0  0  0  0  0
  190.4110  176.7300  135.6750 N   0  0  0  0  0  0  0  0  0  0  0  0
  188.1480  177.7180  134.6430 C   0  0  0  0  0  1  0  0  0  0  0  0
  187.9250  177.0480  136.0010 C   0  0  2  0  0  0  0  0  0  0  0  0
  186.6960  179.2970  136.2190 C   0  0  0  0  0  1  0  0  0  0  0  0
  187.1440  178.0170  136.9130 C   0  0  0  0  0  2  0  0  0  0  0  0
  187.0670  175.7680  135.8070 C   0  0  1  0  0  3  0  0  0  0  0  0
  188.1240  171.4820  137.8900 F   0  0  0  0  0  0  0  0  0  0  0  0
  189.0450  171.9440  135.7450 C   0  0  0  0  0  3  0  0  0  0  0  0
  189.1920  172.8160  134.6620 C   0  0  0  0  0  3  0  0  0  0  0  0
  188.2650  172.3220  136.8410 C   0  0  0  0  0  0  0  0  0  0  0  0
  188.5590  174.0620  134.6760 C   0  0  0  0  0  3  0  0  0  0  0  0
  187.7760  174.4410  135.7730 C   0  0  0  0  0  0  0  0  0  0  0  0
  187.6320  173.5690  136.8530 C   0  0  0  0  0  3  0  0  0  0  0  0
  185.8000  175.7400  136.4460 O   0  0  0  0  0  0  0  0  0  0  0  0
  184.8630  175.4400  135.5060 N   0  0  0  0  0  0  0  0  0  0  0  0
  182.9820  176.9380  135.8610 C   0  0  0  0  0  2  0  0  0  0  0  0
  183.7900  174.7210  136.1870 C   0  0  0  0  0  2  0  0  0  0  0  0
  184.2610  176.7010  135.0680 C   0  0  0  0  0  2  0  0  0  0  0  0
  182.8380  175.7410  136.7640 C   0  0  0  0  0  2  0  0  0  0  0  0
  188.1740  177.9260  140.9140 C   0  0  0  0  0  2  0  0  0  0  0  0
  188.1610  178.5440  142.3150 C   0  0  0  0  0  2  0  0  0  0  0  0
  185.7280  178.7560  142.8840 C   0  0  0  0  0  0  0  0  0  0  0  0
  185.5990  179.6410  142.0030 O   0  0  0  0  0  0  0  0  0  0  0  0
  186.9920  178.0810  143.0450 N   0  0  0  0  0  0  0  0  0  0  0  0
  184.5550  178.4410  143.7430 C   0  0  0  0  0  1  0  0  0  0  0  0
  187.2080  176.9750  143.9810 C   0  0  1  0  0  3  0  0  0  0  0  0
  187.8870  175.8030  143.2880 C   0  0  0  0  0  1  0  0  0  0  0  0
  189.9120  177.1520  146.6990 C   0  0  2  0  0  3  0  0  0  0  0  0
  189.3930  177.5530  145.3130 C   0  0  0  0  0  2  0  0  0  0  0  0
  187.8030  178.0370  147.6090 C   0  0  0  0  0  3  0  0  0  0  0  0
  187.8910  177.4180  145.2490 C   0  0  0  0  0  0  0  0  0  0  0  0
  189.1110  177.8230  147.7790 C   0  0  0  0  0  3  0  0  0  0  0  0
  187.1550  177.6950  146.3320 C   0  0  0  0  0  3  0  0  0  0  0  0
  191.2530  177.4970  146.8130 O   0  0  0  0  0  1  0  0  0  0  0  0
  1  9  1  0  0  0  0
  2  1  1  6  0  0  0
  2  3  1  0  0  0  0
  3 17  2  0  0  0  0
  3 12  2  0  0  0  0
  4  1  2  0  0  0  0
  6 13  1  0  0  0  0
  6 15  1  0  0  0  0
  7 13  1  0  0  0  0
  8  7  1  0  0  0  0
  9  5  1  6  0  0  0
  9 16  1  0  0  0  0
 10  2  1  0  0  0  0
 11 18  1  0  0  0  0
 11  6  2  0  0  0  0
 13 10  2  0  0  0  0
 14 18  1  0  0  0  0
 16  3  1  0  0  0  0
 16 40  1  0  0  0  0
 18 20  1  0  0  0  0
 19  8  2  0  0  0  0
 19 11  1  0  0  0  0
 20 15  2  0  0  0  0
 21  7  2  0  0  0  0
 21  4  1  0  0  0  0
 23 22  1  6  0  0  0
 23  4  1  0  0  0  0
 23 25  1  0  0  0  0
 24 25  1  0  0  0  0
 26 23  1  0  0  0  0
 26 34  1  1  0  0  0
 28 30  1  0  0  0  0
 29 31  1  0  0  0  0
 29 28  2  0  0  0  0
 30 33  2  0  0  0  0
 30 27  1  0  0  0  0
 31 32  2  0  0  0  0
 32 26  1  0  0  0  0
 32 33  1  0  0  0  0
 35 37  1  0  0  0  0
 35 34  1  0  0  0  0
 36 39  1  0  0  0  0
 37 39  1  0  0  0  0
 38 35  1  0  0  0  0
 38 36  1  0  0  0  0
 40 41  1  0  0  0  0
 41 44  1  0  0  0  0
 42 44  1  0  0  0  0
 42 45  1  0  0  0  0
 43 42  2  0  0  0  0
 44 46  1  0  0  0  0
 46 47  1  6  0  0  0
 46 51  1  0  0  0  0
 48 54  1  6  0  0  0
 48 52  1  0  0  0  0
 49 48  1  0  0  0  0
 50 52  2  0  0  0  0
 51 49  1  0  0  0  0
 51 53  2  0  0  0  0
 53 50  1  0  0  0  0
M  END
>  <MODEL>
3

>  <REMARK>
 VINA RESULT:      -7.7      1.364      2.702
  Name = 
  11 active torsions:
  status: ('A' for Active; 'I' for Inactive)
    1  A    between atoms: C_5  and  C_8
    2  A    between atoms: C_5  and  N_41
    3  A    between atoms: C_6  and  C_35
    4  A    between atoms: C_6  and  N_43
    5  A    between atoms: C_8  and  N_43
    6  A    between atoms: C_10  and  C_37
    7  A    between atoms: C_13  and  C_37
    8  A    between atoms: C_13  and  C_39
    9  A    between atoms: C_13  and  O_50
   10  A    between atoms: N_23  and  O_50
   11  A    between atoms: C_36  and  C_37
                            x       y       z     vdW  Elec       q    Type
                         _______ _______ _______ _____ _____    ______ ____

>  <TORSDO>
F 11

$$$$
=
 OpenBabel10222415353D

 54 60  0  0  1  0  0  0  0  0999 V2000
  187.8190  177.3480  137.9570 C   0  0  0  0  0  0  0  0  0  0  0  0
  186.8840  176.7560  137.2470 C   0  0  0  0  0  0  0  0  0  0  0  0
  187.4960  176.2740  135.7200 S   0  0  0  0  0  0  0  0  0  0  0  0
  187.5640  177.6320  139.3980 C   0  0  2  0  0  3  0  0  0  0  0  0
  189.3090  179.0330  136.9130 C   0  0  0  0  0  1  0  0  0  0  0  0
  183.4010  177.1460  138.4310 C   0  0  0  0  0  0  0  0  0  0  0  0
  185.2670  178.4550  139.2060 C   0  0  0  0  0  0  0  0  0  0  0  0
  184.3280  179.3770  139.7300 C   0  0  0  0  0  3  0  0  0  0  0  0
  189.1360  177.5620  137.2300 C   0  0  2  0  0  3  0  0  0  0  0  0
  185.5090  176.5980  137.6260 N   0  0  0  0  0  0  0  0  0  0  0  0
  182.5550  178.0500  138.9930 C   0  0  0  0  0  0  0  0  0  0  0  0
  187.3950  174.7880  135.5040 O   0  0  0  0  0  0  0  0  0  0  0  0
  184.7850  177.3330  138.4370 C   0  0  0  0  0  0  0  0  0  0  0  0
  180.0960  178.4090  139.1390 C   0  0  0  0  0  1  0  0  0  0  0  0
  182.5920  176.2080  137.8080 C   0  0  0  0  0  3  0  0  0  0  0  0
  189.1320  176.8140  135.9570 N   0  0  0  0  0  0  0  0  0  0  0  0
  186.8410  177.0340  134.6010 O   0  0  0  0  0  0  0  0  0  0  0  0
  181.2950  177.6950  138.7430 N   0  0  0  0  0  0  0  0  0  0  0  0
  182.9850  179.1760  139.6060 N   0  0  0  0  0  0  0  0  0  0  0  0
  181.3050  176.5760  138.0310 N   0  0  0  0  0  0  0  0  0  0  0  0
  186.5080  178.6160  139.5720 N   0  0  0  0  0  0  0  0  0  0  0  0
  189.2870  179.2450  140.2540 C   0  0  0  0  0  1  0  0  0  0  0  0
  188.7720  177.8060  140.3520 C   0  0  2  0  0  0  0  0  0  0  0  0
  191.2940  177.5060  139.9520 C   0  0  0  0  0  1  0  0  0  0  0  0
  189.9260  176.8390  140.0180 C   0  0  0  0  0  2  0  0  0  0  0  0
  188.3080  177.5250  141.8070 C   0  0  1  0  0  3  0  0  0  0  0  0
  191.5810  174.5160  143.8200 F   0  0  0  0  0  0  0  0  0  0  0  0
  191.3540  176.7010  144.7360 C   0  0  0  0  0  3  0  0  0  0  0  0
  190.7290  177.9520  144.7210 C   0  0  0  0  0  3  0  0  0  0  0  0
  190.9810  175.7260  143.8060 C   0  0  0  0  0  0  0  0  0  0  0  0
  189.7350  178.2270  143.7790 C   0  0  0  0  0  3  0  0  0  0  0  0
  189.3620  177.2510  142.8460 C   0  0  0  0  0  0  0  0  0  0  0  0
  189.9860  176.0030  142.8630 C   0  0  0  0  0  3  0  0  0  0  0  0
  187.1970  178.2710  142.2820 O   0  0  0  0  0  0  0  0  0  0  0  0
  186.3880  177.4230  142.9740 N   0  0  0  0  0  0  0  0  0  0  0  0
  184.5180  178.7330  143.8090 C   0  0  0  0  0  2  0  0  0  0  0  0
  186.5860  177.7050  144.3930 C   0  0  0  0  0  2  0  0  0  0  0  0
  185.0040  177.8120  142.6960 C   0  0  0  0  0  2  0  0  0  0  0  0
  185.6680  178.8420  144.7750 C   0  0  0  0  0  2  0  0  0  0  0  0
  190.0610  175.6800  136.0170 C   0  0  0  0  0  2  0  0  0  0  0  0
  190.9720  175.5470  134.7930 C   0  0  0  0  0  2  0  0  0  0  0  0
  191.2560  173.0710  135.0690 C   0  0  0  0  0  0  0  0  0  0  0  0
  190.0250  172.9090  134.8900 O   0  0  0  0  0  0  0  0  0  0  0  0
  191.8340  174.3870  134.9460 N   0  0  0  0  0  0  0  0  0  0  0  0
  192.0820  171.8810  135.4120 C   0  0  0  0  0  1  0  0  0  0  0  0
  193.2700  174.6550  135.0450 C   0  0  1  0  0  3  0  0  0  0  0  0
  193.5900  176.0740  134.5950 C   0  0  0  0  0  1  0  0  0  0  0  0
  194.8960  175.1850  138.4820 C   0  0  2  0  0  3  0  0  0  0  0  0
  193.6590  175.2290  137.5750 C   0  0  0  0  0  2  0  0  0  0  0  0
  195.1280  172.8190  137.8420 C   0  0  0  0  0  3  0  0  0  0  0  0
  193.8310  174.3000  136.3990 C   0  0  0  0  0  0  0  0  0  0  0  0
  195.2880  173.7630  138.7740 C   0  0  0  0  0  3  0  0  0  0  0  0
  194.4890  173.1460  136.5560 C   0  0  0  0  0  3  0  0  0  0  0  0
  194.6300  175.8610  139.6660 O   0  0  0  0  0  1  0  0  0  0  0  0
  1  4  1  0  0  0  0
  2 10  1  0  0  0  0
  2  1  2  0  0  0  0
  3 16  1  0  0  0  0
  3  2  1  0  0  0  0
  4 21  1  0  0  0  0
  4 23  1  6  0  0  0
  6 13  1  0  0  0  0
  6 11  2  0  0  0  0
  7 21  2  0  0  0  0
  7  8  1  0  0  0  0
  9  5  1  6  0  0  0
  9  1  1  0  0  0  0
 10 13  2  0  0  0  0
 11 19  1  0  0  0  0
 12  3  2  0  0  0  0
 13  7  1  0  0  0  0
 15 20  2  0  0  0  0
 15  6  1  0  0  0  0
 16 40  1  0  0  0  0
 16  9  1  0  0  0  0
 17  3  2  0  0  0  0
 18 11  1  0  0  0  0
 18 14  1  0  0  0  0
 19  8  2  0  0  0  0
 20 18  1  0  0  0  0
 23 22  1  6  0  0  0
 23 26  1  0  0  0  0
 24 25  1  0  0  0  0
 25 23  1  0  0  0  0
 26 34  1  1  0  0  0
 26 32  1  0  0  0  0
 29 28  1  0  0  0  0
 30 27  1  0  0  0  0
 30 28  2  0  0  0  0
 31 29  2  0  0  0  0
 32 33  2  0  0  0  0
 32 31  1  0  0  0  0
 33 30  1  0  0  0  0
 34 35  1  0  0  0  0
 35 37  1  0  0  0  0
 36 39  1  0  0  0  0
 37 39  1  0  0  0  0
 38 35  1  0  0  0  0
 38 36  1  0  0  0  0
 41 44  1  0  0  0  0
 41 40  1  0  0  0  0
 42 45  1  0  0  0  0
 43 42  2  0  0  0  0
 44 46  1  0  0  0  0
 44 42  1  0  0  0  0
 46 47  1  1  0  0  0
 46 51  1  0  0  0  0
 48 52  1  0  0  0  0
 48 54  1  1  0  0  0
 49 48  1  0  0  0  0
 50 52  2  0  0  0  0
 51 53  2  0  0  0  0
 51 49  1  0  0  0  0
 53 50  1  0  0  0  0
M  END
>  <MODEL>
4

>  <REMARK>
 VINA RESULT:      -6.9      3.122      9.787
  Name = 
  11 active torsions:
  status: ('A' for Active; 'I' for Inactive)
    1  A    between atoms: C_5  and  C_8
    2  A    between atoms: C_5  and  N_41
    3  A    between atoms: C_6  and  C_35
    4  A    between atoms: C_6  and  N_43
    5  A    between atoms: C_8  and  N_43
    6  A    between atoms: C_10  and  C_37
    7  A    between atoms: C_13  and  C_37
    8  A    between atoms: C_13  and  C_39
    9  A    between atoms: C_13  and  O_50
   10  A    between atoms: N_23  and  O_50
   11  A    between atoms: C_36  and  C_37
                            x       y       z     vdW  Elec       q    Type
                         _______ _______ _______ _____ _____    ______ ____

>  <TORSDO>
F 11

$$$$
=
 OpenBabel10222415353D

 54 60  0  0  1  0  0  0  0  0999 V2000
  187.1810  177.7730  138.6850 C   0  0  0  0  0  0  0  0  0  0  0  0
  186.7700  177.8180  139.9330 C   0  0  2  0  0  3  0  0  0  0  0  0
  185.2670  178.6330  140.0480 S   0  0  0  0  0  0  0  0  0  0  0  0
  188.3440  176.9070  138.3350 C   0  0  0  0  0  0  0  0  0  0  0  0
  187.0360  179.7850  137.2430 C   0  0  0  0  0  1  0  0  0  0  0  0
  189.2680  176.9950  142.5350 C   0  0  0  0  0  0  0  0  0  0  0  0
  189.7910  177.4580  140.2300 C   0  0  0  0  0  0  0  0  0  0  0  0
  191.1350  177.6490  140.6340 C   0  0  0  0  0  3  0  0  0  0  0  0
  186.3130  178.5340  137.6970 C   0  0  2  0  0  3  0  0  0  0  0  0
  187.4940  177.3430  141.0780 N   0  0  0  0  0  0  0  0  0  0  0  0
  190.5820  177.1520  142.8470 C   0  0  0  0  0  0  0  0  0  0  0  0
  184.1840  177.7620  140.6260 O   0  0  0  0  0  0  0  0  0  0  0  0
  188.7890  177.2120  141.2410 C   0  0  0  0  0  0  0  0  0  0  0  0
  191.9910  177.1290  144.9000 C   0  0  0  0  0  1  0  0  0  0  0  0
  188.6210  176.7480  143.7360 C   0  0  0  0  0  3  0  0  0  0  0  0
  185.0530  178.9420  138.3500 N   0  0  0  0  0  0  0  0  0  0  0  0
  185.3970  179.9210  140.8110 O   0  0  0  0  0  0  0  0  0  0  0  0
  190.7480  177.0050  144.1610 N   0  0  0  0  0  0  0  0  0  0  0  0
  191.5150  177.5110  141.9360 N   0  0  0  0  0  0  0  0  0  0  0  0
  189.5670  176.7530  144.7100 N   0  0  0  0  0  0  0  0  0  0  0  0
  189.5720  177.3870  138.9470 N   0  0  0  0  0  0  0  0  0  0  0  0
  189.4950  177.3220  136.1440 C   0  0  0  0  0  1  0  0  0  0  0  0
  188.4990  176.4170  136.8740 C   0  0  2  0  0  0  0  0  0  0  0  0
  187.2820  176.8690  134.6550 C   0  0  0  0  0  1  0  0  0  0  0  0
  187.1610  176.4260  136.1070 C   0  0  0  0  0  2  0  0  0  0  0  0
  189.0430  174.9620  136.8870 C   0  0  1  0  0  3  0  0  0  0  0  0
  185.0050  172.4640  138.0200 F   0  0  0  0  0  0  0  0  0  0  0  0
  186.2320  171.7990  136.0930 C   0  0  0  0  0  3  0  0  0  0  0  0
  187.3280  171.9800  135.2430 C   0  0  0  0  0  3  0  0  0  0  0  0
  186.0610  172.6400  137.1960 C   0  0  0  0  0  0  0  0  0  0  0  0
  188.2490  173.0000  135.4960 C   0  0  0  0  0  3  0  0  0  0  0  0
  188.0770  173.8440  136.6000 C   0  0  0  0  0  0  0  0  0  0  0  0
  186.9840  173.6600  137.4480 C   0  0  0  0  0  3  0  0  0  0  0  0
  190.3470  174.7590  136.3650 O   0  0  0  0  0  0  0  0  0  0  0  0
  191.0870  174.1320  137.3190 N   0  0  0  0  0  0  0  0  0  0  0  0
  193.2920  175.1560  137.3090 C   0  0  0  0  0  2  0  0  0  0  0  0
  192.0270  173.2570  136.6240 C   0  0  0  0  0  2  0  0  0  0  0  0
  191.9180  175.1480  137.9680 C   0  0  0  0  0  2  0  0  0  0  0  0
  193.2450  174.0740  136.2620 C   0  0  0  0  0  2  0  0  0  0  0  0
  183.9190  178.1820  137.8120 C   0  0  0  0  0  2  0  0  0  0  0  0
  182.6340  178.9990  137.6490 C   0  0  0  0  0  2  0  0  0  0  0  0
  180.8470  177.6300  138.7550 C   0  0  0  0  0  0  0  0  0  0  0  0
  181.1700  178.1070  139.8690 O   0  0  0  0  0  0  0  0  0  0  0  0
  181.4920  178.1050  137.5550 N   0  0  0  0  0  0  0  0  0  0  0  0
  179.7990  176.5740  138.7160 C   0  0  0  0  0  1  0  0  0  0  0  0
  181.1150  177.6750  136.2060 C   0  0  1  0  0  3  0  0  0  0  0  0
  181.1280  178.8500  135.2390 C   0  0  0  0  0  1  0  0  0  0  0  0
  182.7190  174.1900  136.3200 C   0  0  2  0  0  3  0  0  0  0  0  0
  181.4900  175.0810  136.0990 C   0  0  0  0  0  2  0  0  0  0  0  0
  183.8520  175.5380  134.6000 C   0  0  0  0  0  3  0  0  0  0  0  0
  181.9110  176.4840  135.7370 C   0  0  0  0  0  0  0  0  0  0  0  0
  183.6990  174.3490  135.1910 C   0  0  0  0  0  3  0  0  0  0  0  0
  183.0040  176.6760  134.9910 C   0  0  0  0  0  3  0  0  0  0  0  0
  182.3210  172.8630  136.4240 O   0  0  0  0  0  1  0  0  0  0  0  0
  2  1  1  1  0  0  0
  2  3  1  0  0  0  0
  2 10  1  0  0  0  0
  3 12  2  0  0  0  0
  3 17  2  0  0  0  0
  4  1  2  0  0  0  0
  4 21  1  0  0  0  0
  6 11  2  0  0  0  0
  6 15  1  0  0  0  0
  7  8  1  0  0  0  0
  7 13  1  0  0  0  0
  8 19  2  0  0  0  0
  9  5  1  1  0  0  0
  9 16  1  0  0  0  0
  9  1  1  0  0  0  0
 10 13  2  0  0  0  0
 11 18  1  0  0  0  0
 13  6  1  0  0  0  0
 15 20  2  0  0  0  0
 16  3  1  0  0  0  0
 18 20  1  0  0  0  0
 18 14  1  0  0  0  0
 19 11  1  0  0  0  0
 21  7  2  0  0  0  0
 23 22  1  6  0  0  0
 23 26  1  0  0  0  0
 23  4  1  0  0  0  0
 24 25  1  0  0  0  0
 25 23  1  0  0  0  0
 26 34  1  6  0  0  0
 28 30  1  0  0  0  0
 29 31  1  0  0  0  0
 29 28  2  0  0  0  0
 30 33  2  0  0  0  0
 30 27  1  0  0  0  0
 31 32  2  0  0  0  0
 32 26  1  0  0  0  0
 32 33  1  0  0  0  0
 34 35  1  0  0  0  0
 35 38  1  0  0  0  0
 36 38  1  0  0  0  0
 37 35  1  0  0  0  0
 39 37  1  0  0  0  0
 39 36  1  0  0  0  0
 40 16  1  0  0  0  0
 41 40  1  0  0  0  0
 42 43  2  0  0  0  0
 44 41  1  0  0  0  0
 44 42  1  0  0  0  0
 45 42  1  0  0  0  0
 46 47  1  6  0  0  0
 46 44  1  0  0  0  0
 48 54  1  6  0  0  0
 49 48  1  0  0  0  0
 50 53  1  0  0  0  0
 50 52  2  0  0  0  0
 51 49  1  0  0  0  0
 51 46  1  0  0  0  0
 52 48  1  0  0  0  0
 53 51  2  0  0  0  0
M  END
>  <MODEL>
5

>  <REMARK>
 VINA RESULT:      -6.4      2.841      7.223
  Name = 
  11 active torsions:
  status: ('A' for Active; 'I' for Inactive)
    1  A    between atoms: C_5  and  C_8
    2  A    between atoms: C_5  and  N_41
    3  A    between atoms: C_6  and  C_35
    4  A    between atoms: C_6  and  N_43
    5  A    between atoms: C_8  and  N_43
    6  A    between atoms: C_10  and  C_37
    7  A    between atoms: C_13  and  C_37
    8  A    between atoms: C_13  and  C_39
    9  A    between atoms: C_13  and  O_50
   10  A    between atoms: N_23  and  O_50
   11  A    between atoms: C_36  and  C_37
                            x       y       z     vdW  Elec       q    Type
                         _______ _______ _______ _____ _____    ______ ____

>  <TORSDO>
F 11

$$$$
=
 OpenBabel10222415353D

 54 60  0  0  1  0  0  0  0  0999 V2000
  187.2320  177.8010  138.6490 C   0  0  0  0  0  0  0  0  0  0  0  0
  186.7500  177.8310  139.8730 C   0  0  2  0  0  3  0  0  0  0  0  0
  185.2330  178.6280  139.9090 S   0  0  0  0  0  0  0  0  0  0  0  0
  188.4220  176.9520  138.3590 C   0  0  0  0  0  0  0  0  0  0  0  0
  187.1450  179.8240  137.2190 C   0  0  0  0  0  1  0  0  0  0  0  0
  189.1070  177.0130  142.6060 C   0  0  0  0  0  0  0  0  0  0  0  0
  189.7530  177.5030  140.3380 C   0  0  0  0  0  0  0  0  0  0  0  0
  191.0700  177.7050  140.8190 C   0  0  0  0  0  3  0  0  0  0  0  0
  186.4120  178.5620  137.6210 C   0  0  2  0  0  3  0  0  0  0  0  0
  187.4140  177.3540  141.0530 N   0  0  0  0  0  0  0  0  0  0  0  0
  190.3990  177.1830  142.9930 C   0  0  0  0  0  0  0  0  0  0  0  0
  184.1300  177.7400  140.4180 O   0  0  0  0  0  0  0  0  0  0  0  0
  188.6990  177.2360  141.2880 C   0  0  0  0  0  0  0  0  0  0  0  0
  191.6890  177.1570  145.1210 C   0  0  0  0  0  1  0  0  0  0  0  0
  188.3960  176.7480  143.7660 C   0  0  0  0  0  3  0  0  0  0  0  0
  185.1120  178.9490  138.2040 N   0  0  0  0  0  0  0  0  0  0  0  0
  185.3050  179.9110  140.6890 O   0  0  0  0  0  0  0  0  0  0  0  0
  190.4920  177.0260  144.3130 N   0  0  0  0  0  0  0  0  0  0  0  0
  191.3770  177.5600  142.1390 N   0  0  0  0  0  0  0  0  0  0  0  0
  189.2840  176.7560  144.7910 N   0  0  0  0  0  0  0  0  0  0  0  0
  189.6090  177.4400  139.0440 N   0  0  0  0  0  0  0  0  0  0  0  0
  189.7150  177.3790  136.2500 C   0  0  0  0  0  1  0  0  0  0  0  0
  188.6660  176.4770  136.9060 C   0  0  2  0  0  0  0  0  0  0  0  0
  187.6080  176.8900  134.5990 C   0  0  0  0  0  1  0  0  0  0  0  0
  187.3790  176.5080  136.0550 C   0  0  0  0  0  2  0  0  0  0  0  0
  189.1930  175.0160  136.9360 C   0  0  1  0  0  3  0  0  0  0  0  0
  185.0640  172.6270  137.9650 F   0  0  0  0  0  0  0  0  0  0  0  0
  186.3610  171.8790  136.1160 C   0  0  0  0  0  3  0  0  0  0  0  0
  187.4960  172.0140  135.3110 C   0  0  0  0  0  3  0  0  0  0  0  0
  186.1580  172.7570  137.1840 C   0  0  0  0  0  0  0  0  0  0  0  0
  188.4240  173.0250  135.5730 C   0  0  0  0  0  3  0  0  0  0  0  0
  188.2210  173.9060  136.6420 C   0  0  0  0  0  0  0  0  0  0  0  0
  187.0870  173.7690  137.4450 C   0  0  0  0  0  3  0  0  0  0  0  0
  190.5030  174.7960  136.4350 O   0  0  0  0  0  0  0  0  0  0  0  0
  191.2490  174.2560  137.4360 N   0  0  0  0  0  0  0  0  0  0  0  0
  193.4690  175.2360  137.2910 C   0  0  0  0  0  2  0  0  0  0  0  0
  192.1640  173.2990  136.8190 C   0  0  0  0  0  2  0  0  0  0  0  0
  192.1060  175.3170  137.9680 C   0  0  0  0  0  2  0  0  0  0  0  0
  193.3880  174.0550  136.3590 C   0  0  0  0  0  2  0  0  0  0  0  0
  184.0190  178.1810  137.5960 C   0  0  0  0  0  2  0  0  0  0  0  0
  182.6360  178.8170  137.7610 C   0  0  0  0  0  2  0  0  0  0  0  0
  181.3150  177.7050  135.9420 C   0  0  0  0  0  0  0  0  0  0  0  0
  182.0440  178.2500  135.0790 O   0  0  0  0  0  0  0  0  0  0  0  0
  181.6100  177.8760  137.3440 N   0  0  0  0  0  0  0  0  0  0  0  0
  180.1540  176.8970  135.4780 C   0  0  0  0  0  1  0  0  0  0  0  0
  180.8720  177.2040  138.4160 C   0  0  1  0  0  3  0  0  0  0  0  0
  181.6400  175.9910  138.9250 C   0  0  0  0  0  1  0  0  0  0  0  0
  180.0740  180.5530  140.1120 C   0  0  2  0  0  3  0  0  0  0  0  0
  179.6730  179.4120  139.1690 C   0  0  0  0  0  2  0  0  0  0  0  0
  180.4100  178.8380  141.8450 C   0  0  0  0  0  3  0  0  0  0  0  0
  180.4390  178.1550  139.5020 C   0  0  0  0  0  0  0  0  0  0  0  0
  180.0560  180.0900  141.5420 C   0  0  0  0  0  3  0  0  0  0  0  0
  180.7380  177.8800  140.7760 C   0  0  0  0  0  3  0  0  0  0  0  0
  179.2040  181.6240  139.9440 O   0  0  0  0  0  1  0  0  0  0  0  0
  2  1  1  1  0  0  0
  2  3  1  0  0  0  0
  2 10  1  0  0  0  0
  3 12  2  0  0  0  0
  3 17  2  0  0  0  0
  4  1  2  0  0  0  0
  4 21  1  0  0  0  0
  6 11  2  0  0  0  0
  6 15  1  0  0  0  0
  7  8  1  0  0  0  0
  7 13  1  0  0  0  0
  8 19  2  0  0  0  0
  9  5  1  1  0  0  0
  9 16  1  0  0  0  0
  9  1  1  0  0  0  0
 10 13  2  0  0  0  0
 11 18  1  0  0  0  0
 13  6  1  0  0  0  0
 15 20  2  0  0  0  0
 16  3  1  0  0  0  0
 18 20  1  0  0  0  0
 18 14  1  0  0  0  0
 19 11  1  0  0  0  0
 21  7  2  0  0  0  0
 23 22  1  6  0  0  0
 23 26  1  0  0  0  0
 23  4  1  0  0  0  0
 24 25  1  0  0  0  0
 25 23  1  0  0  0  0
 26 34  1  6  0  0  0
 28 30  1  0  0  0  0
 29 31  1  0  0  0  0
 29 28  2  0  0  0  0
 30 33  2  0  0  0  0
 30 27  1  0  0  0  0
 31 32  2  0  0  0  0
 32 26  1  0  0  0  0
 32 33  1  0  0  0  0
 34 35  1  0  0  0  0
 35 38  1  0  0  0  0
 36 38  1  0  0  0  0
 37 35  1  0  0  0  0
 39 37  1  0  0  0  0
 39 36  1  0  0  0  0
 40 41  1  0  0  0  0
 40 16  1  0  0  0  0
 42 44  1  0  0  0  0
 43 42  2  0  0  0  0
 44 41  1  0  0  0  0
 44 46  1  0  0  0  0
 45 42  1  0  0  0  0
 46 47  1  1  0  0  0
 46 51  1  0  0  0  0
 48 54  1  1  0  0  0
 48 52  1  0  0  0  0
 49 51  1  0  0  0  0
 49 48  1  0  0  0  0
 51 53  2  0  0  0  0
 52 50  2  0  0  0  0
 53 50  1  0  0  0  0
M  END
>  <MODEL>
6

>  <REMARK>
 VINA RESULT:      -6.3      3.354      6.806
  Name = 
  11 active torsions:
  status: ('A' for Active; 'I' for Inactive)
    1  A    between atoms: C_5  and  C_8
    2  A    between atoms: C_5  and  N_41
    3  A    between atoms: C_6  and  C_35
    4  A    between atoms: C_6  and  N_43
    5  A    between atoms: C_8  and  N_43
    6  A    between atoms: C_10  and  C_37
    7  A    between atoms: C_13  and  C_37
    8  A    between atoms: C_13  and  C_39
    9  A    between atoms: C_13  and  O_50
   10  A    between atoms: N_23  and  O_50
   11  A    between atoms: C_36  and  C_37
                            x       y       z     vdW  Elec       q    Type
                         _______ _______ _______ _____ _____    ______ ____

>  <TORSDO>
F 11

$$$$
=
 OpenBabel10222415353D

 54 60  0  0  1  0  0  0  0  0999 V2000
  187.1430  177.7020  138.6010 C   0  0  0  0  0  0  0  0  0  0  0  0
  186.6700  177.7420  139.8270 C   0  0  2  0  0  3  0  0  0  0  0  0
  185.1120  178.4570  139.8530 S   0  0  0  0  0  0  0  0  0  0  0  0
  188.3760  176.9100  138.3250 C   0  0  0  0  0  0  0  0  0  0  0  0
  186.9350  179.6720  137.1100 C   0  0  0  0  0  1  0  0  0  0  0  0
  189.0880  177.1380  142.5620 C   0  0  0  0  0  0  0  0  0  0  0  0
  189.6890  177.5920  140.2740 C   0  0  0  0  0  0  0  0  0  0  0  0
  190.9960  177.8800  140.7370 C   0  0  0  0  0  3  0  0  0  0  0  0
  186.2750  178.3840  137.5570 C   0  0  2  0  0  3  0  0  0  0  0  0
  187.3670  177.3390  141.0150 N   0  0  0  0  0  0  0  0  0  0  0  0
  190.3720  177.3890  142.9320 C   0  0  0  0  0  0  0  0  0  0  0  0
  184.0620  177.5260  140.3980 O   0  0  0  0  0  0  0  0  0  0  0  0
  188.6590  177.2980  141.2410 C   0  0  0  0  0  0  0  0  0  0  0  0
  191.6770  177.4990  145.0480 C   0  0  0  0  0  1  0  0  0  0  0  0
  188.4010  176.8710  143.7360 C   0  0  0  0  0  3  0  0  0  0  0  0
  184.9610  178.7190  138.1400 N   0  0  0  0  0  0  0  0  0  0  0  0
  185.1200  179.7650  140.5930 O   0  0  0  0  0  0  0  0  0  0  0  0
  190.4830  177.2780  144.2550 N   0  0  0  0  0  0  0  0  0  0  0  0
  191.3220  177.7930  142.0580 N   0  0  0  0  0  0  0  0  0  0  0  0
  189.2950  176.9580  144.7520 N   0  0  0  0  0  0  0  0  0  0  0  0
  189.5390  177.4820  138.9840 N   0  0  0  0  0  0  0  0  0  0  0  0
  189.5660  177.3850  136.1670 C   0  0  0  0  0  1  0  0  0  0  0  0
  188.6340  176.4040  136.8850 C   0  0  2  0  0  0  0  0  0  0  0  0
  187.4820  176.6210  134.5960 C   0  0  0  0  0  1  0  0  0  0  0  0
  187.3320  176.2660  136.0690 C   0  0  0  0  0  2  0  0  0  0  0  0
  189.3140  175.0090  136.9550 C   0  0  1  0  0  3  0  0  0  0  0  0
  185.2970  172.2960  137.5220 F   0  0  0  0  0  0  0  0  0  0  0  0
  186.9090  171.5910  135.9200 C   0  0  0  0  0  3  0  0  0  0  0  0
  188.1340  171.7960  135.2770 C   0  0  0  0  0  3  0  0  0  0  0  0
  186.4780  172.4930  136.8980 C   0  0  0  0  0  0  0  0  0  0  0  0
  188.9240  172.8990  135.6110 C   0  0  0  0  0  3  0  0  0  0  0  0
  188.4930  173.8030  136.5890 C   0  0  0  0  0  0  0  0  0  0  0  0
  187.2700  173.5960  137.2300 C   0  0  0  0  0  3  0  0  0  0  0  0
  190.6730  174.9370  136.5550 O   0  0  0  0  0  0  0  0  0  0  0  0
  191.3960  174.4640  137.6070 N   0  0  0  0  0  0  0  0  0  0  0  0
  193.5850  175.5160  137.5090 C   0  0  0  0  0  2  0  0  0  0  0  0
  192.3670  173.5160  137.0680 C   0  0  0  0  0  2  0  0  0  0  0  0
  192.1930  175.5760  138.1270 C   0  0  0  0  0  2  0  0  0  0  0  0
  193.5830  174.2960  136.6250 C   0  0  0  0  0  2  0  0  0  0  0  0
  183.9070  177.8740  137.5660 C   0  0  0  0  0  2  0  0  0  0  0  0
  182.7960  178.6510  136.8540 C   0  0  0  0  0  2  0  0  0  0  0  0
  180.8940  177.1270  137.4470 C   0  0  0  0  0  0  0  0  0  0  0  0
  181.5080  176.1610  136.9320 O   0  0  0  0  0  0  0  0  0  0  0  0
  181.5270  178.4210  137.5260 N   0  0  0  0  0  0  0  0  0  0  0  0
  179.5160  176.8970  137.9570 C   0  0  0  0  0  1  0  0  0  0  0  0
  180.9260  179.5790  138.1910 C   0  0  1  0  0  3  0  0  0  0  0  0
  181.5210  179.7770  139.5790 C   0  0  0  0  0  1  0  0  0  0  0  0
  180.7910  183.3120  137.3080 C   0  0  2  0  0  3  0  0  0  0  0  0
  181.5660  182.0990  137.8370 C   0  0  0  0  0  2  0  0  0  0  0  0
  180.3530  181.9920  135.2770 C   0  0  0  0  0  3  0  0  0  0  0  0
  180.9530  180.8160  137.3300 C   0  0  0  0  0  0  0  0  0  0  0  0
  180.5640  183.1920  135.8270 C   0  0  0  0  0  3  0  0  0  0  0  0
  180.4260  180.7750  136.1020 C   0  0  0  0  0  3  0  0  0  0  0  0
  181.4960  184.4750  137.5920 O   0  0  0  0  0  1  0  0  0  0  0  0
  2  1  1  1  0  0  0
  2  3  1  0  0  0  0
  2 10  1  0  0  0  0
  3 12  2  0  0  0  0
  3 17  2  0  0  0  0
  4  1  2  0  0  0  0
  4 21  1  0  0  0  0
  6 11  2  0  0  0  0
  6 15  1  0  0  0  0
  7  8  1  0  0  0  0
  7 13  1  0  0  0  0
  8 19  2  0  0  0  0
  9  5  1  1  0  0  0
  9 16  1  0  0  0  0
  9  1  1  0  0  0  0
 10 13  2  0  0  0  0
 11 18  1  0  0  0  0
 13  6  1  0  0  0  0
 15 20  2  0  0  0  0
 16  3  1  0  0  0  0
 18 20  1  0  0  0  0
 18 14  1  0  0  0  0
 19 11  1  0  0  0  0
 21  7  2  0  0  0  0
 23 22  1  6  0  0  0
 23 26  1  0  0  0  0
 23  4  1  0  0  0  0
 24 25  1  0  0  0  0
 25 23  1  0  0  0  0
 26 34  1  6  0  0  0
 28 30  1  0  0  0  0
 29 31  1  0  0  0  0
 29 28  2  0  0  0  0
 30 33  2  0  0  0  0
 30 27  1  0  0  0  0
 31 32  2  0  0  0  0
 32 26  1  0  0  0  0
 32 33  1  0  0  0  0
 34 35  1  0  0  0  0
 35 38  1  0  0  0  0
 36 38  1  0  0  0  0
 37 35  1  0  0  0  0
 39 37  1  0  0  0  0
 39 36  1  0  0  0  0
 40 16  1  0  0  0  0
 41 44  1  0  0  0  0
 41 40  1  0  0  0  0
 42 44  1  0  0  0  0
 42 45  1  0  0  0  0
 43 42  2  0  0  0  0
 44 46  1  0  0  0  0
 46 47  1  1  0  0  0
 48 54  1  6  0  0  0
 48 49  1  0  0  0  0
 50 52  2  0  0  0  0
 50 53  1  0  0  0  0
 51 49  1  0  0  0  0
 51 46  1  0  0  0  0
 52 48  1  0  0  0  0
 53 51  2  0  0  0  0
M  END
>  <MODEL>
7

>  <REMARK>
 VINA RESULT:      -6.2      3.711      7.447
  Name = 
  11 active torsions:
  status: ('A' for Active; 'I' for Inactive)
    1  A    between atoms: C_5  and  C_8
    2  A    between atoms: C_5  and  N_41
    3  A    between atoms: C_6  and  C_35
    4  A    between atoms: C_6  and  N_43
    5  A    between atoms: C_8  and  N_43
    6  A    between atoms: C_10  and  C_37
    7  A    between atoms: C_13  and  C_37
    8  A    between atoms: C_13  and  C_39
    9  A    between atoms: C_13  and  O_50
   10  A    between atoms: N_23  and  O_50
   11  A    between atoms: C_36  and  C_37
                            x       y       z     vdW  Elec       q    Type
                         _______ _______ _______ _____ _____    ______ ____

>  <TORSDO>
F 11

$$$$
=
 OpenBabel10222415353D

 54 60  0  0  1  0  0  0  0  0999 V2000
  189.0720  177.0490  139.0790 C   0  0  0  0  0  0  0  0  0  0  0  0
  190.0930  176.4040  139.6000 C   0  0  2  0  0  3  0  0  0  0  0  0
  190.2470  176.7600  141.2700 S   0  0  0  0  0  0  0  0  0  0  0  0
  188.6210  176.7010  137.7020 C   0  0  0  0  0  0  0  0  0  0  0  0
  188.6900  179.4390  139.6210 C   0  0  0  0  0  1  0  0  0  0  0  0
  192.5050  174.9140  137.2230 C   0  0  0  0  0  0  0  0  0  0  0  0
  190.8160  176.5270  136.6330 C   0  0  0  0  0  0  0  0  0  0  0  0
  191.5300  176.7480  135.4310 C   0  0  0  0  0  3  0  0  0  0  0  0
  188.3750  178.0140  140.0240 C   0  0  2  0  0  3  0  0  0  0  0  0
  191.0260  175.5810  138.8840 N   0  0  0  0  0  0  0  0  0  0  0  0
  193.1180  175.1470  136.0320 C   0  0  0  0  0  0  0  0  0  0  0  0
  190.1360  175.5300  142.1310 O   0  0  0  0  0  0  0  0  0  0  0  0
  191.3770  175.6360  137.6210 C   0  0  0  0  0  0  0  0  0  0  0  0
  195.1850  174.3990  134.8620 C   0  0  0  0  0  1  0  0  0  0  0  0
  193.3050  173.9980  137.8880 C   0  0  0  0  0  3  0  0  0  0  0  0
  188.8640  177.8060  141.4010 N   0  0  0  0  0  0  0  0  0  0  0  0
  191.5150  177.5140  141.5570 O   0  0  0  0  0  0  0  0  0  0  0  0
  194.2300  174.4160  135.9540 N   0  0  0  0  0  0  0  0  0  0  0  0
  192.6800  176.0720  135.1480 N   0  0  0  0  0  0  0  0  0  0  0  0
  194.3490  173.7100  137.0710 N   0  0  0  0  0  0  0  0  0  0  0  0
  189.6230  177.0460  136.7060 N   0  0  0  0  0  0  0  0  0  0  0  0
  187.1660  178.1870  136.2970 C   0  0  0  0  0  1  0  0  0  0  0  0
  187.1630  177.0200  137.2890 C   0  0  2  0  0  0  0  0  0  0  0  0
  185.4670  178.6670  138.3000 C   0  0  0  0  0  1  0  0  0  0  0  0
  186.2800  177.3940  138.4970 C   0  0  0  0  0  2  0  0  0  0  0  0
  186.5480  175.7680  136.6060 C   0  0  1  0  0  3  0  0  0  0  0  0
  182.3780  177.3160  134.5960 F   0  0  0  0  0  0  0  0  0  0  0  0
  182.2660  175.5650  136.2030 C   0  0  0  0  0  3  0  0  0  0  0  0
  182.9190  174.7080  137.0950 C   0  0  0  0  0  3  0  0  0  0  0  0
  183.0070  176.4850  135.4560 C   0  0  0  0  0  0  0  0  0  0  0  0
  184.3070  174.7710  137.2380 C   0  0  0  0  0  3  0  0  0  0  0  0
  185.0500  175.6910  136.4880 C   0  0  0  0  0  0  0  0  0  0  0  0
  184.3960  176.5460  135.5990 C   0  0  0  0  0  3  0  0  0  0  0  0
  187.2520  175.2310  135.4970 O   0  0  0  0  0  0  0  0  0  0  0  0
  187.1640  173.8740  135.5610 N   0  0  0  0  0  0  0  0  0  0  0  0
  189.0970  173.0830  136.8040 C   0  0  0  0  0  2  0  0  0  0  0  0
  188.1530  173.3370  134.6310 C   0  0  0  0  0  2  0  0  0  0  0  0
  187.6250  173.4660  136.8890 C   0  0  0  0  0  2  0  0  0  0  0  0
  189.4760  173.2520  135.3560 C   0  0  0  0  0  2  0  0  0  0  0  0
  187.8210  177.2030  142.2390 C   0  0  0  0  0  2  0  0  0  0  0  0
  188.1320  177.2170  143.7390 C   0  0  0  0  0  2  0  0  0  0  0  0
  185.8220  178.1950  143.7650 C   0  0  0  0  0  0  0  0  0  0  0  0
  185.6550  177.8330  142.5740 O   0  0  0  0  0  0  0  0  0  0  0  0
  187.0330  177.8370  144.4610 N   0  0  0  0  0  0  0  0  0  0  0  0
  184.7500  178.9960  144.4160 C   0  0  0  0  0  1  0  0  0  0  0  0
  187.2740  178.1350  145.8750 C   0  0  1  0  0  3  0  0  0  0  0  0
  186.2250  177.4690  146.7560 C   0  0  0  0  0  1  0  0  0  0  0  0
  190.9640  177.1430  145.5130 C   0  0  2  0  0  3  0  0  0  0  0  0
  189.8490  178.1890  145.3810 C   0  0  0  0  0  2  0  0  0  0  0  0
  190.3010  176.9130  147.8720 C   0  0  0  0  0  3  0  0  0  0  0  0
  188.6940  177.8500  146.2910 C   0  0  0  0  0  0  0  0  0  0  0  0
  191.2760  176.8810  146.9600 C   0  0  0  0  0  3  0  0  0  0  0  0
  188.9310  177.2890  147.4820 C   0  0  0  0  0  3  0  0  0  0  0  0
  192.1010  177.5880  144.8500 O   0  0  0  0  0  1  0  0  0  0  0  0
  1  2  1  0  0  0  0
  1  9  1  0  0  0  0
  2 10  1  6  0  0  0
  2  3  1  0  0  0  0
  3 16  1  0  0  0  0
  3 17  2  0  0  0  0
  3 12  2  0  0  0  0
  4  1  2  0  0  0  0
  6 13  1  0  0  0  0
  6 15  1  0  0  0  0
  7 21  2  0  0  0  0
  7 13  1  0  0  0  0
  8  7  1  0  0  0  0
  9  5  1  6  0  0  0
  9 16  1  0  0  0  0
 11  6  2  0  0  0  0
 13 10  2  0  0  0  0
 14 18  1  0  0  0  0
 16 40  1  0  0  0  0
 18 11  1  0  0  0  0
 18 20  1  0  0  0  0
 19  8  2  0  0  0  0
 19 11  1  0  0  0  0
 20 15  2  0  0  0  0
 21  4  1  0  0  0  0
 23 22  1  6  0  0  0
 23  4  1  0  0  0  0
 23 25  1  0  0  0  0
 24 25  1  0  0  0  0
 26 34  1  6  0  0  0
 26 23  1  0  0  0  0
 27 30  1  0  0  0  0
 28 29  1  0  0  0  0
 29 31  2  0  0  0  0
 30 33  1  0  0  0  0
 30 28  2  0  0  0  0
 32 26  1  0  0  0  0
 32 31  1  0  0  0  0
 33 32  2  0  0  0  0
 34 35  1  0  0  0  0
 35 38  1  0  0  0  0
 36 38  1  0  0  0  0
 37 39  1  0  0  0  0
 37 35  1  0  0  0  0
 39 36  1  0  0  0  0
 40 41  1  0  0  0  0
 41 44  1  0  0  0  0
 42 45  1  0  0  0  0
 42 44  1  0  0  0  0
 43 42  2  0  0  0  0
 44 46  1  0  0  0  0
 46 51  1  0  0  0  0
 46 47  1  1  0  0  0
 48 54  1  6  0  0  0
 48 52  1  0  0  0  0
 49 48  1  0  0  0  0
 49 51  1  0  0  0  0
 51 53  2  0  0  0  0
 52 50  2  0  0  0  0
 53 50  1  0  0  0  0
M  END
>  <MODEL>
8

>  <REMARK>
 VINA RESULT:      -6.0      1.563      2.104
  Name = 
  11 active torsions:
  status: ('A' for Active; 'I' for Inactive)
    1  A    between atoms: C_5  and  C_8
    2  A    between atoms: C_5  and  N_41
    3  A    between atoms: C_6  and  C_35
    4  A    between atoms: C_6  and  N_43
    5  A    between atoms: C_8  and  N_43
    6  A    between atoms: C_10  and  C_37
    7  A    between atoms: C_13  and  C_37
    8  A    between atoms: C_13  and  C_39
    9  A    between atoms: C_13  and  O_50
   10  A    between atoms: N_23  and  O_50
   11  A    between atoms: C_36  and  C_37
                            x       y       z     vdW  Elec       q    Type
                         _______ _______ _______ _____ _____    ______ ____

>  <TORSDO>
F 11

$$$$
=
 OpenBabel10222415353D

 54 60  0  0  1  0  0  0  0  0999 V2000
  186.6460  178.0630  140.9080 C   0  0  0  0  0  0  0  0  0  0  0  0
  187.7810  177.3990  140.9490 C   0  0  2  0  0  3  0  0  0  0  0  0
  188.4350  177.4140  142.5330 S   0  0  0  0  0  0  0  0  0  0  0  0
  185.7970  177.9730  139.6860 C   0  0  0  0  0  0  0  0  0  0  0  0
  186.4350  180.2560  142.0440 C   0  0  0  0  0  1  0  0  0  0  0  0
  189.3580  176.6030  137.6980 C   0  0  0  0  0  0  0  0  0  0  0  0
  187.5610  178.1780  138.0020 C   0  0  0  0  0  0  0  0  0  0  0  0
  187.8740  178.6920  136.7200 C   0  0  0  0  0  3  0  0  0  0  0  0
  186.2660  178.7600  142.2030 C   0  0  2  0  0  3  0  0  0  0  0  0
  188.4540  176.8090  139.8270 N   0  0  0  0  0  0  0  0  0  0  0  0
  189.5780  177.1180  136.4590 C   0  0  0  0  0  0  0  0  0  0  0  0
  188.5990  176.0290  143.1000 O   0  0  0  0  0  0  0  0  0  0  0  0
  188.4020  177.1460  138.5600 C   0  0  0  0  0  0  0  0  0  0  0  0
  191.1910  176.7750  134.5950 C   0  0  0  0  0  1  0  0  0  0  0  0
  190.3280  175.6300  137.8800 C   0  0  0  0  0  3  0  0  0  0  0  0
  187.1530  178.3100  143.2930 N   0  0  0  0  0  0  0  0  0  0  0  0
  189.7260  178.1810  142.5860 O   0  0  0  0  0  0  0  0  0  0  0  0
  190.6160  176.5000  135.8980 N   0  0  0  0  0  0  0  0  0  0  0  0
  188.8850  178.1710  135.9690 N   0  0  0  0  0  0  0  0  0  0  0  0
  191.0750  175.5900  136.7480 N   0  0  0  0  0  0  0  0  0  0  0  0
  186.4450  178.5860  138.5370 N   0  0  0  0  0  0  0  0  0  0  0  0
  184.0290  179.7450  139.4990 C   0  0  0  0  0  1  0  0  0  0  0  0
  184.2810  178.2660  139.8040 C   0  0  2  0  0  0  0  0  0  0  0  0
  182.8210  179.0250  141.7790 C   0  0  0  0  0  1  0  0  0  0  0  0
  183.7300  177.9440  141.2080 C   0  0  0  0  0  2  0  0  0  0  0  0
  183.5180  177.3930  138.7700 C   0  0  1  0  0  3  0  0  0  0  0  0
  180.1480  174.3480  140.5570 F   0  0  0  0  0  0  0  0  0  0  0  0
  179.4140  176.4110  139.6250 C   0  0  0  0  0  3  0  0  0  0  0  0
  179.7200  177.6260  139.0030 C   0  0  0  0  0  3  0  0  0  0  0  0
  180.4410  175.5230  139.9580 C   0  0  0  0  0  0  0  0  0  0  0  0
  181.0480  177.9500  138.7160 C   0  0  0  0  0  3  0  0  0  0  0  0
  182.0770  177.0620  139.0500 C   0  0  0  0  0  0  0  0  0  0  0  0
  181.7690  175.8500  139.6700 C   0  0  0  0  0  3  0  0  0  0  0  0
  183.8130  177.6150  137.4000 O   0  0  0  0  0  0  0  0  0  0  0  0
  183.6670  176.4330  136.7420 N   0  0  0  0  0  0  0  0  0  0  0  0
  185.8590  175.7960  135.9080 C   0  0  0  0  0  2  0  0  0  0  0  0
  183.7480  176.7260  135.3130 C   0  0  0  0  0  2  0  0  0  0  0  0
  184.8470  175.6190  137.0340 C   0  0  0  0  0  2  0  0  0  0  0  0
  185.2070  176.7270  134.9200 C   0  0  0  0  0  2  0  0  0  0  0  0
  186.4190  177.4750  144.2510 C   0  0  0  0  0  2  0  0  0  0  0  0
  187.2450  177.0300  145.4610 C   0  0  0  0  0  2  0  0  0  0  0  0
  186.0220  178.8920  146.6130 C   0  0  0  0  0  0  0  0  0  0  0  0
  185.0020  178.6480  145.9240 O   0  0  0  0  0  0  0  0  0  0  0  0
  187.1860  178.0490  146.4970 N   0  0  0  0  0  0  0  0  0  0  0  0
  185.9910  180.0640  147.5300 C   0  0  0  0  0  1  0  0  0  0  0  0
  188.3850  178.2010  147.3250 C   0  0  1  0  0  3  0  0  0  0  0  0
  188.0820  177.8750  148.7820 C   0  0  0  0  0  1  0  0  0  0  0  0
  191.6330  176.1550  147.3190 C   0  0  2  0  0  3  0  0  0  0  0  0
  190.1060  176.2250  147.4480 C   0  0  0  0  0  2  0  0  0  0  0  0
  191.3730  177.2550  145.1310 C   0  0  0  0  0  3  0  0  0  0  0  0
  189.5710  177.4590  146.7650 C   0  0  0  0  0  0  0  0  0  0  0  0
  192.0550  176.3970  145.8960 C   0  0  0  0  0  3  0  0  0  0  0  0
  190.1560  177.9030  145.6470 C   0  0  0  0  0  3  0  0  0  0  0  0
  192.0810  174.9120  147.7470 O   0  0  0  0  0  1  0  0  0  0  0  0
  1  2  1  0  0  0  0
  1  9  1  0  0  0  0
  2 10  1  6  0  0  0
  2  3  1  0  0  0  0
  3 17  2  0  0  0  0
  3 12  2  0  0  0  0
  3 16  1  0  0  0  0
  4 23  1  0  0  0  0
  4  1  2  0  0  0  0
  6 15  1  0  0  0  0
  6 13  1  0  0  0  0
  7 21  2  0  0  0  0
  7 13  1  0  0  0  0
  8  7  1  0  0  0  0
  9  5  1  6  0  0  0
  9 16  1  0  0  0  0
 11  6  2  0  0  0  0
 13 10  2  0  0  0  0
 14 18  1  0  0  0  0
 16 40  1  0  0  0  0
 18 11  1  0  0  0  0
 18 20  1  0  0  0  0
 19 11  1  0  0  0  0
 19  8  2  0  0  0  0
 20 15  2  0  0  0  0
 21  4  1  0  0  0  0
 23 22  1  6  0  0  0
 23 25  1  0  0  0  0
 25 24  1  0  0  0  0
 26 34  1  6  0  0  0
 26 32  1  0  0  0  0
 26 23  1  0  0  0  0
 28 30  1  0  0  0  0
 29 28  2  0  0  0  0
 30 27  1  0  0  0  0
 31 29  1  0  0  0  0
 31 32  2  0  0  0  0
 32 33  1  0  0  0  0
 33 30  2  0  0  0  0
 35 38  1  0  0  0  0
 35 34  1  0  0  0  0
 36 38  1  0  0  0  0
 37 35  1  0  0  0  0
 39 37  1  0  0  0  0
 39 36  1  0  0  0  0
 40 41  1  0  0  0  0
 41 44  1  0  0  0  0
 42 45  1  0  0  0  0
 43 42  2  0  0  0  0
 44 42  1  0  0  0  0
 44 46  1  0  0  0  0
 46 47  1  1  0  0  0
 48 49  1  0  0  0  0
 48 54  1  6  0  0  0
 50 53  1  0  0  0  0
 50 52  2  0  0  0  0
 51 46  1  0  0  0  0
 51 49  1  0  0  0  0
 52 48  1  0  0  0  0
 53 51  2  0  0  0  0
M  END
>  <MODEL>
9

>  <REMARK>
 VINA RESULT:      -5.8      2.828      4.887
  Name = 
  11 active torsions:
  status: ('A' for Active; 'I' for Inactive)
    1  A    between atoms: C_5  and  C_8
    2  A    between atoms: C_5  and  N_41
    3  A    between atoms: C_6  and  C_35
    4  A    between atoms: C_6  and  N_43
    5  A    between atoms: C_8  and  N_43
    6  A    between atoms: C_10  and  C_37
    7  A    between atoms: C_13  and  C_37
    8  A    between atoms: C_13  and  C_39
    9  A    between atoms: C_13  and  O_50
   10  A    between atoms: N_23  and  O_50
   11  A    between atoms: C_36  and  C_37
                            x       y       z     vdW  Elec       q    Type
                         _______ _______ _______ _____ _____    ______ ____

>  <TORSDO>
F 11

$$$$
