=
 OpenBabel10222415513D

 47 49  0  0  1  0  0  0  0  0999 V2000
  187.0330  177.5520  137.4660 N   0  0  0  0  0  2  0  0  0  0  0  0
  189.4020  178.2740  137.4350 N   0  0  0  0  0  2  0  0  0  0  0  0
  187.6690  179.7280  136.9090 O   0  0  0  0  0  0  0  0  0  0  0  0
  188.0170  178.5700  137.2610 C   0  0  0  0  0  0  0  0  0  0  0  0
  192.6610  176.3570  137.2550 C   0  0  0  0  0  0  0  0  0  0  0  0
  190.9650  177.0920  138.8440 C   0  0  0  0  0  0  0  0  0  0  0  0
  189.8630  176.9520  137.8300 C   0  0  2  0  0  3  0  0  0  0  0  0
  191.5810  175.9470  136.3390 C   0  0  0  0  0  3  0  0  0  0  0  0
  190.6940  177.4430  140.0210 O   0  0  0  0  0  0  0  0  0  0  0  0
  192.3640  176.8690  138.4530 C   0  0  0  0  0  3  0  0  0  0  0  0
  190.2890  176.1750  136.6000 C   0  0  0  0  0  0  0  0  0  0  0  0
  194.0170  176.1040  136.8610 N   0  0  0  0  0  2  0  0  0  0  0  0
  194.1580  173.8120  137.3560 O   0  0  0  0  0  0  0  0  0  0  0  0
  194.6960  174.8420  136.8680 C   0  0  0  0  0  0  0  0  0  0  0  0
  196.0650  174.7420  136.2800 C   0  0  0  0  0  2  0  0  0  0  0  0
  199.1010  173.9110  136.8610 C   0  0  0  0  0  2  0  0  0  0  0  0
  196.7300  173.4210  136.6690 C   0  0  2  0  0  3  0  0  0  0  0  0
  197.8620  173.6030  137.6720 C   0  0  2  0  0  3  0  0  0  0  0  0
  198.8790  173.2410  135.5150 C   0  0  0  0  0  2  0  0  0  0  0  0
  197.4130  172.8280  135.4520 C   0  0  0  0  0  2  0  0  0  0  0  0
  197.5950  174.6080  138.7530 C   0  0  0  0  0  0  0  0  0  0  0  0
  196.6820  174.3390  139.7630 O   0  0  0  0  0  1  0  0  0  0  0  0
  198.2550  175.6790  138.7840 O   0  0  0  0  0  0  0  0  0  0  0  0
  189.3440  175.6780  135.6970 O   0  0  0  0  0  0  0  0  0  0  0  0
  189.1490  174.2880  135.4700 C   0  0  1  0  0  3  0  0  0  0  0  0
  188.9450  173.6340  136.6860 O   0  0  0  0  0  1  0  0  0  0  0  0
  187.9320  174.0890  134.5940 C   0  0  0  0  0  1  0  0  0  0  0  0
  185.6410  177.7400  137.0890 C   0  0  1  0  0  3  0  0  0  0  0  0
  185.1330  177.1080  134.6170 C   0  0  0  0  0  1  0  0  0  0  0  0
  184.6410  174.3750  136.7910 O   0  0  0  0  0  0  0  0  0  0  0  0
  184.9380  175.5230  136.4330 C   0  0  0  0  0  0  0  0  0  0  0  0
  185.2500  176.7330  136.0570 C   0  0  0  0  0  0  0  0  0  0  0  0
  184.7470  177.6330  138.3130 C   0  0  0  0  0  2  0  0  0  0  0  0
  183.4780  179.3860  139.4420 N   0  0  0  0  0  2  0  0  0  0  0  0
  183.1780  179.0230  140.8270 C   0  0  2  0  0  3  0  0  0  0  0  0
  184.3850  178.3310  141.4210 C   0  0  1  0  0  3  0  0  0  0  0  0
  184.8260  178.9070  139.1450 C   0  0  1  0  0  3  0  0  0  0  0  0
  185.5110  178.6100  140.4570 C   0  0  0  0  0  2  0  0  0  0  0  0
  182.1530  176.9330  140.1980 O   0  0  0  0  0  1  0  0  0  0  0  0
  181.9440  178.1180  140.9070 C   0  0  2  0  0  3  0  0  0  0  0  0
  180.7100  178.8220  140.3700 C   0  0  0  0  0  2  0  0  0  0  0  0
  180.2840  179.7980  141.2690 O   0  0  0  0  0  0  0  0  0  0  0  0
  179.1800  179.2340  141.9050 C   0  0  0  0  0  2  0  0  0  0  0  0
  179.5090  178.2970  144.0720 O   0  0  0  0  0  1  0  0  0  0  0  0
  179.2590  179.4910  143.3960 C   0  0  0  0  0  2  0  0  0  0  0  0
  184.6980  178.9100  142.7890 C   0  0  0  0  0  2  0  0  0  0  0  0
  183.7320  178.5100  143.7040 O   0  0  0  0  0  1  0  0  0  0  0  0
  3  4  2  0  0  0  0
  4  2  1  0  0  0  0
  4  1  1  0  0  0  0
  5 10  2  0  0  0  0
  6  9  2  0  0  0  0
  7  2  1  6  0  0  0
  7  6  1  0  0  0  0
  8 11  2  0  0  0  0
  8  5  1  0  0  0  0
 10  6  1  0  0  0  0
 11  7  1  0  0  0  0
 12 14  1  0  0  0  0
 12  5  1  0  0  0  0
 14 13  2  0  0  0  0
 15 14  1  0  0  0  0
 16 18  1  0  0  0  0
 17 15  1  6  0  0  0
 17 18  1  0  0  0  0
 18 21  1  1  0  0  0
 19 16  1  0  0  0  0
 20 19  1  0  0  0  0
 20 17  1  0  0  0  0
 21 23  2  0  0  0  0
 21 22  1  0  0  0  0
 24 11  1  0  0  0  0
 25 27  1  6  0  0  0
 25 24  1  0  0  0  0
 25 26  1  0  0  0  0
 28  1  1  0  0  0  0
 28 33  1  1  0  0  0
 29 32  1  0  0  0  0
 31 30  2  0  0  0  0
 32 31  2  0  0  0  0
 32 28  1  0  0  0  0
 34 35  1  0  0  0  0
 35 40  1  6  0  0  0
 35 36  1  0  0  0  0
 36 46  1  1  0  0  0
 37 33  1  6  0  0  0
 37 34  1  0  0  0  0
 37 38  1  0  0  0  0
 38 36  1  0  0  0  0
 40 39  1  6  0  0  0
 41 40  1  0  0  0  0
 41 42  1  0  0  0  0
 42 43  1  0  0  0  0
 43 45  1  0  0  0  0
 45 44  1  0  0  0  0
 46 47  1  0  0  0  0
M  END
>  <MODEL>
1

>  <REMARK>
 VINA RESULT:      -5.8      0.000      0.000
  Name = 
  17 active torsions:
  status: ('A' for Active; 'I' for Inactive)
    1  A    between atoms: C_1  and  O_24
    2  A    between atoms: N_3  and  C_8
    3  A    between atoms: N_5  and  C_12
    4  A    between atoms: C_6  and  C_37
    5  A    between atoms: N_10  and  C_23
    6  A    between atoms: C_11  and  C_12
    7  A    between atoms: C_11  and  C_32
    8  A    between atoms: C_12  and  C_31
    9  A    between atoms: C_17  and  C_18
   10  A    between atoms: C_17  and  C_19
   11  A    between atoms: C_19  and  O_41
   12  A    between atoms: C_21  and  C_34
   13  A    between atoms: O_24  and  C_44
   14  A    between atoms: C_29  and  C_45
   15  A    between atoms: C_30  and  C_45
   16  A    between atoms: C_35  and  O_41
   17  A    between atoms: C_35  and  C_47
                            x       y       z     vdW  Elec       q    Type
                         _______ _______ _______ _____ _____    ______ ____

>  <TORSDO>
F 17

$$$$
=
 OpenBabel10222415513D

 47 49  0  0  1  0  0  0  0  0999 V2000
  185.7350  177.3940  137.6210 N   0  0  0  0  0  2  0  0  0  0  0  0
  187.9690  176.9900  136.6330 N   0  0  0  0  0  2  0  0  0  0  0  0
  186.4460  178.4520  135.6650 O   0  0  0  0  0  0  0  0  0  0  0  0
  186.7060  177.6520  136.6030 C   0  0  0  0  0  0  0  0  0  0  0  0
  191.1320  175.2790  137.8160 C   0  0  0  0  0  0  0  0  0  0  0  0
  189.3130  176.6900  138.6160 C   0  0  0  0  0  0  0  0  0  0  0  0
  188.3200  176.0490  137.6850 C   0  0  2  0  0  3  0  0  0  0  0  0
  190.1390  174.4530  137.1070 C   0  0  0  0  0  3  0  0  0  0  0  0
  188.9340  177.5800  139.4200 O   0  0  0  0  0  0  0  0  0  0  0  0
  190.7330  176.3180  138.5550 C   0  0  0  0  0  3  0  0  0  0  0  0
  188.8390  174.7660  137.0660 C   0  0  0  0  0  0  0  0  0  0  0  0
  192.5090  174.8790  137.7620 N   0  0  0  0  0  2  0  0  0  0  0  0
  193.0990  175.7560  135.6650 O   0  0  0  0  0  0  0  0  0  0  0  0
  193.4540  175.1790  136.7270 C   0  0  0  0  0  0  0  0  0  0  0  0
  194.8880  174.8050  136.9120 C   0  0  0  0  0  2  0  0  0  0  0  0
  197.2880  172.7430  137.3950 C   0  0  0  0  0  2  0  0  0  0  0  0
  195.0150  173.5260  137.7400 C   0  0  2  0  0  3  0  0  0  0  0  0
  196.3750  173.3910  138.4120 C   0  0  2  0  0  3  0  0  0  0  0  0
  196.3760  171.9110  136.5070 C   0  0  0  0  0  2  0  0  0  0  0  0
  194.9420  172.3240  136.8180 C   0  0  0  0  0  2  0  0  0  0  0  0
  196.9300  174.6630  138.9810 C   0  0  0  0  0  0  0  0  0  0  0  0
  196.4510  175.1730  140.1800 O   0  0  0  0  0  1  0  0  0  0  0  0
  197.8870  175.2390  138.4020 O   0  0  0  0  0  0  0  0  0  0  0  0
  187.9730  173.8720  136.4270 O   0  0  0  0  0  0  0  0  0  0  0  0
  187.5970  172.6230  136.9930 C   0  0  1  0  0  3  0  0  0  0  0  0
  186.4000  172.7630  137.6950 O   0  0  0  0  0  1  0  0  0  0  0  0
  187.4040  171.6100  135.8870 C   0  0  0  0  0  1  0  0  0  0  0  0
  184.3630  177.8680  137.5150 C   0  0  1  0  0  3  0  0  0  0  0  0
  183.8590  175.3160  137.5640 C   0  0  0  0  0  1  0  0  0  0  0  0
  181.1850  177.1510  136.1770 O   0  0  0  0  0  0  0  0  0  0  0  0
  182.2850  176.9400  136.7070 C   0  0  0  0  0  0  0  0  0  0  0  0
  183.4430  176.7190  137.2630 C   0  0  0  0  0  0  0  0  0  0  0  0
  183.9660  178.6110  138.7800 C   0  0  0  0  0  2  0  0  0  0  0  0
  184.1350  177.5010  140.9460 N   0  0  0  0  0  2  0  0  0  0  0  0
  183.5600  178.3190  142.0150 C   0  0  2  0  0  3  0  0  0  0  0  0
  182.3030  178.9830  141.4960 C   0  0  1  0  0  3  0  0  0  0  0  0
  183.2910  177.6650  139.7660 C   0  0  1  0  0  3  0  0  0  0  0  0
  181.9780  178.2580  140.2140 C   0  0  0  0  0  2  0  0  0  0  0  0
  185.6650  179.4380  141.6540 O   0  0  0  0  0  1  0  0  0  0  0  0
  184.5600  179.3700  142.5070 C   0  0  2  0  0  3  0  0  0  0  0  0
  185.0270  179.0660  143.9200 C   0  0  0  0  0  2  0  0  0  0  0  0
  185.8830  177.9660  143.9160 O   0  0  0  0  0  0  0  0  0  0  0  0
  186.5300  178.0180  145.1480 C   0  0  0  0  0  2  0  0  0  0  0  0
  188.4580  177.0880  146.1980 O   0  0  0  0  0  1  0  0  0  0  0  0
  187.9740  177.5880  144.9890 C   0  0  0  0  0  2  0  0  0  0  0  0
  181.1760  178.8240  142.5000 C   0  0  0  0  0  2  0  0  0  0  0  0
  180.7600  180.0720  142.9450 O   0  0  0  0  0  1  0  0  0  0  0  0
  3  4  2  0  0  0  0
  4  2  1  0  0  0  0
  4  1  1  0  0  0  0
  5 10  2  0  0  0  0
  6  9  2  0  0  0  0
  7  2  1  6  0  0  0
  7  6  1  0  0  0  0
  8  5  1  0  0  0  0
 10  6  1  0  0  0  0
 11  8  2  0  0  0  0
 11  7  1  0  0  0  0
 12  5  1  0  0  0  0
 13 14  2  0  0  0  0
 14 15  1  0  0  0  0
 14 12  1  0  0  0  0
 16 18  1  0  0  0  0
 17 15  1  6  0  0  0
 17 18  1  0  0  0  0
 18 21  1  6  0  0  0
 19 20  1  0  0  0  0
 19 16  1  0  0  0  0
 20 17  1  0  0  0  0
 21 22  1  0  0  0  0
 23 21  2  0  0  0  0
 24 25  1  0  0  0  0
 24 11  1  0  0  0  0
 25 27  1  6  0  0  0
 25 26  1  0  0  0  0
 28  1  1  0  0  0  0
 28 33  1  1  0  0  0
 30 31  2  0  0  0  0
 31 32  2  0  0  0  0
 32 28  1  0  0  0  0
 32 29  1  0  0  0  0
 34 35  1  0  0  0  0
 35 40  1  6  0  0  0
 36 35  1  0  0  0  0
 36 46  1  1  0  0  0
 37 33  1  6  0  0  0
 37 38  1  0  0  0  0
 37 34  1  0  0  0  0
 38 36  1  0  0  0  0
 40 39  1  6  0  0  0
 40 41  1  0  0  0  0
 42 41  1  0  0  0  0
 42 43  1  0  0  0  0
 45 43  1  0  0  0  0
 45 44  1  0  0  0  0
 46 47  1  0  0  0  0
M  END
>  <MODEL>
2

>  <REMARK>
 VINA RESULT:      -5.7      2.091      3.452
  Name = 
  17 active torsions:
  status: ('A' for Active; 'I' for Inactive)
    1  A    between atoms: C_1  and  O_24
    2  A    between atoms: N_3  and  C_8
    3  A    between atoms: N_5  and  C_12
    4  A    between atoms: C_6  and  C_37
    5  A    between atoms: N_10  and  C_23
    6  A    between atoms: C_11  and  C_12
    7  A    between atoms: C_11  and  C_32
    8  A    between atoms: C_12  and  C_31
    9  A    between atoms: C_17  and  C_18
   10  A    between atoms: C_17  and  C_19
   11  A    between atoms: C_19  and  O_41
   12  A    between atoms: C_21  and  C_34
   13  A    between atoms: O_24  and  C_44
   14  A    between atoms: C_29  and  C_45
   15  A    between atoms: C_30  and  C_45
   16  A    between atoms: C_35  and  O_41
   17  A    between atoms: C_35  and  C_47
                            x       y       z     vdW  Elec       q    Type
                         _______ _______ _______ _____ _____    ______ ____

>  <TORSDO>
F 17

$$$$
=
 OpenBabel10222415513D

 47 49  0  0  1  0  0  0  0  0999 V2000
  181.9870  177.6790  138.1680 N   0  0  0  0  0  2  0  0  0  0  0  0
  181.8500  177.3840  140.6240 N   0  0  0  0  0  2  0  0  0  0  0  0
  181.1440  175.7350  139.1480 O   0  0  0  0  0  0  0  0  0  0  0  0
  181.6440  176.8800  139.3040 C   0  0  0  0  0  0  0  0  0  0  0  0
  184.4700  178.8490  142.9300 C   0  0  0  0  0  0  0  0  0  0  0  0
  183.8890  178.6760  140.5690 C   0  0  0  0  0  0  0  0  0  0  0  0
  182.4130  178.7030  140.8640 C   0  0  2  0  0  3  0  0  0  0  0  0
  183.0590  179.1580  143.2230 C   0  0  0  0  0  3  0  0  0  0  0  0
  184.2890  178.6280  139.3780 O   0  0  0  0  0  0  0  0  0  0  0  0
  184.8630  178.6530  141.6680 C   0  0  0  0  0  3  0  0  0  0  0  0
  182.1060  179.1340  142.2850 C   0  0  0  0  0  0  0  0  0  0  0  0
  185.4070  178.8580  144.0170 N   0  0  0  0  0  2  0  0  0  0  0  0
  183.9180  178.7230  145.8290 O   0  0  0  0  0  0  0  0  0  0  0  0
  185.1070  178.7370  145.4130 C   0  0  0  0  0  0  0  0  0  0  0  0
  186.2260  178.6180  146.3950 C   0  0  0  0  0  2  0  0  0  0  0  0
  189.2800  177.8020  145.8890 C   0  0  0  0  0  2  0  0  0  0  0  0
  186.9370  177.2710  146.2490 C   0  0  2  0  0  3  0  0  0  0  0  0
  188.3090  177.2540  146.9120 C   0  0  2  0  0  3  0  0  0  0  0  0
  188.6720  177.4690  144.5370 C   0  0  0  0  0  2  0  0  0  0  0  0
  187.2360  177.0200  144.7840 C   0  0  0  0  0  2  0  0  0  0  0  0
  188.3830  177.9560  148.2360 C   0  0  0  0  0  0  0  0  0  0  0  0
  187.5570  177.5790  149.2860 O   0  0  0  0  0  1  0  0  0  0  0  0
  189.2480  178.8510  148.4190 O   0  0  0  0  0  0  0  0  0  0  0  0
  180.8130  179.5160  142.6590 O   0  0  0  0  0  0  0  0  0  0  0  0
  179.8840  178.6190  143.2530 C   0  0  1  0  0  3  0  0  0  0  0  0
  180.5630  177.6830  144.0330 O   0  0  0  0  0  1  0  0  0  0  0  0
  178.9310  179.3960  144.1330 C   0  0  0  0  0  1  0  0  0  0  0  0
  181.5940  177.3060  136.8180 C   0  0  1  0  0  3  0  0  0  0  0  0
  179.4590  177.5150  135.3470 C   0  0  0  0  0  1  0  0  0  0  0  0
  179.8160  180.2630  137.5280 O   0  0  0  0  0  0  0  0  0  0  0  0
  180.0760  179.1770  136.9920 C   0  0  0  0  0  0  0  0  0  0  0  0
  180.3490  178.0340  136.4270 C   0  0  0  0  0  0  0  0  0  0  0  0
  182.7210  177.6030  135.8430 C   0  0  0  0  0  2  0  0  0  0  0  0
  184.5330  176.5080  134.6290 N   0  0  0  0  0  2  0  0  0  0  0  0
  185.4530  175.8260  135.5390 C   0  0  2  0  0  3  0  0  0  0  0  0
  184.6510  175.1700  136.6410 C   0  0  1  0  0  3  0  0  0  0  0  0
  183.1820  176.3250  135.1530 C   0  0  1  0  0  3  0  0  0  0  0  0
  183.2230  175.1980  136.1560 C   0  0  0  0  0  2  0  0  0  0  0  0
  186.6000  177.9350  135.3180 O   0  0  0  0  0  1  0  0  0  0  0  0
  186.4760  176.8040  136.1270 C   0  0  2  0  0  3  0  0  0  0  0  0
  187.8350  176.1450  136.2910 C   0  0  0  0  0  2  0  0  0  0  0  0
  188.7650  177.0730  136.7570 O   0  0  0  0  0  0  0  0  0  0  0  0
  188.8450  176.8360  138.1270 C   0  0  0  0  0  2  0  0  0  0  0  0
  187.5580  178.6340  139.0180 O   0  0  0  0  0  1  0  0  0  0  0  0
  188.8590  178.1530  138.8770 C   0  0  0  0  0  2  0  0  0  0  0  0
  185.1170  173.7390  136.8450 C   0  0  0  0  0  2  0  0  0  0  0  0
  184.6110  173.2450  138.0410 O   0  0  0  0  0  1  0  0  0  0  0  0
  1  4  1  0  0  0  0
  3  4  2  0  0  0  0
  4  2  1  0  0  0  0
  5  8  1  0  0  0  0
  5 12  1  0  0  0  0
  6  7  1  0  0  0  0
  6 10  1  0  0  0  0
  7  2  1  1  0  0  0
  7 11  1  0  0  0  0
  9  6  2  0  0  0  0
 10  5  2  0  0  0  0
 11 24  1  0  0  0  0
 11  8  2  0  0  0  0
 12 14  1  0  0  0  0
 14 13  2  0  0  0  0
 14 15  1  0  0  0  0
 16 18  1  0  0  0  0
 17 15  1  6  0  0  0
 17 18  1  0  0  0  0
 18 21  1  1  0  0  0
 19 20  1  0  0  0  0
 19 16  1  0  0  0  0
 20 17  1  0  0  0  0
 21 23  2  0  0  0  0
 21 22  1  0  0  0  0
 24 25  1  0  0  0  0
 25 26  1  0  0  0  0
 25 27  1  1  0  0  0
 28 33  1  6  0  0  0
 28  1  1  0  0  0  0
 29 32  1  0  0  0  0
 31 30  2  0  0  0  0
 32 28  1  0  0  0  0
 32 31  2  0  0  0  0
 34 37  1  0  0  0  0
 34 35  1  0  0  0  0
 35 40  1  1  0  0  0
 35 36  1  0  0  0  0
 36 46  1  6  0  0  0
 37 33  1  1  0  0  0
 37 38  1  0  0  0  0
 38 36  1  0  0  0  0
 40 39  1  6  0  0  0
 40 41  1  0  0  0  0
 41 42  1  0  0  0  0
 42 43  1  0  0  0  0
 43 45  1  0  0  0  0
 45 44  1  0  0  0  0
 46 47  1  0  0  0  0
M  END
>  <MODEL>
3

>  <REMARK>
 VINA RESULT:      -5.7      5.034     10.066
  Name = 
  17 active torsions:
  status: ('A' for Active; 'I' for Inactive)
    1  A    between atoms: C_1  and  O_24
    2  A    between atoms: N_3  and  C_8
    3  A    between atoms: N_5  and  C_12
    4  A    between atoms: C_6  and  C_37
    5  A    between atoms: N_10  and  C_23
    6  A    between atoms: C_11  and  C_12
    7  A    between atoms: C_11  and  C_32
    8  A    between atoms: C_12  and  C_31
    9  A    between atoms: C_17  and  C_18
   10  A    between atoms: C_17  and  C_19
   11  A    between atoms: C_19  and  O_41
   12  A    between atoms: C_21  and  C_34
   13  A    between atoms: O_24  and  C_44
   14  A    between atoms: C_29  and  C_45
   15  A    between atoms: C_30  and  C_45
   16  A    between atoms: C_35  and  O_41
   17  A    between atoms: C_35  and  C_47
                            x       y       z     vdW  Elec       q    Type
                         _______ _______ _______ _____ _____    ______ ____

>  <TORSDO>
F 17

$$$$
=
 OpenBabel10222415513D

 47 49  0  0  1  0  0  0  0  0999 V2000
  187.0410  177.4820  137.6000 N   0  0  0  0  0  2  0  0  0  0  0  0
  189.4930  177.8090  137.4850 N   0  0  0  0  0  2  0  0  0  0  0  0
  188.0020  179.5040  136.9420 O   0  0  0  0  0  0  0  0  0  0  0  0
  188.1690  178.3190  137.3310 C   0  0  0  0  0  0  0  0  0  0  0  0
  192.3760  175.3650  137.2620 C   0  0  0  0  0  0  0  0  0  0  0  0
  190.9040  176.4350  138.8830 C   0  0  0  0  0  0  0  0  0  0  0  0
  189.7460  176.4440  137.9210 C   0  0  2  0  0  3  0  0  0  0  0  0
  191.2010  175.1080  136.4100 C   0  0  0  0  0  3  0  0  0  0  0  0
  190.7510  176.8720  140.0520 O   0  0  0  0  0  0  0  0  0  0  0  0
  192.2250  175.9660  138.4460 C   0  0  0  0  0  3  0  0  0  0  0  0
  189.9790  175.5600  136.7120 C   0  0  0  0  0  0  0  0  0  0  0  0
  193.6510  174.8730  136.8250 N   0  0  0  0  0  2  0  0  0  0  0  0
  194.6310  176.8840  136.1080 O   0  0  0  0  0  0  0  0  0  0  0  0
  194.7480  175.6480  136.3220 C   0  0  0  0  0  0  0  0  0  0  0  0
  196.0560  174.9790  136.0550 C   0  0  0  0  0  2  0  0  0  0  0  0
  198.4370  173.1300  137.1310 C   0  0  0  0  0  2  0  0  0  0  0  0
  196.0940  173.5860  136.6830 C   0  0  2  0  0  3  0  0  0  0  0  0
  197.1230  173.4690  137.7990 C   0  0  2  0  0  3  0  0  0  0  0  0
  198.0630  172.3930  135.8560 C   0  0  0  0  0  2  0  0  0  0  0  0
  196.5650  172.5840  135.6460 C   0  0  0  0  0  2  0  0  0  0  0  0
  197.2090  174.6600  138.7090 C   0  0  0  0  0  0  0  0  0  0  0  0
  196.1950  174.9350  139.6150 O   0  0  0  0  0  1  0  0  0  0  0  0
  198.2430  175.3780  138.6980 O   0  0  0  0  0  0  0  0  0  0  0  0
  188.9220  175.1940  135.8720 O   0  0  0  0  0  0  0  0  0  0  0  0
  187.8560  174.3530  136.2930 C   0  0  1  0  0  3  0  0  0  0  0  0
  187.0420  174.0400  135.2050 O   0  0  0  0  0  1  0  0  0  0  0  0
  188.4230  173.0750  136.8680 C   0  0  0  0  0  1  0  0  0  0  0  0
  185.6860  177.8790  137.2480 C   0  0  1  0  0  3  0  0  0  0  0  0
  185.6080  177.3120  134.7100 C   0  0  0  0  0  1  0  0  0  0  0  0
  183.4770  175.2180  136.5830 O   0  0  0  0  0  0  0  0  0  0  0  0
  184.3090  176.1060  136.3550 C   0  0  0  0  0  0  0  0  0  0  0  0
  185.1850  177.0430  136.1160 C   0  0  0  0  0  0  0  0  0  0  0  0
  184.7730  177.7570  138.4560 C   0  0  0  0  0  2  0  0  0  0  0  0
  183.7470  179.7920  139.3280 N   0  0  0  0  0  2  0  0  0  0  0  0
  182.9720  179.5240  140.5410 C   0  0  2  0  0  3  0  0  0  0  0  0
  183.7250  178.5210  141.3880 C   0  0  1  0  0  3  0  0  0  0  0  0
  184.9440  178.9560  139.3800 C   0  0  1  0  0  3  0  0  0  0  0  0
  185.1140  178.4770  140.8010 C   0  0  0  0  0  2  0  0  0  0  0  0
  180.6150  179.5630  141.0440 O   0  0  0  0  0  1  0  0  0  0  0  0
  181.5740  178.9990  140.2000 C   0  0  2  0  0  3  0  0  0  0  0  0
  181.5150  177.4850  140.3020 C   0  0  0  0  0  2  0  0  0  0  0  0
  180.6290  176.9750  139.3540 O   0  0  0  0  0  0  0  0  0  0  0  0
  181.1070  177.4480  138.1340 C   0  0  0  0  0  2  0  0  0  0  0  0
  180.8310  177.1100  135.7900 O   0  0  0  0  0  1  0  0  0  0  0  0
  180.1740  177.0240  137.0180 C   0  0  0  0  0  2  0  0  0  0  0  0
  183.7710  178.9880  142.8320 C   0  0  0  0  0  2  0  0  0  0  0  0
  182.5650  178.7010  143.4590 O   0  0  0  0  0  1  0  0  0  0  0  0
  3  4  2  0  0  0  0
  4  2  1  0  0  0  0
  4  1  1  0  0  0  0
  5 10  2  0  0  0  0
  6  9  2  0  0  0  0
  7  2  1  6  0  0  0
  7  6  1  0  0  0  0
  8 11  2  0  0  0  0
  8  5  1  0  0  0  0
 10  6  1  0  0  0  0
 11  7  1  0  0  0  0
 12  5  1  0  0  0  0
 13 14  2  0  0  0  0
 14 12  1  0  0  0  0
 15 14  1  0  0  0  0
 16 18  1  0  0  0  0
 17 15  1  6  0  0  0
 17 18  1  0  0  0  0
 18 21  1  6  0  0  0
 19 16  1  0  0  0  0
 20 19  1  0  0  0  0
 20 17  1  0  0  0  0
 21 22  1  0  0  0  0
 23 21  2  0  0  0  0
 24 25  1  0  0  0  0
 24 11  1  0  0  0  0
 25 27  1  6  0  0  0
 26 25  1  0  0  0  0
 28  1  1  0  0  0  0
 28 33  1  1  0  0  0
 29 32  1  0  0  0  0
 31 30  2  0  0  0  0
 32 31  2  0  0  0  0
 32 28  1  0  0  0  0
 34 37  1  0  0  0  0
 34 35  1  0  0  0  0
 35 40  1  6  0  0  0
 35 36  1  0  0  0  0
 36 46  1  1  0  0  0
 37 33  1  6  0  0  0
 37 38  1  0  0  0  0
 38 36  1  0  0  0  0
 40 41  1  0  0  0  0
 40 39  1  1  0  0  0
 42 41  1  0  0  0  0
 43 42  1  0  0  0  0
 44 45  1  0  0  0  0
 45 43  1  0  0  0  0
 46 47  1  0  0  0  0
M  END
>  <MODEL>
4

>  <REMARK>
 VINA RESULT:      -5.6      1.390      2.126
  Name = 
  17 active torsions:
  status: ('A' for Active; 'I' for Inactive)
    1  A    between atoms: C_1  and  O_24
    2  A    between atoms: N_3  and  C_8
    3  A    between atoms: N_5  and  C_12
    4  A    between atoms: C_6  and  C_37
    5  A    between atoms: N_10  and  C_23
    6  A    between atoms: C_11  and  C_12
    7  A    between atoms: C_11  and  C_32
    8  A    between atoms: C_12  and  C_31
    9  A    between atoms: C_17  and  C_18
   10  A    between atoms: C_17  and  C_19
   11  A    between atoms: C_19  and  O_41
   12  A    between atoms: C_21  and  C_34
   13  A    between atoms: O_24  and  C_44
   14  A    between atoms: C_29  and  C_45
   15  A    between atoms: C_30  and  C_45
   16  A    between atoms: C_35  and  O_41
   17  A    between atoms: C_35  and  C_47
                            x       y       z     vdW  Elec       q    Type
                         _______ _______ _______ _____ _____    ______ ____

>  <TORSDO>
F 17

$$$$
=
 OpenBabel10222415513D

 47 49  0  0  1  0  0  0  0  0999 V2000
  181.9730  178.1270  138.5430 N   0  0  0  0  0  2  0  0  0  0  0  0
  182.5100  177.3590  140.8360 N   0  0  0  0  0  2  0  0  0  0  0  0
  181.7020  175.9080  139.2120 O   0  0  0  0  0  0  0  0  0  0  0  0
  182.0520  177.0790  139.5130 C   0  0  0  0  0  0  0  0  0  0  0  0
  185.1230  178.8270  143.1480 C   0  0  0  0  0  0  0  0  0  0  0  0
  184.3490  178.9240  140.8390 C   0  0  0  0  0  0  0  0  0  0  0  0
  182.9170  178.6950  141.2420 C   0  0  2  0  0  3  0  0  0  0  0  0
  183.7180  178.8830  143.5900 C   0  0  0  0  0  3  0  0  0  0  0  0
  184.6370  179.1110  139.6300 O   0  0  0  0  0  0  0  0  0  0  0  0
  185.4180  178.8790  141.8460 C   0  0  0  0  0  3  0  0  0  0  0  0
  182.6920  178.8620  142.7320 C   0  0  0  0  0  0  0  0  0  0  0  0
  186.1490  178.8100  144.1520 N   0  0  0  0  0  2  0  0  0  0  0  0
  187.2170  176.7930  143.5970 O   0  0  0  0  0  0  0  0  0  0  0  0
  187.1880  177.8350  144.3060 C   0  0  0  0  0  0  0  0  0  0  0  0
  188.2610  178.0600  145.3200 C   0  0  0  0  0  2  0  0  0  0  0  0
  191.1310  177.5080  146.6250 C   0  0  0  0  0  2  0  0  0  0  0  0
  189.0840  176.7890  145.5330 C   0  0  2  0  0  3  0  0  0  0  0  0
  189.8250  176.7830  146.8640 C   0  0  2  0  0  3  0  0  0  0  0  0
  191.4460  177.2970  145.1540 C   0  0  0  0  0  2  0  0  0  0  0  0
  190.1910  176.7310  144.4990 C   0  0  0  0  0  2  0  0  0  0  0  0
  189.0470  177.3270  148.0260 C   0  0  0  0  0  0  0  0  0  0  0  0
  189.4160  178.5210  148.6300 O   0  0  0  0  0  1  0  0  0  0  0  0
  188.0080  176.7320  148.4130 O   0  0  0  0  0  0  0  0  0  0  0  0
  181.4010  178.9950  143.2560 O   0  0  0  0  0  0  0  0  0  0  0  0
  180.2650  179.2730  142.4480 C   0  0  1  0  0  3  0  0  0  0  0  0
  179.6090  178.0840  142.1290 O   0  0  0  0  0  1  0  0  0  0  0  0
  179.3160  180.1700  143.2100 C   0  0  0  0  0  1  0  0  0  0  0  0
  181.3090  177.9420  137.2620 C   0  0  1  0  0  3  0  0  0  0  0  0
  178.9310  178.6760  136.5050 C   0  0  0  0  0  1  0  0  0  0  0  0
  180.8730  181.4260  137.5550 O   0  0  0  0  0  0  0  0  0  0  0  0
  180.5820  180.2460  137.3160 C   0  0  0  0  0  0  0  0  0  0  0  0
  180.2760  179.0030  137.0630 C   0  0  0  0  0  0  0  0  0  0  0  0
  182.3280  177.9630  136.1350 C   0  0  0  0  0  2  0  0  0  0  0  0
  183.3220  176.3530  134.5940 N   0  0  0  0  0  2  0  0  0  0  0  0
  183.6540  175.0980  135.2700 C   0  0  2  0  0  3  0  0  0  0  0  0
  182.5490  174.7660  136.2490 C   0  0  1  0  0  3  0  0  0  0  0  0
  182.0590  176.8300  135.1510 C   0  0  1  0  0  3  0  0  0  0  0  0
  181.4070  175.6780  135.8750 C   0  0  0  0  0  2  0  0  0  0  0  0
  185.3930  173.9480  136.4810 O   0  0  0  0  0  1  0  0  0  0  0  0
  185.0010  175.1960  135.9920 C   0  0  2  0  0  3  0  0  0  0  0  0
  184.9410  176.1950  137.1350 C   0  0  0  0  0  2  0  0  0  0  0  0
  185.7880  177.2710  136.8770 O   0  0  0  0  0  0  0  0  0  0  0  0
  187.0560  176.7040  136.7690 C   0  0  0  0  0  2  0  0  0  0  0  0
  187.5610  178.3810  138.3870 O   0  0  0  0  0  1  0  0  0  0  0  0
  187.8970  177.0940  137.9680 C   0  0  0  0  0  2  0  0  0  0  0  0
  182.1400  173.3110  136.1020 C   0  0  0  0  0  2  0  0  0  0  0  0
  181.4510  172.8970  137.2350 O   0  0  0  0  0  1  0  0  0  0  0  0
  1  4  1  0  0  0  0
  3  4  2  0  0  0  0
  4  2  1  0  0  0  0
  5  8  1  0  0  0  0
  5 12  1  0  0  0  0
  6  7  1  0  0  0  0
  6 10  1  0  0  0  0
  7  2  1  1  0  0  0
  7 11  1  0  0  0  0
  9  6  2  0  0  0  0
 10  5  2  0  0  0  0
 11 24  1  0  0  0  0
 11  8  2  0  0  0  0
 12 14  1  0  0  0  0
 13 14  2  0  0  0  0
 14 15  1  0  0  0  0
 16 18  1  0  0  0  0
 17 15  1  6  0  0  0
 17 18  1  0  0  0  0
 18 21  1  1  0  0  0
 19 16  1  0  0  0  0
 20 19  1  0  0  0  0
 20 17  1  0  0  0  0
 21 23  2  0  0  0  0
 21 22  1  0  0  0  0
 25 27  1  1  0  0  0
 25 24  1  0  0  0  0
 26 25  1  0  0  0  0
 28 33  1  6  0  0  0
 28  1  1  0  0  0  0
 29 32  1  0  0  0  0
 31 30  2  0  0  0  0
 32 28  1  0  0  0  0
 32 31  2  0  0  0  0
 34 37  1  0  0  0  0
 34 35  1  0  0  0  0
 35 40  1  1  0  0  0
 35 36  1  0  0  0  0
 36 46  1  6  0  0  0
 37 38  1  0  0  0  0
 37 33  1  1  0  0  0
 38 36  1  0  0  0  0
 40 39  1  1  0  0  0
 40 41  1  0  0  0  0
 42 41  1  0  0  0  0
 43 42  1  0  0  0  0
 43 45  1  0  0  0  0
 45 44  1  0  0  0  0
 46 47  1  0  0  0  0
M  END
>  <MODEL>
5

>  <REMARK>
 VINA RESULT:      -5.5      5.646      9.418
  Name = 
  17 active torsions:
  status: ('A' for Active; 'I' for Inactive)
    1  A    between atoms: C_1  and  O_24
    2  A    between atoms: N_3  and  C_8
    3  A    between atoms: N_5  and  C_12
    4  A    between atoms: C_6  and  C_37
    5  A    between atoms: N_10  and  C_23
    6  A    between atoms: C_11  and  C_12
    7  A    between atoms: C_11  and  C_32
    8  A    between atoms: C_12  and  C_31
    9  A    between atoms: C_17  and  C_18
   10  A    between atoms: C_17  and  C_19
   11  A    between atoms: C_19  and  O_41
   12  A    between atoms: C_21  and  C_34
   13  A    between atoms: O_24  and  C_44
   14  A    between atoms: C_29  and  C_45
   15  A    between atoms: C_30  and  C_45
   16  A    between atoms: C_35  and  O_41
   17  A    between atoms: C_35  and  C_47
                            x       y       z     vdW  Elec       q    Type
                         _______ _______ _______ _____ _____    ______ ____

>  <TORSDO>
F 17

$$$$
=
 OpenBabel10222415513D

 47 49  0  0  1  0  0  0  0  0999 V2000
  181.9890  178.9170  138.7700 N   0  0  0  0  0  2  0  0  0  0  0  0
  184.1790  179.8480  139.4560 N   0  0  0  0  0  2  0  0  0  0  0  0
  182.5170  181.1770  138.5270 O   0  0  0  0  0  0  0  0  0  0  0  0
  182.8750  180.0310  138.9060 C   0  0  0  0  0  0  0  0  0  0  0  0
  186.2460  178.5380  142.3440 C   0  0  0  0  0  0  0  0  0  0  0  0
  184.0810  178.2490  141.2630 C   0  0  0  0  0  0  0  0  0  0  0  0
  184.6500  178.5450  139.9010 C   0  0  2  0  0  3  0  0  0  0  0  0
  186.8760  178.5530  141.0120 C   0  0  0  0  0  3  0  0  0  0  0  0
  182.8670  177.9460  141.3820 O   0  0  0  0  0  0  0  0  0  0  0  0
  184.9270  178.3610  142.4590 C   0  0  0  0  0  3  0  0  0  0  0  0
  186.1650  178.5190  139.8780 C   0  0  0  0  0  0  0  0  0  0  0  0
  187.0970  178.6220  143.4970 N   0  0  0  0  0  2  0  0  0  0  0  0
  187.4060  176.3360  143.9350 O   0  0  0  0  0  0  0  0  0  0  0  0
  187.6910  177.5310  144.2120 C   0  0  0  0  0  0  0  0  0  0  0  0
  188.6720  177.8160  145.3010 C   0  0  0  0  0  2  0  0  0  0  0  0
  188.2980  178.4570  148.4150 C   0  0  0  0  0  2  0  0  0  0  0  0
  188.3990  176.9380  146.5230 C   0  0  2  0  0  3  0  0  0  0  0  0
  187.4460  177.5890  147.5170 C   0  0  2  0  0  3  0  0  0  0  0  0
  189.6700  177.8040  148.4250 C   0  0  0  0  0  2  0  0  0  0  0  0
  189.6840  176.7640  147.3100 C   0  0  0  0  0  2  0  0  0  0  0  0
  186.2920  178.3240  146.9000 C   0  0  0  0  0  0  0  0  0  0  0  0
  185.2780  177.6360  146.2500 O   0  0  0  0  0  0  0  0  0  0  0  0
  186.2090  179.5730  147.0310 O   0  0  0  0  0  1  0  0  0  0  0  0
  186.8670  178.4640  138.6700 O   0  0  0  0  0  0  0  0  0  0  0  0
  187.9540  177.5740  138.4480 C   0  0  1  0  0  3  0  0  0  0  0  0
  187.5610  176.5560  137.5800 O   0  0  0  0  0  1  0  0  0  0  0  0
  189.1050  178.3340  137.8280 C   0  0  0  0  0  1  0  0  0  0  0  0
  180.7470  179.0080  138.0180 C   0  0  1  0  0  3  0  0  0  0  0  0
  179.2870  179.6340  140.0780 C   0  0  0  0  0  1  0  0  0  0  0  0
  178.9350  181.9780  137.4660 O   0  0  0  0  0  0  0  0  0  0  0  0
  179.3550  180.9820  138.0710 C   0  0  0  0  0  0  0  0  0  0  0  0
  179.7980  179.9330  138.7070 C   0  0  0  0  0  0  0  0  0  0  0  0
  181.0250  179.4780  136.6000 C   0  0  0  0  0  2  0  0  0  0  0  0
  181.9340  177.8270  135.0510 N   0  0  0  0  0  2  0  0  0  0  0  0
  182.1740  176.5440  135.7140 C   0  0  2  0  0  3  0  0  0  0  0  0
  181.0370  176.2730  136.6740 C   0  0  1  0  0  3  0  0  0  0  0  0
  180.6980  178.3780  135.5980 C   0  0  1  0  0  3  0  0  0  0  0  0
  179.9620  177.2620  136.2970 C   0  0  0  0  0  2  0  0  0  0  0  0
  184.1340  177.7940  136.3530 O   0  0  0  0  0  1  0  0  0  0  0  0
  183.5150  176.5460  136.4540 C   0  0  2  0  0  3  0  0  0  0  0  0
  184.4440  175.4730  135.9130 C   0  0  0  0  0  2  0  0  0  0  0  0
  185.0180  174.7610  136.9650 O   0  0  0  0  0  0  0  0  0  0  0  0
  184.0820  173.7770  137.2780 C   0  0  0  0  0  2  0  0  0  0  0  0
  186.0310  172.6300  138.0320 O   0  0  0  0  0  1  0  0  0  0  0  0
  184.7780  172.4420  137.4510 C   0  0  0  0  0  2  0  0  0  0  0  0
  180.5360  174.8500  136.5010 C   0  0  0  0  0  2  0  0  0  0  0  0
  180.7130  174.4440  135.1840 O   0  0  0  0  0  1  0  0  0  0  0  0
  1  4  1  0  0  0  0
  3  4  2  0  0  0  0
  4  2  1  0  0  0  0
  5 10  2  0  0  0  0
  5 12  1  0  0  0  0
  6  9  2  0  0  0  0
  6 10  1  0  0  0  0
  7  2  1  1  0  0  0
  7  6  1  0  0  0  0
  8  5  1  0  0  0  0
 11  7  1  0  0  0  0
 11  8  2  0  0  0  0
 12 14  1  0  0  0  0
 13 14  2  0  0  0  0
 14 15  1  0  0  0  0
 16 19  1  0  0  0  0
 17 15  1  6  0  0  0
 17 20  1  0  0  0  0
 17 18  1  0  0  0  0
 18 21  1  6  0  0  0
 18 16  1  0  0  0  0
 20 19  1  0  0  0  0
 21 23  1  0  0  0  0
 22 21  2  0  0  0  0
 24 11  1  0  0  0  0
 25 27  1  6  0  0  0
 25 24  1  0  0  0  0
 26 25  1  0  0  0  0
 28 33  1  6  0  0  0
 28 32  1  0  0  0  0
 28  1  1  0  0  0  0
 30 31  2  0  0  0  0
 31 32  2  0  0  0  0
 32 29  1  0  0  0  0
 34 37  1  0  0  0  0
 34 35  1  0  0  0  0
 35 40  1  1  0  0  0
 35 36  1  0  0  0  0
 36 46  1  6  0  0  0
 37 38  1  0  0  0  0
 37 33  1  1  0  0  0
 38 36  1  0  0  0  0
 40 39  1  6  0  0  0
 41 40  1  0  0  0  0
 41 42  1  0  0  0  0
 42 43  1  0  0  0  0
 43 45  1  0  0  0  0
 45 44  1  0  0  0  0
 47 46  1  0  0  0  0
M  END
>  <MODEL>
6

>  <REMARK>
 VINA RESULT:      -5.5      5.382      9.158
  Name = 
  17 active torsions:
  status: ('A' for Active; 'I' for Inactive)
    1  A    between atoms: C_1  and  O_24
    2  A    between atoms: N_3  and  C_8
    3  A    between atoms: N_5  and  C_12
    4  A    between atoms: C_6  and  C_37
    5  A    between atoms: N_10  and  C_23
    6  A    between atoms: C_11  and  C_12
    7  A    between atoms: C_11  and  C_32
    8  A    between atoms: C_12  and  C_31
    9  A    between atoms: C_17  and  C_18
   10  A    between atoms: C_17  and  C_19
   11  A    between atoms: C_19  and  O_41
   12  A    between atoms: C_21  and  C_34
   13  A    between atoms: O_24  and  C_44
   14  A    between atoms: C_29  and  C_45
   15  A    between atoms: C_30  and  C_45
   16  A    between atoms: C_35  and  O_41
   17  A    between atoms: C_35  and  C_47
                            x       y       z     vdW  Elec       q    Type
                         _______ _______ _______ _____ _____    ______ ____

>  <TORSDO>
F 17

$$$$
=
 OpenBabel10222415513D

 47 49  0  0  1  0  0  0  0  0999 V2000
  188.3110  178.1740  139.1690 N   0  0  0  0  0  2  0  0  0  0  0  0
  189.7960  177.7420  137.2350 N   0  0  0  0  0  2  0  0  0  0  0  0
  188.7780  179.8030  137.5640 O   0  0  0  0  0  0  0  0  0  0  0  0
  188.9570  178.6270  137.9760 C   0  0  0  0  0  0  0  0  0  0  0  0
  192.6890  175.3040  137.0930 C   0  0  0  0  0  0  0  0  0  0  0  0
  191.1470  176.3450  138.6680 C   0  0  0  0  0  0  0  0  0  0  0  0
  190.0320  176.3700  137.6580 C   0  0  2  0  0  3  0  0  0  0  0  0
  191.5520  175.0610  136.1870 C   0  0  0  0  0  3  0  0  0  0  0  0
  190.9440  176.7610  139.8370 O   0  0  0  0  0  0  0  0  0  0  0  0
  192.4870  175.8830  138.2800 C   0  0  0  0  0  3  0  0  0  0  0  0
  190.3170  175.5070  136.4440 C   0  0  0  0  0  0  0  0  0  0  0  0
  193.9820  174.8200  136.7020 N   0  0  0  0  0  2  0  0  0  0  0  0
  194.9020  176.7970  135.8300 O   0  0  0  0  0  0  0  0  0  0  0  0
  195.0570  175.5870  136.1440 C   0  0  0  0  0  0  0  0  0  0  0  0
  196.3870  174.9420  135.9370 C   0  0  0  0  0  2  0  0  0  0  0  0
  198.7210  173.1680  137.2230 C   0  0  0  0  0  2  0  0  0  0  0  0
  196.4170  173.5430  136.5540 C   0  0  2  0  0  3  0  0  0  0  0  0
  197.3380  173.4510  137.7640 C   0  0  2  0  0  3  0  0  0  0  0  0
  198.4990  172.4330  135.9120 C   0  0  0  0  0  2  0  0  0  0  0  0
  197.0220  172.5710  135.5600 C   0  0  0  0  0  2  0  0  0  0  0  0
  197.2920  174.6340  138.6870 C   0  0  0  0  0  0  0  0  0  0  0  0
  198.3280  175.5560  138.7100 O   0  0  0  0  0  0  0  0  0  0  0  0
  196.2720  174.8280  139.3990 O   0  0  0  0  0  1  0  0  0  0  0  0
  189.2980  175.1560  135.5530 O   0  0  0  0  0  0  0  0  0  0  0  0
  187.9490  174.9610  135.9600 C   0  0  1  0  0  3  0  0  0  0  0  0
  187.1180  175.8560  135.2880 O   0  0  0  0  0  1  0  0  0  0  0  0
  187.5250  173.5480  135.6270 C   0  0  0  0  0  1  0  0  0  0  0  0
  187.2800  178.9580  139.8310 C   0  0  1  0  0  3  0  0  0  0  0  0
  185.7460  177.3160  138.5210 C   0  0  0  0  0  1  0  0  0  0  0  0
  183.9150  179.2500  140.8330 O   0  0  0  0  0  0  0  0  0  0  0  0
  184.8990  178.8180  140.2170 C   0  0  0  0  0  0  0  0  0  0  0  0
  185.9350  178.3630  139.5680 C   0  0  0  0  0  0  0  0  0  0  0  0
  187.5550  179.0310  141.3240 C   0  0  0  0  0  2  0  0  0  0  0  0
  188.2490  177.0000  142.4840 N   0  0  0  0  0  2  0  0  0  0  0  0
  188.3630  177.2190  143.9270 C   0  0  2  0  0  3  0  0  0  0  0  0
  187.2230  178.1070  144.3760 C   0  0  1  0  0  3  0  0  0  0  0  0
  187.0900  177.7560  142.0170 C   0  0  1  0  0  3  0  0  0  0  0  0
  186.2530  178.1130  143.2210 C   0  0  0  0  0  2  0  0  0  0  0  0
  190.2630  178.5010  143.1800 O   0  0  0  0  0  1  0  0  0  0  0  0
  189.7110  177.8500  144.2860 C   0  0  2  0  0  3  0  0  0  0  0  0
  190.6880  176.8070  144.8010 C   0  0  0  0  0  2  0  0  0  0  0  0
  190.6950  176.8050  146.1950 O   0  0  0  0  0  0  0  0  0  0  0  0
  192.0380  176.6620  146.5400 C   0  0  0  0  0  2  0  0  0  0  0  0
  192.8210  176.0750  148.7150 O   0  0  0  0  0  1  0  0  0  0  0  0
  192.1870  175.5690  147.5800 C   0  0  0  0  0  2  0  0  0  0  0  0
  186.5690  177.5280  145.6180 C   0  0  0  0  0  2  0  0  0  0  0  0
  185.2980  178.0670  145.7760 O   0  0  0  0  0  1  0  0  0  0  0  0
  1 28  1  0  0  0  0
  2  4  1  0  0  0  0
  3  4  2  0  0  0  0
  4  1  1  0  0  0  0
  5 10  2  0  0  0  0
  6  9  2  0  0  0  0
  7  2  1  6  0  0  0
  7  6  1  0  0  0  0
  8 11  2  0  0  0  0
  8  5  1  0  0  0  0
 10  6  1  0  0  0  0
 11  7  1  0  0  0  0
 12  5  1  0  0  0  0
 13 14  2  0  0  0  0
 14 12  1  0  0  0  0
 15 14  1  0  0  0  0
 16 18  1  0  0  0  0
 17 15  1  6  0  0  0
 17 18  1  0  0  0  0
 18 21  1  6  0  0  0
 19 16  1  0  0  0  0
 20 19  1  0  0  0  0
 20 17  1  0  0  0  0
 21 22  2  0  0  0  0
 21 23  1  0  0  0  0
 24 25  1  0  0  0  0
 24 11  1  0  0  0  0
 25 27  1  6  0  0  0
 26 25  1  0  0  0  0
 28 33  1  1  0  0  0
 29 32  1  0  0  0  0
 31 30  2  0  0  0  0
 32 28  1  0  0  0  0
 32 31  2  0  0  0  0
 34 35  1  0  0  0  0
 35 40  1  6  0  0  0
 35 36  1  0  0  0  0
 36 46  1  1  0  0  0
 37 33  1  1  0  0  0
 37 34  1  0  0  0  0
 37 38  1  0  0  0  0
 38 36  1  0  0  0  0
 40 39  1  6  0  0  0
 40 41  1  0  0  0  0
 41 42  1  0  0  0  0
 42 43  1  0  0  0  0
 43 45  1  0  0  0  0
 45 44  1  0  0  0  0
 46 47  1  0  0  0  0
M  END
>  <MODEL>
7

>  <REMARK>
 VINA RESULT:      -5.4      3.196      5.323
  Name = 
  17 active torsions:
  status: ('A' for Active; 'I' for Inactive)
    1  A    between atoms: C_1  and  O_24
    2  A    between atoms: N_3  and  C_8
    3  A    between atoms: N_5  and  C_12
    4  A    between atoms: C_6  and  C_37
    5  A    between atoms: N_10  and  C_23
    6  A    between atoms: C_11  and  C_12
    7  A    between atoms: C_11  and  C_32
    8  A    between atoms: C_12  and  C_31
    9  A    between atoms: C_17  and  C_18
   10  A    between atoms: C_17  and  C_19
   11  A    between atoms: C_19  and  O_41
   12  A    between atoms: C_21  and  C_34
   13  A    between atoms: O_24  and  C_44
   14  A    between atoms: C_29  and  C_45
   15  A    between atoms: C_30  and  C_45
   16  A    between atoms: C_35  and  O_41
   17  A    between atoms: C_35  and  C_47
                            x       y       z     vdW  Elec       q    Type
                         _______ _______ _______ _____ _____    ______ ____

>  <TORSDO>
F 17

$$$$
=
 OpenBabel10222415513D

 47 49  0  0  1  0  0  0  0  0999 V2000
  188.6910  177.8730  139.8970 N   0  0  0  0  0  2  0  0  0  0  0  0
  189.6770  177.7240  137.6300 N   0  0  0  0  0  2  0  0  0  0  0  0
  189.1140  179.7610  138.5910 O   0  0  0  0  0  0  0  0  0  0  0  0
  189.1630  178.5080  138.7050 C   0  0  0  0  0  0  0  0  0  0  0  0
  192.1730  175.0640  136.6140 C   0  0  0  0  0  0  0  0  0  0  0  0
  190.9280  175.8730  138.5470 C   0  0  0  0  0  0  0  0  0  0  0  0
  189.7490  176.2720  137.7010 C   0  0  2  0  0  3  0  0  0  0  0  0
  190.9430  175.1820  135.8110 C   0  0  0  0  0  3  0  0  0  0  0  0
  190.8820  176.0190  139.7950 O   0  0  0  0  0  0  0  0  0  0  0  0
  192.1520  175.3630  137.9160 C   0  0  0  0  0  3  0  0  0  0  0  0
  189.8090  175.6980  136.3000 C   0  0  0  0  0  0  0  0  0  0  0  0
  193.3480  174.5380  135.9810 N   0  0  0  0  0  2  0  0  0  0  0  0
  194.6970  176.4610  135.9790 O   0  0  0  0  0  0  0  0  0  0  0  0
  194.5800  175.2300  135.7400 C   0  0  0  0  0  0  0  0  0  0  0  0
  195.7510  174.4750  135.2020 C   0  0  0  0  0  2  0  0  0  0  0  0
  198.3120  172.5990  135.6110 C   0  0  0  0  0  2  0  0  0  0  0  0
  195.9910  173.1960  136.0060 C   0  0  2  0  0  3  0  0  0  0  0  0
  197.3700  173.1570  136.6540 C   0  0  2  0  0  3  0  0  0  0  0  0
  197.4530  171.7130  134.7230 C   0  0  0  0  0  2  0  0  0  0  0  0
  195.9970  172.0080  135.0640 C   0  0  0  0  0  2  0  0  0  0  0  0
  197.8330  174.4590  137.2370 C   0  0  0  0  0  0  0  0  0  0  0  0
  198.7240  175.2690  136.5460 O   0  0  0  0  0  0  0  0  0  0  0  0
  197.3590  174.8540  138.3340 O   0  0  0  0  0  1  0  0  0  0  0  0
  188.6810  175.6940  135.4730 O   0  0  0  0  0  0  0  0  0  0  0  0
  187.5750  174.8250  135.6790 C   0  0  1  0  0  3  0  0  0  0  0  0
  188.0260  173.5810  136.1200 O   0  0  0  0  0  1  0  0  0  0  0  0
  186.6610  175.4180  136.7280 C   0  0  0  0  0  1  0  0  0  0  0  0
  187.9600  178.6020  140.9210 C   0  0  1  0  0  3  0  0  0  0  0  0
  186.0060  178.5280  139.2050 C   0  0  0  0  0  1  0  0  0  0  0  0
  184.8270  178.8120  142.5170 O   0  0  0  0  0  0  0  0  0  0  0  0
  185.6410  178.7030  141.5900 C   0  0  0  0  0  0  0  0  0  0  0  0
  186.4980  178.5890  140.6140 C   0  0  0  0  0  0  0  0  0  0  0  0
  188.2290  177.9990  142.2890 C   0  0  0  0  0  2  0  0  0  0  0  0
  189.8700  178.9360  143.8330 N   0  0  0  0  0  2  0  0  0  0  0  0
  190.1200  178.0370  144.9600 C   0  0  2  0  0  3  0  0  0  0  0  0
  190.1510  176.6130  144.4490 C   0  0  1  0  0  3  0  0  0  0  0  0
  189.7080  178.1090  142.6400 C   0  0  1  0  0  3  0  0  0  0  0  0
  190.2560  176.7380  142.9500 C   0  0  0  0  0  2  0  0  0  0  0  0
  189.1310  177.1590  146.9760 O   0  0  0  0  0  1  0  0  0  0  0  0
  189.0500  178.1970  146.0450 C   0  0  2  0  0  3  0  0  0  0  0  0
  187.6560  178.2310  145.4410 C   0  0  0  0  0  2  0  0  0  0  0  0
  187.0440  176.9860  145.5790 O   0  0  0  0  0  0  0  0  0  0  0  0
  185.6780  177.2630  145.5810 C   0  0  0  0  0  2  0  0  0  0  0  0
  184.1190  179.0430  145.8710 O   0  0  0  0  0  1  0  0  0  0  0  0
  185.4400  178.6650  146.1070 C   0  0  0  0  0  2  0  0  0  0  0  0
  191.3590  175.8830  145.0100 C   0  0  0  0  0  2  0  0  0  0  0  0
  192.0370  176.7070  145.8980 O   0  0  0  0  0  1  0  0  0  0  0  0
  1 28  1  0  0  0  0
  2  4  1  0  0  0  0
  3  4  2  0  0  0  0
  4  1  1  0  0  0  0
  5 10  2  0  0  0  0
  6  9  2  0  0  0  0
  7  2  1  6  0  0  0
  7  6  1  0  0  0  0
  8 11  2  0  0  0  0
  8  5  1  0  0  0  0
 10  6  1  0  0  0  0
 11  7  1  0  0  0  0
 12  5  1  0  0  0  0
 14 13  2  0  0  0  0
 14 12  1  0  0  0  0
 15 14  1  0  0  0  0
 16 18  1  0  0  0  0
 17 15  1  6  0  0  0
 17 18  1  0  0  0  0
 18 21  1  6  0  0  0
 19 20  1  0  0  0  0
 19 16  1  0  0  0  0
 20 17  1  0  0  0  0
 21 23  1  0  0  0  0
 22 21  2  0  0  0  0
 24 25  1  0  0  0  0
 24 11  1  0  0  0  0
 25 26  1  0  0  0  0
 25 27  1  1  0  0  0
 28 33  1  1  0  0  0
 29 32  1  0  0  0  0
 31 30  2  0  0  0  0
 32 28  1  0  0  0  0
 32 31  2  0  0  0  0
 34 35  1  0  0  0  0
 35 40  1  1  0  0  0
 36 35  1  0  0  0  0
 36 46  1  1  0  0  0
 37 33  1  1  0  0  0
 37 38  1  0  0  0  0
 37 34  1  0  0  0  0
 38 36  1  0  0  0  0
 40 39  1  1  0  0  0
 41 42  1  0  0  0  0
 41 40  1  0  0  0  0
 42 43  1  0  0  0  0
 43 45  1  0  0  0  0
 44 45  1  0  0  0  0
 46 47  1  0  0  0  0
M  END
>  <MODEL>
8

>  <REMARK>
 VINA RESULT:      -5.4      3.053      4.846
  Name = 
  17 active torsions:
  status: ('A' for Active; 'I' for Inactive)
    1  A    between atoms: C_1  and  O_24
    2  A    between atoms: N_3  and  C_8
    3  A    between atoms: N_5  and  C_12
    4  A    between atoms: C_6  and  C_37
    5  A    between atoms: N_10  and  C_23
    6  A    between atoms: C_11  and  C_12
    7  A    between atoms: C_11  and  C_32
    8  A    between atoms: C_12  and  C_31
    9  A    between atoms: C_17  and  C_18
   10  A    between atoms: C_17  and  C_19
   11  A    between atoms: C_19  and  O_41
   12  A    between atoms: C_21  and  C_34
   13  A    between atoms: O_24  and  C_44
   14  A    between atoms: C_29  and  C_45
   15  A    between atoms: C_30  and  C_45
   16  A    between atoms: C_35  and  O_41
   17  A    between atoms: C_35  and  C_47
                            x       y       z     vdW  Elec       q    Type
                         _______ _______ _______ _____ _____    ______ ____

>  <TORSDO>
F 17

$$$$
=
 OpenBabel10222415513D

 47 49  0  0  1  0  0  0  0  0999 V2000
  181.7410  177.9540  138.2550 N   0  0  0  0  0  2  0  0  0  0  0  0
  182.0120  177.4820  140.6710 N   0  0  0  0  0  2  0  0  0  0  0  0
  181.1240  175.9140  139.2060 O   0  0  0  0  0  0  0  0  0  0  0  0
  181.6100  177.0650  139.3670 C   0  0  0  0  0  0  0  0  0  0  0  0
  184.6990  178.9310  142.9090 C   0  0  0  0  0  0  0  0  0  0  0  0
  184.0330  178.7980  140.5680 C   0  0  0  0  0  0  0  0  0  0  0  0
  182.5700  178.8030  140.9180 C   0  0  2  0  0  3  0  0  0  0  0  0
  183.2970  179.2180  143.2600 C   0  0  0  0  0  3  0  0  0  0  0  0
  184.3900  178.7790  139.3620 O   0  0  0  0  0  0  0  0  0  0  0  0
  185.0480  178.7650  141.6300 C   0  0  0  0  0  3  0  0  0  0  0  0
  182.3100  179.2020  142.3570 C   0  0  0  0  0  0  0  0  0  0  0  0
  185.6750  178.9300  143.9610 N   0  0  0  0  0  2  0  0  0  0  0  0
  186.8350  176.9590  143.4290 O   0  0  0  0  0  0  0  0  0  0  0  0
  186.7370  177.9870  144.1500 C   0  0  0  0  0  0  0  0  0  0  0  0
  187.7510  178.2290  145.2190 C   0  0  0  0  0  2  0  0  0  0  0  0
  188.1580  178.3670  148.3910 C   0  0  0  0  0  2  0  0  0  0  0  0
  187.6270  177.1900  146.3340 C   0  0  2  0  0  3  0  0  0  0  0  0
  187.0150  177.7610  147.6070 C   0  0  2  0  0  3  0  0  0  0  0  0
  189.3900  177.5770  147.9840 C   0  0  0  0  0  2  0  0  0  0  0  0
  189.0130  176.7470  146.7620 C   0  0  0  0  0  2  0  0  0  0  0  0
  185.8740  178.7110  147.3920 C   0  0  0  0  0  0  0  0  0  0  0  0
  186.0600  180.0810  147.5020 O   0  0  0  0  0  1  0  0  0  0  0  0
  184.7510  178.2640  147.0400 O   0  0  0  0  0  0  0  0  0  0  0  0
  181.0280  179.5620  142.7860 O   0  0  0  0  0  0  0  0  0  0  0  0
  180.0630  178.6110  143.2180 C   0  0  1  0  0  3  0  0  0  0  0  0
  180.6740  177.6500  144.0230 O   0  0  0  0  0  1  0  0  0  0  0  0
  178.9900  179.3150  144.0170 C   0  0  0  0  0  1  0  0  0  0  0  0
  181.1460  177.6610  136.9600 C   0  0  1  0  0  3  0  0  0  0  0  0
  179.6880  178.8260  135.1480 C   0  0  0  0  0  1  0  0  0  0  0  0
  180.6990  181.0840  137.6600 O   0  0  0  0  0  0  0  0  0  0  0  0
  180.5790  180.0070  137.0600 C   0  0  0  0  0  0  0  0  0  0  0  0
  180.4530  178.8730  136.4290 C   0  0  0  0  0  0  0  0  0  0  0  0
  182.2110  177.1800  135.9900 C   0  0  0  0  0  2  0  0  0  0  0  0
  182.8130  175.0490  134.9630 N   0  0  0  0  0  2  0  0  0  0  0  0
  182.6590  173.9380  135.9040 C   0  0  2  0  0  3  0  0  0  0  0  0
  181.4060  174.1640  136.7220 C   0  0  1  0  0  3  0  0  0  0  0  0
  181.7110  175.9780  135.1980 C   0  0  1  0  0  3  0  0  0  0  0  0
  180.6560  175.2530  135.9970 C   0  0  0  0  0  2  0  0  0  0  0  0
  183.9250  174.8620  137.7360 O   0  0  0  0  0  1  0  0  0  0  0  0
  183.8830  173.8120  136.8160 C   0  0  2  0  0  3  0  0  0  0  0  0
  185.1700  173.7900  136.0100 C   0  0  0  0  0  2  0  0  0  0  0  0
  186.2390  174.2060  136.8020 O   0  0  0  0  0  0  0  0  0  0  0  0
  186.8280  175.2440  136.0830 C   0  0  0  0  0  2  0  0  0  0  0  0
  187.5280  177.5150  136.2690 O   0  0  0  0  0  1  0  0  0  0  0  0
  187.1360  176.4020  137.0110 C   0  0  0  0  0  2  0  0  0  0  0  0
  180.5810  172.8910  136.7750 C   0  0  0  0  0  2  0  0  0  0  0  0
  179.7400  172.9190  137.8800 O   0  0  0  0  0  1  0  0  0  0  0  0
  1  4  1  0  0  0  0
  3  4  2  0  0  0  0
  4  2  1  0  0  0  0
  5  8  1  0  0  0  0
  5 12  1  0  0  0  0
  6  7  1  0  0  0  0
  6 10  1  0  0  0  0
  7  2  1  1  0  0  0
  7 11  1  0  0  0  0
  9  6  2  0  0  0  0
 10  5  2  0  0  0  0
 11 24  1  0  0  0  0
 11  8  2  0  0  0  0
 12 14  1  0  0  0  0
 13 14  2  0  0  0  0
 14 15  1  0  0  0  0
 17 15  1  6  0  0  0
 17 20  1  0  0  0  0
 17 18  1  0  0  0  0
 18 21  1  6  0  0  0
 18 16  1  0  0  0  0
 19 16  1  0  0  0  0
 20 19  1  0  0  0  0
 21 22  1  0  0  0  0
 23 21  2  0  0  0  0
 24 25  1  0  0  0  0
 25 27  1  1  0  0  0
 25 26  1  0  0  0  0
 28 33  1  6  0  0  0
 28  1  1  0  0  0  0
 29 32  1  0  0  0  0
 31 30  2  0  0  0  0
 32 28  1  0  0  0  0
 32 31  2  0  0  0  0
 34 37  1  0  0  0  0
 34 35  1  0  0  0  0
 35 36  1  0  0  0  0
 35 40  1  1  0  0  0
 36 46  1  6  0  0  0
 37 33  1  1  0  0  0
 37 38  1  0  0  0  0
 38 36  1  0  0  0  0
 40 39  1  1  0  0  0
 41 42  1  0  0  0  0
 41 40  1  0  0  0  0
 43 42  1  0  0  0  0
 43 45  1  0  0  0  0
 44 45  1  0  0  0  0
 46 47  1  0  0  0  0
M  END
>  <MODEL>
9

>  <REMARK>
 VINA RESULT:      -5.3      5.921     10.234
  Name = 
  17 active torsions:
  status: ('A' for Active; 'I' for Inactive)
    1  A    between atoms: C_1  and  O_24
    2  A    between atoms: N_3  and  C_8
    3  A    between atoms: N_5  and  C_12
    4  A    between atoms: C_6  and  C_37
    5  A    between atoms: N_10  and  C_23
    6  A    between atoms: C_11  and  C_12
    7  A    between atoms: C_11  and  C_32
    8  A    between atoms: C_12  and  C_31
    9  A    between atoms: C_17  and  C_18
   10  A    between atoms: C_17  and  C_19
   11  A    between atoms: C_19  and  O_41
   12  A    between atoms: C_21  and  C_34
   13  A    between atoms: O_24  and  C_44
   14  A    between atoms: C_29  and  C_45
   15  A    between atoms: C_30  and  C_45
   16  A    between atoms: C_35  and  O_41
   17  A    between atoms: C_35  and  C_47
                            x       y       z     vdW  Elec       q    Type
                         _______ _______ _______ _____ _____    ______ ____

>  <TORSDO>
F 17

$$$$
