=
 OpenBabel10222418413D

 41 43  0  0  1  0  0  0  0  0999 V2000
  188.2550  178.3340  140.8150 C   0  0  0  0  0  3  0  0  0  0  0  0
  187.7860  178.4790  139.5760 C   0  0  0  0  0  3  0  0  0  0  0  0
  189.2220  177.2590  141.1880 C   0  0  1  0  0  3  0  0  0  0  0  0
  190.5520  177.2140  139.1040 C   0  0  0  0  0  3  0  0  0  0  0  0
  191.8330  177.5370  141.1200 C   0  0  0  0  0  1  0  0  0  0  0  0
  188.1930  177.6660  138.4110 C   0  0  0  0  0  3  0  0  0  0  0  0
  189.3760  177.0650  138.2160 C   0  0  0  0  0  0  0  0  0  0  0  0
  190.5230  177.3730  140.4270 C   0  0  0  0  0  0  0  0  0  0  0  0
  189.9140  175.7060  143.0660 C   0  0  0  0  0  1  0  0  0  0  0  0
  189.3230  177.0740  142.7180 C   0  0  2  0  0  3  0  0  0  0  0  0
  187.4160  176.0010  143.7190 C   0  0  0  0  0  1  0  0  0  0  0  0
  188.0230  177.2870  143.3770 N   0  0  0  0  0  0  0  0  0  0  0  0
  190.7970  177.0310  147.2610 C   0  0  0  0  0  1  0  0  0  0  0  0
  186.9510  178.0290  145.4940 C   0  0  2  0  0  3  0  0  0  0  0  0
  187.2920  178.1740  146.9760 C   0  0  0  0  0  2  0  0  0  0  0  0
  189.5130  176.9170  146.4590 C   0  0  1  0  0  3  0  0  0  0  0  0
  188.1960  178.1010  144.5950 C   0  0  1  0  0  3  0  0  0  0  0  0
  188.3150  177.1430  147.3450 C   0  0  0  0  0  0  0  0  0  0  0  0
  188.1560  176.4690  148.3500 O   0  0  0  0  0  0  0  0  0  0  0  0
  189.5590  177.9250  145.3090 C   0  0  0  0  0  2  0  0  0  0  0  0
  185.9690  179.1090  145.0680 C   0  0  0  0  0  2  0  0  0  0  0  0
  183.4910  178.9170  144.9860 C   0  0  0  0  0  1  0  0  0  0  0  0
  184.7940  178.5130  144.3150 C   0  0  1  0  0  3  0  0  0  0  0  0
  184.8200  179.0140  142.9090 C   0  0  0  0  0  3  0  0  0  0  0  0
  184.6150  178.1860  141.8860 C   0  0  0  0  0  2  0  0  0  0  0  0
  189.5780  176.3380  136.9290 C   0  0  0  0  0  2  0  0  0  0  0  0
  188.9360  174.9570  136.9730 C   0  0  2  0  0  3  0  0  0  0  0  0
  191.1000  173.8750  137.5800 O   0  0  0  0  0  1  0  0  0  0  0  0
  189.9600  173.8790  136.7880 C   0  0  0  0  0  0  0  0  0  0  0  0
  189.7980  172.9810  135.9200 O   0  0  0  0  0  0  0  0  0  0  0  0
  187.8490  174.8640  135.9130 C   0  0  0  0  0  2  0  0  0  0  0  0
  186.5190  174.6340  136.5490 C   0  0  0  0  0  0  0  0  0  0  0  0
  185.6620  175.6200  136.8610 N   0  0  0  0  0  2  0  0  0  0  0  0
  185.9670  173.4090  136.8420 C   0  0  0  0  0  0  0  0  0  0  0  0
  184.7100  173.6150  137.3720 C   0  0  0  0  0  3  0  0  0  0  0  0
  184.5720  174.9980  137.3640 C   0  0  0  0  0  0  0  0  0  0  0  0
  182.9720  175.5470  139.0210 O   0  0  0  0  0  0  0  0  0  0  0  0
  183.3850  175.7180  137.8440 C   0  0  0  0  0  0  0  0  0  0  0  0
  182.6570  176.6570  136.9480 C   0  0  0  0  0  1  0  0  0  0  0  0
  186.2680  171.3210  135.4610 C   0  0  0  0  0  1  0  0  0  0  0  0
  186.5900  172.1440  136.6140 N   0  0  0  0  0  2  0  0  0  0  0  0
  1  3  1  0  0  0  0
  2  1  2  0  0  0  0
  3 10  1  1  0  0  0
  4  8  2  0  0  0  0
  6  2  1  0  0  0  0
  7  6  2  0  0  0  0
  7  4  1  0  0  0  0
  8  5  1  0  0  0  0
  8  3  1  0  0  0  0
 10  9  1  6  0  0  0
 10 12  1  0  0  0  0
 12 11  1  0  0  0  0
 14 21  1  6  0  0  0
 14 15  1  0  0  0  0
 15 18  1  0  0  0  0
 16 13  1  1  0  0  0
 16 18  1  0  0  0  0
 17 12  1  6  0  0  0
 17 20  1  0  0  0  0
 17 14  1  0  0  0  0
 18 19  2  0  0  0  0
 20 16  1  0  0  0  0
 23 22  1  1  0  0  0
 23 21  1  0  0  0  0
 24 23  1  0  0  0  0
 25 24  2  0  0  0  0
 26 27  1  0  0  0  0
 26  7  1  0  0  0  0
 27 31  1  6  0  0  0
 29 27  1  0  0  0  0
 29 28  1  0  0  0  0
 30 29  2  0  0  0  0
 31 32  1  0  0  0  0
 32 34  2  0  0  0  0
 32 33  1  0  0  0  0
 33 36  1  0  0  0  0
 34 35  1  0  0  0  0
 36 35  2  0  0  0  0
 36 38  1  0  0  0  0
 38 37  2  0  0  0  0
 39 38  1  0  0  0  0
 40 41  1  0  0  0  0
 41 34  1  0  0  0  0
M  END
>  <MODEL>
1

>  <REMARK>
 VINA RESULT:      -7.6      0.000      0.000
  Name = 
  13 active torsions:
  status: ('A' for Active; 'I' for Inactive)
    1  A    between atoms: C_5  and  C_19
    2  A    between atoms: C_5  and  C_33
    3  A    between atoms: C_6  and  C_8
    4  A    between atoms: C_6  and  C_38
    5  A    between atoms: C_9  and  C_36
    6  A    between atoms: C_14  and  N_35
    7  A    between atoms: C_16  and  C_26
    8  A    between atoms: C_19  and  C_21
    9  A    between atoms: C_19  and  C_26
   10  A    between atoms: C_20  and  C_38
   11  A    between atoms: C_23  and  N_32
   12  A    between atoms: N_35  and  C_36
   13  A    between atoms: C_37  and  C_39
                            x       y       z     vdW  Elec       q    Type
                         _______ _______ _______ _____ _____    ______ ____

>  <TORSDO>
F 13

$$$$
=
 OpenBabel10222418413D

 41 43  0  0  1  0  0  0  0  0999 V2000
  186.5560  178.9140  141.1740 C   0  0  0  0  0  3  0  0  0  0  0  0
  185.3280  179.0660  140.6820 C   0  0  0  0  0  3  0  0  0  0  0  0
  187.5510  177.9750  140.5770 C   0  0  1  0  0  3  0  0  0  0  0  0
  186.9530  178.2620  138.1950 C   0  0  0  0  0  3  0  0  0  0  0  0
  189.2770  178.6440  138.7130 C   0  0  0  0  0  1  0  0  0  0  0  0
  184.8080  178.3990  139.4700 C   0  0  0  0  0  3  0  0  0  0  0  0
  185.5110  177.9960  138.4020 C   0  0  0  0  0  0  0  0  0  0  0  0
  187.8840  178.3300  139.1460 C   0  0  0  0  0  0  0  0  0  0  0  0
  189.8460  176.9270  140.8110 C   0  0  0  0  0  1  0  0  0  0  0  0
  188.7410  177.7090  141.5250 C   0  0  2  0  0  3  0  0  0  0  0  0
  188.9790  175.7390  142.8870 C   0  0  0  0  0  1  0  0  0  0  0  0
  188.3100  177.0340  142.7620 N   0  0  0  0  0  0  0  0  0  0  0  0
  191.7140  177.0570  146.1160 C   0  0  0  0  0  1  0  0  0  0  0  0
  187.5540  177.7090  145.0320 C   0  0  2  0  0  3  0  0  0  0  0  0
  188.1280  177.8980  146.4350 C   0  0  0  0  0  2  0  0  0  0  0  0
  190.3270  176.8260  145.5450 C   0  0  1  0  0  3  0  0  0  0  0  0
  188.6180  177.8740  143.9350 C   0  0  1  0  0  3  0  0  0  0  0  0
  189.2820  176.9620  146.6220 C   0  0  0  0  0  0  0  0  0  0  0  0
  189.3530  176.2890  147.6370 O   0  0  0  0  0  0  0  0  0  0  0  0
  190.0920  177.8210  144.4060 C   0  0  0  0  0  2  0  0  0  0  0  0
  186.4270  178.6970  144.7820 C   0  0  0  0  0  2  0  0  0  0  0  0
  184.5700  178.5150  146.4280 C   0  0  0  0  0  1  0  0  0  0  0  0
  185.0750  178.0670  145.0650 C   0  0  1  0  0  3  0  0  0  0  0  0
  184.1150  178.4910  144.0030 C   0  0  0  0  0  3  0  0  0  0  0  0
  183.2790  179.5080  144.2050 C   0  0  0  0  0  2  0  0  0  0  0  0
  184.7570  177.3910  137.2660 C   0  0  0  0  0  2  0  0  0  0  0  0
  183.9710  176.1670  137.7190 C   0  0  2  0  0  3  0  0  0  0  0  0
  184.0920  173.6780  137.6130 O   0  0  0  0  0  1  0  0  0  0  0  0
  184.5760  174.9060  137.1830 C   0  0  0  0  0  0  0  0  0  0  0  0
  185.5220  174.9490  136.3520 O   0  0  0  0  0  0  0  0  0  0  0  0
  182.5190  176.3020  137.2860 C   0  0  0  0  0  2  0  0  0  0  0  0
  181.6180  176.3060  138.4750 C   0  0  0  0  0  0  0  0  0  0  0  0
  181.4940  177.3490  139.3120 N   0  0  0  0  0  2  0  0  0  0  0  0
  180.7610  175.2940  138.8400 C   0  0  0  0  0  0  0  0  0  0  0  0
  180.0660  175.6980  139.9610 C   0  0  0  0  0  3  0  0  0  0  0  0
  180.5580  176.9730  140.2120 C   0  0  0  0  0  0  0  0  0  0  0  0
  179.2420  177.4240  142.1290 O   0  0  0  0  0  0  0  0  0  0  0  0
  180.1220  177.8280  141.3250 C   0  0  0  0  0  0  0  0  0  0  0  0
  180.7150  179.1800  141.5150 C   0  0  0  0  0  1  0  0  0  0  0  0
  179.7370  173.9000  137.0070 C   0  0  0  0  0  1  0  0  0  0  0  0
  180.6110  174.0490  138.1570 N   0  0  0  0  0  2  0  0  0  0  0  0
  2  1  2  0  0  0  0
  3  1  1  0  0  0  0
  3 10  1  1  0  0  0
  4  7  1  0  0  0  0
  4  8  2  0  0  0  0
  5  8  1  0  0  0  0
  6  2  1  0  0  0  0
  7  6  2  0  0  0  0
  8  3  1  0  0  0  0
 10  9  1  6  0  0  0
 10 12  1  0  0  0  0
 12 11  1  0  0  0  0
 14 21  1  6  0  0  0
 14 15  1  0  0  0  0
 15 18  1  0  0  0  0
 16 13  1  1  0  0  0
 16 18  1  0  0  0  0
 17 12  1  6  0  0  0
 17 20  1  0  0  0  0
 17 14  1  0  0  0  0
 18 19  2  0  0  0  0
 20 16  1  0  0  0  0
 21 23  1  0  0  0  0
 23 22  1  1  0  0  0
 24 25  2  0  0  0  0
 24 23  1  0  0  0  0
 26  7  1  0  0  0  0
 27 26  1  6  0  0  0
 29 28  1  0  0  0  0
 29 27  1  0  0  0  0
 30 29  2  0  0  0  0
 31 27  1  0  0  0  0
 31 32  1  0  0  0  0
 32 34  2  0  0  0  0
 32 33  1  0  0  0  0
 33 36  1  0  0  0  0
 34 35  1  0  0  0  0
 35 36  2  0  0  0  0
 36 38  1  0  0  0  0
 38 39  1  0  0  0  0
 38 37  2  0  0  0  0
 40 41  1  0  0  0  0
 41 34  1  0  0  0  0
M  END
>  <MODEL>
2

>  <REMARK>
 VINA RESULT:      -6.9      2.518      3.940
  Name = 
  13 active torsions:
  status: ('A' for Active; 'I' for Inactive)
    1  A    between atoms: C_5  and  C_19
    2  A    between atoms: C_5  and  C_33
    3  A    between atoms: C_6  and  C_8
    4  A    between atoms: C_6  and  C_38
    5  A    between atoms: C_9  and  C_36
    6  A    between atoms: C_14  and  N_35
    7  A    between atoms: C_16  and  C_26
    8  A    between atoms: C_19  and  C_21
    9  A    between atoms: C_19  and  C_26
   10  A    between atoms: C_20  and  C_38
   11  A    between atoms: C_23  and  N_32
   12  A    between atoms: N_35  and  C_36
   13  A    between atoms: C_37  and  C_39
                            x       y       z     vdW  Elec       q    Type
                         _______ _______ _______ _____ _____    ______ ____

>  <TORSDO>
F 13

$$$$
=
 OpenBabel10222418413D

 41 43  0  0  1  0  0  0  0  0999 V2000
  181.4020  178.9920  141.8670 C   0  0  0  0  0  3  0  0  0  0  0  0
  181.8370  178.9390  143.1250 C   0  0  0  0  0  3  0  0  0  0  0  0
  182.3220  179.1770  140.7050 C   0  0  1  0  0  3  0  0  0  0  0  0
  184.2420  177.8600  141.5370 C   0  0  0  0  0  3  0  0  0  0  0  0
  183.4220  177.2040  139.3670 C   0  0  0  0  0  1  0  0  0  0  0  0
  183.2550  178.9850  143.5380 C   0  0  0  0  0  3  0  0  0  0  0  0
  184.3180  178.5670  142.8350 C   0  0  0  0  0  0  0  0  0  0  0  0
  183.3260  178.0540  140.5880 C   0  0  0  0  0  0  0  0  0  0  0  0
  182.1270  180.8630  138.8240 C   0  0  0  0  0  1  0  0  0  0  0  0
  181.5620  179.5720  139.4200 C   0  0  2  0  0  3  0  0  0  0  0  0
  179.6140  180.9650  139.1860 C   0  0  0  0  0  1  0  0  0  0  0  0
  180.1110  179.6710  139.6550 N   0  0  0  0  0  0  0  0  0  0  0  0
  179.2280  175.0680  140.5870 C   0  0  0  0  0  1  0  0  0  0  0  0
  180.1440  178.1650  137.6770 C   0  0  2  0  0  3  0  0  0  0  0  0
  179.9520  176.6870  137.3440 C   0  0  0  0  0  2  0  0  0  0  0  0
  179.9070  176.2430  139.9090 C   0  0  1  0  0  3  0  0  0  0  0  0
  179.4050  178.5790  138.9590 C   0  0  1  0  0  3  0  0  0  0  0  0
  180.3650  175.8630  138.5240 C   0  0  0  0  0  0  0  0  0  0  0  0
  181.0960  174.8990  138.3610 O   0  0  0  0  0  0  0  0  0  0  0  0
  178.9320  177.4220  139.8730 C   0  0  0  0  0  2  0  0  0  0  0  0
  179.6650  179.0350  136.5260 C   0  0  0  0  0  2  0  0  0  0  0  0
  181.3280  178.6410  134.7180 C   0  0  0  0  0  1  0  0  0  0  0  0
  180.8370  179.6290  135.7650 C   0  0  1  0  0  3  0  0  0  0  0  0
  180.3910  180.8910  135.1040 C   0  0  0  0  0  3  0  0  0  0  0  0
  180.4700  182.0590  135.7400 C   0  0  0  0  0  2  0  0  0  0  0  0
  185.6570  178.6660  143.4850 C   0  0  0  0  0  2  0  0  0  0  0  0
  186.6940  177.8450  142.7300 C   0  0  2  0  0  3  0  0  0  0  0  0
  187.3800  177.1120  145.0130 O   0  0  0  0  0  1  0  0  0  0  0  0
  187.3970  176.8880  143.6430 C   0  0  0  0  0  0  0  0  0  0  0  0
  188.0050  175.8860  143.1810 O   0  0  0  0  0  0  0  0  0  0  0  0
  187.6860  178.7750  142.0480 C   0  0  0  0  0  2  0  0  0  0  0  0
  187.9970  178.2890  140.6730 C   0  0  0  0  0  0  0  0  0  0  0  0
  187.1730  178.4460  139.6230 N   0  0  0  0  0  0  0  0  0  0  0  0
  189.1660  177.6830  140.2770 C   0  0  1  0  0  3  0  0  0  0  0  0
  189.0880  177.4310  138.9230 C   0  0  0  0  0  3  0  0  0  0  0  0
  187.8360  177.9200  138.5690 C   0  0  0  0  0  0  0  0  0  0  0  0
  186.0390  177.7720  137.0350 O   0  0  0  0  0  0  0  0  0  0  0  0
  187.2810  177.8770  137.2100 C   0  0  0  0  0  0  0  0  0  0  0  0
  188.1770  177.9580  136.0240 C   0  0  0  0  0  1  0  0  0  0  0  0
  191.6450  177.4070  140.6480 C   0  0  0  0  0  1  0  0  0  0  0  0
  190.2750  177.3860  141.1290 N   0  0  0  0  0  2  0  0  0  0  0  0
  1  2  2  0  0  0  0
  2  6  1  0  0  0  0
  3 10  1  6  0  0  0
  3  1  1  0  0  0  0
  4  7  1  0  0  0  0
  5  8  1  0  0  0  0
  7 26  1  0  0  0  0
  7  6  2  0  0  0  0
  8  3  1  0  0  0  0
  8  4  2  0  0  0  0
 10  9  1  1  0  0  0
 10 12  1  0  0  0  0
 11 12  1  0  0  0  0
 14 21  1  6  0  0  0
 14 17  1  0  0  0  0
 15 14  1  0  0  0  0
 15 18  1  0  0  0  0
 16 13  1  6  0  0  0
 17 12  1  1  0  0  0
 17 20  1  0  0  0  0
 18 16  1  0  0  0  0
 19 18  2  0  0  0  0
 20 16  1  0  0  0  0
 23 22  1  6  0  0  0
 23 21  1  0  0  0  0
 24 25  2  0  0  0  0
 24 23  1  0  0  0  0
 27 31  1  1  0  0  0
 27 26  1  0  0  0  0
 27 29  1  0  0  0  0
 29 28  1  0  0  0  0
 30 29  2  0  0  0  0
 32 31  1  0  0  0  0
 33 32  2  0  0  0  0
 34 32  1  0  0  0  0
 34 41  1  6  0  0  0
 35 34  1  0  0  0  0
 36 35  2  0  0  0  0
 36 33  1  0  0  0  0
 37 38  2  0  0  0  0
 38 36  1  0  0  0  0
 39 38  1  0  0  0  0
 40 41  1  0  0  0  0
M  END
>  <MODEL>
3

>  <REMARK>
 VINA RESULT:      -6.9      3.410      8.729
  Name = 
  13 active torsions:
  status: ('A' for Active; 'I' for Inactive)
    1  A    between atoms: C_5  and  C_19
    2  A    between atoms: C_5  and  C_33
    3  A    between atoms: C_6  and  C_8
    4  A    between atoms: C_6  and  C_38
    5  A    between atoms: C_9  and  C_36
    6  A    between atoms: C_14  and  N_35
    7  A    between atoms: C_16  and  C_26
    8  A    between atoms: C_19  and  C_21
    9  A    between atoms: C_19  and  C_26
   10  A    between atoms: C_20  and  C_38
   11  A    between atoms: C_23  and  N_32
   12  A    between atoms: N_35  and  C_36
   13  A    between atoms: C_37  and  C_39
                            x       y       z     vdW  Elec       q    Type
                         _______ _______ _______ _____ _____    ______ ____

>  <TORSDO>
F 13

$$$$
=
 OpenBabel10222418413D

 41 43  0  0  1  0  0  0  0  0999 V2000
  185.6500  178.4170  138.1040 C   0  0  0  0  0  3  0  0  0  0  0  0
  186.9540  178.3560  137.8360 C   0  0  0  0  0  3  0  0  0  0  0  0
  185.0650  177.9010  139.3760 C   0  0  1  0  0  3  0  0  0  0  0  0
  186.9050  178.5180  140.9100 C   0  0  0  0  0  3  0  0  0  0  0  0
  184.7320  179.3510  141.5410 C   0  0  0  0  0  1  0  0  0  0  0  0
  187.9890  177.8470  138.7600 C   0  0  0  0  0  3  0  0  0  0  0  0
  187.9580  177.8630  140.1010 C   0  0  0  0  0  0  0  0  0  0  0  0
  185.6150  178.6170  140.5890 C   0  0  0  0  0  0  0  0  0  0  0  0
  183.1220  176.2750  139.3380 C   0  0  0  0  0  1  0  0  0  0  0  0
  183.5300  177.7490  139.2910 C   0  0  2  0  0  3  0  0  0  0  0  0
  182.9610  177.5070  136.9660 C   0  0  0  0  0  1  0  0  0  0  0  0
  182.9830  178.4270  138.1030 N   0  0  0  0  0  0  0  0  0  0  0  0
  179.8160  181.1310  135.7590 C   0  0  0  0  0  1  0  0  0  0  0  0
  181.6170  179.9350  139.5310 C   0  0  2  0  0  3  0  0  0  0  0  0
  180.5100  180.9780  139.3870 C   0  0  0  0  0  2  0  0  0  0  0  0
  180.8600  180.8110  136.8120 C   0  0  1  0  0  3  0  0  0  0  0  0
  181.6200  178.9190  138.3780 C   0  0  1  0  0  3  0  0  0  0  0  0
  180.6350  181.6410  138.0500 C   0  0  0  0  0  0  0  0  0  0  0  0
  180.5830  182.8580  137.9740 O   0  0  0  0  0  0  0  0  0  0  0  0
  180.8040  179.3140  137.1240 C   0  0  0  0  0  2  0  0  0  0  0  0
  181.4750  179.1900  140.8490 C   0  0  0  0  0  2  0  0  0  0  0  0
  179.3380  177.9720  141.2180 C   0  0  0  0  0  1  0  0  0  0  0  0
  180.0610  179.2990  141.3890 C   0  0  1  0  0  3  0  0  0  0  0  0
  180.1260  179.6600  142.8360 C   0  0  0  0  0  3  0  0  0  0  0  0
  179.7010  178.8110  143.7710 C   0  0  0  0  0  2  0  0  0  0  0  0
  189.1510  177.3380  140.8260 C   0  0  0  0  0  2  0  0  0  0  0  0
  189.1330  177.7590  142.2890 C   0  0  2  0  0  3  0  0  0  0  0  0
  190.6850  179.2330  143.5700 O   0  0  0  0  0  1  0  0  0  0  0  0
  190.5070  178.1140  142.7670 C   0  0  0  0  0  0  0  0  0  0  0  0
  191.5020  177.4120  142.4450 O   0  0  0  0  0  0  0  0  0  0  0  0
  188.5320  176.6470  143.1350 C   0  0  0  0  0  2  0  0  0  0  0  0
  187.8160  177.2160  144.3130 C   0  0  0  0  0  0  0  0  0  0  0  0
  186.5190  177.5680  144.2980 N   0  0  0  0  0  0  0  0  0  0  0  0
  188.3470  177.3980  145.5690 C   0  0  1  0  0  3  0  0  0  0  0  0
  187.3570  177.8970  146.3900 C   0  0  0  0  0  3  0  0  0  0  0  0
  186.2500  177.9850  145.5560 C   0  0  0  0  0  0  0  0  0  0  0  0
  184.6190  178.4960  147.1950 O   0  0  0  0  0  0  0  0  0  0  0  0
  184.9290  178.4730  145.9750 C   0  0  0  0  0  0  0  0  0  0  0  0
  183.9430  178.9460  144.9660 C   0  0  0  0  0  1  0  0  0  0  0  0
  190.0300  176.6330  147.2830 C   0  0  0  0  0  1  0  0  0  0  0  0
  189.6910  177.1010  145.9500 N   0  0  0  0  0  2  0  0  0  0  0  0
  1  3  1  0  0  0  0
  2  1  2  0  0  0  0
  2  6  1  0  0  0  0
  3 10  1  6  0  0  0
  3  8  1  0  0  0  0
  6  7  2  0  0  0  0
  7 26  1  0  0  0  0
  7  4  1  0  0  0  0
  8  4  2  0  0  0  0
  8  5  1  0  0  0  0
 10  9  1  6  0  0  0
 11 12  1  0  0  0  0
 12 10  1  0  0  0  0
 14 21  1  1  0  0  0
 15 14  1  0  0  0  0
 16 13  1  6  0  0  0
 16 20  1  0  0  0  0
 16 18  1  0  0  0  0
 17 12  1  6  0  0  0
 17 14  1  0  0  0  0
 18 15  1  0  0  0  0
 19 18  2  0  0  0  0
 20 17  1  0  0  0  0
 21 23  1  0  0  0  0
 23 22  1  1  0  0  0
 23 24  1  0  0  0  0
 24 25  2  0  0  0  0
 27 26  1  6  0  0  0
 27 29  1  0  0  0  0
 27 31  1  0  0  0  0
 29 28  1  0  0  0  0
 30 29  2  0  0  0  0
 31 32  1  0  0  0  0
 32 34  1  0  0  0  0
 33 32  2  0  0  0  0
 33 36  1  0  0  0  0
 34 41  1  1  0  0  0
 34 35  1  0  0  0  0
 36 38  1  0  0  0  0
 36 35  2  0  0  0  0
 38 37  2  0  0  0  0
 39 38  1  0  0  0  0
 41 40  1  0  0  0  0
M  END
>  <MODEL>
4

>  <REMARK>
 VINA RESULT:      -6.9      3.366      8.537
  Name = 
  13 active torsions:
  status: ('A' for Active; 'I' for Inactive)
    1  A    between atoms: C_5  and  C_19
    2  A    between atoms: C_5  and  C_33
    3  A    between atoms: C_6  and  C_8
    4  A    between atoms: C_6  and  C_38
    5  A    between atoms: C_9  and  C_36
    6  A    between atoms: C_14  and  N_35
    7  A    between atoms: C_16  and  C_26
    8  A    between atoms: C_19  and  C_21
    9  A    between atoms: C_19  and  C_26
   10  A    between atoms: C_20  and  C_38
   11  A    between atoms: C_23  and  N_32
   12  A    between atoms: N_35  and  C_36
   13  A    between atoms: C_37  and  C_39
                            x       y       z     vdW  Elec       q    Type
                         _______ _______ _______ _____ _____    ______ ____

>  <TORSDO>
F 13

$$$$
=
 OpenBabel10222418413D

 41 43  0  0  1  0  0  0  0  0999 V2000
  181.4820  178.9900  142.2450 C   0  0  0  0  0  3  0  0  0  0  0  0
  181.9220  178.9760  143.5030 C   0  0  0  0  0  3  0  0  0  0  0  0
  182.3960  179.1460  141.0750 C   0  0  1  0  0  3  0  0  0  0  0  0
  184.3270  177.8630  141.9360 C   0  0  0  0  0  3  0  0  0  0  0  0
  183.5000  177.1390  139.7890 C   0  0  0  0  0  1  0  0  0  0  0  0
  183.3420  179.0410  143.9080 C   0  0  0  0  0  3  0  0  0  0  0  0
  184.4040  178.6090  143.2130 C   0  0  0  0  0  0  0  0  0  0  0  0
  183.4050  178.0250  140.9860 C   0  0  0  0  0  0  0  0  0  0  0  0
  182.2010  180.7600  139.1310 C   0  0  0  0  0  1  0  0  0  0  0  0
  181.6280  179.4980  139.7820 C   0  0  2  0  0  3  0  0  0  0  0  0
  179.7110  180.9420  139.6050 C   0  0  0  0  0  1  0  0  0  0  0  0
  180.1810  179.6220  140.0260 N   0  0  0  0  0  0  0  0  0  0  0  0
  179.1470  175.0250  140.8240 C   0  0  0  0  0  1  0  0  0  0  0  0
  180.1870  178.1700  138.0080 C   0  0  2  0  0  3  0  0  0  0  0  0
  179.9520  176.7080  137.6320 C   0  0  0  0  0  2  0  0  0  0  0  0
  179.8690  176.1960  140.1840 C   0  0  1  0  0  3  0  0  0  0  0  0
  179.4480  178.5720  139.2940 C   0  0  1  0  0  3  0  0  0  0  0  0
  180.3280  175.8400  138.7930 C   0  0  0  0  0  0  0  0  0  0  0  0
  181.0310  174.8590  138.6100 O   0  0  0  0  0  0  0  0  0  0  0  0
  178.9310  177.4050  140.1710 C   0  0  0  0  0  2  0  0  0  0  0  0
  179.7460  179.0850  136.8770 C   0  0  0  0  0  2  0  0  0  0  0  0
  180.7110  178.2330  134.7480 C   0  0  0  0  0  1  0  0  0  0  0  0
  180.8550  179.2660  135.8560 C   0  0  1  0  0  3  0  0  0  0  0  0
  180.7630  180.6420  135.2840 C   0  0  0  0  0  3  0  0  0  0  0  0
  180.3760  181.6690  136.0380 C   0  0  0  0  0  2  0  0  0  0  0  0
  185.7460  178.7330  143.8520 C   0  0  0  0  0  2  0  0  0  0  0  0
  185.8670  177.8090  145.0570 C   0  0  2  0  0  3  0  0  0  0  0  0
  187.1600  178.1910  147.1560 O   0  0  0  0  0  1  0  0  0  0  0  0
  186.1320  178.5850  146.3100 C   0  0  0  0  0  0  0  0  0  0  0  0
  185.4300  179.5880  146.6060 O   0  0  0  0  0  0  0  0  0  0  0  0
  186.9630  176.7840  144.8080 C   0  0  0  0  0  2  0  0  0  0  0  0
  187.9090  177.2750  143.7640 C   0  0  0  0  0  0  0  0  0  0  0  0
  187.6560  177.2220  142.4460 N   0  0  0  0  0  0  0  0  0  0  0  0
  189.1160  177.8920  143.9960 C   0  0  1  0  0  3  0  0  0  0  0  0
  189.6650  178.2410  142.7790 C   0  0  0  0  0  3  0  0  0  0  0  0
  188.7250  177.8030  141.8560 C   0  0  0  0  0  0  0  0  0  0  0  0
  188.0540  178.6680  139.7550 O   0  0  0  0  0  0  0  0  0  0  0  0
  188.8600  177.9460  140.4000 C   0  0  0  0  0  0  0  0  0  0  0  0
  189.9480  177.2410  139.6690 C   0  0  0  0  0  1  0  0  0  0  0  0
  190.4750  177.1420  145.9830 C   0  0  0  0  0  1  0  0  0  0  0  0
  189.6860  178.1400  145.2820 N   0  0  0  0  0  2  0  0  0  0  0  0
  1  2  2  0  0  0  0
  2  6  1  0  0  0  0
  3 10  1  6  0  0  0
  3  1  1  0  0  0  0
  4  7  1  0  0  0  0
  5  8  1  0  0  0  0
  7 26  1  0  0  0  0
  7  6  2  0  0  0  0
  8  3  1  0  0  0  0
  8  4  2  0  0  0  0
 10  9  1  1  0  0  0
 10 12  1  0  0  0  0
 11 12  1  0  0  0  0
 14 21  1  6  0  0  0
 14 17  1  0  0  0  0
 15 14  1  0  0  0  0
 15 18  1  0  0  0  0
 16 13  1  6  0  0  0
 17 12  1  1  0  0  0
 17 20  1  0  0  0  0
 18 16  1  0  0  0  0
 19 18  2  0  0  0  0
 20 16  1  0  0  0  0
 23 22  1  6  0  0  0
 23 21  1  0  0  0  0
 24 23  1  0  0  0  0
 24 25  2  0  0  0  0
 27 26  1  6  0  0  0
 27 29  1  0  0  0  0
 29 30  2  0  0  0  0
 29 28  1  0  0  0  0
 31 27  1  0  0  0  0
 32 34  1  0  0  0  0
 32 31  1  0  0  0  0
 33 32  2  0  0  0  0
 34 41  1  1  0  0  0
 35 34  1  0  0  0  0
 36 33  1  0  0  0  0
 36 35  2  0  0  0  0
 37 38  2  0  0  0  0
 38 36  1  0  0  0  0
 39 38  1  0  0  0  0
 41 40  1  0  0  0  0
M  END
>  <MODEL>
5

>  <REMARK>
 VINA RESULT:      -6.9      3.387      9.506
  Name = 
  13 active torsions:
  status: ('A' for Active; 'I' for Inactive)
    1  A    between atoms: C_5  and  C_19
    2  A    between atoms: C_5  and  C_33
    3  A    between atoms: C_6  and  C_8
    4  A    between atoms: C_6  and  C_38
    5  A    between atoms: C_9  and  C_36
    6  A    between atoms: C_14  and  N_35
    7  A    between atoms: C_16  and  C_26
    8  A    between atoms: C_19  and  C_21
    9  A    between atoms: C_19  and  C_26
   10  A    between atoms: C_20  and  C_38
   11  A    between atoms: C_23  and  N_32
   12  A    between atoms: N_35  and  C_36
   13  A    between atoms: C_37  and  C_39
                            x       y       z     vdW  Elec       q    Type
                         _______ _______ _______ _____ _____    ______ ____

>  <TORSDO>
F 13

$$$$
=
 OpenBabel10222418413D

 41 43  0  0  1  0  0  0  0  0999 V2000
  186.6500  178.8420  141.0110 C   0  0  0  0  0  3  0  0  0  0  0  0
  185.3770  179.0350  140.6680 C   0  0  0  0  0  3  0  0  0  0  0  0
  187.5410  177.8830  140.2930 C   0  0  1  0  0  3  0  0  0  0  0  0
  186.6780  178.2190  138.0000 C   0  0  0  0  0  3  0  0  0  0  0  0
  189.0560  178.5280  138.2470 C   0  0  0  0  0  1  0  0  0  0  0  0
  184.7010  178.3990  139.5180 C   0  0  0  0  0  3  0  0  0  0  0  0
  185.2630  177.9900  138.3710 C   0  0  0  0  0  0  0  0  0  0  0  0
  187.7150  178.2470  138.8370 C   0  0  0  0  0  0  0  0  0  0  0  0
  189.8300  176.8000  140.2360 C   0  0  0  0  0  1  0  0  0  0  0  0
  188.8240  177.5710  141.0930 C   0  0  2  0  0  3  0  0  0  0  0  0
  189.4410  175.7350  142.5210 C   0  0  0  0  0  1  0  0  0  0  0  0
  188.5230  176.8610  142.3480 N   0  0  0  0  0  0  0  0  0  0  0  0
  192.0640  179.3650  144.3540 C   0  0  0  0  0  1  0  0  0  0  0  0
  188.4200  177.0420  144.8260 C   0  0  2  0  0  3  0  0  0  0  0  0
  189.2080  177.6670  145.9750 C   0  0  0  0  0  2  0  0  0  0  0  0
  191.0550  178.2390  144.2310 C   0  0  1  0  0  3  0  0  0  0  0  0
  188.6350  177.7810  143.4950 C   0  0  1  0  0  3  0  0  0  0  0  0
  190.6550  177.7350  145.5940 C   0  0  0  0  0  0  0  0  0  0  0  0
  191.5040  177.3540  146.3830 O   0  0  0  0  0  0  0  0  0  0  0  0
  189.8450  178.7450  143.4430 C   0  0  0  0  0  2  0  0  0  0  0  0
  186.9340  177.0250  145.1490 C   0  0  0  0  0  2  0  0  0  0  0  0
  185.0480  178.2520  144.0900 C   0  0  0  0  0  1  0  0  0  0  0  0
  186.3100  178.3900  144.9260 C   0  0  1  0  0  3  0  0  0  0  0  0
  185.9790  178.9900  146.2530 C   0  0  0  0  0  3  0  0  0  0  0  0
  185.3220  178.2870  147.1740 C   0  0  0  0  0  2  0  0  0  0  0  0
  184.3640  177.4220  137.3250 C   0  0  0  0  0  2  0  0  0  0  0  0
  183.3300  176.4870  137.9390 C   0  0  2  0  0  3  0  0  0  0  0  0
  182.4560  174.2460  137.2780 O   0  0  0  0  0  0  0  0  0  0  0  0
  183.5500  175.0730  137.4970 C   0  0  0  0  0  0  0  0  0  0  0  0
  184.7150  174.6250  137.3270 O   0  0  0  0  0  1  0  0  0  0  0  0
  181.9320  176.9600  137.5760 C   0  0  0  0  0  2  0  0  0  0  0  0
  181.3870  177.8480  138.6430 C   0  0  0  0  0  0  0  0  0  0  0  0
  181.2230  177.4640  139.9200 N   0  0  0  0  0  2  0  0  0  0  0  0
  181.0440  179.1720  138.4940 C   0  0  0  0  0  0  0  0  0  0  0  0
  180.6330  179.6540  139.7190 C   0  0  0  0  0  3  0  0  0  0  0  0
  180.7600  178.5590  140.5640 C   0  0  0  0  0  0  0  0  0  0  0  0
  179.2910  178.2200  142.3910 O   0  0  0  0  0  0  0  0  0  0  0  0
  180.4350  178.5710  141.9970 C   0  0  0  0  0  0  0  0  0  0  0  0
  181.4490  178.9970  142.9990 C   0  0  0  0  0  1  0  0  0  0  0  0
  179.9370  180.4280  136.6090 C   0  0  0  0  0  1  0  0  0  0  0  0
  181.1200  179.9150  137.2760 N   0  0  0  0  0  2  0  0  0  0  0  0
  2  1  2  0  0  0  0
  3  1  1  0  0  0  0
  3 10  1  1  0  0  0
  4  7  1  0  0  0  0
  4  8  2  0  0  0  0
  5  8  1  0  0  0  0
  6  2  1  0  0  0  0
  7  6  2  0  0  0  0
  8  3  1  0  0  0  0
 10  9  1  6  0  0  0
 10 12  1  0  0  0  0
 12 11  1  0  0  0  0
 14 21  1  1  0  0  0
 14 15  1  0  0  0  0
 16 13  1  1  0  0  0
 16 18  1  0  0  0  0
 17 12  1  6  0  0  0
 17 14  1  0  0  0  0
 18 15  1  0  0  0  0
 18 19  2  0  0  0  0
 20 17  1  0  0  0  0
 20 16  1  0  0  0  0
 23 22  1  6  0  0  0
 23 21  1  0  0  0  0
 23 24  1  0  0  0  0
 24 25  2  0  0  0  0
 26  7  1  0  0  0  0
 27 26  1  6  0  0  0
 28 29  2  0  0  0  0
 29 27  1  0  0  0  0
 30 29  1  0  0  0  0
 31 27  1  0  0  0  0
 31 32  1  0  0  0  0
 32 33  1  0  0  0  0
 33 36  1  0  0  0  0
 34 32  2  0  0  0  0
 34 35  1  0  0  0  0
 35 36  2  0  0  0  0
 36 38  1  0  0  0  0
 38 37  2  0  0  0  0
 38 39  1  0  0  0  0
 40 41  1  0  0  0  0
 41 34  1  0  0  0  0
M  END
>  <MODEL>
6

>  <REMARK>
 VINA RESULT:      -6.8      2.860      5.025
  Name = 
  13 active torsions:
  status: ('A' for Active; 'I' for Inactive)
    1  A    between atoms: C_5  and  C_19
    2  A    between atoms: C_5  and  C_33
    3  A    between atoms: C_6  and  C_8
    4  A    between atoms: C_6  and  C_38
    5  A    between atoms: C_9  and  C_36
    6  A    between atoms: C_14  and  N_35
    7  A    between atoms: C_16  and  C_26
    8  A    between atoms: C_19  and  C_21
    9  A    between atoms: C_19  and  C_26
   10  A    between atoms: C_20  and  C_38
   11  A    between atoms: C_23  and  N_32
   12  A    between atoms: N_35  and  C_36
   13  A    between atoms: C_37  and  C_39
                            x       y       z     vdW  Elec       q    Type
                         _______ _______ _______ _____ _____    ______ ____

>  <TORSDO>
F 13

$$$$
=
 OpenBabel10222418413D

 41 43  0  0  1  0  0  0  0  0999 V2000
  188.7880  177.7570  140.4360 C   0  0  0  0  0  3  0  0  0  0  0  0
  188.3880  177.6060  139.1740 C   0  0  0  0  0  3  0  0  0  0  0  0
  189.8580  176.9130  141.0460 C   0  0  1  0  0  3  0  0  0  0  0  0
  191.3180  176.6710  139.0650 C   0  0  0  0  0  3  0  0  0  0  0  0
  192.4110  177.5320  141.0350 C   0  0  0  0  0  1  0  0  0  0  0  0
  188.9720  176.6570  138.2030 C   0  0  0  0  0  3  0  0  0  0  0  0
  190.2330  176.2000  138.1750 C   0  0  0  0  0  0  0  0  0  0  0  0
  191.1810  177.0640  140.3320 C   0  0  0  0  0  0  0  0  0  0  0  0
  190.5500  175.8050  143.2170 C   0  0  0  0  0  1  0  0  0  0  0  0
  189.8800  177.0270  142.5870 C   0  0  2  0  0  3  0  0  0  0  0  0
  187.8850  175.9670  143.4160 C   0  0  0  0  0  1  0  0  0  0  0  0
  188.5300  177.2500  143.1330 N   0  0  0  0  0  0  0  0  0  0  0  0
  191.1490  177.1030  147.1280 C   0  0  0  0  0  1  0  0  0  0  0  0
  187.3300  177.9040  145.2100 C   0  0  2  0  0  3  0  0  0  0  0  0
  187.6010  178.0490  146.7070 C   0  0  0  0  0  2  0  0  0  0  0  0
  189.9090  176.9260  146.2720 C   0  0  1  0  0  3  0  0  0  0  0  0
  188.6050  178.0560  144.3660 C   0  0  1  0  0  3  0  0  0  0  0  0
  188.6640  177.0730  147.1080 C   0  0  0  0  0  0  0  0  0  0  0  0
  188.5020  176.3790  148.0990 O   0  0  0  0  0  0  0  0  0  0  0  0
  189.9450  177.9490  145.1350 C   0  0  0  0  0  2  0  0  0  0  0  0
  186.3070  178.9310  144.7540 C   0  0  0  0  0  2  0  0  0  0  0  0
  183.9350  178.6450  145.4460 C   0  0  0  0  0  1  0  0  0  0  0  0
  184.9840  178.2710  144.4110 C   0  0  1  0  0  3  0  0  0  0  0  0
  184.5520  178.7320  143.0580 C   0  0  0  0  0  3  0  0  0  0  0  0
  185.3240  178.5330  141.9910 C   0  0  0  0  0  2  0  0  0  0  0  0
  190.6110  175.2840  137.0600 C   0  0  0  0  0  2  0  0  0  0  0  0
  191.0630  176.0670  135.8350 C   0  0  2  0  0  3  0  0  0  0  0  0
  188.9300  175.5530  134.6480 O   0  0  0  0  0  1  0  0  0  0  0  0
  189.8930  176.4890  135.0010 C   0  0  0  0  0  0  0  0  0  0  0  0
  189.7760  177.6820  134.6130 O   0  0  0  0  0  0  0  0  0  0  0  0
  192.0380  175.2300  135.0230 C   0  0  0  0  0  2  0  0  0  0  0  0
  193.2980  175.0070  135.7880 C   0  0  0  0  0  0  0  0  0  0  0  0
  193.5320  173.9170  136.5380 N   0  0  0  0  0  2  0  0  0  0  0  0
  194.3990  175.8310  135.7880 C   0  0  0  0  0  0  0  0  0  0  0  0
  195.3740  175.2550  136.5750 C   0  0  0  0  0  3  0  0  0  0  0  0
  194.7860  174.0760  137.0160 C   0  0  0  0  0  0  0  0  0  0  0  0
  195.0550  172.9710  139.0940 O   0  0  0  0  0  0  0  0  0  0  0  0
  195.4390  173.1020  137.9020 C   0  0  0  0  0  0  0  0  0  0  0  0
  196.5600  172.2590  137.4030 C   0  0  0  0  0  1  0  0  0  0  0  0
  195.7810  177.7460  134.9020 C   0  0  0  0  0  1  0  0  0  0  0  0
  194.5090  177.0640  135.0740 N   0  0  0  0  0  2  0  0  0  0  0  0
  1  3  1  0  0  0  0
  2  1  2  0  0  0  0
  3 10  1  1  0  0  0
  4  8  2  0  0  0  0
  6  2  1  0  0  0  0
  7  6  2  0  0  0  0
  7  4  1  0  0  0  0
  8  5  1  0  0  0  0
  8  3  1  0  0  0  0
 10 12  1  0  0  0  0
 10  9  1  1  0  0  0
 12 11  1  0  0  0  0
 14 21  1  6  0  0  0
 14 15  1  0  0  0  0
 15 18  1  0  0  0  0
 16 18  1  0  0  0  0
 16 13  1  1  0  0  0
 17 12  1  6  0  0  0
 17 20  1  0  0  0  0
 17 14  1  0  0  0  0
 18 19  2  0  0  0  0
 20 16  1  0  0  0  0
 23 21  1  0  0  0  0
 23 22  1  1  0  0  0
 24 23  1  0  0  0  0
 25 24  2  0  0  0  0
 26  7  1  0  0  0  0
 27 31  1  6  0  0  0
 27 26  1  0  0  0  0
 28 29  1  0  0  0  0
 29 27  1  0  0  0  0
 30 29  2  0  0  0  0
 31 32  1  0  0  0  0
 32 34  2  0  0  0  0
 32 33  1  0  0  0  0
 33 36  1  0  0  0  0
 34 35  1  0  0  0  0
 35 36  2  0  0  0  0
 36 38  1  0  0  0  0
 38 37  2  0  0  0  0
 39 38  1  0  0  0  0
 40 41  1  0  0  0  0
 41 34  1  0  0  0  0
M  END
>  <MODEL>
7

>  <REMARK>
 VINA RESULT:      -6.8      3.242      5.501
  Name = 
  13 active torsions:
  status: ('A' for Active; 'I' for Inactive)
    1  A    between atoms: C_5  and  C_19
    2  A    between atoms: C_5  and  C_33
    3  A    between atoms: C_6  and  C_8
    4  A    between atoms: C_6  and  C_38
    5  A    between atoms: C_9  and  C_36
    6  A    between atoms: C_14  and  N_35
    7  A    between atoms: C_16  and  C_26
    8  A    between atoms: C_19  and  C_21
    9  A    between atoms: C_19  and  C_26
   10  A    between atoms: C_20  and  C_38
   11  A    between atoms: C_23  and  N_32
   12  A    between atoms: N_35  and  C_36
   13  A    between atoms: C_37  and  C_39
                            x       y       z     vdW  Elec       q    Type
                         _______ _______ _______ _____ _____    ______ ____

>  <TORSDO>
F 13

$$$$
=
 OpenBabel10222418413D

 41 43  0  0  1  0  0  0  0  0999 V2000
  188.6520  177.9190  140.3600 C   0  0  0  0  0  3  0  0  0  0  0  0
  188.2270  177.7720  139.1050 C   0  0  0  0  0  3  0  0  0  0  0  0
  189.6790  177.0240  140.9710 C   0  0  1  0  0  3  0  0  0  0  0  0
  191.0970  176.6670  138.9760 C   0  0  0  0  0  3  0  0  0  0  0  0
  192.2630  177.4950  140.9180 C   0  0  0  0  0  1  0  0  0  0  0  0
  188.7430  176.7760  138.1430 C   0  0  0  0  0  3  0  0  0  0  0  0
  189.9750  176.2460  138.1070 C   0  0  0  0  0  0  0  0  0  0  0  0
  190.9990  177.0870  140.2380 C   0  0  0  0  0  0  0  0  0  0  0  0
  190.4650  175.9780  143.1400 C   0  0  0  0  0  1  0  0  0  0  0  0
  189.7270  177.1610  142.5090 C   0  0  2  0  0  3  0  0  0  0  0  0
  187.7850  176.0230  143.3580 C   0  0  0  0  0  1  0  0  0  0  0  0
  188.3810  177.3300  143.0810 N   0  0  0  0  0  0  0  0  0  0  0  0
  190.9700  177.1310  147.0940 C   0  0  0  0  0  1  0  0  0  0  0  0
  187.1680  177.9670  145.1560 C   0  0  2  0  0  3  0  0  0  0  0  0
  187.4280  178.0960  146.6560 C   0  0  0  0  0  2  0  0  0  0  0  0
  189.7350  176.9680  146.2270 C   0  0  1  0  0  3  0  0  0  0  0  0
  188.4500  178.1240  144.3230 C   0  0  1  0  0  3  0  0  0  0  0  0
  188.4840  177.1120  147.0550 C   0  0  0  0  0  0  0  0  0  0  0  0
  188.3120  176.4080  148.0370 O   0  0  0  0  0  0  0  0  0  0  0  0
  189.7840  178.0030  145.1000 C   0  0  0  0  0  2  0  0  0  0  0  0
  186.1530  179.0040  144.7030 C   0  0  0  0  0  2  0  0  0  0  0  0
  183.7300  178.6210  145.1160 C   0  0  0  0  0  1  0  0  0  0  0  0
  184.8930  178.3410  144.1770 C   0  0  1  0  0  3  0  0  0  0  0  0
  184.5930  178.8860  142.8190 C   0  0  0  0  0  3  0  0  0  0  0  0
  184.2080  178.0810  141.8310 C   0  0  0  0  0  2  0  0  0  0  0  0
  190.2850  175.2930  137.0020 C   0  0  0  0  0  2  0  0  0  0  0  0
  190.7330  176.0320  135.7490 C   0  0  2  0  0  3  0  0  0  0  0  0
  189.4850  177.9250  134.7090 O   0  0  0  0  0  1  0  0  0  0  0  0
  189.5600  176.5670  134.9870 C   0  0  0  0  0  0  0  0  0  0  0  0
  188.6400  175.7980  134.5990 O   0  0  0  0  0  0  0  0  0  0  0  0
  191.5720  175.1070  134.8810 C   0  0  0  0  0  2  0  0  0  0  0  0
  193.0160  175.2270  135.2320 C   0  0  0  0  0  0  0  0  0  0  0  0
  193.7730  176.2930  134.9190 N   0  0  0  0  0  0  0  0  0  0  0  0
  193.7470  174.3200  135.9630 C   0  0  1  0  0  3  0  0  0  0  0  0
  195.0250  174.8150  136.1160 C   0  0  0  0  0  3  0  0  0  0  0  0
  194.9880  176.0340  135.4510 C   0  0  0  0  0  0  0  0  0  0  0  0
  197.2390  176.6540  135.8470 O   0  0  0  0  0  0  0  0  0  0  0  0
  196.1300  176.9500  135.3300 C   0  0  0  0  0  0  0  0  0  0  0  0
  195.9920  178.2370  134.5960 C   0  0  0  0  0  1  0  0  0  0  0  0
  193.1330  171.8930  135.6630 C   0  0  0  0  0  1  0  0  0  0  0  0
  193.2510  173.0850  136.4840 N   0  0  0  0  0  2  0  0  0  0  0  0
  1  3  1  0  0  0  0
  2  1  2  0  0  0  0
  3 10  1  1  0  0  0
  4  8  2  0  0  0  0
  6  2  1  0  0  0  0
  7  6  2  0  0  0  0
  7  4  1  0  0  0  0
  8  5  1  0  0  0  0
  8  3  1  0  0  0  0
 10 12  1  0  0  0  0
 10  9  1  1  0  0  0
 12 11  1  0  0  0  0
 14 21  1  6  0  0  0
 14 15  1  0  0  0  0
 15 18  1  0  0  0  0
 16 18  1  0  0  0  0
 16 13  1  1  0  0  0
 17 12  1  6  0  0  0
 17 20  1  0  0  0  0
 17 14  1  0  0  0  0
 18 19  2  0  0  0  0
 20 16  1  0  0  0  0
 23 21  1  0  0  0  0
 23 22  1  1  0  0  0
 24 23  1  0  0  0  0
 25 24  2  0  0  0  0
 26  7  1  0  0  0  0
 27 31  1  6  0  0  0
 27 26  1  0  0  0  0
 28 29  1  0  0  0  0
 29 27  1  0  0  0  0
 30 29  2  0  0  0  0
 31 32  1  0  0  0  0
 32 34  1  0  0  0  0
 33 32  2  0  0  0  0
 33 36  1  0  0  0  0
 34 35  1  0  0  0  0
 34 41  1  1  0  0  0
 36 35  2  0  0  0  0
 38 36  1  0  0  0  0
 38 37  2  0  0  0  0
 39 38  1  0  0  0  0
 40 41  1  0  0  0  0
M  END
>  <MODEL>
8

>  <REMARK>
 VINA RESULT:      -6.8      3.207      5.278
  Name = 
  13 active torsions:
  status: ('A' for Active; 'I' for Inactive)
    1  A    between atoms: C_5  and  C_19
    2  A    between atoms: C_5  and  C_33
    3  A    between atoms: C_6  and  C_8
    4  A    between atoms: C_6  and  C_38
    5  A    between atoms: C_9  and  C_36
    6  A    between atoms: C_14  and  N_35
    7  A    between atoms: C_16  and  C_26
    8  A    between atoms: C_19  and  C_21
    9  A    between atoms: C_19  and  C_26
   10  A    between atoms: C_20  and  C_38
   11  A    between atoms: C_23  and  N_32
   12  A    between atoms: N_35  and  C_36
   13  A    between atoms: C_37  and  C_39
                            x       y       z     vdW  Elec       q    Type
                         _______ _______ _______ _____ _____    ______ ____

>  <TORSDO>
F 13

$$$$
=
 OpenBabel10222418413D

 41 43  0  0  1  0  0  0  0  0999 V2000
  190.2390  177.4990  138.4720 C   0  0  0  0  0  3  0  0  0  0  0  0
  191.1230  177.3810  139.4620 C   0  0  0  0  0  3  0  0  0  0  0  0
  188.8180  177.0620  138.6060 C   0  0  1  0  0  3  0  0  0  0  0  0
  188.4580  177.6840  140.9720 C   0  0  0  0  0  3  0  0  0  0  0  0
  186.8670  178.6200  139.4210 C   0  0  0  0  0  1  0  0  0  0  0  0
  190.8190  176.8790  140.8190 C   0  0  0  0  0  3  0  0  0  0  0  0
  189.6480  176.9570  141.4680 C   0  0  0  0  0  0  0  0  0  0  0  0
  188.0900  177.8130  139.6970 C   0  0  0  0  0  0  0  0  0  0  0  0
  187.4160  178.2770  136.8800 C   0  0  0  0  0  1  0  0  0  0  0  0
  188.1100  176.9600  137.2370 C   0  0  2  0  0  3  0  0  0  0  0  0
  185.7930  176.3090  137.2090 C   0  0  0  0  0  1  0  0  0  0  0  0
  187.1730  175.8240  137.1930 N   0  0  0  0  0  0  0  0  0  0  0  0
  185.2630  171.8520  135.3430 C   0  0  0  0  0  1  0  0  0  0  0  0
  188.7770  174.3190  136.0320 C   0  0  2  0  0  3  0  0  0  0  0  0
  188.7810  172.9860  135.2860 C   0  0  0  0  0  2  0  0  0  0  0  0
  186.3110  172.6910  136.0520 C   0  0  1  0  0  3  0  0  0  0  0  0
  187.4080  175.0160  135.9810 C   0  0  1  0  0  3  0  0  0  0  0  0
  187.6870  172.1200  135.8280 C   0  0  0  0  0  0  0  0  0  0  0  0
  187.9240  170.9570  136.1130 O   0  0  0  0  0  0  0  0  0  0  0  0
  186.2130  174.1320  135.5460 C   0  0  0  0  0  2  0  0  0  0  0  0
  189.8290  175.2530  135.4570 C   0  0  0  0  0  2  0  0  0  0  0  0
  192.2610  175.6790  135.1520 C   0  0  0  0  0  1  0  0  0  0  0  0
  191.2210  174.6660  135.6060 C   0  0  1  0  0  3  0  0  0  0  0  0
  191.4440  174.3140  137.0400 C   0  0  0  0  0  3  0  0  0  0  0  0
  192.6320  174.5040  137.6120 C   0  0  0  0  0  2  0  0  0  0  0  0
  189.5940  176.4250  142.8610 C   0  0  0  0  0  2  0  0  0  0  0  0
  189.4860  177.5550  143.8760 C   0  0  2  0  0  3  0  0  0  0  0  0
  191.8950  177.5630  144.5250 O   0  0  0  0  0  1  0  0  0  0  0  0
  190.7960  178.2610  144.0410 C   0  0  0  0  0  0  0  0  0  0  0  0
  190.9100  179.4820  143.7500 O   0  0  0  0  0  0  0  0  0  0  0  0
  188.9940  177.0030  145.2050 C   0  0  0  0  0  2  0  0  0  0  0  0
  187.6830  177.6150  145.5710 C   0  0  0  0  0  0  0  0  0  0  0  0
  186.7660  178.0050  144.6700 N   0  0  0  0  0  0  0  0  0  0  0  0
  187.2100  177.8040  146.8480 C   0  0  1  0  0  3  0  0  0  0  0  0
  185.9450  178.3470  146.7660 C   0  0  0  0  0  3  0  0  0  0  0  0
  185.7200  178.4530  145.3990 C   0  0  0  0  0  0  0  0  0  0  0  0
  183.4210  179.0170  145.4600 O   0  0  0  0  0  0  0  0  0  0  0  0
  184.4910  178.9880  144.7980 C   0  0  0  0  0  0  0  0  0  0  0  0
  184.4950  179.5020  143.4010 C   0  0  0  0  0  1  0  0  0  0  0  0
  189.0360  178.2600  148.5260 C   0  0  0  0  0  1  0  0  0  0  0  0
  187.9120  177.4740  148.0480 N   0  0  0  0  0  2  0  0  0  0  0  0
  1  3  1  0  0  0  0
  1  2  2  0  0  0  0
  2  6  1  0  0  0  0
  3 10  1  6  0  0  0
  3  8  1  0  0  0  0
  4  7  1  0  0  0  0
  5  8  1  0  0  0  0
  6  7  2  0  0  0  0
  7 26  1  0  0  0  0
  8  4  2  0  0  0  0
 10  9  1  1  0  0  0
 12 11  1  0  0  0  0
 12 10  1  0  0  0  0
 14 21  1  6  0  0  0
 15 18  1  0  0  0  0
 15 14  1  0  0  0  0
 16 13  1  6  0  0  0
 17 14  1  0  0  0  0
 17 12  1  1  0  0  0
 18 16  1  0  0  0  0
 18 19  2  0  0  0  0
 20 17  1  0  0  0  0
 20 16  1  0  0  0  0
 21 23  1  0  0  0  0
 23 22  1  1  0  0  0
 23 24  1  0  0  0  0
 24 25  2  0  0  0  0
 27 26  1  6  0  0  0
 27 29  1  0  0  0  0
 27 31  1  0  0  0  0
 29 28  1  0  0  0  0
 30 29  2  0  0  0  0
 31 32  1  0  0  0  0
 32 34  1  0  0  0  0
 33 36  1  0  0  0  0
 33 32  2  0  0  0  0
 34 41  1  6  0  0  0
 35 34  1  0  0  0  0
 36 35  2  0  0  0  0
 38 36  1  0  0  0  0
 38 37  2  0  0  0  0
 39 38  1  0  0  0  0
 41 40  1  0  0  0  0
M  END
>  <MODEL>
9

>  <REMARK>
 VINA RESULT:      -6.5      2.254      9.238
  Name = 
  13 active torsions:
  status: ('A' for Active; 'I' for Inactive)
    1  A    between atoms: C_5  and  C_19
    2  A    between atoms: C_5  and  C_33
    3  A    between atoms: C_6  and  C_8
    4  A    between atoms: C_6  and  C_38
    5  A    between atoms: C_9  and  C_36
    6  A    between atoms: C_14  and  N_35
    7  A    between atoms: C_16  and  C_26
    8  A    between atoms: C_19  and  C_21
    9  A    between atoms: C_19  and  C_26
   10  A    between atoms: C_20  and  C_38
   11  A    between atoms: C_23  and  N_32
   12  A    between atoms: N_35  and  C_36
   13  A    between atoms: C_37  and  C_39
                            x       y       z     vdW  Elec       q    Type
                         _______ _______ _______ _____ _____    ______ ____

>  <TORSDO>
F 13

$$$$
