=
 OpenBabel10222417393D

 30 31  0  0  1  0  0  0  0  0999 V2000
  187.9260  177.3620  144.9080 C   0  0  0  0  0  3  0  0  0  0  0  0
  186.8310  177.9210  145.4440 C   0  0  0  0  0  0  0  0  0  0  0  0
  185.6330  178.2970  144.6650 C   0  0  0  0  0  0  0  0  0  0  0  0
  185.6570  178.2810  143.2640 C   0  0  0  0  0  3  0  0  0  0  0  0
  183.3030  178.9220  144.5750 C   0  0  0  0  0  3  0  0  0  0  0  0
  184.5020  178.6130  142.5520 C   0  0  0  0  0  0  0  0  0  0  0  0
  183.3580  178.9220  143.2170 N   0  0  0  0  0  0  0  0  0  0  0  0
  184.4380  178.6050  145.3230 C   0  0  0  0  0  3  0  0  0  0  0  0
  184.5140  178.5860  141.0650 C   0  0  0  0  0  2  0  0  0  0  0  0
  182.8340  176.9470  139.9190 C   0  0  0  0  0  1  0  0  0  0  0  0
  182.8190  178.6850  140.4290 S   0  0  0  0  0  0  0  0  0  0  0  0
  187.7760  176.1320  142.8660 O   0  0  0  0  0  0  0  0  0  0  0  0
  188.2090  177.1440  143.4790 C   0  0  0  0  0  0  0  0  0  0  0  0
  188.9440  178.1940  142.7230 C   0  0  0  0  0  2  0  0  0  0  0  0
  188.4190  178.2680  141.3000 C   0  0  0  0  0  2  0  0  0  0  0  0
  190.4540  177.3920  138.1770 N   0  0  0  0  0  2  0  0  0  0  0  0
  189.5150  178.0470  139.0300 C   0  0  0  0  0  0  0  0  0  0  0  0
  188.8170  178.9880  138.5680 O   0  0  0  0  0  0  0  0  0  0  0  0
  189.3580  177.6290  140.3890 N   0  0  0  0  0  2  0  0  0  0  0  0
  191.2650  176.2670  138.6190 C   0  0  1  0  0  3  0  0  0  0  0  0
  190.6430  175.0700  138.2650 O   0  0  0  0  0  1  0  0  0  0  0  0
  192.6230  176.3380  137.9580 C   0  0  0  0  0  1  0  0  0  0  0  0
  186.8260  178.1480  146.9220 C   0  0  0  0  0  2  0  0  0  0  0  0
  187.6350  177.1730  147.5790 O   0  0  0  0  0  0  0  0  0  0  0  0
  189.2660  178.4860  148.7160 C   0  0  0  0  0  2  0  0  0  0  0  0
  188.9500  177.4050  147.9960 C   0  0  0  0  0  0  0  0  0  0  0  0
  189.9620  176.4710  147.6090 N   0  0  0  0  0  2  0  0  0  0  0  0
  191.3450  176.8420  147.3430 C   0  0  0  0  0  3  0  0  0  0  0  0
  192.1020  175.6290  146.8420 C   0  0  0  0  0  2  0  0  0  0  0  0
  191.6230  176.6830  145.8660 C   0  0  0  0  0  2  0  0  0  0  0  0
  1  2  2  0  0  0  0
  2 23  1  0  0  0  0
  3  8  1  0  0  0  0
  3  2  1  0  0  0  0
  4  3  2  0  0  0  0
  5  8  2  0  0  0  0
  6  7  2  0  0  0  0
  6  4  1  0  0  0  0
  7  5  1  0  0  0  0
  9  6  1  0  0  0  0
 10 11  1  0  0  0  0
 11  9  1  0  0  0  0
 12 13  2  0  0  0  0
 13  1  1  0  0  0  0
 14 13  1  0  0  0  0
 15 14  1  0  0  0  0
 16 20  1  0  0  0  0
 16 17  1  0  0  0  0
 17 19  1  0  0  0  0
 18 17  2  0  0  0  0
 19 15  1  0  0  0  0
 20 22  1  6  0  0  0
 21 20  1  0  0  0  0
 23 24  1  0  0  0  0
 24 26  1  0  0  0  0
 26 25  2  0  0  0  0
 27 26  1  0  0  0  0
 28 27  1  0  0  0  0
 29 28  1  0  0  0  0
 30 29  1  0  0  0  0
 30 28  1  0  0  0  0
M  END
>  <MODEL>
1

>  <REMARK>
 VINA RESULT:      -7.7      0.000      0.000
  Name = 
  13 active torsions:
  status: ('A' for Active; 'I' for Inactive)
    1  A    between atoms: C_1  and  N_29
    2  A    between atoms: C_2  and  N_3
    3  A    between atoms: C_5  and  C_18
    4  A    between atoms: S_12  and  C_17
    5  A    between atoms: C_13  and  C_14
    6  A    between atoms: C_13  and  C_26
    7  A    between atoms: C_14  and  N_24
    8  A    between atoms: C_15  and  C_26
    9  A    between atoms: C_17  and  C_19
   10  A    between atoms: C_18  and  C_25
   11  A    between atoms: C_25  and  O_30
   12  A    between atoms: C_27  and  N_29
   13  A    between atoms: C_27  and  O_30
                            x       y       z     vdW  Elec       q    Type
                         _______ _______ _______ _____ _____    ______ ____

>  <TORSDO>
F 13

$$$$
=
 OpenBabel10222417393D

 30 31  0  0  1  0  0  0  0  0999 V2000
  186.6610  177.7630  143.6520 C   0  0  0  0  0  3  0  0  0  0  0  0
  186.4660  178.0260  144.9530 C   0  0  0  0  0  0  0  0  0  0  0  0
  187.4930  177.8250  145.9960 C   0  0  0  0  0  0  0  0  0  0  0  0
  188.8080  177.4830  145.6500 C   0  0  0  0  0  3  0  0  0  0  0  0
  188.1680  177.8900  148.3130 C   0  0  0  0  0  3  0  0  0  0  0  0
  189.7670  177.3290  146.6530 C   0  0  0  0  0  0  0  0  0  0  0  0
  189.4300  177.5360  147.9530 N   0  0  0  0  0  0  0  0  0  0  0  0
  187.1790  178.0460  147.3410 C   0  0  0  0  0  3  0  0  0  0  0  0
  191.1670  176.9800  146.2940 C   0  0  0  0  0  2  0  0  0  0  0  0
  191.6280  175.9090  143.9570 C   0  0  0  0  0  1  0  0  0  0  0  0
  191.5530  177.5890  144.6310 S   0  0  0  0  0  0  0  0  0  0  0  0
  188.0160  175.8750  143.1010 O   0  0  0  0  0  0  0  0  0  0  0  0
  187.8340  177.1200  143.0360 C   0  0  0  0  0  0  0  0  0  0  0  0
  188.7740  177.9520  142.2370 C   0  0  0  0  0  2  0  0  0  0  0  0
  188.1720  178.2450  140.8740 C   0  0  0  0  0  2  0  0  0  0  0  0
  189.9860  177.3170  137.6310 N   0  0  0  0  0  2  0  0  0  0  0  0
  189.2850  178.0900  138.6060 C   0  0  0  0  0  0  0  0  0  0  0  0
  189.0150  179.2950  138.3570 O   0  0  0  0  0  0  0  0  0  0  0  0
  188.8830  177.4990  139.8450 N   0  0  0  0  0  2  0  0  0  0  0  0
  190.2950  175.9080  137.8210 C   0  0  1  0  0  3  0  0  0  0  0  0
  189.8770  175.1800  136.7080 O   0  0  0  0  0  1  0  0  0  0  0  0
  191.7890  175.7430  137.9910 C   0  0  0  0  0  1  0  0  0  0  0  0
  185.1350  178.5750  145.3540 C   0  0  0  0  0  2  0  0  0  0  0  0
  184.5720  179.3430  144.2910 O   0  0  0  0  0  0  0  0  0  0  0  0
  182.2510  178.8320  144.1150 C   0  0  0  0  0  2  0  0  0  0  0  0
  183.4560  178.9430  143.5470 C   0  0  0  0  0  0  0  0  0  0  0  0
  183.6370  178.6260  142.1640 N   0  0  0  0  0  2  0  0  0  0  0  0
  182.5450  178.5500  141.2030 C   0  0  0  0  0  3  0  0  0  0  0  0
  183.0540  178.9550  139.8340 C   0  0  0  0  0  2  0  0  0  0  0  0
  182.8670  177.4900  140.1740 C   0  0  0  0  0  2  0  0  0  0  0  0
  1  2  2  0  0  0  0
  2 23  1  0  0  0  0
  2  3  1  0  0  0  0
  3  8  1  0  0  0  0
  4  3  2  0  0  0  0
  4  6  1  0  0  0  0
  6  7  2  0  0  0  0
  7  5  1  0  0  0  0
  8  5  2  0  0  0  0
  9  6  1  0  0  0  0
 10 11  1  0  0  0  0
 11  9  1  0  0  0  0
 13 12  2  0  0  0  0
 13  1  1  0  0  0  0
 14 13  1  0  0  0  0
 15 14  1  0  0  0  0
 16 20  1  0  0  0  0
 16 17  1  0  0  0  0
 17 19  1  0  0  0  0
 18 17  2  0  0  0  0
 19 15  1  0  0  0  0
 20 22  1  6  0  0  0
 21 20  1  0  0  0  0
 24 23  1  0  0  0  0
 26 25  2  0  0  0  0
 26 24  1  0  0  0  0
 27 26  1  0  0  0  0
 28 27  1  0  0  0  0
 29 30  1  0  0  0  0
 29 28  1  0  0  0  0
 30 28  1  0  0  0  0
M  END
>  <MODEL>
2

>  <REMARK>
 VINA RESULT:      -7.7      2.251      5.925
  Name = 
  13 active torsions:
  status: ('A' for Active; 'I' for Inactive)
    1  A    between atoms: C_1  and  N_29
    2  A    between atoms: C_2  and  N_3
    3  A    between atoms: C_5  and  C_18
    4  A    between atoms: S_12  and  C_17
    5  A    between atoms: C_13  and  C_14
    6  A    between atoms: C_13  and  C_26
    7  A    between atoms: C_14  and  N_24
    8  A    between atoms: C_15  and  C_26
    9  A    between atoms: C_17  and  C_19
   10  A    between atoms: C_18  and  C_25
   11  A    between atoms: C_25  and  O_30
   12  A    between atoms: C_27  and  N_29
   13  A    between atoms: C_27  and  O_30
                            x       y       z     vdW  Elec       q    Type
                         _______ _______ _______ _____ _____    ______ ____

>  <TORSDO>
F 13

$$$$
=
 OpenBabel10222417393D

 30 31  0  0  1  0  0  0  0  0999 V2000
  187.0170  177.8130  142.5000 C   0  0  0  0  0  3  0  0  0  0  0  0
  186.1700  178.3320  143.4030 C   0  0  0  0  0  0  0  0  0  0  0  0
  186.3710  178.2460  144.8640 C   0  0  0  0  0  0  0  0  0  0  0  0
  187.5810  177.7780  145.3940 C   0  0  0  0  0  3  0  0  0  0  0  0
  185.5940  178.6500  147.1140 C   0  0  0  0  0  3  0  0  0  0  0  0
  187.7560  177.7350  146.7790 C   0  0  0  0  0  0  0  0  0  0  0  0
  186.7680  178.1700  147.6030 N   0  0  0  0  0  0  0  0  0  0  0  0
  185.3770  178.7010  145.7350 C   0  0  0  0  0  3  0  0  0  0  0  0
  189.0420  177.2530  147.3500 C   0  0  0  0  0  2  0  0  0  0  0  0
  191.5170  176.4370  147.1840 C   0  0  0  0  0  1  0  0  0  0  0  0
  190.3040  177.1650  146.0520 S   0  0  0  0  0  0  0  0  0  0  0  0
  188.0810  175.7690  143.1280 O   0  0  0  0  0  0  0  0  0  0  0  0
  188.1950  176.9690  142.7620 C   0  0  0  0  0  0  0  0  0  0  0  0
  189.5500  177.5220  142.4950 C   0  0  0  0  0  2  0  0  0  0  0  0
  190.1620  176.8290  141.2910 C   0  0  0  0  0  2  0  0  0  0  0  0
  189.1550  177.2370  137.6190 N   0  0  0  0  0  2  0  0  0  0  0  0
  189.7870  176.7210  138.7910 C   0  0  0  0  0  0  0  0  0  0  0  0
  190.5670  175.7370  138.6850 O   0  0  0  0  0  0  0  0  0  0  0  0
  189.5480  177.3220  140.0660 N   0  0  0  0  0  2  0  0  0  0  0  0
  188.2790  178.3990  137.6470 C   0  0  1  0  0  3  0  0  0  0  0  0
  189.0270  179.5590  137.4510 O   0  0  0  0  0  1  0  0  0  0  0  0
  187.2510  178.2760  136.5440 C   0  0  0  0  0  1  0  0  0  0  0  0
  184.9700  179.0570  142.8850 C   0  0  0  0  0  2  0  0  0  0  0  0
  185.1380  179.3770  141.5040 O   0  0  0  0  0  0  0  0  0  0  0  0
  184.5690  179.1360  139.2030 C   0  0  0  0  0  2  0  0  0  0  0  0
  184.2780  178.9360  140.4920 C   0  0  0  0  0  0  0  0  0  0  0  0
  183.0600  178.2880  140.8690 N   0  0  0  0  0  2  0  0  0  0  0  0
  181.7490  178.9180  140.7800 C   0  0  0  0  0  3  0  0  0  0  0  0
  180.6750  177.8540  140.8770 C   0  0  0  0  0  2  0  0  0  0  0  0
  181.0120  178.7070  142.0830 C   0  0  0  0  0  2  0  0  0  0  0  0
  1 13  1  0  0  0  0
  1  2  2  0  0  0  0
  2  3  1  0  0  0  0
  3  4  2  0  0  0  0
  3  8  1  0  0  0  0
  4  6  1  0  0  0  0
  5  7  1  0  0  0  0
  6  9  1  0  0  0  0
  6  7  2  0  0  0  0
  8  5  2  0  0  0  0
 11 10  1  0  0  0  0
 11  9  1  0  0  0  0
 13 12  2  0  0  0  0
 14 13  1  0  0  0  0
 15 14  1  0  0  0  0
 16 20  1  0  0  0  0
 16 17  1  0  0  0  0
 17 19  1  0  0  0  0
 18 17  2  0  0  0  0
 19 15  1  0  0  0  0
 20 22  1  6  0  0  0
 21 20  1  0  0  0  0
 23  2  1  0  0  0  0
 24 23  1  0  0  0  0
 25 26  2  0  0  0  0
 26 27  1  0  0  0  0
 26 24  1  0  0  0  0
 28 27  1  0  0  0  0
 28 29  1  0  0  0  0
 28 30  1  0  0  0  0
 29 30  1  0  0  0  0
M  END
>  <MODEL>
3

>  <REMARK>
 VINA RESULT:      -7.4      2.538      6.510
  Name = 
  13 active torsions:
  status: ('A' for Active; 'I' for Inactive)
    1  A    between atoms: C_1  and  N_29
    2  A    between atoms: C_2  and  N_3
    3  A    between atoms: C_5  and  C_18
    4  A    between atoms: S_12  and  C_17
    5  A    between atoms: C_13  and  C_14
    6  A    between atoms: C_13  and  C_26
    7  A    between atoms: C_14  and  N_24
    8  A    between atoms: C_15  and  C_26
    9  A    between atoms: C_17  and  C_19
   10  A    between atoms: C_18  and  C_25
   11  A    between atoms: C_25  and  O_30
   12  A    between atoms: C_27  and  N_29
   13  A    between atoms: C_27  and  O_30
                            x       y       z     vdW  Elec       q    Type
                         _______ _______ _______ _____ _____    ______ ____

>  <TORSDO>
F 13

$$$$
=
 OpenBabel10222417393D

 30 31  0  0  1  0  0  0  0  0999 V2000
  189.2710  177.2460  142.1560 C   0  0  0  0  0  3  0  0  0  0  0  0
  189.1250  177.5880  140.8670 C   0  0  0  0  0  0  0  0  0  0  0  0
  189.9250  177.0110  139.7670 C   0  0  0  0  0  0  0  0  0  0  0  0
  189.3010  176.3990  138.6720 C   0  0  0  0  0  3  0  0  0  0  0  0
  192.0610  176.6190  138.7100 C   0  0  0  0  0  3  0  0  0  0  0  0
  190.0790  175.8890  137.6310 C   0  0  0  0  0  0  0  0  0  0  0  0
  191.4320  176.0100  137.6710 N   0  0  0  0  0  0  0  0  0  0  0  0
  191.3180  177.1350  139.7750 C   0  0  0  0  0  3  0  0  0  0  0  0
  189.4240  175.2500  136.4580 C   0  0  0  0  0  2  0  0  0  0  0  0
  190.5660  173.1480  135.4090 C   0  0  0  0  0  1  0  0  0  0  0  0
  189.3320  173.4560  136.7000 S   0  0  0  0  0  0  0  0  0  0  0  0
  190.1460  175.1220  142.8110 O   0  0  0  0  0  0  0  0  0  0  0  0
  190.3030  176.3700  142.7370 C   0  0  0  0  0  0  0  0  0  0  0  0
  191.6000  176.9670  143.1560 C   0  0  0  0  0  2  0  0  0  0  0  0
  191.3570  178.3030  143.8360 C   0  0  0  0  0  2  0  0  0  0  0  0
  189.9570  177.2110  147.2300 N   0  0  0  0  0  2  0  0  0  0  0  0
  190.8530  177.3500  146.1260 C   0  0  0  0  0  0  0  0  0  0  0  0
  191.9710  176.7720  146.1650 O   0  0  0  0  0  0  0  0  0  0  0  0
  190.4780  178.1250  144.9830 N   0  0  0  0  0  2  0  0  0  0  0  0
  188.6300  177.8070  147.2430 C   0  0  1  0  0  3  0  0  0  0  0  0
  187.7370  176.9840  146.5590 O   0  0  0  0  0  1  0  0  0  0  0  0
  188.1670  177.9640  148.6740 C   0  0  0  0  0  1  0  0  0  0  0  0
  188.0710  178.5950  140.5360 C   0  0  0  0  0  2  0  0  0  0  0  0
  187.2380  178.8360  141.6700 O   0  0  0  0  0  0  0  0  0  0  0  0
  185.2060  178.9220  140.4290 C   0  0  0  0  0  2  0  0  0  0  0  0
  185.8540  179.0270  141.5930 C   0  0  0  0  0  0  0  0  0  0  0  0
  185.1470  179.3670  142.7880 N   0  0  0  0  0  2  0  0  0  0  0  0
  184.7730  178.3980  143.8090 C   0  0  0  0  0  3  0  0  0  0  0  0
  184.9540  179.0170  145.1800 C   0  0  0  0  0  2  0  0  0  0  0  0
  183.5730  178.9180  144.5670 C   0  0  0  0  0  2  0  0  0  0  0  0
  1 13  1  0  0  0  0
  2  1  2  0  0  0  0
  3  8  1  0  0  0  0
  3  2  1  0  0  0  0
  4  3  2  0  0  0  0
  5  8  2  0  0  0  0
  6  7  2  0  0  0  0
  6  4  1  0  0  0  0
  7  5  1  0  0  0  0
  9 11  1  0  0  0  0
  9  6  1  0  0  0  0
 10 11  1  0  0  0  0
 13 12  2  0  0  0  0
 13 14  1  0  0  0  0
 14 15  1  0  0  0  0
 15 19  1  0  0  0  0
 16 20  1  0  0  0  0
 17 18  2  0  0  0  0
 17 16  1  0  0  0  0
 19 17  1  0  0  0  0
 20 22  1  1  0  0  0
 21 20  1  0  0  0  0
 23  2  1  0  0  0  0
 23 24  1  0  0  0  0
 25 26  2  0  0  0  0
 26 24  1  0  0  0  0
 26 27  1  0  0  0  0
 27 28  1  0  0  0  0
 28 30  1  0  0  0  0
 28 29  1  0  0  0  0
 30 29  1  0  0  0  0
M  END
>  <MODEL>
4

>  <REMARK>
 VINA RESULT:      -7.3      2.641      7.644
  Name = 
  13 active torsions:
  status: ('A' for Active; 'I' for Inactive)
    1  A    between atoms: C_1  and  N_29
    2  A    between atoms: C_2  and  N_3
    3  A    between atoms: C_5  and  C_18
    4  A    between atoms: S_12  and  C_17
    5  A    between atoms: C_13  and  C_14
    6  A    between atoms: C_13  and  C_26
    7  A    between atoms: C_14  and  N_24
    8  A    between atoms: C_15  and  C_26
    9  A    between atoms: C_17  and  C_19
   10  A    between atoms: C_18  and  C_25
   11  A    between atoms: C_25  and  O_30
   12  A    between atoms: C_27  and  N_29
   13  A    between atoms: C_27  and  O_30
                            x       y       z     vdW  Elec       q    Type
                         _______ _______ _______ _____ _____    ______ ____

>  <TORSDO>
F 13

$$$$
=
 OpenBabel10222417393D

 30 31  0  0  1  0  0  0  0  0999 V2000
  189.3970  177.0660  142.2020 C   0  0  0  0  0  3  0  0  0  0  0  0
  189.4960  177.4600  140.9240 C   0  0  0  0  0  0  0  0  0  0  0  0
  190.5920  177.0540  140.0200 C   0  0  0  0  0  0  0  0  0  0  0  0
  190.3280  176.2980  138.8700 C   0  0  0  0  0  3  0  0  0  0  0  0
  192.9200  177.1240  139.3850 C   0  0  0  0  0  3  0  0  0  0  0  0
  191.3780  175.9530  138.0160 C   0  0  0  0  0  0  0  0  0  0  0  0
  192.6410  176.3720  138.2880 N   0  0  0  0  0  0  0  0  0  0  0  0
  191.9000  177.4830  140.2680 C   0  0  0  0  0  3  0  0  0  0  0  0
  191.1060  175.1620  136.7860 C   0  0  0  0  0  2  0  0  0  0  0  0
  192.7600  173.1970  136.3140 C   0  0  0  0  0  1  0  0  0  0  0  0
  192.6350  174.9400  135.8390 S   0  0  0  0  0  0  0  0  0  0  0  0
  190.4110  175.0380  142.9540 O   0  0  0  0  0  0  0  0  0  0  0  0
  190.3850  176.2970  142.9790 C   0  0  0  0  0  0  0  0  0  0  0  0
  191.4360  177.0320  143.7340 C   0  0  0  0  0  2  0  0  0  0  0  0
  191.1290  176.9880  145.2210 C   0  0  0  0  0  2  0  0  0  0  0  0
  187.7510  177.6120  146.9130 N   0  0  0  0  0  2  0  0  0  0  0  0
  189.1130  177.2230  146.7320 C   0  0  0  0  0  0  0  0  0  0  0  0
  189.7500  176.7430  147.7070 O   0  0  0  0  0  0  0  0  0  0  0  0
  189.7420  177.3630  145.4550 N   0  0  0  0  0  2  0  0  0  0  0  0
  186.9320  178.1300  145.8270 C   0  0  1  0  0  3  0  0  0  0  0  0
  186.5170  177.0810  145.0080 O   0  0  0  0  0  1  0  0  0  0  0  0
  185.7180  178.8230  146.4040 C   0  0  0  0  0  1  0  0  0  0  0  0
  188.4140  178.3420  140.3890 C   0  0  0  0  0  2  0  0  0  0  0  0
  187.5900  178.8210  141.4510 O   0  0  0  0  0  0  0  0  0  0  0  0
  185.4480  179.1340  142.4470 C   0  0  0  0  0  2  0  0  0  0  0  0
  186.2010  178.9620  141.3570 C   0  0  0  0  0  0  0  0  0  0  0  0
  185.5970  178.8910  140.0620 N   0  0  0  0  0  2  0  0  0  0  0  0
  184.1850  178.6070  139.8450 C   0  0  0  0  0  3  0  0  0  0  0  0
  183.5810  179.6960  138.9820 C   0  0  0  0  0  2  0  0  0  0  0  0
  183.9520  178.3610  138.3710 C   0  0  0  0  0  2  0  0  0  0  0  0
  1 13  1  0  0  0  0
  2  1  2  0  0  0  0
  3  8  1  0  0  0  0
  3  2  1  0  0  0  0
  4  3  2  0  0  0  0
  5  8  2  0  0  0  0
  6  7  2  0  0  0  0
  6  4  1  0  0  0  0
  7  5  1  0  0  0  0
  9  6  1  0  0  0  0
 11 10  1  0  0  0  0
 11  9  1  0  0  0  0
 12 13  2  0  0  0  0
 13 14  1  0  0  0  0
 14 15  1  0  0  0  0
 15 19  1  0  0  0  0
 17 16  1  0  0  0  0
 17 18  2  0  0  0  0
 19 17  1  0  0  0  0
 20 22  1  1  0  0  0
 20 16  1  0  0  0  0
 21 20  1  0  0  0  0
 23  2  1  0  0  0  0
 23 24  1  0  0  0  0
 26 24  1  0  0  0  0
 26 25  2  0  0  0  0
 27 26  1  0  0  0  0
 28 27  1  0  0  0  0
 29 28  1  0  0  0  0
 30 29  1  0  0  0  0
 30 28  1  0  0  0  0
M  END
>  <MODEL>
5

>  <REMARK>
 VINA RESULT:      -7.2      3.021      8.336
  Name = 
  13 active torsions:
  status: ('A' for Active; 'I' for Inactive)
    1  A    between atoms: C_1  and  N_29
    2  A    between atoms: C_2  and  N_3
    3  A    between atoms: C_5  and  C_18
    4  A    between atoms: S_12  and  C_17
    5  A    between atoms: C_13  and  C_14
    6  A    between atoms: C_13  and  C_26
    7  A    between atoms: C_14  and  N_24
    8  A    between atoms: C_15  and  C_26
    9  A    between atoms: C_17  and  C_19
   10  A    between atoms: C_18  and  C_25
   11  A    between atoms: C_25  and  O_30
   12  A    between atoms: C_27  and  N_29
   13  A    between atoms: C_27  and  O_30
                            x       y       z     vdW  Elec       q    Type
                         _______ _______ _______ _____ _____    ______ ____

>  <TORSDO>
F 13

$$$$
=
 OpenBabel10222417393D

 30 31  0  0  1  0  0  0  0  0999 V2000
  188.6310  177.4000  142.4760 C   0  0  0  0  0  3  0  0  0  0  0  0
  188.1010  177.8730  141.3380 C   0  0  0  0  0  0  0  0  0  0  0  0
  188.7720  177.8010  140.0240 C   0  0  0  0  0  0  0  0  0  0  0  0
  189.6820  176.7730  139.7410 C   0  0  0  0  0  3  0  0  0  0  0  0
  189.0640  178.6190  137.7710 C   0  0  0  0  0  3  0  0  0  0  0  0
  190.2800  176.7100  138.4800 C   0  0  0  0  0  0  0  0  0  0  0  0
  189.9590  177.6250  137.5290 N   0  0  0  0  0  0  0  0  0  0  0  0
  188.4500  178.7210  139.0210 C   0  0  0  0  0  3  0  0  0  0  0  0
  191.2360  175.6150  138.1660 C   0  0  0  0  0  2  0  0  0  0  0  0
  192.8350  175.7810  136.1080 C   0  0  0  0  0  1  0  0  0  0  0  0
  192.8820  176.3010  137.8430 S   0  0  0  0  0  0  0  0  0  0  0  0
  190.2320  175.6290  142.5640 O   0  0  0  0  0  0  0  0  0  0  0  0
  189.9880  176.8600  142.6720 C   0  0  0  0  0  0  0  0  0  0  0  0
  191.1110  177.8070  142.9080 C   0  0  0  0  0  2  0  0  0  0  0  0
  191.8540  177.4220  144.1750 C   0  0  0  0  0  2  0  0  0  0  0  0
  190.3100  176.7760  147.6200 N   0  0  0  0  0  2  0  0  0  0  0  0
  191.2400  176.7490  146.5360 C   0  0  0  0  0  0  0  0  0  0  0  0
  192.3230  176.1210  146.6710 O   0  0  0  0  0  0  0  0  0  0  0  0
  190.9370  177.4150  145.3070 N   0  0  0  0  0  2  0  0  0  0  0  0
  189.0180  177.4390  147.5290 C   0  0  1  0  0  3  0  0  0  0  0  0
  188.0080  176.4860  147.3960 O   0  0  0  0  0  1  0  0  0  0  0  0
  188.7800  178.2450  148.7860 C   0  0  0  0  0  1  0  0  0  0  0  0
  186.7390  178.4860  141.4150 C   0  0  0  0  0  2  0  0  0  0  0  0
  185.9800  177.8840  142.4630 O   0  0  0  0  0  0  0  0  0  0  0  0
  183.7310  178.6360  142.6890 C   0  0  0  0  0  2  0  0  0  0  0  0
  184.9720  178.5450  143.1740 C   0  0  0  0  0  0  0  0  0  0  0  0
  185.3080  179.1500  144.4260 N   0  0  0  0  0  2  0  0  0  0  0  0
  185.8240  178.4090  145.5690 C   0  0  0  0  0  3  0  0  0  0  0  0
  185.7960  179.2970  146.7960 C   0  0  0  0  0  2  0  0  0  0  0  0
  184.7210  178.2500  146.5910 C   0  0  0  0  0  2  0  0  0  0  0  0
  1 13  1  0  0  0  0
  2 23  1  0  0  0  0
  2  1  2  0  0  0  0
  3  2  1  0  0  0  0
  4  3  1  0  0  0  0
  5  8  1  0  0  0  0
  6  4  2  0  0  0  0
  7  5  2  0  0  0  0
  7  6  1  0  0  0  0
  8  3  2  0  0  0  0
  9  6  1  0  0  0  0
 10 11  1  0  0  0  0
 11  9  1  0  0  0  0
 12 13  2  0  0  0  0
 13 14  1  0  0  0  0
 14 15  1  0  0  0  0
 15 19  1  0  0  0  0
 17 18  2  0  0  0  0
 17 16  1  0  0  0  0
 19 17  1  0  0  0  0
 20 16  1  0  0  0  0
 20 22  1  1  0  0  0
 21 20  1  0  0  0  0
 23 24  1  0  0  0  0
 24 26  1  0  0  0  0
 25 26  2  0  0  0  0
 26 27  1  0  0  0  0
 27 28  1  0  0  0  0
 28 30  1  0  0  0  0
 28 29  1  0  0  0  0
 30 29  1  0  0  0  0
M  END
>  <MODEL>
6

>  <REMARK>
 VINA RESULT:      -7.2      2.718      7.315
  Name = 
  13 active torsions:
  status: ('A' for Active; 'I' for Inactive)
    1  A    between atoms: C_1  and  N_29
    2  A    between atoms: C_2  and  N_3
    3  A    between atoms: C_5  and  C_18
    4  A    between atoms: S_12  and  C_17
    5  A    between atoms: C_13  and  C_14
    6  A    between atoms: C_13  and  C_26
    7  A    between atoms: C_14  and  N_24
    8  A    between atoms: C_15  and  C_26
    9  A    between atoms: C_17  and  C_19
   10  A    between atoms: C_18  and  C_25
   11  A    between atoms: C_25  and  O_30
   12  A    between atoms: C_27  and  N_29
   13  A    between atoms: C_27  and  O_30
                            x       y       z     vdW  Elec       q    Type
                         _______ _______ _______ _____ _____    ______ ____

>  <TORSDO>
F 13

$$$$
=
 OpenBabel10222417393D

 30 31  0  0  1  0  0  0  0  0999 V2000
  185.5570  178.3990  145.0460 C   0  0  0  0  0  3  0  0  0  0  0  0
  186.5270  177.8690  144.2870 C   0  0  0  0  0  0  0  0  0  0  0  0
  186.6980  178.1590  142.8490 C   0  0  0  0  0  0  0  0  0  0  0  0
  187.9350  177.9570  142.2200 C   0  0  0  0  0  3  0  0  0  0  0  0
  185.7710  178.8080  140.7160 C   0  0  0  0  0  3  0  0  0  0  0  0
  188.0620  178.2110  140.8520 C   0  0  0  0  0  0  0  0  0  0  0  0
  186.9860  178.6260  140.1350 N   0  0  0  0  0  0  0  0  0  0  0  0
  185.6040  178.5730  142.0830 C   0  0  0  0  0  3  0  0  0  0  0  0
  189.3660  177.9860  140.1740 C   0  0  0  0  0  2  0  0  0  0  0  0
  191.9180  177.4880  140.4220 C   0  0  0  0  0  1  0  0  0  0  0  0
  190.3870  176.8510  141.1510 S   0  0  0  0  0  0  0  0  0  0  0  0
  184.6010  180.4010  144.1580 O   0  0  0  0  0  0  0  0  0  0  0  0
  184.4270  179.2330  144.5990 C   0  0  0  0  0  0  0  0  0  0  0  0
  183.0620  178.6430  144.5790 C   0  0  0  0  0  2  0  0  0  0  0  0
  182.2060  179.3580  143.5480 C   0  0  0  0  0  2  0  0  0  0  0  0
  181.3770  178.1590  140.0070 N   0  0  0  0  0  2  0  0  0  0  0  0
  181.3080  178.8970  141.2280 C   0  0  0  0  0  0  0  0  0  0  0  0
  180.4170  179.7760  141.3650 O   0  0  0  0  0  0  0  0  0  0  0  0
  182.2310  178.6300  142.2880 N   0  0  0  0  0  2  0  0  0  0  0  0
  182.3450  177.0950  139.7870 C   0  0  1  0  0  3  0  0  0  0  0  0
  181.6850  175.8720  139.6780 O   0  0  0  0  0  1  0  0  0  0  0  0
  183.1050  177.3660  138.5080 C   0  0  0  0  0  1  0  0  0  0  0  0
  187.5000  176.9500  144.9540 C   0  0  0  0  0  2  0  0  0  0  0  0
  188.4410  177.6960  145.7260 O   0  0  0  0  0  0  0  0  0  0  0  0
  188.0980  177.9270  148.0720 C   0  0  0  0  0  2  0  0  0  0  0  0
  188.7750  177.3940  147.0510 C   0  0  0  0  0  0  0  0  0  0  0  0
  189.8810  176.5200  147.2920 N   0  0  0  0  0  2  0  0  0  0  0  0
  191.2740  176.9260  147.1680 C   0  0  0  0  0  3  0  0  0  0  0  0
  192.1670  175.8280  147.7060 C   0  0  0  0  0  2  0  0  0  0  0  0
  191.9780  175.9900  146.2120 C   0  0  0  0  0  2  0  0  0  0  0  0
  2 23  1  0  0  0  0
  2  1  2  0  0  0  0
  3  2  1  0  0  0  0
  4  3  1  0  0  0  0
  5  8  1  0  0  0  0
  6  4  2  0  0  0  0
  7  5  2  0  0  0  0
  7  6  1  0  0  0  0
  8  3  2  0  0  0  0
  9  6  1  0  0  0  0
  9 11  1  0  0  0  0
 10 11  1  0  0  0  0
 12 13  2  0  0  0  0
 13  1  1  0  0  0  0
 14 13  1  0  0  0  0
 15 14  1  0  0  0  0
 16 17  1  0  0  0  0
 17 18  2  0  0  0  0
 17 19  1  0  0  0  0
 19 15  1  0  0  0  0
 20 22  1  6  0  0  0
 20 16  1  0  0  0  0
 21 20  1  0  0  0  0
 23 24  1  0  0  0  0
 24 26  1  0  0  0  0
 26 27  1  0  0  0  0
 26 25  2  0  0  0  0
 28 27  1  0  0  0  0
 28 29  1  0  0  0  0
 30 28  1  0  0  0  0
 30 29  1  0  0  0  0
M  END
>  <MODEL>
7

>  <REMARK>
 VINA RESULT:      -7.2      2.987      5.648
  Name = 
  13 active torsions:
  status: ('A' for Active; 'I' for Inactive)
    1  A    between atoms: C_1  and  N_29
    2  A    between atoms: C_2  and  N_3
    3  A    between atoms: C_5  and  C_18
    4  A    between atoms: S_12  and  C_17
    5  A    between atoms: C_13  and  C_14
    6  A    between atoms: C_13  and  C_26
    7  A    between atoms: C_14  and  N_24
    8  A    between atoms: C_15  and  C_26
    9  A    between atoms: C_17  and  C_19
   10  A    between atoms: C_18  and  C_25
   11  A    between atoms: C_25  and  O_30
   12  A    between atoms: C_27  and  N_29
   13  A    between atoms: C_27  and  O_30
                            x       y       z     vdW  Elec       q    Type
                         _______ _______ _______ _____ _____    ______ ____

>  <TORSDO>
F 13

$$$$
=
 OpenBabel10222417393D

 30 31  0  0  1  0  0  0  0  0999 V2000
  188.5190  177.8810  140.2390 C   0  0  0  0  0  3  0  0  0  0  0  0
  189.5490  177.2090  140.7750 C   0  0  0  0  0  0  0  0  0  0  0  0
  190.8340  176.9830  140.0820 C   0  0  0  0  0  0  0  0  0  0  0  0
  190.8870  176.2390  138.8960 C   0  0  0  0  0  3  0  0  0  0  0  0
  193.2070  177.3830  139.8830 C   0  0  0  0  0  3  0  0  0  0  0  0
  192.1100  176.0650  138.2450 C   0  0  0  0  0  0  0  0  0  0  0  0
  193.2350  176.6380  138.7470 N   0  0  0  0  0  0  0  0  0  0  0  0
  192.0050  177.5730  140.5680 C   0  0  0  0  0  3  0  0  0  0  0  0
  192.1740  175.2880  136.9790 C   0  0  0  0  0  2  0  0  0  0  0  0
  190.0460  174.9560  135.5010 C   0  0  0  0  0  1  0  0  0  0  0  0
  190.8040  174.1030  136.9080 S   0  0  0  0  0  0  0  0  0  0  0  0
  189.0610  179.3910  138.4690 O   0  0  0  0  0  0  0  0  0  0  0  0
  188.4040  178.3900  138.8610 C   0  0  0  0  0  0  0  0  0  0  0  0
  187.5650  177.6430  137.8860 C   0  0  0  0  0  2  0  0  0  0  0  0
  186.1850  178.2700  137.8050 C   0  0  0  0  0  2  0  0  0  0  0  0
  183.8010  179.0320  140.7040 N   0  0  0  0  0  2  0  0  0  0  0  0
  184.2980  178.8920  139.3730 C   0  0  0  0  0  0  0  0  0  0  0  0
  183.5500  179.1880  138.4040 O   0  0  0  0  0  0  0  0  0  0  0  0
  185.6340  178.4360  139.1430 N   0  0  0  0  0  2  0  0  0  0  0  0
  184.6160  178.7570  141.8790 C   0  0  1  0  0  3  0  0  0  0  0  0
  185.5760  179.7560  142.0310 O   0  0  0  0  0  1  0  0  0  0  0  0
  183.7310  178.7250  143.1040 C   0  0  0  0  0  1  0  0  0  0  0  0
  189.3810  176.6850  142.1650 C   0  0  0  0  0  2  0  0  0  0  0  0
  188.3040  177.3510  142.8220 O   0  0  0  0  0  0  0  0  0  0  0  0
  189.2260  177.1570  145.0110 C   0  0  0  0  0  2  0  0  0  0  0  0
  188.2120  177.5000  144.2110 C   0  0  0  0  0  0  0  0  0  0  0  0
  186.9920  178.0040  144.7620 N   0  0  0  0  0  2  0  0  0  0  0  0
  186.4090  177.5230  146.0070 C   0  0  0  0  0  3  0  0  0  0  0  0
  186.5170  178.6040  147.0620 C   0  0  0  0  0  2  0  0  0  0  0  0
  185.2030  178.3700  146.3460 C   0  0  0  0  0  2  0  0  0  0  0  0
  1  2  2  0  0  0  0
  2 23  1  0  0  0  0
  3  8  1  0  0  0  0
  3  2  1  0  0  0  0
  4  3  2  0  0  0  0
  5  8  2  0  0  0  0
  6  7  2  0  0  0  0
  6  4  1  0  0  0  0
  7  5  1  0  0  0  0
  9  6  1  0  0  0  0
 10 11  1  0  0  0  0
 11  9  1  0  0  0  0
 12 13  2  0  0  0  0
 13  1  1  0  0  0  0
 14 13  1  0  0  0  0
 15 14  1  0  0  0  0
 15 19  1  0  0  0  0
 16 20  1  0  0  0  0
 17 16  1  0  0  0  0
 18 17  2  0  0  0  0
 19 17  1  0  0  0  0
 20 21  1  0  0  0  0
 20 22  1  1  0  0  0
 23 24  1  0  0  0  0
 24 26  1  0  0  0  0
 26 27  1  0  0  0  0
 26 25  2  0  0  0  0
 27 28  1  0  0  0  0
 28 30  1  0  0  0  0
 28 29  1  0  0  0  0
 30 29  1  0  0  0  0
M  END
>  <MODEL>
8

>  <REMARK>
 VINA RESULT:      -7.1      2.996      7.053
  Name = 
  13 active torsions:
  status: ('A' for Active; 'I' for Inactive)
    1  A    between atoms: C_1  and  N_29
    2  A    between atoms: C_2  and  N_3
    3  A    between atoms: C_5  and  C_18
    4  A    between atoms: S_12  and  C_17
    5  A    between atoms: C_13  and  C_14
    6  A    between atoms: C_13  and  C_26
    7  A    between atoms: C_14  and  N_24
    8  A    between atoms: C_15  and  C_26
    9  A    between atoms: C_17  and  C_19
   10  A    between atoms: C_18  and  C_25
   11  A    between atoms: C_25  and  O_30
   12  A    between atoms: C_27  and  N_29
   13  A    between atoms: C_27  and  O_30
                            x       y       z     vdW  Elec       q    Type
                         _______ _______ _______ _____ _____    ______ ____

>  <TORSDO>
F 13

$$$$
=
 OpenBabel10222417393D

 30 31  0  0  1  0  0  0  0  0999 V2000
  187.1670  178.3990  141.5040 C   0  0  0  0  0  3  0  0  0  0  0  0
  188.2670  177.9820  140.8600 C   0  0  0  0  0  0  0  0  0  0  0  0
  188.3950  177.9410  139.3890 C   0  0  0  0  0  0  0  0  0  0  0  0
  187.8550  176.8770  138.6530 C   0  0  0  0  0  3  0  0  0  0  0  0
  189.0760  178.9720  137.3140 C   0  0  0  0  0  3  0  0  0  0  0  0
  187.9640  176.8770  137.2600 C   0  0  0  0  0  0  0  0  0  0  0  0
  188.5650  177.9170  136.6250 N   0  0  0  0  0  0  0  0  0  0  0  0
  188.9950  179.0050  138.7080 C   0  0  0  0  0  3  0  0  0  0  0  0
  187.3830  175.7590  136.4700 C   0  0  0  0  0  2  0  0  0  0  0  0
  189.5580  174.3500  136.7930 C   0  0  0  0  0  1  0  0  0  0  0  0
  188.6470  175.0410  135.3880 S   0  0  0  0  0  0  0  0  0  0  0  0
  185.7360  179.7530  140.1520 O   0  0  0  0  0  0  0  0  0  0  0  0
  185.8660  178.7560  140.9110 C   0  0  0  0  0  0  0  0  0  0  0  0
  184.7010  177.8580  141.1390 C   0  0  0  0  0  2  0  0  0  0  0  0
  183.6860  178.5480  142.0330 C   0  0  0  0  0  2  0  0  0  0  0  0
  184.0020  178.9890  145.8240 N   0  0  0  0  0  2  0  0  0  0  0  0
  183.4130  178.8210  144.5340 C   0  0  0  0  0  0  0  0  0  0  0  0
  182.1580  178.7690  144.4330 O   0  0  0  0  0  0  0  0  0  0  0  0
  184.2370  178.7260  143.3680 N   0  0  0  0  0  2  0  0  0  0  0  0
  185.4390  179.1050  146.0210 C   0  0  1  0  0  3  0  0  0  0  0  0
  185.7020  179.5580  147.3130 O   0  0  0  0  0  1  0  0  0  0  0  0
  186.0810  177.7500  145.8280 C   0  0  0  0  0  1  0  0  0  0  0  0
  189.4340  177.5580  141.6930 C   0  0  0  0  0  2  0  0  0  0  0  0
  189.1470  177.7350  143.0800 O   0  0  0  0  0  0  0  0  0  0  0  0
  191.2070  178.8130  143.6020 C   0  0  0  0  0  2  0  0  0  0  0  0
  190.0580  178.2600  144.0030 C   0  0  0  0  0  0  0  0  0  0  0  0
  189.7460  178.1660  145.3960 N   0  0  0  0  0  2  0  0  0  0  0  0
  189.7400  176.9140  146.1400 C   0  0  0  0  0  3  0  0  0  0  0  0
  190.5640  177.0750  147.4010 C   0  0  0  0  0  2  0  0  0  0  0  0
  189.0520  177.1340  147.4690 C   0  0  0  0  0  2  0  0  0  0  0  0
  2  1  2  0  0  0  0
  2 23  1  0  0  0  0
  3  2  1  0  0  0  0
  4  3  2  0  0  0  0
  5  8  2  0  0  0  0
  6  4  1  0  0  0  0
  7  6  2  0  0  0  0
  7  5  1  0  0  0  0
  8  3  1  0  0  0  0
  9  6  1  0  0  0  0
 11  9  1  0  0  0  0
 11 10  1  0  0  0  0
 12 13  2  0  0  0  0
 13 14  1  0  0  0  0
 13  1  1  0  0  0  0
 14 15  1  0  0  0  0
 15 19  1  0  0  0  0
 16 20  1  0  0  0  0
 17 16  1  0  0  0  0
 18 17  2  0  0  0  0
 19 17  1  0  0  0  0
 20 22  1  1  0  0  0
 20 21  1  0  0  0  0
 23 24  1  0  0  0  0
 24 26  1  0  0  0  0
 25 26  2  0  0  0  0
 26 27  1  0  0  0  0
 27 28  1  0  0  0  0
 28 29  1  0  0  0  0
 28 30  1  0  0  0  0
 29 30  1  0  0  0  0
M  END
>  <MODEL>
9

>  <REMARK>
 VINA RESULT:      -7.1      2.772      6.750
  Name = 
  13 active torsions:
  status: ('A' for Active; 'I' for Inactive)
    1  A    between atoms: C_1  and  N_29
    2  A    between atoms: C_2  and  N_3
    3  A    between atoms: C_5  and  C_18
    4  A    between atoms: S_12  and  C_17
    5  A    between atoms: C_13  and  C_14
    6  A    between atoms: C_13  and  C_26
    7  A    between atoms: C_14  and  N_24
    8  A    between atoms: C_15  and  C_26
    9  A    between atoms: C_17  and  C_19
   10  A    between atoms: C_18  and  C_25
   11  A    between atoms: C_25  and  O_30
   12  A    between atoms: C_27  and  N_29
   13  A    between atoms: C_27  and  O_30
                            x       y       z     vdW  Elec       q    Type
                         _______ _______ _______ _____ _____    ______ ____

>  <TORSDO>
F 13

$$$$
