=
 OpenBabel10222418353D

 62 68  0  0  1  0  0  0  0  0999 V2000
  184.8810  178.6590  142.8710 C   0  0  0  0  0  2  0  0  0  0  0  0
  183.2710  179.3270  141.0470 N   0  0  0  0  0  0  0  0  0  0  0  0
  181.3100  178.5080  144.0240 O   0  0  0  0  0  1  0  0  0  0  0  0
  182.3480  178.4640  143.1230 C   0  0  1  0  0  3  0  0  0  0  0  0
  182.3720  179.6690  142.1500 C   0  0  0  0  0  2  0  0  0  0  0  0
  184.5450  178.5710  141.4090 C   0  0  1  0  0  3  0  0  0  0  0  0
  183.7000  178.2750  143.8410 C   0  0  2  0  0  3  0  0  0  0  0  0
  182.9630  178.5290  138.6220 C   0  0  0  0  0  3  0  0  0  0  0  0
  180.9690  180.3310  138.1740 C   0  0  0  0  0  0  0  0  0  0  0  0
  182.5900  179.3560  139.7490 C   0  0  0  0  0  0  0  0  0  0  0  0
  181.3640  179.6320  137.0720 C   0  0  0  0  0  0  0  0  0  0  0  0
  179.9850  181.2130  138.0410 F   0  0  0  0  0  0  0  0  0  0  0  0
  182.2160  178.6220  137.3800 C   0  0  0  0  0  0  0  0  0  0  0  0
  180.7750  179.8930  135.7220 C   0  0  0  0  0  1  0  0  0  0  0  0
  181.4340  180.0780  139.4950 C   0  0  0  0  0  3  0  0  0  0  0  0
  183.0490  177.4510  135.5060 O   0  0  0  0  0  0  0  0  0  0  0  0
  182.2150  177.4980  136.4400 C   0  0  0  0  0  0  0  0  0  0  0  0
  181.1010  176.6200  136.3530 C   0  0  0  0  0  2  0  0  0  0  0  0
  180.9140  176.0300  137.7240 C   0  0  0  0  0  2  0  0  0  0  0  0
  181.9560  175.0690  137.9450 N   0  0  0  0  0  2  0  0  0  0  0  0
  182.0530  174.2110  136.7690 C   0  0  0  0  0  2  0  0  0  0  0  0
  184.4890  174.6510  137.2810 C   0  0  0  0  0  2  0  0  0  0  0  0
  185.8260  174.1500  136.6250 C   0  0  0  0  0  2  0  0  0  0  0  0
  184.7180  171.8200  136.4270 C   0  0  0  0  0  2  0  0  0  0  0  0
  183.4190  173.8040  136.7280 C   0  0  1  0  0  3  0  0  0  0  0  0
  183.5750  172.3420  137.2080 C   0  0  0  0  0  2  0  0  0  0  0  0
  185.9700  172.6040  136.7790 C   0  0  1  0  0  3  0  0  0  0  0  0
  188.0950  173.1340  135.5420 N   0  0  0  0  0  1  0  0  0  0  0  0
  187.1320  172.0790  135.9490 C   0  0  0  0  0  2  0  0  0  0  0  0
  185.7810  178.3380  140.5180 C   0  0  0  0  0  0  0  0  0  0  0  0
  186.6650  177.9620  138.2850 C   0  0  0  0  0  0  0  0  0  0  0  0
  187.1720  178.4040  140.9150 C   0  0  0  0  0  3  0  0  0  0  0  0
  187.9980  178.0580  138.6150 C   0  0  0  0  0  0  0  0  0  0  0  0
  186.3730  178.3770  137.0500 F   0  0  0  0  0  0  0  0  0  0  0  0
  188.2220  178.3420  139.9240 C   0  0  0  0  0  3  0  0  0  0  0  0
  185.6150  178.0270  139.1970 C   0  0  0  0  0  3  0  0  0  0  0  0
  189.0370  178.2350  137.5310 C   0  0  0  0  0  2  0  0  0  0  0  0
  191.4440  176.2980  134.8350 N   0  0  0  0  0  0  0  0  0  0  0  0
  189.1020  176.4040  135.7090 C   0  0  0  0  0  2  0  0  0  0  0  0
  191.1090  176.4630  137.3590 C   0  0  0  0  0  2  0  0  0  0  0  0
  190.0710  176.8670  134.5940 C   0  0  0  0  0  2  0  0  0  0  0  0
  189.5820  176.8700  137.0510 C   0  0  1  0  0  3  0  0  0  0  0  0
  191.9960  176.2030  136.0920 C   0  0  0  0  0  0  0  0  0  0  0  0
  193.9410  174.8180  135.9540 O   0  0  0  0  0  0  0  0  0  0  0  0
  194.3840  176.8810  136.6160 O   0  0  0  0  0  1  0  0  0  0  0  0
  193.4890  175.9170  136.1970 C   0  0  0  0  0  0  0  0  0  0  0  0
  183.8160  179.0010  145.2380 C   0  0  0  0  0  2  0  0  0  0  0  0
  186.1580  178.4510  146.9840 C   0  0  1  0  0  3  0  0  0  0  0  0
  185.6640  179.6120  146.3220 C   0  0  0  0  0  2  0  0  0  0  0  0
  184.7860  178.4110  146.2470 N   0  0  0  0  0  0  0  0  0  0  0  0
  190.6040  177.5680  145.4670 N   0  0  0  0  0  0  0  0  0  0  0  0
  190.6540  176.4640  147.4740 O   0  0  0  0  0  0  0  0  0  0  0  0
  189.9230  177.1870  146.7140 C   0  0  0  0  0  0  0  0  0  0  0  0
  188.8740  178.2320  144.0160 O   0  0  0  0  0  0  0  0  0  0  0  0
  188.6170  177.5420  147.1280 N   0  0  0  0  0  2  0  0  0  0  0  0
  187.4580  177.9200  146.2870 C   0  0  1  0  0  3  0  0  0  0  0  0
  187.5320  177.1820  144.6280 S   0  0  0  0  0  0  0  0  0  0  0  0
  190.2240  178.0470  144.3550 C   0  0  0  0  0  0  0  0  0  0  0  0
  191.2680  178.1890  143.3080 C   0  0  0  0  0  2  0  0  0  0  0  0
  192.3100  177.5890  141.0000 C   0  0  0  0  0  1  0  0  0  0  0  0
  191.1240  177.5730  141.9170 C   0  0  0  0  0  3  0  0  0  0  0  0
  190.4440  176.1710  141.9630 C   0  0  0  0  0  1  0  0  0  0  0  0
  1  7  1  0  0  0  0
  2  6  1  0  0  0  0
  2  5  1  0  0  0  0
  4  7  1  0  0  0  0
  4  3  1  1  0  0  0
  5  4  1  0  0  0  0
  6 30  1  6  0  0  0
  6  1  1  0  0  0  0
  7 47  1  1  0  0  0
  8 10  1  0  0  0  0
  9 15  1  0  0  0  0
 10  2  1  0  0  0  0
 11 13  1  0  0  0  0
 11  9  2  0  0  0  0
 12  9  1  0  0  0  0
 13  8  2  0  0  0  0
 14 11  1  0  0  0  0
 15 10  2  0  0  0  0
 16 17  2  0  0  0  0
 17 13  1  0  0  0  0
 18 17  1  0  0  0  0
 18 19  1  0  0  0  0
 19 20  1  0  0  0  0
 21 20  1  0  0  0  0
 23 27  1  0  0  0  0
 23 22  1  0  0  0  0
 24 27  1  0  0  0  0
 24 26  1  0  0  0  0
 25 21  1  1  0  0  0
 25 26  1  0  0  0  0
 25 22  1  0  0  0  0
 27 29  1  6  0  0  0
 28 29  1  0  0  0  0
 30 32  1  0  0  0  0
 31 33  2  0  0  0  0
 31 36  1  0  0  0  0
 33 35  1  0  0  0  0
 34 31  1  0  0  0  0
 35 32  2  0  0  0  0
 36 30  2  0  0  0  0
 37 33  1  0  0  0  0
 38 43  2  0  0  0  0
 39 42  1  0  0  0  0
 41 38  1  0  0  0  0
 41 39  1  0  0  0  0
 42 40  1  0  0  0  0
 42 37  1  6  0  0  0
 43 46  1  0  0  0  0
 43 40  1  0  0  0  0
 44 46  2  0  0  0  0
 46 45  1  0  0  0  0
 47 50  1  0  0  0  0
 48 49  1  6  0  0  0
 50 49  1  0  0  0  0
 50 48  1  0  0  0  0
 51 53  1  0  0  0  0
 53 55  1  0  0  0  0
 53 52  2  0  0  0  0
 54 58  1  0  0  0  0
 54 57  1  0  0  0  0
 56 57  1  1  0  0  0
 56 48  1  0  0  0  0
 56 55  1  0  0  0  0
 58 51  2  0  0  0  0
 59 58  1  0  0  0  0
 60 61  1  0  0  0  0
 61 62  1  0  0  0  0
 61 59  1  0  0  0  0
M  END
>  <MODEL>
1

>  <REMARK>
 VINA RESULT:      -7.4      0.000      0.000
  Name = 
  17 active torsions:
  status: ('A' for Active; 'I' for Inactive)
    1  A    between atoms: C_1  and  N_35
    2  A    between atoms: C_1  and  C_60
    3  A    between atoms: C_2  and  C_49
    4  A    between atoms: C_5  and  C_48
    5  A    between atoms: C_11  and  C_41
    6  A    between atoms: N_14  and  C_17
    7  A    between atoms: N_14  and  C_33
    8  A    between atoms: C_17  and  C_36
    9  A    between atoms: C_18  and  C_29
   10  A    between atoms: N_22  and  C_28
   11  A    between atoms: C_29  and  C_47
   12  A    between atoms: C_33  and  C_52
   13  A    between atoms: C_36  and  C_54
   14  A    between atoms: C_40  and  C_54
   15  A    between atoms: C_41  and  C_62
   16  A    between atoms: C_53  and  C_58
   17  A    between atoms: CA_56  and  C_61
                            x       y       z     vdW  Elec       q    Type
                         _______ _______ _______ _____ _____    ______ ____

>  <TORSDO>
F 17

$$$$
=
 OpenBabel10222418353D

 62 68  0  0  1  0  0  0  0  0999 V2000
  188.0190  175.5670  135.6940 C   0  0  0  0  0  2  0  0  0  0  0  0
  186.7030  177.1540  137.1490 N   0  0  0  0  0  0  0  0  0  0  0  0
  190.2240  177.4220  138.1010 O   0  0  0  0  0  1  0  0  0  0  0  0
  189.0630  176.8480  137.6390 C   0  0  1  0  0  3  0  0  0  0  0  0
  187.9690  177.8800  137.2710 C   0  0  0  0  0  2  0  0  0  0  0  0
  186.7600  175.7820  136.4860 C   0  0  1  0  0  3  0  0  0  0  0  0
  189.3500  175.8700  136.4810 C   0  0  2  0  0  3  0  0  0  0  0  0
  185.8850  177.7530  139.5120 C   0  0  0  0  0  3  0  0  0  0  0  0
  183.3990  178.3960  138.6000 C   0  0  0  0  0  0  0  0  0  0  0  0
  185.6880  177.6520  138.0820 C   0  0  0  0  0  0  0  0  0  0  0  0
  183.5310  178.4090  139.9580 C   0  0  0  0  0  0  0  0  0  0  0  0
  182.2220  178.7200  138.0780 F   0  0  0  0  0  0  0  0  0  0  0  0
  184.8210  178.2720  140.3520 C   0  0  0  0  0  0  0  0  0  0  0  0
  182.3710  178.7000  140.8570 C   0  0  0  0  0  1  0  0  0  0  0  0
  184.4770  178.2030  137.6920 C   0  0  0  0  0  3  0  0  0  0  0  0
  185.6890  179.9810  141.7320 O   0  0  0  0  0  0  0  0  0  0  0  0
  185.1380  178.8570  141.6580 C   0  0  0  0  0  0  0  0  0  0  0  0
  185.1380  178.0610  142.8350 C   0  0  0  0  0  2  0  0  0  0  0  0
  186.5700  177.6900  143.0990 C   0  0  0  0  0  2  0  0  0  0  0  0
  186.6360  177.0280  144.3700 N   0  0  0  0  0  2  0  0  0  0  0  0
  187.1850  177.9590  145.3500 C   0  0  0  0  0  2  0  0  0  0  0  0
  189.5630  177.8660  144.4960 C   0  0  0  0  0  2  0  0  0  0  0  0
  190.7520  176.8710  144.7520 C   0  0  0  0  0  2  0  0  0  0  0  0
  190.0340  176.8370  147.2380 C   0  0  0  0  0  2  0  0  0  0  0  0
  188.5430  177.5560  145.5130 C   0  0  1  0  0  3  0  0  0  0  0  0
  189.0590  177.9050  146.9280 C   0  0  0  0  0  2  0  0  0  0  0  0
  191.1860  176.9040  146.2500 C   0  0  1  0  0  3  0  0  0  0  0  0
  192.5220  175.6850  147.9980 N   0  0  0  0  0  1  0  0  0  0  0  0
  192.1670  175.7830  146.5580 C   0  0  0  0  0  2  0  0  0  0  0  0
  185.5740  174.9380  135.9770 C   0  0  0  0  0  0  0  0  0  0  0  0
  184.3790  172.8230  136.0370 C   0  0  0  0  0  0  0  0  0  0  0  0
  184.4780  175.3830  135.1420 C   0  0  0  0  0  3  0  0  0  0  0  0
  183.3000  173.2190  135.2800 C   0  0  0  0  0  0  0  0  0  0  0  0
  184.0940  171.9020  136.9610 F   0  0  0  0  0  0  0  0  0  0  0  0
  183.3440  174.5210  134.8980 C   0  0  0  0  0  3  0  0  0  0  0  0
  185.4900  173.6160  136.3120 C   0  0  0  0  0  3  0  0  0  0  0  0
  182.0400  172.3830  135.2600 C   0  0  0  0  0  2  0  0  0  0  0  0
  179.0420  172.9670  137.9970 N   0  0  0  0  0  0  0  0  0  0  0  0
  179.4790  172.5290  135.5720 C   0  0  0  0  0  2  0  0  0  0  0  0
  180.9000  174.2890  136.8510 C   0  0  0  0  0  2  0  0  0  0  0  0
  179.1230  171.8980  136.9390 C   0  0  0  0  0  2  0  0  0  0  0  0
  180.8030  173.2280  135.6430 C   0  0  1  0  0  3  0  0  0  0  0  0
  179.9210  174.0250  138.0480 C   0  0  0  0  0  0  0  0  0  0  0  0
  180.2330  176.0440  139.2900 O   0  0  0  0  0  0  0  0  0  0  0  0
  179.7180  174.3090  140.5600 O   0  0  0  0  0  1  0  0  0  0  0  0
  179.9560  174.8640  139.3190 C   0  0  0  0  0  0  0  0  0  0  0  0
  190.5240  176.3070  135.5200 C   0  0  0  0  0  2  0  0  0  0  0  0
  193.4010  176.2150  136.2610 C   0  0  1  0  0  3  0  0  0  0  0  0
  192.6590  175.8220  135.1100 C   0  0  0  0  0  2  0  0  0  0  0  0
  191.8830  176.5490  136.1530 N   0  0  0  0  0  0  0  0  0  0  0  0
  195.8650  172.7460  138.4400 N   0  0  0  0  0  0  0  0  0  0  0  0
  196.1280  174.4280  139.9720 O   0  0  0  0  0  0  0  0  0  0  0  0
  195.6220  174.1420  138.8340 C   0  0  0  0  0  0  0  0  0  0  0  0
  194.2840  172.3140  136.7510 O   0  0  0  0  0  0  0  0  0  0  0  0
  194.9320  175.1390  138.1020 N   0  0  0  0  0  2  0  0  0  0  0  0
  193.8910  174.9610  137.0660 C   0  0  1  0  0  3  0  0  0  0  0  0
  192.9520  173.4200  137.2800 S   0  0  0  0  0  0  0  0  0  0  0  0
  195.3790  171.9710  137.5600 C   0  0  0  0  0  0  0  0  0  0  0  0
  195.8650  170.5680  137.5780 C   0  0  0  0  0  2  0  0  0  0  0  0
  197.5940  170.9920  135.6810 C   0  0  0  0  0  1  0  0  0  0  0  0
  197.0900  170.1140  136.7860 C   0  0  0  0  0  3  0  0  0  0  0  0
  198.2430  169.6280  137.7140 C   0  0  0  0  0  1  0  0  0  0  0  0
  1  7  1  0  0  0  0
  1  6  1  0  0  0  0
  2  5  1  0  0  0  0
  2 10  1  0  0  0  0
  4  3  1  6  0  0  0
  5  4  1  0  0  0  0
  6 30  1  6  0  0  0
  6  2  1  0  0  0  0
  7 47  1  6  0  0  0
  7  4  1  0  0  0  0
  8 13  1  0  0  0  0
  9 11  1  0  0  0  0
 10  8  2  0  0  0  0
 11 13  2  0  0  0  0
 11 14  1  0  0  0  0
 12  9  1  0  0  0  0
 13 17  1  0  0  0  0
 15 10  1  0  0  0  0
 15  9  2  0  0  0  0
 17 16  2  0  0  0  0
 17 18  1  0  0  0  0
 18 19  1  0  0  0  0
 19 20  1  0  0  0  0
 20 21  1  0  0  0  0
 22 23  1  0  0  0  0
 22 25  1  0  0  0  0
 23 27  1  0  0  0  0
 25 21  1  6  0  0  0
 25 26  1  0  0  0  0
 26 24  1  0  0  0  0
 27 29  1  1  0  0  0
 27 24  1  0  0  0  0
 29 28  1  0  0  0  0
 30 36  1  0  0  0  0
 31 36  2  0  0  0  0
 31 34  1  0  0  0  0
 32 30  2  0  0  0  0
 33 31  1  0  0  0  0
 35 32  1  0  0  0  0
 35 33  2  0  0  0  0
 37 33  1  0  0  0  0
 38 43  2  0  0  0  0
 39 42  1  0  0  0  0
 39 41  1  0  0  0  0
 40 43  1  0  0  0  0
 41 38  1  0  0  0  0
 42 37  1  1  0  0  0
 42 40  1  0  0  0  0
 43 46  1  0  0  0  0
 44 46  2  0  0  0  0
 46 45  1  0  0  0  0
 47 50  1  0  0  0  0
 48 49  1  6  0  0  0
 48 56  1  0  0  0  0
 49 50  1  0  0  0  0
 50 48  1  0  0  0  0
 51 53  1  0  0  0  0
 53 52  2  0  0  0  0
 54 57  1  0  0  0  0
 54 58  1  0  0  0  0
 55 53  1  0  0  0  0
 56 57  1  1  0  0  0
 56 55  1  0  0  0  0
 58 59  1  0  0  0  0
 58 51  2  0  0  0  0
 60 61  1  0  0  0  0
 61 59  1  0  0  0  0
 61 62  1  0  0  0  0
M  END
>  <MODEL>
2

>  <REMARK>
 VINA RESULT:      -6.7      3.438      9.769
  Name = 
  17 active torsions:
  status: ('A' for Active; 'I' for Inactive)
    1  A    between atoms: C_1  and  N_35
    2  A    between atoms: C_1  and  C_60
    3  A    between atoms: C_2  and  C_49
    4  A    between atoms: C_5  and  C_48
    5  A    between atoms: C_11  and  C_41
    6  A    between atoms: N_14  and  C_17
    7  A    between atoms: N_14  and  C_33
    8  A    between atoms: C_17  and  C_36
    9  A    between atoms: C_18  and  C_29
   10  A    between atoms: N_22  and  C_28
   11  A    between atoms: C_29  and  C_47
   12  A    between atoms: C_33  and  C_52
   13  A    between atoms: C_36  and  C_54
   14  A    between atoms: C_40  and  C_54
   15  A    between atoms: C_41  and  C_62
   16  A    between atoms: C_53  and  C_58
   17  A    between atoms: CA_56  and  C_61
                            x       y       z     vdW  Elec       q    Type
                         _______ _______ _______ _____ _____    ______ ____

>  <TORSDO>
F 17

$$$$
=
 OpenBabel10222418353D

 62 68  0  0  1  0  0  0  0  0999 V2000
  186.3950  178.7040  139.5760 C   0  0  0  0  0  2  0  0  0  0  0  0
  187.4680  177.3490  137.7370 N   0  0  0  0  0  0  0  0  0  0  0  0
  183.8640  177.4220  137.1170 O   0  0  0  0  0  1  0  0  0  0  0  0
  185.0400  177.4290  137.8280 C   0  0  1  0  0  3  0  0  0  0  0  0
  186.2860  177.7230  136.9570 C   0  0  0  0  0  2  0  0  0  0  0  0
  187.4400  177.6820  139.2250 C   0  0  1  0  0  3  0  0  0  0  0  0
  184.9490  178.3750  139.0440 C   0  0  2  0  0  3  0  0  0  0  0  0
  189.6760  176.4640  136.7630 C   0  0  0  0  0  3  0  0  0  0  0  0
  188.4860  174.1830  135.8670 C   0  0  0  0  0  0  0  0  0  0  0  0
  188.2700  176.3200  137.0690 C   0  0  0  0  0  0  0  0  0  0  0  0
  189.7860  174.3360  135.4860 C   0  0  0  0  0  0  0  0  0  0  0  0
  187.8430  173.0850  135.4880 F   0  0  0  0  0  0  0  0  0  0  0  0
  190.3870  175.3800  136.1090 C   0  0  0  0  0  0  0  0  0  0  0  0
  190.4660  173.3440  134.5950 C   0  0  0  0  0  1  0  0  0  0  0  0
  187.8080  175.0470  136.7710 C   0  0  0  0  0  3  0  0  0  0  0  0
  192.3430  174.7490  137.2720 O   0  0  0  0  0  0  0  0  0  0  0  0
  191.8410  175.2690  136.2470 C   0  0  0  0  0  0  0  0  0  0  0  0
  192.7140  176.0150  135.4100 C   0  0  0  0  0  2  0  0  0  0  0  0
  194.0380  176.0770  136.1210 C   0  0  0  0  0  2  0  0  0  0  0  0
  195.0570  175.6390  135.2130 N   0  0  0  0  0  2  0  0  0  0  0  0
  196.2780  175.3870  135.9720 C   0  0  0  0  0  2  0  0  0  0  0  0
  197.0250  172.9820  135.7520 C   0  0  0  0  0  2  0  0  0  0  0  0
  196.3160  171.6120  136.0480 C   0  0  0  0  0  2  0  0  0  0  0  0
  195.3510  172.7070  138.1850 C   0  0  0  0  0  2  0  0  0  0  0  0
  196.1830  174.0210  136.3690 C   0  0  1  0  0  3  0  0  0  0  0  0
  196.1950  173.8910  137.9100 C   0  0  0  0  0  2  0  0  0  0  0  0
  195.9920  171.4760  137.5680 C   0  0  1  0  0  3  0  0  0  0  0  0
  194.0400  170.0840  136.8070 N   0  0  0  0  0  1  0  0  0  0  0  0
  195.1010  170.2710  137.8300 C   0  0  0  0  0  2  0  0  0  0  0  0
  188.6260  177.6670  140.2100 C   0  0  0  0  0  0  0  0  0  0  0  0
  189.6190  178.5460  142.2460 C   0  0  0  0  0  0  0  0  0  0  0  0
  189.7560  176.7620  140.2050 C   0  0  0  0  0  3  0  0  0  0  0  0
  190.6860  177.6770  142.3010 C   0  0  0  0  0  0  0  0  0  0  0  0
  189.1760  178.9470  143.4410 F   0  0  0  0  0  0  0  0  0  0  0  0
  190.6960  176.7560  141.3030 C   0  0  0  0  0  3  0  0  0  0  0  0
  188.6800  178.5870  141.2200 C   0  0  0  0  0  3  0  0  0  0  0  0
  191.4890  177.5410  143.5740 C   0  0  0  0  0  2  0  0  0  0  0  0
  190.7900  176.6440  147.5140 N   0  0  0  0  0  0  0  0  0  0  0  0
  191.7230  175.7140  145.3870 C   0  0  0  0  0  2  0  0  0  0  0  0
  189.4830  177.0310  145.3560 C   0  0  0  0  0  2  0  0  0  0  0  0
  192.0530  176.4070  146.7300 C   0  0  0  0  0  2  0  0  0  0  0  0
  190.8060  176.5690  144.5640 C   0  0  1  0  0  3  0  0  0  0  0  0
  189.6150  177.0430  146.9200 C   0  0  0  0  0  0  0  0  0  0  0  0
  187.3320  177.4600  147.4990 O   0  0  0  0  0  0  0  0  0  0  0  0
  188.7650  178.1960  149.0140 O   0  0  0  0  0  1  0  0  0  0  0  0
  188.4970  177.5580  147.8190 C   0  0  0  0  0  0  0  0  0  0  0  0
  184.0900  179.6790  138.8060 C   0  0  0  0  0  2  0  0  0  0  0  0
  181.4430  178.9370  139.9350 C   0  0  1  0  0  3  0  0  0  0  0  0
  182.7920  178.7100  140.3350 C   0  0  0  0  0  2  0  0  0  0  0  0
  182.6150  179.6100  139.1610 N   0  0  0  0  0  0  0  0  0  0  0  0
  180.2340  174.4390  138.8580 N   0  0  0  0  0  0  0  0  0  0  0  0
  179.4020  174.5640  140.9890 O   0  0  0  0  0  0  0  0  0  0  0  0
  180.0410  175.2150  140.0930 C   0  0  0  0  0  0  0  0  0  0  0  0
  180.7550  176.0430  137.2170 O   0  0  0  0  0  0  0  0  0  0  0  0
  180.4860  176.5300  140.3660 N   0  0  0  0  0  2  0  0  0  0  0  0
  180.7860  177.6150  139.4050 C   0  0  1  0  0  3  0  0  0  0  0  0
  179.8350  177.4620  137.8630 S   0  0  0  0  0  0  0  0  0  0  0  0
  180.5750  174.7260  137.6700 C   0  0  0  0  0  0  0  0  0  0  0  0
  180.5470  173.6120  136.6890 C   0  0  0  0  0  2  0  0  0  0  0  0
  181.0000  171.0900  136.2370 C   0  0  0  0  0  1  0  0  0  0  0  0
  181.4680  172.3990  136.7980 C   0  0  0  0  0  3  0  0  0  0  0  0
  182.9280  172.7290  136.3630 C   0  0  0  0  0  1  0  0  0  0  0  0
  2  6  1  0  0  0  0
  4  3  1  6  0  0  0
  4  7  1  0  0  0  0
  5  2  1  0  0  0  0
  5  4  1  0  0  0  0
  6  1  1  0  0  0  0
  6 30  1  6  0  0  0
  7 47  1  6  0  0  0
  7  1  1  0  0  0  0
  8 10  1  0  0  0  0
  9 15  1  0  0  0  0
 10  2  1  0  0  0  0
 11  9  2  0  0  0  0
 11 13  1  0  0  0  0
 12  9  1  0  0  0  0
 13 17  1  0  0  0  0
 13  8  2  0  0  0  0
 14 11  1  0  0  0  0
 15 10  2  0  0  0  0
 17 16  2  0  0  0  0
 18 19  1  0  0  0  0
 18 17  1  0  0  0  0
 20 21  1  0  0  0  0
 20 19  1  0  0  0  0
 22 23  1  0  0  0  0
 22 25  1  0  0  0  0
 23 27  1  0  0  0  0
 25 21  1  1  0  0  0
 25 26  1  0  0  0  0
 26 24  1  0  0  0  0
 27 29  1  6  0  0  0
 27 24  1  0  0  0  0
 28 29  1  0  0  0  0
 30 36  1  0  0  0  0
 31 33  1  0  0  0  0
 31 34  1  0  0  0  0
 32 30  2  0  0  0  0
 32 35  1  0  0  0  0
 33 37  1  0  0  0  0
 35 33  2  0  0  0  0
 36 31  2  0  0  0  0
 39 41  1  0  0  0  0
 40 43  1  0  0  0  0
 41 38  1  0  0  0  0
 42 37  1  1  0  0  0
 42 40  1  0  0  0  0
 42 39  1  0  0  0  0
 43 38  2  0  0  0  0
 43 46  1  0  0  0  0
 44 46  2  0  0  0  0
 46 45  1  0  0  0  0
 47 50  1  0  0  0  0
 48 49  1  1  0  0  0
 50 48  1  0  0  0  0
 50 49  1  0  0  0  0
 51 53  1  0  0  0  0
 53 55  1  0  0  0  0
 53 52  2  0  0  0  0
 54 58  1  0  0  0  0
 54 57  1  0  0  0  0
 56 57  1  1  0  0  0
 56 48  1  0  0  0  0
 56 55  1  0  0  0  0
 58 51  2  0  0  0  0
 59 61  1  0  0  0  0
 59 58  1  0  0  0  0
 60 61  1  0  0  0  0
 62 61  1  0  0  0  0
M  END
>  <MODEL>
3

>  <REMARK>
 VINA RESULT:      -6.6      3.215      9.873
  Name = 
  17 active torsions:
  status: ('A' for Active; 'I' for Inactive)
    1  A    between atoms: C_1  and  N_35
    2  A    between atoms: C_1  and  C_60
    3  A    between atoms: C_2  and  C_49
    4  A    between atoms: C_5  and  C_48
    5  A    between atoms: C_11  and  C_41
    6  A    between atoms: N_14  and  C_17
    7  A    between atoms: N_14  and  C_33
    8  A    between atoms: C_17  and  C_36
    9  A    between atoms: C_18  and  C_29
   10  A    between atoms: N_22  and  C_28
   11  A    between atoms: C_29  and  C_47
   12  A    between atoms: C_33  and  C_52
   13  A    between atoms: C_36  and  C_54
   14  A    between atoms: C_40  and  C_54
   15  A    between atoms: C_41  and  C_62
   16  A    between atoms: C_53  and  C_58
   17  A    between atoms: CA_56  and  C_61
                            x       y       z     vdW  Elec       q    Type
                         _______ _______ _______ _____ _____    ______ ____

>  <TORSDO>
F 17

$$$$
=
 OpenBabel10222418353D

 62 68  0  0  1  0  0  0  0  0999 V2000
  186.6210  178.6540  140.3540 C   0  0  0  0  0  2  0  0  0  0  0  0
  188.1550  177.7730  138.5530 N   0  0  0  0  0  0  0  0  0  0  0  0
  184.7850  177.9870  137.1470 O   0  0  0  0  0  1  0  0  0  0  0  0
  185.7690  177.8270  138.0940 C   0  0  1  0  0  3  0  0  0  0  0  0
  187.1610  178.3190  137.6270 C   0  0  0  0  0  2  0  0  0  0  0  0
  187.7740  177.7450  140.0300 C   0  0  1  0  0  3  0  0  0  0  0  0
  185.3540  178.4590  139.4390 C   0  0  2  0  0  3  0  0  0  0  0  0
  190.5670  177.1830  137.8880 C   0  0  0  0  0  3  0  0  0  0  0  0
  189.7400  175.0970  136.3430 C   0  0  0  0  0  0  0  0  0  0  0  0
  189.1430  176.9320  137.8710 C   0  0  0  0  0  0  0  0  0  0  0  0
  191.0740  175.3690  136.2680 C   0  0  0  0  0  0  0  0  0  0  0  0
  189.2640  174.0790  135.6360 F   0  0  0  0  0  0  0  0  0  0  0  0
  191.4670  176.2820  137.1910 C   0  0  0  0  0  0  0  0  0  0  0  0
  191.9820  174.6060  135.3560 C   0  0  0  0  0  1  0  0  0  0  0  0
  188.8410  175.7330  137.2440 C   0  0  0  0  0  3  0  0  0  0  0  0
  193.7710  176.7010  136.8790 O   0  0  0  0  0  0  0  0  0  0  0  0
  192.8730  176.1940  137.5930 C   0  0  0  0  0  0  0  0  0  0  0  0
  193.2900  175.2800  138.5980 C   0  0  0  0  0  2  0  0  0  0  0  0
  194.7700  175.4810  138.7720 C   0  0  0  0  0  2  0  0  0  0  0  0
  195.4020  174.1940  138.7680 N   0  0  0  0  0  2  0  0  0  0  0  0
  196.8360  174.3810  138.9640 C   0  0  0  0  0  2  0  0  0  0  0  0
  197.3420  174.7180  136.5110 C   0  0  0  0  0  2  0  0  0  0  0  0
  197.6390  173.7190  135.3340 C   0  0  0  0  0  2  0  0  0  0  0  0
  199.0790  172.3650  137.0040 C   0  0  0  0  0  2  0  0  0  0  0  0
  197.4310  173.9280  137.7500 C   0  0  1  0  0  3  0  0  0  0  0  0
  198.8820  173.4500  137.9910 C   0  0  0  0  0  2  0  0  0  0  0  0
  198.9590  172.9310  135.6000 C   0  0  1  0  0  3  0  0  0  0  0  0
  198.0990  170.7420  134.7100 N   0  0  0  0  0  1  0  0  0  0  0  0
  199.1330  171.8030  134.5950 C   0  0  0  0  0  2  0  0  0  0  0  0
  188.7060  177.4990  141.2320 C   0  0  0  0  0  0  0  0  0  0  0  0
  189.8450  178.4160  143.1730 C   0  0  0  0  0  0  0  0  0  0  0  0
  189.2160  176.2260  141.6990 C   0  0  0  0  0  3  0  0  0  0  0  0
  190.3140  177.2220  143.6720 C   0  0  0  0  0  0  0  0  0  0  0  0
  189.5750  179.3330  144.1060 F   0  0  0  0  0  0  0  0  0  0  0  0
  189.9330  176.1370  142.9500 C   0  0  0  0  0  3  0  0  0  0  0  0
  189.1400  178.5570  141.9810 C   0  0  0  0  0  3  0  0  0  0  0  0
  190.8350  177.1440  145.0890 C   0  0  0  0  0  2  0  0  0  0  0  0
  188.2750  178.3230  148.0690 N   0  0  0  0  0  0  0  0  0  0  0  0
  190.0910  176.6900  147.5220 C   0  0  0  0  0  2  0  0  0  0  0  0
  188.1980  177.1520  145.8030 C   0  0  0  0  0  2  0  0  0  0  0  0
  189.7510  178.0470  148.1840 C   0  0  0  0  0  2  0  0  0  0  0  0
  189.7220  176.7050  146.0690 C   0  0  1  0  0  3  0  0  0  0  0  0
  187.5530  178.0240  146.9370 C   0  0  0  0  0  0  0  0  0  0  0  0
  185.3560  178.1810  146.0060 O   0  0  0  0  0  0  0  0  0  0  0  0
  185.7660  179.7210  147.5380 O   0  0  0  0  0  1  0  0  0  0  0  0
  186.1590  178.6230  146.7990 C   0  0  0  0  0  0  0  0  0  0  0  0
  184.4990  179.7810  139.3150 C   0  0  0  0  0  2  0  0  0  0  0  0
  181.6490  179.0050  138.9920 C   0  0  1  0  0  3  0  0  0  0  0  0
  182.5650  178.9860  140.0820 C   0  0  0  0  0  2  0  0  0  0  0  0
  183.0640  179.6360  138.8380 N   0  0  0  0  0  0  0  0  0  0  0  0
  181.3520  174.2880  138.2730 N   0  0  0  0  0  0  0  0  0  0  0  0
  179.8030  174.5230  139.9440 O   0  0  0  0  0  0  0  0  0  0  0  0
  180.6540  175.1580  139.2320 C   0  0  0  0  0  0  0  0  0  0  0  0
  182.2680  175.7610  136.6840 O   0  0  0  0  0  0  0  0  0  0  0  0
  180.8410  176.5460  139.4350 N   0  0  0  0  0  2  0  0  0  0  0  0
  181.3580  177.5510  138.4790 C   0  0  1  0  0  3  0  0  0  0  0  0
  181.0440  177.0930  136.7480 S   0  0  0  0  0  0  0  0  0  0  0  0
  182.0670  174.4900  137.2450 C   0  0  0  0  0  0  0  0  0  0  0  0
  182.5020  173.2820  136.4970 C   0  0  0  0  0  2  0  0  0  0  0  0
  184.8230  172.7120  137.5250 C   0  0  0  0  0  1  0  0  0  0  0  0
  183.9740  172.9210  136.3070 C   0  0  0  0  0  3  0  0  0  0  0  0
  184.1700  171.7840  135.2600 C   0  0  0  0  0  1  0  0  0  0  0  0
  2  6  1  0  0  0  0
  4  3  1  6  0  0  0
  4  7  1  0  0  0  0
  5  4  1  0  0  0  0
  5  2  1  0  0  0  0
  6  1  1  0  0  0  0
  6 30  1  1  0  0  0
  7 47  1  6  0  0  0
  7  1  1  0  0  0  0
  9 15  1  0  0  0  0
 10  8  1  0  0  0  0
 10  2  1  0  0  0  0
 11  9  2  0  0  0  0
 11 13  1  0  0  0  0
 12  9  1  0  0  0  0
 13 17  1  0  0  0  0
 13  8  2  0  0  0  0
 14 11  1  0  0  0  0
 15 10  2  0  0  0  0
 16 17  2  0  0  0  0
 17 18  1  0  0  0  0
 18 19  1  0  0  0  0
 20 19  1  0  0  0  0
 20 21  1  0  0  0  0
 22 25  1  0  0  0  0
 23 27  1  0  0  0  0
 23 22  1  0  0  0  0
 24 26  1  0  0  0  0
 25 26  1  0  0  0  0
 25 21  1  1  0  0  0
 27 29  1  6  0  0  0
 27 24  1  0  0  0  0
 29 28  1  0  0  0  0
 30 32  2  0  0  0  0
 30 36  1  0  0  0  0
 31 33  1  0  0  0  0
 31 34  1  0  0  0  0
 32 35  1  0  0  0  0
 33 37  1  0  0  0  0
 35 33  2  0  0  0  0
 36 31  2  0  0  0  0
 38 41  1  0  0  0  0
 39 41  1  0  0  0  0
 40 42  1  0  0  0  0
 40 43  1  0  0  0  0
 42 37  1  6  0  0  0
 42 39  1  0  0  0  0
 43 38  2  0  0  0  0
 44 46  2  0  0  0  0
 46 43  1  0  0  0  0
 46 45  1  0  0  0  0
 48 49  1  1  0  0  0
 50 48  1  0  0  0  0
 50 47  1  0  0  0  0
 50 49  1  0  0  0  0
 51 53  1  0  0  0  0
 53 55  1  0  0  0  0
 53 52  2  0  0  0  0
 54 57  1  0  0  0  0
 54 58  1  0  0  0  0
 56 57  1  6  0  0  0
 56 48  1  0  0  0  0
 56 55  1  0  0  0  0
 58 51  2  0  0  0  0
 59 58  1  0  0  0  0
 61 59  1  0  0  0  0
 61 60  1  0  0  0  0
 62 61  1  0  0  0  0
M  END
>  <MODEL>
4

>  <REMARK>
 VINA RESULT:      -6.3      3.497     10.401
  Name = 
  17 active torsions:
  status: ('A' for Active; 'I' for Inactive)
    1  A    between atoms: C_1  and  N_35
    2  A    between atoms: C_1  and  C_60
    3  A    between atoms: C_2  and  C_49
    4  A    between atoms: C_5  and  C_48
    5  A    between atoms: C_11  and  C_41
    6  A    between atoms: N_14  and  C_17
    7  A    between atoms: N_14  and  C_33
    8  A    between atoms: C_17  and  C_36
    9  A    between atoms: C_18  and  C_29
   10  A    between atoms: N_22  and  C_28
   11  A    between atoms: C_29  and  C_47
   12  A    between atoms: C_33  and  C_52
   13  A    between atoms: C_36  and  C_54
   14  A    between atoms: C_40  and  C_54
   15  A    between atoms: C_41  and  C_62
   16  A    between atoms: C_53  and  C_58
   17  A    between atoms: CA_56  and  C_61
                            x       y       z     vdW  Elec       q    Type
                         _______ _______ _______ _____ _____    ______ ____

>  <TORSDO>
F 17

$$$$
=
 OpenBabel10222418353D

 62 68  0  0  1  0  0  0  0  0999 V2000
  188.9820  177.2330  137.2440 C   0  0  0  0  0  2  0  0  0  0  0  0
  188.7410  177.6000  139.7290 N   0  0  0  0  0  0  0  0  0  0  0  0
  191.8940  175.8340  139.1590 O   0  0  0  0  0  1  0  0  0  0  0  0
  190.5930  176.2320  138.9520 C   0  0  1  0  0  3  0  0  0  0  0  0
  190.2020  177.5010  139.7500 C   0  0  0  0  0  2  0  0  0  0  0  0
  188.0470  177.2360  138.4220 C   0  0  1  0  0  3  0  0  0  0  0  0
  190.2900  176.3790  137.4470 C   0  0  2  0  0  3  0  0  0  0  0  0
  186.9540  178.2800  141.4480 C   0  0  0  0  0  3  0  0  0  0  0  0
  188.2760  177.0230  143.4730 C   0  0  0  0  0  0  0  0  0  0  0  0
  188.1680  177.5850  141.0780 C   0  0  0  0  0  0  0  0  0  0  0  0
  187.1880  177.7470  143.8640 C   0  0  0  0  0  0  0  0  0  0  0  0
  188.9600  176.3640  144.4000 F   0  0  0  0  0  0  0  0  0  0  0  0
  186.4590  178.1920  142.8100 C   0  0  0  0  0  0  0  0  0  0  0  0
  186.8050  177.8750  145.3040 C   0  0  0  0  0  1  0  0  0  0  0  0
  188.6470  176.8010  142.1170 C   0  0  0  0  0  3  0  0  0  0  0  0
  184.1560  177.8700  142.3940 O   0  0  0  0  0  0  0  0  0  0  0  0
  185.0390  178.4240  143.0900 C   0  0  0  0  0  0  0  0  0  0  0  0
  184.6250  179.5040  143.9160 C   0  0  0  0  0  2  0  0  0  0  0  0
  183.1830  179.2500  144.2580 C   0  0  0  0  0  2  0  0  0  0  0  0
  182.4690  179.0020  143.0390 N   0  0  0  0  0  2  0  0  0  0  0  0
  181.0550  179.2830  143.2650 C   0  0  0  0  0  2  0  0  0  0  0  0
  180.8790  179.1080  140.7500 C   0  0  0  0  0  2  0  0  0  0  0  0
  180.6580  180.1740  139.6170 C   0  0  0  0  0  2  0  0  0  0  0  0
  178.9310  181.3030  141.1800 C   0  0  0  0  0  2  0  0  0  0  0  0
  180.5820  179.7910  142.0200 C   0  0  1  0  0  3  0  0  0  0  0  0
  179.0820  180.1580  142.1050 C   0  0  0  0  0  2  0  0  0  0  0  0
  179.2620  180.8550  139.7670 C   0  0  1  0  0  3  0  0  0  0  0  0
  180.4200  182.4590  138.2140 N   0  0  0  0  0  1  0  0  0  0  0  0
  179.1330  182.0460  138.8290 C   0  0  0  0  0  2  0  0  0  0  0  0
  186.5820  177.5150  138.0300 C   0  0  0  0  0  0  0  0  0  0  0  0
  184.7580  177.1170  136.4750 C   0  0  0  0  0  0  0  0  0  0  0  0
  185.5940  178.2420  138.7990 C   0  0  0  0  0  3  0  0  0  0  0  0
  183.7800  177.7650  137.1950 C   0  0  0  0  0  0  0  0  0  0  0  0
  184.3150  176.0860  135.7510 F   0  0  0  0  0  0  0  0  0  0  0  0
  184.2100  178.2640  138.3830 C   0  0  0  0  0  3  0  0  0  0  0  0
  186.1010  177.0560  136.8360 C   0  0  0  0  0  3  0  0  0  0  0  0
  182.3220  177.5530  136.8570 C   0  0  0  0  0  2  0  0  0  0  0  0
  179.5530  174.5440  137.1780 N   0  0  0  0  0  0  0  0  0  0  0  0
  180.2490  176.7350  138.1660 C   0  0  0  0  0  2  0  0  0  0  0  0
  182.0390  174.9390  137.5980 C   0  0  0  0  0  2  0  0  0  0  0  0
  179.2980  176.0280  137.1710 C   0  0  0  0  0  2  0  0  0  0  0  0
  181.6800  176.4970  137.7870 C   0  0  1  0  0  3  0  0  0  0  0  0
  180.8190  174.0120  137.2600 C   0  0  0  0  0  0  0  0  0  0  0  0
  181.0820  172.1370  135.8000 O   0  0  0  0  0  0  0  0  0  0  0  0
  181.0170  171.5750  137.9370 O   0  0  0  0  0  1  0  0  0  0  0  0
  180.9950  172.5320  136.9420 C   0  0  0  0  0  0  0  0  0  0  0  0
  191.4930  176.9170  136.5770 C   0  0  0  0  0  2  0  0  0  0  0  0
  192.7510  174.4250  135.5570 C   0  0  1  0  0  3  0  0  0  0  0  0
  191.6200  174.7020  136.3780 C   0  0  0  0  0  2  0  0  0  0  0  0
  192.2840  175.8940  135.7810 N   0  0  0  0  0  0  0  0  0  0  0  0
  196.7880  173.5140  137.9500 N   0  0  0  0  0  0  0  0  0  0  0  0
  195.7100  174.8200  139.4930 O   0  0  0  0  0  0  0  0  0  0  0  0
  195.6180  174.3280  138.3170 C   0  0  0  0  0  0  0  0  0  0  0  0
  196.0630  172.2050  136.1350 O   0  0  0  0  0  0  0  0  0  0  0  0
  194.4780  174.6080  137.5260 N   0  0  0  0  0  2  0  0  0  0  0  0
  193.9220  173.8170  136.4050 C   0  0  1  0  0  3  0  0  0  0  0  0
  194.3070  172.0460  136.5440 S   0  0  0  0  0  0  0  0  0  0  0  0
  197.0340  172.6700  137.0360 C   0  0  0  0  0  0  0  0  0  0  0  0
  198.3560  171.9960  137.0990 C   0  0  0  0  0  2  0  0  0  0  0  0
  197.4810  169.6300  137.7340 C   0  0  0  0  0  1  0  0  0  0  0  0
  198.5070  170.4770  137.0440 C   0  0  0  0  0  3  0  0  0  0  0  0
  198.8050  169.9690  135.6010 C   0  0  0  0  0  1  0  0  0  0  0  0
  1  7  1  0  0  0  0
  1  6  1  0  0  0  0
  2  5  1  0  0  0  0
  2 10  1  0  0  0  0
  4  3  1  6  0  0  0
  4  5  1  0  0  0  0
  6 30  1  6  0  0  0
  6  2  1  0  0  0  0
  7 47  1  6  0  0  0
  7  4  1  0  0  0  0
  8 13  1  0  0  0  0
  9 11  1  0  0  0  0
  9 12  1  0  0  0  0
 10  8  2  0  0  0  0
 10 15  1  0  0  0  0
 11 14  1  0  0  0  0
 13 17  1  0  0  0  0
 13 11  2  0  0  0  0
 15  9  2  0  0  0  0
 16 17  2  0  0  0  0
 17 18  1  0  0  0  0
 18 19  1  0  0  0  0
 20 21  1  0  0  0  0
 20 19  1  0  0  0  0
 22 25  1  0  0  0  0
 23 27  1  0  0  0  0
 23 22  1  0  0  0  0
 24 26  1  0  0  0  0
 25 26  1  0  0  0  0
 25 21  1  1  0  0  0
 27 29  1  6  0  0  0
 27 24  1  0  0  0  0
 28 29  1  0  0  0  0
 30 32  1  0  0  0  0
 31 36  1  0  0  0  0
 31 33  2  0  0  0  0
 33 35  1  0  0  0  0
 34 31  1  0  0  0  0
 35 32  2  0  0  0  0
 36 30  2  0  0  0  0
 37 33  1  0  0  0  0
 38 43  2  0  0  0  0
 40 42  1  0  0  0  0
 41 38  1  0  0  0  0
 41 39  1  0  0  0  0
 42 37  1  6  0  0  0
 42 39  1  0  0  0  0
 43 40  1  0  0  0  0
 44 46  2  0  0  0  0
 46 43  1  0  0  0  0
 46 45  1  0  0  0  0
 48 50  1  0  0  0  0
 48 49  1  1  0  0  0
 48 56  1  0  0  0  0
 50 49  1  0  0  0  0
 50 47  1  0  0  0  0
 51 53  1  0  0  0  0
 53 52  2  0  0  0  0
 54 57  1  0  0  0  0
 54 58  1  0  0  0  0
 55 53  1  0  0  0  0
 56 57  1  1  0  0  0
 56 55  1  0  0  0  0
 58 59  1  0  0  0  0
 58 51  2  0  0  0  0
 61 59  1  0  0  0  0
 61 60  1  0  0  0  0
 62 61  1  0  0  0  0
M  END
>  <MODEL>
5

>  <REMARK>
 VINA RESULT:      -5.7      3.695      9.725
  Name = 
  17 active torsions:
  status: ('A' for Active; 'I' for Inactive)
    1  A    between atoms: C_1  and  N_35
    2  A    between atoms: C_1  and  C_60
    3  A    between atoms: C_2  and  C_49
    4  A    between atoms: C_5  and  C_48
    5  A    between atoms: C_11  and  C_41
    6  A    between atoms: N_14  and  C_17
    7  A    between atoms: N_14  and  C_33
    8  A    between atoms: C_17  and  C_36
    9  A    between atoms: C_18  and  C_29
   10  A    between atoms: N_22  and  C_28
   11  A    between atoms: C_29  and  C_47
   12  A    between atoms: C_33  and  C_52
   13  A    between atoms: C_36  and  C_54
   14  A    between atoms: C_40  and  C_54
   15  A    between atoms: C_41  and  C_62
   16  A    between atoms: C_53  and  C_58
   17  A    between atoms: CA_56  and  C_61
                            x       y       z     vdW  Elec       q    Type
                         _______ _______ _______ _____ _____    ______ ____

>  <TORSDO>
F 17

$$$$
=
 OpenBabel10222418353D

 62 68  0  0  1  0  0  0  0  0999 V2000
  187.9260  177.0340  138.1810 C   0  0  0  0  0  2  0  0  0  0  0  0
  185.5160  177.6440  138.6180 N   0  0  0  0  0  0  0  0  0  0  0  0
  186.0070  177.5460  134.9940 O   0  0  0  0  0  1  0  0  0  0  0  0
  186.3150  177.7190  136.3230 C   0  0  1  0  0  3  0  0  0  0  0  0
  185.2740  177.0910  137.2840 C   0  0  0  0  0  2  0  0  0  0  0  0
  186.9730  177.8280  139.0300 C   0  0  1  0  0  3  0  0  0  0  0  0
  187.7480  177.2370  136.6290 C   0  0  2  0  0  3  0  0  0  0  0  0
  183.5560  177.8860  140.2640 C   0  0  0  0  0  3  0  0  0  0  0  0
  182.6490  180.1310  139.0140 C   0  0  0  0  0  0  0  0  0  0  0  0
  184.3440  178.3510  139.1440 C   0  0  0  0  0  0  0  0  0  0  0  0
  181.8380  179.6620  140.0050 C   0  0  0  0  0  0  0  0  0  0  0  0
  182.2860  181.2350  138.3720 F   0  0  0  0  0  0  0  0  0  0  0  0
  182.4190  178.6660  140.7190 C   0  0  0  0  0  0  0  0  0  0  0  0
  180.5280  180.3130  140.3230 C   0  0  0  0  0  1  0  0  0  0  0  0
  183.9370  179.6050  138.7150 C   0  0  0  0  0  3  0  0  0  0  0  0
  180.7710  178.8740  142.3980 O   0  0  0  0  0  0  0  0  0  0  0  0
  181.9370  178.5240  142.0950 C   0  0  0  0  0  0  0  0  0  0  0  0
  182.8430  178.3040  143.1680 C   0  0  0  0  0  2  0  0  0  0  0  0
  182.8090  179.5450  144.0160 C   0  0  0  0  0  2  0  0  0  0  0  0
  183.7500  179.3850  145.0860 N   0  0  0  0  0  2  0  0  0  0  0  0
  184.9430  178.7290  144.5600 C   0  0  0  0  0  2  0  0  0  0  0  0
  185.4850  179.2120  146.9810 C   0  0  0  0  0  2  0  0  0  0  0  0
  186.8370  179.2900  147.7780 C   0  0  0  0  0  2  0  0  0  0  0  0
  187.6110  177.2160  146.4390 C   0  0  0  0  0  2  0  0  0  0  0  0
  185.8090  178.5950  145.6840 C   0  0  1  0  0  3  0  0  0  0  0  0
  186.2470  177.1230  145.8730 C   0  0  0  0  0  2  0  0  0  0  0  0
  187.5500  177.9020  147.7920 C   0  0  1  0  0  3  0  0  0  0  0  0
  189.9310  177.0950  147.7080 N   0  0  0  0  0  1  0  0  0  0  0  0
  188.9600  178.0190  148.3500 C   0  0  0  0  0  2  0  0  0  0  0  0
  187.5160  178.1120  140.4450 C   0  0  0  0  0  0  0  0  0  0  0  0
  187.8650  177.3130  142.7130 C   0  0  0  0  0  0  0  0  0  0  0  0
  188.2840  179.2630  140.8720 C   0  0  0  0  0  3  0  0  0  0  0  0
  188.6330  178.3700  143.1470 C   0  0  0  0  0  0  0  0  0  0  0  0
  188.1620  176.1450  143.2890 F   0  0  0  0  0  0  0  0  0  0  0  0
  188.8800  179.3000  142.1890 C   0  0  0  0  0  3  0  0  0  0  0  0
  187.2780  177.2210  141.4540 C   0  0  0  0  0  3  0  0  0  0  0  0
  189.4310  178.2530  144.4250 C   0  0  0  0  0  2  0  0  0  0  0  0
  192.2130  175.9160  142.5230 N   0  0  0  0  0  0  0  0  0  0  0  0
  191.5630  176.8320  144.7600 C   0  0  0  0  0  2  0  0  0  0  0  0
  191.5160  178.3670  142.6640 C   0  0  0  0  0  2  0  0  0  0  0  0
  191.4860  175.6150  143.8070 C   0  0  0  0  0  2  0  0  0  0  0  0
  190.9330  178.0360  144.1280 C   0  0  1  0  0  3  0  0  0  0  0  0
  192.1540  177.1470  141.9110 C   0  0  0  0  0  0  0  0  0  0  0  0
  193.8280  177.1320  140.2040 O   0  0  0  0  0  1  0  0  0  0  0  0
  191.7980  177.5480  139.4310 O   0  0  0  0  0  0  0  0  0  0  0  0
  192.6540  177.2570  140.4760 C   0  0  0  0  0  0  0  0  0  0  0  0
  188.2130  175.9730  135.8050 C   0  0  0  0  0  2  0  0  0  0  0  0
  190.9100  175.4410  134.6750 C   0  0  1  0  0  3  0  0  0  0  0  0
  189.8480  174.6140  135.1420 C   0  0  0  0  0  2  0  0  0  0  0  0
  189.5440  176.0710  135.0800 N   0  0  0  0  0  0  0  0  0  0  0  0
  195.1630  175.2630  136.8510 N   0  0  0  0  0  0  0  0  0  0  0  0
  195.2100  177.4220  136.0860 O   0  0  0  0  0  0  0  0  0  0  0  0
  194.5140  176.3500  136.1010 C   0  0  0  0  0  0  0  0  0  0  0  0
  193.4330  173.7380  137.3150 O   0  0  0  0  0  0  0  0  0  0  0  0
  193.2720  176.3100  135.4220 N   0  0  0  0  0  2  0  0  0  0  0  0
  192.1140  175.4250  135.6800 C   0  0  1  0  0  3  0  0  0  0  0  0
  192.0280  174.8760  137.4110 S   0  0  0  0  0  0  0  0  0  0  0  0
  194.7740  174.1520  137.3250 C   0  0  0  0  0  0  0  0  0  0  0  0
  195.7700  173.3910  138.1210 C   0  0  0  0  0  2  0  0  0  0  0  0
  197.9760  174.5290  137.3420 C   0  0  0  0  0  1  0  0  0  0  0  0
  197.1540  173.9470  138.4510 C   0  0  0  0  0  3  0  0  0  0  0  0
  197.1320  174.8720  139.7050 C   0  0  0  0  0  1  0  0  0  0  0  0
  1  6  1  0  0  0  0
  2  6  1  0  0  0  0
  2 10  1  0  0  0  0
  4  3  1  6  0  0  0
  4  7  1  0  0  0  0
  4  5  1  0  0  0  0
  5  2  1  0  0  0  0
  6 30  1  1  0  0  0
  7 47  1  6  0  0  0
  7  1  1  0  0  0  0
  8 13  1  0  0  0  0
  9 11  1  0  0  0  0
 10  8  2  0  0  0  0
 11 14  1  0  0  0  0
 11 13  2  0  0  0  0
 12  9  1  0  0  0  0
 13 17  1  0  0  0  0
 15  9  2  0  0  0  0
 15 10  1  0  0  0  0
 17 16  2  0  0  0  0
 17 18  1  0  0  0  0
 18 19  1  0  0  0  0
 19 20  1  0  0  0  0
 21 20  1  0  0  0  0
 22 23  1  0  0  0  0
 23 27  1  0  0  0  0
 24 27  1  0  0  0  0
 25 21  1  6  0  0  0
 25 26  1  0  0  0  0
 25 22  1  0  0  0  0
 26 24  1  0  0  0  0
 27 29  1  6  0  0  0
 28 29  1  0  0  0  0
 30 32  2  0  0  0  0
 30 36  1  0  0  0  0
 31 33  1  0  0  0  0
 31 34  1  0  0  0  0
 32 35  1  0  0  0  0
 33 37  1  0  0  0  0
 35 33  2  0  0  0  0
 36 31  2  0  0  0  0
 38 41  1  0  0  0  0
 40 42  1  0  0  0  0
 41 39  1  0  0  0  0
 42 37  1  6  0  0  0
 42 39  1  0  0  0  0
 43 38  2  0  0  0  0
 43 40  1  0  0  0  0
 44 46  1  0  0  0  0
 45 46  2  0  0  0  0
 46 43  1  0  0  0  0
 48 50  1  0  0  0  0
 48 49  1  1  0  0  0
 48 56  1  0  0  0  0
 50 49  1  0  0  0  0
 50 47  1  0  0  0  0
 51 58  2  0  0  0  0
 52 53  2  0  0  0  0
 53 51  1  0  0  0  0
 54 58  1  0  0  0  0
 54 57  1  0  0  0  0
 55 53  1  0  0  0  0
 56 55  1  1  0  0  0
 56 57  1  0  0  0  0
 58 59  1  0  0  0  0
 59 61  1  0  0  0  0
 60 61  1  0  0  0  0
 61 62  1  0  0  0  0
M  END
>  <MODEL>
6

>  <REMARK>
 VINA RESULT:      -5.7      2.955      8.286
  Name = 
  17 active torsions:
  status: ('A' for Active; 'I' for Inactive)
    1  A    between atoms: C_1  and  N_35
    2  A    between atoms: C_1  and  C_60
    3  A    between atoms: C_2  and  C_49
    4  A    between atoms: C_5  and  C_48
    5  A    between atoms: C_11  and  C_41
    6  A    between atoms: N_14  and  C_17
    7  A    between atoms: N_14  and  C_33
    8  A    between atoms: C_17  and  C_36
    9  A    between atoms: C_18  and  C_29
   10  A    between atoms: N_22  and  C_28
   11  A    between atoms: C_29  and  C_47
   12  A    between atoms: C_33  and  C_52
   13  A    between atoms: C_36  and  C_54
   14  A    between atoms: C_40  and  C_54
   15  A    between atoms: C_41  and  C_62
   16  A    between atoms: C_53  and  C_58
   17  A    between atoms: CA_56  and  C_61
                            x       y       z     vdW  Elec       q    Type
                         _______ _______ _______ _____ _____    ______ ____

>  <TORSDO>
F 17

$$$$
=
 OpenBabel10222418353D

 62 68  0  0  1  0  0  0  0  0999 V2000
  185.2290  177.5730  137.1050 C   0  0  0  0  0  2  0  0  0  0  0  0
  184.5250  178.5580  139.3190 N   0  0  0  0  0  0  0  0  0  0  0  0
  188.1750  178.7140  139.1350 O   0  0  0  0  0  1  0  0  0  0  0  0
  186.9010  178.2470  138.9130 C   0  0  1  0  0  3  0  0  0  0  0  0
  185.7980  179.2800  139.2510 C   0  0  0  0  0  2  0  0  0  0  0  0
  184.3010  177.4630  138.2820 C   0  0  1  0  0  3  0  0  0  0  0  0
  186.7540  177.6920  137.4810 C   0  0  2  0  0  3  0  0  0  0  0  0
  184.6150  178.8580  141.8710 C   0  0  0  0  0  3  0  0  0  0  0  0
  181.9110  178.6110  142.0990 C   0  0  0  0  0  0  0  0  0  0  0  0
  183.8870  178.6870  140.6330 C   0  0  0  0  0  0  0  0  0  0  0  0
  182.5800  178.6770  143.2850 C   0  0  0  0  0  0  0  0  0  0  0  0
  180.5870  178.5120  142.1260 F   0  0  0  0  0  0  0  0  0  0  0  0
  183.8900  178.9890  143.1220 C   0  0  0  0  0  0  0  0  0  0  0  0
  181.8680  178.5610  144.5960 C   0  0  0  0  0  1  0  0  0  0  0  0
  182.5180  178.7910  140.8240 C   0  0  0  0  0  3  0  0  0  0  0  0
  184.2770  180.8620  144.5090 O   0  0  0  0  0  0  0  0  0  0  0  0
  184.5170  179.6550  144.2670 C   0  0  0  0  0  0  0  0  0  0  0  0
  185.6360  179.0770  144.9250 C   0  0  0  0  0  2  0  0  0  0  0  0
  185.1770  177.7500  145.4610 C   0  0  0  0  0  2  0  0  0  0  0  0
  186.2940  177.1070  146.0910 N   0  0  0  0  0  2  0  0  0  0  0  0
  187.1220  178.1300  146.7210 C   0  0  0  0  0  2  0  0  0  0  0  0
  189.1580  177.8990  145.2400 C   0  0  0  0  0  2  0  0  0  0  0  0
  190.3510  176.8770  145.2160 C   0  0  0  0  0  2  0  0  0  0  0  0
  190.3670  177.0140  147.8000 C   0  0  0  0  0  2  0  0  0  0  0  0
  188.4620  177.6870  146.5200 C   0  0  1  0  0  3  0  0  0  0  0  0
  189.3650  178.0980  147.7070 C   0  0  0  0  0  2  0  0  0  0  0  0
  191.1920  176.9810  146.5250 C   0  0  1  0  0  3  0  0  0  0  0  0
  192.6000  175.5200  148.0110 N   0  0  0  0  0  1  0  0  0  0  0  0
  192.1990  175.8440  146.6180 C   0  0  0  0  0  2  0  0  0  0  0  0
  182.9750  176.7530  137.9420 C   0  0  0  0  0  0  0  0  0  0  0  0
  181.6530  174.7160  138.0250 C   0  0  0  0  0  0  0  0  0  0  0  0
  181.7740  177.3550  137.4020 C   0  0  0  0  0  3  0  0  0  0  0  0
  180.4790  175.2590  137.5520 C   0  0  0  0  0  0  0  0  0  0  0  0
  181.4850  173.7090  138.8860 F   0  0  0  0  0  0  0  0  0  0  0  0
  180.5490  176.5930  137.3080 C   0  0  0  0  0  3  0  0  0  0  0  0
  182.8550  175.4070  138.1460 C   0  0  0  0  0  3  0  0  0  0  0  0
  179.1790  174.5030  137.7030 C   0  0  0  0  0  2  0  0  0  0  0  0
  181.0820  172.4610  134.6990 N   0  0  0  0  0  0  0  0  0  0  0  0
  178.9660  173.6710  135.2660 C   0  0  0  0  0  2  0  0  0  0  0  0
  180.0080  172.0070  136.9680 C   0  0  0  0  0  2  0  0  0  0  0  0
  180.3570  173.7780  134.5970 C   0  0  0  0  0  2  0  0  0  0  0  0
  179.1050  173.3160  136.7160 C   0  0  1  0  0  3  0  0  0  0  0  0
  181.0300  171.6740  135.8260 C   0  0  0  0  0  0  0  0  0  0  0  0
  182.7310  170.4110  136.9350 O   0  0  0  0  0  1  0  0  0  0  0  0
  182.2320  169.6280  134.9290 O   0  0  0  0  0  0  0  0  0  0  0  0
  182.0360  170.5370  135.9500 C   0  0  0  0  0  0  0  0  0  0  0  0
  187.5800  178.4680  136.3810 C   0  0  0  0  0  2  0  0  0  0  0  0
  189.2020  176.2890  135.1750 C   0  0  1  0  0  3  0  0  0  0  0  0
  188.0150  176.3240  135.9620 C   0  0  0  0  0  2  0  0  0  0  0  0
  188.5310  177.6510  135.5240 N   0  0  0  0  0  0  0  0  0  0  0  0
  193.1100  175.6940  137.8630 N   0  0  0  0  0  0  0  0  0  0  0  0
  191.5910  176.2120  139.4980 O   0  0  0  0  0  0  0  0  0  0  0  0
  191.7380  176.0710  138.2360 C   0  0  0  0  0  0  0  0  0  0  0  0
  192.9240  174.8310  135.6810 O   0  0  0  0  0  0  0  0  0  0  0  0
  190.6380  176.2940  137.3730 N   0  0  0  0  0  2  0  0  0  0  0  0
  190.4140  175.7530  136.0130 C   0  0  1  0  0  3  0  0  0  0  0  0
  191.2450  174.1570  135.7540 S   0  0  0  0  0  0  0  0  0  0  0  0
  193.6520  175.2300  136.8140 C   0  0  0  0  0  0  0  0  0  0  0  0
  195.0950  174.8940  136.9110 C   0  0  0  0  0  2  0  0  0  0  0  0
  195.6970  174.8560  139.4420 C   0  0  0  0  0  1  0  0  0  0  0  0
  195.6880  174.1620  138.1130 C   0  0  0  0  0  3  0  0  0  0  0  0
  195.1650  172.6980  138.2260 C   0  0  0  0  0  1  0  0  0  0  0  0
  1  7  1  0  0  0  0
  1  6  1  0  0  0  0
  2 10  1  0  0  0  0
  4  3  1  6  0  0  0
  4  5  1  0  0  0  0
  5  2  1  0  0  0  0
  6 30  1  6  0  0  0
  6  2  1  0  0  0  0
  7 47  1  6  0  0  0
  7  4  1  0  0  0  0
  8 13  1  0  0  0  0
  9 12  1  0  0  0  0
  9 11  1  0  0  0  0
 10 15  1  0  0  0  0
 10  8  2  0  0  0  0
 11 14  1  0  0  0  0
 13 11  2  0  0  0  0
 13 17  1  0  0  0  0
 15  9  2  0  0  0  0
 17 16  2  0  0  0  0
 17 18  1  0  0  0  0
 18 19  1  0  0  0  0
 19 20  1  0  0  0  0
 20 21  1  0  0  0  0
 22 25  1  0  0  0  0
 23 22  1  0  0  0  0
 23 27  1  0  0  0  0
 25 21  1  6  0  0  0
 25 26  1  0  0  0  0
 26 24  1  0  0  0  0
 27 29  1  1  0  0  0
 27 24  1  0  0  0  0
 29 28  1  0  0  0  0
 30 36  1  0  0  0  0
 31 36  2  0  0  0  0
 31 34  1  0  0  0  0
 32 30  2  0  0  0  0
 33 37  1  0  0  0  0
 33 31  1  0  0  0  0
 35 32  1  0  0  0  0
 35 33  2  0  0  0  0
 38 43  2  0  0  0  0
 39 42  1  0  0  0  0
 41 38  1  0  0  0  0
 41 39  1  0  0  0  0
 42 40  1  0  0  0  0
 42 37  1  1  0  0  0
 43 46  1  0  0  0  0
 43 40  1  0  0  0  0
 45 46  2  0  0  0  0
 46 44  1  0  0  0  0
 48 50  1  0  0  0  0
 48 49  1  1  0  0  0
 48 56  1  0  0  0  0
 50 49  1  0  0  0  0
 50 47  1  0  0  0  0
 51 53  1  0  0  0  0
 53 52  2  0  0  0  0
 54 57  1  0  0  0  0
 54 58  1  0  0  0  0
 55 53  1  0  0  0  0
 56 57  1  1  0  0  0
 56 55  1  0  0  0  0
 58 59  1  0  0  0  0
 58 51  2  0  0  0  0
 59 61  1  0  0  0  0
 61 62  1  0  0  0  0
 61 60  1  0  0  0  0
M  END
>  <MODEL>
7

>  <REMARK>
 VINA RESULT:      -5.5      3.101      9.202
  Name = 
  17 active torsions:
  status: ('A' for Active; 'I' for Inactive)
    1  A    between atoms: C_1  and  N_35
    2  A    between atoms: C_1  and  C_60
    3  A    between atoms: C_2  and  C_49
    4  A    between atoms: C_5  and  C_48
    5  A    between atoms: C_11  and  C_41
    6  A    between atoms: N_14  and  C_17
    7  A    between atoms: N_14  and  C_33
    8  A    between atoms: C_17  and  C_36
    9  A    between atoms: C_18  and  C_29
   10  A    between atoms: N_22  and  C_28
   11  A    between atoms: C_29  and  C_47
   12  A    between atoms: C_33  and  C_52
   13  A    between atoms: C_36  and  C_54
   14  A    between atoms: C_40  and  C_54
   15  A    between atoms: C_41  and  C_62
   16  A    between atoms: C_53  and  C_58
   17  A    between atoms: CA_56  and  C_61
                            x       y       z     vdW  Elec       q    Type
                         _______ _______ _______ _____ _____    ______ ____

>  <TORSDO>
F 17

$$$$
=
 OpenBabel10222418353D

 62 68  0  0  1  0  0  0  0  0999 V2000
  185.8720  178.5850  142.6280 C   0  0  0  0  0  2  0  0  0  0  0  0
  185.0110  178.5120  140.2570 N   0  0  0  0  0  0  0  0  0  0  0  0
  182.1200  178.4860  142.4970 O   0  0  0  0  0  1  0  0  0  0  0  0
  183.4040  178.2570  142.0620 C   0  0  1  0  0  3  0  0  0  0  0  0
  183.7950  179.0990  140.8220 C   0  0  0  0  0  2  0  0  0  0  0  0
  186.0600  178.0200  141.2480 C   0  0  1  0  0  3  0  0  0  0  0  0
  184.4180  178.4180  143.2130 C   0  0  2  0  0  3  0  0  0  0  0  0
  185.8380  178.1800  137.8450 C   0  0  0  0  0  3  0  0  0  0  0  0
  183.4060  177.2610  137.0280 C   0  0  0  0  0  0  0  0  0  0  0  0
  184.8220  178.0770  138.8700 C   0  0  0  0  0  0  0  0  0  0  0  0
  184.3160  177.4370  136.0280 C   0  0  0  0  0  0  0  0  0  0  0  0
  182.2040  176.7940  136.7130 F   0  0  0  0  0  0  0  0  0  0  0  0
  185.5570  177.7090  136.5010 C   0  0  0  0  0  0  0  0  0  0  0  0
  183.9630  177.1940  134.5940 C   0  0  0  0  0  1  0  0  0  0  0  0
  183.7010  177.4010  138.4140 C   0  0  0  0  0  3  0  0  0  0  0  0
  187.1980  178.1750  134.8670 O   0  0  0  0  0  0  0  0  0  0  0  0
  186.6590  177.3250  135.6140 C   0  0  0  0  0  0  0  0  0  0  0  0
  186.9280  175.9580  135.3340 C   0  0  0  0  0  2  0  0  0  0  0  0
  187.4500  175.3550  136.6090 C   0  0  0  0  0  2  0  0  0  0  0  0
  186.8150  174.0830  136.7970 N   0  0  0  0  0  2  0  0  0  0  0  0
  186.5140  173.5160  135.4870 C   0  0  0  0  0  2  0  0  0  0  0  0
  185.0730  171.4550  135.7430 C   0  0  0  0  0  2  0  0  0  0  0  0
  183.5730  171.1500  135.3890 C   0  0  0  0  0  2  0  0  0  0  0  0
  183.0050  173.5140  136.2760 C   0  0  0  0  0  2  0  0  0  0  0  0
  185.2300  172.9150  135.6370 C   0  0  1  0  0  3  0  0  0  0  0  0
  184.4070  173.6350  136.7310 C   0  0  0  0  0  2  0  0  0  0  0  0
  182.6140  172.0470  136.2310 C   0  0  1  0  0  3  0  0  0  0  0  0
  180.5840  170.5890  135.9480 N   0  0  0  0  0  1  0  0  0  0  0  0
  181.1810  171.9330  135.7330 C   0  0  0  0  0  2  0  0  0  0  0  0
  187.5220  177.6310  140.9490 C   0  0  0  0  0  0  0  0  0  0  0  0
  189.4040  177.7330  139.4150 C   0  0  0  0  0  0  0  0  0  0  0  0
  188.4560  176.9810  141.8450 C   0  0  0  0  0  3  0  0  0  0  0  0
  190.3330  177.1560  140.2510 C   0  0  0  0  0  0  0  0  0  0  0  0
  189.9100  178.6330  138.5690 F   0  0  0  0  0  0  0  0  0  0  0  0
  189.8480  176.8470  141.4820 C   0  0  0  0  0  3  0  0  0  0  0  0
  188.0550  177.8970  139.7190 C   0  0  0  0  0  3  0  0  0  0  0  0
  191.8070  177.2610  139.9350 C   0  0  0  0  0  2  0  0  0  0  0  0
  192.3670  176.0870  136.0460 N   0  0  0  0  0  0  0  0  0  0  0  0
  191.1840  175.4830  138.1670 C   0  0  0  0  0  2  0  0  0  0  0  0
  193.6740  176.2230  138.2330 C   0  0  0  0  0  2  0  0  0  0  0  0
  191.0640  176.1890  136.7940 C   0  0  0  0  0  2  0  0  0  0  0  0
  192.2590  176.1200  138.9950 C   0  0  1  0  0  3  0  0  0  0  0  0
  193.5880  176.2120  136.6660 C   0  0  0  0  0  0  0  0  0  0  0  0
  194.7540  177.0000  134.7330 O   0  0  0  0  0  0  0  0  0  0  0  0
  196.0490  175.8910  136.1400 O   0  0  0  0  0  1  0  0  0  0  0  0
  194.8190  176.4110  135.7900 C   0  0  0  0  0  0  0  0  0  0  0  0
  184.0630  179.5490  144.2570 C   0  0  0  0  0  2  0  0  0  0  0  0
  185.5680  179.5290  146.8190 C   0  0  1  0  0  3  0  0  0  0  0  0
  185.5970  180.3530  145.6570 C   0  0  0  0  0  2  0  0  0  0  0  0
  184.5120  179.3330  145.6910 N   0  0  0  0  0  0  0  0  0  0  0  0
  189.9350  177.6550  147.3430 N   0  0  0  0  0  0  0  0  0  0  0  0
  189.2830  177.7360  149.5380 O   0  0  0  0  0  0  0  0  0  0  0  0
  188.9220  178.0210  148.3450 C   0  0  0  0  0  0  0  0  0  0  0  0
  188.7700  177.6130  145.2990 O   0  0  0  0  0  0  0  0  0  0  0  0
  187.6670  178.6360  148.1200 N   0  0  0  0  0  2  0  0  0  0  0  0
  186.8430  178.6180  146.8910 C   0  0  1  0  0  3  0  0  0  0  0  0
  187.1270  177.1300  145.8850 S   0  0  0  0  0  0  0  0  0  0  0  0
  189.9330  177.5240  146.0810 C   0  0  0  0  0  0  0  0  0  0  0  0
  191.1920  177.0290  145.4680 C   0  0  0  0  0  2  0  0  0  0  0  0
  192.0980  174.8160  144.4430 C   0  0  0  0  0  1  0  0  0  0  0  0
  191.6880  175.5970  145.6560 C   0  0  0  0  0  3  0  0  0  0  0  0
  192.7370  175.4830  146.8020 C   0  0  0  0  0  1  0  0  0  0  0  0
  1  7  1  0  0  0  0
  2  5  1  0  0  0  0
  2  6  1  0  0  0  0
  4  3  1  1  0  0  0
  4  7  1  0  0  0  0
  5  4  1  0  0  0  0
  6 30  1  6  0  0  0
  6  1  1  0  0  0  0
  7 47  1  6  0  0  0
  8 10  1  0  0  0  0
  9 15  1  0  0  0  0
 10  2  1  0  0  0  0
 11 13  1  0  0  0  0
 11  9  2  0  0  0  0
 12  9  1  0  0  0  0
 13  8  2  0  0  0  0
 14 11  1  0  0  0  0
 15 10  2  0  0  0  0
 16 17  2  0  0  0  0
 17 13  1  0  0  0  0
 18 17  1  0  0  0  0
 18 19  1  0  0  0  0
 19 20  1  0  0  0  0
 21 20  1  0  0  0  0
 23 22  1  0  0  0  0
 23 27  1  0  0  0  0
 24 26  1  0  0  0  0
 25 21  1  1  0  0  0
 25 22  1  0  0  0  0
 25 26  1  0  0  0  0
 27 29  1  6  0  0  0
 27 24  1  0  0  0  0
 29 28  1  0  0  0  0
 30 32  1  0  0  0  0
 31 36  1  0  0  0  0
 31 33  2  0  0  0  0
 33 35  1  0  0  0  0
 34 31  1  0  0  0  0
 35 32  2  0  0  0  0
 36 30  2  0  0  0  0
 37 33  1  0  0  0  0
 38 43  2  0  0  0  0
 38 41  1  0  0  0  0
 39 42  1  0  0  0  0
 40 42  1  0  0  0  0
 41 39  1  0  0  0  0
 42 37  1  6  0  0  0
 43 40  1  0  0  0  0
 44 46  2  0  0  0  0
 46 45  1  0  0  0  0
 46 43  1  0  0  0  0
 47 50  1  0  0  0  0
 48 49  1  6  0  0  0
 48 56  1  0  0  0  0
 49 50  1  0  0  0  0
 50 48  1  0  0  0  0
 51 53  1  0  0  0  0
 53 52  2  0  0  0  0
 54 57  1  0  0  0  0
 54 58  1  0  0  0  0
 55 53  1  0  0  0  0
 56 57  1  1  0  0  0
 56 55  1  0  0  0  0
 58 51  2  0  0  0  0
 59 61  1  0  0  0  0
 59 58  1  0  0  0  0
 60 61  1  0  0  0  0
 61 62  1  0  0  0  0
M  END
>  <MODEL>
8

>  <REMARK>
 VINA RESULT:      -5.4      2.062      3.325
  Name = 
  17 active torsions:
  status: ('A' for Active; 'I' for Inactive)
    1  A    between atoms: C_1  and  N_35
    2  A    between atoms: C_1  and  C_60
    3  A    between atoms: C_2  and  C_49
    4  A    between atoms: C_5  and  C_48
    5  A    between atoms: C_11  and  C_41
    6  A    between atoms: N_14  and  C_17
    7  A    between atoms: N_14  and  C_33
    8  A    between atoms: C_17  and  C_36
    9  A    between atoms: C_18  and  C_29
   10  A    between atoms: N_22  and  C_28
   11  A    between atoms: C_29  and  C_47
   12  A    between atoms: C_33  and  C_52
   13  A    between atoms: C_36  and  C_54
   14  A    between atoms: C_40  and  C_54
   15  A    between atoms: C_41  and  C_62
   16  A    between atoms: C_53  and  C_58
   17  A    between atoms: CA_56  and  C_61
                            x       y       z     vdW  Elec       q    Type
                         _______ _______ _______ _____ _____    ______ ____

>  <TORSDO>
F 17

$$$$
=
 OpenBabel10222418353D

 62 68  0  0  1  0  0  0  0  0999 V2000
  183.7110  178.2390  141.8160 C   0  0  0  0  0  2  0  0  0  0  0  0
  185.4030  177.7650  140.0050 N   0  0  0  0  0  0  0  0  0  0  0  0
  186.8490  180.2520  142.2650 O   0  0  0  0  0  1  0  0  0  0  0  0
  185.8830  179.5580  141.5750 C   0  0  1  0  0  3  0  0  0  0  0  0
  186.3860  178.2140  140.9930 C   0  0  0  0  0  2  0  0  0  0  0  0
  183.9340  177.9830  140.3520 C   0  0  1  0  0  3  0  0  0  0  0  0
  184.6110  179.3780  142.4290 C   0  0  2  0  0  3  0  0  0  0  0  0
  186.3310  176.3340  138.0820 C   0  0  0  0  0  3  0  0  0  0  0  0
  187.0000  178.5380  136.6270 C   0  0  0  0  0  0  0  0  0  0  0  0
  185.9910  177.6100  138.6710 C   0  0  0  0  0  0  0  0  0  0  0  0
  187.4160  177.3540  136.0930 C   0  0  0  0  0  0  0  0  0  0  0  0
  187.2690  179.6570  135.9640 F   0  0  0  0  0  0  0  0  0  0  0  0
  186.8980  176.2840  136.7460 C   0  0  0  0  0  0  0  0  0  0  0  0
  188.2250  177.3000  134.8360 C   0  0  0  0  0  1  0  0  0  0  0  0
  186.1650  178.6520  137.7740 C   0  0  0  0  0  3  0  0  0  0  0  0
  185.8550  174.9520  135.0980 O   0  0  0  0  0  0  0  0  0  0  0  0
  186.7750  175.0650  135.9430 C   0  0  0  0  0  0  0  0  0  0  0  0
  187.4630  173.8760  136.3080 C   0  0  0  0  0  2  0  0  0  0  0  0
  188.0360  173.3080  135.0400 C   0  0  0  0  0  2  0  0  0  0  0  0
  189.3600  173.8310  134.8700 N   0  0  0  0  0  2  0  0  0  0  0  0
  190.1780  173.4000  135.9980 C   0  0  0  0  0  2  0  0  0  0  0  0
  192.4450  173.2400  134.8930 C   0  0  0  0  0  2  0  0  0  0  0  0
  193.8510  173.8490  135.2440 C   0  0  0  0  0  2  0  0  0  0  0  0
  192.6170  176.0400  135.8570 C   0  0  0  0  0  2  0  0  0  0  0  0
  191.4700  173.9450  135.7410 C   0  0  1  0  0  3  0  0  0  0  0  0
  191.3710  175.4350  135.3370 C   0  0  0  0  0  2  0  0  0  0  0  0
  193.8120  175.4070  135.1660 C   0  0  1  0  0  3  0  0  0  0  0  0
  196.1500  176.2110  134.7100 N   0  0  0  0  0  1  0  0  0  0  0  0
  195.0870  176.0140  135.7290 C   0  0  0  0  0  2  0  0  0  0  0  0
  182.7060  177.3690  139.6520 C   0  0  0  0  0  0  0  0  0  0  0  0
  181.2320  175.4550  139.3890 C   0  0  0  0  0  0  0  0  0  0  0  0
  181.7790  178.0390  138.7640 C   0  0  0  0  0  3  0  0  0  0  0  0
  180.3050  176.0670  138.5750 C   0  0  0  0  0  0  0  0  0  0  0  0
  180.7240  174.5120  140.1860 F   0  0  0  0  0  0  0  0  0  0  0  0
  180.5700  177.3770  138.3290 C   0  0  0  0  0  3  0  0  0  0  0  0
  182.4050  176.0500  139.8450 C   0  0  0  0  0  3  0  0  0  0  0  0
  178.9520  175.4310  138.3520 C   0  0  0  0  0  2  0  0  0  0  0  0
  181.2100  173.8780  135.3010 N   0  0  0  0  0  0  0  0  0  0  0  0
  179.0900  175.1140  135.7910 C   0  0  0  0  0  2  0  0  0  0  0  0
  179.7690  173.0710  137.2460 C   0  0  0  0  0  2  0  0  0  0  0  0
  180.5730  175.2410  135.3680 C   0  0  0  0  0  2  0  0  0  0  0  0
  178.9800  174.4710  137.1410 C   0  0  1  0  0  3  0  0  0  0  0  0
  180.9430  172.8910  136.2210 C   0  0  0  0  0  0  0  0  0  0  0  0
  181.7640  170.7860  135.4360 O   0  0  0  0  0  0  0  0  0  0  0  0
  182.8160  171.5140  137.2390 O   0  0  0  0  0  1  0  0  0  0  0  0
  181.8620  171.6760  136.2530 C   0  0  0  0  0  0  0  0  0  0  0  0
  184.8720  179.1660  143.9720 C   0  0  0  0  0  2  0  0  0  0  0  0
  186.7810  177.1830  145.0920 C   0  0  1  0  0  3  0  0  0  0  0  0
  186.4850  178.5470  145.3780 C   0  0  0  0  0  2  0  0  0  0  0  0
  185.5890  177.8920  144.3840 N   0  0  0  0  0  0  0  0  0  0  0  0
  191.1080  177.8150  143.1600 N   0  0  0  0  0  0  0  0  0  0  0  0
  191.6890  177.6740  145.3710 O   0  0  0  0  0  0  0  0  0  0  0  0
  190.6970  177.6710  144.5650 C   0  0  0  0  0  0  0  0  0  0  0  0
  189.2540  177.0760  141.9130 O   0  0  0  0  0  0  0  0  0  0  0  0
  189.3810  177.5510  145.0720 N   0  0  0  0  0  2  0  0  0  0  0  0
  188.1720  177.0500  144.3800 C   0  0  1  0  0  3  0  0  0  0  0  0
  188.5670  175.8600  143.0640 S   0  0  0  0  0  0  0  0  0  0  0  0
  190.5370  177.6330  142.0410 C   0  0  0  0  0  0  0  0  0  0  0  0
  191.3810  177.8120  140.8330 C   0  0  0  0  0  2  0  0  0  0  0  0
  190.8040  176.0300  139.0280 C   0  0  0  0  0  1  0  0  0  0  0  0
  190.8870  177.4720  139.4280 C   0  0  0  0  0  3  0  0  0  0  0  0
  189.5920  178.2540  139.0560 C   0  0  0  0  0  1  0  0  0  0  0  0
  1  7  1  0  0  0  0
  2  6  1  0  0  0  0
  2  5  1  0  0  0  0
  4  3  1  1  0  0  0
  4  7  1  0  0  0  0
  5  4  1  0  0  0  0
  6 30  1  1  0  0  0
  6  1  1  0  0  0  0
  7 47  1  1  0  0  0
  8 10  1  0  0  0  0
  9 15  1  0  0  0  0
 10  2  1  0  0  0  0
 11  9  2  0  0  0  0
 11 13  1  0  0  0  0
 12  9  1  0  0  0  0
 13  8  2  0  0  0  0
 14 11  1  0  0  0  0
 15 10  2  0  0  0  0
 16 17  2  0  0  0  0
 17 18  1  0  0  0  0
 17 13  1  0  0  0  0
 19 18  1  0  0  0  0
 20 19  1  0  0  0  0
 20 21  1  0  0  0  0
 22 23  1  0  0  0  0
 22 25  1  0  0  0  0
 25 21  1  6  0  0  0
 26 25  1  0  0  0  0
 26 24  1  0  0  0  0
 27 23  1  0  0  0  0
 27 29  1  1  0  0  0
 27 24  1  0  0  0  0
 28 29  1  0  0  0  0
 30 36  1  0  0  0  0
 31 36  2  0  0  0  0
 31 34  1  0  0  0  0
 32 30  2  0  0  0  0
 33 31  1  0  0  0  0
 35 33  2  0  0  0  0
 35 32  1  0  0  0  0
 37 33  1  0  0  0  0
 38 41  1  0  0  0  0
 38 43  2  0  0  0  0
 39 42  1  0  0  0  0
 41 39  1  0  0  0  0
 42 40  1  0  0  0  0
 42 37  1  1  0  0  0
 43 46  1  0  0  0  0
 43 40  1  0  0  0  0
 44 46  2  0  0  0  0
 46 45  1  0  0  0  0
 47 50  1  0  0  0  0
 48 49  1  1  0  0  0
 50 48  1  0  0  0  0
 50 49  1  0  0  0  0
 51 53  1  0  0  0  0
 53 55  1  0  0  0  0
 53 52  2  0  0  0  0
 54 58  1  0  0  0  0
 54 57  1  0  0  0  0
 56 57  1  1  0  0  0
 56 55  1  0  0  0  0
 56 48  1  0  0  0  0
 58 51  2  0  0  0  0
 59 58  1  0  0  0  0
 60 61  1  0  0  0  0
 61 59  1  0  0  0  0
 62 61  1  0  0  0  0
M  END
>  <MODEL>
9

>  <REMARK>
 VINA RESULT:      -5.1      2.626      6.859
  Name = 
  17 active torsions:
  status: ('A' for Active; 'I' for Inactive)
    1  A    between atoms: C_1  and  N_35
    2  A    between atoms: C_1  and  C_60
    3  A    between atoms: C_2  and  C_49
    4  A    between atoms: C_5  and  C_48
    5  A    between atoms: C_11  and  C_41
    6  A    between atoms: N_14  and  C_17
    7  A    between atoms: N_14  and  C_33
    8  A    between atoms: C_17  and  C_36
    9  A    between atoms: C_18  and  C_29
   10  A    between atoms: N_22  and  C_28
   11  A    between atoms: C_29  and  C_47
   12  A    between atoms: C_33  and  C_52
   13  A    between atoms: C_36  and  C_54
   14  A    between atoms: C_40  and  C_54
   15  A    between atoms: C_41  and  C_62
   16  A    between atoms: C_53  and  C_58
   17  A    between atoms: CA_56  and  C_61
                            x       y       z     vdW  Elec       q    Type
                         _______ _______ _______ _____ _____    ______ ____

>  <TORSDO>
F 17

$$$$
