=
 OpenBabel10222417003D

 30 34  0  0  1  0  0  0  0  0999 V2000
  188.6220  176.7560  143.7440 C   0  0  1  0  0  3  0  0  0  0  0  0
  190.6170  177.4490  141.7250 O   0  0  0  0  0  0  0  0  0  0  0  0
  188.4900  177.8820  142.7330 C   0  0  0  0  0  2  0  0  0  0  0  0
  191.0240  176.5070  142.7180 C   0  0  2  0  0  3  0  0  0  0  0  0
  189.2280  177.4670  141.4840 C   0  0  1  0  0  3  0  0  0  0  0  0
  190.2480  175.3310  142.7150 O   0  0  0  0  0  0  0  0  0  0  0  0
  190.0530  176.1900  143.8230 C   0  0  2  0  0  3  0  0  0  0  0  0
  188.8730  178.3730  140.3010 C   0  0  2  0  0  3  0  0  0  0  0  0
  187.0690  178.2880  140.0660 S   0  0  0  0  0  1  0  0  0  0  0  0
  189.6050  178.0440  138.9810 C   0  0  2  0  0  3  0  0  0  0  0  0
  188.9680  178.6580  137.7820 C   0  0  0  0  0  0  0  0  0  0  0  0
  188.9450  179.8590  137.5760 O   0  0  0  0  0  0  0  0  0  0  0  0
  189.0300  176.3570  137.2640 C   0  0  0  0  0  2  0  0  0  0  0  0
  188.4760  177.6840  136.7850 C   0  0  0  0  0  2  0  0  0  0  0  0
  189.5110  176.5470  138.7000 C   0  0  0  0  0  2  0  0  0  0  0  0
  188.1280  177.2010  145.1260 C   0  0  2  0  0  3  0  0  0  0  0  0
  185.9950  178.2200  146.2500 C   0  0  0  0  0  3  0  0  0  0  0  0
  183.7630  178.8660  145.1000 C   0  0  0  0  0  3  0  0  0  0  0  0
  183.8790  178.5750  143.7750 C   0  0  0  0  0  0  0  0  0  0  0  0
  186.0660  177.7680  143.9660 C   0  0  0  0  0  0  0  0  0  0  0  0
  184.7310  178.7040  146.2420 C   0  0  0  0  0  3  0  0  0  0  0  0
  186.7240  177.7230  145.0680 C   0  0  0  0  0  0  0  0  0  0  0  0
  185.0920  177.9920  143.1580 C   0  0  0  0  0  3  0  0  0  0  0  0
  182.7100  178.6370  141.5690 N   0  0  0  0  0  0  0  0  0  0  0  0
  181.5580  179.3670  143.3190 N   0  0  0  0  0  2  0  0  0  0  0  0
  180.8180  179.4570  142.2260 N   0  0  0  0  0  0  0  0  0  0  0  0
  181.5060  179.0220  141.1820 N   0  0  0  0  0  0  0  0  0  0  0  0
  182.7310  178.8560  142.8970 C   0  0  0  0  0  0  0  0  0  0  0  0
  189.0030  178.2290  145.6750 N   0  0  0  0  0  2  0  0  0  0  0  0
  189.4520  177.7580  146.9740 C   0  0  0  0  0  1  0  0  0  0  0  0
  1  7  1  0  0  0  0
  1 16  1  1  0  0  0
  3  1  1  0  0  0  0
  4  2  1  6  0  0  0
  4  7  1  0  0  0  0
  5  8  1  6  0  0  0
  5  2  1  0  0  0  0
  5  3  1  0  0  0  0
  6  4  1  0  0  0  0
  7  6  1  6  0  0  0
  8  9  1  6  0  0  0
 10  8  1  1  0  0  0
 11 10  1  0  0  0  0
 12 11  2  0  0  0  0
 13 15  1  0  0  0  0
 14 13  1  0  0  0  0
 14 11  1  0  0  0  0
 15 10  1  0  0  0  0
 16 29  1  6  0  0  0
 18 21  1  0  0  0  0
 19 18  2  0  0  0  0
 20 22  2  0  0  0  0
 21 17  2  0  0  0  0
 22 16  1  0  0  0  0
 22 17  1  0  0  0  0
 23 19  1  0  0  0  0
 23 20  2  0  0  0  0
 24 28  2  0  0  0  0
 26 25  1  0  0  0  0
 27 24  1  0  0  0  0
 27 26  2  0  0  0  0
 28 25  1  0  0  0  0
 28 19  1  0  0  0  0
 29 30  1  0  0  0  0
M  END
>  <MODEL>
1

>  <REMARK>
 VINA RESULT:      -9.2      0.000      0.000
  Name = 
  6 active torsions:
  status: ('A' for Active; 'I' for Inactive)
    1  A    between atoms: C_2  and  C_24
    2  A    between atoms: C_3  and  C_15
    3  A    between atoms: C_7  and  C_30
    4  A    between atoms: N_8  and  C_15
    5  A    between atoms: C_15  and  C_16
    6  A    between atoms: C_22  and  C_24
                            x       y       z     vdW  Elec       q    Type
                         _______ _______ _______ _____ _____    ______ ____

>  <TORSDO>
F 6

$$$$
=
 OpenBabel10222417003D

 30 34  0  0  1  0  0  0  0  0999 V2000
  189.1820  176.7250  146.4780 C   0  0  1  0  0  3  0  0  0  0  0  0
  191.9830  177.2110  145.8000 O   0  0  0  0  0  0  0  0  0  0  0  0
  189.6670  177.6150  145.3470 C   0  0  0  0  0  2  0  0  0  0  0  0
  191.7400  176.5250  147.0290 C   0  0  2  0  0  3  0  0  0  0  0  0
  190.9680  177.0430  144.8370 C   0  0  1  0  0  3  0  0  0  0  0  0
  191.0690  175.2990  146.8530 O   0  0  0  0  0  0  0  0  0  0  0  0
  190.3090  176.3310  147.4530 C   0  0  2  0  0  3  0  0  0  0  0  0
  191.3580  177.6610  143.4910 C   0  0  2  0  0  3  0  0  0  0  0  0
  190.5640  179.2980  143.3870 S   0  0  0  0  0  1  0  0  0  0  0  0
  191.0060  176.8100  142.2520 C   0  0  2  0  0  3  0  0  0  0  0  0
  191.4870  177.4030  140.9710 C   0  0  0  0  0  0  0  0  0  0  0  0
  192.6670  177.5020  140.6800 O   0  0  0  0  0  0  0  0  0  0  0  0
  189.1700  177.1250  140.6220 C   0  0  0  0  0  2  0  0  0  0  0  0
  190.4140  177.7420  140.0140 C   0  0  0  0  0  2  0  0  0  0  0  0
  189.4920  176.7680  142.0700 C   0  0  0  0  0  2  0  0  0  0  0  0
  188.0110  177.3770  147.2240 C   0  0  2  0  0  3  0  0  0  0  0  0
  185.6250  178.3300  146.7270 C   0  0  0  0  0  3  0  0  0  0  0  0
  184.5600  178.7860  144.4070 C   0  0  0  0  0  3  0  0  0  0  0  0
  185.4690  178.4330  143.4570 C   0  0  0  0  0  0  0  0  0  0  0  0
  187.0890  177.7640  145.0050 C   0  0  0  0  0  0  0  0  0  0  0  0
  184.6260  178.7400  145.9110 C   0  0  0  0  0  3  0  0  0  0  0  0
  186.9320  177.8140  146.2790 C   0  0  0  0  0  0  0  0  0  0  0  0
  186.8130  177.8890  143.7570 C   0  0  0  0  0  3  0  0  0  0  0  0
  184.0900  177.9500  141.4310 N   0  0  0  0  0  0  0  0  0  0  0  0
  185.7250  179.4300  141.1850 N   0  0  0  0  0  2  0  0  0  0  0  0
  185.0840  179.2750  140.0380 N   0  0  0  0  0  0  0  0  0  0  0  0
  184.1090  178.3920  140.1850 N   0  0  0  0  0  0  0  0  0  0  0  0
  185.0980  178.6010  142.0420 C   0  0  0  0  0  0  0  0  0  0  0  0
  188.4720  178.5240  147.9960 N   0  0  0  0  0  2  0  0  0  0  0  0
  188.1320  178.2680  149.3850 C   0  0  0  0  0  1  0  0  0  0  0  0
  1 16  1  1  0  0  0
  1  7  1  0  0  0  0
  3  1  1  0  0  0  0
  4  2  1  6  0  0  0
  4  7  1  0  0  0  0
  5  8  1  6  0  0  0
  5  3  1  0  0  0  0
  5  2  1  0  0  0  0
  6  4  1  0  0  0  0
  7  6  1  6  0  0  0
  8  9  1  6  0  0  0
 10  8  1  1  0  0  0
 11 10  1  0  0  0  0
 12 11  2  0  0  0  0
 13 15  1  0  0  0  0
 14 13  1  0  0  0  0
 14 11  1  0  0  0  0
 15 10  1  0  0  0  0
 16 29  1  6  0  0  0
 18 21  1  0  0  0  0
 19 23  1  0  0  0  0
 19 18  2  0  0  0  0
 20 22  2  0  0  0  0
 21 17  2  0  0  0  0
 22 17  1  0  0  0  0
 22 16  1  0  0  0  0
 23 20  2  0  0  0  0
 24 28  2  0  0  0  0
 25 28  1  0  0  0  0
 26 27  2  0  0  0  0
 26 25  1  0  0  0  0
 27 24  1  0  0  0  0
 28 19  1  0  0  0  0
 29 30  1  0  0  0  0
M  END
>  <MODEL>
2

>  <REMARK>
 VINA RESULT:      -9.0      2.437      3.318
  Name = 
  6 active torsions:
  status: ('A' for Active; 'I' for Inactive)
    1  A    between atoms: C_2  and  C_24
    2  A    between atoms: C_3  and  C_15
    3  A    between atoms: C_7  and  C_30
    4  A    between atoms: N_8  and  C_15
    5  A    between atoms: C_15  and  C_16
    6  A    between atoms: C_22  and  C_24
                            x       y       z     vdW  Elec       q    Type
                         _______ _______ _______ _____ _____    ______ ____

>  <TORSDO>
F 6

$$$$
=
 OpenBabel10222417003D

 30 34  0  0  1  0  0  0  0  0999 V2000
  183.9100  178.2770  141.1600 C   0  0  1  0  0  3  0  0  0  0  0  0
  183.3280  177.9350  138.3180 O   0  0  0  0  0  0  0  0  0  0  0  0
  182.9570  177.2470  140.5800 C   0  0  0  0  0  2  0  0  0  0  0  0
  184.0760  179.0980  138.6740 C   0  0  2  0  0  3  0  0  0  0  0  0
  183.4740  176.8590  139.2160 C   0  0  1  0  0  3  0  0  0  0  0  0
  185.3080  178.7950  139.2870 O   0  0  0  0  0  0  0  0  0  0  0  0
  184.3230  179.3520  140.1360 C   0  0  2  0  0  3  0  0  0  0  0  0
  182.7840  175.5930  138.6990 C   0  0  2  0  0  3  0  0  0  0  0  0
  183.7420  174.9890  137.2720 S   0  0  0  0  0  1  0  0  0  0  0  0
  181.2980  175.7660  138.3170 C   0  0  2  0  0  3  0  0  0  0  0  0
  180.3820  174.8740  139.0830 C   0  0  0  0  0  0  0  0  0  0  0  0
  180.1820  174.9890  140.2800 O   0  0  0  0  0  0  0  0  0  0  0  0
  179.9030  174.3630  136.8300 C   0  0  0  0  0  2  0  0  0  0  0  0
  179.6260  173.9150  138.2520 C   0  0  0  0  0  2  0  0  0  0  0  0
  181.0840  175.3270  136.8710 C   0  0  0  0  0  2  0  0  0  0  0  0
  183.3210  178.9170  142.4240 C   0  0  2  0  0  3  0  0  0  0  0  0
  183.7340  178.8740  145.0080 C   0  0  0  0  0  3  0  0  0  0  0  0
  185.9120  178.2050  146.2460 C   0  0  0  0  0  3  0  0  0  0  0  0
  186.8390  177.8750  145.3050 C   0  0  0  0  0  0  0  0  0  0  0  0
  185.4090  178.2830  143.5000 C   0  0  0  0  0  0  0  0  0  0  0  0
  184.4840  178.6650  146.1150 C   0  0  0  0  0  3  0  0  0  0  0  0
  184.1930  178.6790  143.6200 C   0  0  0  0  0  0  0  0  0  0  0  0
  186.5890  177.9120  143.8460 C   0  0  0  0  0  3  0  0  0  0  0  0
  189.2410  177.2850  144.9570 N   0  0  0  0  0  0  0  0  0  0  0  0
  188.4910  177.1870  147.0430 N   0  0  0  0  0  2  0  0  0  0  0  0
  189.7700  176.8510  147.0100 N   0  0  0  0  0  0  0  0  0  0  0  0
  190.2170  176.9100  145.7660 N   0  0  0  0  0  0  0  0  0  0  0  0
  188.1740  177.4540  145.7610 C   0  0  0  0  0  0  0  0  0  0  0  0
  181.9860  178.3940  142.6870 N   0  0  0  0  0  2  0  0  0  0  0  0
  181.0680  179.5180  142.6230 C   0  0  0  0  0  1  0  0  0  0  0  0
  1 16  1  1  0  0  0
  2  5  1  0  0  0  0
  3  1  1  0  0  0  0
  4  2  1  1  0  0  0
  4  6  1  0  0  0  0
  4  7  1  0  0  0  0
  5  8  1  6  0  0  0
  5  3  1  0  0  0  0
  7  6  1  6  0  0  0
  7  1  1  0  0  0  0
  8  9  1  6  0  0  0
 10  8  1  1  0  0  0
 10 11  1  0  0  0  0
 11 12  2  0  0  0  0
 13 15  1  0  0  0  0
 13 14  1  0  0  0  0
 14 11  1  0  0  0  0
 15 10  1  0  0  0  0
 16 29  1  1  0  0  0
 16 22  1  0  0  0  0
 17 21  2  0  0  0  0
 19 28  1  0  0  0  0
 19 18  2  0  0  0  0
 20 22  2  0  0  0  0
 20 23  2  0  0  0  0
 21 18  1  0  0  0  0
 22 17  1  0  0  0  0
 23 19  1  0  0  0  0
 24 28  2  0  0  0  0
 24 27  1  0  0  0  0
 26 25  1  0  0  0  0
 27 26  2  0  0  0  0
 28 25  1  0  0  0  0
 30 29  1  0  0  0  0
M  END
>  <MODEL>
3

>  <REMARK>
 VINA RESULT:      -8.5      4.239      7.186
  Name = 
  6 active torsions:
  status: ('A' for Active; 'I' for Inactive)
    1  A    between atoms: C_2  and  C_24
    2  A    between atoms: C_3  and  C_15
    3  A    between atoms: C_7  and  C_30
    4  A    between atoms: N_8  and  C_15
    5  A    between atoms: C_15  and  C_16
    6  A    between atoms: C_22  and  C_24
                            x       y       z     vdW  Elec       q    Type
                         _______ _______ _______ _____ _____    ______ ____

>  <TORSDO>
F 6

$$$$
=
 OpenBabel10222417003D

 30 34  0  0  1  0  0  0  0  0999 V2000
  183.9710  178.2770  141.2910 C   0  0  1  0  0  3  0  0  0  0  0  0
  183.6400  178.3820  138.3900 O   0  0  0  0  0  0  0  0  0  0  0  0
  182.9080  177.5300  140.5040 C   0  0  0  0  0  2  0  0  0  0  0  0
  184.5520  179.3240  138.9570 C   0  0  2  0  0  3  0  0  0  0  0  0
  183.4860  177.2040  139.1480 C   0  0  1  0  0  3  0  0  0  0  0  0
  185.6330  178.7140  139.6240 O   0  0  0  0  0  0  0  0  0  0  0  0
  184.6850  179.3570  140.4550 C   0  0  2  0  0  3  0  0  0  0  0  0
  182.6290  176.1680  138.4130 C   0  0  2  0  0  3  0  0  0  0  0  0
  181.2240  175.7500  139.4940 S   0  0  0  0  0  1  0  0  0  0  0  0
  183.3760  174.8880  137.9800 C   0  0  2  0  0  3  0  0  0  0  0  0
  184.4090  175.1320  136.9330 C   0  0  0  0  0  0  0  0  0  0  0  0
  185.4300  175.7680  137.1340 O   0  0  0  0  0  0  0  0  0  0  0  0
  183.0180  173.4860  135.9710 C   0  0  0  0  0  2  0  0  0  0  0  0
  184.1660  174.4250  135.6580 C   0  0  0  0  0  2  0  0  0  0  0  0
  182.4030  173.9320  137.2950 C   0  0  0  0  0  2  0  0  0  0  0  0
  183.3820  178.8740  142.5760 C   0  0  2  0  0  3  0  0  0  0  0  0
  183.8500  178.8440  145.1510 C   0  0  0  0  0  3  0  0  0  0  0  0
  186.0520  178.1750  146.3450 C   0  0  0  0  0  3  0  0  0  0  0  0
  186.9580  177.8370  145.3870 C   0  0  0  0  0  0  0  0  0  0  0  0
  185.4910  178.2400  143.6110 C   0  0  0  0  0  0  0  0  0  0  0  0
  184.6230  178.6390  146.2420 C   0  0  0  0  0  3  0  0  0  0  0  0
  184.2790  178.6400  143.7540 C   0  0  0  0  0  0  0  0  0  0  0  0
  186.6770  177.8670  143.9330 C   0  0  0  0  0  3  0  0  0  0  0  0
  189.3640  177.2900  144.9990 N   0  0  0  0  0  0  0  0  0  0  0  0
  188.6300  177.1010  147.0840 N   0  0  0  0  0  2  0  0  0  0  0  0
  189.9130  176.7820  147.0300 N   0  0  0  0  0  0  0  0  0  0  0  0
  190.3500  176.8950  145.7860 N   0  0  0  0  0  0  0  0  0  0  0  0
  188.3010  177.4140  145.8160 C   0  0  0  0  0  0  0  0  0  0  0  0
  182.0680  178.3060  142.8470 N   0  0  0  0  0  2  0  0  0  0  0  0
  181.1220  179.4080  142.8640 C   0  0  0  0  0  1  0  0  0  0  0  0
  1 16  1  1  0  0  0
  2  5  1  0  0  0  0
  3  1  1  0  0  0  0
  4  2  1  1  0  0  0
  4  6  1  0  0  0  0
  4  7  1  0  0  0  0
  5  8  1  6  0  0  0
  5  3  1  0  0  0  0
  7  6  1  6  0  0  0
  7  1  1  0  0  0  0
  8  9  1  1  0  0  0
 10  8  1  6  0  0  0
 11 12  2  0  0  0  0
 11 10  1  0  0  0  0
 13 15  1  0  0  0  0
 14 13  1  0  0  0  0
 14 11  1  0  0  0  0
 15 10  1  0  0  0  0
 16 29  1  1  0  0  0
 16 22  1  0  0  0  0
 17 21  2  0  0  0  0
 19 28  1  0  0  0  0
 19 18  2  0  0  0  0
 20 22  2  0  0  0  0
 20 23  2  0  0  0  0
 21 18  1  0  0  0  0
 22 17  1  0  0  0  0
 23 19  1  0  0  0  0
 24 27  1  0  0  0  0
 24 28  2  0  0  0  0
 26 25  1  0  0  0  0
 27 26  2  0  0  0  0
 28 25  1  0  0  0  0
 29 30  1  0  0  0  0
M  END
>  <MODEL>
4

>  <REMARK>
 VINA RESULT:      -8.4      3.679      6.481
  Name = 
  6 active torsions:
  status: ('A' for Active; 'I' for Inactive)
    1  A    between atoms: C_2  and  C_24
    2  A    between atoms: C_3  and  C_15
    3  A    between atoms: C_7  and  C_30
    4  A    between atoms: N_8  and  C_15
    5  A    between atoms: C_15  and  C_16
    6  A    between atoms: C_22  and  C_24
                            x       y       z     vdW  Elec       q    Type
                         _______ _______ _______ _____ _____    ______ ____

>  <TORSDO>
F 6

$$$$
=
 OpenBabel10222417003D

 30 34  0  0  1  0  0  0  0  0999 V2000
  189.2270  177.7330  140.7480 C   0  0  1  0  0  3  0  0  0  0  0  0
  188.7150  176.1780  143.1680 O   0  0  0  0  0  0  0  0  0  0  0  0
  187.8760  177.5910  141.4270 C   0  0  0  0  0  2  0  0  0  0  0  0
  189.9980  176.0050  142.5660 C   0  0  2  0  0  3  0  0  0  0  0  0
  188.1210  177.4290  142.9070 C   0  0  1  0  0  3  0  0  0  0  0  0
  190.7490  177.1970  142.5160 O   0  0  0  0  0  0  0  0  0  0  0  0
  190.2680  176.7250  141.2720 C   0  0  2  0  0  3  0  0  0  0  0  0
  186.8290  177.6190  143.7090 C   0  0  2  0  0  3  0  0  0  0  0  0
  185.5610  178.2530  142.5660 S   0  0  0  0  0  1  0  0  0  0  0  0
  186.9530  178.5390  144.9430 C   0  0  2  0  0  3  0  0  0  0  0  0
  187.6010  177.8780  146.1110 C   0  0  0  0  0  0  0  0  0  0  0  0
  188.7750  177.5480  146.1280 O   0  0  0  0  0  0  0  0  0  0  0  0
  185.5320  178.6180  146.9680 C   0  0  0  0  0  2  0  0  0  0  0  0
  186.7420  177.7730  147.3090 C   0  0  0  0  0  2  0  0  0  0  0  0
  185.5610  178.8860  145.4660 C   0  0  0  0  0  2  0  0  0  0  0  0
  189.0860  177.6380  139.2230 C   0  0  2  0  0  3  0  0  0  0  0  0
  189.7810  175.5140  137.8600 C   0  0  0  0  0  3  0  0  0  0  0  0
  192.1840  174.7120  137.3060 C   0  0  0  0  0  3  0  0  0  0  0  0
  193.0550  175.5990  137.8610 C   0  0  0  0  0  0  0  0  0  0  0  0
  191.3750  176.9550  138.7600 C   0  0  0  0  0  0  0  0  0  0  0  0
  190.6790  174.6680  137.3030 C   0  0  0  0  0  3  0  0  0  0  0  0
  190.1180  176.7260  138.6300 C   0  0  0  0  0  0  0  0  0  0  0  0
  192.6430  176.7920  138.6360 C   0  0  0  0  0  3  0  0  0  0  0  0
  195.1790  175.5990  136.5470 N   0  0  0  0  0  0  0  0  0  0  0  0
  195.3110  174.8780  138.6420 N   0  0  0  0  0  2  0  0  0  0  0  0
  196.5040  174.8220  138.0720 N   0  0  0  0  0  0  0  0  0  0  0  0
  196.4250  175.2520  136.8230 N   0  0  0  0  0  0  0  0  0  0  0  0
  194.4970  175.3620  137.6840 C   0  0  0  0  0  0  0  0  0  0  0  0
  189.1990  178.9570  138.6150 N   0  0  0  0  0  2  0  0  0  0  0  0
  188.6540  178.8570  137.2730 C   0  0  0  0  0  1  0  0  0  0  0  0
  1 16  1  6  0  0  0
  1  7  1  0  0  0  0
  1  3  1  0  0  0  0
  3  5  1  0  0  0  0
  4  6  1  1  0  0  0
  4  2  1  0  0  0  0
  5  2  1  0  0  0  0
  5  8  1  1  0  0  0
  7  6  1  1  0  0  0
  7  4  1  0  0  0  0
  8  9  1  6  0  0  0
 10  8  1  6  0  0  0
 10 15  1  0  0  0  0
 10 11  1  0  0  0  0
 11 12  2  0  0  0  0
 11 14  1  0  0  0  0
 13 14  1  0  0  0  0
 15 13  1  0  0  0  0
 16 29  1  6  0  0  0
 17 22  1  0  0  0  0
 18 19  2  0  0  0  0
 19 23  1  0  0  0  0
 21 18  1  0  0  0  0
 21 17  2  0  0  0  0
 22 20  2  0  0  0  0
 22 16  1  0  0  0  0
 23 20  2  0  0  0  0
 24 27  1  0  0  0  0
 24 28  2  0  0  0  0
 26 25  1  0  0  0  0
 27 26  2  0  0  0  0
 28 19  1  0  0  0  0
 28 25  1  0  0  0  0
 30 29  1  0  0  0  0
M  END
>  <MODEL>
5

>  <REMARK>
 VINA RESULT:      -8.2      4.717      9.231
  Name = 
  6 active torsions:
  status: ('A' for Active; 'I' for Inactive)
    1  A    between atoms: C_2  and  C_24
    2  A    between atoms: C_3  and  C_15
    3  A    between atoms: C_7  and  C_30
    4  A    between atoms: N_8  and  C_15
    5  A    between atoms: C_15  and  C_16
    6  A    between atoms: C_22  and  C_24
                            x       y       z     vdW  Elec       q    Type
                         _______ _______ _______ _____ _____    ______ ____

>  <TORSDO>
F 6

$$$$
=
 OpenBabel10222417003D

 30 34  0  0  1  0  0  0  0  0999 V2000
  189.4710  176.3890  138.7690 C   0  0  1  0  0  3  0  0  0  0  0  0
  189.4490  175.0790  136.1570 O   0  0  0  0  0  0  0  0  0  0  0  0
  188.2370  176.1650  137.9120 C   0  0  0  0  0  2  0  0  0  0  0  0
  190.7340  175.3890  136.6980 C   0  0  2  0  0  3  0  0  0  0  0  0
  188.4450  174.8920  137.1300 C   0  0  1  0  0  3  0  0  0  0  0  0
  190.9880  174.7410  137.9240 O   0  0  0  0  0  0  0  0  0  0  0  0
  190.7840  176.1390  138.0020 C   0  0  2  0  0  3  0  0  0  0  0  0
  187.1360  174.4030  136.5020 C   0  0  2  0  0  3  0  0  0  0  0  0
  185.9020  175.7270  136.7050 S   0  0  0  0  0  1  0  0  0  0  0  0
  186.5970  173.0700  137.0660 C   0  0  2  0  0  3  0  0  0  0  0  0
  186.3600  172.0370  136.0190 C   0  0  0  0  0  0  0  0  0  0  0  0
  187.2570  171.5090  135.3840 O   0  0  0  0  0  0  0  0  0  0  0  0
  184.2700  172.2260  137.0980 C   0  0  0  0  0  2  0  0  0  0  0  0
  184.9540  171.5980  135.8990 C   0  0  0  0  0  2  0  0  0  0  0  0
  185.2080  173.2890  137.6620 C   0  0  0  0  0  2  0  0  0  0  0  0
  189.4560  177.7900  139.3940 C   0  0  2  0  0  3  0  0  0  0  0  0
  187.8470  177.9350  141.4540 C   0  0  0  0  0  3  0  0  0  0  0  0
  188.4570  177.6290  143.9550 C   0  0  0  0  0  3  0  0  0  0  0  0
  189.7930  177.3790  144.0290 C   0  0  0  0  0  0  0  0  0  0  0  0
  190.1210  177.4980  141.7160 C   0  0  0  0  0  0  0  0  0  0  0  0
  187.5580  177.8860  142.7750 C   0  0  0  0  0  3  0  0  0  0  0  0
  189.1860  177.7330  140.8670 C   0  0  0  0  0  0  0  0  0  0  0  0
  190.6890  177.3080  142.8520 C   0  0  0  0  0  3  0  0  0  0  0  0
  191.7120  177.0910  145.6020 N   0  0  0  0  0  0  0  0  0  0  0  0
  189.6820  177.0180  146.4940 N   0  0  0  0  0  0  0  0  0  0  0  0
  190.5920  176.8520  147.4390 N   0  0  0  0  0  0  0  0  0  0  0  0
  191.8030  176.8960  146.9070 N   0  0  0  0  0  2  0  0  0  0  0  0
  190.3900  177.1650  145.3580 C   0  0  0  0  0  0  0  0  0  0  0  0
  188.4520  178.6270  138.7500 N   0  0  0  0  0  2  0  0  0  0  0  0
  189.1030  179.2960  137.6370 C   0  0  0  0  0  1  0  0  0  0  0  0
  1 16  1  6  0  0  0
  2  5  1  0  0  0  0
  3  1  1  0  0  0  0
  4  2  1  1  0  0  0
  4  6  1  0  0  0  0
  4  7  1  0  0  0  0
  5  8  1  6  0  0  0
  5  3  1  0  0  0  0
  7  6  1  1  0  0  0
  7  1  1  0  0  0  0
  8  9  1  1  0  0  0
 10  8  1  6  0  0  0
 10 15  1  0  0  0  0
 11 10  1  0  0  0  0
 12 11  2  0  0  0  0
 13 15  1  0  0  0  0
 14 11  1  0  0  0  0
 14 13  1  0  0  0  0
 16 29  1  6  0  0  0
 16 22  1  0  0  0  0
 17 21  2  0  0  0  0
 18 19  2  0  0  0  0
 19 28  1  0  0  0  0
 20 23  2  0  0  0  0
 21 18  1  0  0  0  0
 22 17  1  0  0  0  0
 22 20  2  0  0  0  0
 23 19  1  0  0  0  0
 24 27  1  0  0  0  0
 25 26  2  0  0  0  0
 27 26  1  0  0  0  0
 28 24  2  0  0  0  0
 28 25  1  0  0  0  0
 30 29  1  0  0  0  0
M  END
>  <MODEL>
6

>  <REMARK>
 VINA RESULT:      -8.2      3.874      6.913
  Name = 
  6 active torsions:
  status: ('A' for Active; 'I' for Inactive)
    1  A    between atoms: C_2  and  C_24
    2  A    between atoms: C_3  and  C_15
    3  A    between atoms: C_7  and  C_30
    4  A    between atoms: N_8  and  C_15
    5  A    between atoms: C_15  and  C_16
    6  A    between atoms: C_22  and  C_24
                            x       y       z     vdW  Elec       q    Type
                         _______ _______ _______ _____ _____    ______ ____

>  <TORSDO>
F 6

$$$$
=
 OpenBabel10222417003D

 30 34  0  0  1  0  0  0  0  0999 V2000
  185.9430  178.9150  140.4410 C   0  0  1  0  0  3  0  0  0  0  0  0
  188.0410  177.3250  139.1730 O   0  0  0  0  0  0  0  0  0  0  0  0
  187.1310  178.3010  141.1600 C   0  0  0  0  0  2  0  0  0  0  0  0
  186.8990  177.6220  138.3680 C   0  0  2  0  0  3  0  0  0  0  0  0
  188.2880  178.2680  140.1910 C   0  0  1  0  0  3  0  0  0  0  0  0
  186.7060  179.0040  138.1730 O   0  0  0  0  0  0  0  0  0  0  0  0
  185.7610  178.3660  139.0120 C   0  0  2  0  0  3  0  0  0  0  0  0
  189.6100  177.9870  140.9120 C   0  0  2  0  0  3  0  0  0  0  0  0
  190.5200  176.7530  139.9290 S   0  0  0  0  0  1  0  0  0  0  0  0
  189.4710  177.5160  142.3760 C   0  0  2  0  0  3  0  0  0  0  0  0
  190.4690  178.1340  143.2940 C   0  0  0  0  0  0  0  0  0  0  0  0
  190.4710  179.3200  143.5810 O   0  0  0  0  0  0  0  0  0  0  0  0
  190.7990  175.8180  143.5930 C   0  0  0  0  0  2  0  0  0  0  0  0
  191.3840  177.1720  143.9420 C   0  0  0  0  0  2  0  0  0  0  0  0
  189.7890  176.0260  142.4680 C   0  0  0  0  0  2  0  0  0  0  0  0
  184.6590  178.7460  141.2630 C   0  0  2  0  0  3  0  0  0  0  0  0
  184.0290  179.3510  143.7300 C   0  0  0  0  0  3  0  0  0  0  0  0
  185.3960  178.8490  145.8760 C   0  0  0  0  0  3  0  0  0  0  0  0
  186.5350  178.2040  145.5010 C   0  0  0  0  0  0  0  0  0  0  0  0
  186.0140  178.2430  143.2210 C   0  0  0  0  0  0  0  0  0  0  0  0
  184.2410  179.3780  145.0660 C   0  0  0  0  0  3  0  0  0  0  0  0
  184.9420  178.7590  142.7350 C   0  0  0  0  0  0  0  0  0  0  0  0
  186.8780  177.8770  144.0980 C   0  0  0  0  0  3  0  0  0  0  0  0
  187.3370  178.0680  147.8620 N   0  0  0  0  0  0  0  0  0  0  0  0
  188.6290  177.1290  146.3220 N   0  0  0  0  0  2  0  0  0  0  0  0
  189.1760  176.9800  147.5180 N   0  0  0  0  0  0  0  0  0  0  0  0
  188.4050  177.5410  148.4360 N   0  0  0  0  0  0  0  0  0  0  0  0
  187.4870  177.8060  146.5500 C   0  0  0  0  0  0  0  0  0  0  0  0
  183.9850  177.5030  140.9100 N   0  0  0  0  0  2  0  0  0  0  0  0
  182.6080  177.8380  140.5950 C   0  0  0  0  0  1  0  0  0  0  0  0
  1  3  1  0  0  0  0
  1 16  1  1  0  0  0
  2  5  1  0  0  0  0
  4  6  1  6  0  0  0
  4  7  1  0  0  0  0
  4  2  1  0  0  0  0
  5  8  1  1  0  0  0
  5  3  1  0  0  0  0
  7  6  1  6  0  0  0
  7  1  1  0  0  0  0
  8  9  1  6  0  0  0
 10  8  1  6  0  0  0
 10 15  1  0  0  0  0
 10 11  1  0  0  0  0
 11 12  2  0  0  0  0
 11 14  1  0  0  0  0
 13 14  1  0  0  0  0
 15 13  1  0  0  0  0
 16 29  1  6  0  0  0
 16 22  1  0  0  0  0
 17 21  2  0  0  0  0
 19 18  2  0  0  0  0
 19 28  1  0  0  0  0
 20 23  2  0  0  0  0
 21 18  1  0  0  0  0
 22 20  2  0  0  0  0
 22 17  1  0  0  0  0
 23 19  1  0  0  0  0
 24 27  1  0  0  0  0
 25 28  1  0  0  0  0
 25 26  1  0  0  0  0
 26 27  2  0  0  0  0
 28 24  2  0  0  0  0
 30 29  1  0  0  0  0
M  END
>  <MODEL>
7

>  <REMARK>
 VINA RESULT:      -8.1      2.144      5.675
  Name = 
  6 active torsions:
  status: ('A' for Active; 'I' for Inactive)
    1  A    between atoms: C_2  and  C_24
    2  A    between atoms: C_3  and  C_15
    3  A    between atoms: C_7  and  C_30
    4  A    between atoms: N_8  and  C_15
    5  A    between atoms: C_15  and  C_16
    6  A    between atoms: C_22  and  C_24
                            x       y       z     vdW  Elec       q    Type
                         _______ _______ _______ _____ _____    ______ ____

>  <TORSDO>
F 6

$$$$
=
 OpenBabel10222417003D

 30 34  0  0  1  0  0  0  0  0999 V2000
  188.6940  177.2560  141.2430 C   0  0  1  0  0  3  0  0  0  0  0  0
  190.4050  177.4600  138.8830 O   0  0  0  0  0  0  0  0  0  0  0  0
  188.2110  177.5590  139.8350 C   0  0  0  0  0  2  0  0  0  0  0  0
  191.0730  177.3890  140.1440 C   0  0  2  0  0  3  0  0  0  0  0  0
  189.1330  176.8530  138.8710 C   0  0  1  0  0  3  0  0  0  0  0  0
  190.8030  176.1960  140.8440 O   0  0  0  0  0  0  0  0  0  0  0  0
  190.2240  177.3680  141.3870 C   0  0  2  0  0  3  0  0  0  0  0  0
  188.5390  176.8160  137.4590 C   0  0  2  0  0  3  0  0  0  0  0  0
  187.9580  178.4960  137.0630 S   0  0  0  0  0  1  0  0  0  0  0  0
  187.4040  175.7890  137.2530 C   0  0  2  0  0  3  0  0  0  0  0  0
  187.5930  174.9320  136.0480 C   0  0  0  0  0  0  0  0  0  0  0  0
  188.4830  174.1050  135.9470 O   0  0  0  0  0  0  0  0  0  0  0  0
  185.4690  175.9020  135.7140 C   0  0  0  0  0  2  0  0  0  0  0  0
  186.5330  175.0680  135.0280 C   0  0  0  0  0  2  0  0  0  0  0  0
  186.0970  176.5200  136.9600 C   0  0  0  0  0  2  0  0  0  0  0  0
  187.9780  178.1420  142.2700 C   0  0  2  0  0  3  0  0  0  0  0  0
  187.4060  177.6920  144.7840 C   0  0  0  0  0  3  0  0  0  0  0  0
  189.0470  177.0400  146.6820 C   0  0  0  0  0  3  0  0  0  0  0  0
  190.2960  176.9720  146.1450 C   0  0  0  0  0  0  0  0  0  0  0  0
  189.5910  177.5430  143.9900 C   0  0  0  0  0  0  0  0  0  0  0  0
  187.7160  177.3700  146.0610 C   0  0  0  0  0  3  0  0  0  0  0  0
  188.3700  177.7880  143.6720 C   0  0  0  0  0  0  0  0  0  0  0  0
  190.6020  177.2380  144.7210 C   0  0  0  0  0  3  0  0  0  0  0  0
  192.2500  175.5750  146.8320 N   0  0  0  0  0  0  0  0  0  0  0  0
  191.7440  177.2860  148.1510 N   0  0  0  0  0  2  0  0  0  0  0  0
  192.7930  176.6410  148.6360 N   0  0  0  0  0  0  0  0  0  0  0  0
  193.0940  175.6210  147.8490 N   0  0  0  0  0  0  0  0  0  0  0  0
  191.4170  176.6140  147.0310 C   0  0  0  0  0  0  0  0  0  0  0  0
  186.5320  178.0230  142.1270 N   0  0  0  0  0  2  0  0  0  0  0  0
  186.0070  179.3680  141.9670 C   0  0  0  0  0  1  0  0  0  0  0  0
  1  7  1  0  0  0  0
  1 16  1  1  0  0  0
  3  1  1  0  0  0  0
  4  2  1  6  0  0  0
  4  6  1  0  0  0  0
  4  7  1  0  0  0  0
  5  8  1  6  0  0  0
  5  2  1  0  0  0  0
  5  3  1  0  0  0  0
  7  6  1  1  0  0  0
  8  9  1  1  0  0  0
 10  8  1  6  0  0  0
 11 10  1  0  0  0  0
 12 11  2  0  0  0  0
 13 15  1  0  0  0  0
 14 13  1  0  0  0  0
 14 11  1  0  0  0  0
 15 10  1  0  0  0  0
 16 29  1  1  0  0  0
 16 22  1  0  0  0  0
 17 21  2  0  0  0  0
 19 18  2  0  0  0  0
 19 28  1  0  0  0  0
 20 23  2  0  0  0  0
 21 18  1  0  0  0  0
 22 20  2  0  0  0  0
 22 17  1  0  0  0  0
 23 19  1  0  0  0  0
 24 28  2  0  0  0  0
 24 27  1  0  0  0  0
 25 26  1  0  0  0  0
 27 26  2  0  0  0  0
 28 25  1  0  0  0  0
 30 29  1  0  0  0  0
M  END
>  <MODEL>
8

>  <REMARK>
 VINA RESULT:      -8.0      2.752      6.157
  Name = 
  6 active torsions:
  status: ('A' for Active; 'I' for Inactive)
    1  A    between atoms: C_2  and  C_24
    2  A    between atoms: C_3  and  C_15
    3  A    between atoms: C_7  and  C_30
    4  A    between atoms: N_8  and  C_15
    5  A    between atoms: C_15  and  C_16
    6  A    between atoms: C_22  and  C_24
                            x       y       z     vdW  Elec       q    Type
                         _______ _______ _______ _____ _____    ______ ____

>  <TORSDO>
F 6

$$$$
=
 OpenBabel10222417003D

 30 34  0  0  1  0  0  0  0  0999 V2000
  189.7210  176.3700  138.9430 C   0  0  1  0  0  3  0  0  0  0  0  0
  190.3710  175.2310  136.3320 O   0  0  0  0  0  0  0  0  0  0  0  0
  188.7110  176.0260  137.8620 C   0  0  0  0  0  2  0  0  0  0  0  0
  191.4750  175.6860  137.1150 C   0  0  2  0  0  3  0  0  0  0  0  0
  189.2470  174.8450  137.0910 C   0  0  1  0  0  3  0  0  0  0  0  0
  191.5960  175.0080  138.3440 O   0  0  0  0  0  0  0  0  0  0  0  0
  191.1730  176.3560  138.4290 C   0  0  2  0  0  3  0  0  0  0  0  0
  188.1620  174.2150  136.2120 C   0  0  2  0  0  3  0  0  0  0  0  0
  187.0300  175.5450  135.6960 S   0  0  0  0  0  1  0  0  0  0  0  0
  187.3750  173.0600  136.8700 C   0  0  2  0  0  3  0  0  0  0  0  0
  187.1410  171.9070  135.9550 C   0  0  0  0  0  0  0  0  0  0  0  0
  188.0340  171.1850  135.5460 O   0  0  0  0  0  0  0  0  0  0  0  0
  184.9720  172.5050  136.6640 C   0  0  0  0  0  2  0  0  0  0  0  0
  185.7170  171.6190  135.6850 C   0  0  0  0  0  2  0  0  0  0  0  0
  185.9620  173.5290  137.2090 C   0  0  0  0  0  2  0  0  0  0  0  0
  189.3820  177.7140  139.6000 C   0  0  2  0  0  3  0  0  0  0  0  0
  189.6370  176.7180  142.0070 C   0  0  0  0  0  3  0  0  0  0  0  0
  188.0610  177.0730  144.0350 C   0  0  0  0  0  3  0  0  0  0  0  0
  187.0430  177.8820  143.6330 C   0  0  0  0  0  0  0  0  0  0  0  0
  187.8420  178.0940  141.4450 C   0  0  0  0  0  0  0  0  0  0  0  0
  189.2550  176.5350  143.2920 C   0  0  0  0  0  3  0  0  0  0  0  0
  188.9150  177.5350  141.0130 C   0  0  0  0  0  0  0  0  0  0  0  0
  186.9110  178.4300  142.2640 C   0  0  0  0  0  3  0  0  0  0  0  0
  186.0570  177.9370  145.9270 N   0  0  0  0  0  0  0  0  0  0  0  0
  184.8740  178.9040  144.3190 N   0  0  0  0  0  2  0  0  0  0  0  0
  184.2340  179.0100  145.4720 N   0  0  0  0  0  0  0  0  0  0  0  0
  184.9400  178.4330  146.4310 N   0  0  0  0  0  0  0  0  0  0  0  0
  186.0050  178.2360  144.6150 C   0  0  0  0  0  0  0  0  0  0  0  0
  188.3560  178.4130  138.8360 N   0  0  0  0  0  2  0  0  0  0  0  0
  189.0400  179.2390  137.8570 C   0  0  0  0  0  1  0  0  0  0  0  0
  1 16  1  6  0  0  0
  2  5  1  0  0  0  0
  3  1  1  0  0  0  0
  4  2  1  6  0  0  0
  4  6  1  0  0  0  0
  4  7  1  0  0  0  0
  5  8  1  6  0  0  0
  5  3  1  0  0  0  0
  7  6  1  1  0  0  0
  7  1  1  0  0  0  0
  8  9  1  1  0  0  0
 10  8  1  6  0  0  0
 10 15  1  0  0  0  0
 11 10  1  0  0  0  0
 12 11  2  0  0  0  0
 13 15  1  0  0  0  0
 14 11  1  0  0  0  0
 14 13  1  0  0  0  0
 16 29  1  6  0  0  0
 16 22  1  0  0  0  0
 17 21  2  0  0  0  0
 19 18  2  0  0  0  0
 19 28  1  0  0  0  0
 20 23  2  0  0  0  0
 21 18  1  0  0  0  0
 22 20  2  0  0  0  0
 22 17  1  0  0  0  0
 23 19  1  0  0  0  0
 24 27  1  0  0  0  0
 25 28  1  0  0  0  0
 25 26  1  0  0  0  0
 26 27  2  0  0  0  0
 28 24  2  0  0  0  0
 30 29  1  0  0  0  0
M  END
>  <MODEL>
9

>  <REMARK>
 VINA RESULT:      -8.0      3.586      5.611
  Name = 
  6 active torsions:
  status: ('A' for Active; 'I' for Inactive)
    1  A    between atoms: C_2  and  C_24
    2  A    between atoms: C_3  and  C_15
    3  A    between atoms: C_7  and  C_30
    4  A    between atoms: N_8  and  C_15
    5  A    between atoms: C_15  and  C_16
    6  A    between atoms: C_22  and  C_24
                            x       y       z     vdW  Elec       q    Type
                         _______ _______ _______ _____ _____    ______ ____

>  <TORSDO>
F 6

$$$$
