=
 OpenBabel10222417543D

 70 72  0  0  1  0  0  0  0  0999 V2000
  186.6410  178.5300  141.0490 C   0  0  0  0  0  0  0  0  0  0  0  0
  187.3800  178.8020  135.2850 C   0  0  0  0  0  2  0  0  0  0  0  0
  193.7980  176.9510  137.5680 C   0  0  0  0  0  2  0  0  0  0  0  0
  187.2120  176.2310  137.8390 O   0  0  0  0  0  1  0  0  0  0  0  0
  193.1670  176.0580  139.8250 C   0  0  0  0  0  2  0  0  0  0  0  0
  186.0690  179.1590  142.1010 C   0  0  0  0  0  0  0  0  0  0  0  0
  189.0510  177.2080  136.0680 C   0  0  0  0  0  2  0  0  0  0  0  0
  191.8590  176.6240  135.1270 C   0  0  0  0  0  2  0  0  0  0  0  0
  189.3860  176.5260  134.7480 C   0  0  0  0  0  2  0  0  0  0  0  0
  193.6270  175.7010  138.4200 C   0  0  0  0  0  2  0  0  0  0  0  0
  190.7980  175.3300  139.5610 C   0  0  0  0  0  1  0  0  0  0  0  0
  191.7140  176.5090  139.8350 C   0  0  1  0  0  3  0  0  0  0  0  0
  188.9920  177.7330  141.0240 C   0  0  0  0  0  2  0  0  0  0  0  0
  185.2220  177.9550  139.0760 C   0  0  0  0  0  2  0  0  0  0  0  0
  194.1490  176.6180  136.1170 C   0  0  2  0  0  3  0  0  0  0  0  0
  186.1860  178.3850  137.9740 C   0  0  0  0  0  2  0  0  0  0  0  0
  185.9560  177.4250  140.2980 C   0  0  0  0  0  2  0  0  0  0  0  0
  186.6250  177.2300  137.0540 C   0  0  1  0  0  0  0  0  0  0  0  0
  190.4280  178.2470  141.1090 C   0  0  2  0  0  3  0  0  0  0  0  0
  186.8610  180.1710  142.8800 C   0  0  0  0  0  1  0  0  0  0  0  0
  188.0490  178.8530  140.6450 C   0  0  0  0  0  2  0  0  0  0  0  0
  193.0680  175.7750  135.4500 C   0  0  0  0  0  2  0  0  0  0  0  0
  190.6650  175.7200  134.8930 C   0  0  0  0  0  2  0  0  0  0  0  0
  187.6510  177.7460  136.0620 C   0  0  0  0  0  0  0  0  0  0  0  0
  191.3970  177.0850  141.2060 C   0  0  0  0  0  2  0  0  0  0  0  0
  183.1370  178.6190  144.4320 C   0  0  0  0  0  3  0  0  0  0  0  0
  184.4300  178.8300  143.9550 C   0  0  0  0  0  3  0  0  0  0  0  0
  183.6140  178.7550  141.6850 C   0  0  0  0  0  3  0  0  0  0  0  0
  184.6870  178.8840  142.5760 C   0  0  0  0  0  0  0  0  0  0  0  0
  182.0760  178.4560  143.5370 C   0  0  0  0  0  0  0  0  0  0  0  0
  182.3170  178.5380  142.1610 C   0  0  0  0  0  3  0  0  0  0  0  0
  180.6920  178.2720  144.0670 C   0  0  0  0  0  2  0  0  0  0  0  0
  179.6680  178.8090  143.1210 C   0  0  0  0  0  0  0  0  0  0  0  0
  178.9800  177.9400  142.2290 N   0  0  0  0  0  1  0  0  0  0  0  0
  179.3910  180.0400  143.1360 O   0  0  0  0  0  0  0  0  0  0  0  0
  195.7500  175.7650  136.0040 S   0  0  0  0  0  0  0  0  0  0  0  0
  195.0430  174.4040  135.0300 C   0  0  0  0  0  2  0  0  0  0  0  0
  195.4210  173.0500  135.6290 C   0  0  2  0  0  3  0  0  0  0  0  0
  194.2200  170.7310  135.6380 C   0  0  1  0  0  3  0  0  0  0  0  0
  193.0450  172.6900  136.7550 C   0  0  0  0  0  1  0  0  0  0  0  0
  194.1740  172.1920  135.8730 C   0  0  1  0  0  0  0  0  0  0  0  0
  193.6810  171.6220  134.6850 O   0  0  0  0  0  0  0  0  0  0  0  0
  195.4870  170.3150  135.2110 O   0  0  0  0  0  1  0  0  0  0  0  0
  197.2950  172.2500  136.9380 O   0  0  0  0  0  1  0  0  0  0  0  0
  195.4430  173.0060  138.0370 O   0  0  0  0  0  1  0  0  0  0  0  0
  196.2510  173.1770  136.9110 C   0  0  0  0  0  3  0  0  0  0  0  0
  185.4330  176.5880  136.3210 C   0  0  0  0  0  2  0  0  0  0  0  0
  185.8220  175.6900  135.1470 C   0  0  0  0  0  2  0  0  0  0  0  0
  184.5200  173.5210  135.3750 C   0  0  0  0  0  0  0  0  0  0  0  0
  184.7210  174.8080  134.7820 N   0  0  0  0  0  2  0  0  0  0  0  0
  185.4010  173.0090  136.1130 O   0  0  0  0  0  0  0  0  0  0  0  0
  182.9610  172.6680  135.1330 S   0  0  0  0  0  0  0  0  0  0  0  0
  181.8570  174.0780  135.5320 C   0  0  1  0  0  3  0  0  0  0  0  0
  180.6450  174.0720  134.6100 C   0  0  0  0  0  1  0  0  0  0  0  0
  181.4600  174.1710  137.0180 C   0  0  2  0  0  3  0  0  0  0  0  0
  180.2310  172.8580  137.4120 P   0  0  2  0  0  0  0  0  0  0  0  0
  179.4990  172.3300  135.9770 O   0  0  0  0  0  0  0  0  0  0  0  0
  178.9310  173.4930  138.5120 C   0  0  0  0  0  1  0  0  0  0  0  0
  180.8900  171.6710  138.0740 O   0  0  0  0  0  1  0  0  0  0  0  0
  180.8500  175.9010  137.4730 P   0  0  1  0  0  0  0  0  0  0  0  0
  181.4380  175.9830  139.1050 O   0  0  0  0  0  1  0  0  0  0  0  0
  182.1380  176.9880  136.6810 C   0  0  0  0  0  1  0  0  0  0  0  0
  190.5870  179.0860  142.2880 N   0  0  0  0  0  2  0  0  0  0  0  0
  190.9410  178.2110  143.3930 C   0  0  0  0  0  2  0  0  0  0  0  0
  190.6170  176.4790  145.6180 O   0  0  0  0  0  0  0  0  0  0  0  0
  190.0140  178.4300  144.4910 N   0  0  0  0  0  2  0  0  0  0  0  0
  189.8940  177.5110  145.5790 C   0  0  0  0  0  0  0  0  0  0  0  0
  188.9310  177.7760  146.6580 C   0  0  0  0  0  0  0  0  0  0  0  0
  187.4890  177.4360  146.5060 C   0  0  0  0  0  1  0  0  0  0  0  0
  189.3280  178.3170  147.7240 O   0  0  0  0  0  0  0  0  0  0  0  0
  1  6  2  0  0  0  0
  2 24  2  0  0  0  0
  3 10  1  0  0  0  0
  5 12  1  0  0  0  0
  6 29  1  0  0  0  0
  6 20  1  0  0  0  0
  8 22  1  0  0  0  0
  9 23  1  0  0  0  0
  9  7  1  0  0  0  0
 10  5  1  0  0  0  0
 12 11  1  1  0  0  0
 12 25  1  0  0  0  0
 13 19  1  0  0  0  0
 14 17  1  0  0  0  0
 15 36  1  1  0  0  0
 15  3  1  0  0  0  0
 16 14  1  0  0  0  0
 17  1  1  0  0  0  0
 18  4  1  1  0  0  0
 18 16  1  0  0  0  0
 19 25  1  0  0  0  0
 19 63  1  1  0  0  0
 21 13  1  0  0  0  0
 21  1  1  0  0  0  0
 22 15  1  0  0  0  0
 23  8  1  0  0  0  0
 24  7  1  0  0  0  0
 24 18  1  0  0  0  0
 27 26  1  0  0  0  0
 28 31  2  0  0  0  0
 28 29  1  0  0  0  0
 29 27  2  0  0  0  0
 30 32  1  0  0  0  0
 30 26  2  0  0  0  0
 31 30  1  0  0  0  0
 33 35  2  0  0  0  0
 33 32  1  0  0  0  0
 34 33  1  0  0  0  0
 37 36  1  0  0  0  0
 38 37  1  1  0  0  0
 38 41  1  0  0  0  0
 38 46  1  0  0  0  0
 39 43  1  6  0  0  0
 39 41  1  0  0  0  0
 41 40  1  1  0  0  0
 42 39  1  0  0  0  0
 42 41  1  0  0  0  0
 46 44  1  0  0  0  0
 46 45  1  0  0  0  0
 47 18  1  0  0  0  0
 48 47  1  0  0  0  0
 49 51  2  0  0  0  0
 50 48  1  0  0  0  0
 50 49  1  0  0  0  0
 52 49  1  0  0  0  0
 52 53  1  0  0  0  0
 53 54  1  6  0  0  0
 55 53  1  6  0  0  0
 55 56  1  0  0  0  0
 55 60  1  0  0  0  0
 56 59  1  0  0  0  0
 56 58  1  1  0  0  0
 57 56  2  0  0  0  0
 60 62  1  6  0  0  0
 60 61  1  0  0  0  0
 63 64  1  0  0  0  0
 64 66  1  0  0  0  0
 66 67  1  0  0  0  0
 67 65  2  0  0  0  0
 67 68  1  0  0  0  0
 68 70  2  0  0  0  0
 69 68  1  0  0  0  0
M  END
>  <MODEL>
1

>  <REMARK>
 VINA RESULT:      -1.2      0.000      0.000
  Name = 
  20 active torsions:
  status: ('A' for Active; 'I' for Inactive)
    1  A    between atoms: C_3  and  C_15
    2  A    between atoms: C_3  and  P_16
    3  A    between atoms: C_3  and  P_28
    4  A    between atoms: C_5  and  C_51
    5  A    between atoms: C_7  and  C_21
    6  A    between atoms: S_12  and  C_41
    7  A    between atoms: S_12  and  C_46
    8  A    between atoms: C_13  and  C_26
    9  A    between atoms: C_14  and  S_54
   10  A    between atoms: C_15  and  S_54
   11  A    between atoms: C_17  and  C_25
   12  A    between atoms: C_19  and  C_45
   13  A    between atoms: C_19  and  C_55
   14  A    between atoms: C_21  and  C_47
   15  A    between atoms: N_24  and  C_56
   16  A    between atoms: C_25  and  C_41
   17  A    between atoms: C_25  and  C_66
   18  A    between atoms: N_32  and  C_45
   19  A    between atoms: N_40  and  C_56
   20  A    between atoms: N_40  and  C_57
                            x       y       z     vdW  Elec       q    Type
                         _______ _______ _______ _____ _____    ______ ____

>  <TORSDO>
F 20

$$$$
=
 OpenBabel10222417543D

 70 72  0  0  1  0  0  0  0  0999 V2000
  186.6890  178.6190  140.9580 C   0  0  0  0  0  0  0  0  0  0  0  0
  187.1430  178.6930  135.1590 C   0  0  0  0  0  2  0  0  0  0  0  0
  193.6020  176.6860  137.1750 C   0  0  0  0  0  2  0  0  0  0  0  0
  187.0180  176.2070  137.7970 O   0  0  0  0  0  1  0  0  0  0  0  0
  193.0570  175.8830  139.4880 C   0  0  0  0  0  2  0  0  0  0  0  0
  186.1930  179.2990  142.0170 C   0  0  0  0  0  0  0  0  0  0  0  0
  188.7970  177.0650  135.9070 C   0  0  0  0  0  2  0  0  0  0  0  0
  191.5320  176.3550  134.8460 C   0  0  0  0  0  2  0  0  0  0  0  0
  189.0400  176.3330  134.5940 C   0  0  0  0  0  2  0  0  0  0  0  0
  193.4320  175.4680  138.0740 C   0  0  0  0  0  2  0  0  0  0  0  0
  190.6540  175.2310  139.3660 C   0  0  0  0  0  1  0  0  0  0  0  0
  191.6220  176.3850  139.5560 C   0  0  1  0  0  3  0  0  0  0  0  0
  189.0080  177.7390  140.8410 C   0  0  0  0  0  2  0  0  0  0  0  0
  185.1530  178.0360  139.0770 C   0  0  0  0  0  2  0  0  0  0  0  0
  193.8670  176.2970  135.7200 C   0  0  2  0  0  3  0  0  0  0  0  0
  186.0730  178.3990  137.9160 C   0  0  0  0  0  2  0  0  0  0  0  0
  185.9290  177.5170  140.2770 C   0  0  0  0  0  2  0  0  0  0  0  0
  186.4250  177.2020  137.0110 C   0  0  1  0  0  0  0  0  0  0  0  0
  190.4620  178.2040  140.8380 C   0  0  2  0  0  3  0  0  0  0  0  0
  187.0570  180.3050  142.7230 C   0  0  0  0  0  1  0  0  0  0  0  0
  188.0850  178.8800  140.4740 C   0  0  0  0  0  2  0  0  0  0  0  0
  192.7260  175.4740  135.1350 C   0  0  0  0  0  2  0  0  0  0  0  0
  190.2970  175.4870  134.7000 C   0  0  0  0  0  2  0  0  0  0  0  0
  187.4160  177.6520  135.9540 C   0  0  0  0  0  0  0  0  0  0  0  0
  191.3950  177.0120  140.9230 C   0  0  0  0  0  2  0  0  0  0  0  0
  182.4600  178.6970  142.1720 C   0  0  0  0  0  3  0  0  0  0  0  0
  183.7440  178.9430  141.6880 C   0  0  0  0  0  3  0  0  0  0  0  0
  184.6030  178.9440  143.9440 C   0  0  0  0  0  3  0  0  0  0  0  0
  184.8290  179.0870  142.5680 C   0  0  0  0  0  0  0  0  0  0  0  0
  182.2370  178.5920  143.5480 C   0  0  0  0  0  0  0  0  0  0  0  0
  183.3150  178.7030  144.4330 C   0  0  0  0  0  3  0  0  0  0  0  0
  180.8610  178.2870  144.0460 C   0  0  0  0  0  2  0  0  0  0  0  0
  179.8160  178.7980  143.1100 C   0  0  0  0  0  0  0  0  0  0  0  0
  179.7650  180.1770  142.7640 N   0  0  0  0  0  1  0  0  0  0  0  0
  178.9900  177.9930  142.5970 O   0  0  0  0  0  0  0  0  0  0  0  0
  195.4310  175.3860  135.5540 S   0  0  0  0  0  0  0  0  0  0  0  0
  194.5720  173.8340  135.1590 C   0  0  0  0  0  2  0  0  0  0  0  0
  194.9450  172.7350  136.1540 C   0  0  2  0  0  3  0  0  0  0  0  0
  197.2680  172.5520  137.3330 C   0  0  1  0  0  3  0  0  0  0  0  0
  197.0450  171.6170  134.9780 C   0  0  0  0  0  1  0  0  0  0  0  0
  196.4490  172.4390  136.1050 C   0  0  1  0  0  0  0  0  0  0  0  0
  197.2240  173.5830  136.3690 O   0  0  0  0  0  0  0  0  0  0  0  0
  196.4950  172.9260  138.4390 O   0  0  0  0  0  1  0  0  0  0  0  0
  192.7920  171.7330  135.6810 O   0  0  0  0  0  1  0  0  0  0  0  0
  194.2190  170.6360  137.0850 O   0  0  0  0  0  1  0  0  0  0  0  0
  194.1320  171.4520  135.9540 C   0  0  0  0  0  3  0  0  0  0  0  0
  185.1760  176.5810  136.3590 C   0  0  0  0  0  2  0  0  0  0  0  0
  185.4220  175.2330  135.6810 C   0  0  0  0  0  2  0  0  0  0  0  0
  183.4920  173.6250  135.3060 C   0  0  0  0  0  0  0  0  0  0  0  0
  184.2360  174.7960  134.9560 N   0  0  0  0  0  2  0  0  0  0  0  0
  183.9390  172.8090  136.1530 O   0  0  0  0  0  0  0  0  0  0  0  0
  181.8650  173.3640  134.5950 S   0  0  0  0  0  0  0  0  0  0  0  0
  181.0900  174.9100  135.2090 C   0  0  1  0  0  3  0  0  0  0  0  0
  179.5720  174.7870  135.1660 C   0  0  0  0  0  1  0  0  0  0  0  0
  181.6010  175.3700  136.5880 C   0  0  2  0  0  3  0  0  0  0  0  0
  180.5820  174.5980  137.9130 P   0  0  2  0  0  0  0  0  0  0  0  0
  178.9400  174.8410  137.5680 O   0  0  0  0  0  0  0  0  0  0  0  0
  180.9390  175.3500  139.5290 C   0  0  0  0  0  1  0  0  0  0  0  0
  180.8340  173.1120  138.0030 O   0  0  0  0  0  1  0  0  0  0  0  0
  181.6610  177.2550  136.7180 P   0  0  1  0  0  0  0  0  0  0  0  0
  180.0950  177.6280  136.0650 O   0  0  0  0  0  1  0  0  0  0  0  0
  181.2610  177.5340  138.5160 C   0  0  0  0  0  1  0  0  0  0  0  0
  190.7090  179.0720  141.9810 N   0  0  0  0  0  2  0  0  0  0  0  0
  191.0860  178.2180  143.0940 C   0  0  0  0  0  2  0  0  0  0  0  0
  190.5950  176.2350  145.0660 O   0  0  0  0  0  0  0  0  0  0  0  0
  190.0660  178.3040  144.1280 N   0  0  0  0  0  2  0  0  0  0  0  0
  189.8650  177.2630  145.0860 C   0  0  0  0  0  0  0  0  0  0  0  0
  188.8120  177.3960  146.1020 C   0  0  0  0  0  0  0  0  0  0  0  0
  189.0980  177.1730  147.5460 C   0  0  0  0  0  1  0  0  0  0  0  0
  187.6400  177.6870  145.7440 O   0  0  0  0  0  0  0  0  0  0  0  0
  1  6  2  0  0  0  0
  2 24  2  0  0  0  0
  3 10  1  0  0  0  0
  5 12  1  0  0  0  0
  6 29  1  0  0  0  0
  6 20  1  0  0  0  0
  7 24  1  0  0  0  0
  8 22  1  0  0  0  0
  9 23  1  0  0  0  0
  9  7  1  0  0  0  0
 10  5  1  0  0  0  0
 12 11  1  1  0  0  0
 12 25  1  0  0  0  0
 14 17  1  0  0  0  0
 15 36  1  1  0  0  0
 15  3  1  0  0  0  0
 16 14  1  0  0  0  0
 17  1  1  0  0  0  0
 18  4  1  1  0  0  0
 18 16  1  0  0  0  0
 19 13  1  0  0  0  0
 19 25  1  0  0  0  0
 19 63  1  1  0  0  0
 21 13  1  0  0  0  0
 21  1  1  0  0  0  0
 22 15  1  0  0  0  0
 23  8  1  0  0  0  0
 24 18  1  0  0  0  0
 26 30  1  0  0  0  0
 27 26  2  0  0  0  0
 27 29  1  0  0  0  0
 28 31  1  0  0  0  0
 29 28  2  0  0  0  0
 30 32  1  0  0  0  0
 30 31  2  0  0  0  0
 33 32  1  0  0  0  0
 34 33  1  0  0  0  0
 35 33  2  0  0  0  0
 37 36  1  0  0  0  0
 38 37  1  6  0  0  0
 39 43  1  1  0  0  0
 41 40  1  6  0  0  0
 41 38  1  0  0  0  0
 41 42  1  0  0  0  0
 41 39  1  0  0  0  0
 42 39  1  0  0  0  0
 44 46  1  0  0  0  0
 46 38  1  0  0  0  0
 46 45  1  0  0  0  0
 47 18  1  0  0  0  0
 48 47  1  0  0  0  0
 49 51  2  0  0  0  0
 50 49  1  0  0  0  0
 50 48  1  0  0  0  0
 52 53  1  0  0  0  0
 52 49  1  0  0  0  0
 53 54  1  1  0  0  0
 55 53  1  6  0  0  0
 55 60  1  0  0  0  0
 55 56  1  0  0  0  0
 56 59  1  0  0  0  0
 56 58  1  1  0  0  0
 57 56  2  0  0  0  0
 60 62  1  1  0  0  0
 61 60  1  0  0  0  0
 63 64  1  0  0  0  0
 64 66  1  0  0  0  0
 65 67  2  0  0  0  0
 66 67  1  0  0  0  0
 67 68  1  0  0  0  0
 68 69  1  0  0  0  0
 70 68  2  0  0  0  0
M  END
>  <MODEL>
2

>  <REMARK>
 VINA RESULT:      -0.5      1.181      1.788
  Name = 
  20 active torsions:
  status: ('A' for Active; 'I' for Inactive)
    1  A    between atoms: C_3  and  C_15
    2  A    between atoms: C_3  and  P_16
    3  A    between atoms: C_3  and  P_28
    4  A    between atoms: C_5  and  C_51
    5  A    between atoms: C_7  and  C_21
    6  A    between atoms: S_12  and  C_41
    7  A    between atoms: S_12  and  C_46
    8  A    between atoms: C_13  and  C_26
    9  A    between atoms: C_14  and  S_54
   10  A    between atoms: C_15  and  S_54
   11  A    between atoms: C_17  and  C_25
   12  A    between atoms: C_19  and  C_45
   13  A    between atoms: C_19  and  C_55
   14  A    between atoms: C_21  and  C_47
   15  A    between atoms: N_24  and  C_56
   16  A    between atoms: C_25  and  C_41
   17  A    between atoms: C_25  and  C_66
   18  A    between atoms: N_32  and  C_45
   19  A    between atoms: N_40  and  C_56
   20  A    between atoms: N_40  and  C_57
                            x       y       z     vdW  Elec       q    Type
                         _______ _______ _______ _____ _____    ______ ____

>  <TORSDO>
F 20

$$$$
=
 OpenBabel10222417543D

 70 72  0  0  1  0  0  0  0  0999 V2000
  188.5800  177.2560  144.6070 C   0  0  0  0  0  0  0  0  0  0  0  0
  190.2500  174.9270  139.5450 C   0  0  0  0  0  2  0  0  0  0  0  0
  184.0680  177.9070  137.8950 C   0  0  0  0  0  2  0  0  0  0  0  0
  189.9250  178.2420  140.9830 O   0  0  0  0  0  1  0  0  0  0  0  0
  183.8930  179.5250  139.8020 C   0  0  0  0  0  2  0  0  0  0  0  0
  188.5050  177.0230  145.9380 C   0  0  0  0  0  0  0  0  0  0  0  0
  188.8150  176.8040  138.9410 C   0  0  0  0  0  2  0  0  0  0  0  0
  186.8610  177.1820  136.6710 C   0  0  0  0  0  2  0  0  0  0  0  0
  189.2210  176.9710  137.4820 C   0  0  0  0  0  2  0  0  0  0  0  0
  184.1500  179.3690  138.3120 C   0  0  0  0  0  2  0  0  0  0  0  0
  186.2560  179.9480  140.4720 C   0  0  0  0  0  1  0  0  0  0  0  0
  185.0680  179.0160  140.6240 C   0  0  1  0  0  3  0  0  0  0  0  0
  186.6970  178.1410  143.2500 C   0  0  0  0  0  2  0  0  0  0  0  0
  190.7770  176.9680  143.4570 C   0  0  0  0  0  2  0  0  0  0  0  0
  184.4340  177.7040  136.4240 C   0  0  2  0  0  3  0  0  0  0  0  0
  190.2850  176.2270  142.2170 C   0  0  0  0  0  2  0  0  0  0  0  0
  189.7450  177.9580  143.9720 C   0  0  0  0  0  2  0  0  0  0  0  0
  190.5420  176.9870  140.9020 C   0  0  1  0  0  0  0  0  0  0  0  0
  185.2800  177.7900  142.8030 C   0  0  2  0  0  3  0  0  0  0  0  0
  187.2560  176.4240  146.5170 C   0  0  0  0  0  1  0  0  0  0  0  0
  187.4310  176.9000  143.7090 C   0  0  0  0  0  2  0  0  0  0  0  0
  185.8540  178.1680  136.1230 C   0  0  0  0  0  2  0  0  0  0  0  0
  188.2160  177.8560  136.7660 C   0  0  0  0  0  2  0  0  0  0  0  0
  189.9300  176.2100  139.7500 C   0  0  0  0  0  0  0  0  0  0  0  0
  184.6500  178.9670  142.0850 C   0  0  0  0  0  2  0  0  0  0  0  0
  190.3210  178.5960  148.8620 C   0  0  0  0  0  3  0  0  0  0  0  0
  189.3400  178.2900  147.9200 C   0  0  0  0  0  3  0  0  0  0  0  0
  190.8350  176.7220  146.8570 C   0  0  0  0  0  3  0  0  0  0  0  0
  189.5900  177.3620  146.8960 C   0  0  0  0  0  0  0  0  0  0  0  0
  191.5740  177.9790  148.7960 C   0  0  0  0  0  0  0  0  0  0  0  0
  191.8240  177.0310  147.7980 C   0  0  0  0  0  3  0  0  0  0  0  0
  192.5990  178.2880  149.8380 C   0  0  0  0  0  2  0  0  0  0  0  0
  193.4590  177.1020  150.1270 C   0  0  0  0  0  0  0  0  0  0  0  0
  194.7410  176.9740  149.5240 N   0  0  0  0  0  1  0  0  0  0  0  0
  193.0580  176.2240  150.9390 O   0  0  0  0  0  0  0  0  0  0  0  0
  183.2630  178.5580  135.3270 S   0  0  0  0  0  0  0  0  0  0  0  0
  182.0970  177.1650  135.3620 C   0  0  0  0  0  2  0  0  0  0  0  0
  181.0330  177.3690  136.4410 C   0  0  2  0  0  3  0  0  0  0  0  0
  180.6340  175.9130  138.5710 C   0  0  1  0  0  3  0  0  0  0  0  0
  179.8790  174.9820  136.3280 C   0  0  0  0  0  1  0  0  0  0  0  0
  180.6540  176.0360  137.0960 C   0  0  1  0  0  0  0  0  0  0  0  0
  181.7300  175.4660  137.8010 O   0  0  0  0  0  0  0  0  0  0  0  0
  180.9740  177.1190  139.1960 O   0  0  0  0  0  1  0  0  0  0  0  0
  180.0140  178.6560  134.6600 O   0  0  0  0  0  1  0  0  0  0  0  0
  179.3840  179.0850  136.8120 O   0  0  0  0  0  1  0  0  0  0  0  0
  179.7870  178.0910  135.9170 C   0  0  0  0  0  3  0  0  0  0  0  0
  192.0420  177.2340  140.6570 C   0  0  0  0  0  2  0  0  0  0  0  0
  192.3840  177.6930  139.2400 C   0  0  0  0  0  2  0  0  0  0  0  0
  193.3990  176.1000  137.5420 C   0  0  0  0  0  0  0  0  0  0  0  0
  193.5030  176.9280  138.7050 N   0  0  0  0  0  2  0  0  0  0  0  0
  192.2780  175.8470  137.0310 O   0  0  0  0  0  0  0  0  0  0  0  0
  194.8910  175.4880  136.7550 S   0  0  0  0  0  0  0  0  0  0  0  0
  194.3120  173.7740  136.4540 C   0  0  1  0  0  3  0  0  0  0  0  0
  193.0450  173.7890  135.6090 C   0  0  0  0  0  1  0  0  0  0  0  0
  195.3890  172.8340  135.8760 C   0  0  2  0  0  3  0  0  0  0  0  0
  194.7620  171.1030  135.8790 P   0  0  2  0  0  0  0  0  0  0  0  0
  196.0460  170.0440  135.5590 O   0  0  0  0  0  0  0  0  0  0  0  0
  193.4980  170.8670  134.5950 C   0  0  0  0  0  1  0  0  0  0  0  0
  194.1680  170.7370  137.2190 O   0  0  0  0  0  1  0  0  0  0  0  0
  197.0360  173.0150  136.7850 P   0  0  1  0  0  0  0  0  0  0  0  0
  197.1360  171.4340  137.4960 O   0  0  0  0  0  1  0  0  0  0  0  0
  198.2680  172.7580  135.4130 C   0  0  0  0  0  1  0  0  0  0  0  0
  184.4620  177.4570  143.9610 N   0  0  0  0  0  2  0  0  0  0  0  0
  183.8390  178.6880  144.4140 C   0  0  0  0  0  2  0  0  0  0  0  0
  181.7080  179.2750  142.6320 O   0  0  0  0  0  0  0  0  0  0  0  0
  182.4320  178.4400  144.6860 N   0  0  0  0  0  2  0  0  0  0  0  0
  181.4060  178.7680  143.7460 C   0  0  0  0  0  0  0  0  0  0  0  0
  179.9990  178.5060  144.0780 C   0  0  0  0  0  0  0  0  0  0  0  0
  179.0420  179.6210  144.3210 C   0  0  0  0  0  1  0  0  0  0  0  0
  179.5970  177.3170  144.1770 O   0  0  0  0  0  0  0  0  0  0  0  0
  1  6  2  0  0  0  0
  2 24  2  0  0  0  0
  3 10  1  0  0  0  0
  5 12  1  0  0  0  0
  6 20  1  0  0  0  0
  6 29  1  0  0  0  0
  7 24  1  0  0  0  0
  8 23  1  0  0  0  0
  9  7  1  0  0  0  0
 10  5  1  0  0  0  0
 12 11  1  1  0  0  0
 12 25  1  0  0  0  0
 13 21  1  0  0  0  0
 14 17  1  0  0  0  0
 15 36  1  6  0  0  0
 15  3  1  0  0  0  0
 16 14  1  0  0  0  0
 17  1  1  0  0  0  0
 18  4  1  1  0  0  0
 18 16  1  0  0  0  0
 19 13  1  0  0  0  0
 19 63  1  1  0  0  0
 21  1  1  0  0  0  0
 22 15  1  0  0  0  0
 22  8  1  0  0  0  0
 23  9  1  0  0  0  0
 24 18  1  0  0  0  0
 25 19  1  0  0  0  0
 27 26  2  0  0  0  0
 28 29  2  0  0  0  0
 28 31  1  0  0  0  0
 29 27  1  0  0  0  0
 30 26  1  0  0  0  0
 30 32  1  0  0  0  0
 31 30  2  0  0  0  0
 32 33  1  0  0  0  0
 33 35  2  0  0  0  0
 34 33  1  0  0  0  0
 36 37  1  0  0  0  0
 38 37  1  6  0  0  0
 38 41  1  0  0  0  0
 39 43  1  1  0  0  0
 41 40  1  6  0  0  0
 41 42  1  0  0  0  0
 41 39  1  0  0  0  0
 42 39  1  0  0  0  0
 44 46  1  0  0  0  0
 46 38  1  0  0  0  0
 46 45  1  0  0  0  0
 47 18  1  0  0  0  0
 48 47  1  0  0  0  0
 49 50  1  0  0  0  0
 50 48  1  0  0  0  0
 51 49  2  0  0  0  0
 52 49  1  0  0  0  0
 53 54  1  6  0  0  0
 53 52  1  0  0  0  0
 55 56  1  0  0  0  0
 55 53  1  1  0  0  0
 55 60  1  0  0  0  0
 56 58  1  6  0  0  0
 56 59  1  0  0  0  0
 57 56  2  0  0  0  0
 60 62  1  6  0  0  0
 60 61  1  0  0  0  0
 63 64  1  0  0  0  0
 64 66  1  0  0  0  0
 65 67  2  0  0  0  0
 67 68  1  0  0  0  0
 67 66  1  0  0  0  0
 68 70  2  0  0  0  0
 68 69  1  0  0  0  0
M  END
>  <MODEL>
3

>  <REMARK>
 VINA RESULT:       1.5      3.749     10.938
  Name = 
  20 active torsions:
  status: ('A' for Active; 'I' for Inactive)
    1  A    between atoms: C_3  and  C_15
    2  A    between atoms: C_3  and  P_16
    3  A    between atoms: C_3  and  P_28
    4  A    between atoms: C_5  and  C_51
    5  A    between atoms: C_7  and  C_21
    6  A    between atoms: S_12  and  C_41
    7  A    between atoms: S_12  and  C_46
    8  A    between atoms: C_13  and  C_26
    9  A    between atoms: C_14  and  S_54
   10  A    between atoms: C_15  and  S_54
   11  A    between atoms: C_17  and  C_25
   12  A    between atoms: C_19  and  C_45
   13  A    between atoms: C_19  and  C_55
   14  A    between atoms: C_21  and  C_47
   15  A    between atoms: N_24  and  C_56
   16  A    between atoms: C_25  and  C_41
   17  A    between atoms: C_25  and  C_66
   18  A    between atoms: N_32  and  C_45
   19  A    between atoms: N_40  and  C_56
   20  A    between atoms: N_40  and  C_57
                            x       y       z     vdW  Elec       q    Type
                         _______ _______ _______ _____ _____    ______ ____

>  <TORSDO>
F 20

$$$$
