=
 OpenBabel10222416223D

 38 42  0  0  1  0  0  0  0  0999 V2000
  187.1020  177.5360  144.8340 C   0  0  0  0  0  0  0  0  0  0  0  0
  188.9870  177.7190  147.5480 N   0  0  0  0  0  0  0  0  0  0  0  0
  185.6760  178.8550  146.8790 C   0  0  0  0  0  3  0  0  0  0  0  0
  187.3910  177.3830  146.1470 C   0  0  0  0  0  0  0  0  0  0  0  0
  188.3380  177.3080  144.1950 C   0  0  0  0  0  0  0  0  0  0  0  0
  187.8470  178.2770  148.0670 C   0  0  0  0  0  3  0  0  0  0  0  0
  186.8150  178.0870  147.1410 C   0  0  0  0  0  0  0  0  0  0  0  0
  188.6510  177.1710  146.3880 N   0  0  0  0  0  0  0  0  0  0  0  0
  185.2120  178.8940  145.5340 C   0  0  0  0  0  3  0  0  0  0  0  0
  189.3110  177.1640  145.2130 C   0  0  0  0  0  3  0  0  0  0  0  0
  185.9440  178.2680  144.4820 C   0  0  0  0  0  0  0  0  0  0  0  0
  188.6530  177.4040  142.7580 C   0  0  0  0  0  0  0  0  0  0  0  0
  188.0170  178.3670  141.9630 C   0  0  0  0  0  3  0  0  0  0  0  0
  189.6430  176.5940  142.1870 C   0  0  0  0  0  3  0  0  0  0  0  0
  189.9670  176.7200  140.8350 C   0  0  0  0  0  3  0  0  0  0  0  0
  188.3420  178.4930  140.6110 C   0  0  0  0  0  3  0  0  0  0  0  0
  189.3170  177.6650  140.0340 C   0  0  0  0  0  0  0  0  0  0  0  0
  187.7610  176.4070  137.6280 C   0  0  0  0  0  1  0  0  0  0  0  0
  189.6840  177.7640  138.6490 N   0  0  0  0  0  2  0  0  0  0  0  0
  189.0080  177.2150  137.5080 C   0  0  0  0  0  0  0  0  0  0  0  0
  189.4850  177.4160  136.3620 O   0  0  0  0  0  0  0  0  0  0  0  0
  185.5300  178.4880  143.0640 C   0  0  0  0  0  2  0  0  0  0  0  0
  184.0400  178.5910  142.9370 C   0  0  0  0  0  0  0  0  0  0  0  0
  183.3860  178.4690  141.6860 C   0  0  0  0  0  0  0  0  0  0  0  0
  181.8890  178.9030  144.0240 C   0  0  0  0  0  3  0  0  0  0  0  0
  183.2780  178.7950  144.0960 C   0  0  0  0  0  3  0  0  0  0  0  0
  181.2470  178.8080  142.7890 C   0  0  0  0  0  3  0  0  0  0  0  0
  181.9930  178.5870  141.6290 C   0  0  0  0  0  3  0  0  0  0  0  0
  184.5240  179.4960  139.7080 C   0  0  0  0  0  1  0  0  0  0  0  0
  184.1080  178.2050  140.3940 C   0  0  2  0  0  3  0  0  0  0  0  0
  183.2900  177.3130  139.4720 C   0  0  0  0  0  2  0  0  0  0  0  0
  183.3420  177.8190  138.1110 N   0  0  0  0  0  2  0  0  0  0  0  0
  183.1130  176.6880  137.2260 C   0  0  0  0  0  2  0  0  0  0  0  0
  183.0890  175.1450  138.1870 S   0  0  0  0  0  0  0  0  0  0  0  0
  184.4770  174.4370  137.2510 C   0  0  0  0  0  2  0  0  0  0  0  0
  184.7930  173.0440  137.7590 C   0  0  1  0  0  3  0  0  0  0  0  0
  184.3090  172.0270  136.7480 C   0  0  0  0  0  1  0  0  0  0  0  0
  186.1720  172.9060  137.9230 O   0  0  0  0  0  1  0  0  0  0  0  0
  1  4  1  0  0  0  0
  2  6  2  0  0  0  0
  3  7  1  0  0  0  0
  4  8  1  0  0  0  0
  4  7  2  0  0  0  0
  5  1  1  0  0  0  0
  5 10  2  0  0  0  0
  7  6  1  0  0  0  0
  8  2  1  0  0  0  0
  9  3  2  0  0  0  0
 10  8  1  0  0  0  0
 11  1  2  0  0  0  0
 11  9  1  0  0  0  0
 12  5  1  0  0  0  0
 13 12  2  0  0  0  0
 14 12  1  0  0  0  0
 15 14  2  0  0  0  0
 16 13  1  0  0  0  0
 17 16  2  0  0  0  0
 17 15  1  0  0  0  0
 19 17  1  0  0  0  0
 20 18  1  0  0  0  0
 20 19  1  0  0  0  0
 21 20  2  0  0  0  0
 22 11  1  0  0  0  0
 23 22  1  0  0  0  0
 23 26  1  0  0  0  0
 24 23  2  0  0  0  0
 25 26  2  0  0  0  0
 27 25  1  0  0  0  0
 28 24  1  0  0  0  0
 28 27  2  0  0  0  0
 30 29  1  6  0  0  0
 30 24  1  0  0  0  0
 31 30  1  0  0  0  0
 32 31  1  0  0  0  0
 33 32  1  0  0  0  0
 33 34  1  0  0  0  0
 35 36  1  0  0  0  0
 35 34  1  0  0  0  0
 36 37  1  6  0  0  0
 36 38  1  0  0  0  0
M  END
>  <MODEL>
1

>  <REMARK>
 VINA RESULT:      -9.4      0.000      0.000
  Name = 
  11 active torsions:
  status: ('A' for Active; 'I' for Inactive)
    1  A    between atoms: N_3  and  C_38
    2  A    between atoms: C_4  and  C_12
    3  A    between atoms: C_5  and  C_31
    4  A    between atoms: C_6  and  C_23
    5  A    between atoms: C_7  and  C_14
    6  A    between atoms: C_12  and  S_28
    7  A    between atoms: C_14  and  C_22
    8  A    between atoms: C_22  and  N_34
    9  A    between atoms: C_27  and  S_28
   10  A    between atoms: C_27  and  N_34
   11  A    between atoms: C_31  and  C_37
                            x       y       z     vdW  Elec       q    Type
                         _______ _______ _______ _____ _____    ______ ____

>  <TORSDO>
F 11

$$$$
=
 OpenBabel10222416223D

 38 42  0  0  1  0  0  0  0  0999 V2000
  187.1030  177.5000  144.8390 C   0  0  0  0  0  0  0  0  0  0  0  0
  189.0410  177.7840  147.5060 N   0  0  0  0  0  0  0  0  0  0  0  0
  185.6680  178.7670  146.9110 C   0  0  0  0  0  3  0  0  0  0  0  0
  187.4290  177.3680  146.1450 C   0  0  0  0  0  0  0  0  0  0  0  0
  188.3320  177.3230  144.1720 C   0  0  0  0  0  0  0  0  0  0  0  0
  187.8900  178.2940  148.0490 C   0  0  0  0  0  3  0  0  0  0  0  0
  186.8460  178.0530  147.1500 C   0  0  0  0  0  0  0  0  0  0  0  0
  188.7030  177.2150  146.3570 N   0  0  0  0  0  0  0  0  0  0  0  0
  185.1710  178.7770  145.5770 C   0  0  0  0  0  3  0  0  0  0  0  0
  189.3350  177.2290  145.1670 C   0  0  0  0  0  3  0  0  0  0  0  0
  185.9060  178.1770  144.5110 C   0  0  0  0  0  0  0  0  0  0  0  0
  188.6090  177.4240  142.7270 C   0  0  0  0  0  0  0  0  0  0  0  0
  188.0040  178.4330  141.9660 C   0  0  0  0  0  3  0  0  0  0  0  0
  189.5340  176.5700  142.1150 C   0  0  0  0  0  3  0  0  0  0  0  0
  189.8240  176.6980  140.7550 C   0  0  0  0  0  3  0  0  0  0  0  0
  188.2940  178.5620  140.6070 C   0  0  0  0  0  3  0  0  0  0  0  0
  189.2030  177.6910  139.9880 C   0  0  0  0  0  0  0  0  0  0  0  0
  187.2220  177.2910  137.5980 C   0  0  0  0  0  1  0  0  0  0  0  0
  189.5330  177.7900  138.5940 N   0  0  0  0  0  2  0  0  0  0  0  0
  188.6680  177.6240  137.4600 C   0  0  0  0  0  0  0  0  0  0  0  0
  189.1450  177.7580  136.3040 O   0  0  0  0  0  0  0  0  0  0  0  0
  185.4480  178.3700  143.1020 C   0  0  0  0  0  2  0  0  0  0  0  0
  183.9610  178.5470  143.0270 C   0  0  0  0  0  0  0  0  0  0  0  0
  183.2550  178.4240  141.8050 C   0  0  0  0  0  0  0  0  0  0  0  0
  181.8720  179.0040  144.1820 C   0  0  0  0  0  3  0  0  0  0  0  0
  183.2560  178.8250  144.2070 C   0  0  0  0  0  3  0  0  0  0  0  0
  181.1800  178.9070  142.9750 C   0  0  0  0  0  3  0  0  0  0  0  0
  181.8680  178.6140  141.7960 C   0  0  0  0  0  3  0  0  0  0  0  0
  184.6580  179.2760  139.9160 C   0  0  0  0  0  1  0  0  0  0  0  0
  183.9120  178.0850  140.4960 C   0  0  2  0  0  3  0  0  0  0  0  0
  182.9140  177.5050  139.5050 C   0  0  0  0  0  2  0  0  0  0  0  0
  183.0610  176.0620  139.4320 N   0  0  0  0  0  2  0  0  0  0  0  0
  181.9790  175.5630  138.5990 C   0  0  0  0  0  2  0  0  0  0  0  0
  180.3800  176.1180  139.2630 S   0  0  0  0  0  0  0  0  0  0  0  0
  179.8520  174.4230  139.6510 C   0  0  0  0  0  2  0  0  0  0  0  0
  178.9690  174.4180  140.8820 C   0  0  1  0  0  3  0  0  0  0  0  0
  179.5310  173.4410  141.8910 C   0  0  0  0  0  1  0  0  0  0  0  0
  178.9440  175.6950  141.4460 O   0  0  0  0  0  1  0  0  0  0  0  0
  1  4  1  0  0  0  0
  2  6  2  0  0  0  0
  3  7  1  0  0  0  0
  4  8  1  0  0  0  0
  4  7  2  0  0  0  0
  5  1  1  0  0  0  0
  5 10  2  0  0  0  0
  7  6  1  0  0  0  0
  8  2  1  0  0  0  0
  9  3  2  0  0  0  0
 10  8  1  0  0  0  0
 11  1  2  0  0  0  0
 11  9  1  0  0  0  0
 12  5  1  0  0  0  0
 13 12  2  0  0  0  0
 14 12  1  0  0  0  0
 15 14  2  0  0  0  0
 16 13  1  0  0  0  0
 17 16  2  0  0  0  0
 17 15  1  0  0  0  0
 19 17  1  0  0  0  0
 20 18  1  0  0  0  0
 20 19  1  0  0  0  0
 21 20  2  0  0  0  0
 22 11  1  0  0  0  0
 23 22  1  0  0  0  0
 23 26  1  0  0  0  0
 24 23  2  0  0  0  0
 25 26  2  0  0  0  0
 27 25  1  0  0  0  0
 28 24  1  0  0  0  0
 28 27  2  0  0  0  0
 30 29  1  6  0  0  0
 30 24  1  0  0  0  0
 31 30  1  0  0  0  0
 32 31  1  0  0  0  0
 33 34  1  0  0  0  0
 33 32  1  0  0  0  0
 34 35  1  0  0  0  0
 35 36  1  0  0  0  0
 36 38  1  0  0  0  0
 36 37  1  1  0  0  0
M  END
>  <MODEL>
2

>  <REMARK>
 VINA RESULT:      -9.3      2.136      2.393
  Name = 
  11 active torsions:
  status: ('A' for Active; 'I' for Inactive)
    1  A    between atoms: N_3  and  C_38
    2  A    between atoms: C_4  and  C_12
    3  A    between atoms: C_5  and  C_31
    4  A    between atoms: C_6  and  C_23
    5  A    between atoms: C_7  and  C_14
    6  A    between atoms: C_12  and  S_28
    7  A    between atoms: C_14  and  C_22
    8  A    between atoms: C_22  and  N_34
    9  A    between atoms: C_27  and  S_28
   10  A    between atoms: C_27  and  N_34
   11  A    between atoms: C_31  and  C_37
                            x       y       z     vdW  Elec       q    Type
                         _______ _______ _______ _____ _____    ______ ____

>  <TORSDO>
F 11

$$$$
=
 OpenBabel10222416223D

 38 42  0  0  1  0  0  0  0  0999 V2000
  187.1110  177.5350  144.8610 C   0  0  0  0  0  0  0  0  0  0  0  0
  189.0310  177.7250  147.5500 N   0  0  0  0  0  0  0  0  0  0  0  0
  185.7030  178.8400  146.9290 C   0  0  0  0  0  3  0  0  0  0  0  0
  187.4190  177.3820  146.1700 C   0  0  0  0  0  0  0  0  0  0  0  0
  188.3390  177.3180  144.2050 C   0  0  0  0  0  0  0  0  0  0  0  0
  187.8940  178.2750  148.0850 C   0  0  0  0  0  3  0  0  0  0  0  0
  186.8520  178.0800  147.1740 C   0  0  0  0  0  0  0  0  0  0  0  0
  188.6830  177.1780  146.3930 N   0  0  0  0  0  0  0  0  0  0  0  0
  185.2210  178.8790  145.5910 C   0  0  0  0  0  3  0  0  0  0  0  0
  189.3270  177.1780  145.2090 C   0  0  0  0  0  3  0  0  0  0  0  0
  185.9440  178.2600  144.5270 C   0  0  0  0  0  0  0  0  0  0  0  0
  188.6350  177.4190  142.7640 C   0  0  0  0  0  0  0  0  0  0  0  0
  188.0330  178.4230  141.9940 C   0  0  0  0  0  3  0  0  0  0  0  0
  189.5740  176.5710  142.1650 C   0  0  0  0  0  3  0  0  0  0  0  0
  189.8820  176.7010  140.8090 C   0  0  0  0  0  3  0  0  0  0  0  0
  188.3400  178.5530  140.6380 C   0  0  0  0  0  3  0  0  0  0  0  0
  189.2640  177.6880  140.0320 C   0  0  0  0  0  0  0  0  0  0  0  0
  187.3200  177.2630  137.6170 C   0  0  0  0  0  1  0  0  0  0  0  0
  189.6120  177.7880  138.6430 N   0  0  0  0  0  2  0  0  0  0  0  0
  188.7640  177.6120  137.4980 C   0  0  0  0  0  0  0  0  0  0  0  0
  189.2560  177.7490  136.3490 O   0  0  0  0  0  0  0  0  0  0  0  0
  185.5090  178.4810  143.1150 C   0  0  0  0  0  2  0  0  0  0  0  0
  184.0170  178.5940  143.0110 C   0  0  0  0  0  0  0  0  0  0  0  0
  183.3390  178.4300  141.7780 C   0  0  0  0  0  0  0  0  0  0  0  0
  181.8900  178.9710  144.1240 C   0  0  0  0  0  3  0  0  0  0  0  0
  183.2790  178.8520  144.1750 C   0  0  0  0  0  3  0  0  0  0  0  0
  181.2250  178.8340  142.9060 C   0  0  0  0  0  3  0  0  0  0  0  0
  181.9460  178.5600  141.7420 C   0  0  0  0  0  3  0  0  0  0  0  0
  184.4790  179.3660  139.7560 C   0  0  0  0  0  1  0  0  0  0  0  0
  184.0340  178.1080  140.4850 C   0  0  2  0  0  3  0  0  0  0  0  0
  183.1780  177.2150  139.6000 C   0  0  0  0  0  2  0  0  0  0  0  0
  182.9690  177.8430  138.3060 N   0  0  0  0  0  2  0  0  0  0  0  0
  181.5420  177.7930  138.0320 C   0  0  0  0  0  2  0  0  0  0  0  0
  181.1010  179.0670  136.8130 S   0  0  0  0  0  0  0  0  0  0  0  0
  180.0570  179.9660  137.9990 C   0  0  0  0  0  2  0  0  0  0  0  0
  180.9200  180.6660  139.0300 C   0  0  1  0  0  3  0  0  0  0  0  0
  181.6290  181.8300  138.3740 C   0  0  0  0  0  1  0  0  0  0  0  0
  180.1170  181.1440  140.0670 O   0  0  0  0  0  1  0  0  0  0  0  0
  1  4  1  0  0  0  0
  2  6  2  0  0  0  0
  3  7  1  0  0  0  0
  4  8  1  0  0  0  0
  4  7  2  0  0  0  0
  5  1  1  0  0  0  0
  5 10  2  0  0  0  0
  7  6  1  0  0  0  0
  8  2  1  0  0  0  0
  9  3  2  0  0  0  0
 10  8  1  0  0  0  0
 11  1  2  0  0  0  0
 11  9  1  0  0  0  0
 12  5  1  0  0  0  0
 13 12  2  0  0  0  0
 14 12  1  0  0  0  0
 15 14  2  0  0  0  0
 16 13  1  0  0  0  0
 17 16  2  0  0  0  0
 17 15  1  0  0  0  0
 19 17  1  0  0  0  0
 20 18  1  0  0  0  0
 20 19  1  0  0  0  0
 21 20  2  0  0  0  0
 22 11  1  0  0  0  0
 23 22  1  0  0  0  0
 23 26  1  0  0  0  0
 24 23  2  0  0  0  0
 25 26  2  0  0  0  0
 27 25  1  0  0  0  0
 28 24  1  0  0  0  0
 28 27  2  0  0  0  0
 30 29  1  6  0  0  0
 30 24  1  0  0  0  0
 31 30  1  0  0  0  0
 32 31  1  0  0  0  0
 33 32  1  0  0  0  0
 34 35  1  0  0  0  0
 34 33  1  0  0  0  0
 35 36  1  0  0  0  0
 36 37  1  6  0  0  0
 36 38  1  0  0  0  0
M  END
>  <MODEL>
3

>  <REMARK>
 VINA RESULT:      -9.3      2.195      3.111
  Name = 
  11 active torsions:
  status: ('A' for Active; 'I' for Inactive)
    1  A    between atoms: N_3  and  C_38
    2  A    between atoms: C_4  and  C_12
    3  A    between atoms: C_5  and  C_31
    4  A    between atoms: C_6  and  C_23
    5  A    between atoms: C_7  and  C_14
    6  A    between atoms: C_12  and  S_28
    7  A    between atoms: C_14  and  C_22
    8  A    between atoms: C_22  and  N_34
    9  A    between atoms: C_27  and  S_28
   10  A    between atoms: C_27  and  N_34
   11  A    between atoms: C_31  and  C_37
                            x       y       z     vdW  Elec       q    Type
                         _______ _______ _______ _____ _____    ______ ____

>  <TORSDO>
F 11

$$$$
=
 OpenBabel10222416223D

 38 42  0  0  1  0  0  0  0  0999 V2000
  189.4550  176.7850  145.0180 C   0  0  0  0  0  0  0  0  0  0  0  0
  192.0780  176.7800  147.0350 N   0  0  0  0  0  0  0  0  0  0  0  0
  188.6840  177.7280  147.5630 C   0  0  0  0  0  3  0  0  0  0  0  0
  190.1410  176.4950  146.1480 C   0  0  0  0  0  0  0  0  0  0  0  0
  190.4400  176.7340  144.0110 C   0  0  0  0  0  0  0  0  0  0  0  0
  191.1350  177.1800  147.9470 C   0  0  0  0  0  3  0  0  0  0  0  0
  189.8750  177.0250  147.3590 C   0  0  0  0  0  0  0  0  0  0  0  0
  191.4210  176.3540  145.9660 N   0  0  0  0  0  0  0  0  0  0  0  0
  187.8260  177.8950  146.4400 C   0  0  0  0  0  3  0  0  0  0  0  0
  191.6850  176.5430  144.6580 C   0  0  0  0  0  3  0  0  0  0  0  0
  188.2190  177.4620  145.1390 C   0  0  0  0  0  0  0  0  0  0  0  0
  190.2920  177.0300  142.5740 C   0  0  0  0  0  0  0  0  0  0  0  0
  191.4160  177.3690  141.8100 C   0  0  0  0  0  3  0  0  0  0  0  0
  189.0500  176.9010  141.9410 C   0  0  0  0  0  3  0  0  0  0  0  0
  188.9260  177.1410  140.5710 C   0  0  0  0  0  3  0  0  0  0  0  0
  191.2910  177.6090  140.4400 C   0  0  0  0  0  3  0  0  0  0  0  0
  190.0430  177.5030  139.8100 C   0  0  0  0  0  0  0  0  0  0  0  0
  190.2100  175.3400  137.5540 C   0  0  0  0  0  1  0  0  0  0  0  0
  189.8700  177.7370  138.4040 N   0  0  0  0  0  2  0  0  0  0  0  0
  189.9290  176.7860  137.3290 C   0  0  0  0  0  0  0  0  0  0  0  0
  189.7430  177.1850  136.1510 O   0  0  0  0  0  0  0  0  0  0  0  0
  187.3790  177.8220  143.9570 C   0  0  0  0  0  2  0  0  0  0  0  0
  185.9830  178.1850  144.3660 C   0  0  0  0  0  0  0  0  0  0  0  0
  184.9410  178.3360  143.4180 C   0  0  0  0  0  0  0  0  0  0  0  0
  184.4220  178.7050  146.1550 C   0  0  0  0  0  3  0  0  0  0  0  0
  185.7050  178.3610  145.7300 C   0  0  0  0  0  3  0  0  0  0  0  0
  183.4020  178.8780  145.2190 C   0  0  0  0  0  3  0  0  0  0  0  0
  183.6610  178.6890  143.8590 C   0  0  0  0  0  3  0  0  0  0  0  0
  186.0430  179.1760  141.3330 C   0  0  0  0  0  1  0  0  0  0  0  0
  185.1260  178.1260  141.9410 C   0  0  2  0  0  3  0  0  0  0  0  0
  183.7900  178.0540  141.2170 C   0  0  0  0  0  2  0  0  0  0  0  0
  183.8960  178.6730  139.9070 N   0  0  0  0  0  2  0  0  0  0  0  0
  182.6030  179.2670  139.6080 C   0  0  0  0  0  2  0  0  0  0  0  0
  181.2810  178.2960  140.3920 S   0  0  0  0  0  0  0  0  0  0  0  0
  180.2770  179.7730  140.7320 C   0  0  0  0  0  2  0  0  0  0  0  0
  179.6780  179.6890  142.1210 C   0  0  1  0  0  3  0  0  0  0  0  0
  180.2260  178.4660  142.8240 C   0  0  0  0  0  1  0  0  0  0  0  0
  180.0220  180.8290  142.8500 O   0  0  0  0  0  1  0  0  0  0  0  0
  1 11  2  0  0  0  0
  1  4  1  0  0  0  0
  2  6  2  0  0  0  0
  4  7  2  0  0  0  0
  5 10  2  0  0  0  0
  5  1  1  0  0  0  0
  7  3  1  0  0  0  0
  7  6  1  0  0  0  0
  8  4  1  0  0  0  0
  8  2  1  0  0  0  0
  9  3  2  0  0  0  0
 10  8  1  0  0  0  0
 11  9  1  0  0  0  0
 12  5  1  0  0  0  0
 13 12  2  0  0  0  0
 14 12  1  0  0  0  0
 15 14  2  0  0  0  0
 16 13  1  0  0  0  0
 17 16  2  0  0  0  0
 17 15  1  0  0  0  0
 19 17  1  0  0  0  0
 20 18  1  0  0  0  0
 20 19  1  0  0  0  0
 21 20  2  0  0  0  0
 22 23  1  0  0  0  0
 22 11  1  0  0  0  0
 23 26  1  0  0  0  0
 24 28  1  0  0  0  0
 24 23  2  0  0  0  0
 26 25  2  0  0  0  0
 27 25  1  0  0  0  0
 28 27  2  0  0  0  0
 30 29  1  6  0  0  0
 30 24  1  0  0  0  0
 31 30  1  0  0  0  0
 32 31  1  0  0  0  0
 33 32  1  0  0  0  0
 33 34  1  0  0  0  0
 34 35  1  0  0  0  0
 35 36  1  0  0  0  0
 36 37  1  1  0  0  0
 36 38  1  0  0  0  0
M  END
>  <MODEL>
4

>  <REMARK>
 VINA RESULT:      -9.2      2.512      3.966
  Name = 
  11 active torsions:
  status: ('A' for Active; 'I' for Inactive)
    1  A    between atoms: N_3  and  C_38
    2  A    between atoms: C_4  and  C_12
    3  A    between atoms: C_5  and  C_31
    4  A    between atoms: C_6  and  C_23
    5  A    between atoms: C_7  and  C_14
    6  A    between atoms: C_12  and  S_28
    7  A    between atoms: C_14  and  C_22
    8  A    between atoms: C_22  and  N_34
    9  A    between atoms: C_27  and  S_28
   10  A    between atoms: C_27  and  N_34
   11  A    between atoms: C_31  and  C_37
                            x       y       z     vdW  Elec       q    Type
                         _______ _______ _______ _____ _____    ______ ____

>  <TORSDO>
F 11

$$$$
=
 OpenBabel10222416223D

 38 42  0  0  1  0  0  0  0  0999 V2000
  189.4190  176.9720  145.8260 C   0  0  0  0  0  0  0  0  0  0  0  0
  191.8140  177.3020  148.0850 N   0  0  0  0  0  0  0  0  0  0  0  0
  188.3820  178.2590  148.1120 C   0  0  0  0  0  3  0  0  0  0  0  0
  189.9820  176.8590  147.0510 C   0  0  0  0  0  0  0  0  0  0  0  0
  190.5040  176.7920  144.9450 C   0  0  0  0  0  0  0  0  0  0  0  0
  190.7790  177.8130  148.8260 C   0  0  0  0  0  3  0  0  0  0  0  0
  189.5890  177.5540  148.1380 C   0  0  0  0  0  0  0  0  0  0  0  0
  191.2740  176.7150  147.0260 N   0  0  0  0  0  0  0  0  0  0  0  0
  187.6470  178.2490  146.8930 C   0  0  0  0  0  3  0  0  0  0  0  0
  191.6750  176.7170  145.7390 C   0  0  0  0  0  3  0  0  0  0  0  0
  188.1770  177.6380  145.7170 C   0  0  0  0  0  0  0  0  0  0  0  0
  190.5090  176.8750  143.4730 C   0  0  0  0  0  0  0  0  0  0  0  0
  191.5950  177.4580  142.8080 C   0  0  0  0  0  3  0  0  0  0  0  0
  189.4740  176.3060  142.7220 C   0  0  0  0  0  3  0  0  0  0  0  0
  189.5060  176.3500  141.3260 C   0  0  0  0  0  3  0  0  0  0  0  0
  191.6270  177.5030  141.4130 C   0  0  0  0  0  3  0  0  0  0  0  0
  190.5790  176.9530  140.6600 C   0  0  0  0  0  0  0  0  0  0  0  0
  188.8820  178.8670  138.8570 C   0  0  0  0  0  1  0  0  0  0  0  0
  190.5730  176.9730  139.2240 N   0  0  0  0  0  2  0  0  0  0  0  0
  189.8240  177.8290  138.3490 C   0  0  0  0  0  0  0  0  0  0  0  0
  189.9590  177.6990  137.1050 O   0  0  0  0  0  0  0  0  0  0  0  0
  187.4650  177.8100  144.4140 C   0  0  0  0  0  2  0  0  0  0  0  0
  186.0250  178.1730  144.6190 C   0  0  0  0  0  0  0  0  0  0  0  0
  185.1460  178.3860  143.5280 C   0  0  0  0  0  0  0  0  0  0  0  0
  184.2070  178.6280  146.1660 C   0  0  0  0  0  3  0  0  0  0  0  0
  185.5390  178.2860  145.9300 C   0  0  0  0  0  3  0  0  0  0  0  0
  183.3480  178.8610  145.0930 C   0  0  0  0  0  3  0  0  0  0  0  0
  183.8150  178.7350  143.7830 C   0  0  0  0  0  3  0  0  0  0  0  0
  186.8280  179.0260  141.7890 C   0  0  0  0  0  1  0  0  0  0  0  0
  185.5580  178.2450  142.0900 C   0  0  2  0  0  3  0  0  0  0  0  0
  184.4260  178.6220  141.1470 C   0  0  0  0  0  2  0  0  0  0  0  0
  184.9300  179.4490  140.0630 N   0  0  0  0  0  2  0  0  0  0  0  0
  183.9520  179.3900  138.9900 C   0  0  0  0  0  2  0  0  0  0  0  0
  183.8880  177.7090  138.3020 S   0  0  0  0  0  0  0  0  0  0  0  0
  185.5400  177.8550  137.5570 C   0  0  0  0  0  2  0  0  0  0  0  0
  185.5810  177.1300  136.2270 C   0  0  1  0  0  3  0  0  0  0  0  0
  186.8380  177.5280  135.4840 C   0  0  0  0  0  1  0  0  0  0  0  0
  185.5940  175.7520  136.4450 O   0  0  0  0  0  1  0  0  0  0  0  0
  1  4  1  0  0  0  0
  2  6  2  0  0  0  0
  3  7  1  0  0  0  0
  4  7  2  0  0  0  0
  5 10  2  0  0  0  0
  5  1  1  0  0  0  0
  7  6  1  0  0  0  0
  8  4  1  0  0  0  0
  8  2  1  0  0  0  0
  9  3  2  0  0  0  0
 10  8  1  0  0  0  0
 11  1  2  0  0  0  0
 11  9  1  0  0  0  0
 12  5  1  0  0  0  0
 13 12  1  0  0  0  0
 14 12  2  0  0  0  0
 15 14  1  0  0  0  0
 16 13  2  0  0  0  0
 17 15  2  0  0  0  0
 17 16  1  0  0  0  0
 19 17  1  0  0  0  0
 20 18  1  0  0  0  0
 20 19  1  0  0  0  0
 21 20  2  0  0  0  0
 22 23  1  0  0  0  0
 22 11  1  0  0  0  0
 23 26  1  0  0  0  0
 24 28  1  0  0  0  0
 24 23  2  0  0  0  0
 26 25  2  0  0  0  0
 27 25  1  0  0  0  0
 28 27  2  0  0  0  0
 30 29  1  6  0  0  0
 30 24  1  0  0  0  0
 31 30  1  0  0  0  0
 32 31  1  0  0  0  0
 33 32  1  0  0  0  0
 34 33  1  0  0  0  0
 35 34  1  0  0  0  0
 36 37  1  1  0  0  0
 36 38  1  0  0  0  0
 36 35  1  0  0  0  0
M  END
>  <MODEL>
5

>  <REMARK>
 VINA RESULT:      -9.2      2.047      2.891
  Name = 
  11 active torsions:
  status: ('A' for Active; 'I' for Inactive)
    1  A    between atoms: N_3  and  C_38
    2  A    between atoms: C_4  and  C_12
    3  A    between atoms: C_5  and  C_31
    4  A    between atoms: C_6  and  C_23
    5  A    between atoms: C_7  and  C_14
    6  A    between atoms: C_12  and  S_28
    7  A    between atoms: C_14  and  C_22
    8  A    between atoms: C_22  and  N_34
    9  A    between atoms: C_27  and  S_28
   10  A    between atoms: C_27  and  N_34
   11  A    between atoms: C_31  and  C_37
                            x       y       z     vdW  Elec       q    Type
                         _______ _______ _______ _____ _____    ______ ____

>  <TORSDO>
F 11

$$$$
=
 OpenBabel10222416223D

 38 42  0  0  1  0  0  0  0  0999 V2000
  189.1160  176.8040  144.2050 C   0  0  0  0  0  0  0  0  0  0  0  0
  191.8080  177.0140  146.1190 N   0  0  0  0  0  0  0  0  0  0  0  0
  188.3480  177.4660  146.8380 C   0  0  0  0  0  3  0  0  0  0  0  0
  189.8860  176.5340  145.2850 C   0  0  0  0  0  0  0  0  0  0  0  0
  190.0520  176.9510  143.1610 C   0  0  0  0  0  0  0  0  0  0  0  0
  190.8640  177.2240  147.0910 C   0  0  0  0  0  3  0  0  0  0  0  0
  189.6100  176.9430  146.5400 C   0  0  0  0  0  0  0  0  0  0  0  0
  191.1630  176.5760  145.0460 N   0  0  0  0  0  0  0  0  0  0  0  0
  187.4240  177.5930  145.7620 C   0  0  0  0  0  3  0  0  0  0  0  0
  191.3400  176.8840  143.7460 C   0  0  0  0  0  3  0  0  0  0  0  0
  187.8110  177.3020  144.4190 C   0  0  0  0  0  0  0  0  0  0  0  0
  189.8010  177.3190  141.7560 C   0  0  0  0  0  0  0  0  0  0  0  0
  190.4660  176.6420  140.7250 C   0  0  0  0  0  3  0  0  0  0  0  0
  188.8450  178.2880  141.4300 C   0  0  0  0  0  3  0  0  0  0  0  0
  188.5820  178.6020  140.0950 C   0  0  0  0  0  3  0  0  0  0  0  0
  190.2030  176.9560  139.3900 C   0  0  0  0  0  3  0  0  0  0  0  0
  189.2610  177.9430  139.0640 C   0  0  0  0  0  0  0  0  0  0  0  0
  186.9180  176.7770  137.3470 C   0  0  0  0  0  1  0  0  0  0  0  0
  188.9570  178.2940  137.7060 N   0  0  0  0  0  2  0  0  0  0  0  0
  187.8950  177.7990  136.8750 C   0  0  0  0  0  0  0  0  0  0  0  0
  187.7850  178.2360  135.7010 O   0  0  0  0  0  0  0  0  0  0  0  0
  186.8770  177.6250  143.2980 C   0  0  0  0  0  2  0  0  0  0  0  0
  185.5610  178.1300  143.8090 C   0  0  0  0  0  0  0  0  0  0  0  0
  184.4560  178.3390  142.9460 C   0  0  0  0  0  0  0  0  0  0  0  0
  184.2170  178.8580  145.6980 C   0  0  0  0  0  3  0  0  0  0  0  0
  185.4220  178.3820  145.1810 C   0  0  0  0  0  3  0  0  0  0  0  0
  183.1370  179.0870  144.8460 C   0  0  0  0  0  3  0  0  0  0  0  0
  183.2560  178.8240  143.4790 C   0  0  0  0  0  3  0  0  0  0  0  0
  185.1080  179.2060  140.6910 C   0  0  0  0  0  1  0  0  0  0  0  0
  184.4890  178.0560  141.4710 C   0  0  2  0  0  3  0  0  0  0  0  0
  183.1090  177.6920  140.9420 C   0  0  0  0  0  2  0  0  0  0  0  0
  182.7120  178.6210  139.8970 N   0  0  0  0  0  2  0  0  0  0  0  0
  181.3820  179.1010  140.2350 C   0  0  0  0  0  2  0  0  0  0  0  0
  180.2280  178.7300  138.8800 S   0  0  0  0  0  0  0  0  0  0  0  0
  179.7080  180.4650  138.7300 C   0  0  0  0  0  2  0  0  0  0  0  0
  180.4160  181.1240  137.5630 C   0  0  1  0  0  3  0  0  0  0  0  0
  181.3710  182.1720  138.0910 C   0  0  0  0  0  1  0  0  0  0  0  0
  181.1360  180.1660  136.8490 O   0  0  0  0  0  1  0  0  0  0  0  0
  1 11  2  0  0  0  0
  1  4  1  0  0  0  0
  2  6  2  0  0  0  0
  4  7  2  0  0  0  0
  5 10  2  0  0  0  0
  5  1  1  0  0  0  0
  7  3  1  0  0  0  0
  7  6  1  0  0  0  0
  8  4  1  0  0  0  0
  8  2  1  0  0  0  0
  9  3  2  0  0  0  0
 10  8  1  0  0  0  0
 11  9  1  0  0  0  0
 12  5  1  0  0  0  0
 13 12  2  0  0  0  0
 14 12  1  0  0  0  0
 15 14  2  0  0  0  0
 16 13  1  0  0  0  0
 17 16  2  0  0  0  0
 17 15  1  0  0  0  0
 19 17  1  0  0  0  0
 20 18  1  0  0  0  0
 20 19  1  0  0  0  0
 21 20  2  0  0  0  0
 22 23  1  0  0  0  0
 22 11  1  0  0  0  0
 23 26  1  0  0  0  0
 24 28  1  0  0  0  0
 24 23  2  0  0  0  0
 26 25  2  0  0  0  0
 27 25  1  0  0  0  0
 28 27  2  0  0  0  0
 30 29  1  6  0  0  0
 30 24  1  0  0  0  0
 31 30  1  0  0  0  0
 32 33  1  0  0  0  0
 32 31  1  0  0  0  0
 34 33  1  0  0  0  0
 35 34  1  0  0  0  0
 36 37  1  1  0  0  0
 36 35  1  0  0  0  0
 38 36  1  0  0  0  0
M  END
>  <MODEL>
6

>  <REMARK>
 VINA RESULT:      -8.8      2.443      3.789
  Name = 
  11 active torsions:
  status: ('A' for Active; 'I' for Inactive)
    1  A    between atoms: N_3  and  C_38
    2  A    between atoms: C_4  and  C_12
    3  A    between atoms: C_5  and  C_31
    4  A    between atoms: C_6  and  C_23
    5  A    between atoms: C_7  and  C_14
    6  A    between atoms: C_12  and  S_28
    7  A    between atoms: C_14  and  C_22
    8  A    between atoms: C_22  and  N_34
    9  A    between atoms: C_27  and  S_28
   10  A    between atoms: C_27  and  N_34
   11  A    between atoms: C_31  and  C_37
                            x       y       z     vdW  Elec       q    Type
                         _______ _______ _______ _____ _____    ______ ____

>  <TORSDO>
F 11

$$$$
=
 OpenBabel10222416223D

 38 42  0  0  1  0  0  0  0  0999 V2000
  188.0650  177.2250  144.6790 C   0  0  0  0  0  0  0  0  0  0  0  0
  190.2540  177.5380  147.1400 N   0  0  0  0  0  0  0  0  0  0  0  0
  186.7490  178.1610  146.9920 C   0  0  0  0  0  3  0  0  0  0  0  0
  188.5520  177.0370  145.9270 C   0  0  0  0  0  0  0  0  0  0  0  0
  189.2210  177.2420  143.8720 C   0  0  0  0  0  0  0  0  0  0  0  0
  189.1250  177.8690  147.8440 C   0  0  0  0  0  3  0  0  0  0  0  0
  188.0170  177.5730  147.0430 C   0  0  0  0  0  0  0  0  0  0  0  0
  189.8500  177.0180  145.9890 N   0  0  0  0  0  0  0  0  0  0  0  0
  186.1040  178.2100  145.7240 C   0  0  0  0  0  3  0  0  0  0  0  0
  190.3350  177.1940  144.7440 C   0  0  0  0  0  3  0  0  0  0  0  0
  186.7720  177.7800  144.5390 C   0  0  0  0  0  0  0  0  0  0  0  0
  189.3180  177.4800  142.4210 C   0  0  0  0  0  0  0  0  0  0  0  0
  190.1700  176.6920  141.6370 C   0  0  0  0  0  3  0  0  0  0  0  0
  188.5080  178.4370  141.7970 C   0  0  0  0  0  3  0  0  0  0  0  0
  188.5740  178.6280  140.4150 C   0  0  0  0  0  3  0  0  0  0  0  0
  190.2360  176.8830  140.2550 C   0  0  0  0  0  3  0  0  0  0  0  0
  189.4410  177.8570  139.6330 C   0  0  0  0  0  0  0  0  0  0  0  0
  187.7940  176.2880  137.4840 C   0  0  0  0  0  1  0  0  0  0  0  0
  189.4740  178.0840  138.2160 N   0  0  0  0  0  2  0  0  0  0  0  0
  188.7380  177.4030  137.1880 C   0  0  0  0  0  0  0  0  0  0  0  0
  188.8980  177.7520  135.9900 O   0  0  0  0  0  0  0  0  0  0  0  0
  186.1380  178.0210  143.2070 C   0  0  0  0  0  2  0  0  0  0  0  0
  184.6820  178.3520  143.3450 C   0  0  0  0  0  0  0  0  0  0  0  0
  183.7950  178.2970  142.2410 C   0  0  0  0  0  0  0  0  0  0  0  0
  182.8420  179.0300  144.7810 C   0  0  0  0  0  3  0  0  0  0  0  0
  184.1890  178.7080  144.6090 C   0  0  0  0  0  3  0  0  0  0  0  0
  181.9750  179.0000  143.6900 C   0  0  0  0  0  3  0  0  0  0  0  0
  182.4490  178.6310  142.4290 C   0  0  0  0  0  3  0  0  0  0  0  0
  184.7030  179.0700  140.0410 C   0  0  0  0  0  1  0  0  0  0  0  0
  184.2160  177.8840  140.8580 C   0  0  2  0  0  3  0  0  0  0  0  0
  183.1100  177.1220  140.1440 C   0  0  0  0  0  2  0  0  0  0  0  0
  183.2130  177.3180  138.7080 N   0  0  0  0  0  2  0  0  0  0  0  0
  183.0560  176.0130  138.0860 C   0  0  0  0  0  2  0  0  0  0  0  0
  181.5170  175.9680  137.1210 S   0  0  0  0  0  0  0  0  0  0  0  0
  180.6280  175.0510  138.4140 C   0  0  0  0  0  2  0  0  0  0  0  0
  179.5610  175.9280  139.0380 C   0  0  1  0  0  3  0  0  0  0  0  0
  179.6820  175.8580  140.5450 C   0  0  0  0  0  1  0  0  0  0  0  0
  179.7380  177.2480  138.6240 O   0  0  0  0  0  1  0  0  0  0  0  0
  1  4  1  0  0  0  0
  2  6  2  0  0  0  0
  3  7  1  0  0  0  0
  4  8  1  0  0  0  0
  4  7  2  0  0  0  0
  5  1  1  0  0  0  0
  5 10  2  0  0  0  0
  7  6  1  0  0  0  0
  8  2  1  0  0  0  0
  9  3  2  0  0  0  0
 10  8  1  0  0  0  0
 11  1  2  0  0  0  0
 11  9  1  0  0  0  0
 12  5  1  0  0  0  0
 13 12  2  0  0  0  0
 14 12  1  0  0  0  0
 15 14  2  0  0  0  0
 16 13  1  0  0  0  0
 17 16  2  0  0  0  0
 17 15  1  0  0  0  0
 19 17  1  0  0  0  0
 20 18  1  0  0  0  0
 20 19  1  0  0  0  0
 21 20  2  0  0  0  0
 22 23  1  0  0  0  0
 22 11  1  0  0  0  0
 23 26  1  0  0  0  0
 24 28  1  0  0  0  0
 24 23  2  0  0  0  0
 26 25  2  0  0  0  0
 27 25  1  0  0  0  0
 28 27  2  0  0  0  0
 30 29  1  6  0  0  0
 30 24  1  0  0  0  0
 31 30  1  0  0  0  0
 32 31  1  0  0  0  0
 33 32  1  0  0  0  0
 34 33  1  0  0  0  0
 34 35  1  0  0  0  0
 35 36  1  0  0  0  0
 36 37  1  1  0  0  0
 38 36  1  0  0  0  0
M  END
>  <MODEL>
7

>  <REMARK>
 VINA RESULT:      -8.8      1.834      2.411
  Name = 
  11 active torsions:
  status: ('A' for Active; 'I' for Inactive)
    1  A    between atoms: N_3  and  C_38
    2  A    between atoms: C_4  and  C_12
    3  A    between atoms: C_5  and  C_31
    4  A    between atoms: C_6  and  C_23
    5  A    between atoms: C_7  and  C_14
    6  A    between atoms: C_12  and  S_28
    7  A    between atoms: C_14  and  C_22
    8  A    between atoms: C_22  and  N_34
    9  A    between atoms: C_27  and  S_28
   10  A    between atoms: C_27  and  N_34
   11  A    between atoms: C_31  and  C_37
                            x       y       z     vdW  Elec       q    Type
                         _______ _______ _______ _____ _____    ______ ____

>  <TORSDO>
F 11

$$$$
=
 OpenBabel10222416223D

 38 42  0  0  1  0  0  0  0  0999 V2000
  189.0370  176.8980  144.2400 C   0  0  0  0  0  0  0  0  0  0  0  0
  191.6800  177.1270  146.2190 N   0  0  0  0  0  0  0  0  0  0  0  0
  188.2010  177.5770  146.8480 C   0  0  0  0  0  3  0  0  0  0  0  0
  189.7800  176.6370  145.3410 C   0  0  0  0  0  0  0  0  0  0  0  0
  189.9990  177.0400  143.2190 C   0  0  0  0  0  0  0  0  0  0  0  0
  190.7110  177.3420  147.1660 C   0  0  0  0  0  3  0  0  0  0  0  0
  189.4720  177.0540  146.5860 C   0  0  0  0  0  0  0  0  0  0  0  0
  191.0630  176.6810  145.1340 N   0  0  0  0  0  0  0  0  0  0  0  0
  187.3050  177.6940  145.7490 C   0  0  0  0  0  3  0  0  0  0  0  0
  191.2720  176.9800  143.8370 C   0  0  0  0  0  3  0  0  0  0  0  0
  187.7250  177.3950  144.4180 C   0  0  0  0  0  0  0  0  0  0  0  0
  189.7820  177.3980  141.8060 C   0  0  0  0  0  0  0  0  0  0  0  0
  190.5120  176.7510  140.8000 C   0  0  0  0  0  3  0  0  0  0  0  0
  188.7970  178.3250  141.4450 C   0  0  0  0  0  3  0  0  0  0  0  0
  188.5680  178.6280  140.1010 C   0  0  0  0  0  3  0  0  0  0  0  0
  190.2830  177.0540  139.4560 C   0  0  0  0  0  3  0  0  0  0  0  0
  189.3120  178.0000  139.0950 C   0  0  0  0  0  0  0  0  0  0  0  0
  187.5870  176.3210  137.0960 C   0  0  0  0  0  1  0  0  0  0  0  0
  189.0410  178.3380  137.7270 N   0  0  0  0  0  2  0  0  0  0  0  0
  188.2540  177.6130  136.7690 C   0  0  0  0  0  0  0  0  0  0  0  0
  188.1260  178.0770  135.6080 O   0  0  0  0  0  0  0  0  0  0  0  0
  186.8200  177.7080  143.2720 C   0  0  0  0  0  2  0  0  0  0  0  0
  185.4840  178.1970  143.7460 C   0  0  0  0  0  0  0  0  0  0  0  0
  184.3740  178.3040  142.8710 C   0  0  0  0  0  0  0  0  0  0  0  0
  184.1080  179.0030  145.5800 C   0  0  0  0  0  3  0  0  0  0  0  0
  185.3320  178.5370  145.0980 C   0  0  0  0  0  3  0  0  0  0  0  0
  183.0230  179.1320  144.7140 C   0  0  0  0  0  3  0  0  0  0  0  0
  183.1560  178.7800  143.3690 C   0  0  0  0  0  3  0  0  0  0  0  0
  185.0370  179.0220  140.5670 C   0  0  0  0  0  1  0  0  0  0  0  0
  184.4220  177.9220  141.4180 C   0  0  2  0  0  3  0  0  0  0  0  0
  183.0510  177.5100  140.9050 C   0  0  0  0  0  2  0  0  0  0  0  0
  183.1860  176.7170  139.6950 N   0  0  0  0  0  2  0  0  0  0  0  0
  182.1290  177.1370  138.7890 C   0  0  0  0  0  2  0  0  0  0  0  0
  182.1050  176.0600  137.3250 S   0  0  0  0  0  0  0  0  0  0  0  0
  183.8060  175.4840  137.6110 C   0  0  0  0  0  2  0  0  0  0  0  0
  183.9780  174.0760  137.0790 C   0  0  1  0  0  3  0  0  0  0  0  0
  184.6720  174.1360  135.7350 C   0  0  0  0  0  1  0  0  0  0  0  0
  184.7580  173.3310  137.9650 O   0  0  0  0  0  1  0  0  0  0  0  0
  1 11  2  0  0  0  0
  1  4  1  0  0  0  0
  2  6  2  0  0  0  0
  4  7  2  0  0  0  0
  5 10  2  0  0  0  0
  5  1  1  0  0  0  0
  7  3  1  0  0  0  0
  7  6  1  0  0  0  0
  8  4  1  0  0  0  0
  8  2  1  0  0  0  0
  9  3  2  0  0  0  0
 10  8  1  0  0  0  0
 11  9  1  0  0  0  0
 12  5  1  0  0  0  0
 13 12  2  0  0  0  0
 14 12  1  0  0  0  0
 15 14  2  0  0  0  0
 16 13  1  0  0  0  0
 17 16  2  0  0  0  0
 17 15  1  0  0  0  0
 19 17  1  0  0  0  0
 20 18  1  0  0  0  0
 20 19  1  0  0  0  0
 21 20  2  0  0  0  0
 22 23  1  0  0  0  0
 22 11  1  0  0  0  0
 23 26  1  0  0  0  0
 24 28  1  0  0  0  0
 24 23  2  0  0  0  0
 26 25  2  0  0  0  0
 27 25  1  0  0  0  0
 28 27  2  0  0  0  0
 30 29  1  6  0  0  0
 30 24  1  0  0  0  0
 31 30  1  0  0  0  0
 32 31  1  0  0  0  0
 33 32  1  0  0  0  0
 34 35  1  0  0  0  0
 34 33  1  0  0  0  0
 36 37  1  6  0  0  0
 36 35  1  0  0  0  0
 36 38  1  0  0  0  0
M  END
>  <MODEL>
8

>  <REMARK>
 VINA RESULT:      -8.7      1.380      2.108
  Name = 
  11 active torsions:
  status: ('A' for Active; 'I' for Inactive)
    1  A    between atoms: N_3  and  C_38
    2  A    between atoms: C_4  and  C_12
    3  A    between atoms: C_5  and  C_31
    4  A    between atoms: C_6  and  C_23
    5  A    between atoms: C_7  and  C_14
    6  A    between atoms: C_12  and  S_28
    7  A    between atoms: C_14  and  C_22
    8  A    between atoms: C_22  and  N_34
    9  A    between atoms: C_27  and  S_28
   10  A    between atoms: C_27  and  N_34
   11  A    between atoms: C_31  and  C_37
                            x       y       z     vdW  Elec       q    Type
                         _______ _______ _______ _____ _____    ______ ____

>  <TORSDO>
F 11

$$$$
=
 OpenBabel10222416223D

 38 42  0  0  1  0  0  0  0  0999 V2000
  186.0560  178.5340  143.6950 C   0  0  0  0  0  0  0  0  0  0  0  0
  184.1800  178.6280  146.4200 N   0  0  0  0  0  0  0  0  0  0  0  0
  187.5210  177.5120  145.8790 C   0  0  0  0  0  3  0  0  0  0  0  0
  185.7640  178.8370  144.9810 C   0  0  0  0  0  0  0  0  0  0  0  0
  184.8140  178.6480  143.0390 C   0  0  0  0  0  0  0  0  0  0  0  0
  185.3360  178.1690  146.9980 C   0  0  0  0  0  3  0  0  0  0  0  0
  186.3610  178.2740  146.0510 C   0  0  0  0  0  0  0  0  0  0  0  0
  184.4990  179.0410  145.2010 N   0  0  0  0  0  0  0  0  0  0  0  0
  187.9840  177.3230  144.5470 C   0  0  0  0  0  3  0  0  0  0  0  0
  183.8380  178.8870  144.0370 C   0  0  0  0  0  3  0  0  0  0  0  0
  187.2330  177.7970  143.4300 C   0  0  0  0  0  0  0  0  0  0  0  0
  184.4990  178.3700  141.6260 C   0  0  0  0  0  0  0  0  0  0  0  0
  183.4300  177.5240  141.2990 C   0  0  0  0  0  3  0  0  0  0  0  0
  185.2070  179.0030  140.5970 C   0  0  0  0  0  3  0  0  0  0  0  0
  184.8750  178.7680  139.2610 C   0  0  0  0  0  3  0  0  0  0  0  0
  183.0990  177.2890  139.9630 C   0  0  0  0  0  3  0  0  0  0  0  0
  183.8230  177.9060  138.9320 C   0  0  0  0  0  0  0  0  0  0  0  0
  181.3060  178.9960  137.4260 C   0  0  0  0  0  1  0  0  0  0  0  0
  183.5140  177.6950  137.5460 N   0  0  0  0  0  2  0  0  0  0  0  0
  182.3830  178.1750  136.8030 C   0  0  0  0  0  0  0  0  0  0  0  0
  182.2890  177.8890  135.5820 O   0  0  0  0  0  0  0  0  0  0  0  0
  187.6520  177.4170  142.0460 C   0  0  0  0  0  2  0  0  0  0  0  0
  189.1430  177.4490  141.8960 C   0  0  0  0  0  0  0  0  0  0  0  0
  189.7690  177.3620  140.6280 C   0  0  0  0  0  0  0  0  0  0  0  0
  191.3250  177.6150  142.9540 C   0  0  0  0  0  3  0  0  0  0  0  0
  189.9330  177.5870  143.0470 C   0  0  0  0  0  3  0  0  0  0  0  0
  191.9410  177.5050  141.7080 C   0  0  0  0  0  3  0  0  0  0  0  0
  191.1660  177.3840  140.5520 C   0  0  0  0  0  3  0  0  0  0  0  0
  189.7110  176.3390  138.3440 C   0  0  0  0  0  1  0  0  0  0  0  0
  189.0110  177.2570  139.3340 C   0  0  2  0  0  3  0  0  0  0  0  0
  188.7370  178.6290  138.7360 C   0  0  0  0  0  2  0  0  0  0  0  0
  188.9400  178.5990  137.2980 N   0  0  0  0  0  2  0  0  0  0  0  0
  187.6250  178.6310  136.6790 C   0  0  0  0  0  2  0  0  0  0  0  0
  187.5590  177.4440  135.3040 S   0  0  0  0  0  0  0  0  0  0  0  0
  186.5370  176.2730  136.2470 C   0  0  0  0  0  2  0  0  0  0  0  0
  187.0530  174.8610  136.0600 C   0  0  1  0  0  3  0  0  0  0  0  0
  186.5860  174.0060  137.2190 C   0  0  0  0  0  1  0  0  0  0  0  0
  186.5530  174.3320  134.8700 O   0  0  0  0  0  1  0  0  0  0  0  0
  1  4  1  0  0  0  0
  2  6  2  0  0  0  0
  3  7  1  0  0  0  0
  4  8  1  0  0  0  0
  4  7  2  0  0  0  0
  5  1  1  0  0  0  0
  5 10  2  0  0  0  0
  7  6  1  0  0  0  0
  8  2  1  0  0  0  0
  9  3  2  0  0  0  0
 10  8  1  0  0  0  0
 11  1  2  0  0  0  0
 11  9  1  0  0  0  0
 12  5  1  0  0  0  0
 13 12  1  0  0  0  0
 14 12  2  0  0  0  0
 15 14  1  0  0  0  0
 16 13  2  0  0  0  0
 17 15  2  0  0  0  0
 17 16  1  0  0  0  0
 19 17  1  0  0  0  0
 20 18  1  0  0  0  0
 20 19  1  0  0  0  0
 21 20  2  0  0  0  0
 22 11  1  0  0  0  0
 23 22  1  0  0  0  0
 23 26  1  0  0  0  0
 24 23  2  0  0  0  0
 25 26  2  0  0  0  0
 27 25  1  0  0  0  0
 28 24  1  0  0  0  0
 28 27  2  0  0  0  0
 30 29  1  6  0  0  0
 30 24  1  0  0  0  0
 31 30  1  0  0  0  0
 32 31  1  0  0  0  0
 33 32  1  0  0  0  0
 34 35  1  0  0  0  0
 34 33  1  0  0  0  0
 36 35  1  0  0  0  0
 36 37  1  1  0  0  0
 38 36  1  0  0  0  0
M  END
>  <MODEL>
9

>  <REMARK>
 VINA RESULT:      -8.7      2.303      5.462
  Name = 
  11 active torsions:
  status: ('A' for Active; 'I' for Inactive)
    1  A    between atoms: N_3  and  C_38
    2  A    between atoms: C_4  and  C_12
    3  A    between atoms: C_5  and  C_31
    4  A    between atoms: C_6  and  C_23
    5  A    between atoms: C_7  and  C_14
    6  A    between atoms: C_12  and  S_28
    7  A    between atoms: C_14  and  C_22
    8  A    between atoms: C_22  and  N_34
    9  A    between atoms: C_27  and  S_28
   10  A    between atoms: C_27  and  N_34
   11  A    between atoms: C_31  and  C_37
                            x       y       z     vdW  Elec       q    Type
                         _______ _______ _______ _____ _____    ______ ____

>  <TORSDO>
F 11

$$$$
