=
 OpenBabel10222416533D

 28 31  0  0  1  0  0  0  0  0999 V2000
  185.0430  178.3990  144.7040 C   0  0  0  0  0  3  0  0  0  0  0  0
  191.5600  177.1960  145.1110 C   0  0  0  0  0  3  0  0  0  0  0  0
  190.5660  177.0450  147.2580 C   0  0  0  0  0  0  0  0  0  0  0  0
  189.3710  177.1960  148.0260 N   0  0  0  0  0  0  0  0  0  0  0  0
  184.9760  179.1510  142.4100 C   0  0  0  0  0  3  0  0  0  0  0  0
  188.2620  175.8240  143.2150 C   0  0  0  0  0  2  0  0  0  0  0  0
  184.3880  179.0860  143.6800 C   0  0  0  0  0  0  0  0  0  0  0  0
  191.6420  176.8670  143.3500 S   0  0  0  0  0  0  0  0  0  0  0  0
  186.1960  178.5160  142.1670 C   0  0  0  0  0  3  0  0  0  0  0  0
  191.6930  176.9360  147.8850 N   0  0  0  0  0  2  0  0  0  0  0  0
  186.2710  177.7650  144.4730 C   0  0  0  0  0  0  0  0  0  0  0  0
  186.8520  177.8080  143.1850 C   0  0  0  0  0  0  0  0  0  0  0  0
  188.2690  177.6840  147.5560 C   0  0  0  0  0  0  0  0  0  0  0  0
  187.4960  178.2250  146.5520 C   0  0  2  0  0  3  0  0  0  0  0  0
  189.2340  177.7740  141.6430 S   0  0  0  0  0  0  0  0  0  0  0  0
  186.8490  178.1160  147.7530 O   0  0  0  0  0  0  0  0  0  0  0  0
  188.1030  177.0940  142.8550 C   0  0  0  0  0  0  0  0  0  0  0  0
  190.5230  176.9000  145.8280 N   0  0  0  0  0  0  0  0  0  0  0  0
  186.9820  177.1380  145.6300 C   0  0  0  0  0  2  0  0  0  0  0  0
  190.6540  179.3100  143.2370 O   0  0  0  0  0  0  0  0  0  0  0  0
  190.5050  178.1620  142.8480 C   0  0  0  0  0  0  0  0  0  0  0  0
  183.1620  179.7000  143.9530 O   0  0  0  0  0  0  0  0  0  0  0  0
  181.9400  178.9790  144.0130 C   0  0  0  0  0  2  0  0  0  0  0  0
  181.2890  178.9760  142.6460 C   0  0  0  0  0  2  0  0  0  0  0  0
  179.8640  179.5060  142.7580 C   0  0  2  0  0  3  0  0  0  0  0  0
  179.3390  180.2230  141.5540 C   0  0  1  0  0  3  0  0  0  0  0  0
  179.8810  180.9100  142.6590 O   0  0  0  0  0  0  0  0  0  0  0  0
  180.2990  180.3300  140.3750 C   0  0  0  0  0  1  0  0  0  0  0  0
  2 18  2  0  0  0  0
  3 10  2  0  0  0  0
  3  4  1  0  0  0  0
  5  7  1  0  0  0  0
  7 22  1  0  0  0  0
  7  1  2  0  0  0  0
  8  2  1  0  0  0  0
  9  5  2  0  0  0  0
  9 12  1  0  0  0  0
 11  1  1  0  0  0  0
 11 19  1  0  0  0  0
 12 11  2  0  0  0  0
 13 16  1  0  0  0  0
 13  4  2  0  0  0  0
 14 19  1  6  0  0  0
 14 13  1  0  0  0  0
 14 16  1  0  0  0  0
 15 21  1  0  0  0  0
 15 17  1  0  0  0  0
 17 12  1  0  0  0  0
 17  6  2  0  0  0  0
 18  3  1  0  0  0  0
 21 20  2  0  0  0  0
 21  8  1  0  0  0  0
 22 23  1  0  0  0  0
 24 23  1  0  0  0  0
 25 24  1  6  0  0  0
 26 28  1  6  0  0  0
 26 27  1  0  0  0  0
 26 25  1  0  0  0  0
 27 25  1  0  0  0  0
M  END
>  <MODEL>
1

>  <REMARK>
 VINA RESULT:      -9.0      0.000      0.000
  Name = 
  4 active torsions:
  status: ('A' for Active; 'I' for Inactive)
    1  A    between atoms: C_7  and  O_28
    2  A    between atoms: C_15  and  C_26
    3  A    between atoms: C_15  and  O_28
    4  A    between atoms: C_17  and  C_26
                            x       y       z     vdW  Elec       q    Type
                         _______ _______ _______ _____ _____    ______ ____

>  <TORSDO>
F 4

$$$$
=
 OpenBabel10222416533D

 28 31  0  0  1  0  0  0  0  0999 V2000
  185.2450  178.5110  142.2530 C   0  0  0  0  0  3  0  0  0  0  0  0
  190.2820  177.7200  146.5070 C   0  0  0  0  0  3  0  0  0  0  0  0
  188.2380  177.9180  147.6900 C   0  0  0  0  0  0  0  0  0  0  0  0
  186.8310  178.1500  147.5980 N   0  0  0  0  0  0  0  0  0  0  0  0
  186.5430  178.8240  140.2410 C   0  0  0  0  0  3  0  0  0  0  0  0
  188.5630  175.8650  143.3510 C   0  0  0  0  0  2  0  0  0  0  0  0
  185.3350  178.9660  140.9360 C   0  0  0  0  0  0  0  0  0  0  0  0
  191.3280  177.0770  145.1980 S   0  0  0  0  0  0  0  0  0  0  0  0
  187.6390  178.2160  140.8540 C   0  0  0  0  0  3  0  0  0  0  0  0
  188.7990  177.9810  148.8540 N   0  0  0  0  0  2  0  0  0  0  0  0
  186.3430  177.9050  142.8800 C   0  0  0  0  0  0  0  0  0  0  0  0
  187.5530  177.7390  142.1700 C   0  0  0  0  0  0  0  0  0  0  0  0
  186.2260  178.4900  146.5070 C   0  0  0  0  0  0  0  0  0  0  0  0
  186.1970  178.7990  145.1650 C   0  0  2  0  0  3  0  0  0  0  0  0
  190.3810  177.5380  142.2960 S   0  0  0  0  0  0  0  0  0  0  0  0
  184.9780  178.8810  145.7790 O   0  0  0  0  0  0  0  0  0  0  0  0
  188.7200  177.0380  142.7460 C   0  0  0  0  0  0  0  0  0  0  0  0
  189.0050  177.5110  146.5440 N   0  0  0  0  0  0  0  0  0  0  0  0
  186.2270  177.5370  144.3260 C   0  0  0  0  0  2  0  0  0  0  0  0
  190.7420  179.4070  144.1100 O   0  0  0  0  0  0  0  0  0  0  0  0
  190.7650  178.2010  143.9180 C   0  0  0  0  0  0  0  0  0  0  0  0
  184.2140  179.5590  140.3480 O   0  0  0  0  0  0  0  0  0  0  0  0
  183.2290  178.8130  139.6490 C   0  0  0  0  0  2  0  0  0  0  0  0
  182.3190  178.1230  140.6430 C   0  0  0  0  0  2  0  0  0  0  0  0
  181.0380  178.9320  140.8080 C   0  0  2  0  0  3  0  0  0  0  0  0
  180.7340  179.3960  142.1970 C   0  0  1  0  0  3  0  0  0  0  0  0
  180.1530  178.2340  141.6520 O   0  0  0  0  0  0  0  0  0  0  0  0
  181.7460  178.9980  143.2650 C   0  0  0  0  0  1  0  0  0  0  0  0
  1 11  1  0  0  0  0
  2 18  2  0  0  0  0
  3 10  2  0  0  0  0
  4  3  1  0  0  0  0
  5  9  2  0  0  0  0
  5  7  1  0  0  0  0
  7  1  2  0  0  0  0
  8  2  1  0  0  0  0
  9 12  1  0  0  0  0
 11 19  1  0  0  0  0
 12 17  1  0  0  0  0
 12 11  2  0  0  0  0
 13  4  2  0  0  0  0
 14 19  1  6  0  0  0
 14 16  1  0  0  0  0
 14 13  1  0  0  0  0
 15 17  1  0  0  0  0
 15 21  1  0  0  0  0
 16 13  1  0  0  0  0
 17  6  2  0  0  0  0
 18  3  1  0  0  0  0
 21 20  2  0  0  0  0
 21  8  1  0  0  0  0
 22  7  1  0  0  0  0
 23 22  1  0  0  0  0
 23 24  1  0  0  0  0
 25 24  1  1  0  0  0
 25 27  1  0  0  0  0
 25 26  1  0  0  0  0
 26 28  1  1  0  0  0
 27 26  1  0  0  0  0
M  END
>  <MODEL>
2

>  <REMARK>
 VINA RESULT:      -8.2      1.757      2.383
  Name = 
  4 active torsions:
  status: ('A' for Active; 'I' for Inactive)
    1  A    between atoms: C_7  and  O_28
    2  A    between atoms: C_15  and  C_26
    3  A    between atoms: C_15  and  O_28
    4  A    between atoms: C_17  and  C_26
                            x       y       z     vdW  Elec       q    Type
                         _______ _______ _______ _____ _____    ______ ____

>  <TORSDO>
F 4

$$$$
=
 OpenBabel10222416533D

 28 31  0  0  1  0  0  0  0  0999 V2000
  185.1320  178.5680  142.2900 C   0  0  0  0  0  3  0  0  0  0  0  0
  190.1560  177.7600  146.5550 C   0  0  0  0  0  3  0  0  0  0  0  0
  188.1120  177.9810  147.7340 C   0  0  0  0  0  0  0  0  0  0  0  0
  186.7070  178.2240  147.6390 N   0  0  0  0  0  0  0  0  0  0  0  0
  186.4350  178.8600  140.2780 C   0  0  0  0  0  3  0  0  0  0  0  0
  188.4260  175.9020  143.4070 C   0  0  0  0  0  2  0  0  0  0  0  0
  185.2270  179.0150  140.9710 C   0  0  0  0  0  0  0  0  0  0  0  0
  191.1990  177.1010  145.2510 S   0  0  0  0  0  0  0  0  0  0  0  0
  187.5250  178.2460  140.8950 C   0  0  0  0  0  3  0  0  0  0  0  0
  188.6720  178.0460  148.8980 N   0  0  0  0  0  2  0  0  0  0  0  0
  186.2240  177.9570  142.9220 C   0  0  0  0  0  0  0  0  0  0  0  0
  187.4330  177.7780  142.2140 C   0  0  0  0  0  0  0  0  0  0  0  0
  186.1070  178.5620  146.5450 C   0  0  0  0  0  0  0  0  0  0  0  0
  186.0820  178.8650  145.2010 C   0  0  2  0  0  3  0  0  0  0  0  0
  190.2600  177.5540  142.3450 S   0  0  0  0  0  0  0  0  0  0  0  0
  184.8630  178.9600  145.8130 O   0  0  0  0  0  0  0  0  0  0  0  0
  188.5940  177.0700  142.7950 C   0  0  0  0  0  0  0  0  0  0  0  0
  188.8770  177.5620  146.5920 N   0  0  0  0  0  0  0  0  0  0  0  0
  186.1030  177.5980  144.3690 C   0  0  0  0  0  2  0  0  0  0  0  0
  190.6330  179.4300  144.1490 O   0  0  0  0  0  0  0  0  0  0  0  0
  190.6470  178.2230  143.9640 C   0  0  0  0  0  0  0  0  0  0  0  0
  184.1110  179.6150  140.3770 O   0  0  0  0  0  0  0  0  0  0  0  0
  183.9540  179.7160  138.9690 C   0  0  0  0  0  2  0  0  0  0  0  0
  183.0880  178.5770  138.4750 C   0  0  0  0  0  2  0  0  0  0  0  0
  181.8200  178.4970  139.3180 C   0  0  2  0  0  3  0  0  0  0  0  0
  181.5020  177.1520  139.8920 C   0  0  1  0  0  3  0  0  0  0  0  0
  180.9080  177.6190  138.7030 O   0  0  0  0  0  0  0  0  0  0  0  0
  182.4880  176.0390  139.5570 C   0  0  0  0  0  1  0  0  0  0  0  0
  1 11  1  0  0  0  0
  2 18  2  0  0  0  0
  3 10  2  0  0  0  0
  4  3  1  0  0  0  0
  5  9  2  0  0  0  0
  5  7  1  0  0  0  0
  7  1  2  0  0  0  0
  8  2  1  0  0  0  0
  9 12  1  0  0  0  0
 11 19  1  0  0  0  0
 12 17  1  0  0  0  0
 12 11  2  0  0  0  0
 13  4  2  0  0  0  0
 14 19  1  6  0  0  0
 14 16  1  0  0  0  0
 14 13  1  0  0  0  0
 15 17  1  0  0  0  0
 15 21  1  0  0  0  0
 16 13  1  0  0  0  0
 17  6  2  0  0  0  0
 18  3  1  0  0  0  0
 21 20  2  0  0  0  0
 21  8  1  0  0  0  0
 22  7  1  0  0  0  0
 23 22  1  0  0  0  0
 24 23  1  0  0  0  0
 25 24  1  6  0  0  0
 25 26  1  0  0  0  0
 26 28  1  6  0  0  0
 27 25  1  0  0  0  0
 27 26  1  0  0  0  0
M  END
>  <MODEL>
3

>  <REMARK>
 VINA RESULT:      -8.2      2.316      2.939
  Name = 
  4 active torsions:
  status: ('A' for Active; 'I' for Inactive)
    1  A    between atoms: C_7  and  O_28
    2  A    between atoms: C_15  and  C_26
    3  A    between atoms: C_15  and  O_28
    4  A    between atoms: C_17  and  C_26
                            x       y       z     vdW  Elec       q    Type
                         _______ _______ _______ _____ _____    ______ ____

>  <TORSDO>
F 4

$$$$
=
 OpenBabel10222416533D

 28 31  0  0  1  0  0  0  0  0999 V2000
  185.0760  178.5800  142.2860 C   0  0  0  0  0  3  0  0  0  0  0  0
  190.0910  177.7620  146.5610 C   0  0  0  0  0  3  0  0  0  0  0  0
  188.0470  178.0030  147.7360 C   0  0  0  0  0  0  0  0  0  0  0  0
  186.6440  178.2530  147.6390 N   0  0  0  0  0  0  0  0  0  0  0  0
  186.3830  178.8530  140.2740 C   0  0  0  0  0  3  0  0  0  0  0  0
  188.3520  175.8990  143.4210 C   0  0  0  0  0  2  0  0  0  0  0  0
  185.1750  179.0200  140.9650 C   0  0  0  0  0  0  0  0  0  0  0  0
  191.1300  177.0900  145.2620 S   0  0  0  0  0  0  0  0  0  0  0  0
  187.4690  178.2350  140.8960 C   0  0  0  0  0  3  0  0  0  0  0  0
  188.6060  178.0700  148.9010 N   0  0  0  0  0  2  0  0  0  0  0  0
  186.1630  177.9650  142.9230 C   0  0  0  0  0  0  0  0  0  0  0  0
  187.3730  177.7740  142.2170 C   0  0  0  0  0  0  0  0  0  0  0  0
  186.0460  178.5900  146.5420 C   0  0  0  0  0  0  0  0  0  0  0  0
  186.0250  178.8860  145.1970 C   0  0  2  0  0  3  0  0  0  0  0  0
  190.1980  177.5340  142.3520 S   0  0  0  0  0  0  0  0  0  0  0  0
  184.8060  178.9920  145.8070 O   0  0  0  0  0  0  0  0  0  0  0  0
  188.5280  177.0630  142.8030 C   0  0  0  0  0  0  0  0  0  0  0  0
  188.8110  177.5720  146.5970 N   0  0  0  0  0  0  0  0  0  0  0  0
  186.0390  177.6140  144.3710 C   0  0  0  0  0  2  0  0  0  0  0  0
  190.5810  179.4170  144.1470 O   0  0  0  0  0  0  0  0  0  0  0  0
  190.5870  178.2090  143.9680 C   0  0  0  0  0  0  0  0  0  0  0  0
  184.0650  179.6230  140.3670 O   0  0  0  0  0  0  0  0  0  0  0  0
  183.9000  179.7010  138.9580 C   0  0  0  0  0  2  0  0  0  0  0  0
  182.4860  179.3010  138.5930 C   0  0  0  0  0  2  0  0  0  0  0  0
  181.5140  180.3760  139.0660 C   0  0  2  0  0  3  0  0  0  0  0  0
  180.6410  180.9760  138.0090 C   0  0  1  0  0  3  0  0  0  0  0  0
  181.8310  181.5960  138.4410 O   0  0  0  0  0  0  0  0  0  0  0  0
  180.8400  180.4340  136.5990 C   0  0  0  0  0  1  0  0  0  0  0  0
  1 11  1  0  0  0  0
  2 18  2  0  0  0  0
  3 10  2  0  0  0  0
  4  3  1  0  0  0  0
  5  9  2  0  0  0  0
  5  7  1  0  0  0  0
  7  1  2  0  0  0  0
  8  2  1  0  0  0  0
  9 12  1  0  0  0  0
 11 19  1  0  0  0  0
 12 17  1  0  0  0  0
 12 11  2  0  0  0  0
 13  4  2  0  0  0  0
 14 19  1  6  0  0  0
 14 16  1  0  0  0  0
 14 13  1  0  0  0  0
 15 17  1  0  0  0  0
 15 21  1  0  0  0  0
 16 13  1  0  0  0  0
 17  6  2  0  0  0  0
 18  3  1  0  0  0  0
 21 20  2  0  0  0  0
 21  8  1  0  0  0  0
 22  7  1  0  0  0  0
 23 22  1  0  0  0  0
 24 23  1  0  0  0  0
 25 24  1  6  0  0  0
 26 28  1  6  0  0  0
 26 27  1  0  0  0  0
 26 25  1  0  0  0  0
 27 25  1  0  0  0  0
M  END
>  <MODEL>
4

>  <REMARK>
 VINA RESULT:      -8.0      2.198      2.833
  Name = 
  4 active torsions:
  status: ('A' for Active; 'I' for Inactive)
    1  A    between atoms: C_7  and  O_28
    2  A    between atoms: C_15  and  C_26
    3  A    between atoms: C_15  and  O_28
    4  A    between atoms: C_17  and  C_26
                            x       y       z     vdW  Elec       q    Type
                         _______ _______ _______ _____ _____    ______ ____

>  <TORSDO>
F 4

$$$$
=
 OpenBabel10222416533D

 28 31  0  0  1  0  0  0  0  0999 V2000
  185.4610  178.5320  141.9620 C   0  0  0  0  0  3  0  0  0  0  0  0
  190.0920  177.6290  146.6340 C   0  0  0  0  0  3  0  0  0  0  0  0
  187.9530  177.8360  147.6340 C   0  0  0  0  0  0  0  0  0  0  0  0
  186.5620  178.0860  147.4210 N   0  0  0  0  0  0  0  0  0  0  0  0
  186.9350  178.8560  140.0770 C   0  0  0  0  0  3  0  0  0  0  0  0
  188.6390  175.8340  143.3140 C   0  0  0  0  0  2  0  0  0  0  0  0
  185.6720  179.0030  140.6650 C   0  0  0  0  0  0  0  0  0  0  0  0
  191.2420  176.9900  145.4150 S   0  0  0  0  0  0  0  0  0  0  0  0
  187.9670  178.2260  140.7760 C   0  0  0  0  0  3  0  0  0  0  0  0
  188.4090  177.8780  148.8440 N   0  0  0  0  0  2  0  0  0  0  0  0
  186.4920  177.9060  142.6760 C   0  0  0  0  0  0  0  0  0  0  0  0
  187.7590  177.7350  142.0730 C   0  0  0  0  0  0  0  0  0  0  0  0
  186.0600  178.4460  146.2850 C   0  0  0  0  0  0  0  0  0  0  0  0
  186.1540  178.7730  144.9500 C   0  0  2  0  0  3  0  0  0  0  0  0
  190.5620  177.4980  142.4470 S   0  0  0  0  0  0  0  0  0  0  0  0
  184.8850  178.8620  145.4550 O   0  0  0  0  0  0  0  0  0  0  0  0
  188.8630  177.0130  142.7410 C   0  0  0  0  0  0  0  0  0  0  0  0
  188.8140  177.4350  146.5560 N   0  0  0  0  0  0  0  0  0  0  0  0
  186.2450  177.5210  144.1000 C   0  0  0  0  0  2  0  0  0  0  0  0
  190.7810  179.3400  144.3100 O   0  0  0  0  0  0  0  0  0  0  0  0
  190.8080  178.1370  144.1050 C   0  0  0  0  0  0  0  0  0  0  0  0
  184.6140  179.6170  139.9870 O   0  0  0  0  0  0  0  0  0  0  0  0
  183.3470  178.9970  139.8200 C   0  0  0  0  0  2  0  0  0  0  0  0
  183.2200  178.4840  138.4010 C   0  0  0  0  0  2  0  0  0  0  0  0
  183.3880  176.9700  138.3890 C   0  0  2  0  0  3  0  0  0  0  0  0
  184.5440  176.4490  137.5930 C   0  0  1  0  0  3  0  0  0  0  0  0
  183.2360  176.4960  137.0720 O   0  0  0  0  0  0  0  0  0  0  0  0
  185.3990  177.5030  136.8990 C   0  0  0  0  0  1  0  0  0  0  0  0
  1 11  1  0  0  0  0
  3 10  2  0  0  0  0
  4  3  1  0  0  0  0
  5  7  1  0  0  0  0
  5  9  2  0  0  0  0
  7  1  2  0  0  0  0
  8  2  1  0  0  0  0
  9 12  1  0  0  0  0
 11 19  1  0  0  0  0
 12 11  2  0  0  0  0
 12 17  1  0  0  0  0
 13  4  2  0  0  0  0
 14 19  1  6  0  0  0
 14 16  1  0  0  0  0
 14 13  1  0  0  0  0
 15 17  1  0  0  0  0
 15 21  1  0  0  0  0
 16 13  1  0  0  0  0
 17  6  2  0  0  0  0
 18  2  2  0  0  0  0
 18  3  1  0  0  0  0
 21 20  2  0  0  0  0
 21  8  1  0  0  0  0
 22  7  1  0  0  0  0
 23 22  1  0  0  0  0
 24 23  1  0  0  0  0
 25 24  1  6  0  0  0
 26 28  1  6  0  0  0
 26 25  1  0  0  0  0
 27 26  1  0  0  0  0
 27 25  1  0  0  0  0
M  END
>  <MODEL>
5

>  <REMARK>
 VINA RESULT:      -7.9      2.874      3.652
  Name = 
  4 active torsions:
  status: ('A' for Active; 'I' for Inactive)
    1  A    between atoms: C_7  and  O_28
    2  A    between atoms: C_15  and  C_26
    3  A    between atoms: C_15  and  O_28
    4  A    between atoms: C_17  and  C_26
                            x       y       z     vdW  Elec       q    Type
                         _______ _______ _______ _____ _____    ______ ____

>  <TORSDO>
F 4

$$$$
=
 OpenBabel10222416533D

 28 31  0  0  1  0  0  0  0  0999 V2000
  187.5350  178.6200  141.3900 C   0  0  0  0  0  3  0  0  0  0  0  0
  180.9500  177.9220  140.9020 C   0  0  0  0  0  3  0  0  0  0  0  0
  181.5380  178.6150  143.0910 C   0  0  0  0  0  0  0  0  0  0  0  0
  182.6020  178.9120  143.9960 N   0  0  0  0  0  0  0  0  0  0  0  0
  188.1410  177.6450  139.2650 C   0  0  0  0  0  3  0  0  0  0  0  0
  183.9940  179.9480  139.1750 C   0  0  0  0  0  2  0  0  0  0  0  0
  188.4960  178.0330  140.5650 C   0  0  0  0  0  0  0  0  0  0  0  0
  181.0430  177.9950  139.1120 S   0  0  0  0  0  0  0  0  0  0  0  0
  186.8450  177.8650  138.7960 C   0  0  0  0  0  3  0  0  0  0  0  0
  180.3440  178.4680  143.5680 N   0  0  0  0  0  2  0  0  0  0  0  0
  186.2290  178.8380  140.9310 C   0  0  0  0  0  0  0  0  0  0  0  0
  185.8790  178.4710  139.6120 C   0  0  0  0  0  0  0  0  0  0  0  0
  183.8520  178.7110  143.7310 C   0  0  0  0  0  0  0  0  0  0  0  0
  184.8820  178.2990  142.9140 C   0  0  2  0  0  3  0  0  0  0  0  0
  183.8310  177.6230  137.8380 S   0  0  0  0  0  0  0  0  0  0  0  0
  185.2900  178.7370  144.1450 O   0  0  0  0  0  0  0  0  0  0  0  0
  184.5430  178.7450  139.0410 C   0  0  0  0  0  0  0  0  0  0  0  0
  181.7500  178.5910  141.6700 N   0  0  0  0  0  0  0  0  0  0  0  0
  185.2120  179.3680  141.8910 C   0  0  0  0  0  2  0  0  0  0  0  0
  182.6630  175.9490  139.4950 O   0  0  0  0  0  0  0  0  0  0  0  0
  182.5500  177.0340  138.9470 C   0  0  0  0  0  0  0  0  0  0  0  0
  189.7880  177.8390  141.0610 O   0  0  0  0  0  0  0  0  0  0  0  0
  190.3140  176.5510  141.3480 C   0  0  0  0  0  2  0  0  0  0  0  0
  190.0590  176.2140  142.8020 C   0  0  0  0  0  2  0  0  0  0  0  0
  191.3740  176.2440  143.5710 C   0  0  2  0  0  3  0  0  0  0  0  0
  191.3430  176.9500  144.8900 C   0  0  1  0  0  3  0  0  0  0  0  0
  191.7990  177.5780  143.7150 O   0  0  0  0  0  0  0  0  0  0  0  0
  189.9990  177.5470  145.2900 C   0  0  0  0  0  1  0  0  0  0  0  0
  2 18  2  0  0  0  0
  3 10  2  0  0  0  0
  3  4  1  0  0  0  0
  5  7  1  0  0  0  0
  7 22  1  0  0  0  0
  7  1  2  0  0  0  0
  8  2  1  0  0  0  0
  9  5  2  0  0  0  0
  9 12  1  0  0  0  0
 11  1  1  0  0  0  0
 11 19  1  0  0  0  0
 12 11  2  0  0  0  0
 13  4  2  0  0  0  0
 13 16  1  0  0  0  0
 14 19  1  6  0  0  0
 14 13  1  0  0  0  0
 14 16  1  0  0  0  0
 15 21  1  0  0  0  0
 15 17  1  0  0  0  0
 17  6  2  0  0  0  0
 17 12  1  0  0  0  0
 18  3  1  0  0  0  0
 21  8  1  0  0  0  0
 21 20  2  0  0  0  0
 22 23  1  0  0  0  0
 23 24  1  0  0  0  0
 25 24  1  6  0  0  0
 25 27  1  0  0  0  0
 25 26  1  0  0  0  0
 26 28  1  6  0  0  0
 27 26  1  0  0  0  0
M  END
>  <MODEL>
6

>  <REMARK>
 VINA RESULT:      -7.5      4.388      8.416
  Name = 
  4 active torsions:
  status: ('A' for Active; 'I' for Inactive)
    1  A    between atoms: C_7  and  O_28
    2  A    between atoms: C_15  and  C_26
    3  A    between atoms: C_15  and  O_28
    4  A    between atoms: C_17  and  C_26
                            x       y       z     vdW  Elec       q    Type
                         _______ _______ _______ _____ _____    ______ ____

>  <TORSDO>
F 4

$$$$
=
 OpenBabel10222416533D

 28 31  0  0  1  0  0  0  0  0999 V2000
  189.0960  177.8740  142.7880 C   0  0  0  0  0  3  0  0  0  0  0  0
  185.4930  177.8470  137.2100 C   0  0  0  0  0  3  0  0  0  0  0  0
  184.3220  178.9780  138.9330 C   0  0  0  0  0  0  0  0  0  0  0  0
  184.3140  179.3600  140.3100 N   0  0  0  0  0  0  0  0  0  0  0  0
  190.8300  176.3500  142.0820 C   0  0  0  0  0  3  0  0  0  0  0  0
  189.1180  179.0280  138.5600 C   0  0  0  0  0  2  0  0  0  0  0  0
  190.1320  176.9970  143.1110 C   0  0  0  0  0  0  0  0  0  0  0  0
  186.9510  177.4730  136.2330 S   0  0  0  0  0  0  0  0  0  0  0  0
  190.5040  176.5980  140.7480 C   0  0  0  0  0  3  0  0  0  0  0  0
  183.2260  179.0900  138.2550 N   0  0  0  0  0  2  0  0  0  0  0  0
  188.7550  178.1240  141.4510 C   0  0  0  0  0  0  0  0  0  0  0  0
  189.4760  177.4910  140.4140 C   0  0  0  0  0  0  0  0  0  0  0  0
  185.1860  178.9560  141.1750 C   0  0  0  0  0  0  0  0  0  0  0  0
  186.3020  178.2420  141.5510 C   0  0  2  0  0  3  0  0  0  0  0  0
  189.4440  176.4830  137.7610 S   0  0  0  0  0  0  0  0  0  0  0  0
  185.7020  178.9150  142.5800 O   0  0  0  0  0  0  0  0  0  0  0  0
  189.2200  177.7730  138.9850 C   0  0  0  0  0  0  0  0  0  0  0  0
  185.5370  178.5850  138.2730 N   0  0  0  0  0  0  0  0  0  0  0  0
  187.5660  178.9850  141.1650 C   0  0  0  0  0  2  0  0  0  0  0  0
  187.0470  175.4070  137.8700 O   0  0  0  0  0  0  0  0  0  0  0  0
  187.6930  176.3330  137.4030 C   0  0  0  0  0  0  0  0  0  0  0  0
  190.4420  176.7800  144.4570 O   0  0  0  0  0  0  0  0  0  0  0  0
  190.0250  177.6610  145.4910 C   0  0  0  0  0  2  0  0  0  0  0  0
  188.7800  177.1100  146.1520 C   0  0  0  0  0  2  0  0  0  0  0  0
  188.9670  177.1020  147.6640 C   0  0  2  0  0  3  0  0  0  0  0  0
  187.9220  177.8250  148.4540 C   0  0  1  0  0  3  0  0  0  0  0  0
  189.1530  178.4210  148.1170 O   0  0  0  0  0  0  0  0  0  0  0  0
  186.8090  178.4760  147.6410 C   0  0  0  0  0  1  0  0  0  0  0  0
  1  7  1  0  0  0  0
  2 18  2  0  0  0  0
  3  4  1  0  0  0  0
  4 13  2  0  0  0  0
  5  7  2  0  0  0  0
  6 17  2  0  0  0  0
  7 22  1  0  0  0  0
  8  2  1  0  0  0  0
  8 21  1  0  0  0  0
  9  5  1  0  0  0  0
 10  3  2  0  0  0  0
 11  1  2  0  0  0  0
 12  9  2  0  0  0  0
 12 11  1  0  0  0  0
 13 14  1  0  0  0  0
 13 16  1  0  0  0  0
 14 19  1  6  0  0  0
 14 16  1  0  0  0  0
 15 17  1  0  0  0  0
 17 12  1  0  0  0  0
 18  3  1  0  0  0  0
 19 11  1  0  0  0  0
 21 15  1  0  0  0  0
 21 20  2  0  0  0  0
 22 23  1  0  0  0  0
 23 24  1  0  0  0  0
 25 24  1  6  0  0  0
 25 27  1  0  0  0  0
 25 26  1  0  0  0  0
 26 28  1  6  0  0  0
 27 26  1  0  0  0  0
M  END
>  <MODEL>
7

>  <REMARK>
 VINA RESULT:      -7.4      4.505      7.885
  Name = 
  4 active torsions:
  status: ('A' for Active; 'I' for Inactive)
    1  A    between atoms: C_7  and  O_28
    2  A    between atoms: C_15  and  C_26
    3  A    between atoms: C_15  and  O_28
    4  A    between atoms: C_17  and  C_26
                            x       y       z     vdW  Elec       q    Type
                         _______ _______ _______ _____ _____    ______ ____

>  <TORSDO>
F 4

$$$$
=
 OpenBabel10222416533D

 28 31  0  0  1  0  0  0  0  0999 V2000
  187.8240  178.3460  139.6860 C   0  0  0  0  0  3  0  0  0  0  0  0
  187.8960  178.0660  146.3200 C   0  0  0  0  0  3  0  0  0  0  0  0
  185.7620  178.7590  145.5550 C   0  0  0  0  0  0  0  0  0  0  0  0
  184.9630  179.1100  144.4240 N   0  0  0  0  0  0  0  0  0  0  0  0
  190.1870  178.0280  139.3050 C   0  0  0  0  0  3  0  0  0  0  0  0
  188.5560  175.7030  143.1050 C   0  0  0  0  0  2  0  0  0  0  0  0
  188.9350  178.4600  138.8480 C   0  0  0  0  0  0  0  0  0  0  0  0
  189.3540  177.0200  146.2910 S   0  0  0  0  0  0  0  0  0  0  0  0
  190.3170  177.4710  140.5780 C   0  0  0  0  0  3  0  0  0  0  0  0
  185.3160  179.0390  146.7370 N   0  0  0  0  0  2  0  0  0  0  0  0
  187.9450  177.7950  140.9690 C   0  0  0  0  0  0  0  0  0  0  0  0
  189.2030  177.3360  141.4190 C   0  0  0  0  0  0  0  0  0  0  0  0
  185.4290  179.2410  143.2250 C   0  0  0  0  0  0  0  0  0  0  0  0
  186.4440  179.2210  142.2940 C   0  0  2  0  0  3  0  0  0  0  0  0
  190.9170  176.8700  143.6330 S   0  0  0  0  0  0  0  0  0  0  0  0
  185.2280  179.5770  141.7800 O   0  0  0  0  0  0  0  0  0  0  0  0
  189.3830  176.6730  142.7280 C   0  0  0  0  0  0  0  0  0  0  0  0
  186.9800  178.0100  145.4060 N   0  0  0  0  0  0  0  0  0  0  0  0
  186.7470  177.7990  141.8650 C   0  0  0  0  0  2  0  0  0  0  0  0
  190.3270  179.0700  144.9470 O   0  0  0  0  0  0  0  0  0  0  0  0
  190.1780  177.8580  144.9350 C   0  0  0  0  0  0  0  0  0  0  0  0
  188.7680  179.0110  137.5740 O   0  0  0  0  0  0  0  0  0  0  0  0
  187.8270  178.5070  136.6370 C   0  0  0  0  0  2  0  0  0  0  0  0
  188.3660  177.2370  136.0140 C   0  0  0  0  0  2  0  0  0  0  0  0
  187.4290  176.0770  136.3270 C   0  0  2  0  0  3  0  0  0  0  0  0
  188.0570  174.8920  136.9910 C   0  0  1  0  0  3  0  0  0  0  0  0
  187.8350  174.9420  135.6010 O   0  0  0  0  0  0  0  0  0  0  0  0
  189.5520  175.0020  137.2660 C   0  0  0  0  0  1  0  0  0  0  0  0
  1 11  1  0  0  0  0
  3 10  2  0  0  0  0
  4  3  1  0  0  0  0
  5  9  2  0  0  0  0
  7  5  1  0  0  0  0
  7  1  2  0  0  0  0
  8  2  1  0  0  0  0
  9 12  1  0  0  0  0
 11 12  2  0  0  0  0
 11 19  1  0  0  0  0
 12 17  1  0  0  0  0
 13  4  2  0  0  0  0
 14 19  1  6  0  0  0
 14 13  1  0  0  0  0
 15 21  1  0  0  0  0
 16 14  1  0  0  0  0
 16 13  1  0  0  0  0
 17  6  2  0  0  0  0
 17 15  1  0  0  0  0
 18  3  1  0  0  0  0
 18  2  2  0  0  0  0
 21 20  2  0  0  0  0
 21  8  1  0  0  0  0
 22  7  1  0  0  0  0
 23 22  1  0  0  0  0
 24 23  1  0  0  0  0
 25 24  1  6  0  0  0
 25 26  1  0  0  0  0
 26 28  1  6  0  0  0
 27 25  1  0  0  0  0
 27 26  1  0  0  0  0
M  END
>  <MODEL>
8

>  <REMARK>
 VINA RESULT:      -7.2      4.122      6.556
  Name = 
  4 active torsions:
  status: ('A' for Active; 'I' for Inactive)
    1  A    between atoms: C_7  and  O_28
    2  A    between atoms: C_15  and  C_26
    3  A    between atoms: C_15  and  O_28
    4  A    between atoms: C_17  and  C_26
                            x       y       z     vdW  Elec       q    Type
                         _______ _______ _______ _____ _____    ______ ____

>  <TORSDO>
F 4

$$$$
=
 OpenBabel10222416533D

 28 31  0  0  1  0  0  0  0  0999 V2000
  186.9220  177.8700  140.8580 C   0  0  0  0  0  3  0  0  0  0  0  0
  190.1640  177.4570  146.6380 C   0  0  0  0  0  3  0  0  0  0  0  0
  187.8250  177.5130  147.0160 C   0  0  0  0  0  0  0  0  0  0  0  0
  186.5300  177.6430  146.4270 N   0  0  0  0  0  0  0  0  0  0  0  0
  188.8250  178.2680  139.4260 C   0  0  0  0  0  3  0  0  0  0  0  0
  189.8000  175.4720  143.1330 C   0  0  0  0  0  2  0  0  0  0  0  0
  187.4420  178.3250  139.6450 C   0  0  0  0  0  0  0  0  0  0  0  0
  191.6450  176.8850  145.8030 S   0  0  0  0  0  0  0  0  0  0  0  0
  189.6700  177.7410  140.4040 C   0  0  0  0  0  3  0  0  0  0  0  0
  187.9320  177.6200  148.3010 N   0  0  0  0  0  2  0  0  0  0  0  0
  187.7630  177.3460  141.8500 C   0  0  0  0  0  0  0  0  0  0  0  0
  189.1550  177.2650  141.6180 C   0  0  0  0  0  0  0  0  0  0  0  0
  186.3300  177.9340  145.1830 C   0  0  0  0  0  0  0  0  0  0  0  0
  186.7590  178.2360  143.9090 C   0  0  2  0  0  3  0  0  0  0  0  0
  191.7610  177.2670  142.7410 S   0  0  0  0  0  0  0  0  0  0  0  0
  185.3980  178.2330  144.0500 O   0  0  0  0  0  0  0  0  0  0  0  0
  190.0850  176.6510  142.5890 C   0  0  0  0  0  0  0  0  0  0  0  0
  188.9730  177.1580  146.2280 N   0  0  0  0  0  0  0  0  0  0  0  0
  187.1670  176.9760  143.1710 C   0  0  0  0  0  2  0  0  0  0  0  0
  191.3320  179.1640  144.5110 O   0  0  0  0  0  0  0  0  0  0  0  0
  191.5010  177.9620  144.3740 C   0  0  0  0  0  0  0  0  0  0  0  0
  186.5670  178.8350  138.6820 O   0  0  0  0  0  0  0  0  0  0  0  0
  186.1520  178.0850  137.5490 C   0  0  0  0  0  2  0  0  0  0  0  0
  186.9610  176.8080  137.4650 C   0  0  0  0  0  2  0  0  0  0  0  0
  187.5650  176.6770  136.0720 C   0  0  2  0  0  3  0  0  0  0  0  0
  188.8260  175.8760  135.9810 C   0  0  1  0  0  3  0  0  0  0  0  0
  188.8350  177.2830  136.0580 O   0  0  0  0  0  0  0  0  0  0  0  0
  189.3400  175.2980  137.2940 C   0  0  0  0  0  1  0  0  0  0  0  0
  1 11  1  0  0  0  0
  3 10  2  0  0  0  0
  4  3  1  0  0  0  0
  5  7  1  0  0  0  0
  5  9  2  0  0  0  0
  7  1  2  0  0  0  0
  8  2  1  0  0  0  0
  9 12  1  0  0  0  0
 11 19  1  0  0  0  0
 12 11  2  0  0  0  0
 12 17  1  0  0  0  0
 13  4  2  0  0  0  0
 14 19  1  6  0  0  0
 14 16  1  0  0  0  0
 14 13  1  0  0  0  0
 15 21  1  0  0  0  0
 16 13  1  0  0  0  0
 17 15  1  0  0  0  0
 17  6  2  0  0  0  0
 18  2  2  0  0  0  0
 18  3  1  0  0  0  0
 21 20  2  0  0  0  0
 21  8  1  0  0  0  0
 22  7  1  0  0  0  0
 23 22  1  0  0  0  0
 24 23  1  0  0  0  0
 25 24  1  1  0  0  0
 26 27  1  0  0  0  0
 26 25  1  0  0  0  0
 26 28  1  1  0  0  0
 27 25  1  0  0  0  0
M  END
>  <MODEL>
9

>  <REMARK>
 VINA RESULT:      -7.0      3.521      5.598
  Name = 
  4 active torsions:
  status: ('A' for Active; 'I' for Inactive)
    1  A    between atoms: C_7  and  O_28
    2  A    between atoms: C_15  and  C_26
    3  A    between atoms: C_15  and  O_28
    4  A    between atoms: C_17  and  C_26
                            x       y       z     vdW  Elec       q    Type
                         _______ _______ _______ _____ _____    ______ ____

>  <TORSDO>
F 4

$$$$
