=
 OpenBabel10222418523D

 33 36  0  0  1  0  0  0  0  0999 V2000
  190.6720  177.0860  139.8450 C   0  0  0  0  0  1  0  0  0  0  0  0
  189.4000  177.6540  140.3780 C   0  0  0  0  0  0  0  0  0  0  0  0
  189.4670  177.8940  137.0890 S   0  0  0  0  0  0  0  0  0  0  0  0
  188.2170  177.6660  138.1260 C   0  0  0  0  0  0  0  0  0  0  0  0
  187.0010  178.2890  140.0140 C   0  0  0  0  0  0  0  0  0  0  0  0
  186.1350  178.3240  138.9440 C   0  0  0  0  0  0  0  0  0  0  0  0
  185.3160  179.0400  141.4850 C   0  0  0  0  0  0  0  0  0  0  0  0
  184.8780  179.4040  142.8560 C   0  0  0  0  0  1  0  0  0  0  0  0
  188.3260  177.8620  139.5890 C   0  0  0  0  0  0  0  0  0  0  0  0
  186.6000  178.6350  141.2660 N   0  0  0  0  0  0  0  0  0  0  0  0
  184.8190  178.7560  139.1260 C   0  0  0  0  0  3  0  0  0  0  0  0
  186.7900  177.8870  137.6660 C   0  0  2  0  0  3  0  0  0  0  0  0
  184.4060  179.1160  140.4160 C   0  0  0  0  0  3  0  0  0  0  0  0
  187.1110  175.4270  137.2870 C   0  0  0  0  0  3  0  0  0  0  0  0
  186.7630  174.1730  137.0050 C   0  0  0  0  0  3  0  0  0  0  0  0
  186.1680  176.5790  137.1420 C   0  0  2  0  0  3  0  0  0  0  0  0
  185.7670  176.7160  135.7070 C   0  0  0  0  0  3  0  0  0  0  0  0
  184.9680  172.4040  136.7670 C   0  0  0  0  0  1  0  0  0  0  0  0
  184.7630  174.4880  135.5520 C   0  0  0  0  0  3  0  0  0  0  0  0
  185.4600  173.7690  136.4450 C   0  0  0  0  0  0  0  0  0  0  0  0
  185.1260  175.7890  135.0600 N   0  0  0  0  0  0  0  0  0  0  0  0
  189.3600  177.9640  141.8390 C   0  0  0  0  0  2  0  0  0  0  0  0
  189.1920  176.6790  142.6320 C   0  0  0  0  0  2  0  0  0  0  0  0
  189.7100  177.0970  145.1690 C   0  0  0  0  0  0  0  0  0  0  0  0
  188.9320  177.4540  146.3850 C   0  0  0  0  0  2  0  0  0  0  0  0
  187.5770  177.5300  145.8490 N   0  0  0  0  0  0  0  0  0  0  0  0
  190.9870  176.8910  145.1180 N   0  0  0  0  0  0  0  0  0  0  0  0
  187.5750  177.2480  144.4510 C   0  0  0  0  0  3  0  0  0  0  0  0
  188.8030  176.9890  144.0380 C   0  0  0  0  0  0  0  0  0  0  0  0
  192.1520  175.8460  146.9600 C   0  0  0  0  0  1  0  0  0  0  0  0
  191.7710  177.0060  146.2430 O   0  0  0  0  0  0  0  0  0  0  0  0
  186.3750  177.8570  146.6030 C   0  0  0  0  0  2  0  0  0  0  0  0
  185.9160  179.1330  146.2690 O   0  0  0  0  0  1  0  0  0  0  0  0
  1  2  1  0  0  0  0
  2 22  1  0  0  0  0
  3  4  2  0  0  0  0
  4  9  1  0  0  0  0
  5 10  1  0  0  0  0
  6 11  1  0  0  0  0
  6  5  2  0  0  0  0
  7  8  1  0  0  0  0
  9  5  1  0  0  0  0
  9  2  2  0  0  0  0
 10  7  2  0  0  0  0
 11 13  2  0  0  0  0
 12  4  1  1  0  0  0
 12  6  1  0  0  0  0
 13  7  1  0  0  0  0
 15 14  2  0  0  0  0
 16 17  1  6  0  0  0
 16 14  1  0  0  0  0
 16 12  1  0  0  0  0
 19 20  2  0  0  0  0
 20 18  1  0  0  0  0
 20 15  1  0  0  0  0
 21 19  1  0  0  0  0
 21 17  2  0  0  0  0
 22 23  1  0  0  0  0
 23 29  1  0  0  0  0
 24 25  1  0  0  0  0
 26 25  1  0  0  0  0
 26 32  1  0  0  0  0
 27 24  2  0  0  0  0
 27 31  1  0  0  0  0
 28 26  1  0  0  0  0
 29 28  2  0  0  0  0
 29 24  1  0  0  0  0
 31 30  1  0  0  0  0
 33 32  1  0  0  0  0
M  END
>  <MODEL>
1

>  <REMARK>
 VINA RESULT:      -8.6      0.000      0.000
  Name = 
  6 active torsions:
  status: ('A' for Active; 'I' for Inactive)
    1  A    between atoms: C_2  and  C_22
    2  A    between atoms: C_10  and  N_18
    3  A    between atoms: C_11  and  C_32
    4  A    between atoms: N_19  and  O_25
    5  A    between atoms: C_22  and  C_28
    6  A    between atoms: C_28  and  C_30
                            x       y       z     vdW  Elec       q    Type
                         _______ _______ _______ _____ _____    ______ ____

>  <TORSDO>
F 6

$$$$
=
 OpenBabel10222418523D

 33 36  0  0  1  0  0  0  0  0999 V2000
  190.2850  177.5490  140.0350 C   0  0  0  0  0  1  0  0  0  0  0  0
  188.9520  177.9540  140.5700 C   0  0  0  0  0  0  0  0  0  0  0  0
  189.0850  178.4850  137.3160 S   0  0  0  0  0  0  0  0  0  0  0  0
  187.8340  178.0590  138.2860 C   0  0  0  0  0  0  0  0  0  0  0  0
  186.5160  178.4070  140.1770 C   0  0  0  0  0  0  0  0  0  0  0  0
  185.6800  178.4590  139.0850 C   0  0  0  0  0  0  0  0  0  0  0  0
  184.7320  178.8780  141.6470 C   0  0  0  0  0  0  0  0  0  0  0  0
  184.2260  179.0810  143.0280 C   0  0  0  0  0  1  0  0  0  0  0  0
  187.8860  178.1360  139.7640 C   0  0  0  0  0  0  0  0  0  0  0  0
  186.0530  178.6070  141.4400 N   0  0  0  0  0  0  0  0  0  0  0  0
  184.3260  178.7570  139.2570 C   0  0  0  0  0  3  0  0  0  0  0  0
  186.4060  178.1940  137.7980 C   0  0  2  0  0  3  0  0  0  0  0  0
  183.8470  178.9660  140.5580 C   0  0  0  0  0  3  0  0  0  0  0  0
  186.9660  175.8210  137.2040 C   0  0  0  0  0  3  0  0  0  0  0  0
  186.7430  174.5710  136.8010 C   0  0  0  0  0  3  0  0  0  0  0  0
  185.9180  176.8860  137.1450 C   0  0  2  0  0  3  0  0  0  0  0  0
  185.5230  177.1170  135.7210 C   0  0  0  0  0  3  0  0  0  0  0  0
  185.1290  172.6700  136.3670 C   0  0  0  0  0  1  0  0  0  0  0  0
  184.7390  174.8280  135.3430 C   0  0  0  0  0  3  0  0  0  0  0  0
  185.4910  174.1000  136.1800 C   0  0  0  0  0  0  0  0  0  0  0  0
  184.9810  176.1980  134.9790 N   0  0  0  0  0  0  0  0  0  0  0  0
  188.8450  178.1320  142.0490 C   0  0  0  0  0  2  0  0  0  0  0  0
  188.7890  176.7730  142.7260 C   0  0  0  0  0  2  0  0  0  0  0  0
  188.2400  177.1750  145.2590 C   0  0  0  0  0  0  0  0  0  0  0  0
  188.9960  177.1840  146.5390 C   0  0  0  0  0  2  0  0  0  0  0  0
  190.3510  176.9020  146.0760 N   0  0  0  0  0  0  0  0  0  0  0  0
  186.9720  177.3970  145.1240 N   0  0  0  0  0  0  0  0  0  0  0  0
  190.3720  176.7400  144.6590 C   0  0  0  0  0  3  0  0  0  0  0  0
  189.1570  176.9000  144.1660 C   0  0  0  0  0  0  0  0  0  0  0  0
  185.6910  178.9720  146.4380 C   0  0  0  0  0  1  0  0  0  0  0  0
  186.1760  177.6600  146.2160 O   0  0  0  0  0  0  0  0  0  0  0  0
  191.5350  176.7840  146.9160 C   0  0  0  0  0  2  0  0  0  0  0  0
  192.2120  175.5930  146.6460 O   0  0  0  0  0  1  0  0  0  0  0  0
  1  2  1  0  0  0  0
  2 22  1  0  0  0  0
  3  4  2  0  0  0  0
  4  9  1  0  0  0  0
  5 10  1  0  0  0  0
  6 11  1  0  0  0  0
  6  5  2  0  0  0  0
  7  8  1  0  0  0  0
  9  5  1  0  0  0  0
  9  2  2  0  0  0  0
 10  7  2  0  0  0  0
 11 13  2  0  0  0  0
 12  4  1  1  0  0  0
 12  6  1  0  0  0  0
 13  7  1  0  0  0  0
 15 14  2  0  0  0  0
 16 17  1  6  0  0  0
 16 14  1  0  0  0  0
 16 12  1  0  0  0  0
 19 20  2  0  0  0  0
 20 18  1  0  0  0  0
 20 15  1  0  0  0  0
 21 19  1  0  0  0  0
 21 17  2  0  0  0  0
 22 23  1  0  0  0  0
 23 29  1  0  0  0  0
 24 25  1  0  0  0  0
 26 25  1  0  0  0  0
 26 32  1  0  0  0  0
 27 24  2  0  0  0  0
 27 31  1  0  0  0  0
 28 26  1  0  0  0  0
 29 28  2  0  0  0  0
 29 24  1  0  0  0  0
 31 30  1  0  0  0  0
 33 32  1  0  0  0  0
M  END
>  <MODEL>
2

>  <REMARK>
 VINA RESULT:      -8.3      0.752      2.495
  Name = 
  6 active torsions:
  status: ('A' for Active; 'I' for Inactive)
    1  A    between atoms: C_2  and  C_22
    2  A    between atoms: C_10  and  N_18
    3  A    between atoms: C_11  and  C_32
    4  A    between atoms: N_19  and  O_25
    5  A    between atoms: C_22  and  C_28
    6  A    between atoms: C_28  and  C_30
                            x       y       z     vdW  Elec       q    Type
                         _______ _______ _______ _____ _____    ______ ____

>  <TORSDO>
F 6

$$$$
=
 OpenBabel10222418523D

 33 36  0  0  1  0  0  0  0  0999 V2000
  182.7870  179.2470  143.5580 C   0  0  0  0  0  1  0  0  0  0  0  0
  183.9370  178.9980  142.6420 C   0  0  0  0  0  0  0  0  0  0  0  0
  181.1420  177.8740  141.2960 S   0  0  0  0  0  0  0  0  0  0  0  0
  182.4840  178.5190  140.6080 C   0  0  0  0  0  0  0  0  0  0  0  0
  184.7970  178.5740  140.3230 C   0  0  0  0  0  0  0  0  0  0  0  0
  184.2410  178.3550  139.0840 C   0  0  0  0  0  0  0  0  0  0  0  0
  186.9800  178.4500  139.4380 C   0  0  0  0  0  0  0  0  0  0  0  0
  188.4510  178.5230  139.6320 C   0  0  0  0  0  1  0  0  0  0  0  0
  183.7590  178.7120  141.3350 C   0  0  0  0  0  0  0  0  0  0  0  0
  186.1440  178.6280  140.5010 N   0  0  0  0  0  0  0  0  0  0  0  0
  185.0660  178.1460  137.9760 C   0  0  0  0  0  3  0  0  0  0  0  0
  182.7400  178.3520  139.1240 C   0  0  2  0  0  3  0  0  0  0  0  0
  186.4550  178.1980  138.1580 C   0  0  0  0  0  3  0  0  0  0  0  0
  181.4690  180.5140  139.2210 C   0  0  0  0  0  3  0  0  0  0  0  0
  180.9820  181.6710  138.7790 C   0  0  0  0  0  3  0  0  0  0  0  0
  182.1600  179.5350  138.3260 C   0  0  2  0  0  3  0  0  0  0  0  0
  181.2030  179.0550  137.2810 C   0  0  0  0  0  3  0  0  0  0  0  0
  181.0220  183.5590  137.0930 C   0  0  0  0  0  1  0  0  0  0  0  0
  180.7990  181.2730  136.3260 C   0  0  0  0  0  3  0  0  0  0  0  0
  180.9810  182.0980  137.3670 C   0  0  0  0  0  0  0  0  0  0  0  0
  180.6550  179.8450  136.4060 N   0  0  0  0  0  0  0  0  0  0  0  0
  185.3050  179.0990  143.2330 C   0  0  0  0  0  2  0  0  0  0  0  0
  185.4990  178.0060  144.2700 C   0  0  0  0  0  2  0  0  0  0  0  0
  187.7030  177.3380  145.5240 C   0  0  0  0  0  0  0  0  0  0  0  0
  189.0750  176.9090  145.1420 C   0  0  0  0  0  2  0  0  0  0  0  0
  188.9930  176.9460  143.6850 N   0  0  0  0  0  0  0  0  0  0  0  0
  187.2630  177.4860  146.7320 N   0  0  0  0  0  0  0  0  0  0  0  0
  187.6920  177.3540  143.2670 C   0  0  0  0  0  3  0  0  0  0  0  0
  186.9300  177.5900  144.3200 C   0  0  0  0  0  0  0  0  0  0  0  0
  188.3240  178.2570  148.7630 C   0  0  0  0  0  1  0  0  0  0  0  0
  188.0690  177.2340  147.8190 O   0  0  0  0  0  0  0  0  0  0  0  0
  190.0660  176.6100  142.7590 C   0  0  0  0  0  2  0  0  0  0  0  0
  190.3750  175.2500  142.8370 O   0  0  0  0  0  1  0  0  0  0  0  0
  2 22  1  0  0  0  0
  2  1  1  0  0  0  0
  4  3  2  0  0  0  0
  4  9  1  0  0  0  0
  5 10  1  0  0  0  0
  5  9  1  0  0  0  0
  6  5  2  0  0  0  0
  7  8  1  0  0  0  0
  7 10  2  0  0  0  0
  9  2  2  0  0  0  0
 11 13  2  0  0  0  0
 11  6  1  0  0  0  0
 12  6  1  1  0  0  0
 12  4  1  0  0  0  0
 13  7  1  0  0  0  0
 15 14  2  0  0  0  0
 16 17  1  6  0  0  0
 16 12  1  0  0  0  0
 16 14  1  0  0  0  0
 18 20  1  0  0  0  0
 19 21  1  0  0  0  0
 19 20  2  0  0  0  0
 20 15  1  0  0  0  0
 21 17  2  0  0  0  0
 22 23  1  0  0  0  0
 23 29  1  0  0  0  0
 24 27  2  0  0  0  0
 25 24  1  0  0  0  0
 26 25  1  0  0  0  0
 27 31  1  0  0  0  0
 28 26  1  0  0  0  0
 28 29  2  0  0  0  0
 29 24  1  0  0  0  0
 31 30  1  0  0  0  0
 32 33  1  0  0  0  0
 32 26  1  0  0  0  0
M  END
>  <MODEL>
3

>  <REMARK>
 VINA RESULT:      -8.1      3.279      5.694
  Name = 
  6 active torsions:
  status: ('A' for Active; 'I' for Inactive)
    1  A    between atoms: C_2  and  C_22
    2  A    between atoms: C_10  and  N_18
    3  A    between atoms: C_11  and  C_32
    4  A    between atoms: N_19  and  O_25
    5  A    between atoms: C_22  and  C_28
    6  A    between atoms: C_28  and  C_30
                            x       y       z     vdW  Elec       q    Type
                         _______ _______ _______ _____ _____    ______ ____

>  <TORSDO>
F 6

$$$$
=
 OpenBabel10222418523D

 33 36  0  0  1  0  0  0  0  0999 V2000
  190.7460  176.7310  142.4840 C   0  0  0  0  0  1  0  0  0  0  0  0
  189.6540  177.1980  141.5800 C   0  0  0  0  0  0  0  0  0  0  0  0
  192.5760  177.4700  140.0730 S   0  0  0  0  0  0  0  0  0  0  0  0
  191.0840  177.1410  139.4770 C   0  0  0  0  0  0  0  0  0  0  0  0
  188.8220  177.6580  139.2590 C   0  0  0  0  0  0  0  0  0  0  0  0
  189.3570  177.6370  137.9910 C   0  0  0  0  0  0  0  0  0  0  0  0
  186.7030  178.2700  138.4240 C   0  0  0  0  0  0  0  0  0  0  0  0
  185.2720  178.5900  138.6620 C   0  0  0  0  0  1  0  0  0  0  0  0
  189.8370  177.3340  140.2510 C   0  0  0  0  0  0  0  0  0  0  0  0
  187.5150  177.9630  139.4750 N   0  0  0  0  0  0  0  0  0  0  0  0
  188.5610  177.9690  136.8920 C   0  0  0  0  0  3  0  0  0  0  0  0
  190.8100  177.2600  137.9910 C   0  0  2  0  0  3  0  0  0  0  0  0
  187.2140  178.2870  137.1140 C   0  0  0  0  0  3  0  0  0  0  0  0
  189.9320  174.9470  137.5720 C   0  0  0  0  0  3  0  0  0  0  0  0
  189.8460  173.7540  136.9850 C   0  0  0  0  0  3  0  0  0  0  0  0
  191.0350  175.9130  137.2770 C   0  0  2  0  0  3  0  0  0  0  0  0
  192.3440  175.3090  137.6770 C   0  0  0  0  0  3  0  0  0  0  0  0
  190.3690  172.2390  135.0260 C   0  0  0  0  0  1  0  0  0  0  0  0
  192.1690  173.3950  136.1600 C   0  0  0  0  0  3  0  0  0  0  0  0
  190.8460  173.2030  136.0530 C   0  0  0  0  0  0  0  0  0  0  0  0
  192.8170  174.2250  137.1390 N   0  0  0  0  0  0  0  0  0  0  0  0
  188.3340  177.4930  142.2140 C   0  0  0  0  0  2  0  0  0  0  0  0
  187.9940  176.4070  143.2210 C   0  0  0  0  0  2  0  0  0  0  0  0
  188.5050  177.1790  145.6740 C   0  0  0  0  0  0  0  0  0  0  0  0
  187.7630  177.8620  146.7680 C   0  0  0  0  0  2  0  0  0  0  0  0
  186.4530  178.0520  146.1530 N   0  0  0  0  0  0  0  0  0  0  0  0
  189.7320  176.7720  145.7280 N   0  0  0  0  0  0  0  0  0  0  0  0
  186.4430  177.5310  144.8250 C   0  0  0  0  0  3  0  0  0  0  0  0
  187.6230  177.0160  144.5300 C   0  0  0  0  0  0  0  0  0  0  0  0
  191.7750  176.3630  146.9550 C   0  0  0  0  0  1  0  0  0  0  0  0
  190.4940  176.9590  146.8590 O   0  0  0  0  0  0  0  0  0  0  0  0
  185.3010  178.6890  146.7750 C   0  0  0  0  0  2  0  0  0  0  0  0
  184.2140  178.7040  145.8970 O   0  0  0  0  0  1  0  0  0  0  0  0
  2 22  1  0  0  0  0
  2  1  1  0  0  0  0
  4  3  2  0  0  0  0
  4  9  1  0  0  0  0
  5 10  1  0  0  0  0
  5  9  1  0  0  0  0
  6  5  2  0  0  0  0
  7  8  1  0  0  0  0
  7 10  2  0  0  0  0
  9  2  2  0  0  0  0
 11 13  2  0  0  0  0
 11  6  1  0  0  0  0
 12  6  1  1  0  0  0
 12  4  1  0  0  0  0
 13  7  1  0  0  0  0
 15 14  2  0  0  0  0
 16 14  1  1  0  0  0
 16 17  1  0  0  0  0
 16 12  1  0  0  0  0
 18 20  1  0  0  0  0
 19 21  1  0  0  0  0
 20 19  2  0  0  0  0
 20 15  1  0  0  0  0
 21 17  2  0  0  0  0
 22 23  1  0  0  0  0
 23 29  1  0  0  0  0
 24 27  2  0  0  0  0
 24 25  1  0  0  0  0
 26 25  1  0  0  0  0
 26 32  1  0  0  0  0
 27 31  1  0  0  0  0
 28 26  1  0  0  0  0
 29 28  2  0  0  0  0
 29 24  1  0  0  0  0
 31 30  1  0  0  0  0
 33 32  1  0  0  0  0
M  END
>  <MODEL>
4

>  <REMARK>
 VINA RESULT:      -8.0      2.612      3.667
  Name = 
  6 active torsions:
  status: ('A' for Active; 'I' for Inactive)
    1  A    between atoms: C_2  and  C_22
    2  A    between atoms: C_10  and  N_18
    3  A    between atoms: C_11  and  C_32
    4  A    between atoms: N_19  and  O_25
    5  A    between atoms: C_22  and  C_28
    6  A    between atoms: C_28  and  C_30
                            x       y       z     vdW  Elec       q    Type
                         _______ _______ _______ _____ _____    ______ ____

>  <TORSDO>
F 6

$$$$
=
 OpenBabel10222418523D

 33 36  0  0  1  0  0  0  0  0999 V2000
  190.7910  176.7730  142.4410 C   0  0  0  0  0  1  0  0  0  0  0  0
  189.6900  177.2320  141.5440 C   0  0  0  0  0  0  0  0  0  0  0  0
  192.5940  177.4600  139.9950 S   0  0  0  0  0  0  0  0  0  0  0  0
  191.0920  177.1300  139.4230 C   0  0  0  0  0  0  0  0  0  0  0  0
  188.8300  177.6570  139.2260 C   0  0  0  0  0  0  0  0  0  0  0  0
  189.3480  177.6120  137.9520 C   0  0  0  0  0  0  0  0  0  0  0  0
  186.7040  178.2680  138.4090 C   0  0  0  0  0  0  0  0  0  0  0  0
  185.2780  178.6000  138.6610 C   0  0  0  0  0  1  0  0  0  0  0  0
  189.8570  177.3440  140.2100 C   0  0  0  0  0  0  0  0  0  0  0  0
  187.5280  177.9740  139.4550 N   0  0  0  0  0  0  0  0  0  0  0  0
  188.5400  177.9300  136.8590 C   0  0  0  0  0  3  0  0  0  0  0  0
  190.7990  177.2260  137.9400 C   0  0  2  0  0  3  0  0  0  0  0  0
  187.1980  178.2590  137.0930 C   0  0  0  0  0  3  0  0  0  0  0  0
  189.8580  174.9420  137.4980 C   0  0  0  0  0  3  0  0  0  0  0  0
  189.7550  173.7480  136.9170 C   0  0  0  0  0  3  0  0  0  0  0  0
  191.0070  175.8660  137.2460 C   0  0  2  0  0  3  0  0  0  0  0  0
  192.2750  175.2200  137.7070 C   0  0  0  0  0  3  0  0  0  0  0  0
  190.3090  172.1990  134.9930 C   0  0  0  0  0  1  0  0  0  0  0  0
  192.0980  173.3000  136.1970 C   0  0  0  0  0  3  0  0  0  0  0  0
  190.7750  173.1540  136.0330 C   0  0  0  0  0  0  0  0  0  0  0  0
  192.7310  174.1140  137.1980 N   0  0  0  0  0  0  0  0  0  0  0  0
  188.3800  177.5450  142.1910 C   0  0  0  0  0  2  0  0  0  0  0  0
  188.0540  176.4860  143.2290 C   0  0  0  0  0  2  0  0  0  0  0  0
  186.6750  177.7730  145.0510 C   0  0  0  0  0  0  0  0  0  0  0  0
  186.8970  178.2330  146.4490 C   0  0  0  0  0  2  0  0  0  0  0  0
  188.2680  177.7900  146.6840 N   0  0  0  0  0  0  0  0  0  0  0  0
  185.5960  177.9450  144.3580 N   0  0  0  0  0  0  0  0  0  0  0  0
  188.7860  177.1310  145.5300 C   0  0  0  0  0  3  0  0  0  0  0  0
  187.8780  177.1160  144.5700 C   0  0  0  0  0  0  0  0  0  0  0  0
  183.6810  179.3910  144.0630 C   0  0  0  0  0  1  0  0  0  0  0  0
  184.5030  178.5900  144.8910 O   0  0  0  0  0  0  0  0  0  0  0  0
  189.0250  177.9680  147.9150 C   0  0  0  0  0  2  0  0  0  0  0  0
  188.1660  178.1540  148.9990 O   0  0  0  0  0  1  0  0  0  0  0  0
  2 22  1  0  0  0  0
  2  1  1  0  0  0  0
  4  3  2  0  0  0  0
  4  9  1  0  0  0  0
  5 10  1  0  0  0  0
  5  9  1  0  0  0  0
  6  5  2  0  0  0  0
  7  8  1  0  0  0  0
  7 10  2  0  0  0  0
  9  2  2  0  0  0  0
 11 13  2  0  0  0  0
 11  6  1  0  0  0  0
 12  6  1  1  0  0  0
 12  4  1  0  0  0  0
 13  7  1  0  0  0  0
 15 14  2  0  0  0  0
 16 14  1  1  0  0  0
 16 17  1  0  0  0  0
 16 12  1  0  0  0  0
 18 20  1  0  0  0  0
 19 21  1  0  0  0  0
 20 19  2  0  0  0  0
 20 15  1  0  0  0  0
 21 17  2  0  0  0  0
 22 23  1  0  0  0  0
 23 29  1  0  0  0  0
 24 25  1  0  0  0  0
 25 26  1  0  0  0  0
 26 32  1  0  0  0  0
 27 31  1  0  0  0  0
 27 24  2  0  0  0  0
 28 26  1  0  0  0  0
 29 24  1  0  0  0  0
 29 28  2  0  0  0  0
 30 31  1  0  0  0  0
 32 33  1  0  0  0  0
M  END
>  <MODEL>
5

>  <REMARK>
 VINA RESULT:      -7.9      2.706      4.415
  Name = 
  6 active torsions:
  status: ('A' for Active; 'I' for Inactive)
    1  A    between atoms: C_2  and  C_22
    2  A    between atoms: C_10  and  N_18
    3  A    between atoms: C_11  and  C_32
    4  A    between atoms: N_19  and  O_25
    5  A    between atoms: C_22  and  C_28
    6  A    between atoms: C_28  and  C_30
                            x       y       z     vdW  Elec       q    Type
                         _______ _______ _______ _____ _____    ______ ____

>  <TORSDO>
F 6

$$$$
=
 OpenBabel10222418523D

 33 36  0  0  1  0  0  0  0  0999 V2000
  186.2110  178.5050  139.1250 C   0  0  0  0  0  1  0  0  0  0  0  0
  185.9060  178.6290  140.5800 C   0  0  0  0  0  0  0  0  0  0  0  0
  183.3820  179.7630  138.7830 S   0  0  0  0  0  0  0  0  0  0  0  0
  183.4120  179.0070  140.2380 C   0  0  0  0  0  0  0  0  0  0  0  0
  184.2120  178.8280  142.4200 C   0  0  0  0  0  0  0  0  0  0  0  0
  182.8450  178.9720  142.5000 C   0  0  0  0  0  0  0  0  0  0  0  0
  184.4080  178.7840  144.7700 C   0  0  0  0  0  0  0  0  0  0  0  0
  185.2520  178.6620  145.9870 C   0  0  0  0  0  1  0  0  0  0  0  0
  184.6480  178.8170  141.0310 C   0  0  0  0  0  0  0  0  0  0  0  0
  184.9840  178.7290  143.5350 N   0  0  0  0  0  0  0  0  0  0  0  0
  182.2240  179.0550  143.7470 C   0  0  0  0  0  3  0  0  0  0  0  0
  182.2000  179.0440  141.1460 C   0  0  2  0  0  3  0  0  0  0  0  0
  183.0190  178.9570  144.8980 C   0  0  0  0  0  3  0  0  0  0  0  0
  181.9130  176.8570  139.9490 C   0  0  0  0  0  3  0  0  0  0  0  0
  181.3650  175.6770  139.6640 C   0  0  0  0  0  3  0  0  0  0  0  0
  181.2870  177.8280  140.9000 C   0  0  2  0  0  3  0  0  0  0  0  0
  179.9570  178.2590  140.3670 C   0  0  0  0  0  3  0  0  0  0  0  0
  179.8630  173.7490  140.3200 C   0  0  0  0  0  1  0  0  0  0  0  0
  178.9930  176.0080  140.3530 C   0  0  0  0  0  3  0  0  0  0  0  0
  180.0580  175.2140  140.1660 C   0  0  0  0  0  0  0  0  0  0  0  0
  178.9720  177.4340  140.1730 N   0  0  0  0  0  0  0  0  0  0  0  0
  187.0580  178.5150  141.5240 C   0  0  0  0  0  2  0  0  0  0  0  0
  188.2670  177.9570  140.7940 C   0  0  0  0  0  2  0  0  0  0  0  0
  190.7720  177.5010  141.4170 C   0  0  0  0  0  0  0  0  0  0  0  0
  191.5530  177.2910  142.6660 C   0  0  0  0  0  2  0  0  0  0  0  0
  190.5060  177.3740  143.6780 N   0  0  0  0  0  0  0  0  0  0  0  0
  191.2500  177.4980  140.2140 N   0  0  0  0  0  0  0  0  0  0  0  0
  189.2390  177.6150  143.0700 C   0  0  0  0  0  3  0  0  0  0  0  0
  189.3720  177.6860  141.7570 C   0  0  0  0  0  0  0  0  0  0  0  0
  193.0250  176.7580  138.7490 C   0  0  0  0  0  1  0  0  0  0  0  0
  192.5920  177.3050  139.9820 O   0  0  0  0  0  0  0  0  0  0  0  0
  190.6940  177.2460  145.1170 C   0  0  0  0  0  2  0  0  0  0  0  0
  191.7450  176.3700  145.4000 O   0  0  0  0  0  1  0  0  0  0  0  0
  1  2  1  0  0  0  0
  2  9  2  0  0  0  0
  2 22  1  0  0  0  0
  3  4  2  0  0  0  0
  4  9  1  0  0  0  0
  5  6  2  0  0  0  0
  5 10  1  0  0  0  0
  6 11  1  0  0  0  0
  7 13  1  0  0  0  0
  7  8  1  0  0  0  0
  9  5  1  0  0  0  0
 10  7  2  0  0  0  0
 11 13  2  0  0  0  0
 12  4  1  6  0  0  0
 12  6  1  0  0  0  0
 15 14  2  0  0  0  0
 15 20  1  0  0  0  0
 16 14  1  6  0  0  0
 16 12  1  0  0  0  0
 17 16  1  0  0  0  0
 20 18  1  0  0  0  0
 20 19  2  0  0  0  0
 21 19  1  0  0  0  0
 21 17  2  0  0  0  0
 23 22  1  0  0  0  0
 23 29  1  0  0  0  0
 24 29  1  0  0  0  0
 24 25  1  0  0  0  0
 25 26  1  0  0  0  0
 26 32  1  0  0  0  0
 27 24  2  0  0  0  0
 28 26  1  0  0  0  0
 29 28  2  0  0  0  0
 30 31  1  0  0  0  0
 31 27  1  0  0  0  0
 32 33  1  0  0  0  0
M  END
>  <MODEL>
6

>  <REMARK>
 VINA RESULT:      -7.8      3.550      5.306
  Name = 
  6 active torsions:
  status: ('A' for Active; 'I' for Inactive)
    1  A    between atoms: C_2  and  C_22
    2  A    between atoms: C_10  and  N_18
    3  A    between atoms: C_11  and  C_32
    4  A    between atoms: N_19  and  O_25
    5  A    between atoms: C_22  and  C_28
    6  A    between atoms: C_28  and  C_30
                            x       y       z     vdW  Elec       q    Type
                         _______ _______ _______ _____ _____    ______ ____

>  <TORSDO>
F 6

$$$$
=
 OpenBabel10222418523D

 33 36  0  0  1  0  0  0  0  0999 V2000
  190.6110  176.4830  142.4970 C   0  0  0  0  0  1  0  0  0  0  0  0
  189.5580  177.0050  141.5790 C   0  0  0  0  0  0  0  0  0  0  0  0
  192.5500  177.5020  140.2810 S   0  0  0  0  0  0  0  0  0  0  0  0
  191.1060  177.1910  139.5680 C   0  0  0  0  0  0  0  0  0  0  0  0
  188.8440  177.6640  139.2660 C   0  0  0  0  0  0  0  0  0  0  0  0
  189.4500  177.7810  138.0360 C   0  0  0  0  0  0  0  0  0  0  0  0
  186.7560  178.2950  138.3690 C   0  0  0  0  0  0  0  0  0  0  0  0
  185.3040  178.5500  138.5500 C   0  0  0  0  0  1  0  0  0  0  0  0
  189.8120  177.2730  140.2810 C   0  0  0  0  0  0  0  0  0  0  0  0
  187.5170  177.9100  139.4320 N   0  0  0  0  0  0  0  0  0  0  0  0
  188.7070  178.1950  136.9280 C   0  0  0  0  0  3  0  0  0  0  0  0
  190.9130  177.4460  138.0870 C   0  0  2  0  0  3  0  0  0  0  0  0
  187.3400  178.4520  137.0990 C   0  0  0  0  0  3  0  0  0  0  0  0
  190.5050  174.9850  137.8050 C   0  0  0  0  0  3  0  0  0  0  0  0
  190.5270  173.7990  137.2000 C   0  0  0  0  0  3  0  0  0  0  0  0
  191.2220  176.1810  137.2630 C   0  0  2  0  0  3  0  0  0  0  0  0
  192.6930  175.9080  137.2360 C   0  0  0  0  0  3  0  0  0  0  0  0
  190.7900  172.4270  135.0900 C   0  0  0  0  0  1  0  0  0  0  0  0
  192.5270  173.9880  135.7260 C   0  0  0  0  0  3  0  0  0  0  0  0
  191.3110  173.4880  135.9900 C   0  0  0  0  0  0  0  0  0  0  0  0
  193.2240  174.9590  136.5250 N   0  0  0  0  0  0  0  0  0  0  0  0
  188.1950  177.2000  142.1580 C   0  0  0  0  0  2  0  0  0  0  0  0
  188.1450  176.6200  143.5610 C   0  0  0  0  0  2  0  0  0  0  0  0
  187.1730  177.5600  145.8080 C   0  0  0  0  0  0  0  0  0  0  0  0
  185.9700  178.3290  146.2260 C   0  0  0  0  0  2  0  0  0  0  0  0
  185.2750  178.4920  144.9530 N   0  0  0  0  0  0  0  0  0  0  0  0
  188.1150  177.1410  146.5900 N   0  0  0  0  0  0  0  0  0  0  0  0
  186.0120  177.8780  143.8980 C   0  0  0  0  0  3  0  0  0  0  0  0
  187.1140  177.3260  144.3750 C   0  0  0  0  0  0  0  0  0  0  0  0
  189.0560  178.2530  148.5190 C   0  0  0  0  0  1  0  0  0  0  0  0
  188.0860  177.3990  147.9410 O   0  0  0  0  0  0  0  0  0  0  0  0
  184.0120  179.1880  144.7510 C   0  0  0  0  0  2  0  0  0  0  0  0
  183.7440  179.3350  143.3880 O   0  0  0  0  0  1  0  0  0  0  0  0
  2 22  1  0  0  0  0
  2  1  1  0  0  0  0
  4  9  1  0  0  0  0
  4  3  2  0  0  0  0
  5 10  1  0  0  0  0
  5  9  1  0  0  0  0
  6  5  2  0  0  0  0
  7  8  1  0  0  0  0
  7 10  2  0  0  0  0
  9  2  2  0  0  0  0
 11 13  2  0  0  0  0
 11  6  1  0  0  0  0
 12  6  1  1  0  0  0
 12  4  1  0  0  0  0
 13  7  1  0  0  0  0
 15 14  2  0  0  0  0
 16 17  1  1  0  0  0
 16 14  1  0  0  0  0
 16 12  1  0  0  0  0
 18 20  1  0  0  0  0
 19 20  2  0  0  0  0
 19 21  1  0  0  0  0
 20 15  1  0  0  0  0
 21 17  2  0  0  0  0
 22 23  1  0  0  0  0
 23 29  1  0  0  0  0
 24 25  1  0  0  0  0
 24 27  2  0  0  0  0
 26 25  1  0  0  0  0
 27 31  1  0  0  0  0
 28 29  2  0  0  0  0
 28 26  1  0  0  0  0
 29 24  1  0  0  0  0
 31 30  1  0  0  0  0
 32 26  1  0  0  0  0
 33 32  1  0  0  0  0
M  END
>  <MODEL>
7

>  <REMARK>
 VINA RESULT:      -7.7      2.876      4.117
  Name = 
  6 active torsions:
  status: ('A' for Active; 'I' for Inactive)
    1  A    between atoms: C_2  and  C_22
    2  A    between atoms: C_10  and  N_18
    3  A    between atoms: C_11  and  C_32
    4  A    between atoms: N_19  and  O_25
    5  A    between atoms: C_22  and  C_28
    6  A    between atoms: C_28  and  C_30
                            x       y       z     vdW  Elec       q    Type
                         _______ _______ _______ _____ _____    ______ ____

>  <TORSDO>
F 6

$$$$
=
 OpenBabel10222418523D

 33 36  0  0  1  0  0  0  0  0999 V2000
  190.7510  176.9210  141.5470 C   0  0  0  0  0  1  0  0  0  0  0  0
  189.4410  177.4760  141.0970 C   0  0  0  0  0  0  0  0  0  0  0  0
  191.4720  177.1140  138.5220 S   0  0  0  0  0  0  0  0  0  0  0  0
  189.8400  176.9830  138.6330 C   0  0  0  0  0  0  0  0  0  0  0  0
  187.7690  177.8460  139.2640 C   0  0  0  0  0  0  0  0  0  0  0  0
  187.7170  177.6170  137.9080 C   0  0  0  0  0  0  0  0  0  0  0  0
  185.5790  178.7220  139.2660 C   0  0  0  0  0  0  0  0  0  0  0  0
  184.4260  179.2960  140.0060 C   0  0  0  0  0  1  0  0  0  0  0  0
  189.0640  177.4530  139.8020 C   0  0  0  0  0  0  0  0  0  0  0  0
  186.7170  178.3840  139.9370 N   0  0  0  0  0  0  0  0  0  0  0  0
  186.5770  177.9720  137.1840 C   0  0  0  0  0  3  0  0  0  0  0  0
  188.9840  177.0050  137.3840 C   0  0  2  0  0  3  0  0  0  0  0  0
  185.4920  178.5290  137.8760 C   0  0  0  0  0  3  0  0  0  0  0  0
  187.3680  175.0920  137.2210 C   0  0  0  0  0  3  0  0  0  0  0  0
  186.8800  173.9310  136.7860 C   0  0  0  0  0  3  0  0  0  0  0  0
  188.7350  175.5790  136.8580 C   0  0  2  0  0  3  0  0  0  0  0  0
  189.7590  174.6280  137.3910 C   0  0  0  0  0  3  0  0  0  0  0  0
  186.8560  172.0790  135.0620 C   0  0  0  0  0  1  0  0  0  0  0  0
  188.9410  172.6990  136.1220 C   0  0  0  0  0  3  0  0  0  0  0  0
  187.6330  172.9530  135.9790 C   0  0  0  0  0  0  0  0  0  0  0  0
  189.8330  173.3850  137.0180 N   0  0  0  0  0  0  0  0  0  0  0  0
  188.5510  178.0450  142.1540 C   0  0  0  0  0  2  0  0  0  0  0  0
  187.9350  176.9200  142.9670 C   0  0  0  0  0  2  0  0  0  0  0  0
  186.7750  177.8180  145.1400 C   0  0  0  0  0  0  0  0  0  0  0  0
  187.1530  178.0070  146.5660 C   0  0  0  0  0  2  0  0  0  0  0  0
  188.5380  177.5460  146.5610 N   0  0  0  0  0  0  0  0  0  0  0  0
  185.6270  178.1040  144.6150 N   0  0  0  0  0  0  0  0  0  0  0  0
  188.9210  177.1250  145.2530 C   0  0  0  0  0  3  0  0  0  0  0  0
  187.9130  177.2810  144.4130 C   0  0  0  0  0  0  0  0  0  0  0  0
  183.3900  179.0080  144.7620 C   0  0  0  0  0  1  0  0  0  0  0  0
  184.6050  178.6210  145.3770 O   0  0  0  0  0  0  0  0  0  0  0  0
  189.4280  177.4970  147.7130 C   0  0  0  0  0  2  0  0  0  0  0  0
  189.0420  178.4360  148.6730 O   0  0  0  0  0  1  0  0  0  0  0  0
  2  1  1  0  0  0  0
  2 22  1  0  0  0  0
  3  4  2  0  0  0  0
  4  9  1  0  0  0  0
  5  9  1  0  0  0  0
  5 10  1  0  0  0  0
  6  5  2  0  0  0  0
  7 10  2  0  0  0  0
  7  8  1  0  0  0  0
  9  2  2  0  0  0  0
 11 13  2  0  0  0  0
 11  6  1  0  0  0  0
 12  6  1  1  0  0  0
 12  4  1  0  0  0  0
 13  7  1  0  0  0  0
 15 14  2  0  0  0  0
 16 14  1  1  0  0  0
 16 12  1  0  0  0  0
 16 17  1  0  0  0  0
 18 20  1  0  0  0  0
 19 21  1  0  0  0  0
 20 19  2  0  0  0  0
 20 15  1  0  0  0  0
 21 17  2  0  0  0  0
 22 23  1  0  0  0  0
 23 29  1  0  0  0  0
 24 25  1  0  0  0  0
 26 25  1  0  0  0  0
 26 32  1  0  0  0  0
 27 24  2  0  0  0  0
 27 31  1  0  0  0  0
 28 26  1  0  0  0  0
 29 24  1  0  0  0  0
 29 28  2  0  0  0  0
 30 31  1  0  0  0  0
 32 33  1  0  0  0  0
M  END
>  <MODEL>
8

>  <REMARK>
 VINA RESULT:      -7.4      1.924      3.374
  Name = 
  6 active torsions:
  status: ('A' for Active; 'I' for Inactive)
    1  A    between atoms: C_2  and  C_22
    2  A    between atoms: C_10  and  N_18
    3  A    between atoms: C_11  and  C_32
    4  A    between atoms: N_19  and  O_25
    5  A    between atoms: C_22  and  C_28
    6  A    between atoms: C_28  and  C_30
                            x       y       z     vdW  Elec       q    Type
                         _______ _______ _______ _____ _____    ______ ____

>  <TORSDO>
F 6

$$$$
=
 OpenBabel10222418523D

 33 36  0  0  1  0  0  0  0  0999 V2000
  190.8770  176.7530  141.4510 C   0  0  0  0  0  1  0  0  0  0  0  0
  189.5520  177.3220  141.0680 C   0  0  0  0  0  0  0  0  0  0  0  0
  191.4990  177.0770  138.4160 S   0  0  0  0  0  0  0  0  0  0  0  0
  189.8720  176.9350  138.5730 C   0  0  0  0  0  0  0  0  0  0  0  0
  187.8210  177.7620  139.3070 C   0  0  0  0  0  0  0  0  0  0  0  0
  187.7250  177.5910  137.9450 C   0  0  0  0  0  0  0  0  0  0  0  0
  185.6290  178.6280  139.4170 C   0  0  0  0  0  0  0  0  0  0  0  0
  184.4990  179.1650  140.2180 C   0  0  0  0  0  1  0  0  0  0  0  0
  189.1330  177.3520  139.7860 C   0  0  0  0  0  0  0  0  0  0  0  0
  186.7900  178.2670  140.0360 N   0  0  0  0  0  0  0  0  0  0  0  0
  186.5610  177.9710  137.2740 C   0  0  0  0  0  3  0  0  0  0  0  0
  188.9760  177.0070  137.3540 C   0  0  2  0  0  3  0  0  0  0  0  0
  185.4980  178.4940  138.0240 C   0  0  0  0  0  3  0  0  0  0  0  0
  187.3910  175.0650  137.2220 C   0  0  0  0  0  3  0  0  0  0  0  0
  186.8930  173.9170  136.7680 C   0  0  0  0  0  3  0  0  0  0  0  0
  188.7140  175.6030  136.7770 C   0  0  2  0  0  3  0  0  0  0  0  0
  189.7970  174.6510  137.1760 C   0  0  0  0  0  3  0  0  0  0  0  0
  186.7660  172.1530  134.9580 C   0  0  0  0  0  1  0  0  0  0  0  0
  188.9180  172.7700  135.8790 C   0  0  0  0  0  3  0  0  0  0  0  0
  187.5970  172.9990  135.8540 C   0  0  0  0  0  0  0  0  0  0  0  0
  189.8650  173.4310  136.7350 N   0  0  0  0  0  0  0  0  0  0  0  0
  188.6960  177.8410  142.1760 C   0  0  0  0  0  2  0  0  0  0  0  0
  188.1950  176.6850  143.0240 C   0  0  0  0  0  2  0  0  0  0  0  0
  188.5480  177.2060  145.5690 C   0  0  0  0  0  0  0  0  0  0  0  0
  187.7470  177.8060  146.6700 C   0  0  0  0  0  2  0  0  0  0  0  0
  186.4910  178.0960  145.9870 N   0  0  0  0  0  0  0  0  0  0  0  0
  189.7580  176.7560  145.6690 N   0  0  0  0  0  0  0  0  0  0  0  0
  186.5620  177.7030  144.6180 C   0  0  0  0  0  3  0  0  0  0  0  0
  187.7470  177.1800  144.3570 C   0  0  0  0  0  0  0  0  0  0  0  0
  191.7400  176.2570  146.9600 C   0  0  0  0  0  1  0  0  0  0  0  0
  190.4410  176.8120  146.8630 O   0  0  0  0  0  0  0  0  0  0  0  0
  185.3130  178.7090  146.5860 C   0  0  0  0  0  2  0  0  0  0  0  0
  185.6810  179.7520  147.4390 O   0  0  0  0  0  1  0  0  0  0  0  0
  2  1  1  0  0  0  0
  2 22  1  0  0  0  0
  3  4  2  0  0  0  0
  4  9  1  0  0  0  0
  5  9  1  0  0  0  0
  5 10  1  0  0  0  0
  6  5  2  0  0  0  0
  7 10  2  0  0  0  0
  7  8  1  0  0  0  0
  9  2  2  0  0  0  0
 11  6  1  0  0  0  0
 11 13  2  0  0  0  0
 12  6  1  1  0  0  0
 12  4  1  0  0  0  0
 13  7  1  0  0  0  0
 15 14  2  0  0  0  0
 16 17  1  1  0  0  0
 16 14  1  0  0  0  0
 16 12  1  0  0  0  0
 18 20  1  0  0  0  0
 19 21  1  0  0  0  0
 20 19  2  0  0  0  0
 20 15  1  0  0  0  0
 21 17  2  0  0  0  0
 22 23  1  0  0  0  0
 23 29  1  0  0  0  0
 24 27  2  0  0  0  0
 24 25  1  0  0  0  0
 26 32  1  0  0  0  0
 26 25  1  0  0  0  0
 27 31  1  0  0  0  0
 28 26  1  0  0  0  0
 29 28  2  0  0  0  0
 29 24  1  0  0  0  0
 31 30  1  0  0  0  0
 32 33  1  0  0  0  0
M  END
>  <MODEL>
9

>  <REMARK>
 VINA RESULT:      -7.3      1.683      2.229
  Name = 
  6 active torsions:
  status: ('A' for Active; 'I' for Inactive)
    1  A    between atoms: C_2  and  C_22
    2  A    between atoms: C_10  and  N_18
    3  A    between atoms: C_11  and  C_32
    4  A    between atoms: N_19  and  O_25
    5  A    between atoms: C_22  and  C_28
    6  A    between atoms: C_28  and  C_30
                            x       y       z     vdW  Elec       q    Type
                         _______ _______ _______ _____ _____    ______ ____

>  <TORSDO>
F 6

$$$$
