=
 OpenBabel10222415533D

 29 33  0  0  1  0  0  0  0  0999 V2000
  189.2410  178.1710  148.8430 C   0  0  0  0  0  2  0  0  0  0  0  0
  187.6730  178.2610  147.1930 C   0  0  0  0  0  0  0  0  0  0  0  0
  187.9250  178.6260  148.5010 O   0  0  0  0  0  0  0  0  0  0  0  0
  186.0170  178.2040  142.0290 N   0  0  0  0  0  0  0  0  0  0  0  0
  186.5080  178.0250  145.1050 C   0  0  0  0  0  0  0  0  0  0  0  0
  188.7680  177.1090  145.3950 C   0  0  0  0  0  3  0  0  0  0  0  0
  185.3140  178.2530  144.3430 N   0  0  0  0  0  2  0  0  0  0  0  0
  187.3400  177.8060  142.2770 N   0  0  0  0  0  0  0  0  0  0  0  0
  188.7470  177.6030  146.6940 C   0  0  0  0  0  0  0  0  0  0  0  0
  185.0750  178.3230  142.9210 C   0  0  0  0  0  0  0  0  0  0  0  0
  189.7290  177.5220  147.6610 O   0  0  0  0  0  0  0  0  0  0  0  0
  187.6310  177.3220  144.5930 C   0  0  0  0  0  0  0  0  0  0  0  0
  187.6180  176.7520  143.2290 C   0  0  0  0  0  2  0  0  0  0  0  0
  186.5290  178.4870  146.4360 C   0  0  0  0  0  3  0  0  0  0  0  0
  183.7130  178.6630  142.4580 C   0  0  0  0  0  0  0  0  0  0  0  0
  182.3860  177.8570  140.5470 C   0  0  0  0  0  3  0  0  0  0  0  0
  181.3430  179.2310  143.0400 C   0  0  0  0  0  3  0  0  0  0  0  0
  179.2730  179.1890  141.8970 N   0  0  0  0  0  1  0  0  0  0  0  0
  180.6470  178.8310  141.9670 C   0  0  0  0  0  0  0  0  0  0  0  0
  181.1620  177.9200  140.9810 N   0  0  0  0  0  0  0  0  0  0  0  0
  183.4450  178.8070  140.9920 C   0  0  0  0  0  2  0  0  0  0  0  0
  182.7530  178.9210  143.3520 C   0  0  0  0  0  3  0  0  0  0  0  0
  188.4010  178.2100  141.3660 C   0  0  1  0  0  3  0  0  0  0  0  0
  190.3740  176.9500  140.4910 C   0  0  0  0  0  3  0  0  0  0  0  0
  190.0130  177.2870  139.0670 C   0  0  1  0  0  3  0  0  0  0  0  0
  189.6160  177.3280  141.5320 C   0  0  0  0  0  3  0  0  0  0  0  0
  187.8860  178.2530  139.9270 C   0  0  0  0  0  2  0  0  0  0  0  0
  189.0550  178.4740  138.9760 C   0  0  0  0  0  2  0  0  0  0  0  0
  191.1590  177.5470  138.3410 F   0  0  0  0  0  0  0  0  0  0  0  0
  2  3  1  0  0  0  0
  3  1  1  0  0  0  0
  4  8  1  0  0  0  0
  4 10  2  0  0  0  0
  5 14  1  0  0  0  0
  6  9  2  0  0  0  0
  7  5  1  0  0  0  0
  8 13  1  0  0  0  0
  9  2  1  0  0  0  0
  9 11  1  0  0  0  0
 10  7  1  0  0  0  0
 11  1  1  0  0  0  0
 12  5  2  0  0  0  0
 12  6  1  0  0  0  0
 13 12  1  0  0  0  0
 14  2  2  0  0  0  0
 15 10  1  0  0  0  0
 15 22  2  0  0  0  0
 16 20  2  0  0  0  0
 16 21  1  0  0  0  0
 17 22  1  0  0  0  0
 18 19  1  0  0  0  0
 19 17  2  0  0  0  0
 20 19  1  0  0  0  0
 21 15  1  0  0  0  0
 23 27  1  6  0  0  0
 23 26  1  0  0  0  0
 23  8  1  0  0  0  0
 24 26  2  0  0  0  0
 25 29  1  6  0  0  0
 25 24  1  0  0  0  0
 28 25  1  0  0  0  0
 28 27  1  0  0  0  0
M  END
>  <MODEL>
1

>  <REMARK>
 VINA RESULT:     -10.0      0.000      0.000
  Name = 
  2 active torsions:
  status: ('A' for Active; 'I' for Inactive)
    1  A    between atoms: C_1  and  N_17
    2  A    between atoms: C_3  and  C_23
                            x       y       z     vdW  Elec       q    Type
                         _______ _______ _______ _____ _____    ______ ____

>  <TORSDO>
F 2

$$$$
=
 OpenBabel10222415533D

 29 33  0  0  1  0  0  0  0  0999 V2000
  192.1940  175.5750  147.7140 C   0  0  0  0  0  2  0  0  0  0  0  0
  191.6720  176.1050  145.5610 C   0  0  0  0  0  0  0  0  0  0  0  0
  192.5420  175.3670  146.3380 O   0  0  0  0  0  0  0  0  0  0  0  0
  188.3390  177.7610  141.6150 N   0  0  0  0  0  0  0  0  0  0  0  0
  190.6320  177.0270  143.6010 C   0  0  0  0  0  0  0  0  0  0  0  0
  189.8140  177.5970  145.8450 C   0  0  0  0  0  3  0  0  0  0  0  0
  190.6100  177.1390  142.1710 N   0  0  0  0  0  2  0  0  0  0  0  0
  187.9000  177.9410  142.9350 N   0  0  0  0  0  0  0  0  0  0  0  0
  190.8010  176.7650  146.3610 C   0  0  0  0  0  0  0  0  0  0  0  0
  189.5600  177.4920  141.2460 C   0  0  0  0  0  0  0  0  0  0  0  0
  191.0780  176.4770  147.6820 O   0  0  0  0  0  0  0  0  0  0  0  0
  189.7320  177.7290  144.4460 C   0  0  0  0  0  0  0  0  0  0  0  0
  188.7240  178.6540  143.8870 C   0  0  0  0  0  2  0  0  0  0  0  0
  191.6280  176.2130  144.1750 C   0  0  0  0  0  3  0  0  0  0  0  0
  189.8550  177.4310  139.7980 C   0  0  0  0  0  0  0  0  0  0  0  0
  190.8590  175.6660  138.4050 C   0  0  0  0  0  3  0  0  0  0  0  0
  189.1630  177.9930  137.4570 C   0  0  0  0  0  3  0  0  0  0  0  0
  189.7240  177.2010  135.3000 N   0  0  0  0  0  1  0  0  0  0  0  0
  189.7610  177.0520  136.7130 C   0  0  0  0  0  0  0  0  0  0  0  0
  190.2780  175.8230  137.2530 N   0  0  0  0  0  0  0  0  0  0  0  0
  191.1310  176.8040  139.3290 C   0  0  0  0  0  2  0  0  0  0  0  0
  189.0220  178.0090  138.9260 C   0  0  0  0  0  3  0  0  0  0  0  0
  186.5050  177.7030  143.2730 C   0  0  1  0  0  3  0  0  0  0  0  0
  185.1190  178.5310  145.1810 C   0  0  0  0  0  3  0  0  0  0  0  0
  184.0530  179.0380  144.2440 C   0  0  1  0  0  3  0  0  0  0  0  0
  186.2540  177.9680  144.7390 C   0  0  0  0  0  3  0  0  0  0  0  0
  185.5840  178.5080  142.3550 C   0  0  0  0  0  2  0  0  0  0  0  0
  184.1500  178.4050  142.8570 C   0  0  0  0  0  2  0  0  0  0  0  0
  182.8030  178.8060  144.7830 F   0  0  0  0  0  0  0  0  0  0  0  0
  2  3  1  0  0  0  0
  2  9  1  0  0  0  0
  3  1  1  0  0  0  0
  4  8  1  0  0  0  0
  5 14  1  0  0  0  0
  5 12  2  0  0  0  0
  6  9  2  0  0  0  0
  7  5  1  0  0  0  0
  8 23  1  0  0  0  0
  8 13  1  0  0  0  0
  9 11  1  0  0  0  0
 10  4  2  0  0  0  0
 10  7  1  0  0  0  0
 11  1  1  0  0  0  0
 12  6  1  0  0  0  0
 13 12  1  0  0  0  0
 14  2  2  0  0  0  0
 15 10  1  0  0  0  0
 16 21  1  0  0  0  0
 17 22  1  0  0  0  0
 18 19  1  0  0  0  0
 19 20  1  0  0  0  0
 19 17  2  0  0  0  0
 20 16  2  0  0  0  0
 21 15  1  0  0  0  0
 22 15  2  0  0  0  0
 23 27  1  6  0  0  0
 23 26  1  0  0  0  0
 25 29  1  1  0  0  0
 25 24  1  0  0  0  0
 26 24  2  0  0  0  0
 27 28  1  0  0  0  0
 28 25  1  0  0  0  0
M  END
>  <MODEL>
2

>  <REMARK>
 VINA RESULT:     -10.0      3.441      6.554
  Name = 
  2 active torsions:
  status: ('A' for Active; 'I' for Inactive)
    1  A    between atoms: C_1  and  N_17
    2  A    between atoms: C_3  and  C_23
                            x       y       z     vdW  Elec       q    Type
                         _______ _______ _______ _____ _____    ______ ____

>  <TORSDO>
F 2

$$$$
=
 OpenBabel10222415533D

 29 33  0  0  1  0  0  0  0  0999 V2000
  192.1030  176.2660  137.8310 C   0  0  0  0  0  2  0  0  0  0  0  0
  190.3080  176.9930  139.0320 C   0  0  0  0  0  0  0  0  0  0  0  0
  190.6920  176.5210  137.7930 O   0  0  0  0  0  0  0  0  0  0  0  0
  187.5790  177.9700  143.6170 N   0  0  0  0  0  0  0  0  0  0  0  0
  188.8920  177.8160  140.7890 C   0  0  0  0  0  0  0  0  0  0  0  0
  191.2990  177.5030  141.1580 C   0  0  0  0  0  3  0  0  0  0  0  0
  187.5800  178.2180  141.2100 N   0  0  0  0  0  2  0  0  0  0  0  0
  188.9430  177.6660  143.7410 N   0  0  0  0  0  0  0  0  0  0  0  0
  191.3890  177.0530  139.8460 C   0  0  0  0  0  0  0  0  0  0  0  0
  186.9690  178.3060  142.5150 C   0  0  0  0  0  0  0  0  0  0  0  0
  192.5080  176.6220  139.1610 O   0  0  0  0  0  0  0  0  0  0  0  0
  190.0310  177.8910  141.6330 C   0  0  0  0  0  0  0  0  0  0  0  0
  189.9310  178.4260  143.0070 C   0  0  0  0  0  2  0  0  0  0  0  0
  189.0410  177.3720  139.4610 C   0  0  0  0  0  3  0  0  0  0  0  0
  185.5420  178.6860  142.5950 C   0  0  0  0  0  0  0  0  0  0  0  0
  183.6770  178.3780  141.0180 C   0  0  0  0  0  3  0  0  0  0  0  0
  183.4770  178.9330  143.9910 C   0  0  0  0  0  3  0  0  0  0  0  0
  181.1590  179.0990  143.5530 N   0  0  0  0  0  1  0  0  0  0  0  0
  182.4780  178.8130  143.1060 C   0  0  0  0  0  0  0  0  0  0  0  0
  182.6430  178.2470  141.7950 N   0  0  0  0  0  0  0  0  0  0  0  0
  184.8510  179.2220  141.3800 C   0  0  0  0  0  2  0  0  0  0  0  0
  184.9040  178.6280  143.7690 C   0  0  0  0  0  3  0  0  0  0  0  0
  189.3990  176.8160  144.8320 C   0  0  1  0  0  3  0  0  0  0  0  0
  191.6800  176.4630  145.7880 C   0  0  0  0  0  3  0  0  0  0  0  0
  191.1890  176.7530  147.1830 C   0  0  1  0  0  3  0  0  0  0  0  0
  190.8790  176.5380  144.7140 C   0  0  0  0  0  3  0  0  0  0  0  0
  189.0090  177.4180  146.1820 C   0  0  0  0  0  2  0  0  0  0  0  0
  189.6710  176.6260  147.3010 C   0  0  0  0  0  2  0  0  0  0  0  0
  191.8060  175.9080  148.0840 F   0  0  0  0  0  0  0  0  0  0  0  0
  1 11  1  0  0  0  0
  2 14  2  0  0  0  0
  2  9  1  0  0  0  0
  3  1  1  0  0  0  0
  3  2  1  0  0  0  0
  4  8  1  0  0  0  0
  5  7  1  0  0  0  0
  5 12  2  0  0  0  0
  6 12  1  0  0  0  0
  7 10  1  0  0  0  0
  9  6  2  0  0  0  0
 10 15  1  0  0  0  0
 10  4  2  0  0  0  0
 11  9  1  0  0  0  0
 12 13  1  0  0  0  0
 13  8  1  0  0  0  0
 14  5  1  0  0  0  0
 15 22  2  0  0  0  0
 16 21  1  0  0  0  0
 16 20  2  0  0  0  0
 19 18  1  0  0  0  0
 19 17  2  0  0  0  0
 20 19  1  0  0  0  0
 21 15  1  0  0  0  0
 22 17  1  0  0  0  0
 23  8  1  6  0  0  0
 23 27  1  0  0  0  0
 24 25  1  0  0  0  0
 25 28  1  0  0  0  0
 25 29  1  1  0  0  0
 26 23  1  0  0  0  0
 26 24  2  0  0  0  0
 27 28  1  0  0  0  0
M  END
>  <MODEL>
3

>  <REMARK>
 VINA RESULT:      -9.9      3.506      5.860
  Name = 
  2 active torsions:
  status: ('A' for Active; 'I' for Inactive)
    1  A    between atoms: C_1  and  N_17
    2  A    between atoms: C_3  and  C_23
                            x       y       z     vdW  Elec       q    Type
                         _______ _______ _______ _____ _____    ______ ____

>  <TORSDO>
F 2

$$$$
=
 OpenBabel10222415533D

 29 33  0  0  1  0  0  0  0  0999 V2000
  191.6000  177.1030  148.0520 C   0  0  0  0  0  2  0  0  0  0  0  0
  189.7410  177.4580  146.7830 C   0  0  0  0  0  0  0  0  0  0  0  0
  190.2910  177.6890  148.0280 O   0  0  0  0  0  0  0  0  0  0  0  0
  187.0610  177.9740  142.0950 N   0  0  0  0  0  0  0  0  0  0  0  0
  188.1550  177.4940  144.9790 C   0  0  0  0  0  0  0  0  0  0  0  0
  190.3270  176.3790  144.7200 C   0  0  0  0  0  3  0  0  0  0  0  0
  186.8580  177.8820  144.5040 N   0  0  0  0  0  2  0  0  0  0  0  0
  188.3620  177.4510  142.0300 N   0  0  0  0  0  0  0  0  0  0  0  0
  190.6210  176.7610  146.0240 C   0  0  0  0  0  0  0  0  0  0  0  0
  186.3390  178.0920  143.1730 C   0  0  0  0  0  0  0  0  0  0  0  0
  191.7690  176.5190  146.7520 O   0  0  0  0  0  0  0  0  0  0  0  0
  189.0760  176.7510  144.1940 C   0  0  0  0  0  0  0  0  0  0  0  0
  188.7280  176.3010  142.8300 C   0  0  0  0  0  2  0  0  0  0  0  0
  188.4930  177.8390  146.3020 C   0  0  0  0  0  3  0  0  0  0  0  0
  184.9500  178.5780  143.0340 C   0  0  0  0  0  0  0  0  0  0  0  0
  183.3050  178.3330  141.2170 C   0  0  0  0  0  3  0  0  0  0  0  0
  182.7350  179.0390  144.1090 C   0  0  0  0  0  3  0  0  0  0  0  0
  180.5220  179.3540  143.3370 N   0  0  0  0  0  1  0  0  0  0  0  0
  181.8640  178.9520  143.0950 C   0  0  0  0  0  0  0  0  0  0  0  0
  182.1660  178.3150  141.8420 N   0  0  0  0  0  0  0  0  0  0  0  0
  184.4800  179.1050  141.7130 C   0  0  0  0  0  2  0  0  0  0  0  0
  184.1510  178.6210  144.1050 C   0  0  0  0  0  3  0  0  0  0  0  0
  189.2470  177.8440  140.9440 C   0  0  1  0  0  3  0  0  0  0  0  0
  190.6620  176.4720  139.4080 C   0  0  0  0  0  3  0  0  0  0  0  0
  190.0640  177.1350  138.1930 C   0  0  1  0  0  3  0  0  0  0  0  0
  190.2580  176.7600  140.6540 C   0  0  0  0  0  3  0  0  0  0  0  0
  188.4380  178.2510  139.7110 C   0  0  0  0  0  2  0  0  0  0  0  0
  189.3790  178.4570  138.5320 C   0  0  0  0  0  2  0  0  0  0  0  0
  191.0410  177.3390  137.2390 F   0  0  0  0  0  0  0  0  0  0  0  0
  2  3  1  0  0  0  0
  3  1  1  0  0  0  0
  4 10  2  0  0  0  0
  5 14  2  0  0  0  0
  6  9  1  0  0  0  0
  7  5  1  0  0  0  0
  8  4  1  0  0  0  0
  8 13  1  0  0  0  0
  9 11  1  0  0  0  0
  9  2  2  0  0  0  0
 10  7  1  0  0  0  0
 11  1  1  0  0  0  0
 12  6  2  0  0  0  0
 12  5  1  0  0  0  0
 13 12  1  0  0  0  0
 14  2  1  0  0  0  0
 15 10  1  0  0  0  0
 15 22  2  0  0  0  0
 16 21  1  0  0  0  0
 16 20  2  0  0  0  0
 19 18  1  0  0  0  0
 19 17  2  0  0  0  0
 20 19  1  0  0  0  0
 21 15  1  0  0  0  0
 22 17  1  0  0  0  0
 23 27  1  6  0  0  0
 23  8  1  0  0  0  0
 24 26  2  0  0  0  0
 25 29  1  6  0  0  0
 25 28  1  0  0  0  0
 25 24  1  0  0  0  0
 26 23  1  0  0  0  0
 28 27  1  0  0  0  0
M  END
>  <MODEL>
4

>  <REMARK>
 VINA RESULT:      -9.8      1.275      1.631
  Name = 
  2 active torsions:
  status: ('A' for Active; 'I' for Inactive)
    1  A    between atoms: C_1  and  N_17
    2  A    between atoms: C_3  and  C_23
                            x       y       z     vdW  Elec       q    Type
                         _______ _______ _______ _____ _____    ______ ____

>  <TORSDO>
F 2

$$$$
=
 OpenBabel10222415533D

 29 33  0  0  1  0  0  0  0  0999 V2000
  181.8390  178.7050  141.5620 C   0  0  0  0  0  2  0  0  0  0  0  0
  183.8950  178.4710  142.5160 C   0  0  0  0  0  0  0  0  0  0  0  0
  182.5410  178.3940  142.7740 O   0  0  0  0  0  0  0  0  0  0  0  0
  189.2400  177.5500  142.4240 N   0  0  0  0  0  0  0  0  0  0  0  0
  186.2670  178.3810  142.8870 C   0  0  0  0  0  0  0  0  0  0  0  0
  185.3610  178.9710  140.6830 C   0  0  0  0  0  3  0  0  0  0  0  0
  187.3510  178.1680  143.8030 N   0  0  0  0  0  2  0  0  0  0  0  0
  188.6130  177.7830  141.1900 N   0  0  0  0  0  0  0  0  0  0  0  0
  184.0890  178.8120  141.2190 C   0  0  0  0  0  0  0  0  0  0  0  0
  188.7310  177.7980  143.5980 C   0  0  0  0  0  0  0  0  0  0  0  0
  182.8670  178.9670  140.5960 O   0  0  0  0  0  0  0  0  0  0  0  0
  186.4630  178.7540  141.5310 C   0  0  0  0  0  0  0  0  0  0  0  0
  187.8200  178.9760  140.9880 C   0  0  0  0  0  2  0  0  0  0  0  0
  184.9570  178.2530  143.3880 C   0  0  0  0  0  3  0  0  0  0  0  0
  189.5790  177.5760  144.7890 C   0  0  0  0  0  0  0  0  0  0  0  0
  189.0130  177.0580  147.1280 C   0  0  0  0  0  3  0  0  0  0  0  0
  191.6810  176.6190  145.7590 C   0  0  0  0  0  3  0  0  0  0  0  0
  192.4150  176.0230  147.9270 N   0  0  0  0  0  1  0  0  0  0  0  0
  191.3650  176.3930  147.0420 C   0  0  0  0  0  0  0  0  0  0  0  0
  190.0140  176.3330  147.5280 N   0  0  0  0  0  0  0  0  0  0  0  0
  189.1590  178.1380  146.1110 C   0  0  0  0  0  2  0  0  0  0  0  0
  190.7530  176.9480  144.6590 C   0  0  0  0  0  3  0  0  0  0  0  0
  189.0070  177.0110  140.0210 C   0  0  1  0  0  3  0  0  0  0  0  0
  189.2320  177.6740  137.6220 C   0  0  0  0  0  3  0  0  0  0  0  0
  190.6350  177.1280  137.5580 C   0  0  1  0  0  3  0  0  0  0  0  0
  188.5100  177.6650  138.7530 C   0  0  0  0  0  3  0  0  0  0  0  0
  190.5180  176.7730  140.0180 C   0  0  0  0  0  2  0  0  0  0  0  0
  190.9300  176.1480  138.6920 C   0  0  0  0  0  2  0  0  0  0  0  0
  190.8460  176.5160  136.3370 F   0  0  0  0  0  0  0  0  0  0  0  0
  1  3  1  0  0  0  0
  2  3  1  0  0  0  0
  2 14  1  0  0  0  0
  4 10  2  0  0  0  0
  5 14  2  0  0  0  0
  5  7  1  0  0  0  0
  6  9  1  0  0  0  0
  6 12  2  0  0  0  0
  8  4  1  0  0  0  0
  9  2  2  0  0  0  0
 10  7  1  0  0  0  0
 10 15  1  0  0  0  0
 11  9  1  0  0  0  0
 11  1  1  0  0  0  0
 12  5  1  0  0  0  0
 13  8  1  0  0  0  0
 13 12  1  0  0  0  0
 15 21  1  0  0  0  0
 16 20  2  0  0  0  0
 17 19  2  0  0  0  0
 19 20  1  0  0  0  0
 19 18  1  0  0  0  0
 21 16  1  0  0  0  0
 22 15  2  0  0  0  0
 22 17  1  0  0  0  0
 23 26  1  6  0  0  0
 23  8  1  0  0  0  0
 24 26  2  0  0  0  0
 25 29  1  6  0  0  0
 25 24  1  0  0  0  0
 25 28  1  0  0  0  0
 27 23  1  0  0  0  0
 28 27  1  0  0  0  0
M  END
>  <MODEL>
5

>  <REMARK>
 VINA RESULT:      -9.5      3.297      6.910
  Name = 
  2 active torsions:
  status: ('A' for Active; 'I' for Inactive)
    1  A    between atoms: C_1  and  N_17
    2  A    between atoms: C_3  and  C_23
                            x       y       z     vdW  Elec       q    Type
                         _______ _______ _______ _____ _____    ______ ____

>  <TORSDO>
F 2

$$$$
=
 OpenBabel10222415533D

 29 33  0  0  1  0  0  0  0  0999 V2000
  183.1050  179.5540  144.7160 C   0  0  0  0  0  2  0  0  0  0  0  0
  184.7450  178.9490  143.2540 C   0  0  0  0  0  0  0  0  0  0  0  0
  183.5920  179.6990  143.3740 O   0  0  0  0  0  0  0  0  0  0  0  0
  189.7110  177.2060  141.9420 N   0  0  0  0  0  0  0  0  0  0  0  0
  186.7020  177.9700  142.2620 C   0  0  0  0  0  0  0  0  0  0  0  0
  186.1140  177.5090  144.6010 C   0  0  0  0  0  3  0  0  0  0  0  0
  187.5240  177.8010  141.0980 N   0  0  0  0  0  2  0  0  0  0  0  0
  189.3310  177.0880  143.2880 N   0  0  0  0  0  0  0  0  0  0  0  0
  185.0120  178.3400  144.4340 C   0  0  0  0  0  0  0  0  0  0  0  0
  188.9110  177.4340  140.9390 C   0  0  0  0  0  0  0  0  0  0  0  0
  184.0410  178.6750  145.3570 O   0  0  0  0  0  0  0  0  0  0  0  0
  186.9680  177.3220  143.4970 C   0  0  0  0  0  0  0  0  0  0  0  0
  188.1100  176.3960  143.6440 C   0  0  0  0  0  2  0  0  0  0  0  0
  185.5600  178.7860  142.1390 C   0  0  0  0  0  3  0  0  0  0  0  0
  189.4810  177.4300  139.5750 C   0  0  0  0  0  0  0  0  0  0  0  0
  191.0650  175.9040  138.4690 C   0  0  0  0  0  3  0  0  0  0  0  0
  189.1480  177.8290  137.1250 C   0  0  0  0  0  3  0  0  0  0  0  0
  190.2560  177.1620  135.1450 N   0  0  0  0  0  1  0  0  0  0  0  0
  190.0530  177.0280  136.5460 C   0  0  0  0  0  0  0  0  0  0  0  0
  190.6940  175.9340  137.2240 N   0  0  0  0  0  0  0  0  0  0  0  0
  190.9230  177.0760  139.3780 C   0  0  0  0  0  2  0  0  0  0  0  0
  188.7300  177.8220  138.5410 C   0  0  0  0  0  3  0  0  0  0  0  0
  190.2960  177.3690  144.3400 C   0  0  1  0  0  3  0  0  0  0  0  0
  190.0090  177.5560  146.8160 C   0  0  0  0  0  3  0  0  0  0  0  0
  191.1160  176.5630  147.0630 C   0  0  1  0  0  3  0  0  0  0  0  0
  189.6040  177.8860  145.5800 C   0  0  0  0  0  3  0  0  0  0  0  0
  191.1680  176.1420  144.6110 C   0  0  0  0  0  2  0  0  0  0  0  0
  192.0240  176.3900  145.8460 C   0  0  0  0  0  2  0  0  0  0  0  0
  191.8630  176.9540  148.1580 F   0  0  0  0  0  0  0  0  0  0  0  0
  1 11  1  0  0  0  0
  2  3  1  0  0  0  0
  2  9  1  0  0  0  0
  3  1  1  0  0  0  0
  4  8  1  0  0  0  0
  5 12  2  0  0  0  0
  7  5  1  0  0  0  0
  8 13  1  0  0  0  0
  9  6  2  0  0  0  0
  9 11  1  0  0  0  0
 10  7  1  0  0  0  0
 10  4  2  0  0  0  0
 12 13  1  0  0  0  0
 12  6  1  0  0  0  0
 14  5  1  0  0  0  0
 14  2  2  0  0  0  0
 15 10  1  0  0  0  0
 16 21  1  0  0  0  0
 17 22  1  0  0  0  0
 18 19  1  0  0  0  0
 19 17  2  0  0  0  0
 19 20  1  0  0  0  0
 20 16  2  0  0  0  0
 21 15  1  0  0  0  0
 22 15  2  0  0  0  0
 23  8  1  6  0  0  0
 23 27  1  0  0  0  0
 23 26  1  0  0  0  0
 24 25  1  0  0  0  0
 25 29  1  1  0  0  0
 26 24  2  0  0  0  0
 27 28  1  0  0  0  0
 28 25  1  0  0  0  0
M  END
>  <MODEL>
6

>  <REMARK>
 VINA RESULT:      -8.9      3.552      6.838
  Name = 
  2 active torsions:
  status: ('A' for Active; 'I' for Inactive)
    1  A    between atoms: C_1  and  N_17
    2  A    between atoms: C_3  and  C_23
                            x       y       z     vdW  Elec       q    Type
                         _______ _______ _______ _____ _____    ______ ____

>  <TORSDO>
F 2

$$$$
=
 OpenBabel10222415533D

 29 33  0  0  1  0  0  0  0  0999 V2000
  191.7240  175.9050  137.4320 C   0  0  0  0  0  2  0  0  0  0  0  0
  189.7690  176.7750  138.2160 C   0  0  0  0  0  0  0  0  0  0  0  0
  190.3490  176.1720  137.1180 O   0  0  0  0  0  0  0  0  0  0  0  0
  186.3080  178.2560  142.1210 N   0  0  0  0  0  0  0  0  0  0  0  0
  188.0910  177.7930  139.6020 C   0  0  0  0  0  0  0  0  0  0  0  0
  190.3850  177.4910  140.4220 C   0  0  0  0  0  3  0  0  0  0  0  0
  186.7390  178.2520  139.7400 N   0  0  0  0  0  2  0  0  0  0  0  0
  187.6190  177.9490  142.5160 N   0  0  0  0  0  0  0  0  0  0  0  0
  190.6920  176.9050  139.1990 C   0  0  0  0  0  0  0  0  0  0  0  0
  185.9110  178.4830  140.9000 C   0  0  0  0  0  0  0  0  0  0  0  0
  191.8990  176.3920  138.7700 O   0  0  0  0  0  0  0  0  0  0  0  0
  189.0670  177.9420  140.6220 C   0  0  0  0  0  0  0  0  0  0  0  0
  188.7430  178.6170  141.8960 C   0  0  0  0  0  2  0  0  0  0  0  0
  188.4580  177.2110  138.3720 C   0  0  0  0  0  3  0  0  0  0  0  0
  184.5050  178.8860  140.6860 C   0  0  0  0  0  0  0  0  0  0  0  0
  183.1100  178.9440  138.6590 C   0  0  0  0  0  3  0  0  0  0  0  0
  182.1480  178.9280  141.5330 C   0  0  0  0  0  3  0  0  0  0  0  0
  180.0160  179.2490  140.5610 N   0  0  0  0  0  1  0  0  0  0  0  0
  181.4100  179.0110  140.4170 C   0  0  0  0  0  0  0  0  0  0  0  0
  181.9140  178.7010  139.1070 N   0  0  0  0  0  0  0  0  0  0  0  0
  184.1370  179.6660  139.4620 C   0  0  0  0  0  2  0  0  0  0  0  0
  183.5900  178.6250  141.6260 C   0  0  0  0  0  3  0  0  0  0  0  0
  187.8500  177.2120  143.7490 C   0  0  1  0  0  3  0  0  0  0  0  0
  189.7770  177.2470  145.3400 C   0  0  0  0  0  3  0  0  0  0  0  0
  188.8630  177.4950  146.5110 C   0  0  1  0  0  3  0  0  0  0  0  0
  189.3240  177.1660  144.0790 C   0  0  0  0  0  3  0  0  0  0  0  0
  187.0010  177.7840  144.8850 C   0  0  0  0  0  2  0  0  0  0  0  0
  187.4100  177.1360  146.2010 C   0  0  0  0  0  2  0  0  0  0  0  0
  189.3010  176.7830  147.6100 F   0  0  0  0  0  0  0  0  0  0  0  0
  1 11  1  0  0  0  0
  2 14  2  0  0  0  0
  2  9  1  0  0  0  0
  3  1  1  0  0  0  0
  3  2  1  0  0  0  0
  4  8  1  0  0  0  0
  5  7  1  0  0  0  0
  5 12  2  0  0  0  0
  6 12  1  0  0  0  0
  7 10  1  0  0  0  0
  9  6  2  0  0  0  0
 10  4  2  0  0  0  0
 11  9  1  0  0  0  0
 12 13  1  0  0  0  0
 13  8  1  0  0  0  0
 14  5  1  0  0  0  0
 15 10  1  0  0  0  0
 15 22  2  0  0  0  0
 16 20  2  0  0  0  0
 16 21  1  0  0  0  0
 17 22  1  0  0  0  0
 19 18  1  0  0  0  0
 19 17  2  0  0  0  0
 20 19  1  0  0  0  0
 21 15  1  0  0  0  0
 23  8  1  6  0  0  0
 23 26  1  0  0  0  0
 23 27  1  0  0  0  0
 24 25  1  0  0  0  0
 25 29  1  1  0  0  0
 26 24  2  0  0  0  0
 27 28  1  0  0  0  0
 28 25  1  0  0  0  0
M  END
>  <MODEL>
7

>  <REMARK>
 VINA RESULT:      -8.6      3.429      5.859
  Name = 
  2 active torsions:
  status: ('A' for Active; 'I' for Inactive)
    1  A    between atoms: C_1  and  N_17
    2  A    between atoms: C_3  and  C_23
                            x       y       z     vdW  Elec       q    Type
                         _______ _______ _______ _____ _____    ______ ____

>  <TORSDO>
F 2

$$$$
=
 OpenBabel10222415533D

 29 33  0  0  1  0  0  0  0  0999 V2000
  188.1910  177.0590  148.0220 C   0  0  0  0  0  2  0  0  0  0  0  0
  188.0960  177.4240  145.7750 C   0  0  0  0  0  0  0  0  0  0  0  0
  188.8550  176.8400  146.7700 O   0  0  0  0  0  0  0  0  0  0  0  0
  185.5390  178.4570  141.1050 N   0  0  0  0  0  0  0  0  0  0  0  0
  187.4090  178.1170  143.5800 C   0  0  0  0  0  0  0  0  0  0  0  0
  186.0560  178.6680  145.5530 C   0  0  0  0  0  3  0  0  0  0  0  0
  187.6890  178.1640  142.1730 N   0  0  0  0  0  2  0  0  0  0  0  0
  184.8020  178.6330  142.2860 N   0  0  0  0  0  0  0  0  0  0  0  0
  186.9980  177.9970  146.3240 C   0  0  0  0  0  0  0  0  0  0  0  0
  186.8340  178.3360  141.0230 C   0  0  0  0  0  0  0  0  0  0  0  0
  187.0100  177.8040  147.6900 O   0  0  0  0  0  0  0  0  0  0  0  0
  186.2680  178.7290  144.1620 C   0  0  0  0  0  0  0  0  0  0  0  0
  185.3050  179.4890  143.3390 C   0  0  0  0  0  2  0  0  0  0  0  0
  188.3450  177.4660  144.4080 C   0  0  0  0  0  3  0  0  0  0  0  0
  187.4450  178.2530  139.6790 C   0  0  0  0  0  0  0  0  0  0  0  0
  189.4170  177.0350  138.8510 C   0  0  0  0  0  3  0  0  0  0  0  0
  187.1260  178.1320  137.1980 C   0  0  0  0  0  3  0  0  0  0  0  0
  188.4550  177.4580  135.3610 N   0  0  0  0  0  1  0  0  0  0  0  0
  188.2330  177.5130  136.7640 C   0  0  0  0  0  0  0  0  0  0  0  0
  189.1060  176.7560  137.6200 N   0  0  0  0  0  0  0  0  0  0  0  0
  188.9360  178.2640  139.5430 C   0  0  0  0  0  2  0  0  0  0  0  0
  186.6630  178.2530  138.5940 C   0  0  0  0  0  3  0  0  0  0  0  0
  183.4050  178.2290  142.3350 C   0  0  1  0  0  3  0  0  0  0  0  0
  181.4630  179.1970  143.5750 C   0  0  0  0  0  3  0  0  0  0  0  0
  180.6430  179.2810  142.3140 C   0  0  1  0  0  3  0  0  0  0  0  0
  182.7340  178.7650  143.5780 C   0  0  0  0  0  3  0  0  0  0  0  0
  182.6830  178.6280  141.0470 C   0  0  0  0  0  2  0  0  0  0  0  0
  181.1890  178.3820  141.2050 C   0  0  0  0  0  2  0  0  0  0  0  0
  179.3290  178.9520  142.5840 F   0  0  0  0  0  0  0  0  0  0  0  0
  2  9  1  0  0  0  0
  2  3  1  0  0  0  0
  3  1  1  0  0  0  0
  4  8  1  0  0  0  0
  5 12  2  0  0  0  0
  5 14  1  0  0  0  0
  6  9  2  0  0  0  0
  7  5  1  0  0  0  0
  8 23  1  0  0  0  0
  8 13  1  0  0  0  0
  9 11  1  0  0  0  0
 10  4  2  0  0  0  0
 10  7  1  0  0  0  0
 11  1  1  0  0  0  0
 12  6  1  0  0  0  0
 13 12  1  0  0  0  0
 14  2  2  0  0  0  0
 15 10  1  0  0  0  0
 16 21  1  0  0  0  0
 17 22  1  0  0  0  0
 18 19  1  0  0  0  0
 19 17  2  0  0  0  0
 19 20  1  0  0  0  0
 20 16  2  0  0  0  0
 21 15  1  0  0  0  0
 22 15  2  0  0  0  0
 23 27  1  6  0  0  0
 23 26  1  0  0  0  0
 24 26  2  0  0  0  0
 25 29  1  1  0  0  0
 25 24  1  0  0  0  0
 27 28  1  0  0  0  0
 28 25  1  0  0  0  0
M  END
>  <MODEL>
8

>  <REMARK>
 VINA RESULT:      -8.1      3.079      6.229
  Name = 
  2 active torsions:
  status: ('A' for Active; 'I' for Inactive)
    1  A    between atoms: C_1  and  N_17
    2  A    between atoms: C_3  and  C_23
                            x       y       z     vdW  Elec       q    Type
                         _______ _______ _______ _____ _____    ______ ____

>  <TORSDO>
F 2

$$$$
=
 OpenBabel10222415533D

 29 33  0  0  1  0  0  0  0  0999 V2000
  191.6150  173.8630  137.0350 C   0  0  0  0  0  2  0  0  0  0  0  0
  189.7380  175.1220  137.3200 C   0  0  0  0  0  0  0  0  0  0  0  0
  190.2300  173.9980  136.6870 O   0  0  0  0  0  0  0  0  0  0  0  0
  186.5790  178.6360  139.9830 N   0  0  0  0  0  0  0  0  0  0  0  0
  188.1800  176.8110  138.0230 C   0  0  0  0  0  0  0  0  0  0  0  0
  190.5160  176.8630  138.7780 C   0  0  0  0  0  3  0  0  0  0  0  0
  186.8510  177.3490  137.9540 N   0  0  0  0  0  2  0  0  0  0  0  0
  187.9060  178.5130  140.4240 N   0  0  0  0  0  0  0  0  0  0  0  0
  190.7260  175.7020  138.0420 C   0  0  0  0  0  0  0  0  0  0  0  0
  186.1080  178.2040  138.8480 C   0  0  0  0  0  0  0  0  0  0  0  0
  191.8900  174.9730  137.9000 O   0  0  0  0  0  0  0  0  0  0  0  0
  189.2250  177.4240  138.7650 C   0  0  0  0  0  0  0  0  0  0  0  0
  189.0020  178.6880  139.4960 C   0  0  0  0  0  2  0  0  0  0  0  0
  188.4510  175.6470  137.2760 C   0  0  0  0  0  3  0  0  0  0  0  0
  184.7010  178.5110  138.5130 C   0  0  0  0  0  0  0  0  0  0  0  0
  182.7940  177.0520  137.9680 C   0  0  0  0  0  3  0  0  0  0  0  0
  182.6760  179.9290  138.9120 C   0  0  0  0  0  3  0  0  0  0  0  0
  180.3590  179.7140  138.4890 N   0  0  0  0  0  1  0  0  0  0  0  0
  181.6550  179.1350  138.5610 C   0  0  0  0  0  0  0  0  0  0  0  0
  181.7710  177.7080  138.4280 N   0  0  0  0  0  0  0  0  0  0  0  0
  184.0100  177.7310  137.4370 C   0  0  0  0  0  2  0  0  0  0  0  0
  184.0840  179.5340  139.1130 C   0  0  0  0  0  3  0  0  0  0  0  0
  188.2000  178.5290  141.8490 C   0  0  1  0  0  3  0  0  0  0  0  0
  187.2980  177.1410  143.7220 C   0  0  0  0  0  3  0  0  0  0  0  0
  188.6870  176.7740  144.1760 C   0  0  1  0  0  3  0  0  0  0  0  0
  187.0750  177.8990  142.6370 C   0  0  0  0  0  3  0  0  0  0  0  0
  189.5570  177.8830  142.1260 C   0  0  0  0  0  2  0  0  0  0  0  0
  189.7490  177.7260  143.6280 C   0  0  0  0  0  2  0  0  0  0  0  0
  188.7400  176.7500  145.5560 F   0  0  0  0  0  0  0  0  0  0  0  0
  1 11  1  0  0  0  0
  2  9  1  0  0  0  0
  3  1  1  0  0  0  0
  3  2  1  0  0  0  0
  4  8  1  0  0  0  0
  5 12  2  0  0  0  0
  7  5  1  0  0  0  0
  7 10  1  0  0  0  0
  9  6  2  0  0  0  0
 10  4  2  0  0  0  0
 11  9  1  0  0  0  0
 12  6  1  0  0  0  0
 12 13  1  0  0  0  0
 13  8  1  0  0  0  0
 14  2  2  0  0  0  0
 14  5  1  0  0  0  0
 15 10  1  0  0  0  0
 15 22  2  0  0  0  0
 16 20  2  0  0  0  0
 17 22  1  0  0  0  0
 18 19  1  0  0  0  0
 19 17  2  0  0  0  0
 20 19  1  0  0  0  0
 21 16  1  0  0  0  0
 21 15  1  0  0  0  0
 23  8  1  6  0  0  0
 23 27  1  0  0  0  0
 23 26  1  0  0  0  0
 24 25  1  0  0  0  0
 25 29  1  1  0  0  0
 26 24  2  0  0  0  0
 27 28  1  0  0  0  0
 28 25  1  0  0  0  0
M  END
>  <MODEL>
9

>  <REMARK>
 VINA RESULT:      -7.9      4.156      6.459
  Name = 
  2 active torsions:
  status: ('A' for Active; 'I' for Inactive)
    1  A    between atoms: C_1  and  N_17
    2  A    between atoms: C_3  and  C_23
                            x       y       z     vdW  Elec       q    Type
                         _______ _______ _______ _____ _____    ______ ____

>  <TORSDO>
F 2

$$$$
