=
 OpenBabel10222416313D

 32 36  0  0  1  0  0  0  0  0999 V2000
  186.9500  177.8980  147.1270 C   0  0  0  0  0  0  0  0  0  0  0  0
  189.0880  177.2230  146.5110 C   0  0  2  0  0  3  0  0  0  0  0  0
  186.9910  177.3430  144.9270 N   0  0  0  0  0  0  0  0  0  0  0  0
  190.0650  178.1840  148.5280 O   0  0  0  0  0  0  0  0  0  0  0  0
  187.6270  177.2740  146.2020 C   0  0  0  0  0  0  0  0  0  0  0  0
  184.6760  178.6980  147.1220 N   0  0  0  0  0  2  0  0  0  0  0  0
  185.8930  178.0150  145.1090 C   0  0  0  0  0  0  0  0  0  0  0  0
  185.7920  178.4970  146.5000 C   0  0  0  0  0  0  0  0  0  0  0  0
  187.7500  178.4290  148.1690 N   0  0  0  0  0  2  0  0  0  0  0  0
  189.0530  177.9730  147.8090 C   0  0  0  0  0  0  0  0  0  0  0  0
  183.6750  178.6860  144.3180 C   0  0  0  0  0  3  0  0  0  0  0  0
  182.6400  178.9130  143.2760 C   0  0  0  0  0  3  0  0  0  0  0  0
  186.5650  178.3580  142.0570 C   0  0  0  0  0  3  0  0  0  0  0  0
  182.9530  178.8780  141.9760 C   0  0  0  0  0  3  0  0  0  0  0  0
  185.0360  179.2140  140.7130 C   0  0  0  0  0  2  0  0  0  0  0  0
  184.3400  178.5690  141.6280 C   0  0  1  0  0  3  0  0  0  0  0  0
  185.2500  177.8850  142.5870 C   0  0  2  0  0  3  0  0  0  0  0  0
  186.4260  179.0530  140.9720 N   0  0  0  0  0  0  0  0  0  0  0  0
  184.9270  178.2820  144.0180 C   0  0  0  0  0  0  0  0  0  0  0  0
  189.8790  178.0090  145.4770 C   0  0  0  0  0  2  0  0  0  0  0  0
  190.9870  177.3840  143.4110 C   0  0  0  0  0  0  0  0  0  0  0  0
  191.3320  177.6870  142.1870 C   0  0  0  0  0  3  0  0  0  0  0  0
  190.6510  177.0630  144.6290 C   0  0  0  0  0  3  0  0  0  0  0  0
  190.9430  176.8690  140.9850 C   0  0  0  0  0  2  0  0  0  0  0  0
  189.7080  177.3810  140.2450 C   0  0  0  0  0  2  0  0  0  0  0  0
  190.0790  177.8830  138.9240 N   0  0  0  0  0  0  0  0  0  0  0  0
  187.8170  177.6170  137.9170 C   0  0  0  0  0  2  0  0  0  0  0  0
  188.3430  176.6370  136.9740 N   0  0  0  0  0  0  0  0  0  0  0  0
  188.9330  178.5840  138.3300 C   0  0  0  0  0  2  0  0  0  0  0  0
  190.5240  176.7690  138.0750 C   0  0  0  0  0  2  0  0  0  0  0  0
  187.0360  175.5460  136.6120 Cl  0  0  0  0  0  0  0  0  0  0  0  0
  189.3580  175.8560  137.6700 C   0  0  0  0  0  2  0  0  0  0  0  0
  1  9  1  0  0  0  0
  2 20  1  6  0  0  0
  2 10  1  0  0  0  0
  3  7  2  0  0  0  0
  3  5  1  0  0  0  0
  5  2  1  0  0  0  0
  5  1  2  0  0  0  0
  7  8  1  0  0  0  0
  8  6  2  0  0  0  0
  8  1  1  0  0  0  0
 10  9  1  0  0  0  0
 10  4  2  0  0  0  0
 12 11  1  0  0  0  0
 14 12  2  0  0  0  0
 15 18  1  0  0  0  0
 16 15  1  1  0  0  0
 16 14  1  0  0  0  0
 16 17  1  0  0  0  0
 17 13  1  6  0  0  0
 17 19  1  0  0  0  0
 18 13  2  0  0  0  0
 19 11  2  0  0  0  0
 19  7  1  0  0  0  0
 21 23  2  0  0  0  0
 22 21  2  0  0  0  0
 23 20  1  0  0  0  0
 24 22  1  0  0  0  0
 25 24  1  0  0  0  0
 26 25  1  0  0  0  0
 27 29  1  0  0  0  0
 28 32  1  0  0  0  0
 28 27  1  0  0  0  0
 29 26  1  0  0  0  0
 30 26  1  0  0  0  0
 31 28  1  0  0  0  0
 32 30  1  0  0  0  0
M  END
>  <MODEL>
1

>  <REMARK>
 VINA RESULT:      -9.6      0.000      0.000
  Name = 
  6 active torsions:
  status: ('A' for Active; 'I' for Inactive)
    1  A    between atoms: N_2  and  C_13
    2  A    between atoms: C_3  and  C_18
    3  A    between atoms: C_9  and  C_29
    4  A    between atoms: C_13  and  C_29
    5  A    between atoms: C_18  and  C_24
    6  A    between atoms: C_21  and  C_30
                            x       y       z     vdW  Elec       q    Type
                         _______ _______ _______ _____ _____    ______ ____

>  <TORSDO>
F 6

$$$$
=
 OpenBabel10222416313D

 32 36  0  0  1  0  0  0  0  0999 V2000
  188.6860  177.2710  147.1440 C   0  0  0  0  0  0  0  0  0  0  0  0
  190.5650  176.5640  145.9690 C   0  0  2  0  0  3  0  0  0  0  0  0
  188.1790  176.9980  144.9490 N   0  0  0  0  0  0  0  0  0  0  0  0
  192.0510  177.2070  147.7920 O   0  0  0  0  0  0  0  0  0  0  0  0
  189.0810  176.7330  146.0210 C   0  0  0  0  0  0  0  0  0  0  0  0
  186.5450  178.1880  147.7640 N   0  0  0  0  0  2  0  0  0  0  0  0
  187.2110  177.7010  145.4580 C   0  0  0  0  0  0  0  0  0  0  0  0
  187.4690  178.0070  146.8780 C   0  0  0  0  0  0  0  0  0  0  0  0
  189.7430  177.6210  148.0190 N   0  0  0  0  0  2  0  0  0  0  0  0
  190.8880  177.1440  147.3140 C   0  0  0  0  0  0  0  0  0  0  0  0
  184.9990  178.7380  145.2830 C   0  0  0  0  0  3  0  0  0  0  0  0
  183.7770  179.1630  144.5530 C   0  0  0  0  0  3  0  0  0  0  0  0
  187.1010  178.0530  142.3360 C   0  0  0  0  0  3  0  0  0  0  0  0
  183.7260  179.1300  143.2160 C   0  0  0  0  0  3  0  0  0  0  0  0
  185.4300  179.1870  141.4430 C   0  0  0  0  0  2  0  0  0  0  0  0
  184.9050  178.6230  142.5130 C   0  0  1  0  0  3  0  0  0  0  0  0
  185.9140  177.7700  143.1990 C   0  0  2  0  0  3  0  0  0  0  0  0
  186.7940  178.8020  141.3240 N   0  0  0  0  0  0  0  0  0  0  0  0
  186.0470  178.1560  144.6620 C   0  0  0  0  0  0  0  0  0  0  0  0
  191.1610  177.4300  144.8710 C   0  0  0  0  0  2  0  0  0  0  0  0
  191.4660  177.0350  142.4970 C   0  0  0  0  0  0  0  0  0  0  0  0
  191.4100  177.4810  141.2700 C   0  0  0  0  0  3  0  0  0  0  0  0
  191.5260  176.5720  143.7140 C   0  0  0  0  0  3  0  0  0  0  0  0
  190.5780  176.8450  140.1890 C   0  0  0  0  0  2  0  0  0  0  0  0
  189.6820  177.8200  139.4250 C   0  0  0  0  0  2  0  0  0  0  0  0
  189.9050  177.6940  137.9870 N   0  0  0  0  0  0  0  0  0  0  0  0
  187.6020  178.3690  137.3230 C   0  0  0  0  0  2  0  0  0  0  0  0
  187.3730  177.0500  136.7430 N   0  0  0  0  0  0  0  0  0  0  0  0
  189.0980  178.6980  137.2800 C   0  0  0  0  0  2  0  0  0  0  0  0
  189.5690  176.3320  137.5480 C   0  0  0  0  0  2  0  0  0  0  0  0
  185.6690  176.7310  136.8930 Cl  0  0  0  0  0  0  0  0  0  0  0  0
  188.0560  176.0750  137.5840 C   0  0  0  0  0  2  0  0  0  0  0  0
  1  9  1  0  0  0  0
  2 20  1  6  0  0  0
  2  5  1  0  0  0  0
  2 10  1  0  0  0  0
  3  7  2  0  0  0  0
  3  5  1  0  0  0  0
  5  1  2  0  0  0  0
  7  8  1  0  0  0  0
  8  1  1  0  0  0  0
  8  6  2  0  0  0  0
 10  4  2  0  0  0  0
 10  9  1  0  0  0  0
 12 11  1  0  0  0  0
 14 12  2  0  0  0  0
 16 15  1  1  0  0  0
 16 17  1  0  0  0  0
 16 14  1  0  0  0  0
 17 13  1  6  0  0  0
 17 19  1  0  0  0  0
 18 15  1  0  0  0  0
 18 13  2  0  0  0  0
 19 11  2  0  0  0  0
 19  7  1  0  0  0  0
 21 23  2  0  0  0  0
 22 21  2  0  0  0  0
 23 20  1  0  0  0  0
 24 22  1  0  0  0  0
 25 24  1  0  0  0  0
 26 25  1  0  0  0  0
 28 31  1  0  0  0  0
 28 27  1  0  0  0  0
 28 32  1  0  0  0  0
 29 27  1  0  0  0  0
 29 26  1  0  0  0  0
 30 32  1  0  0  0  0
 30 26  1  0  0  0  0
M  END
>  <MODEL>
2

>  <REMARK>
 VINA RESULT:      -9.6      1.143      1.431
  Name = 
  6 active torsions:
  status: ('A' for Active; 'I' for Inactive)
    1  A    between atoms: N_2  and  C_13
    2  A    between atoms: C_3  and  C_18
    3  A    between atoms: C_9  and  C_29
    4  A    between atoms: C_13  and  C_29
    5  A    between atoms: C_18  and  C_24
    6  A    between atoms: C_21  and  C_30
                            x       y       z     vdW  Elec       q    Type
                         _______ _______ _______ _____ _____    ______ ____

>  <TORSDO>
F 6

$$$$
=
 OpenBabel10222416313D

 32 36  0  0  1  0  0  0  0  0999 V2000
  185.8520  178.5520  146.2970 C   0  0  0  0  0  0  0  0  0  0  0  0
  185.1170  179.2070  144.1910 C   0  0  2  0  0  3  0  0  0  0  0  0
  187.5890  178.5850  144.8380 N   0  0  0  0  0  0  0  0  0  0  0  0
  182.7870  178.8060  144.7840 O   0  0  0  0  0  0  0  0  0  0  0  0
  186.2550  178.9890  145.1350 C   0  0  0  0  0  0  0  0  0  0  0  0
  187.1070  177.6210  148.1330 N   0  0  0  0  0  2  0  0  0  0  0  0
  187.9950  177.9000  145.8670 C   0  0  0  0  0  0  0  0  0  0  0  0
  186.9150  177.7480  146.8600 C   0  0  0  0  0  0  0  0  0  0  0  0
  184.4550  178.3300  146.3780 N   0  0  0  0  0  2  0  0  0  0  0  0
  184.0060  178.7770  145.1000 C   0  0  0  0  0  0  0  0  0  0  0  0
  189.8290  176.9130  147.1550 C   0  0  0  0  0  3  0  0  0  0  0  0
  191.2050  176.3820  147.3290 C   0  0  0  0  0  3  0  0  0  0  0  0
  189.7790  176.9180  143.4720 C   0  0  0  0  0  3  0  0  0  0  0  0
  191.9890  176.1420  146.2710 C   0  0  0  0  0  3  0  0  0  0  0  0
  191.5520  175.6730  143.8960 C   0  0  0  0  0  2  0  0  0  0  0  0
  191.4480  176.4600  144.9500 C   0  0  1  0  0  3  0  0  0  0  0  0
  190.3120  177.4060  144.7810 C   0  0  2  0  0  3  0  0  0  0  0  0
  190.5240  175.9870  142.9660 N   0  0  0  0  0  0  0  0  0  0  0  0
  189.3580  177.3250  145.9600 C   0  0  0  0  0  0  0  0  0  0  0  0
  185.2190  178.2590  143.0070 C   0  0  0  0  0  2  0  0  0  0  0  0
  185.2630  178.9180  140.6720 C   0  0  0  0  0  0  0  0  0  0  0  0
  184.7240  178.8670  139.4820 C   0  0  0  0  0  3  0  0  0  0  0  0
  185.8140  178.9790  141.8510 C   0  0  0  0  0  3  0  0  0  0  0  0
  185.4510  178.3760  138.2590 C   0  0  0  0  0  2  0  0  0  0  0  0
  186.7900  177.6980  138.5510 C   0  0  0  0  0  2  0  0  0  0  0  0
  187.8840  178.6570  138.4230 N   0  0  0  0  0  0  0  0  0  0  0  0
  189.3620  177.1660  137.0850 C   0  0  0  0  0  2  0  0  0  0  0  0
  190.3520  177.1700  138.1570 N   0  0  0  0  0  0  0  0  0  0  0  0
  188.5510  178.4660  137.1280 C   0  0  0  0  0  2  0  0  0  0  0  0
  188.8250  178.4910  139.5390 C   0  0  0  0  0  2  0  0  0  0  0  0
  191.1770  175.6400  138.0750 Cl  0  0  0  0  0  0  0  0  0  0  0  0
  189.6290  177.1880  139.4220 C   0  0  0  0  0  2  0  0  0  0  0  0
  1  9  1  0  0  0  0
  1  8  1  0  0  0  0
  2 20  1  6  0  0  0
  2 10  1  0  0  0  0
  2  5  1  0  0  0  0
  3  5  1  0  0  0  0
  3  7  2  0  0  0  0
  4 10  2  0  0  0  0
  5  1  2  0  0  0  0
  7 19  1  0  0  0  0
  7  8  1  0  0  0  0
  8  6  2  0  0  0  0
 10  9  1  0  0  0  0
 11 12  1  0  0  0  0
 14 12  2  0  0  0  0
 16 15  1  1  0  0  0
 16 14  1  0  0  0  0
 17 13  1  6  0  0  0
 17 16  1  0  0  0  0
 17 19  1  0  0  0  0
 18 13  2  0  0  0  0
 18 15  1  0  0  0  0
 19 11  2  0  0  0  0
 21 23  2  0  0  0  0
 22 21  2  0  0  0  0
 23 20  1  0  0  0  0
 24 25  1  0  0  0  0
 24 22  1  0  0  0  0
 26 25  1  0  0  0  0
 26 30  1  0  0  0  0
 27 29  1  0  0  0  0
 27 28  1  0  0  0  0
 28 32  1  0  0  0  0
 29 26  1  0  0  0  0
 31 28  1  0  0  0  0
 32 30  1  0  0  0  0
M  END
>  <MODEL>
3

>  <REMARK>
 VINA RESULT:      -9.4      2.199      5.322
  Name = 
  6 active torsions:
  status: ('A' for Active; 'I' for Inactive)
    1  A    between atoms: N_2  and  C_13
    2  A    between atoms: C_3  and  C_18
    3  A    between atoms: C_9  and  C_29
    4  A    between atoms: C_13  and  C_29
    5  A    between atoms: C_18  and  C_24
    6  A    between atoms: C_21  and  C_30
                            x       y       z     vdW  Elec       q    Type
                         _______ _______ _______ _____ _____    ______ ____

>  <TORSDO>
F 6

$$$$
=
 OpenBabel10222416313D

 32 36  0  0  1  0  0  0  0  0999 V2000
  191.2100  177.0010  142.8320 C   0  0  0  0  0  0  0  0  0  0  0  0
  190.2580  176.6700  140.7370 C   0  0  2  0  0  3  0  0  0  0  0  0
  188.9670  176.7190  143.0290 N   0  0  0  0  0  0  0  0  0  0  0  0
  192.2520  177.4980  139.6050 O   0  0  0  0  0  0  0  0  0  0  0  0
  190.1350  176.5780  142.2240 C   0  0  0  0  0  0  0  0  0  0  0  0
  191.5850  177.5130  145.1580 N   0  0  0  0  0  2  0  0  0  0  0  0
  189.3670  177.2260  144.1580 C   0  0  0  0  0  0  0  0  0  0  0  0
  190.8120  177.5240  144.1220 C   0  0  0  0  0  0  0  0  0  0  0  0
  192.2090  177.5000  141.9610 N   0  0  0  0  0  2  0  0  0  0  0  0
  191.6380  177.2510  140.6770 C   0  0  0  0  0  0  0  0  0  0  0  0
  188.9450  177.7180  146.5190 C   0  0  0  0  0  3  0  0  0  0  0  0
  188.0750  177.9390  147.7030 C   0  0  0  0  0  3  0  0  0  0  0  0
  186.3250  177.9900  143.9440 C   0  0  0  0  0  3  0  0  0  0  0  0
  186.7520  178.0880  147.5670 C   0  0  0  0  0  3  0  0  0  0  0  0
  185.2980  178.8080  145.7190 C   0  0  0  0  0  2  0  0  0  0  0  0
  186.2010  177.9850  146.2160 C   0  0  1  0  0  3  0  0  0  0  0  0
  186.9470  177.3090  145.1200 C   0  0  2  0  0  3  0  0  0  0  0  0
  185.3630  178.7820  144.2980 N   0  0  0  0  0  0  0  0  0  0  0  0
  188.4450  177.4990  145.2850 C   0  0  0  0  0  0  0  0  0  0  0  0
  189.2500  177.6620  140.1810 C   0  0  0  0  0  2  0  0  0  0  0  0
  187.7880  177.8020  138.2490 C   0  0  0  0  0  0  0  0  0  0  0  0
  186.8900  178.4640  137.5680 C   0  0  0  0  0  3  0  0  0  0  0  0
  188.6820  177.1270  138.9150 C   0  0  0  0  0  3  0  0  0  0  0  0
  185.5300  177.9150  137.2300 C   0  0  0  0  0  2  0  0  0  0  0  0
  184.5590  177.8620  138.4100 C   0  0  0  0  0  2  0  0  0  0  0  0
  184.5260  179.1490  139.0980 N   0  0  0  0  0  0  0  0  0  0  0  0
  183.5110  178.2780  141.1990 C   0  0  0  0  0  2  0  0  0  0  0  0
  182.3280  179.1020  140.9790 N   0  0  0  0  0  0  0  0  0  0  0  0
  184.7270  178.9370  140.5380 C   0  0  0  0  0  2  0  0  0  0  0  0
  183.2490  179.8250  138.8310 C   0  0  0  0  0  2  0  0  0  0  0  0
  180.9910  178.2510  141.6990 Cl  0  0  0  0  0  0  0  0  0  0  0  0
  182.0760  179.1370  139.5440 C   0  0  0  0  0  2  0  0  0  0  0  0
  1  8  1  0  0  0  0
  2 20  1  1  0  0  0
  2  5  1  0  0  0  0
  3  7  2  0  0  0  0
  4 10  2  0  0  0  0
  5  1  2  0  0  0  0
  5  3  1  0  0  0  0
  7 19  1  0  0  0  0
  8  7  1  0  0  0  0
  8  6  2  0  0  0  0
  9  1  1  0  0  0  0
 10  2  1  0  0  0  0
 10  9  1  0  0  0  0
 11 12  1  0  0  0  0
 13 18  2  0  0  0  0
 14 12  2  0  0  0  0
 16 15  1  6  0  0  0
 16 14  1  0  0  0  0
 17 13  1  6  0  0  0
 17 19  1  0  0  0  0
 17 16  1  0  0  0  0
 18 15  1  0  0  0  0
 19 11  2  0  0  0  0
 21 23  2  0  0  0  0
 22 21  2  0  0  0  0
 23 20  1  0  0  0  0
 24 22  1  0  0  0  0
 24 25  1  0  0  0  0
 25 26  1  0  0  0  0
 26 29  1  0  0  0  0
 28 27  1  0  0  0  0
 28 31  1  0  0  0  0
 29 27  1  0  0  0  0
 30 26  1  0  0  0  0
 30 32  1  0  0  0  0
 32 28  1  0  0  0  0
M  END
>  <MODEL>
4

>  <REMARK>
 VINA RESULT:      -9.1      2.939      6.086
  Name = 
  6 active torsions:
  status: ('A' for Active; 'I' for Inactive)
    1  A    between atoms: N_2  and  C_13
    2  A    between atoms: C_3  and  C_18
    3  A    between atoms: C_9  and  C_29
    4  A    between atoms: C_13  and  C_29
    5  A    between atoms: C_18  and  C_24
    6  A    between atoms: C_21  and  C_30
                            x       y       z     vdW  Elec       q    Type
                         _______ _______ _______ _____ _____    ______ ____

>  <TORSDO>
F 6

$$$$
=
 OpenBabel10222416313D

 32 36  0  0  1  0  0  0  0  0999 V2000
  190.6890  176.7050  142.8560 C   0  0  0  0  0  0  0  0  0  0  0  0
  189.2860  177.1210  141.0490 C   0  0  2  0  0  3  0  0  0  0  0  0
  188.5730  177.0910  143.5810 N   0  0  0  0  0  0  0  0  0  0  0  0
  191.1780  177.5110  139.5610 O   0  0  0  0  0  0  0  0  0  0  0  0
  189.4360  176.7670  142.4930 C   0  0  0  0  0  0  0  0  0  0  0  0
  191.6690  176.5860  145.0550 N   0  0  0  0  0  2  0  0  0  0  0  0
  189.3390  177.2080  144.6260 C   0  0  0  0  0  0  0  0  0  0  0  0
  190.7600  177.0480  144.2610 C   0  0  0  0  0  0  0  0  0  0  0  0
  191.6050  177.0400  141.8300 N   0  0  0  0  0  2  0  0  0  0  0  0
  190.7420  177.2500  140.7130 C   0  0  0  0  0  0  0  0  0  0  0  0
  189.6650  177.6420  147.0130 C   0  0  0  0  0  3  0  0  0  0  0  0
  189.1990  177.8890  148.4020 C   0  0  0  0  0  3  0  0  0  0  0  0
  186.4470  178.2260  145.3180 C   0  0  0  0  0  3  0  0  0  0  0  0
  187.9120  178.1520  148.6600 C   0  0  0  0  0  3  0  0  0  0  0  0
  186.0560  179.0580  147.3260 C   0  0  0  0  0  2  0  0  0  0  0  0
  186.9860  178.1450  147.5280 C   0  0  1  0  0  3  0  0  0  0  0  0
  187.3190  177.4520  146.2530 C   0  0  2  0  0  3  0  0  0  0  0  0
  185.7040  179.0800  145.9480 N   0  0  0  0  0  0  0  0  0  0  0  0
  188.8120  177.5130  145.9760 C   0  0  0  0  0  0  0  0  0  0  0  0
  188.5970  178.4670  140.9000 C   0  0  0  0  0  2  0  0  0  0  0  0
  186.2000  178.7150  141.1880 C   0  0  0  0  0  0  0  0  0  0  0  0
  185.1960  179.1700  141.8900 C   0  0  0  0  0  3  0  0  0  0  0  0
  187.1880  178.2520  140.4750 C   0  0  0  0  0  3  0  0  0  0  0  0
  184.1020  178.2960  142.4430 C   0  0  0  0  0  2  0  0  0  0  0  0
  182.7560  179.0000  142.6110 C   0  0  0  0  0  2  0  0  0  0  0  0
  181.6930  178.2220  141.9800 N   0  0  0  0  0  0  0  0  0  0  0  0
  181.4980  179.6650  139.9610 C   0  0  0  0  0  2  0  0  0  0  0  0
  180.1310  180.0130  140.3300 N   0  0  0  0  0  0  0  0  0  0  0  0
  181.8470  178.2820  140.5200 C   0  0  0  0  0  2  0  0  0  0  0  0
  180.3820  178.7340  142.4010 C   0  0  0  0  0  2  0  0  0  0  0  0
  179.8440  181.6160  139.7160 Cl  0  0  0  0  0  0  0  0  0  0  0  0
  180.0780  180.1070  141.7840 C   0  0  0  0  0  2  0  0  0  0  0  0
  1  8  1  0  0  0  0
  2 20  1  1  0  0  0
  2  5  1  0  0  0  0
  3  7  2  0  0  0  0
  4 10  2  0  0  0  0
  5  1  2  0  0  0  0
  5  3  1  0  0  0  0
  7 19  1  0  0  0  0
  8  7  1  0  0  0  0
  8  6  2  0  0  0  0
  9  1  1  0  0  0  0
 10  2  1  0  0  0  0
 10  9  1  0  0  0  0
 11 12  1  0  0  0  0
 12 14  2  0  0  0  0
 13 18  2  0  0  0  0
 16 15  1  6  0  0  0
 16 14  1  0  0  0  0
 17 13  1  6  0  0  0
 17 16  1  0  0  0  0
 18 15  1  0  0  0  0
 19 17  1  0  0  0  0
 19 11  2  0  0  0  0
 21 22  2  0  0  0  0
 22 24  1  0  0  0  0
 23 20  1  0  0  0  0
 23 21  2  0  0  0  0
 24 25  1  0  0  0  0
 26 30  1  0  0  0  0
 26 25  1  0  0  0  0
 27 28  1  0  0  0  0
 27 29  1  0  0  0  0
 28 32  1  0  0  0  0
 29 26  1  0  0  0  0
 31 28  1  0  0  0  0
 32 30  1  0  0  0  0
M  END
>  <MODEL>
5

>  <REMARK>
 VINA RESULT:      -9.0      3.233      7.012
  Name = 
  6 active torsions:
  status: ('A' for Active; 'I' for Inactive)
    1  A    between atoms: N_2  and  C_13
    2  A    between atoms: C_3  and  C_18
    3  A    between atoms: C_9  and  C_29
    4  A    between atoms: C_13  and  C_29
    5  A    between atoms: C_18  and  C_24
    6  A    between atoms: C_21  and  C_30
                            x       y       z     vdW  Elec       q    Type
                         _______ _______ _______ _____ _____    ______ ____

>  <TORSDO>
F 6

$$$$
=
 OpenBabel10222416313D

 32 36  0  0  1  0  0  0  0  0999 V2000
  190.9550  176.7560  143.1300 C   0  0  0  0  0  0  0  0  0  0  0  0
  189.7350  176.8680  141.1540 C   0  0  2  0  0  3  0  0  0  0  0  0
  188.7400  176.9320  143.5890 N   0  0  0  0  0  0  0  0  0  0  0  0
  191.7310  177.3790  139.8500 O   0  0  0  0  0  0  0  0  0  0  0  0
  189.7550  176.6390  142.6310 C   0  0  0  0  0  0  0  0  0  0  0  0
  191.6800  176.9150  145.4240 N   0  0  0  0  0  2  0  0  0  0  0  0
  189.3610  177.2150  144.6960 C   0  0  0  0  0  0  0  0  0  0  0  0
  190.8230  177.2040  144.5000 C   0  0  0  0  0  0  0  0  0  0  0  0
  191.9410  177.1270  142.1840 N   0  0  0  0  0  2  0  0  0  0  0  0
  191.1950  177.1500  140.9670 C   0  0  0  0  0  0  0  0  0  0  0  0
  189.3520  177.7510  147.0850 C   0  0  0  0  0  3  0  0  0  0  0  0
  188.6970  178.0300  148.3900 C   0  0  0  0  0  3  0  0  0  0  0  0
  186.3690  178.1440  144.9600 C   0  0  0  0  0  3  0  0  0  0  0  0
  187.3790  178.2510  148.4650 C   0  0  0  0  0  3  0  0  0  0  0  0
  185.6870  179.0330  146.8620 C   0  0  0  0  0  2  0  0  0  0  0  0
  186.6130  178.1670  147.2220 C   0  0  1  0  0  3  0  0  0  0  0  0
  187.1350  177.4400  146.0330 C   0  0  2  0  0  3  0  0  0  0  0  0
  185.5200  178.9910  145.4500 N   0  0  0  0  0  0  0  0  0  0  0  0
  188.6480  177.5490  145.9510 C   0  0  0  0  0  0  0  0  0  0  0  0
  188.9190  178.1070  140.8190 C   0  0  0  0  0  2  0  0  0  0  0  0
  187.7060  178.0640  138.7180 C   0  0  0  0  0  0  0  0  0  0  0  0
  186.5840  177.8780  138.0750 C   0  0  0  0  0  3  0  0  0  0  0  0
  188.8350  178.2530  139.3430 C   0  0  0  0  0  3  0  0  0  0  0  0
  186.4140  176.8660  136.9740 C   0  0  0  0  0  2  0  0  0  0  0  0
  187.3140  175.6370  137.1000 C   0  0  0  0  0  2  0  0  0  0  0  0
  187.9980  175.3770  135.8360 N   0  0  0  0  0  0  0  0  0  0  0  0
  189.7150  173.8500  136.7970 C   0  0  0  0  0  2  0  0  0  0  0  0
  190.7690  174.7860  136.4240 N   0  0  0  0  0  0  0  0  0  0  0  0
  188.5260  174.0060  135.8420 C   0  0  0  0  0  2  0  0  0  0  0  0
  189.0700  176.3620  135.6370 C   0  0  0  0  0  2  0  0  0  0  0  0
  192.0430  174.5900  137.5930 Cl  0  0  0  0  0  0  0  0  0  0  0  0
  190.2440  176.1340  136.6010 C   0  0  0  0  0  2  0  0  0  0  0  0
  1  8  1  0  0  0  0
  2 20  1  1  0  0  0
  2  5  1  0  0  0  0
  3  7  2  0  0  0  0
  4 10  2  0  0  0  0
  5  1  2  0  0  0  0
  5  3  1  0  0  0  0
  7 19  1  0  0  0  0
  8  7  1  0  0  0  0
  8  6  2  0  0  0  0
  9  1  1  0  0  0  0
 10  2  1  0  0  0  0
 10  9  1  0  0  0  0
 11 12  1  0  0  0  0
 12 14  2  0  0  0  0
 13 18  2  0  0  0  0
 16 15  1  6  0  0  0
 16 14  1  0  0  0  0
 17 13  1  6  0  0  0
 17 16  1  0  0  0  0
 18 15  1  0  0  0  0
 19 17  1  0  0  0  0
 19 11  2  0  0  0  0
 21 23  2  0  0  0  0
 22 21  2  0  0  0  0
 23 20  1  0  0  0  0
 24 25  1  0  0  0  0
 24 22  1  0  0  0  0
 26 29  1  0  0  0  0
 26 25  1  0  0  0  0
 28 32  1  0  0  0  0
 28 27  1  0  0  0  0
 28 31  1  0  0  0  0
 29 27  1  0  0  0  0
 30 26  1  0  0  0  0
 30 32  1  0  0  0  0
M  END
>  <MODEL>
6

>  <REMARK>
 VINA RESULT:      -8.7      2.880      5.509
  Name = 
  6 active torsions:
  status: ('A' for Active; 'I' for Inactive)
    1  A    between atoms: N_2  and  C_13
    2  A    between atoms: C_3  and  C_18
    3  A    between atoms: C_9  and  C_29
    4  A    between atoms: C_13  and  C_29
    5  A    between atoms: C_18  and  C_24
    6  A    between atoms: C_21  and  C_30
                            x       y       z     vdW  Elec       q    Type
                         _______ _______ _______ _____ _____    ______ ____

>  <TORSDO>
F 6

$$$$
=
 OpenBabel10222416313D

 32 36  0  0  1  0  0  0  0  0999 V2000
  186.0210  178.6310  146.4170 C   0  0  0  0  0  0  0  0  0  0  0  0
  185.1500  178.9800  144.2900 C   0  0  2  0  0  3  0  0  0  0  0  0
  187.6470  178.3740  144.8550 N   0  0  0  0  0  0  0  0  0  0  0  0
  182.8600  178.7620  145.0990 O   0  0  0  0  0  0  0  0  0  0  0  0
  186.3480  178.8680  145.1760 C   0  0  0  0  0  0  0  0  0  0  0  0
  187.3850  177.9510  148.2850 N   0  0  0  0  0  2  0  0  0  0  0  0
  188.1100  177.8420  145.9470 C   0  0  0  0  0  0  0  0  0  0  0  0
  187.1020  177.8850  147.0250 C   0  0  0  0  0  0  0  0  0  0  0  0
  184.6290  178.4760  146.6290 N   0  0  0  0  0  2  0  0  0  0  0  0
  184.0980  178.7370  145.3300 C   0  0  0  0  0  0  0  0  0  0  0  0
  189.9160  176.7920  147.2240 C   0  0  0  0  0  3  0  0  0  0  0  0
  191.2820  176.2310  147.3930 C   0  0  0  0  0  3  0  0  0  0  0  0
  189.8870  176.8750  143.5410 C   0  0  0  0  0  3  0  0  0  0  0  0
  192.0660  175.9970  146.3340 C   0  0  0  0  0  3  0  0  0  0  0  0
  191.6330  175.5870  143.9490 C   0  0  0  0  0  2  0  0  0  0  0  0
  191.5380  176.3530  145.0170 C   0  0  1  0  0  3  0  0  0  0  0  0
  190.4220  177.3250  144.8620 C   0  0  2  0  0  3  0  0  0  0  0  0
  190.6150  175.9400  143.0190 N   0  0  0  0  0  0  0  0  0  0  0  0
  189.4600  177.2390  146.0350 C   0  0  0  0  0  0  0  0  0  0  0  0
  185.1390  177.8570  143.2650 C   0  0  0  0  0  2  0  0  0  0  0  0
  183.4330  178.4970  141.6630 C   0  0  0  0  0  0  0  0  0  0  0  0
  182.1670  178.6040  141.3560 C   0  0  0  0  0  3  0  0  0  0  0  0
  184.7000  178.3960  141.9520 C   0  0  0  0  0  3  0  0  0  0  0  0
  181.5420  177.9430  140.1570 C   0  0  0  0  0  2  0  0  0  0  0  0
  180.8600  178.9070  139.1870 C   0  0  0  0  0  2  0  0  0  0  0  0
  181.8000  179.3440  138.1590 N   0  0  0  0  0  0  0  0  0  0  0  0
  181.3270  181.7760  138.4110 C   0  0  0  0  0  2  0  0  0  0  0  0
  180.8190  181.8280  137.0450 N   0  0  0  0  0  0  0  0  0  0  0  0
  182.3600  180.6500  138.5340 C   0  0  0  0  0  2  0  0  0  0  0  0
  181.1220  179.4070  136.8570 C   0  0  0  0  0  2  0  0  0  0  0  0
  179.6110  183.0810  137.0130 Cl  0  0  0  0  0  0  0  0  0  0  0  0
  180.1250  180.5720  136.7860 C   0  0  0  0  0  2  0  0  0  0  0  0
  1  9  1  0  0  0  0
  1  8  1  0  0  0  0
  2 20  1  6  0  0  0
  2  5  1  0  0  0  0
  2 10  1  0  0  0  0
  3  5  1  0  0  0  0
  3  7  2  0  0  0  0
  4 10  2  0  0  0  0
  5  1  2  0  0  0  0
  7 19  1  0  0  0  0
  7  8  1  0  0  0  0
  8  6  2  0  0  0  0
 10  9  1  0  0  0  0
 11 12  1  0  0  0  0
 14 12  2  0  0  0  0
 16 15  1  1  0  0  0
 16 14  1  0  0  0  0
 17 13  1  6  0  0  0
 17 16  1  0  0  0  0
 17 19  1  0  0  0  0
 18 13  2  0  0  0  0
 18 15  1  0  0  0  0
 19 11  2  0  0  0  0
 21 23  2  0  0  0  0
 22 21  2  0  0  0  0
 23 20  1  0  0  0  0
 24 22  1  0  0  0  0
 25 24  1  0  0  0  0
 26 29  1  0  0  0  0
 26 25  1  0  0  0  0
 27 29  1  0  0  0  0
 28 27  1  0  0  0  0
 30 26  1  0  0  0  0
 31 28  1  0  0  0  0
 32 30  1  0  0  0  0
 32 28  1  0  0  0  0
M  END
>  <MODEL>
7

>  <REMARK>
 VINA RESULT:      -8.7      3.672      7.130
  Name = 
  6 active torsions:
  status: ('A' for Active; 'I' for Inactive)
    1  A    between atoms: N_2  and  C_13
    2  A    between atoms: C_3  and  C_18
    3  A    between atoms: C_9  and  C_29
    4  A    between atoms: C_13  and  C_29
    5  A    between atoms: C_18  and  C_24
    6  A    between atoms: C_21  and  C_30
                            x       y       z     vdW  Elec       q    Type
                         _______ _______ _______ _____ _____    ______ ____

>  <TORSDO>
F 6

$$$$
=
 OpenBabel10222416313D

 32 36  0  0  1  0  0  0  0  0999 V2000
  185.9740  178.6360  146.3550 C   0  0  0  0  0  0  0  0  0  0  0  0
  185.1140  178.9690  144.2200 C   0  0  2  0  0  3  0  0  0  0  0  0
  187.6100  178.3780  144.8040 N   0  0  0  0  0  0  0  0  0  0  0  0
  182.8200  178.7440  145.0170 O   0  0  0  0  0  0  0  0  0  0  0  0
  186.3080  178.8680  145.1140 C   0  0  0  0  0  0  0  0  0  0  0  0
  187.3290  177.9730  148.2350 N   0  0  0  0  0  2  0  0  0  0  0  0
  188.0690  177.8550  145.9030 C   0  0  0  0  0  0  0  0  0  0  0  0
  187.0550  177.8990  146.9740 C   0  0  0  0  0  0  0  0  0  0  0  0
  184.5810  178.4760  146.5590 N   0  0  0  0  0  2  0  0  0  0  0  0
  184.0570  178.7260  145.2560 C   0  0  0  0  0  0  0  0  0  0  0  0
  189.8800  176.8370  147.2000 C   0  0  0  0  0  3  0  0  0  0  0  0
  191.2470  176.2850  147.3800 C   0  0  0  0  0  3  0  0  0  0  0  0
  189.8500  176.8470  143.5160 C   0  0  0  0  0  3  0  0  0  0  0  0
  192.0320  176.0330  146.3260 C   0  0  0  0  0  3  0  0  0  0  0  0
  191.6000  175.5730  143.9490 C   0  0  0  0  0  2  0  0  0  0  0  0
  191.5030  176.3610  145.0020 C   0  0  1  0  0  3  0  0  0  0  0  0
  190.3830  177.3250  144.8280 C   0  0  2  0  0  3  0  0  0  0  0  0
  190.5820  175.9040  143.0130 N   0  0  0  0  0  0  0  0  0  0  0  0
  189.4210  177.2580  146.0020 C   0  0  0  0  0  0  0  0  0  0  0  0
  185.1150  177.8400  143.2030 C   0  0  0  0  0  2  0  0  0  0  0  0
  183.4440  178.4650  141.5580 C   0  0  0  0  0  0  0  0  0  0  0  0
  182.1860  178.5620  141.2190 C   0  0  0  0  0  3  0  0  0  0  0  0
  184.7050  178.3740  141.8780 C   0  0  0  0  0  3  0  0  0  0  0  0
  181.5960  177.8950  140.0060 C   0  0  0  0  0  2  0  0  0  0  0  0
  182.3160  176.6160  139.5760 C   0  0  0  0  0  2  0  0  0  0  0  0
  182.0250  176.3150  138.1770 N   0  0  0  0  0  0  0  0  0  0  0  0
  183.9340  174.7480  137.8620 C   0  0  0  0  0  2  0  0  0  0  0  0
  184.5170  175.6440  136.8690 N   0  0  0  0  0  0  0  0  0  0  0  0
  182.4120  174.9280  137.8870 C   0  0  0  0  0  2  0  0  0  0  0  0
  182.7340  177.2620  137.3050 C   0  0  0  0  0  2  0  0  0  0  0  0
  186.2420  175.4240  136.9540 Cl  0  0  0  0  0  0  0  0  0  0  0  0
  184.2480  177.0110  137.2990 C   0  0  0  0  0  2  0  0  0  0  0  0
  1  9  1  0  0  0  0
  1  8  1  0  0  0  0
  2 20  1  6  0  0  0
  2  5  1  0  0  0  0
  2 10  1  0  0  0  0
  3  5  1  0  0  0  0
  3  7  2  0  0  0  0
  4 10  2  0  0  0  0
  5  1  2  0  0  0  0
  7 19  1  0  0  0  0
  7  8  1  0  0  0  0
  8  6  2  0  0  0  0
 10  9  1  0  0  0  0
 11 12  1  0  0  0  0
 14 12  2  0  0  0  0
 16 15  1  1  0  0  0
 16 14  1  0  0  0  0
 17 13  1  6  0  0  0
 17 16  1  0  0  0  0
 17 19  1  0  0  0  0
 18 13  2  0  0  0  0
 18 15  1  0  0  0  0
 19 11  2  0  0  0  0
 21 23  2  0  0  0  0
 22 21  2  0  0  0  0
 23 20  1  0  0  0  0
 24 22  1  0  0  0  0
 25 24  1  0  0  0  0
 26 25  1  0  0  0  0
 27 29  1  0  0  0  0
 28 31  1  0  0  0  0
 28 32  1  0  0  0  0
 28 27  1  0  0  0  0
 29 26  1  0  0  0  0
 30 26  1  0  0  0  0
 32 30  1  0  0  0  0
M  END
>  <MODEL>
8

>  <REMARK>
 VINA RESULT:      -8.7      2.903      6.304
  Name = 
  6 active torsions:
  status: ('A' for Active; 'I' for Inactive)
    1  A    between atoms: N_2  and  C_13
    2  A    between atoms: C_3  and  C_18
    3  A    between atoms: C_9  and  C_29
    4  A    between atoms: C_13  and  C_29
    5  A    between atoms: C_18  and  C_24
    6  A    between atoms: C_21  and  C_30
                            x       y       z     vdW  Elec       q    Type
                         _______ _______ _______ _____ _____    ______ ____

>  <TORSDO>
F 6

$$$$
=
 OpenBabel10222416313D

 32 36  0  0  1  0  0  0  0  0999 V2000
  184.0380  178.2480  138.5870 C   0  0  0  0  0  0  0  0  0  0  0  0
  186.1840  178.1890  137.6930 C   0  0  2  0  0  3  0  0  0  0  0  0
  185.5600  178.8260  140.1680 N   0  0  0  0  0  0  0  0  0  0  0  0
  185.4370  176.8940  135.7660 O   0  0  0  0  0  0  0  0  0  0  0  0
  185.2680  178.6390  138.7850 C   0  0  0  0  0  0  0  0  0  0  0  0
  182.1420  178.2540  140.0760 N   0  0  0  0  0  2  0  0  0  0  0  0
  184.4610  178.5540  140.8080 C   0  0  0  0  0  0  0  0  0  0  0  0
  183.4100  178.0910  139.8810 C   0  0  0  0  0  0  0  0  0  0  0  0
  183.8650  177.4480  137.4310 N   0  0  0  0  0  2  0  0  0  0  0  0
  185.1740  177.4540  136.8640 C   0  0  0  0  0  0  0  0  0  0  0  0
  183.1300  178.8320  142.8450 C   0  0  0  0  0  3  0  0  0  0  0  0
  182.9490  179.0040  144.3090 C   0  0  0  0  0  3  0  0  0  0  0  0
  186.6670  177.8030  142.9190 C   0  0  0  0  0  3  0  0  0  0  0  0
  183.9730  178.8380  145.1540 C   0  0  0  0  0  3  0  0  0  0  0  0
  186.0930  177.5960  145.0400 C   0  0  0  0  0  2  0  0  0  0  0  0
  185.2780  178.5210  144.5720 C   0  0  1  0  0  3  0  0  0  0  0  0
  185.5850  178.8100  143.1450 C   0  0  2  0  0  3  0  0  0  0  0  0
  186.9770  177.1760  144.0080 N   0  0  0  0  0  0  0  0  0  0  0  0
  184.3440  178.6600  142.2810 C   0  0  0  0  0  0  0  0  0  0  0  0
  187.2190  177.2170  138.2350 C   0  0  0  0  0  2  0  0  0  0  0  0
  189.5700  177.3210  138.8290 C   0  0  0  0  0  0  0  0  0  0  0  0
  190.5970  176.7890  139.4380 C   0  0  0  0  0  3  0  0  0  0  0  0
  188.5560  177.8670  138.2170 C   0  0  0  0  0  3  0  0  0  0  0  0
  191.3860  177.4930  140.5100 C   0  0  0  0  0  2  0  0  0  0  0  0
  190.7720  177.4040  141.9070 C   0  0  0  0  0  2  0  0  0  0  0  0
  191.8180  177.4280  142.9240 N   0  0  0  0  0  0  0  0  0  0  0  0
  190.4660  176.3140  144.6940 C   0  0  0  0  0  2  0  0  0  0  0  0
  190.5420  177.5130  145.5200 N   0  0  0  0  0  0  0  0  0  0  0  0
  191.6940  176.2400  143.7790 C   0  0  0  0  0  2  0  0  0  0  0  0
  191.7200  178.6650  143.7110 C   0  0  0  0  0  2  0  0  0  0  0  0
  189.0860  177.5520  146.4720 Cl  0  0  0  0  0  0  0  0  0  0  0  0
  190.4890  178.6650  144.6280 C   0  0  0  0  0  2  0  0  0  0  0  0
  1  5  2  0  0  0  0
  1  8  1  0  0  0  0
  2 20  1  1  0  0  0
  2  5  1  0  0  0  0
  3  7  2  0  0  0  0
  4 10  2  0  0  0  0
  5  3  1  0  0  0  0
  7 19  1  0  0  0  0
  8  6  2  0  0  0  0
  8  7  1  0  0  0  0
  9  1  1  0  0  0  0
 10  9  1  0  0  0  0
 10  2  1  0  0  0  0
 11 12  1  0  0  0  0
 12 14  2  0  0  0  0
 13 18  2  0  0  0  0
 16 15  1  6  0  0  0
 16 14  1  0  0  0  0
 17 13  1  6  0  0  0
 17 16  1  0  0  0  0
 18 15  1  0  0  0  0
 19 11  2  0  0  0  0
 19 17  1  0  0  0  0
 21 22  2  0  0  0  0
 22 24  1  0  0  0  0
 23 20  1  0  0  0  0
 23 21  2  0  0  0  0
 24 25  1  0  0  0  0
 25 26  1  0  0  0  0
 26 30  1  0  0  0  0
 26 29  1  0  0  0  0
 27 28  1  0  0  0  0
 28 31  1  0  0  0  0
 29 27  1  0  0  0  0
 30 32  1  0  0  0  0
 32 28  1  0  0  0  0
M  END
>  <MODEL>
9

>  <REMARK>
 VINA RESULT:      -8.6      3.611      6.710
  Name = 
  6 active torsions:
  status: ('A' for Active; 'I' for Inactive)
    1  A    between atoms: N_2  and  C_13
    2  A    between atoms: C_3  and  C_18
    3  A    between atoms: C_9  and  C_29
    4  A    between atoms: C_13  and  C_29
    5  A    between atoms: C_18  and  C_24
    6  A    between atoms: C_21  and  C_30
                            x       y       z     vdW  Elec       q    Type
                         _______ _______ _______ _____ _____    ______ ____

>  <TORSDO>
F 6

$$$$
