=
 OpenBabel10222417483D

 52 57  0  0  1  0  0  0  0  0999 V2000
  188.1560  177.9240  138.6130 C   0  0  0  0  0  0  0  0  0  0  0  0
  184.8030  179.8720  140.2780 O   0  0  0  0  0  0  0  0  0  0  0  0
  189.1400  177.3620  137.6410 C   0  0  0  0  0  2  0  0  0  0  0  0
  186.0240  178.1380  141.5100 C   0  0  1  0  0  3  0  0  0  0  0  0
  190.4090  176.7600  140.7920 S   0  0  0  0  0  0  0  0  0  0  0  0
  185.8550  178.9410  140.2130 C   0  0  1  0  0  3  0  0  0  0  0  0
  184.4080  180.0700  138.9460 C   0  0  1  0  0  3  0  0  0  0  0  0
  189.0030  177.0660  143.0420 N   0  0  0  0  0  2  0  0  0  0  0  0
  188.5140  178.5780  139.7880 O   0  0  0  0  0  0  0  0  0  0  0  0
  188.4340  177.9250  142.0700 C   0  0  0  0  0  0  0  0  0  0  0  0
  189.0120  177.8720  140.8840 C   0  0  0  0  0  0  0  0  0  0  0  0
  185.6400  178.0270  139.0190 C   0  0  2  0  0  3  0  0  0  0  0  0
  185.7050  176.4270  136.3600 C   0  0  0  0  0  1  0  0  0  0  0  0
  186.9020  177.6940  138.2360 C   0  0  0  0  0  0  0  0  0  0  0  0
  184.6660  178.7940  138.1680 C   0  0  0  0  0  2  0  0  0  0  0  0
  188.2570  176.6070  136.6340 C   0  0  2  0  0  3  0  0  0  0  0  0
  191.3440  176.4930  143.3630 C   0  0  0  0  0  1  0  0  0  0  0  0
  190.0980  176.2570  142.5310 C   0  0  2  0  0  3  0  0  0  0  0  0
  186.8940  176.9080  137.0510 N   0  0  0  0  0  0  0  0  0  0  0  0
  187.1750  178.6900  142.3430 C   0  0  0  0  0  2  0  0  0  0  0  0
  179.1370  182.0220  138.6200 C   0  0  0  0  0  2  0  0  0  0  0  0
  180.1800  181.0010  139.1040 C   0  0  0  0  0  2  0  0  0  0  0  0
  179.7920  179.7170  136.9440 C   0  0  0  0  0  2  0  0  0  0  0  0
  178.9350  181.9920  136.2820 C   0  0  0  0  0  2  0  0  0  0  0  0
  182.9910  180.4020  138.9080 N   0  0  0  0  0  2  0  0  0  0  0  0
  179.5850  182.6760  137.3970 N   0  0  0  0  0  2  0  0  0  0  0  0
  179.7340  180.7640  135.8390 C   0  0  0  0  0  2  0  0  0  0  0  0
  180.6880  180.1670  138.0100 N   0  0  0  0  0  0  0  0  0  0  0  0
  182.5060  179.0160  137.0960 O   0  0  0  0  0  0  0  0  0  0  0  0
  182.0800  179.8230  137.9660 C   0  0  0  0  0  0  0  0  0  0  0  0
  184.7670  177.9900  142.3140 C   0  0  0  0  0  0  0  0  0  0  0  0
  183.6940  177.6070  141.7740 O   0  0  0  0  0  0  0  0  0  0  0  0
  184.7840  178.3060  143.7190 C   0  0  0  0  0  0  0  0  0  0  0  0
  184.7860  178.5660  144.8440 N   0  0  0  0  0  0  0  0  0  0  0  0
  188.5150  175.1120  136.7490 C   0  0  0  0  0  2  0  0  0  0  0  0
  189.6910  174.8220  137.6670 C   0  0  0  0  0  2  0  0  0  0  0  0
  192.1630  174.9010  137.1200 C   0  0  0  0  0  0  0  0  0  0  0  0
  190.8490  174.3760  136.9020 N   0  0  0  0  0  2  0  0  0  0  0  0
  192.3640  175.7740  138.0030 O   0  0  0  0  0  0  0  0  0  0  0  0
  194.9640  173.5930  138.1720 C   0  0  2  0  0  3  0  0  0  0  0  0
  194.7310  172.4590  136.0330 F   0  0  0  0  0  0  0  0  0  0  0  0
  198.4020  174.0240  136.8930 C   0  0  0  0  0  1  0  0  0  0  0  0
  193.3190  174.4090  136.3080 C   0  0  1  0  0  3  0  0  0  0  0  0
  196.0970  174.5760  137.8630 C   0  0  1  0  0  3  0  0  0  0  0  0
  195.3420  175.0390  134.8200 C   0  0  0  0  0  2  0  0  0  0  0  0
  196.8900  174.7870  138.9980 O   0  0  0  0  0  1  0  0  0  0  0  0
  196.9140  174.1780  136.6220 C   0  0  1  0  0  3  0  0  0  0  0  0
  195.4780  172.4190  138.7290 O   0  0  0  0  0  1  0  0  0  0  0  0
  194.4680  176.5740  136.5120 O   0  0  0  0  0  1  0  0  0  0  0  0
  194.1380  175.5330  135.6340 C   0  0  2  0  0  3  0  0  0  0  0  0
  196.6980  175.2080  135.5210 C   0  0  0  0  0  2  0  0  0  0  0  0
  194.0730  173.2400  136.9720 C   0  0  2  0  0  3  0  0  0  0  0  0
  1  9  1  0  0  0  0
  3  1  1  0  0  0  0
  4 31  1  1  0  0  0
  4 20  1  0  0  0  0
  5 11  1  0  0  0  0
  5 18  1  0  0  0  0
  6  2  1  1  0  0  0
  6  4  1  0  0  0  0
  7 25  1  1  0  0  0
  7  2  1  0  0  0  0
  9 11  1  0  0  0  0
 10 20  1  0  0  0  0
 10  8  1  0  0  0  0
 11 10  2  0  0  0  0
 12 15  1  6  0  0  0
 12  6  1  0  0  0  0
 13 19  1  0  0  0  0
 14  1  2  0  0  0  0
 14 12  1  0  0  0  0
 15  7  1  0  0  0  0
 16 35  1  1  0  0  0
 16 19  1  0  0  0  0
 16  3  1  0  0  0  0
 18  8  1  0  0  0  0
 18 17  1  1  0  0  0
 19 14  1  0  0  0  0
 21 22  1  0  0  0  0
 23 28  1  0  0  0  0
 24 26  1  0  0  0  0
 26 21  1  0  0  0  0
 27 24  1  0  0  0  0
 27 23  1  0  0  0  0
 28 22  1  0  0  0  0
 29 30  2  0  0  0  0
 30 28  1  0  0  0  0
 30 25  1  0  0  0  0
 31 33  1  0  0  0  0
 32 31  2  0  0  0  0
 33 34  3  0  0  0  0
 35 36  1  0  0  0  0
 37 39  2  0  0  0  0
 38 37  1  0  0  0  0
 38 36  1  0  0  0  0
 40 48  1  6  0  0  0
 43 52  1  0  0  0  0
 43 37  1  1  0  0  0
 44 40  1  0  0  0  0
 44 46  1  1  0  0  0
 45 51  1  0  0  0  0
 45 50  1  0  0  0  0
 47 42  1  1  0  0  0
 47 44  1  0  0  0  0
 50 43  1  0  0  0  0
 50 49  1  1  0  0  0
 51 47  1  0  0  0  0
 52 41  1  6  0  0  0
 52 40  1  0  0  0  0
M  END
>  <MODEL>
1

>  <REMARK>
 VINA RESULT:      -7.2      0.000      0.000
  Name = 
  7 active torsions:
  status: ('A' for Active; 'I' for Inactive)
    1  A    between atoms: C_1  and  C_14
    2  A    between atoms: C_11  and  C_24
    3  A    between atoms: C_15  and  C_43
    4  A    between atoms: C_15  and  C_45
    5  A    between atoms: N_20  and  C_45
    6  A    between atoms: C_22  and  N_28
    7  A    between atoms: C_24  and  C_27
                            x       y       z     vdW  Elec       q    Type
                         _______ _______ _______ _____ _____    ______ ____

>  <TORSDO>
F 7

$$$$
=
 OpenBabel10222417483D

 52 57  0  0  1  0  0  0  0  0999 V2000
  188.9650  177.8420  139.0360 C   0  0  0  0  0  0  0  0  0  0  0  0
  191.9790  175.9640  136.7560 O   0  0  0  0  0  0  0  0  0  0  0  0
  188.2580  178.6320  140.0860 C   0  0  0  0  0  2  0  0  0  0  0  0
  189.6620  175.1620  136.7280 C   0  0  1  0  0  3  0  0  0  0  0  0
  185.8510  177.5870  137.8450 S   0  0  0  0  0  0  0  0  0  0  0  0
  190.6950  176.1460  137.2960 C   0  0  1  0  0  3  0  0  0  0  0  0
  192.8590  176.4660  137.7270 C   0  0  1  0  0  3  0  0  0  0  0  0
  186.2820  175.7510  135.9540 N   0  0  0  0  0  0  0  0  0  0  0  0
  188.6420  177.8850  137.6820 O   0  0  0  0  0  0  0  0  0  0  0  0
  187.5320  176.3470  136.2540 C   0  0  0  0  0  0  0  0  0  0  0  0
  187.4870  177.2710  137.1960 C   0  0  1  0  0  3  0  0  0  0  0  0
  190.7720  176.0550  138.8110 C   0  0  2  0  0  3  0  0  0  0  0  0
  190.7780  176.4620  141.8880 C   0  0  0  0  0  1  0  0  0  0  0  0
  189.9150  177.0700  139.5550 C   0  0  0  0  0  0  0  0  0  0  0  0
  192.2320  176.2740  139.0950 C   0  0  0  0  0  2  0  0  0  0  0  0
  188.8600  178.1050  141.3980 C   0  0  2  0  0  3  0  0  0  0  0  0
  184.0880  176.7980  135.8890 C   0  0  0  0  0  1  0  0  0  0  0  0
  185.1900  176.2490  136.7760 C   0  0  2  0  0  3  0  0  0  0  0  0
  189.9050  177.1840  140.9720 N   0  0  0  0  0  0  0  0  0  0  0  0
  188.8070  175.8320  135.6590 C   0  0  0  0  0  2  0  0  0  0  0  0
  197.3700  173.0980  137.6060 C   0  0  0  0  0  2  0  0  0  0  0  0
  196.7110  174.4850  137.7090 C   0  0  0  0  0  2  0  0  0  0  0  0
  196.7930  174.6130  135.1710 C   0  0  0  0  0  2  0  0  0  0  0  0
  196.9760  172.1230  135.5070 C   0  0  0  0  0  2  0  0  0  0  0  0
  194.1230  175.7480  137.6500 N   0  0  0  0  0  2  0  0  0  0  0  0
  196.5050  172.1690  136.8890 N   0  0  0  0  0  2  0  0  0  0  0  0
  196.3580  173.2430  134.6680 C   0  0  0  0  0  2  0  0  0  0  0  0
  196.1240  174.9150  136.4370 N   0  0  0  0  0  0  0  0  0  0  0  0
  194.4060  176.0770  135.3590 O   0  0  0  0  0  0  0  0  0  0  0  0
  194.8650  175.6040  136.4330 C   0  0  0  0  0  0  0  0  0  0  0  0
  190.2400  173.8630  136.2550 C   0  0  0  0  0  0  0  0  0  0  0  0
  191.4780  173.6360  136.3380 O   0  0  0  0  0  0  0  0  0  0  0  0
  189.3710  172.8680  135.6820 C   0  0  0  0  0  0  0  0  0  0  0  0
  188.6680  172.0790  135.2150 N   0  0  0  0  0  0  0  0  0  0  0  0
  187.7950  177.3530  142.1830 C   0  0  0  0  0  2  0  0  0  0  0  0
  186.8060  178.3100  142.8300 C   0  0  0  0  0  2  0  0  0  0  0  0
  184.6090  178.5130  141.5850 C   0  0  0  0  0  0  0  0  0  0  0  0
  185.4350  177.8880  142.5750 N   0  0  0  0  0  2  0  0  0  0  0  0
  185.0570  179.4570  140.8850 O   0  0  0  0  0  0  0  0  0  0  0  0
  182.5730  179.3030  139.1580 C   0  0  2  0  0  3  0  0  0  0  0  0
  181.8070  177.0480  139.6520 F   0  0  0  0  0  0  0  0  0  0  0  0
  178.9310  179.9150  139.2330 C   0  0  0  0  0  1  0  0  0  0  0  0
  183.2080  178.0420  141.3600 C   0  0  1  0  0  3  0  0  0  0  0  0
  181.4310  180.1380  139.7450 C   0  0  1  0  0  3  0  0  0  0  0  0
  180.7370  178.1630  142.1250 C   0  0  0  0  0  2  0  0  0  0  0  0
  181.2360  181.3040  138.9940 O   0  0  0  0  0  1  0  0  0  0  0  0
  180.1380  179.3280  139.9460 C   0  0  1  0  0  3  0  0  0  0  0  0
  182.3550  179.0700  137.7970 O   0  0  0  0  0  1  0  0  0  0  0  0
  182.2920  180.0080  142.5210 O   0  0  0  0  0  1  0  0  0  0  0  0
  182.1830  178.6200  142.3620 C   0  0  2  0  0  3  0  0  0  0  0  0
  179.8440  179.2050  141.4350 C   0  0  0  0  0  2  0  0  0  0  0  0
  182.8240  177.9660  139.8700 C   0  0  2  0  0  3  0  0  0  0  0  0
  1 14  2  0  0  0  0
  1  3  1  0  0  0  0
  2  7  1  0  0  0  0
  3 16  1  0  0  0  0
  4 31  1  6  0  0  0
  4  6  1  0  0  0  0
  6  2  1  6  0  0  0
  6 12  1  0  0  0  0
  7 25  1  1  0  0  0
  7 15  1  0  0  0  0
  8 10  2  0  0  0  0
  8 18  1  0  0  0  0
  9  1  1  0  0  0  0
 11 10  1  1  0  0  0
 11  9  1  0  0  0  0
 11  5  1  0  0  0  0
 12 15  1  6  0  0  0
 12 14  1  0  0  0  0
 14 19  1  0  0  0  0
 16 35  1  1  0  0  0
 18 17  1  6  0  0  0
 18  5  1  0  0  0  0
 19 16  1  0  0  0  0
 19 13  1  0  0  0  0
 20 10  1  0  0  0  0
 20  4  1  0  0  0  0
 21 22  1  0  0  0  0
 23 28  1  0  0  0  0
 24 26  1  0  0  0  0
 26 21  1  0  0  0  0
 27 23  1  0  0  0  0
 27 24  1  0  0  0  0
 28 22  1  0  0  0  0
 29 30  2  0  0  0  0
 30 28  1  0  0  0  0
 30 25  1  0  0  0  0
 31 32  2  0  0  0  0
 33 31  1  0  0  0  0
 34 33  3  0  0  0  0
 35 36  1  0  0  0  0
 37 38  1  0  0  0  0
 38 36  1  0  0  0  0
 39 37  2  0  0  0  0
 40 48  1  6  0  0  0
 40 44  1  0  0  0  0
 40 52  1  0  0  0  0
 43 37  1  6  0  0  0
 43 50  1  0  0  0  0
 44 46  1  6  0  0  0
 44 47  1  0  0  0  0
 45 50  1  0  0  0  0
 47 42  1  6  0  0  0
 47 51  1  0  0  0  0
 50 49  1  6  0  0  0
 51 45  1  0  0  0  0
 52 41  1  1  0  0  0
 52 43  1  0  0  0  0
M  END
>  <MODEL>
2

>  <REMARK>
 VINA RESULT:      -7.2      3.354     12.214
  Name = 
  7 active torsions:
  status: ('A' for Active; 'I' for Inactive)
    1  A    between atoms: C_1  and  C_14
    2  A    between atoms: C_11  and  C_24
    3  A    between atoms: C_15  and  C_43
    4  A    between atoms: C_15  and  C_45
    5  A    between atoms: N_20  and  C_45
    6  A    between atoms: C_22  and  N_28
    7  A    between atoms: C_24  and  C_27
                            x       y       z     vdW  Elec       q    Type
                         _______ _______ _______ _____ _____    ______ ____

>  <TORSDO>
F 7

$$$$
=
 OpenBabel10222417483D

 52 57  0  0  1  0  0  0  0  0999 V2000
  188.5520  177.3960  137.2740 C   0  0  0  0  0  0  0  0  0  0  0  0
  191.6570  175.2930  135.3390 O   0  0  0  0  0  0  0  0  0  0  0  0
  187.8050  178.3780  138.1150 C   0  0  0  0  0  2  0  0  0  0  0  0
  189.4870  174.2460  135.7940 C   0  0  1  0  0  3  0  0  0  0  0  0
  185.4400  176.4140  136.5480 S   0  0  0  0  0  0  0  0  0  0  0  0
  190.3970  175.4740  135.9360 C   0  0  1  0  0  3  0  0  0  0  0  0
  192.5140  176.1700  136.0210 C   0  0  1  0  0  3  0  0  0  0  0  0
  186.0130  174.1560  135.2440 N   0  0  0  0  0  0  0  0  0  0  0  0
  188.1400  176.9850  136.0100 O   0  0  0  0  0  0  0  0  0  0  0  0
  187.1790  174.9620  135.2220 C   0  0  0  0  0  0  0  0  0  0  0  0
  187.0590  176.1160  135.8510 C   0  0  1  0  0  3  0  0  0  0  0  0
  190.5850  175.8600  137.3930 C   0  0  2  0  0  3  0  0  0  0  0  0
  190.7290  177.1840  140.1970 C   0  0  0  0  0  1  0  0  0  0  0  0
  189.6370  176.9410  137.8930 C   0  0  0  0  0  0  0  0  0  0  0  0
  192.0120  176.3300  137.4440 C   0  0  0  0  0  2  0  0  0  0  0  0
  188.5620  178.3530  139.4530 C   0  0  2  0  0  3  0  0  0  0  0  0
  183.6900  174.8580  135.1080 C   0  0  0  0  0  1  0  0  0  0  0  0
  184.9160  174.7440  135.9940 C   0  0  2  0  0  3  0  0  0  0  0  0
  189.7020  177.4810  139.2070 N   0  0  0  0  0  0  0  0  0  0  0  0
  188.4750  174.4490  134.6720 C   0  0  0  0  0  2  0  0  0  0  0  0
  197.9510  174.7180  136.2000 C   0  0  0  0  0  2  0  0  0  0  0  0
  196.4950  174.4830  135.7620 C   0  0  0  0  0  2  0  0  0  0  0  0
  196.1340  173.2320  137.9460 C   0  0  0  0  0  2  0  0  0  0  0  0
  198.1670  174.5990  138.5340 C   0  0  0  0  0  2  0  0  0  0  0  0
  193.8630  175.6220  136.0250 N   0  0  0  0  0  2  0  0  0  0  0  0
  198.0000  175.5220  137.4150 N   0  0  0  0  0  2  0  0  0  0  0  0
  196.8190  174.0640  139.0230 C   0  0  0  0  0  2  0  0  0  0  0  0
  195.6320  174.1070  136.8860 N   0  0  0  0  0  0  0  0  0  0  0  0
  193.5110  174.2280  137.8610 O   0  0  0  0  0  0  0  0  0  0  0  0
  194.2990  174.6320  136.9640 C   0  0  0  0  0  0  0  0  0  0  0  0
  190.2190  172.9450  135.6640 C   0  0  0  0  0  0  0  0  0  0  0  0
  191.4130  172.8310  136.0550 O   0  0  0  0  0  0  0  0  0  0  0  0
  189.5540  171.8140  135.0690 C   0  0  0  0  0  0  0  0  0  0  0  0
  189.0280  170.9000  134.5990 N   0  0  0  0  0  0  0  0  0  0  0  0
  187.6730  177.7540  140.5320 C   0  0  0  0  0  2  0  0  0  0  0  0
  187.0210  178.8370  141.3770 C   0  0  0  0  0  2  0  0  0  0  0  0
  184.4950  178.7460  141.2080 C   0  0  0  0  0  0  0  0  0  0  0  0
  185.7610  179.2680  140.7850 N   0  0  0  0  0  2  0  0  0  0  0  0
  184.4320  177.8920  142.1280 O   0  0  0  0  0  0  0  0  0  0  0  0
  182.0410  176.9620  140.0020 C   0  0  2  0  0  3  0  0  0  0  0  0
  180.8260  178.9450  140.7150 F   0  0  0  0  0  0  0  0  0  0  0  0
  179.9770  177.5110  136.9880 C   0  0  0  0  0  1  0  0  0  0  0  0
  183.2290  179.2220  140.5690 C   0  0  1  0  0  3  0  0  0  0  0  0
  182.0250  177.1370  138.4810 C   0  0  1  0  0  3  0  0  0  0  0  0
  182.1300  180.3050  138.4890 C   0  0  0  0  0  2  0  0  0  0  0  0
  181.9640  175.8920  137.8410 O   0  0  0  0  0  1  0  0  0  0  0  0
  180.9370  178.1140  138.0010 C   0  0  1  0  0  3  0  0  0  0  0  0
  180.9670  176.1670  140.4110 O   0  0  0  0  0  1  0  0  0  0  0  0
  184.2180  179.0420  138.3240 O   0  0  0  0  0  1  0  0  0  0  0  0
  183.4270  179.8370  139.1650 C   0  0  2  0  0  3  0  0  0  0  0  0
  181.5950  179.3530  137.4090 C   0  0  0  0  0  2  0  0  0  0  0  0
  182.0380  178.2730  140.8010 C   0  0  2  0  0  3  0  0  0  0  0  0
  1 14  2  0  0  0  0
  1  3  1  0  0  0  0
  2  7  1  0  0  0  0
  3 16  1  0  0  0  0
  4 31  1  6  0  0  0
  4  6  1  0  0  0  0
  6  2  1  1  0  0  0
  6 12  1  0  0  0  0
  7 25  1  1  0  0  0
  7 15  1  0  0  0  0
  8 18  1  0  0  0  0
  9  1  1  0  0  0  0
 10  8  2  0  0  0  0
 11 10  1  1  0  0  0
 11  9  1  0  0  0  0
 11  5  1  0  0  0  0
 12 15  1  6  0  0  0
 12 14  1  0  0  0  0
 14 19  1  0  0  0  0
 16 35  1  1  0  0  0
 18 17  1  6  0  0  0
 18  5  1  0  0  0  0
 19 16  1  0  0  0  0
 19 13  1  0  0  0  0
 20 10  1  0  0  0  0
 20  4  1  0  0  0  0
 21 26  1  0  0  0  0
 22 21  1  0  0  0  0
 22 28  1  0  0  0  0
 23 27  1  0  0  0  0
 24 27  1  0  0  0  0
 25 30  1  0  0  0  0
 26 24  1  0  0  0  0
 28 30  1  0  0  0  0
 28 23  1  0  0  0  0
 30 29  2  0  0  0  0
 31 32  2  0  0  0  0
 33 31  1  0  0  0  0
 34 33  3  0  0  0  0
 35 36  1  0  0  0  0
 37 39  2  0  0  0  0
 38 37  1  0  0  0  0
 38 36  1  0  0  0  0
 40 48  1  1  0  0  0
 40 52  1  0  0  0  0
 43 52  1  0  0  0  0
 43 37  1  6  0  0  0
 44 46  1  6  0  0  0
 44 40  1  0  0  0  0
 45 50  1  0  0  0  0
 47 42  1  6  0  0  0
 47 44  1  0  0  0  0
 50 49  1  6  0  0  0
 50 43  1  0  0  0  0
 51 47  1  0  0  0  0
 51 45  1  0  0  0  0
 52 41  1  6  0  0  0
M  END
>  <MODEL>
3

>  <REMARK>
 VINA RESULT:      -7.2      3.513     12.026
  Name = 
  7 active torsions:
  status: ('A' for Active; 'I' for Inactive)
    1  A    between atoms: C_1  and  C_14
    2  A    between atoms: C_11  and  C_24
    3  A    between atoms: C_15  and  C_43
    4  A    between atoms: C_15  and  C_45
    5  A    between atoms: N_20  and  C_45
    6  A    between atoms: C_22  and  N_28
    7  A    between atoms: C_24  and  C_27
                            x       y       z     vdW  Elec       q    Type
                         _______ _______ _______ _____ _____    ______ ____

>  <TORSDO>
F 7

$$$$
=
 OpenBabel10222417483D

 52 57  0  0  1  0  0  0  0  0999 V2000
  188.3370  176.8240  135.7160 C   0  0  0  0  0  0  0  0  0  0  0  0
  189.8080  173.0070  134.6780 O   0  0  0  0  0  0  0  0  0  0  0  0
  188.2570  178.2730  136.0660 C   0  0  0  0  0  2  0  0  0  0  0  0
  187.6570  173.2860  135.8230 C   0  0  1  0  0  3  0  0  0  0  0  0
  185.0110  177.1120  135.9090 S   0  0  0  0  0  0  0  0  0  0  0  0
  188.9270  173.9370  135.2560 C   0  0  1  0  0  3  0  0  0  0  0  0
  191.0740  173.6060  134.7550 C   0  0  1  0  0  3  0  0  0  0  0  0
  184.3650  174.5240  135.7850 N   0  0  0  0  0  2  0  0  0  0  0  0
  187.4480  176.1820  134.8580 O   0  0  0  0  0  0  0  0  0  0  0  0
  185.6690  174.6580  135.2470 C   0  0  0  0  0  0  0  0  0  0  0  0
  186.1430  175.8900  135.2580 C   0  0  0  0  0  0  0  0  0  0  0  0
  189.6650  174.7310  136.3200 C   0  0  2  0  0  3  0  0  0  0  0  0
  191.0890  176.8260  138.1130 C   0  0  0  0  0  1  0  0  0  0  0  0
  189.3370  176.2180  136.3480 C   0  0  0  0  0  0  0  0  0  0  0  0
  191.1110  174.5060  135.9760 C   0  0  0  0  0  2  0  0  0  0  0  0
  189.3280  178.4380  137.1560 C   0  0  2  0  0  3  0  0  0  0  0  0
  182.4910  176.0610  135.5980 C   0  0  0  0  0  1  0  0  0  0  0  0
  183.8120  175.7730  136.2840 C   0  0  2  0  0  3  0  0  0  0  0  0
  189.9750  177.1350  137.2280 N   0  0  0  0  0  0  0  0  0  0  0  0
  186.4850  173.4610  134.8650 C   0  0  0  0  0  2  0  0  0  0  0  0
  195.3620  169.9590  134.6590 C   0  0  0  0  0  2  0  0  0  0  0  0
  193.9120  170.3420  134.9990 C   0  0  0  0  0  2  0  0  0  0  0  0
  194.7610  171.2150  137.2310 C   0  0  0  0  0  2  0  0  0  0  0  0
  196.8940  171.2430  135.8900 C   0  0  0  0  0  2  0  0  0  0  0  0
  192.0920  172.5710  134.8650 N   0  0  0  0  0  2  0  0  0  0  0  0
  196.2090  171.1440  134.6040 N   0  0  0  0  0  2  0  0  0  0  0  0
  196.0400  171.9830  136.9220 C   0  0  0  0  0  2  0  0  0  0  0  0
  193.8380  171.3080  136.0990 N   0  0  0  0  0  0  0  0  0  0  0  0
  192.7280  173.1400  137.0350 O   0  0  0  0  0  0  0  0  0  0  0  0
  192.8780  172.3730  136.0470 C   0  0  0  0  0  0  0  0  0  0  0  0
  187.8310  171.8590  136.2470 C   0  0  0  0  0  0  0  0  0  0  0  0
  188.2850  171.5730  137.3890 O   0  0  0  0  0  0  0  0  0  0  0  0
  187.4900  170.8020  135.3310 C   0  0  0  0  0  0  0  0  0  0  0  0
  187.2120  169.9470  134.6050 N   0  0  0  0  0  0  0  0  0  0  0  0
  188.6600  178.7590  138.4840 C   0  0  0  0  0  2  0  0  0  0  0  0
  188.5340  177.5180  139.3550 C   0  0  0  0  0  2  0  0  0  0  0  0
  188.1340  178.2010  141.7610 C   0  0  0  0  0  0  0  0  0  0  0  0
  189.0090  177.7830  140.7070 N   0  0  0  0  0  2  0  0  0  0  0  0
  186.9030  178.3430  141.5490 O   0  0  0  0  0  0  0  0  0  0  0  0
  191.0300  177.3380  142.9960 C   0  0  2  0  0  3  0  0  0  0  0  0
  190.6130  179.3790  144.2520 F   0  0  0  0  0  0  0  0  0  0  0  0
  191.8940  176.1410  146.3830 C   0  0  0  0  0  1  0  0  0  0  0  0
  188.6710  178.4590  143.1330 C   0  0  1  0  0  3  0  0  0  0  0  0
  190.7930  176.2750  144.0740 C   0  0  1  0  0  3  0  0  0  0  0  0
  188.5500  177.8660  145.6500 C   0  0  0  0  0  2  0  0  0  0  0  0
  191.6340  175.1730  143.8740 O   0  0  0  0  0  1  0  0  0  0  0  0
  190.8720  176.8420  145.5020 C   0  0  1  0  0  3  0  0  0  0  0  0
  192.3870  177.6660  142.9280 O   0  0  0  0  0  1  0  0  0  0  0  0
  187.8870  176.2660  143.9240 O   0  0  0  0  0  1  0  0  0  0  0  0
  187.9880  177.6280  144.2420 C   0  0  2  0  0  3  0  0  0  0  0  0
  189.4970  176.7670  146.1540 C   0  0  0  0  0  2  0  0  0  0  0  0
  190.2030  178.6200  143.1650 C   0  0  2  0  0  3  0  0  0  0  0  0
  1  3  1  0  0  0  0
  1 14  2  0  0  0  0
  2  7  1  0  0  0  0
  3 16  1  0  0  0  0
  4 31  1  6  0  0  0
  5 18  1  0  0  0  0
  6  2  1  1  0  0  0
  6  4  1  0  0  0  0
  6 12  1  0  0  0  0
  7 25  1  1  0  0  0
  7 15  1  0  0  0  0
  8 18  1  0  0  0  0
  9 11  1  0  0  0  0
  9  1  1  0  0  0  0
 10 11  2  0  0  0  0
 10  8  1  0  0  0  0
 11  5  1  0  0  0  0
 12 15  1  6  0  0  0
 12 14  1  0  0  0  0
 14 19  1  0  0  0  0
 16 19  1  0  0  0  0
 16 35  1  1  0  0  0
 18 17  1  6  0  0  0
 19 13  1  0  0  0  0
 20 10  1  0  0  0  0
 20  4  1  0  0  0  0
 21 22  1  0  0  0  0
 22 28  1  0  0  0  0
 24 27  1  0  0  0  0
 25 30  1  0  0  0  0
 26 21  1  0  0  0  0
 26 24  1  0  0  0  0
 27 23  1  0  0  0  0
 28 23  1  0  0  0  0
 30 28  1  0  0  0  0
 30 29  2  0  0  0  0
 31 32  2  0  0  0  0
 33 31  1  0  0  0  0
 34 33  3  0  0  0  0
 35 36  1  0  0  0  0
 36 38  1  0  0  0  0
 38 37  1  0  0  0  0
 39 37  2  0  0  0  0
 40 48  1  1  0  0  0
 40 52  1  0  0  0  0
 40 44  1  0  0  0  0
 43 37  1  6  0  0  0
 43 52  1  0  0  0  0
 43 50  1  0  0  0  0
 44 46  1  1  0  0  0
 44 47  1  0  0  0  0
 45 51  1  0  0  0  0
 47 51  1  0  0  0  0
 47 42  1  1  0  0  0
 50 49  1  6  0  0  0
 50 45  1  0  0  0  0
 52 41  1  1  0  0  0
M  END
>  <MODEL>
4

>  <REMARK>
 VINA RESULT:      -6.7      4.262     10.756
  Name = 
  7 active torsions:
  status: ('A' for Active; 'I' for Inactive)
    1  A    between atoms: C_1  and  C_14
    2  A    between atoms: C_11  and  C_24
    3  A    between atoms: C_15  and  C_43
    4  A    between atoms: C_15  and  C_45
    5  A    between atoms: N_20  and  C_45
    6  A    between atoms: C_22  and  N_28
    7  A    between atoms: C_24  and  C_27
                            x       y       z     vdW  Elec       q    Type
                         _______ _______ _______ _____ _____    ______ ____

>  <TORSDO>
F 7

$$$$
=
 OpenBabel10222417483D

 52 57  0  0  1  0  0  0  0  0999 V2000
  186.6440  177.2770  143.9830 C   0  0  0  0  0  0  0  0  0  0  0  0
  190.3210  176.4930  142.0650 O   0  0  0  0  0  0  0  0  0  0  0  0
  185.1870  177.4580  144.2490 C   0  0  0  0  0  2  0  0  0  0  0  0
  190.1910  177.9100  144.0620 C   0  0  1  0  0  3  0  0  0  0  0  0
  186.8090  177.9380  147.2560 S   0  0  0  0  0  0  0  0  0  0  0  0
  189.4530  177.0820  143.0010 C   0  0  1  0  0  3  0  0  0  0  0  0
  189.5420  176.3040  140.9130 C   0  0  1  0  0  3  0  0  0  0  0  0
  189.4540  178.2260  147.4870 N   0  0  0  0  0  2  0  0  0  0  0  0
  187.5220  176.6480  144.8620 O   0  0  0  0  0  0  0  0  0  0  0  0
  189.2130  177.4830  146.3040 C   0  0  0  0  0  0  0  0  0  0  0  0
  187.9370  177.2740  146.0380 C   0  0  0  0  0  0  0  0  0  0  0  0
  188.4190  177.9180  142.2670 C   0  0  2  0  0  3  0  0  0  0  0  0
  185.9090  179.2090  140.9750 C   0  0  0  0  0  1  0  0  0  0  0  0
  187.0060  177.8170  142.8240 C   0  0  0  0  0  0  0  0  0  0  0  0
  188.4820  177.3870  140.8610 C   0  0  0  0  0  2  0  0  0  0  0  0
  184.7170  178.3440  143.0840 C   0  0  2  0  0  3  0  0  0  0  0  0
  188.2420  178.1430  149.5930 C   0  0  0  0  0  1  0  0  0  0  0  0
  188.2380  178.6500  148.1630 C   0  0  2  0  0  3  0  0  0  0  0  0
  185.8910  178.4730  142.2320 N   0  0  0  0  0  0  0  0  0  0  0  0
  190.3240  177.1280  145.3630 C   0  0  0  0  0  2  0  0  0  0  0  0
  193.0920  175.9530  136.5570 C   0  0  0  0  0  2  0  0  0  0  0  0
  192.2050  176.7530  137.5260 C   0  0  0  0  0  2  0  0  0  0  0  0
  190.2690  176.3760  135.9220 C   0  0  0  0  0  2  0  0  0  0  0  0
  191.8100  174.5090  135.2230 C   0  0  0  0  0  2  0  0  0  0  0  0
  190.3950  176.3810  139.7360 N   0  0  0  0  0  2  0  0  0  0  0  0
  192.6170  174.5800  136.4370 N   0  0  0  0  0  2  0  0  0  0  0  0
  190.3590  174.9180  135.4910 C   0  0  0  0  0  2  0  0  0  0  0  0
  190.7770  176.5250  137.2860 N   0  0  0  0  0  0  0  0  0  0  0  0
  188.6370  176.3270  138.2050 O   0  0  0  0  0  0  0  0  0  0  0  0
  189.8790  176.4100  138.3990 C   0  0  0  0  0  0  0  0  0  0  0  0
  191.5040  178.4710  143.6060 C   0  0  0  0  0  0  0  0  0  0  0  0
  192.0550  179.4200  144.2280 O   0  0  0  0  0  0  0  0  0  0  0  0
  192.1360  177.9290  142.4300 C   0  0  0  0  0  0  0  0  0  0  0  0
  192.6520  177.5020  141.4900 N   0  0  0  0  0  0  0  0  0  0  0  0
  184.3100  179.7110  143.6140 C   0  0  0  0  0  2  0  0  0  0  0  0
  182.8040  179.8020  143.8090 C   0  0  0  0  0  2  0  0  0  0  0  0
  180.7940  179.5380  142.2920 C   0  0  0  0  0  0  0  0  0  0  0  0
  182.1000  179.1360  142.7220 N   0  0  0  0  0  2  0  0  0  0  0  0
  180.2100  180.5050  142.8430 O   0  0  0  0  0  0  0  0  0  0  0  0
  182.1270  177.6190  140.0110 C   0  0  2  0  0  3  0  0  0  0  0  0
  179.9190  176.6140  140.1880 F   0  0  0  0  0  0  0  0  0  0  0  0
  181.3240  177.3090  136.4180 C   0  0  0  0  0  1  0  0  0  0  0  0
  180.1120  178.8210  141.1700 C   0  0  1  0  0  3  0  0  0  0  0  0
  182.0180  178.3350  138.6610 C   0  0  1  0  0  3  0  0  0  0  0  0
  178.9310  179.0220  138.8750 C   0  0  0  0  0  2  0  0  0  0  0  0
  183.2540  178.3390  138.0030 O   0  0  0  0  0  1  0  0  0  0  0  0
  180.8720  177.7940  137.7870 C   0  0  1  0  0  3  0  0  0  0  0  0
  182.6830  176.3490  139.8430 O   0  0  0  0  0  1  0  0  0  0  0  0
  180.5740  180.6730  139.6190 O   0  0  0  0  0  1  0  0  0  0  0  0
  179.6080  179.7510  140.0440 C   0  0  2  0  0  3  0  0  0  0  0  0
  179.8080  178.8710  137.6230 C   0  0  0  0  0  2  0  0  0  0  0  0
  180.8050  177.5000  140.7840 C   0  0  2  0  0  3  0  0  0  0  0  0
  1  3  1  0  0  0  0
  1  9  1  0  0  0  0
  4 31  1  6  0  0  0
  4 20  1  0  0  0  0
  5 18  1  0  0  0  0
  6  2  1  6  0  0  0
  6  4  1  0  0  0  0
  7 25  1  6  0  0  0
  7  2  1  0  0  0  0
  8 18  1  0  0  0  0
  9 11  1  0  0  0  0
 10  8  1  0  0  0  0
 11 10  2  0  0  0  0
 11  5  1  0  0  0  0
 12 15  1  6  0  0  0
 12 14  1  0  0  0  0
 12  6  1  0  0  0  0
 13 19  1  0  0  0  0
 14  1  2  0  0  0  0
 15  7  1  0  0  0  0
 16 35  1  1  0  0  0
 16  3  1  0  0  0  0
 18 17  1  1  0  0  0
 19 14  1  0  0  0  0
 19 16  1  0  0  0  0
 20 10  1  0  0  0  0
 21 22  1  0  0  0  0
 23 28  1  0  0  0  0
 24 27  1  0  0  0  0
 24 26  1  0  0  0  0
 26 21  1  0  0  0  0
 27 23  1  0  0  0  0
 28 22  1  0  0  0  0
 28 30  1  0  0  0  0
 29 30  2  0  0  0  0
 30 25  1  0  0  0  0
 31 32  2  0  0  0  0
 33 31  1  0  0  0  0
 34 33  3  0  0  0  0
 35 36  1  0  0  0  0
 37 38  1  0  0  0  0
 37 39  2  0  0  0  0
 38 36  1  0  0  0  0
 40 48  1  6  0  0  0
 40 52  1  0  0  0  0
 43 37  1  6  0  0  0
 44 46  1  6  0  0  0
 44 40  1  0  0  0  0
 45 50  1  0  0  0  0
 47 42  1  6  0  0  0
 47 44  1  0  0  0  0
 50 49  1  6  0  0  0
 50 43  1  0  0  0  0
 51 47  1  0  0  0  0
 51 45  1  0  0  0  0
 52 41  1  6  0  0  0
 52 43  1  0  0  0  0
M  END
>  <MODEL>
5

>  <REMARK>
 VINA RESULT:      -6.1      4.044     10.895
  Name = 
  7 active torsions:
  status: ('A' for Active; 'I' for Inactive)
    1  A    between atoms: C_1  and  C_14
    2  A    between atoms: C_11  and  C_24
    3  A    between atoms: C_15  and  C_43
    4  A    between atoms: C_15  and  C_45
    5  A    between atoms: N_20  and  C_45
    6  A    between atoms: C_22  and  N_28
    7  A    between atoms: C_24  and  C_27
                            x       y       z     vdW  Elec       q    Type
                         _______ _______ _______ _____ _____    ______ ____

>  <TORSDO>
F 7

$$$$
=
 OpenBabel10222417483D

 52 57  0  0  1  0  0  0  0  0999 V2000
  184.6120  177.9770  137.6290 C   0  0  0  0  0  0  0  0  0  0  0  0
  187.5480  176.2000  135.1720 O   0  0  0  0  0  0  0  0  0  0  0  0
  183.9140  178.8890  138.5820 C   0  0  0  0  0  2  0  0  0  0  0  0
  185.6510  174.9120  136.0410 C   0  0  1  0  0  3  0  0  0  0  0  0
  181.5700  176.5930  137.5140 S   0  0  0  0  0  0  0  0  0  0  0  0
  186.4080  176.2470  135.9920 C   0  0  1  0  0  3  0  0  0  0  0  0
  188.3970  177.2010  135.6690 C   0  0  1  0  0  3  0  0  0  0  0  0
  182.1770  174.3760  136.1560 N   0  0  0  0  0  0  0  0  0  0  0  0
  184.0290  177.4710  136.4700 O   0  0  0  0  0  0  0  0  0  0  0  0
  183.2050  175.3180  135.9040 C   0  0  0  0  0  0  0  0  0  0  0  0
  183.0570  176.4710  136.5290 C   0  0  1  0  0  3  0  0  0  0  0  0
  186.8110  176.7070  137.3830 C   0  0  2  0  0  3  0  0  0  0  0  0
  187.3010  178.1420  140.0910 C   0  0  0  0  0  1  0  0  0  0  0  0
  185.8420  177.6810  138.0380 C   0  0  0  0  0  0  0  0  0  0  0  0
  188.1510  177.3510  137.1580 C   0  0  0  0  0  2  0  0  0  0  0  0
  184.9030  179.0080  139.7530 C   0  0  2  0  0  3  0  0  0  0  0  0
  179.7980  174.7820  136.4500 C   0  0  0  0  0  1  0  0  0  0  0  0
  181.1710  174.8520  137.0910 C   0  0  2  0  0  3  0  0  0  0  0  0
  186.0800  178.2730  139.3090 N   0  0  0  0  0  0  0  0  0  0  0  0
  184.4320  174.9480  135.1270 C   0  0  0  0  0  2  0  0  0  0  0  0
  193.9310  176.3140  135.1300 C   0  0  0  0  0  2  0  0  0  0  0  0
  192.4740  176.1240  134.6760 C   0  0  0  0  0  2  0  0  0  0  0  0
  192.3470  174.1150  136.2290 C   0  0  0  0  0  2  0  0  0  0  0  0
  194.3010  175.3480  137.2360 C   0  0  0  0  0  2  0  0  0  0  0  0
  189.7820  176.8230  135.4260 N   0  0  0  0  0  2  0  0  0  0  0  0
  193.9930  176.6030  136.5570 N   0  0  0  0  0  2  0  0  0  0  0  0
  193.0320  174.5410  137.5220 C   0  0  0  0  0  2  0  0  0  0  0  0
  191.7140  175.2720  135.5960 N   0  0  0  0  0  0  0  0  0  0  0  0
  189.6550  174.8150  136.6030 O   0  0  0  0  0  0  0  0  0  0  0  0
  190.3520  175.5990  135.9050 C   0  0  0  0  0  0  0  0  0  0  0  0
  186.5070  173.7070  135.7940 C   0  0  0  0  0  0  0  0  0  0  0  0
  186.7980  173.3490  134.6200 O   0  0  0  0  0  0  0  0  0  0  0  0
  186.9870  172.9380  136.9120 C   0  0  0  0  0  0  0  0  0  0  0  0
  187.3610  172.3200  137.8140 N   0  0  0  0  0  0  0  0  0  0  0  0
  184.3130  178.3440  140.9880 C   0  0  0  0  0  2  0  0  0  0  0  0
  184.3410  179.2790  142.1870 C   0  0  0  0  0  2  0  0  0  0  0  0
  186.3030  178.4070  143.5310 C   0  0  0  0  0  0  0  0  0  0  0  0
  185.6950  179.4110  142.7090 N   0  0  0  0  0  2  0  0  0  0  0  0
  185.6780  177.3560  143.8220 O   0  0  0  0  0  0  0  0  0  0  0  0
  189.0570  177.0410  142.4310 C   0  0  2  0  0  3  0  0  0  0  0  0
  189.9250  179.1510  143.2740 F   0  0  0  0  0  0  0  0  0  0  0  0
  191.9800  175.7760  144.3020 C   0  0  0  0  0  1  0  0  0  0  0  0
  187.6970  178.5890  144.0420 C   0  0  1  0  0  3  0  0  0  0  0  0
  189.5660  176.0650  143.4960 C   0  0  1  0  0  3  0  0  0  0  0  0
  189.3900  178.0840  145.9340 C   0  0  0  0  0  2  0  0  0  0  0  0
  189.8610  174.8210  142.9260 O   0  0  0  0  0  1  0  0  0  0  0  0
  190.7280  176.6380  144.3270 C   0  0  1  0  0  3  0  0  0  0  0  0
  189.9570  177.1070  141.3630 O   0  0  0  0  0  1  0  0  0  0  0  0
  187.5010  176.6000  145.4750 O   0  0  0  0  0  1  0  0  0  0  0  0
  187.9550  177.9250  145.4130 C   0  0  2  0  0  3  0  0  0  0  0  0
  190.2720  176.8370  145.7660 C   0  0  0  0  0  2  0  0  0  0  0  0
  188.7680  178.4600  142.9420 C   0  0  2  0  0  3  0  0  0  0  0  0
  1 14  2  0  0  0  0
  1  3  1  0  0  0  0
  2  7  1  0  0  0  0
  3 16  1  0  0  0  0
  4 31  1  6  0  0  0
  6  2  1  6  0  0  0
  6  4  1  0  0  0  0
  6 12  1  0  0  0  0
  7 25  1  1  0  0  0
  7 15  1  0  0  0  0
  8 18  1  0  0  0  0
  9 11  1  0  0  0  0
  9  1  1  0  0  0  0
 10  8  2  0  0  0  0
 11 10  1  1  0  0  0
 11  5  1  0  0  0  0
 12 15  1  6  0  0  0
 12 14  1  0  0  0  0
 14 19  1  0  0  0  0
 16 35  1  1  0  0  0
 18 17  1  6  0  0  0
 18  5  1  0  0  0  0
 19 16  1  0  0  0  0
 19 13  1  0  0  0  0
 20 10  1  0  0  0  0
 20  4  1  0  0  0  0
 21 26  1  0  0  0  0
 22 21  1  0  0  0  0
 22 28  1  0  0  0  0
 23 27  1  0  0  0  0
 24 27  1  0  0  0  0
 25 30  1  0  0  0  0
 26 24  1  0  0  0  0
 28 30  1  0  0  0  0
 28 23  1  0  0  0  0
 30 29  2  0  0  0  0
 31 33  1  0  0  0  0
 32 31  2  0  0  0  0
 33 34  3  0  0  0  0
 35 36  1  0  0  0  0
 36 38  1  0  0  0  0
 37 39  2  0  0  0  0
 38 37  1  0  0  0  0
 40 48  1  6  0  0  0
 40 52  1  0  0  0  0
 40 44  1  0  0  0  0
 43 37  1  6  0  0  0
 43 50  1  0  0  0  0
 44 46  1  6  0  0  0
 44 47  1  0  0  0  0
 47 42  1  1  0  0  0
 47 51  1  0  0  0  0
 50 49  1  6  0  0  0
 50 45  1  0  0  0  0
 51 45  1  0  0  0  0
 52 41  1  1  0  0  0
 52 43  1  0  0  0  0
M  END
>  <MODEL>
6

>  <REMARK>
 VINA RESULT:      -5.9      3.848      9.632
  Name = 
  7 active torsions:
  status: ('A' for Active; 'I' for Inactive)
    1  A    between atoms: C_1  and  C_14
    2  A    between atoms: C_11  and  C_24
    3  A    between atoms: C_15  and  C_43
    4  A    between atoms: C_15  and  C_45
    5  A    between atoms: N_20  and  C_45
    6  A    between atoms: C_22  and  N_28
    7  A    between atoms: C_24  and  C_27
                            x       y       z     vdW  Elec       q    Type
                         _______ _______ _______ _____ _____    ______ ____

>  <TORSDO>
F 7

$$$$
=
 OpenBabel10222417483D

 52 57  0  0  1  0  0  0  0  0999 V2000
  184.7280  178.5700  138.4500 C   0  0  0  0  0  0  0  0  0  0  0  0
  187.3410  176.7960  135.6510 O   0  0  0  0  0  0  0  0  0  0  0  0
  184.1760  179.4330  139.5360 C   0  0  0  0  0  2  0  0  0  0  0  0
  185.3530  175.6200  136.4760 C   0  0  1  0  0  3  0  0  0  0  0  0
  181.5500  177.5350  138.3520 S   0  0  0  0  0  0  0  0  0  0  0  0
  186.2490  176.8660  136.5330 C   0  0  1  0  0  3  0  0  0  0  0  0
  188.3160  177.6380  136.2080 C   0  0  1  0  0  3  0  0  0  0  0  0
  181.8490  175.4390  136.7230 N   0  0  0  0  0  2  0  0  0  0  0  0
  184.0420  178.2670  137.2760 O   0  0  0  0  0  0  0  0  0  0  0  0
  182.9630  176.2920  136.5210 C   0  0  0  0  0  0  0  0  0  0  0  0
  182.9700  177.3740  137.2780 C   0  0  0  0  0  0  0  0  0  0  0  0
  186.7600  177.1160  137.9420 C   0  0  2  0  0  3  0  0  0  0  0  0
  187.5230  178.1660  140.7620 C   0  0  0  0  0  1  0  0  0  0  0  0
  185.9340  178.1020  138.7550 C   0  0  0  0  0  0  0  0  0  0  0  0
  188.1520  177.6380  137.7160 C   0  0  0  0  0  2  0  0  0  0  0  0
  185.2220  179.3110  140.6560 C   0  0  2  0  0  3  0  0  0  0  0  0
  179.5450  176.0540  137.1940 C   0  0  0  0  0  1  0  0  0  0  0  0
  180.9430  175.9060  137.7610 C   0  0  2  0  0  3  0  0  0  0  0  0
  186.2910  178.5140  140.0680 N   0  0  0  0  0  0  0  0  0  0  0  0
  184.1070  175.8890  135.6410 C   0  0  0  0  0  2  0  0  0  0  0  0
  193.6900  176.2650  135.2450 C   0  0  0  0  0  2  0  0  0  0  0  0
  192.1980  176.2560  134.8730 C   0  0  0  0  0  2  0  0  0  0  0  0
  191.9540  174.1460  136.2700 C   0  0  0  0  0  2  0  0  0  0  0  0
  194.0770  175.0930  137.2420 C   0  0  0  0  0  2  0  0  0  0  0  0
  189.6390  177.1490  135.8470 N   0  0  0  0  0  2  0  0  0  0  0  0
  193.8620  176.4250  136.6840 N   0  0  0  0  0  2  0  0  0  0  0  0
  192.7500  174.3930  137.5450 C   0  0  0  0  0  2  0  0  0  0  0  0
  191.4080  175.4080  135.7710 N   0  0  0  0  0  0  0  0  0  0  0  0
  189.3730  175.0700  136.8700 O   0  0  0  0  0  0  0  0  0  0  0  0
  190.1060  175.8390  136.1920 C   0  0  0  0  0  0  0  0  0  0  0  0
  186.0590  174.3700  136.0480 C   0  0  0  0  0  0  0  0  0  0  0  0
  186.3360  174.1640  134.8340 O   0  0  0  0  0  0  0  0  0  0  0  0
  186.4110  173.3820  137.0350 C   0  0  0  0  0  0  0  0  0  0  0  0
  186.6990  172.5990  137.8340 N   0  0  0  0  0  0  0  0  0  0  0  0
  184.6170  178.5720  141.8410 C   0  0  0  0  0  2  0  0  0  0  0  0
  185.2030  179.0610  143.1560 C   0  0  0  0  0  2  0  0  0  0  0  0
  186.6240  178.1070  145.0230 C   0  0  0  0  0  0  0  0  0  0  0  0
  186.2100  178.1320  143.6520 N   0  0  0  0  0  2  0  0  0  0  0  0
  186.1130  178.8950  145.8580 O   0  0  0  0  0  0  0  0  0  0  0  0
  188.2150  178.0390  147.8730 C   0  0  2  0  0  3  0  0  0  0  0  0
  188.1750  175.6650  147.3410 F   0  0  0  0  0  0  0  0  0  0  0  0
  191.7420  177.2080  148.5930 C   0  0  0  0  0  1  0  0  0  0  0  0
  187.6620  177.1330  145.4820 C   0  0  1  0  0  3  0  0  0  0  0  0
  189.6860  178.3760  147.6090 C   0  0  1  0  0  3  0  0  0  0  0  0
  190.1030  176.3020  145.2480 C   0  0  0  0  0  2  0  0  0  0  0  0
  190.1290  179.3730  148.4860 O   0  0  0  0  0  1  0  0  0  0  0  0
  190.5930  177.1340  147.6000 C   0  0  1  0  0  3  0  0  0  0  0  0
  188.0230  177.7310  149.2230 O   0  0  0  0  0  1  0  0  0  0  0  0
  189.4770  178.6050  144.7150 O   0  0  0  0  0  1  0  0  0  0  0  0
  189.0230  177.2800  144.7650 C   0  0  2  0  0  3  0  0  0  0  0  0
  191.1430  176.9170  146.1960 C   0  0  0  0  0  2  0  0  0  0  0  0
  187.6490  176.9050  147.0060 C   0  0  2  0  0  3  0  0  0  0  0  0
  1 14  2  0  0  0  0
  1  3  1  0  0  0  0
  2  7  1  0  0  0  0
  3 16  1  0  0  0  0
  4 31  1  6  0  0  0
  4  6  1  0  0  0  0
  6  2  1  6  0  0  0
  6 12  1  0  0  0  0
  7 25  1  1  0  0  0
  7 15  1  0  0  0  0
  8 18  1  0  0  0  0
  9 11  1  0  0  0  0
  9  1  1  0  0  0  0
 10  8  1  0  0  0  0
 10 11  2  0  0  0  0
 11  5  1  0  0  0  0
 12 15  1  6  0  0  0
 12 14  1  0  0  0  0
 14 19  1  0  0  0  0
 16 35  1  1  0  0  0
 18 17  1  6  0  0  0
 18  5  1  0  0  0  0
 19 16  1  0  0  0  0
 19 13  1  0  0  0  0
 20  4  1  0  0  0  0
 20 10  1  0  0  0  0
 21 26  1  0  0  0  0
 22 21  1  0  0  0  0
 22 28  1  0  0  0  0
 23 27  1  0  0  0  0
 24 27  1  0  0  0  0
 25 30  1  0  0  0  0
 26 24  1  0  0  0  0
 28 30  1  0  0  0  0
 28 23  1  0  0  0  0
 30 29  2  0  0  0  0
 31 33  1  0  0  0  0
 32 31  2  0  0  0  0
 33 34  3  0  0  0  0
 35 36  1  0  0  0  0
 36 38  1  0  0  0  0
 37 39  2  0  0  0  0
 38 37  1  0  0  0  0
 40 48  1  1  0  0  0
 43 37  1  1  0  0  0
 43 52  1  0  0  0  0
 44 40  1  0  0  0  0
 44 46  1  1  0  0  0
 45 51  1  0  0  0  0
 47 44  1  0  0  0  0
 47 42  1  1  0  0  0
 50 49  1  1  0  0  0
 50 45  1  0  0  0  0
 50 43  1  0  0  0  0
 51 47  1  0  0  0  0
 52 41  1  6  0  0  0
 52 40  1  0  0  0  0
M  END
>  <MODEL>
7

>  <REMARK>
 VINA RESULT:      -5.8      4.099     10.091
  Name = 
  7 active torsions:
  status: ('A' for Active; 'I' for Inactive)
    1  A    between atoms: C_1  and  C_14
    2  A    between atoms: C_11  and  C_24
    3  A    between atoms: C_15  and  C_43
    4  A    between atoms: C_15  and  C_45
    5  A    between atoms: N_20  and  C_45
    6  A    between atoms: C_22  and  N_28
    7  A    between atoms: C_24  and  C_27
                            x       y       z     vdW  Elec       q    Type
                         _______ _______ _______ _____ _____    ______ ____

>  <TORSDO>
F 7

$$$$
=
 OpenBabel10222417483D

 52 57  0  0  1  0  0  0  0  0999 V2000
  187.4960  177.3160  137.0210 C   0  0  0  0  0  0  0  0  0  0  0  0
  190.5230  175.0610  135.1320 O   0  0  0  0  0  0  0  0  0  0  0  0
  186.7830  178.3540  137.8220 C   0  0  0  0  0  2  0  0  0  0  0  0
  188.3510  174.0730  135.7000 C   0  0  1  0  0  3  0  0  0  0  0  0
  184.3530  176.3390  136.4290 S   0  0  0  0  0  0  0  0  0  0  0  0
  189.2810  175.2940  135.7480 C   0  0  1  0  0  3  0  0  0  0  0  0
  191.4080  175.9640  135.7420 C   0  0  1  0  0  3  0  0  0  0  0  0
  184.8640  174.0020  135.2420 N   0  0  0  0  0  2  0  0  0  0  0  0
  187.0460  176.8390  135.7920 O   0  0  0  0  0  0  0  0  0  0  0  0
  186.0390  174.7890  135.1450 C   0  0  0  0  0  0  0  0  0  0  0  0
  185.9500  175.9790  135.7100 C   0  0  0  0  0  0  0  0  0  0  0  0
  189.5110  175.7590  137.1760 C   0  0  2  0  0  3  0  0  0  0  0  0
  189.7440  177.2380  139.8950 C   0  0  0  0  0  1  0  0  0  0  0  0
  188.5900  176.8800  137.6370 C   0  0  0  0  0  0  0  0  0  0  0  0
  190.9450  176.2110  137.1650 C   0  0  0  0  0  2  0  0  0  0  0  0
  187.5740  178.3940  139.1400 C   0  0  2  0  0  3  0  0  0  0  0  0
  182.5480  174.7290  135.1240 C   0  0  0  0  0  1  0  0  0  0  0  0
  183.7940  174.6470  135.9850 C   0  0  2  0  0  3  0  0  0  0  0  0
  188.6960  177.4930  138.9160 N   0  0  0  0  0  0  0  0  0  0  0  0
  187.3140  174.2270  134.5940 C   0  0  0  0  0  2  0  0  0  0  0  0
  196.8260  174.4390  135.9050 C   0  0  0  0  0  2  0  0  0  0  0  0
  195.3650  174.2200  135.4760 C   0  0  0  0  0  2  0  0  0  0  0  0
  194.9980  172.9930  137.6720 C   0  0  0  0  0  2  0  0  0  0  0  0
  197.0520  174.3370  138.2390 C   0  0  0  0  0  2  0  0  0  0  0  0
  192.7490  175.3970  135.7430 N   0  0  0  0  0  2  0  0  0  0  0  0
  196.8920  175.2520  137.1130 N   0  0  0  0  0  2  0  0  0  0  0  0
  195.7000  173.8240  138.7390 C   0  0  0  0  0  2  0  0  0  0  0  0
  194.5030  173.8650  136.6080 N   0  0  0  0  0  0  0  0  0  0  0  0
  192.3890  174.0240  137.5930 O   0  0  0  0  0  0  0  0  0  0  0  0
  193.1770  174.4090  136.6880 C   0  0  0  0  0  0  0  0  0  0  0  0
  189.0630  172.7560  135.6260 C   0  0  0  0  0  0  0  0  0  0  0  0
  190.3220  172.7010  135.5840 O   0  0  0  0  0  0  0  0  0  0  0  0
  188.2960  171.5380  135.5850 C   0  0  0  0  0  0  0  0  0  0  0  0
  187.6890  170.5550  135.5610 N   0  0  0  0  0  0  0  0  0  0  0  0
  186.7050  177.8700  140.2730 C   0  0  0  0  0  2  0  0  0  0  0  0
  186.1890  179.0030  141.1460 C   0  0  0  0  0  2  0  0  0  0  0  0
  187.6810  178.1360  143.0000 C   0  0  0  0  0  0  0  0  0  0  0  0
  187.0660  179.2180  142.2890 N   0  0  0  0  0  2  0  0  0  0  0  0
  187.4870  176.9470  142.6440 O   0  0  0  0  0  0  0  0  0  0  0  0
  190.7500  177.1280  143.4790 C   0  0  2  0  0  3  0  0  0  0  0  0
  190.7920  179.2390  144.6880 F   0  0  0  0  0  0  0  0  0  0  0  0
  192.4110  176.0050  146.5820 C   0  0  0  0  0  1  0  0  0  0  0  0
  188.5750  178.4100  144.1680 C   0  0  1  0  0  3  0  0  0  0  0  0
  190.7480  176.1250  144.6370 C   0  0  1  0  0  3  0  0  0  0  0  0
  189.0920  177.9210  146.6570 C   0  0  0  0  0  2  0  0  0  0  0  0
  191.4450  174.9630  144.2840 O   0  0  0  0  0  1  0  0  0  0  0  0
  191.2330  176.7390  145.9620 C   0  0  1  0  0  3  0  0  0  0  0  0
  192.0560  177.3620  143.0420 O   0  0  0  0  0  1  0  0  0  0  0  0
  187.9100  176.3060  145.2530 O   0  0  0  0  0  1  0  0  0  0  0  0
  188.1660  177.6680  145.4590 C   0  0  2  0  0  3  0  0  0  0  0  0
  190.0770  176.7810  146.9540 C   0  0  0  0  0  2  0  0  0  0  0  0
  190.0680  178.4690  143.7890 C   0  0  2  0  0  3  0  0  0  0  0  0
  1 14  2  0  0  0  0
  1  3  1  0  0  0  0
  2  7  1  0  0  0  0
  3 16  1  0  0  0  0
  4 31  1  6  0  0  0
  4  6  1  0  0  0  0
  6  2  1  1  0  0  0
  6 12  1  0  0  0  0
  7 25  1  1  0  0  0
  7 15  1  0  0  0  0
  8 18  1  0  0  0  0
  9  1  1  0  0  0  0
 10  8  1  0  0  0  0
 10 11  2  0  0  0  0
 11  9  1  0  0  0  0
 11  5  1  0  0  0  0
 12 15  1  6  0  0  0
 12 14  1  0  0  0  0
 14 19  1  0  0  0  0
 16 35  1  1  0  0  0
 18 17  1  6  0  0  0
 18  5  1  0  0  0  0
 19 16  1  0  0  0  0
 19 13  1  0  0  0  0
 20 10  1  0  0  0  0
 20  4  1  0  0  0  0
 21 26  1  0  0  0  0
 22 21  1  0  0  0  0
 22 28  1  0  0  0  0
 23 27  1  0  0  0  0
 24 27  1  0  0  0  0
 25 30  1  0  0  0  0
 26 24  1  0  0  0  0
 28 30  1  0  0  0  0
 28 23  1  0  0  0  0
 30 29  2  0  0  0  0
 32 31  2  0  0  0  0
 33 31  1  0  0  0  0
 34 33  3  0  0  0  0
 35 36  1  0  0  0  0
 36 38  1  0  0  0  0
 38 37  1  0  0  0  0
 39 37  2  0  0  0  0
 40 48  1  1  0  0  0
 40 52  1  0  0  0  0
 40 44  1  0  0  0  0
 43 37  1  6  0  0  0
 43 50  1  0  0  0  0
 44 46  1  6  0  0  0
 44 47  1  0  0  0  0
 45 51  1  0  0  0  0
 47 42  1  1  0  0  0
 47 51  1  0  0  0  0
 50 49  1  6  0  0  0
 50 45  1  0  0  0  0
 52 43  1  0  0  0  0
 52 41  1  1  0  0  0
M  END
>  <MODEL>
8

>  <REMARK>
 VINA RESULT:      -5.7      4.106     10.553
  Name = 
  7 active torsions:
  status: ('A' for Active; 'I' for Inactive)
    1  A    between atoms: C_1  and  C_14
    2  A    between atoms: C_11  and  C_24
    3  A    between atoms: C_15  and  C_43
    4  A    between atoms: C_15  and  C_45
    5  A    between atoms: N_20  and  C_45
    6  A    between atoms: C_22  and  N_28
    7  A    between atoms: C_24  and  C_27
                            x       y       z     vdW  Elec       q    Type
                         _______ _______ _______ _____ _____    ______ ____

>  <TORSDO>
F 7

$$$$
=
 OpenBabel10222417483D

 52 57  0  0  1  0  0  0  0  0999 V2000
  185.8100  176.9160  137.0000 C   0  0  0  0  0  0  0  0  0  0  0  0
  189.2010  175.2470  135.1210 O   0  0  0  0  0  0  0  0  0  0  0  0
  184.8770  177.8710  137.6670 C   0  0  0  0  0  2  0  0  0  0  0  0
  187.5750  173.8500  136.3130 C   0  0  1  0  0  3  0  0  0  0  0  0
  183.1480  174.9120  137.2730 S   0  0  0  0  0  0  0  0  0  0  0  0
  188.0290  175.2560  135.8990 C   0  0  1  0  0  3  0  0  0  0  0  0
  189.7840  176.5070  135.3230 C   0  0  1  0  0  3  0  0  0  0  0  0
  184.2960  172.6040  136.5740 N   0  0  0  0  0  2  0  0  0  0  0  0
  185.4190  176.0020  136.0250 O   0  0  0  0  0  0  0  0  0  0  0  0
  185.1110  173.6480  136.0720 C   0  0  0  0  0  0  0  0  0  0  0  0
  184.6830  174.8640  136.3570 C   0  0  0  0  0  0  0  0  0  0  0  0
  188.2400  176.1490  137.1090 C   0  0  2  0  0  3  0  0  0  0  0  0
  188.2490  178.3280  139.3200 C   0  0  0  0  0  1  0  0  0  0  0  0
  187.0480  177.0220  137.4740 C   0  0  0  0  0  0  0  0  0  0  0  0
  189.4230  176.9910  136.7150 C   0  0  0  0  0  2  0  0  0  0  0  0
  185.7450  178.5160  138.7600 C   0  0  2  0  0  3  0  0  0  0  0  0
  181.8720  172.5340  136.7490 C   0  0  0  0  0  1  0  0  0  0  0  0
  183.1570  173.0770  137.3450 C   0  0  2  0  0  3  0  0  0  0  0  0
  187.0770  177.9700  138.5330 N   0  0  0  0  0  0  0  0  0  0  0  0
  186.4330  173.3670  135.4250 C   0  0  0  0  0  2  0  0  0  0  0  0
  195.4050  176.2510  135.5140 C   0  0  0  0  0  2  0  0  0  0  0  0
  194.0760  176.3880  134.7520 C   0  0  0  0  0  2  0  0  0  0  0  0
  194.0100  173.8510  134.5940 C   0  0  0  0  0  2  0  0  0  0  0  0
  195.5890  174.1450  136.5350 C   0  0  0  0  0  2  0  0  0  0  0  0
  191.2300  176.3960  135.1910 N   0  0  0  0  0  2  0  0  0  0  0  0
  195.2080  175.5350  136.7690 N   0  0  0  0  0  2  0  0  0  0  0  0
  194.4220  173.3350  135.9660 C   0  0  0  0  0  2  0  0  0  0  0  0
  193.3180  175.1330  134.7310 N   0  0  0  0  0  0  0  0  0  0  0  0
  191.2190  174.1050  134.7550 O   0  0  0  0  0  0  0  0  0  0  0  0
  191.8920  175.1630  134.8840 C   0  0  0  0  0  0  0  0  0  0  0  0
  188.6820  172.8440  136.4040 C   0  0  0  0  0  0  0  0  0  0  0  0
  189.6310  172.9970  137.2200 O   0  0  0  0  0  0  0  0  0  0  0  0
  188.6690  171.6960  135.5340 C   0  0  0  0  0  0  0  0  0  0  0  0
  188.6720  170.7750  134.8360 N   0  0  0  0  0  0  0  0  0  0  0  0
  185.2390  178.0930  140.1310 C   0  0  0  0  0  2  0  0  0  0  0  0
  184.6390  179.2680  140.8860 C   0  0  0  0  0  2  0  0  0  0  0  0
  182.1850  179.0650  140.2940 C   0  0  0  0  0  0  0  0  0  0  0  0
  183.4380  179.7550  140.2200 N   0  0  0  0  0  2  0  0  0  0  0  0
  182.0790  178.0030  140.9580 O   0  0  0  0  0  0  0  0  0  0  0  0
  180.9710  178.1930  137.3910 C   0  0  2  0  0  3  0  0  0  0  0  0
  178.9310  178.8710  138.5290 F   0  0  0  0  0  0  0  0  0  0  0  0
  179.4710  180.2760  134.7340 C   0  0  0  0  0  1  0  0  0  0  0  0
  180.9800  179.6070  139.5920 C   0  0  1  0  0  3  0  0  0  0  0  0
  181.1690  179.3610  136.4190 C   0  0  1  0  0  3  0  0  0  0  0  0
  179.9420  181.5970  138.3020 C   0  0  0  0  0  2  0  0  0  0  0  0
  181.7540  178.9180  135.2270 O   0  0  0  0  0  1  0  0  0  0  0  0
  179.8850  180.1770  136.1940 C   0  0  1  0  0  3  0  0  0  0  0  0
  180.2700  177.1580  136.7680 O   0  0  0  0  0  1  0  0  0  0  0  0
  182.3560  181.2080  138.3300 O   0  0  0  0  0  1  0  0  0  0  0  0
  181.1630  181.0410  139.0470 C   0  0  2  0  0  3  0  0  0  0  0  0
  180.0640  181.5760  136.7710 C   0  0  0  0  0  2  0  0  0  0  0  0
  180.2720  178.5630  138.7070 C   0  0  2  0  0  3  0  0  0  0  0  0
  1 14  2  0  0  0  0
  1  3  1  0  0  0  0
  2  7  1  0  0  0  0
  3 16  1  0  0  0  0
  4 31  1  6  0  0  0
  5 18  1  0  0  0  0
  6  2  1  1  0  0  0
  6  4  1  0  0  0  0
  6 12  1  0  0  0  0
  7 25  1  1  0  0  0
  7 15  1  0  0  0  0
  8 18  1  0  0  0  0
  9 11  1  0  0  0  0
  9  1  1  0  0  0  0
 10 11  2  0  0  0  0
 10  8  1  0  0  0  0
 11  5  1  0  0  0  0
 12 15  1  6  0  0  0
 12 14  1  0  0  0  0
 14 19  1  0  0  0  0
 16 35  1  1  0  0  0
 18 17  1  6  0  0  0
 19 16  1  0  0  0  0
 19 13  1  0  0  0  0
 20 10  1  0  0  0  0
 20  4  1  0  0  0  0
 21 26  1  0  0  0  0
 22 21  1  0  0  0  0
 23 28  1  0  0  0  0
 23 27  1  0  0  0  0
 24 26  1  0  0  0  0
 27 24  1  0  0  0  0
 28 22  1  0  0  0  0
 28 30  1  0  0  0  0
 29 30  2  0  0  0  0
 30 25  1  0  0  0  0
 31 32  2  0  0  0  0
 33 31  1  0  0  0  0
 34 33  3  0  0  0  0
 35 36  1  0  0  0  0
 37 39  2  0  0  0  0
 38 37  1  0  0  0  0
 38 36  1  0  0  0  0
 40 48  1  6  0  0  0
 40 52  1  0  0  0  0
 43 37  1  6  0  0  0
 44 46  1  6  0  0  0
 44 40  1  0  0  0  0
 45 50  1  0  0  0  0
 47 42  1  6  0  0  0
 47 44  1  0  0  0  0
 47 51  1  0  0  0  0
 50 49  1  6  0  0  0
 50 43  1  0  0  0  0
 51 45  1  0  0  0  0
 52 41  1  6  0  0  0
 52 43  1  0  0  0  0
M  END
>  <MODEL>
9

>  <REMARK>
 VINA RESULT:      -5.3      3.873     11.956
  Name = 
  7 active torsions:
  status: ('A' for Active; 'I' for Inactive)
    1  A    between atoms: C_1  and  C_14
    2  A    between atoms: C_11  and  C_24
    3  A    between atoms: C_15  and  C_43
    4  A    between atoms: C_15  and  C_45
    5  A    between atoms: N_20  and  C_45
    6  A    between atoms: C_22  and  N_28
    7  A    between atoms: C_24  and  C_27
                            x       y       z     vdW  Elec       q    Type
                         _______ _______ _______ _____ _____    ______ ____

>  <TORSDO>
F 7

$$$$
