=
 OpenBabel10222418083D

 25 28  0  0  1  0  0  0  0  0999 V2000
  189.8930  176.3100  142.3610 N   0  0  0  0  0  0  0  0  0  0  0  0
  189.9090  176.4290  143.8130 C   0  0  2  0  0  3  0  0  0  0  0  0
  189.4940  177.4220  141.8470 C   0  0  0  0  0  0  0  0  0  0  0  0
  189.2110  178.3900  142.7910 O   0  0  0  0  0  0  0  0  0  0  0  0
  189.4610  177.8690  144.0850 C   0  0  1  0  0  3  0  0  0  0  0  0
  189.3600  177.6210  140.3910 C   0  0  0  0  0  0  0  0  0  0  0  0
  190.3680  177.2030  139.5740 N   0  0  0  0  0  0  0  0  0  0  0  0
  187.1350  178.6820  140.6020 N   0  0  0  0  0  1  0  0  0  0  0  0
  189.1850  177.9550  137.6580 C   0  0  0  0  0  0  0  0  0  0  0  0
  188.2270  178.2250  139.8090 C   0  0  0  0  0  0  0  0  0  0  0  0
  188.1720  178.3740  138.4580 N   0  0  0  0  0  0  0  0  0  0  0  0
  190.3070  177.3560  138.2260 C   0  0  0  0  0  3  0  0  0  0  0  0
  189.1000  178.1250  136.2480 N   0  0  0  0  0  1  0  0  0  0  0  0
  186.9710  177.8950  144.2770 C   0  0  0  0  0  3  0  0  0  0  0  0
  188.2770  177.9320  146.3170 C   0  0  0  0  0  3  0  0  0  0  0  0
  188.2150  177.8900  144.9150 C   0  0  0  0  0  0  0  0  0  0  0  0
  185.8590  177.9670  146.4270 C   0  0  0  0  0  3  0  0  0  0  0  0
  187.1000  177.9680  147.0690 C   0  0  0  0  0  3  0  0  0  0  0  0
  185.7940  177.9310  145.0310 C   0  0  0  0  0  3  0  0  0  0  0  0
  191.3230  176.2260  144.3390 C   0  0  0  0  0  2  0  0  0  0  0  0
  191.5890  177.1120  145.5460 C   0  0  0  0  0  2  0  0  0  0  0  0
  191.3220  176.3550  146.8420 C   0  0  1  0  0  3  0  0  0  0  0  0
  192.2170  175.1520  146.9360 C   0  0  0  0  0  2  0  0  0  0  0  0
  191.9540  176.9960  147.9210 O   0  0  0  0  0  0  0  0  0  0  0  0
  192.8210  175.9030  148.0900 C   0  0  0  0  0  2  0  0  0  0  0  0
  1  2  1  0  0  0  0
  2  5  1  0  0  0  0
  2 20  1  6  0  0  0
  3  1  2  0  0  0  0
  3  4  1  0  0  0  0
  4  5  1  0  0  0  0
  5 16  1  1  0  0  0
  6  3  1  0  0  0  0
  7  6  2  0  0  0  0
  9 12  2  0  0  0  0
  9 11  1  0  0  0  0
 10  6  1  0  0  0  0
 10  8  1  0  0  0  0
 11 10  2  0  0  0  0
 12  7  1  0  0  0  0
 13  9  1  0  0  0  0
 14 16  2  0  0  0  0
 14 19  1  0  0  0  0
 15 18  2  0  0  0  0
 16 15  1  0  0  0  0
 17 18  1  0  0  0  0
 19 17  2  0  0  0  0
 20 21  1  0  0  0  0
 22 21  1  6  0  0  0
 22 23  1  0  0  0  0
 22 24  1  0  0  0  0
 23 25  1  0  0  0  0
 24 25  1  0  0  0  0
M  END
>  <MODEL>
1

>  <REMARK>
 VINA RESULT:      -8.9      0.000      0.000
  Name = 
  5 active torsions:
  status: ('A' for Active; 'I' for Inactive)
    1  A    between atoms: C_1  and  C_9
    2  A    between atoms: C_4  and  C_13
    3  A    between atoms: C_8  and  C_16
    4  A    between atoms: C_13  and  C_16
    5  A    between atoms: C_17  and  C_25
                            x       y       z     vdW  Elec       q    Type
                         _______ _______ _______ _____ _____    ______ ____

>  <TORSDO>
F 5

$$$$
=
 OpenBabel10222418083D

 25 28  0  0  1  0  0  0  0  0999 V2000
  188.4530  178.5870  141.3510 N   0  0  0  0  0  0  0  0  0  0  0  0
  187.3860  178.5160  142.3410 C   0  0  2  0  0  3  0  0  0  0  0  0
  189.1440  177.5010  141.3920 C   0  0  0  0  0  0  0  0  0  0  0  0
  188.6860  176.5960  142.3300 O   0  0  0  0  0  0  0  0  0  0  0  0
  187.5500  177.1350  142.9840 C   0  0  1  0  0  3  0  0  0  0  0  0
  190.3070  177.2670  140.5140 C   0  0  0  0  0  0  0  0  0  0  0  0
  190.0910  176.9100  139.2170 N   0  0  0  0  0  0  0  0  0  0  0  0
  191.9360  177.7730  142.3080 N   0  0  0  0  0  1  0  0  0  0  0  0
  192.4290  176.8130  138.8100 C   0  0  0  0  0  0  0  0  0  0  0  0
  191.6370  177.4000  140.9650 C   0  0  0  0  0  0  0  0  0  0  0  0
  192.6590  177.1690  140.0990 N   0  0  0  0  0  0  0  0  0  0  0  0
  191.1180  176.6800  138.3580 C   0  0  0  0  0  3  0  0  0  0  0  0
  193.5180  176.5780  137.9270 N   0  0  0  0  0  1  0  0  0  0  0  0
  186.7180  177.5440  145.3030 C   0  0  0  0  0  3  0  0  0  0  0  0
  189.0830  177.1220  144.9930 C   0  0  0  0  0  3  0  0  0  0  0  0
  187.7930  177.2590  144.4560 C   0  0  0  0  0  0  0  0  0  0  0  0
  188.2070  177.5380  147.2120 C   0  0  0  0  0  3  0  0  0  0  0  0
  189.2870  177.2590  146.3690 C   0  0  0  0  0  3  0  0  0  0  0  0
  186.9230  177.6810  146.6790 C   0  0  0  0  0  3  0  0  0  0  0  0
  186.0300  178.6030  141.6560 C   0  0  0  0  0  2  0  0  0  0  0  0
  185.0290  179.3550  142.5190 C   0  0  0  0  0  2  0  0  0  0  0  0
  183.9510  178.4140  143.0430 C   0  0  1  0  0  3  0  0  0  0  0  0
  183.4220  178.9100  144.3590 C   0  0  0  0  0  2  0  0  0  0  0  0
  182.7320  178.6510  142.3850 O   0  0  0  0  0  0  0  0  0  0  0  0
  182.1530  179.1140  143.5790 C   0  0  0  0  0  2  0  0  0  0  0  0
  1  3  2  0  0  0  0
  1  2  1  0  0  0  0
  2 20  1  6  0  0  0
  2  5  1  0  0  0  0
  3  4  1  0  0  0  0
  4  5  1  0  0  0  0
  5 16  1  1  0  0  0
  6 10  1  0  0  0  0
  6  3  1  0  0  0  0
  7  6  2  0  0  0  0
  9 11  1  0  0  0  0
 10  8  1  0  0  0  0
 11 10  2  0  0  0  0
 12  9  2  0  0  0  0
 12  7  1  0  0  0  0
 13  9  1  0  0  0  0
 14 19  1  0  0  0  0
 15 18  2  0  0  0  0
 16 15  1  0  0  0  0
 16 14  2  0  0  0  0
 18 17  1  0  0  0  0
 19 17  2  0  0  0  0
 20 21  1  0  0  0  0
 22 21  1  6  0  0  0
 22 23  1  0  0  0  0
 24 22  1  0  0  0  0
 24 25  1  0  0  0  0
 25 23  1  0  0  0  0
M  END
>  <MODEL>
2

>  <REMARK>
 VINA RESULT:      -8.8      2.431      5.250
  Name = 
  5 active torsions:
  status: ('A' for Active; 'I' for Inactive)
    1  A    between atoms: C_1  and  C_9
    2  A    between atoms: C_4  and  C_13
    3  A    between atoms: C_8  and  C_16
    4  A    between atoms: C_13  and  C_16
    5  A    between atoms: C_17  and  C_25
                            x       y       z     vdW  Elec       q    Type
                         _______ _______ _______ _____ _____    ______ ____

>  <TORSDO>
F 5

$$$$
=
 OpenBabel10222418083D

 25 28  0  0  1  0  0  0  0  0999 V2000
  189.3720  177.9770  143.3910 N   0  0  0  0  0  0  0  0  0  0  0  0
  188.2210  178.0600  142.5020 C   0  0  2  0  0  3  0  0  0  0  0  0
  189.0890  177.1990  144.3790 C   0  0  0  0  0  0  0  0  0  0  0  0
  187.8150  176.6720  144.3130 O   0  0  0  0  0  0  0  0  0  0  0  0
  187.1740  177.1410  143.1400 C   0  0  1  0  0  3  0  0  0  0  0  0
  190.0490  176.9140  145.4630 C   0  0  0  0  0  0  0  0  0  0  0  0
  191.2160  176.2770  145.1600 N   0  0  0  0  0  0  0  0  0  0  0  0
  188.6110  177.9460  147.1930 N   0  0  0  0  0  1  0  0  0  0  0  0
  191.8950  176.3460  147.4340 C   0  0  0  0  0  0  0  0  0  0  0  0
  189.8080  177.2760  146.8050 C   0  0  0  0  0  0  0  0  0  0  0  0
  190.7390  176.9810  147.7510 N   0  0  0  0  0  0  0  0  0  0  0  0
  192.1400  175.9860  146.1110 C   0  0  0  0  0  3  0  0  0  0  0  0
  192.8500  176.0500  148.4460 N   0  0  0  0  0  1  0  0  0  0  0  0
  185.7000  178.2660  144.8130 C   0  0  0  0  0  3  0  0  0  0  0  0
  184.9900  178.2390  142.4970 C   0  0  0  0  0  3  0  0  0  0  0  0
  185.9330  177.9050  143.4820 C   0  0  0  0  0  0  0  0  0  0  0  0
  183.6060  179.3020  144.1740 C   0  0  0  0  0  3  0  0  0  0  0  0
  183.8310  178.9370  142.8440 C   0  0  0  0  0  3  0  0  0  0  0  0
  184.5400  178.9660  145.1590 C   0  0  0  0  0  3  0  0  0  0  0  0
  188.5880  177.5370  141.1210 C   0  0  0  0  0  2  0  0  0  0  0  0
  188.2090  178.5370  140.0390 C   0  0  0  0  0  2  0  0  0  0  0  0
  189.1730  178.4510  138.8610 C   0  0  1  0  0  3  0  0  0  0  0  0
  188.6790  177.4470  137.8580 C   0  0  0  0  0  2  0  0  0  0  0  0
  188.9710  179.5300  137.9840 O   0  0  0  0  0  0  0  0  0  0  0  0
  188.5130  178.6580  136.9820 C   0  0  0  0  0  2  0  0  0  0  0  0
  1  3  2  0  0  0  0
  2 20  1  6  0  0  0
  2  5  1  0  0  0  0
  2  1  1  0  0  0  0
  3  6  1  0  0  0  0
  4  3  1  0  0  0  0
  5 16  1  1  0  0  0
  5  4  1  0  0  0  0
  6 10  1  0  0  0  0
  7  6  2  0  0  0  0
  7 12  1  0  0  0  0
  9 11  1  0  0  0  0
  9 13  1  0  0  0  0
 10  8  1  0  0  0  0
 10 11  2  0  0  0  0
 12  9  2  0  0  0  0
 14 19  1  0  0  0  0
 15 18  2  0  0  0  0
 15 16  1  0  0  0  0
 16 14  2  0  0  0  0
 17 19  2  0  0  0  0
 18 17  1  0  0  0  0
 21 20  1  0  0  0  0
 22 21  1  1  0  0  0
 23 22  1  0  0  0  0
 24 22  1  0  0  0  0
 25 23  1  0  0  0  0
 25 24  1  0  0  0  0
M  END
>  <MODEL>
3

>  <REMARK>
 VINA RESULT:      -8.8      2.795      6.938
  Name = 
  5 active torsions:
  status: ('A' for Active; 'I' for Inactive)
    1  A    between atoms: C_1  and  C_9
    2  A    between atoms: C_4  and  C_13
    3  A    between atoms: C_8  and  C_16
    4  A    between atoms: C_13  and  C_16
    5  A    between atoms: C_17  and  C_25
                            x       y       z     vdW  Elec       q    Type
                         _______ _______ _______ _____ _____    ______ ____

>  <TORSDO>
F 5

$$$$
=
 OpenBabel10222418083D

 25 28  0  0  1  0  0  0  0  0999 V2000
  188.6590  178.5700  141.1290 N   0  0  0  0  0  0  0  0  0  0  0  0
  187.6250  178.5190  142.1550 C   0  0  2  0  0  3  0  0  0  0  0  0
  189.3390  177.4760  141.1560 C   0  0  0  0  0  0  0  0  0  0  0  0
  188.9030  176.5850  142.1160 O   0  0  0  0  0  0  0  0  0  0  0  0
  187.7960  177.1410  142.8030 C   0  0  1  0  0  3  0  0  0  0  0  0
  190.4690  177.2230  140.2420 C   0  0  0  0  0  0  0  0  0  0  0  0
  191.7390  177.4340  140.6890 N   0  0  0  0  0  0  0  0  0  0  0  0
  188.9880  176.5220  138.3870 N   0  0  0  0  0  1  0  0  0  0  0  0
  192.6340  176.7700  138.5920 C   0  0  0  0  0  0  0  0  0  0  0  0
  190.2870  176.7670  138.9190 C   0  0  0  0  0  0  0  0  0  0  0  0
  191.3760  176.5530  138.1330 N   0  0  0  0  0  0  0  0  0  0  0  0
  192.8220  177.2200  139.8970 C   0  0  0  0  0  3  0  0  0  0  0  0
  193.7540  176.5380  137.7460 N   0  0  0  0  0  1  0  0  0  0  0  0
  187.0340  177.4940  145.1550 C   0  0  0  0  0  3  0  0  0  0  0  0
  189.4050  177.2090  144.7500 C   0  0  0  0  0  3  0  0  0  0  0  0
  188.0900  177.2740  144.2650 C   0  0  0  0  0  0  0  0  0  0  0  0
  188.5960  177.5660  147.0040 C   0  0  0  0  0  3  0  0  0  0  0  0
  189.6550  177.3530  146.1180 C   0  0  0  0  0  3  0  0  0  0  0  0
  187.2860  177.6370  146.5230 C   0  0  0  0  0  3  0  0  0  0  0  0
  186.2480  178.6160  141.5150 C   0  0  0  0  0  2  0  0  0  0  0  0
  185.2750  179.3530  142.4230 C   0  0  0  0  0  2  0  0  0  0  0  0
  184.2210  178.4000  142.9740 C   0  0  1  0  0  3  0  0  0  0  0  0
  183.6980  178.9060  144.2880 C   0  0  0  0  0  2  0  0  0  0  0  0
  182.9910  178.6050  142.3270 O   0  0  0  0  0  0  0  0  0  0  0  0
  182.4170  179.0750  143.5200 C   0  0  0  0  0  2  0  0  0  0  0  0
  1  3  2  0  0  0  0
  1  2  1  0  0  0  0
  2 20  1  6  0  0  0
  2  5  1  0  0  0  0
  3  4  1  0  0  0  0
  4  5  1  0  0  0  0
  5 16  1  1  0  0  0
  6  7  1  0  0  0  0
  6  3  1  0  0  0  0
  8 10  1  0  0  0  0
  9 12  1  0  0  0  0
 10  6  2  0  0  0  0
 11  9  2  0  0  0  0
 11 10  1  0  0  0  0
 12  7  2  0  0  0  0
 13  9  1  0  0  0  0
 14 19  1  0  0  0  0
 15 18  2  0  0  0  0
 16 15  1  0  0  0  0
 16 14  2  0  0  0  0
 18 17  1  0  0  0  0
 19 17  2  0  0  0  0
 20 21  1  0  0  0  0
 22 21  1  6  0  0  0
 22 23  1  0  0  0  0
 24 22  1  0  0  0  0
 24 25  1  0  0  0  0
 25 23  1  0  0  0  0
M  END
>  <MODEL>
4

>  <REMARK>
 VINA RESULT:      -8.8      2.420      5.119
  Name = 
  5 active torsions:
  status: ('A' for Active; 'I' for Inactive)
    1  A    between atoms: C_1  and  C_9
    2  A    between atoms: C_4  and  C_13
    3  A    between atoms: C_8  and  C_16
    4  A    between atoms: C_13  and  C_16
    5  A    between atoms: C_17  and  C_25
                            x       y       z     vdW  Elec       q    Type
                         _______ _______ _______ _____ _____    ______ ____

>  <TORSDO>
F 5

$$$$
=
 OpenBabel10222418083D

 25 28  0  0  1  0  0  0  0  0999 V2000
  188.0450  178.3680  141.8940 N   0  0  0  0  0  0  0  0  0  0  0  0
  187.0350  178.2570  142.9380 C   0  0  2  0  0  3  0  0  0  0  0  0
  188.8960  177.4080  142.0220 C   0  0  0  0  0  0  0  0  0  0  0  0
  188.6120  176.5630  143.0770 O   0  0  0  0  0  0  0  0  0  0  0  0
  187.4300  177.0010  143.7230 C   0  0  1  0  0  3  0  0  0  0  0  0
  190.0500  177.2460  141.1170 C   0  0  0  0  0  0  0  0  0  0  0  0
  189.8310  176.8450  139.8340 N   0  0  0  0  0  0  0  0  0  0  0  0
  191.6790  177.9170  142.8560 N   0  0  0  0  0  1  0  0  0  0  0  0
  192.1570  176.9220  139.3660 C   0  0  0  0  0  0  0  0  0  0  0  0
  191.3770  177.4920  141.5300 C   0  0  0  0  0  0  0  0  0  0  0  0
  192.3920  177.3230  140.6410 N   0  0  0  0  0  0  0  0  0  0  0  0
  190.8500  176.6770  138.9520 C   0  0  0  0  0  3  0  0  0  0  0  0
  193.2400  176.7530  138.4590 N   0  0  0  0  0  1  0  0  0  0  0  0
  186.6740  177.8800  145.9350 C   0  0  0  0  0  3  0  0  0  0  0  0
  188.9680  177.1310  145.7230 C   0  0  0  0  0  3  0  0  0  0  0  0
  187.7000  177.3330  145.1570 C   0  0  0  0  0  0  0  0  0  0  0  0
  188.1700  178.0050  147.8350 C   0  0  0  0  0  3  0  0  0  0  0  0
  189.2000  177.4650  147.0600 C   0  0  0  0  0  3  0  0  0  0  0  0
  186.9070  178.2130  147.2730 C   0  0  0  0  0  3  0  0  0  0  0  0
  185.6600  178.0610  142.3170 C   0  0  0  0  0  2  0  0  0  0  0  0
  185.2230  179.3030  141.5560 C   0  0  0  0  0  2  0  0  0  0  0  0
  184.9180  178.9660  140.1010 C   0  0  1  0  0  3  0  0  0  0  0  0
  183.5430  178.3740  139.9810 C   0  0  0  0  0  2  0  0  0  0  0  0
  184.5550  180.1260  139.3960 O   0  0  0  0  0  0  0  0  0  0  0  0
  183.2490  179.6390  139.2230 C   0  0  0  0  0  2  0  0  0  0  0  0
  1  3  2  0  0  0  0
  1  2  1  0  0  0  0
  2 20  1  6  0  0  0
  2  5  1  0  0  0  0
  3  4  1  0  0  0  0
  4  5  1  0  0  0  0
  5 16  1  1  0  0  0
  6 10  1  0  0  0  0
  6  3  1  0  0  0  0
  7  6  2  0  0  0  0
  9 11  1  0  0  0  0
 10  8  1  0  0  0  0
 11 10  2  0  0  0  0
 12  9  2  0  0  0  0
 12  7  1  0  0  0  0
 13  9  1  0  0  0  0
 14 19  1  0  0  0  0
 15 18  2  0  0  0  0
 16 15  1  0  0  0  0
 16 14  2  0  0  0  0
 18 17  1  0  0  0  0
 19 17  2  0  0  0  0
 21 20  1  0  0  0  0
 22 21  1  1  0  0  0
 23 22  1  0  0  0  0
 24 22  1  0  0  0  0
 25 24  1  0  0  0  0
 25 23  1  0  0  0  0
M  END
>  <MODEL>
5

>  <REMARK>
 VINA RESULT:      -8.7      2.558      5.675
  Name = 
  5 active torsions:
  status: ('A' for Active; 'I' for Inactive)
    1  A    between atoms: C_1  and  C_9
    2  A    between atoms: C_4  and  C_13
    3  A    between atoms: C_8  and  C_16
    4  A    between atoms: C_13  and  C_16
    5  A    between atoms: C_17  and  C_25
                            x       y       z     vdW  Elec       q    Type
                         _______ _______ _______ _____ _____    ______ ____

>  <TORSDO>
F 5

$$$$
=
 OpenBabel10222418083D

 25 28  0  0  1  0  0  0  0  0999 V2000
  188.2170  176.6850  144.0260 N   0  0  0  0  0  0  0  0  0  0  0  0
  187.5660  177.2210  142.8380 C   0  0  2  0  0  3  0  0  0  0  0  0
  189.3750  177.2340  144.1590 C   0  0  0  0  0  0  0  0  0  0  0  0
  189.6610  178.1560  143.1720 O   0  0  0  0  0  0  0  0  0  0  0  0
  188.5620  178.2430  142.2810 C   0  0  1  0  0  3  0  0  0  0  0  0
  190.2900  176.8950  145.2670 C   0  0  0  0  0  0  0  0  0  0  0  0
  190.0000  177.3420  146.5210 N   0  0  0  0  0  0  0  0  0  0  0  0
  191.8200  175.6220  143.7950 N   0  0  0  0  0  1  0  0  0  0  0  0
  191.9500  176.3030  147.3900 C   0  0  0  0  0  0  0  0  0  0  0  0
  191.4570  176.1240  145.0790 C   0  0  0  0  0  0  0  0  0  0  0  0
  192.2520  175.8510  146.1460 N   0  0  0  0  0  0  0  0  0  0  0  0
  190.8000  177.0650  147.5830 C   0  0  0  0  0  3  0  0  0  0  0  0
  192.8030  176.0020  148.4870 N   0  0  0  0  0  1  0  0  0  0  0  0
  188.1630  178.2550  139.8160 C   0  0  0  0  0  3  0  0  0  0  0  0
  190.1490  177.1450  140.6490 C   0  0  0  0  0  3  0  0  0  0  0  0
  188.9760  177.8790  140.8900 C   0  0  0  0  0  0  0  0  0  0  0  0
  189.6920  177.1860  138.2720 C   0  0  0  0  0  3  0  0  0  0  0  0
  190.5050  176.8020  139.3420 C   0  0  0  0  0  3  0  0  0  0  0  0
  188.5210  177.9120  138.5090 C   0  0  0  0  0  3  0  0  0  0  0  0
  186.2720  177.9250  143.2230 C   0  0  0  0  0  2  0  0  0  0  0  0
  186.0560  177.8860  144.7280 C   0  0  0  0  0  2  0  0  0  0  0  0
  185.2100  179.0700  145.1830 C   0  0  1  0  0  3  0  0  0  0  0  0
  184.2540  179.4740  144.0970 C   0  0  0  0  0  2  0  0  0  0  0  0
  184.1750  178.6340  146.0270 O   0  0  0  0  0  0  0  0  0  0  0  0
  183.2120  179.0010  145.0720 C   0  0  0  0  0  2  0  0  0  0  0  0
  1  3  2  0  0  0  0
  2 20  1  1  0  0  0
  2  1  1  0  0  0  0
  3  6  1  0  0  0  0
  4  3  1  0  0  0  0
  5 16  1  6  0  0  0
  5  2  1  0  0  0  0
  5  4  1  0  0  0  0
  6  7  1  0  0  0  0
  7 12  2  0  0  0  0
  8 10  1  0  0  0  0
  9 12  1  0  0  0  0
  9 13  1  0  0  0  0
 10  6  2  0  0  0  0
 10 11  1  0  0  0  0
 11  9  2  0  0  0  0
 14 16  1  0  0  0  0
 15 16  2  0  0  0  0
 17 19  1  0  0  0  0
 17 18  2  0  0  0  0
 18 15  1  0  0  0  0
 19 14  2  0  0  0  0
 20 21  1  0  0  0  0
 22 21  1  6  0  0  0
 22 24  1  0  0  0  0
 23 25  1  0  0  0  0
 23 22  1  0  0  0  0
 25 24  1  0  0  0  0
M  END
>  <MODEL>
6

>  <REMARK>
 VINA RESULT:      -8.5      2.839      7.154
  Name = 
  5 active torsions:
  status: ('A' for Active; 'I' for Inactive)
    1  A    between atoms: C_1  and  C_9
    2  A    between atoms: C_4  and  C_13
    3  A    between atoms: C_8  and  C_16
    4  A    between atoms: C_13  and  C_16
    5  A    between atoms: C_17  and  C_25
                            x       y       z     vdW  Elec       q    Type
                         _______ _______ _______ _____ _____    ______ ____

>  <TORSDO>
F 5

$$$$
=
 OpenBabel10222418083D

 25 28  0  0  1  0  0  0  0  0999 V2000
  188.8270  176.3620  142.6800 N   0  0  0  0  0  0  0  0  0  0  0  0
  188.3630  176.7390  144.0080 C   0  0  2  0  0  3  0  0  0  0  0  0
  188.6830  177.3620  141.8800 C   0  0  0  0  0  0  0  0  0  0  0  0
  188.1540  178.4810  142.4930 O   0  0  0  0  0  0  0  0  0  0  0  0
  187.9280  178.2010  143.8630 C   0  0  1  0  0  3  0  0  0  0  0  0
  189.0550  177.2960  140.4530 C   0  0  0  0  0  0  0  0  0  0  0  0
  190.1830  176.6200  140.0970 N   0  0  0  0  0  0  0  0  0  0  0  0
  187.0940  178.6260  139.7400 N   0  0  0  0  0  1  0  0  0  0  0  0
  189.8160  177.1270  137.8070 C   0  0  0  0  0  0  0  0  0  0  0  0
  188.2860  177.9060  139.4400 C   0  0  0  0  0  0  0  0  0  0  0  0
  188.6900  177.8030  138.1460 N   0  0  0  0  0  0  0  0  0  0  0  0
  190.5810  176.5220  138.8020 C   0  0  0  0  0  3  0  0  0  0  0  0
  190.2140  177.0370  136.4440 N   0  0  0  0  0  1  0  0  0  0  0  0
  185.5400  178.4400  143.1750 C   0  0  0  0  0  3  0  0  0  0  0  0
  186.0560  178.4620  145.5410 C   0  0  0  0  0  3  0  0  0  0  0  0
  186.4800  178.3610  144.2070 C   0  0  0  0  0  0  0  0  0  0  0  0
  183.7640  178.7000  144.8000 C   0  0  0  0  0  3  0  0  0  0  0  0
  184.7010  178.6290  145.8350 C   0  0  0  0  0  3  0  0  0  0  0  0
  184.1830  178.6070  143.4700 C   0  0  0  0  0  3  0  0  0  0  0  0
  189.5060  176.6420  145.0090 C   0  0  0  0  0  2  0  0  0  0  0  0
  189.5630  177.8770  145.8950 C   0  0  0  0  0  2  0  0  0  0  0  0
  189.6030  177.4840  147.3670 C   0  0  1  0  0  3  0  0  0  0  0  0
  188.9560  178.5490  148.2070 C   0  0  0  0  0  2  0  0  0  0  0  0
  188.5930  176.5490  147.6520 O   0  0  0  0  0  0  0  0  0  0  0  0
  187.9310  177.4800  148.4700 C   0  0  0  0  0  2  0  0  0  0  0  0
  1  2  1  0  0  0  0
  2 20  1  1  0  0  0
  3  4  1  0  0  0  0
  3  1  2  0  0  0  0
  4  5  1  0  0  0  0
  5  2  1  0  0  0  0
  5 16  1  6  0  0  0
  6  3  1  0  0  0  0
  7  6  1  0  0  0  0
  9 11  2  0  0  0  0
  9 12  1  0  0  0  0
 10  8  1  0  0  0  0
 10  6  2  0  0  0  0
 11 10  1  0  0  0  0
 12  7  2  0  0  0  0
 13  9  1  0  0  0  0
 14 19  2  0  0  0  0
 14 16  1  0  0  0  0
 15 18  1  0  0  0  0
 16 15  2  0  0  0  0
 17 18  2  0  0  0  0
 19 17  1  0  0  0  0
 20 21  1  0  0  0  0
 22 21  1  6  0  0  0
 22 24  1  0  0  0  0
 22 23  1  0  0  0  0
 23 25  1  0  0  0  0
 24 25  1  0  0  0  0
M  END
>  <MODEL>
7

>  <REMARK>
 VINA RESULT:      -8.3      1.703      2.230
  Name = 
  5 active torsions:
  status: ('A' for Active; 'I' for Inactive)
    1  A    between atoms: C_1  and  C_9
    2  A    between atoms: C_4  and  C_13
    3  A    between atoms: C_8  and  C_16
    4  A    between atoms: C_13  and  C_16
    5  A    between atoms: C_17  and  C_25
                            x       y       z     vdW  Elec       q    Type
                         _______ _______ _______ _____ _____    ______ ____

>  <TORSDO>
F 5

$$$$
=
 OpenBabel10222418083D

 25 28  0  0  1  0  0  0  0  0999 V2000
  189.3710  178.0200  143.4220 N   0  0  0  0  0  0  0  0  0  0  0  0
  188.1900  178.1380  142.5780 C   0  0  2  0  0  3  0  0  0  0  0  0
  189.1280  177.1940  144.3800 C   0  0  0  0  0  0  0  0  0  0  0  0
  187.8540  176.6610  144.3330 O   0  0  0  0  0  0  0  0  0  0  0  0
  187.1710  177.1820  143.2060 C   0  0  1  0  0  3  0  0  0  0  0  0
  190.1260  176.8630  145.4160 C   0  0  0  0  0  0  0  0  0  0  0  0
  189.9260  177.3060  146.6890 N   0  0  0  0  0  0  0  0  0  0  0  0
  191.5530  175.6070  143.8320 N   0  0  0  0  0  1  0  0  0  0  0  0
  191.9460  176.2860  147.4080 C   0  0  0  0  0  0  0  0  0  0  0  0
  191.2820  176.1040  145.1400 C   0  0  0  0  0  0  0  0  0  0  0  0
  192.1580  175.8370  146.1440 N   0  0  0  0  0  0  0  0  0  0  0  0
  190.8060  177.0370  147.6870 C   0  0  0  0  0  3  0  0  0  0  0  0
  192.8810  175.9920  148.4380 N   0  0  0  0  0  1  0  0  0  0  0  0
  185.7790  178.2690  144.9720 C   0  0  0  0  0  3  0  0  0  0  0  0
  184.9320  178.2420  142.7030 C   0  0  0  0  0  3  0  0  0  0  0  0
  185.9380  177.9200  143.6270 C   0  0  0  0  0  0  0  0  0  0  0  0
  183.6310  179.2680  144.4680 C   0  0  0  0  0  3  0  0  0  0  0  0
  183.7830  178.9160  143.1240 C   0  0  0  0  0  3  0  0  0  0  0  0
  184.6290  178.9440  145.3920 C   0  0  0  0  0  3  0  0  0  0  0  0
  188.5110  177.6840  141.1610 C   0  0  0  0  0  2  0  0  0  0  0  0
  189.8730  177.0090  141.0990 C   0  0  0  0  0  2  0  0  0  0  0  0
  190.7580  177.6710  140.0500 C   0  0  1  0  0  3  0  0  0  0  0  0
  192.2070  177.5030  140.4120 C   0  0  0  0  0  2  0  0  0  0  0  0
  190.8740  176.8480  138.9180 O   0  0  0  0  0  0  0  0  0  0  0  0
  192.2410  176.6510  139.1730 C   0  0  0  0  0  2  0  0  0  0  0  0
  1  3  2  0  0  0  0
  2 20  1  6  0  0  0
  2  5  1  0  0  0  0
  2  1  1  0  0  0  0
  3  6  1  0  0  0  0
  4  3  1  0  0  0  0
  5 16  1  1  0  0  0
  5  4  1  0  0  0  0
  6  7  1  0  0  0  0
  7 12  2  0  0  0  0
  8 10  1  0  0  0  0
  9 12  1  0  0  0  0
  9 13  1  0  0  0  0
 10  6  2  0  0  0  0
 10 11  1  0  0  0  0
 11  9  2  0  0  0  0
 14 19  1  0  0  0  0
 15 18  2  0  0  0  0
 15 16  1  0  0  0  0
 16 14  2  0  0  0  0
 17 19  2  0  0  0  0
 18 17  1  0  0  0  0
 21 20  1  0  0  0  0
 22 23  1  0  0  0  0
 22 21  1  1  0  0  0
 24 25  1  0  0  0  0
 24 22  1  0  0  0  0
 25 23  1  0  0  0  0
M  END
>  <MODEL>
8

>  <REMARK>
 VINA RESULT:      -8.2      2.753      6.358
  Name = 
  5 active torsions:
  status: ('A' for Active; 'I' for Inactive)
    1  A    between atoms: C_1  and  C_9
    2  A    between atoms: C_4  and  C_13
    3  A    between atoms: C_8  and  C_16
    4  A    between atoms: C_13  and  C_16
    5  A    between atoms: C_17  and  C_25
                            x       y       z     vdW  Elec       q    Type
                         _______ _______ _______ _____ _____    ______ ____

>  <TORSDO>
F 5

$$$$
=
 OpenBabel10222418083D

 25 28  0  0  1  0  0  0  0  0999 V2000
  188.1350  178.1870  141.8340 N   0  0  0  0  0  0  0  0  0  0  0  0
  187.7900  177.9900  143.2350 C   0  0  2  0  0  3  0  0  0  0  0  0
  188.8330  177.1850  141.4230 C   0  0  0  0  0  0  0  0  0  0  0  0
  189.0430  176.2290  142.3970 O   0  0  0  0  0  0  0  0  0  0  0  0
  188.4020  176.6320  143.5950 C   0  0  1  0  0  3  0  0  0  0  0  0
  189.3470  177.0890  140.0430 C   0  0  0  0  0  0  0  0  0  0  0  0
  188.4590  176.9710  139.0160 N   0  0  0  0  0  0  0  0  0  0  0  0
  191.7090  177.2400  140.7660 N   0  0  0  0  0  1  0  0  0  0  0  0
  190.2290  176.9050  137.4350 C   0  0  0  0  0  0  0  0  0  0  0  0
  190.7250  177.1160  139.7430 C   0  0  0  0  0  0  0  0  0  0  0  0
  191.1250  177.0230  138.4470 N   0  0  0  0  0  0  0  0  0  0  0  0
  188.8660  176.8780  137.7240 C   0  0  0  0  0  3  0  0  0  0  0  0
  190.6780  176.8100  136.0890 N   0  0  0  0  0  1  0  0  0  0  0  0
  188.9410  177.1180  145.9850 C   0  0  0  0  0  3  0  0  0  0  0  0
  190.7680  176.5930  144.4820 C   0  0  0  0  0  3  0  0  0  0  0  0
  189.3940  176.7730  144.7070 C   0  0  0  0  0  0  0  0  0  0  0  0
  191.2170  177.0860  146.8100 C   0  0  0  0  0  3  0  0  0  0  0  0
  191.6750  176.7470  145.5330 C   0  0  0  0  0  3  0  0  0  0  0  0
  189.8500  177.2710  147.0350 C   0  0  0  0  0  3  0  0  0  0  0  0
  186.2780  177.9280  143.3980 C   0  0  0  0  0  2  0  0  0  0  0  0
  185.8700  178.2290  144.8330 C   0  0  0  0  0  2  0  0  0  0  0  0
  184.8270  179.3390  144.8780 C   0  0  1  0  0  3  0  0  0  0  0  0
  183.9240  179.2530  143.6800 C   0  0  0  0  0  2  0  0  0  0  0  0
  183.7930  179.0020  145.7670 O   0  0  0  0  0  0  0  0  0  0  0  0
  182.8770  178.9170  144.7050 C   0  0  0  0  0  2  0  0  0  0  0  0
  1  2  1  0  0  0  0
  2 20  1  6  0  0  0
  2  5  1  0  0  0  0
  3  1  2  0  0  0  0
  3  4  1  0  0  0  0
  4  5  1  0  0  0  0
  5 16  1  1  0  0  0
  6  3  1  0  0  0  0
  7  6  2  0  0  0  0
  9 12  2  0  0  0  0
  9 11  1  0  0  0  0
 10  6  1  0  0  0  0
 10  8  1  0  0  0  0
 11 10  2  0  0  0  0
 12  7  1  0  0  0  0
 13  9  1  0  0  0  0
 14 19  1  0  0  0  0
 15 16  1  0  0  0  0
 15 18  2  0  0  0  0
 16 14  2  0  0  0  0
 17 19  2  0  0  0  0
 18 17  1  0  0  0  0
 20 21  1  0  0  0  0
 22 21  1  6  0  0  0
 22 24  1  0  0  0  0
 23 25  1  0  0  0  0
 23 22  1  0  0  0  0
 25 24  1  0  0  0  0
M  END
>  <MODEL>
9

>  <REMARK>
 VINA RESULT:      -8.2      1.953      4.831
  Name = 
  5 active torsions:
  status: ('A' for Active; 'I' for Inactive)
    1  A    between atoms: C_1  and  C_9
    2  A    between atoms: C_4  and  C_13
    3  A    between atoms: C_8  and  C_16
    4  A    between atoms: C_13  and  C_16
    5  A    between atoms: C_17  and  C_25
                            x       y       z     vdW  Elec       q    Type
                         _______ _______ _______ _____ _____    ______ ____

>  <TORSDO>
F 5

$$$$
