=
 OpenBabel10222420053D

 27 29  0  0  1  0  0  0  0  0999 V2000
  189.0710  177.7520  141.6910 C   0  0  1  0  0  3  0  0  0  0  0  0
  187.8220  177.1290  142.1010 N   0  0  0  0  0  2  0  0  0  0  0  0
  185.4380  178.5770  144.5010 C   0  0  0  0  0  0  0  0  0  0  0  0
  186.7830  177.8480  142.7660 C   0  0  0  0  0  0  0  0  0  0  0  0
  185.6820  178.8870  142.0410 S   0  0  0  0  0  0  0  0  0  0  0  0
  184.8460  179.2820  143.4490 C   0  0  0  0  0  3  0  0  0  0  0  0
  186.5290  177.7770  144.1220 C   0  0  0  0  0  3  0  0  0  0  0  0
  183.7440  178.9820  146.0960 O   0  0  0  0  0  0  0  0  0  0  0  0
  184.9580  178.7120  145.8950 C   0  0  0  0  0  0  0  0  0  0  0  0
  185.8140  178.5560  147.0370 N   0  0  0  0  0  2  0  0  0  0  0  0
  187.1630  178.0050  147.0150 C   0  0  0  0  0  2  0  0  0  0  0  0
  187.7810  178.0490  148.4030 C   0  0  0  0  0  2  0  0  0  0  0  0
  189.2930  178.0230  148.3080 C   0  0  0  0  0  1  0  0  0  0  0  0
  190.0620  176.7220  141.4150 N   0  0  0  0  0  2  0  0  0  0  0  0
  191.2470  177.1340  141.9880 O   0  0  0  0  0  0  0  0  0  0  0  0
  191.3110  179.4820  143.9510 O   0  0  0  0  0  0  0  0  0  0  0  0
  191.6100  176.0580  144.0590 N   0  0  0  0  0  0  0  0  0  0  0  0
  191.7450  176.5100  145.4160 C   0  0  0  0  0  0  0  0  0  0  0  0
  191.6520  177.7950  145.5790 N   0  0  0  0  0  0  0  0  0  0  0  0
  191.4410  178.2700  144.2620 C   0  0  0  0  0  0  0  0  0  0  0  0
  191.4250  177.1330  143.3720 C   0  0  0  0  0  0  0  0  0  0  0  0
  191.9720  175.5790  146.5520 C   0  0  0  0  0  1  0  0  0  0  0  0
  188.8440  178.5880  140.4420 C   0  0  0  0  0  2  0  0  0  0  0  0
  187.2710  178.0430  138.6150 C   0  0  0  0  0  2  0  0  0  0  0  0
  187.8780  178.6530  137.4400 N   0  0  0  0  0  2  0  0  0  0  0  0
  189.1860  178.3350  137.9940 C   0  0  0  0  0  2  0  0  0  0  0  0
  188.6030  177.6990  139.2340 C   0  0  0  0  0  3  0  0  0  0  0  0
  1 23  1  6  0  0  0
  1  2  1  0  0  0  0
  2  4  1  0  0  0  0
  3  9  1  0  0  0  0
  4  7  2  0  0  0  0
  5  4  1  0  0  0  0
  5  6  1  0  0  0  0
  6  3  2  0  0  0  0
  7  3  1  0  0  0  0
  9  8  2  0  0  0  0
  9 10  1  0  0  0  0
 11 10  1  0  0  0  0
 11 12  1  0  0  0  0
 13 12  1  0  0  0  0
 14  1  1  0  0  0  0
 14 15  1  0  0  0  0
 15 21  1  0  0  0  0
 16 20  2  0  0  0  0
 17 18  1  0  0  0  0
 18 19  2  0  0  0  0
 18 22  1  0  0  0  0
 20 19  1  0  0  0  0
 21 17  2  0  0  0  0
 21 20  1  0  0  0  0
 24 27  1  0  0  0  0
 25 26  1  0  0  0  0
 25 24  1  0  0  0  0
 26 27  1  0  0  0  0
 27 23  1  0  0  0  0
M  END
>  <MODEL>
1

>  <REMARK>
 VINA RESULT:      -7.7      0.000      0.000
  Name = 
  10 active torsions:
  status: ('A' for Active; 'I' for Inactive)
    1  A    between atoms: N_2  and  C_7
    2  A    between atoms: N_2  and  C_15
    3  A    between atoms: O_6  and  N_19
    4  A    between atoms: O_6  and  C_23
    5  A    between atoms: C_7  and  N_19
    6  A    between atoms: C_7  and  C_21
    7  A    between atoms: C_8  and  C_10
    8  A    between atoms: C_10  and  N_18
    9  A    between atoms: C_11  and  C_13
   10  A    between atoms: C_21  and  C_26
                            x       y       z     vdW  Elec       q    Type
                         _______ _______ _______ _____ _____    ______ ____

>  <TORSDO>
F 10

$$$$
=
 OpenBabel10222420053D

 27 29  0  0  1  0  0  0  0  0999 V2000
  186.8010  178.3260  142.2800 C   0  0  1  0  0  3  0  0  0  0  0  0
  187.6540  177.2500  142.7600 N   0  0  0  0  0  2  0  0  0  0  0  0
  190.3670  177.3000  145.2470 C   0  0  0  0  0  0  0  0  0  0  0  0
  188.8410  177.4870  143.5170 C   0  0  0  0  0  0  0  0  0  0  0  0
  190.0680  178.5610  143.1190 S   0  0  0  0  0  0  0  0  0  0  0  0
  191.0280  178.2550  144.4680 C   0  0  0  0  0  3  0  0  0  0  0  0
  189.1430  176.8630  144.7120 C   0  0  0  0  0  3  0  0  0  0  0  0
  191.9160  175.9760  146.4410 O   0  0  0  0  0  0  0  0  0  0  0  0
  190.9510  176.7830  146.5050 C   0  0  0  0  0  0  0  0  0  0  0  0
  190.4630  177.1520  147.8040 N   0  0  0  0  0  2  0  0  0  0  0  0
  189.5390  178.2440  148.0830 C   0  0  0  0  0  2  0  0  0  0  0  0
  188.2050  177.7030  148.5710 C   0  0  0  0  0  2  0  0  0  0  0  0
  187.1130  178.0070  147.5650 C   0  0  0  0  0  1  0  0  0  0  0  0
  186.7970  178.3310  140.8250 N   0  0  0  0  0  2  0  0  0  0  0  0
  188.0030  178.8600  140.4160 O   0  0  0  0  0  0  0  0  0  0  0  0
  188.6760  179.7190  137.5560 O   0  0  0  0  0  0  0  0  0  0  0  0
  189.3760  177.0930  139.6620 N   0  0  0  0  0  0  0  0  0  0  0  0
  190.0640  176.8090  138.4340 C   0  0  0  0  0  0  0  0  0  0  0  0
  189.9220  177.7050  137.5050 N   0  0  0  0  0  0  0  0  0  0  0  0
  189.0860  178.6700  138.1160 C   0  0  0  0  0  0  0  0  0  0  0  0
  188.7890  178.2220  139.4570 C   0  0  0  0  0  0  0  0  0  0  0  0
  190.8810  175.5830  138.2370 C   0  0  0  0  0  1  0  0  0  0  0  0
  185.3850  178.1280  142.7930 C   0  0  0  0  0  2  0  0  0  0  0  0
  183.4250  179.2270  143.8250 C   0  0  0  0  0  2  0  0  0  0  0  0
  183.6490  179.0650  145.2550 N   0  0  0  0  0  2  0  0  0  0  0  0
  185.0770  179.2040  145.0120 C   0  0  0  0  0  2  0  0  0  0  0  0
  184.8960  179.3700  143.5210 C   0  0  0  0  0  3  0  0  0  0  0  0
  1  2  1  0  0  0  0
  1 23  1  1  0  0  0
  2  4  1  0  0  0  0
  3  9  1  0  0  0  0
  4  7  2  0  0  0  0
  5  4  1  0  0  0  0
  5  6  1  0  0  0  0
  6  3  2  0  0  0  0
  7  3  1  0  0  0  0
  8  9  2  0  0  0  0
  9 10  1  0  0  0  0
 10 11  1  0  0  0  0
 11 12  1  0  0  0  0
 13 12  1  0  0  0  0
 14  1  1  0  0  0  0
 15 14  1  0  0  0  0
 16 20  2  0  0  0  0
 18 17  1  0  0  0  0
 19 20  1  0  0  0  0
 19 18  2  0  0  0  0
 20 21  1  0  0  0  0
 21 17  2  0  0  0  0
 21 15  1  0  0  0  0
 22 18  1  0  0  0  0
 23 27  1  0  0  0  0
 24 25  1  0  0  0  0
 26 25  1  0  0  0  0
 27 24  1  0  0  0  0
 27 26  1  0  0  0  0
M  END
>  <MODEL>
2

>  <REMARK>
 VINA RESULT:      -7.7      2.495      5.647
  Name = 
  10 active torsions:
  status: ('A' for Active; 'I' for Inactive)
    1  A    between atoms: N_2  and  C_7
    2  A    between atoms: N_2  and  C_15
    3  A    between atoms: O_6  and  N_19
    4  A    between atoms: O_6  and  C_23
    5  A    between atoms: C_7  and  N_19
    6  A    between atoms: C_7  and  C_21
    7  A    between atoms: C_8  and  C_10
    8  A    between atoms: C_10  and  N_18
    9  A    between atoms: C_11  and  C_13
   10  A    between atoms: C_21  and  C_26
                            x       y       z     vdW  Elec       q    Type
                         _______ _______ _______ _____ _____    ______ ____

>  <TORSDO>
F 10

$$$$
=
 OpenBabel10222420053D

 27 29  0  0  1  0  0  0  0  0999 V2000
  189.1270  176.9620  142.6900 C   0  0  1  0  0  3  0  0  0  0  0  0
  187.8560  177.2460  142.0390 N   0  0  0  0  0  2  0  0  0  0  0  0
  185.3870  178.6370  144.3870 C   0  0  0  0  0  0  0  0  0  0  0  0
  186.8010  177.9580  142.6860 C   0  0  0  0  0  0  0  0  0  0  0  0
  185.7580  179.0530  141.9580 S   0  0  0  0  0  0  0  0  0  0  0  0
  184.8620  179.4020  143.3400 C   0  0  0  0  0  3  0  0  0  0  0  0
  186.4800  177.8310  144.0230 C   0  0  0  0  0  3  0  0  0  0  0  0
  183.6110  178.9340  145.9140 O   0  0  0  0  0  0  0  0  0  0  0  0
  184.8430  178.7200  145.7610 C   0  0  0  0  0  0  0  0  0  0  0  0
  185.6550  178.5740  146.9350 N   0  0  0  0  0  2  0  0  0  0  0  0
  187.0270  178.0810  146.9610 C   0  0  0  0  0  2  0  0  0  0  0  0
  187.6670  178.3540  148.3120 C   0  0  0  0  0  2  0  0  0  0  0  0
  189.1450  178.0240  148.2710 C   0  0  0  0  0  1  0  0  0  0  0  0
  189.9390  176.1210  141.8240 N   0  0  0  0  0  2  0  0  0  0  0  0
  190.6210  176.9590  140.9670 O   0  0  0  0  0  0  0  0  0  0  0  0
  189.0050  178.8580  139.1920 O   0  0  0  0  0  0  0  0  0  0  0  0
  190.8870  176.0050  138.8230 N   0  0  0  0  0  0  0  0  0  0  0  0
  190.4250  176.3460  137.5070 C   0  0  0  0  0  0  0  0  0  0  0  0
  189.6920  177.4160  137.4420 N   0  0  0  0  0  0  0  0  0  0  0  0
  189.6370  177.8470  138.7890 C   0  0  0  0  0  0  0  0  0  0  0  0
  190.4050  176.9210  139.5890 C   0  0  0  0  0  0  0  0  0  0  0  0
  190.7600  175.5390  136.3040 C   0  0  0  0  0  1  0  0  0  0  0  0
  189.8610  178.2620  142.9750 C   0  0  0  0  0  2  0  0  0  0  0  0
  190.1430  177.0070  145.0860 C   0  0  0  0  0  2  0  0  0  0  0  0
  191.5880  176.9200  145.2480 N   0  0  0  0  0  2  0  0  0  0  0  0
  191.7000  178.2400  144.6460 C   0  0  0  0  0  2  0  0  0  0  0  0
  190.2080  178.3730  144.4500 C   0  0  0  0  0  3  0  0  0  0  0  0
  1 23  1  6  0  0  0
  2  4  1  0  0  0  0
  2  1  1  0  0  0  0
  3  9  1  0  0  0  0
  4  7  2  0  0  0  0
  5  4  1  0  0  0  0
  5  6  1  0  0  0  0
  6  3  2  0  0  0  0
  7  3  1  0  0  0  0
  9  8  2  0  0  0  0
  9 10  1  0  0  0  0
 10 11  1  0  0  0  0
 11 12  1  0  0  0  0
 13 12  1  0  0  0  0
 14  1  1  0  0  0  0
 15 14  1  0  0  0  0
 17 21  2  0  0  0  0
 18 17  1  0  0  0  0
 19 18  2  0  0  0  0
 19 20  1  0  0  0  0
 20 16  2  0  0  0  0
 20 21  1  0  0  0  0
 21 15  1  0  0  0  0
 22 18  1  0  0  0  0
 23 27  1  0  0  0  0
 24 25  1  0  0  0  0
 26 25  1  0  0  0  0
 27 26  1  0  0  0  0
 27 24  1  0  0  0  0
M  END
>  <MODEL>
3

>  <REMARK>
 VINA RESULT:      -7.6      1.547      4.584
  Name = 
  10 active torsions:
  status: ('A' for Active; 'I' for Inactive)
    1  A    between atoms: N_2  and  C_7
    2  A    between atoms: N_2  and  C_15
    3  A    between atoms: O_6  and  N_19
    4  A    between atoms: O_6  and  C_23
    5  A    between atoms: C_7  and  N_19
    6  A    between atoms: C_7  and  C_21
    7  A    between atoms: C_8  and  C_10
    8  A    between atoms: C_10  and  N_18
    9  A    between atoms: C_11  and  C_13
   10  A    between atoms: C_21  and  C_26
                            x       y       z     vdW  Elec       q    Type
                         _______ _______ _______ _____ _____    ______ ____

>  <TORSDO>
F 10

$$$$
=
 OpenBabel10222420053D

 27 29  0  0  1  0  0  0  0  0999 V2000
  189.4000  177.7030  142.2070 C   0  0  1  0  0  3  0  0  0  0  0  0
  188.1370  177.1040  142.6140 N   0  0  0  0  0  2  0  0  0  0  0  0
  184.9580  178.6550  143.6280 C   0  0  0  0  0  0  0  0  0  0  0  0
  186.9250  177.8520  142.7130 C   0  0  0  0  0  0  0  0  0  0  0  0
  186.2880  178.8590  141.5310 S   0  0  0  0  0  0  0  0  0  0  0  0
  184.9170  179.3140  142.3960 C   0  0  0  0  0  3  0  0  0  0  0  0
  186.0880  177.8380  143.8110 C   0  0  0  0  0  3  0  0  0  0  0  0
  184.2480  179.0050  145.8530 O   0  0  0  0  0  0  0  0  0  0  0  0
  183.9060  178.8490  144.6510 C   0  0  0  0  0  0  0  0  0  0  0  0
  182.5040  178.8620  144.3390 N   0  0  0  0  0  2  0  0  0  0  0  0
  181.9350  178.9490  143.0000 C   0  0  0  0  0  2  0  0  0  0  0  0
  180.4350  179.1850  143.0720 C   0  0  0  0  0  2  0  0  0  0  0  0
  179.8390  178.4380  144.2480 C   0  0  0  0  0  1  0  0  0  0  0  0
  190.1610  178.0820  143.3870 N   0  0  0  0  0  2  0  0  0  0  0  0
  190.1430  177.0030  144.2460 O   0  0  0  0  0  0  0  0  0  0  0  0
  192.1420  176.4750  146.5030 O   0  0  0  0  0  0  0  0  0  0  0  0
  188.9100  177.5990  146.1710 N   0  0  0  0  0  0  0  0  0  0  0  0
  189.1930  177.6200  147.5790 C   0  0  0  0  0  0  0  0  0  0  0  0
  190.3880  177.2290  147.9050 N   0  0  0  0  0  0  0  0  0  0  0  0
  190.9740  176.9160  146.6550 C   0  0  0  0  0  0  0  0  0  0  0  0
  189.9960  177.1730  145.6230 C   0  0  0  0  0  0  0  0  0  0  0  0
  188.1960  178.0580  148.5910 C   0  0  0  0  0  1  0  0  0  0  0  0
  190.1990  176.7100  141.3810 C   0  0  0  0  0  2  0  0  0  0  0  0
  190.5030  176.3140  138.9590 C   0  0  0  0  0  2  0  0  0  0  0  0
  189.3720  177.0000  138.3500 N   0  0  0  0  0  2  0  0  0  0  0  0
  189.4680  178.0100  139.3940 C   0  0  0  0  0  2  0  0  0  0  0  0
  190.6380  177.3320  140.0650 C   0  0  0  0  0  3  0  0  0  0  0  0
  1 23  1  1  0  0  0
  1  2  1  0  0  0  0
  1 14  1  0  0  0  0
  2  4  1  0  0  0  0
  3  7  1  0  0  0  0
  3  9  1  0  0  0  0
  4  7  2  0  0  0  0
  5  6  1  0  0  0  0
  5  4  1  0  0  0  0
  6  3  2  0  0  0  0
  9  8  2  0  0  0  0
 10  9  1  0  0  0  0
 11 12  1  0  0  0  0
 11 10  1  0  0  0  0
 12 13  1  0  0  0  0
 14 15  1  0  0  0  0
 15 21  1  0  0  0  0
 16 20  2  0  0  0  0
 17 18  1  0  0  0  0
 18 19  2  0  0  0  0
 18 22  1  0  0  0  0
 20 19  1  0  0  0  0
 21 17  2  0  0  0  0
 21 20  1  0  0  0  0
 24 27  1  0  0  0  0
 25 24  1  0  0  0  0
 25 26  1  0  0  0  0
 26 27  1  0  0  0  0
 27 23  1  0  0  0  0
M  END
>  <MODEL>
4

>  <REMARK>
 VINA RESULT:      -7.5      2.350      3.818
  Name = 
  10 active torsions:
  status: ('A' for Active; 'I' for Inactive)
    1  A    between atoms: N_2  and  C_7
    2  A    between atoms: N_2  and  C_15
    3  A    between atoms: O_6  and  N_19
    4  A    between atoms: O_6  and  C_23
    5  A    between atoms: C_7  and  N_19
    6  A    between atoms: C_7  and  C_21
    7  A    between atoms: C_8  and  C_10
    8  A    between atoms: C_10  and  N_18
    9  A    between atoms: C_11  and  C_13
   10  A    between atoms: C_21  and  C_26
                            x       y       z     vdW  Elec       q    Type
                         _______ _______ _______ _____ _____    ______ ____

>  <TORSDO>
F 10

$$$$
=
 OpenBabel10222420053D

 27 29  0  0  1  0  0  0  0  0999 V2000
  185.2740  178.9010  142.2670 C   0  0  1  0  0  3  0  0  0  0  0  0
  185.9260  177.8940  143.0910 N   0  0  0  0  0  2  0  0  0  0  0  0
  187.1820  177.8770  146.5500 C   0  0  0  0  0  0  0  0  0  0  0  0
  186.1440  178.0680  144.4920 C   0  0  0  0  0  0  0  0  0  0  0  0
  185.1310  178.8810  145.5540 S   0  0  0  0  0  0  0  0  0  0  0  0
  186.0630  178.6220  146.9330 C   0  0  0  0  0  3  0  0  0  0  0  0
  187.2330  177.5700  145.1800 C   0  0  0  0  0  3  0  0  0  0  0  0
  187.9090  177.3420  148.7330 O   0  0  0  0  0  0  0  0  0  0  0  0
  188.2290  177.4900  147.5230 C   0  0  0  0  0  0  0  0  0  0  0  0
  189.6000  177.2800  147.1550 N   0  0  0  0  0  2  0  0  0  0  0  0
  190.1030  177.1590  145.7920 C   0  0  0  0  0  2  0  0  0  0  0  0
  191.5730  176.7730  145.7970 C   0  0  0  0  0  2  0  0  0  0  0  0
  191.9110  176.0000  147.0550 C   0  0  0  0  0  1  0  0  0  0  0  0
  185.9940  179.0430  141.0110 N   0  0  0  0  0  2  0  0  0  0  0  0
  187.3010  178.6700  141.2470 O   0  0  0  0  0  0  0  0  0  0  0  0
  189.9670  177.1690  141.3250 O   0  0  0  0  0  0  0  0  0  0  0  0
  187.9280  178.6240  138.9710 N   0  0  0  0  0  0  0  0  0  0  0  0
  189.0470  178.0880  138.2470 C   0  0  0  0  0  0  0  0  0  0  0  0
  189.9350  177.4850  138.9780 N   0  0  0  0  0  0  0  0  0  0  0  0
  189.4090  177.6070  140.2860 C   0  0  0  0  0  0  0  0  0  0  0  0
  188.1580  178.3250  140.2030 C   0  0  0  0  0  0  0  0  0  0  0  0
  189.1810  178.2100  136.7720 C   0  0  0  0  0  1  0  0  0  0  0  0
  183.8390  178.4870  141.9880 C   0  0  0  0  0  2  0  0  0  0  0  0
  183.0090  177.1400  140.0880 C   0  0  0  0  0  2  0  0  0  0  0  0
  181.6710  177.6640  139.8490 N   0  0  0  0  0  2  0  0  0  0  0  0
  182.1580  178.9830  140.2270 C   0  0  0  0  0  2  0  0  0  0  0  0
  183.5580  178.4850  140.4940 C   0  0  0  0  0  3  0  0  0  0  0  0
  1 23  1  6  0  0  0
  1  2  1  0  0  0  0
  2  4  1  0  0  0  0
  3  6  2  0  0  0  0
  3  9  1  0  0  0  0
  4  7  2  0  0  0  0
  4  5  1  0  0  0  0
  5  6  1  0  0  0  0
  7  3  1  0  0  0  0
  9  8  2  0  0  0  0
 10  9  1  0  0  0  0
 11 12  1  0  0  0  0
 11 10  1  0  0  0  0
 12 13  1  0  0  0  0
 14 15  1  0  0  0  0
 14  1  1  0  0  0  0
 17 21  2  0  0  0  0
 18 17  1  0  0  0  0
 18 19  2  0  0  0  0
 19 20  1  0  0  0  0
 20 16  2  0  0  0  0
 21 20  1  0  0  0  0
 21 15  1  0  0  0  0
 22 18  1  0  0  0  0
 24 27  1  0  0  0  0
 25 24  1  0  0  0  0
 25 26  1  0  0  0  0
 26 27  1  0  0  0  0
 27 23  1  0  0  0  0
M  END
>  <MODEL>
5

>  <REMARK>
 VINA RESULT:      -7.3      2.713      5.101
  Name = 
  10 active torsions:
  status: ('A' for Active; 'I' for Inactive)
    1  A    between atoms: N_2  and  C_7
    2  A    between atoms: N_2  and  C_15
    3  A    between atoms: O_6  and  N_19
    4  A    between atoms: O_6  and  C_23
    5  A    between atoms: C_7  and  N_19
    6  A    between atoms: C_7  and  C_21
    7  A    between atoms: C_8  and  C_10
    8  A    between atoms: C_10  and  N_18
    9  A    between atoms: C_11  and  C_13
   10  A    between atoms: C_21  and  C_26
                            x       y       z     vdW  Elec       q    Type
                         _______ _______ _______ _____ _____    ______ ____

>  <TORSDO>
F 10

$$$$
=
 OpenBabel10222420053D

 27 29  0  0  1  0  0  0  0  0999 V2000
  188.4330  177.7140  144.3420 C   0  0  1  0  0  3  0  0  0  0  0  0
  188.8170  176.7110  143.3600 N   0  0  0  0  0  2  0  0  0  0  0  0
  189.6640  177.6860  139.9140 C   0  0  0  0  0  0  0  0  0  0  0  0
  189.4550  177.0450  142.1270 C   0  0  0  0  0  0  0  0  0  0  0  0
  191.1070  177.0120  141.8310 S   0  0  0  0  0  0  0  0  0  0  0  0
  191.0160  177.5030  140.2230 C   0  0  0  0  0  3  0  0  0  0  0  0
  188.7870  177.4360  140.9830 C   0  0  0  0  0  3  0  0  0  0  0  0
  189.0540  179.3760  138.3820 O   0  0  0  0  0  0  0  0  0  0  0  0
  189.2260  178.1430  138.5760 C   0  0  0  0  0  0  0  0  0  0  0  0
  188.9790  177.2450  137.4840 N   0  0  0  0  0  2  0  0  0  0  0  0
  189.3580  175.8380  137.4420 C   0  0  0  0  0  2  0  0  0  0  0  0
  190.6970  175.6660  136.7430 C   0  0  0  0  0  2  0  0  0  0  0  0
  191.6420  174.8540  137.6050 C   0  0  0  0  0  1  0  0  0  0  0  0
  187.2820  177.2400  145.0970 N   0  0  0  0  0  2  0  0  0  0  0  0
  186.4050  178.2980  145.2090 O   0  0  0  0  0  0  0  0  0  0  0  0
  183.4940  179.0030  145.8410 O   0  0  0  0  0  0  0  0  0  0  0  0
  185.3950  178.2560  143.0750 N   0  0  0  0  0  0  0  0  0  0  0  0
  184.0640  178.4910  142.5890 C   0  0  0  0  0  0  0  0  0  0  0  0
  183.1920  178.7970  143.5010 N   0  0  0  0  0  0  0  0  0  0  0  0
  183.9550  178.7750  144.6920 C   0  0  0  0  0  0  0  0  0  0  0  0
  185.3160  178.4330  144.3490 C   0  0  0  0  0  0  0  0  0  0  0  0
  183.7070  178.3930  141.1490 C   0  0  0  0  0  1  0  0  0  0  0  0
  189.5910  177.9770  145.2890 C   0  0  0  0  0  2  0  0  0  0  0  0
  191.6690  176.7290  145.7740 C   0  0  0  0  0  2  0  0  0  0  0  0
  191.7950  176.8120  147.2220 N   0  0  0  0  0  2  0  0  0  0  0  0
  190.3430  176.7530  147.3170 C   0  0  0  0  0  2  0  0  0  0  0  0
  190.1620  176.6720  145.8190 C   0  0  0  0  0  3  0  0  0  0  0  0
  1 14  1  0  0  0  0
  1 23  1  1  0  0  0
  2  1  1  0  0  0  0
  3  6  2  0  0  0  0
  3  7  1  0  0  0  0
  4  2  1  0  0  0  0
  5  4  1  0  0  0  0
  6  5  1  0  0  0  0
  7  4  2  0  0  0  0
  8  9  2  0  0  0  0
  9  3  1  0  0  0  0
 10  9  1  0  0  0  0
 11 10  1  0  0  0  0
 12 11  1  0  0  0  0
 12 13  1  0  0  0  0
 14 15  1  0  0  0  0
 17 21  2  0  0  0  0
 18 17  1  0  0  0  0
 18 19  2  0  0  0  0
 19 20  1  0  0  0  0
 20 16  2  0  0  0  0
 21 20  1  0  0  0  0
 21 15  1  0  0  0  0
 22 18  1  0  0  0  0
 23 27  1  0  0  0  0
 24 27  1  0  0  0  0
 24 25  1  0  0  0  0
 25 26  1  0  0  0  0
 27 26  1  0  0  0  0
M  END
>  <MODEL>
6

>  <REMARK>
 VINA RESULT:      -7.3      2.588      7.857
  Name = 
  10 active torsions:
  status: ('A' for Active; 'I' for Inactive)
    1  A    between atoms: N_2  and  C_7
    2  A    between atoms: N_2  and  C_15
    3  A    between atoms: O_6  and  N_19
    4  A    between atoms: O_6  and  C_23
    5  A    between atoms: C_7  and  N_19
    6  A    between atoms: C_7  and  C_21
    7  A    between atoms: C_8  and  C_10
    8  A    between atoms: C_10  and  N_18
    9  A    between atoms: C_11  and  C_13
   10  A    between atoms: C_21  and  C_26
                            x       y       z     vdW  Elec       q    Type
                         _______ _______ _______ _____ _____    ______ ____

>  <TORSDO>
F 10

$$$$
=
 OpenBabel10222420053D

 27 29  0  0  1  0  0  0  0  0999 V2000
  188.7610  177.7730  143.0980 C   0  0  1  0  0  3  0  0  0  0  0  0
  189.4550  176.8710  142.1910 N   0  0  0  0  0  2  0  0  0  0  0  0
  189.1050  177.9370  138.6860 C   0  0  0  0  0  0  0  0  0  0  0  0
  189.6210  177.1540  140.8010 C   0  0  0  0  0  0  0  0  0  0  0  0
  190.9460  176.7360  139.8590 S   0  0  0  0  0  0  0  0  0  0  0  0
  190.3650  177.3910  138.4210 C   0  0  0  0  0  3  0  0  0  0  0  0
  188.6880  177.8110  140.0220 C   0  0  0  0  0  3  0  0  0  0  0  0
  188.6900  179.7530  137.2340 O   0  0  0  0  0  0  0  0  0  0  0  0
  188.3160  178.6190  137.6350 C   0  0  0  0  0  0  0  0  0  0  0  0
  187.1330  178.0520  137.0520 N   0  0  0  0  0  2  0  0  0  0  0  0
  186.6940  176.6700  137.2020 C   0  0  0  0  0  2  0  0  0  0  0  0
  185.1760  176.5920  137.2300 C   0  0  0  0  0  2  0  0  0  0  0  0
  184.5930  177.8750  137.7890 C   0  0  0  0  0  1  0  0  0  0  0  0
  187.5500  177.1330  143.5880 N   0  0  0  0  0  2  0  0  0  0  0  0
  187.1270  177.8490  144.6880 O   0  0  0  0  0  0  0  0  0  0  0  0
  185.6020  178.7390  147.1880 O   0  0  0  0  0  0  0  0  0  0  0  0
  184.9760  178.3160  143.8340 N   0  0  0  0  0  0  0  0  0  0  0  0
  183.7450  178.7820  144.4100 C   0  0  0  0  0  0  0  0  0  0  0  0
  183.7880  179.0070  145.6880 N   0  0  0  0  0  0  0  0  0  0  0  0
  185.1230  178.6800  146.0260 C   0  0  0  0  0  0  0  0  0  0  0  0
  185.8010  178.2610  144.8220 C   0  0  0  0  0  0  0  0  0  0  0  0
  182.5130  178.9930  143.6060 C   0  0  0  0  0  1  0  0  0  0  0  0
  189.6650  178.1190  144.2700 C   0  0  0  0  0  2  0  0  0  0  0  0
  191.6770  176.9020  145.0330 C   0  0  0  0  0  2  0  0  0  0  0  0
  191.6780  177.1030  146.4750 N   0  0  0  0  0  2  0  0  0  0  0  0
  190.2240  177.0610  146.4480 C   0  0  0  0  0  2  0  0  0  0  0  0
  190.1710  176.8590  144.9520 C   0  0  0  0  0  3  0  0  0  0  0  0
  1 14  1  0  0  0  0
  1 23  1  1  0  0  0
  2  1  1  0  0  0  0
  3  7  1  0  0  0  0
  4  2  1  0  0  0  0
  5  4  1  0  0  0  0
  6  3  2  0  0  0  0
  6  5  1  0  0  0  0
  7  4  2  0  0  0  0
  8  9  2  0  0  0  0
  9  3  1  0  0  0  0
 10 11  1  0  0  0  0
 10  9  1  0  0  0  0
 11 12  1  0  0  0  0
 12 13  1  0  0  0  0
 14 15  1  0  0  0  0
 15 21  1  0  0  0  0
 17 18  1  0  0  0  0
 17 21  2  0  0  0  0
 18 19  2  0  0  0  0
 19 20  1  0  0  0  0
 20 16  2  0  0  0  0
 21 20  1  0  0  0  0
 22 18  1  0  0  0  0
 23 27  1  0  0  0  0
 24 25  1  0  0  0  0
 26 25  1  0  0  0  0
 27 24  1  0  0  0  0
 27 26  1  0  0  0  0
M  END
>  <MODEL>
7

>  <REMARK>
 VINA RESULT:      -7.2      2.452      7.622
  Name = 
  10 active torsions:
  status: ('A' for Active; 'I' for Inactive)
    1  A    between atoms: N_2  and  C_7
    2  A    between atoms: N_2  and  C_15
    3  A    between atoms: O_6  and  N_19
    4  A    between atoms: O_6  and  C_23
    5  A    between atoms: C_7  and  N_19
    6  A    between atoms: C_7  and  C_21
    7  A    between atoms: C_8  and  C_10
    8  A    between atoms: C_10  and  N_18
    9  A    between atoms: C_11  and  C_13
   10  A    between atoms: C_21  and  C_26
                            x       y       z     vdW  Elec       q    Type
                         _______ _______ _______ _____ _____    ______ ____

>  <TORSDO>
F 10

$$$$
=
 OpenBabel10222420053D

 27 29  0  0  1  0  0  0  0  0999 V2000
  188.4990  177.5210  140.9660 C   0  0  1  0  0  3  0  0  0  0  0  0
  189.5540  176.7530  141.6120 N   0  0  0  0  0  2  0  0  0  0  0  0
  190.4230  177.1510  145.1650 C   0  0  0  0  0  0  0  0  0  0  0  0
  190.1130  177.1210  142.8730 C   0  0  0  0  0  0  0  0  0  0  0  0
  191.3270  178.2520  143.1210 S   0  0  0  0  0  0  0  0  0  0  0  0
  191.3820  178.1000  144.7980 C   0  0  0  0  0  3  0  0  0  0  0  0
  189.7130  176.5960  144.0860 C   0  0  0  0  0  3  0  0  0  0  0  0
  191.0940  176.0450  147.1410 O   0  0  0  0  0  0  0  0  0  0  0  0
  190.2200  176.7570  146.5780 C   0  0  0  0  0  0  0  0  0  0  0  0
  189.0660  177.1410  147.3400 N   0  0  0  0  0  2  0  0  0  0  0  0
  188.0900  178.1510  146.9480 C   0  0  0  0  0  2  0  0  0  0  0  0
  186.8670  177.4970  146.3240 C   0  0  0  0  0  2  0  0  0  0  0  0
  185.6520  178.3880  146.4890 C   0  0  0  0  0  1  0  0  0  0  0  0
  187.7920  178.3110  141.9630 N   0  0  0  0  0  2  0  0  0  0  0  0
  186.7840  178.9860  141.3080 O   0  0  0  0  0  0  0  0  0  0  0  0
  184.2510  178.4230  139.6840 O   0  0  0  0  0  0  0  0  0  0  0  0
  185.0930  179.0650  142.9550 N   0  0  0  0  0  0  0  0  0  0  0  0
  183.6670  178.8920  142.9410 C   0  0  0  0  0  0  0  0  0  0  0  0
  183.1580  178.6320  141.7750 N   0  0  0  0  0  0  0  0  0  0  0  0
  184.2890  178.6230  140.9260 C   0  0  0  0  0  0  0  0  0  0  0  0
  185.4570  178.8980  141.7300 C   0  0  0  0  0  0  0  0  0  0  0  0
  182.8340  179.0010  144.1670 C   0  0  0  0  0  1  0  0  0  0  0  0
  189.1010  178.4420  139.9180 C   0  0  0  0  0  2  0  0  0  0  0  0
  187.4600  177.8800  138.1560 C   0  0  0  0  0  2  0  0  0  0  0  0
  187.6330  178.9380  137.1710 N   0  0  0  0  0  2  0  0  0  0  0  0
  189.0530  178.9530  137.4870 C   0  0  0  0  0  2  0  0  0  0  0  0
  188.9230  177.8630  138.5240 C   0  0  0  0  0  3  0  0  0  0  0  0
  1 23  1  6  0  0  0
  1  2  1  0  0  0  0
  1 14  1  0  0  0  0
  2  4  1  0  0  0  0
  3  9  1  0  0  0  0
  4  5  1  0  0  0  0
  4  7  2  0  0  0  0
  5  6  1  0  0  0  0
  6  3  2  0  0  0  0
  7  3  1  0  0  0  0
  9  8  2  0  0  0  0
  9 10  1  0  0  0  0
 11 10  1  0  0  0  0
 12 13  1  0  0  0  0
 12 11  1  0  0  0  0
 15 21  1  0  0  0  0
 15 14  1  0  0  0  0
 16 20  2  0  0  0  0
 18 17  1  0  0  0  0
 18 22  1  0  0  0  0
 19 18  2  0  0  0  0
 20 21  1  0  0  0  0
 20 19  1  0  0  0  0
 21 17  2  0  0  0  0
 24 27  1  0  0  0  0
 25 26  1  0  0  0  0
 25 24  1  0  0  0  0
 26 27  1  0  0  0  0
 27 23  1  0  0  0  0
M  END
>  <MODEL>
8

>  <REMARK>
 VINA RESULT:      -7.2      2.746      5.411
  Name = 
  10 active torsions:
  status: ('A' for Active; 'I' for Inactive)
    1  A    between atoms: N_2  and  C_7
    2  A    between atoms: N_2  and  C_15
    3  A    between atoms: O_6  and  N_19
    4  A    between atoms: O_6  and  C_23
    5  A    between atoms: C_7  and  N_19
    6  A    between atoms: C_7  and  C_21
    7  A    between atoms: C_8  and  C_10
    8  A    between atoms: C_10  and  N_18
    9  A    between atoms: C_11  and  C_13
   10  A    between atoms: C_21  and  C_26
                            x       y       z     vdW  Elec       q    Type
                         _______ _______ _______ _____ _____    ______ ____

>  <TORSDO>
F 10

$$$$
=
 OpenBabel10222420053D

 27 29  0  0  1  0  0  0  0  0999 V2000
  186.3470  178.8940  142.2470 C   0  0  1  0  0  3  0  0  0  0  0  0
  186.1970  177.8220  143.2200 N   0  0  0  0  0  2  0  0  0  0  0  0
  187.1880  177.9840  146.7610 C   0  0  0  0  0  0  0  0  0  0  0  0
  186.2930  178.0410  144.6280 C   0  0  0  0  0  0  0  0  0  0  0  0
  185.1330  178.7750  145.5940 S   0  0  0  0  0  0  0  0  0  0  0  0
  185.9790  178.6290  147.0430 C   0  0  0  0  0  3  0  0  0  0  0  0
  187.3690  177.6580  145.4060 C   0  0  0  0  0  3  0  0  0  0  0  0
  187.8570  177.8640  149.0230 O   0  0  0  0  0  0  0  0  0  0  0  0
  188.1900  177.7140  147.8170 C   0  0  0  0  0  0  0  0  0  0  0  0
  189.5330  177.2950  147.5320 N   0  0  0  0  0  2  0  0  0  0  0  0
  190.0200  176.8340  146.2380 C   0  0  0  0  0  2  0  0  0  0  0  0
  191.5240  176.6150  146.2810 C   0  0  0  0  0  2  0  0  0  0  0  0
  191.8830  175.6430  147.3860 C   0  0  0  0  0  1  0  0  0  0  0  0
  187.2180  178.4530  141.1680 N   0  0  0  0  0  2  0  0  0  0  0  0
  188.0010  177.4340  141.6680 O   0  0  0  0  0  0  0  0  0  0  0  0
  190.5340  176.3770  140.3120 O   0  0  0  0  0  0  0  0  0  0  0  0
  189.7180  178.3540  143.0040 N   0  0  0  0  0  0  0  0  0  0  0  0
  191.1530  178.3000  142.9750 C   0  0  0  0  0  0  0  0  0  0  0  0
  191.6550  177.5930  142.0080 N   0  0  0  0  0  0  0  0  0  0  0  0
  190.5080  177.1260  141.3230 C   0  0  0  0  0  0  0  0  0  0  0  0
  189.3400  177.6420  141.9990 C   0  0  0  0  0  0  0  0  0  0  0  0
  192.0030  179.0000  143.9730 C   0  0  0  0  0  1  0  0  0  0  0  0
  184.9870  179.2700  141.6830 C   0  0  0  0  0  2  0  0  0  0  0  0
  182.6280  178.6280  142.0540 C   0  0  0  0  0  2  0  0  0  0  0  0
  182.1500  178.2790  140.7230 N   0  0  0  0  0  2  0  0  0  0  0  0
  183.4740  177.7540  140.4230 C   0  0  0  0  0  2  0  0  0  0  0  0
  184.0180  178.1040  141.7880 C   0  0  0  0  0  3  0  0  0  0  0  0
  1 23  1  6  0  0  0
  1  2  1  0  0  0  0
  2  4  1  0  0  0  0
  3  6  2  0  0  0  0
  3  9  1  0  0  0  0
  4  7  2  0  0  0  0
  4  5  1  0  0  0  0
  5  6  1  0  0  0  0
  7  3  1  0  0  0  0
  9  8  2  0  0  0  0
 10  9  1  0  0  0  0
 11 12  1  0  0  0  0
 11 10  1  0  0  0  0
 12 13  1  0  0  0  0
 14 15  1  0  0  0  0
 14  1  1  0  0  0  0
 15 21  1  0  0  0  0
 16 20  2  0  0  0  0
 18 17  1  0  0  0  0
 18 22  1  0  0  0  0
 19 18  2  0  0  0  0
 20 21  1  0  0  0  0
 20 19  1  0  0  0  0
 21 17  2  0  0  0  0
 23 27  1  0  0  0  0
 25 24  1  0  0  0  0
 26 25  1  0  0  0  0
 26 27  1  0  0  0  0
 27 24  1  0  0  0  0
M  END
>  <MODEL>
9

>  <REMARK>
 VINA RESULT:      -7.1      2.517      3.997
  Name = 
  10 active torsions:
  status: ('A' for Active; 'I' for Inactive)
    1  A    between atoms: N_2  and  C_7
    2  A    between atoms: N_2  and  C_15
    3  A    between atoms: O_6  and  N_19
    4  A    between atoms: O_6  and  C_23
    5  A    between atoms: C_7  and  N_19
    6  A    between atoms: C_7  and  C_21
    7  A    between atoms: C_8  and  C_10
    8  A    between atoms: C_10  and  N_18
    9  A    between atoms: C_11  and  C_13
   10  A    between atoms: C_21  and  C_26
                            x       y       z     vdW  Elec       q    Type
                         _______ _______ _______ _____ _____    ______ ____

>  <TORSDO>
F 10

$$$$
