=
 OpenBabel10222417163D

 56 60  0  0  1  0  0  0  0  0999 V2000
  182.9950  177.3840  140.3550 C   0  0  2  0  0  3  0  0  0  0  0  0
  181.8580  178.3480  140.6810 C   0  0  0  0  0  2  0  0  0  0  0  0
  184.3900  178.0840  142.1690 C   0  0  2  0  0  3  0  0  0  0  0  0
  184.2670  178.0130  140.7100 N   0  0  0  0  0  2  0  0  0  0  0  0
  183.2610  179.2310  143.9530 O   0  0  0  0  0  0  0  0  0  0  0  0
  183.1840  178.7520  142.7890 C   0  0  0  0  0  0  0  0  0  0  0  0
  181.9300  178.7690  142.0810 N   0  0  0  0  0  0  0  0  0  0  0  0
  186.7780  178.5380  141.7050 C   0  0  0  0  0  0  0  0  0  0  0  0
  188.7590  177.0550  142.8570 C   0  0  0  0  0  0  0  0  0  0  0  0
  185.6760  178.8280  142.5210 C   0  0  1  0  0  0  0  0  0  0  0  0
  187.6400  177.3170  143.7350 C   0  0  0  0  0  3  0  0  0  0  0  0
  187.7910  178.3220  140.8240 C   0  0  0  0  0  3  0  0  0  0  0  0
  185.6140  180.1440  142.9450 F   0  0  0  0  0  0  0  0  0  0  0  0
  186.7050  178.0620  143.0860 C   0  0  0  0  0  0  0  0  0  0  0  0
  188.8140  177.5410  141.4690 C   0  0  0  0  0  3  0  0  0  0  0  0
  190.1990  175.1660  142.8480 O   0  0  0  0  0  0  0  0  0  0  0  0
  189.9080  176.2780  143.3690 C   0  0  0  0  0  0  0  0  0  0  0  0
  190.7690  176.7990  144.4800 C   0  0  0  0  0  2  0  0  0  0  0  0
  190.9170  179.2140  144.1840 N   0  0  0  0  0  1  0  0  0  0  0  0
  191.6270  177.9580  143.9990 C   0  0  0  0  0  2  0  0  0  0  0  0
  182.8690  176.2370  136.2050 C   0  0  0  0  0  3  0  0  0  0  0  0
  182.6960  177.5770  136.5550 C   0  0  0  0  0  3  0  0  0  0  0  0
  182.7340  177.9580  137.8980 C   0  0  0  0  0  3  0  0  0  0  0  0
  182.9590  177.0030  138.9020 C   0  0  0  0  0  0  0  0  0  0  0  0
  183.0830  175.2760  137.1950 C   0  0  0  0  0  0  0  0  0  0  0  0
  183.1310  175.6570  138.5430 C   0  0  0  0  0  3  0  0  0  0  0  0
  183.1940  173.8450  136.8110 C   0  0  0  0  0  2  0  0  0  0  0  0
  184.2740  173.6340  135.7580 C   0  0  0  0  0  2  0  0  0  0  0  0
  185.2950  172.6290  136.2640 C   0  0  0  0  0  2  0  0  0  0  0  0
  186.1860  173.2490  137.3280 C   0  0  0  0  0  2  0  0  0  0  0  0
  187.3120  173.9230  136.6880 N   0  0  0  0  0  0  0  0  0  0  0  0
  188.4300  172.0470  135.8700 O   0  0  0  0  0  0  0  0  0  0  0  0
  188.5080  173.1660  136.4480 C   0  0  0  0  0  0  0  0  0  0  0  0
  186.5940  177.6700  136.8280 C   0  0  0  0  0  2  0  0  0  0  0  0
  186.7030  176.2140  137.1810 C   0  0  0  0  0  2  0  0  0  0  0  0
  187.5800  175.7400  134.9990 N   0  0  0  0  0  0  0  0  0  0  0  0
  187.2200  175.3170  136.3260 C   0  0  0  0  0  0  0  0  0  0  0  0
  186.4050  177.8540  135.3240 C   0  0  0  0  0  2  0  0  0  0  0  0
  187.5410  177.1430  134.5950 C   0  0  0  0  0  2  0  0  0  0  0  0
  190.8710  173.2210  136.3300 O   0  0  0  0  0  0  0  0  0  0  0  0
  189.8250  173.6590  136.8850 C   0  0  0  0  0  0  0  0  0  0  0  0
  189.8910  174.6160  137.9110 O   0  0  0  0  0  0  0  0  0  0  0  0
  190.7070  175.7600  137.9130 C   0  0  0  0  0  3  0  0  0  0  0  0
  190.8600  176.5540  138.9590 C   0  0  0  0  0  2  0  0  0  0  0  0
  180.7720  179.4490  142.6440 C   0  0  0  0  0  2  0  0  0  0  0  0
  179.7100  179.6840  141.5760 C   0  0  0  0  0  2  0  0  0  0  0  0
  179.3220  181.0880  141.5180 N   0  0  0  0  0  2  0  0  0  0  0  0
  178.9360  181.4020  140.1480 C   0  0  0  0  0  2  0  0  0  0  0  0
  180.1670  181.5000  139.2600 C   0  0  0  0  0  2  0  0  0  0  0  0
  179.9640  182.5740  138.2060 C   0  0  0  0  0  2  0  0  0  0  0  0
  180.9780  182.4570  137.1730 N   0  0  0  0  0  0  0  0  0  0  0  0
  181.2230  181.1330  137.0130 O   0  0  0  0  0  1  0  0  0  0  0  0
  180.3620  182.9240  135.9410 C   0  0  0  0  0  2  0  0  0  0  0  0
  180.8090  184.3140  135.6400 C   0  0  0  0  0  0  0  0  0  0  0  0
  180.4060  184.8960  134.5970 O   0  0  0  0  0  0  0  0  0  0  0  0
  181.7140  184.9480  136.4800 O   0  0  0  0  0  1  0  0  0  0  0  0
  1 24  1  6  0  0  0
  1  2  1  0  0  0  0
  1  4  1  0  0  0  0
  2  7  1  0  0  0  0
  3  4  1  6  0  0  0
  3 10  1  0  0  0  0
  3  6  1  0  0  0  0
  6  5  2  0  0  0  0
  7 45  1  0  0  0  0
  7  6  1  0  0  0  0
  8 10  1  0  0  0  0
  8 14  1  0  0  0  0
  9 17  1  0  0  0  0
  9 11  1  0  0  0  0
 10 13  1  1  0  0  0
 10 14  1  0  0  0  0
 12 15  1  0  0  0  0
 12  8  2  0  0  0  0
 14 11  2  0  0  0  0
 15  9  2  0  0  0  0
 16 17  2  0  0  0  0
 17 18  1  0  0  0  0
 20 19  1  0  0  0  0
 20 18  1  0  0  0  0
 21 22  2  0  0  0  0
 21 25  1  0  0  0  0
 22 23  1  0  0  0  0
 23 24  2  0  0  0  0
 25 26  2  0  0  0  0
 26 24  1  0  0  0  0
 27 25  1  0  0  0  0
 28 29  1  0  0  0  0
 28 27  1  0  0  0  0
 29 30  1  0  0  0  0
 31 30  1  0  0  0  0
 32 33  2  0  0  0  0
 33 31  1  0  0  0  0
 33 41  1  0  0  0  0
 34 35  1  0  0  0  0
 36 37  2  0  0  0  0
 37 31  1  0  0  0  0
 37 35  1  0  0  0  0
 38 34  1  0  0  0  0
 39 36  1  0  0  0  0
 39 38  1  0  0  0  0
 40 41  2  0  0  0  0
 41 42  1  0  0  0  0
 42 43  1  0  0  0  0
 43 44  2  0  0  0  0
 46 45  1  0  0  0  0
 47 46  1  0  0  0  0
 48 47  1  0  0  0  0
 49 48  1  0  0  0  0
 50 49  1  0  0  0  0
 51 50  1  0  0  0  0
 52 51  1  0  0  0  0
 53 51  1  0  0  0  0
 54 53  1  0  0  0  0
 54 56  1  0  0  0  0
 55 54  2  0  0  0  0
M  END
>  <MODEL>
1

>  <REMARK>
 VINA RESULT:      -6.8      0.000      0.000
  Name = 
  23 active torsions:
  status: ('A' for Active; 'I' for Inactive)
    1  A    between atoms: C_6  and  C_15
    2  A    between atoms: C_6  and  N_56
    3  A    between atoms: C_8  and  C_44
    4  A    between atoms: N_9  and  C_15
    5  A    between atoms: N_9  and  C_31
    6  A    between atoms: C_10  and  C_22
    7  A    between atoms: C_13  and  N_23
    8  A    between atoms: C_13  and  C_30
    9  A    between atoms: C_14  and  O_33
   10  A    between atoms: C_16  and  C_48
   11  A    between atoms: C_17  and  N_23
   12  A    between atoms: C_24  and  C_35
   13  A    between atoms: C_25  and  C_41
   14  A    between atoms: C_28  and  C_31
   15  A    between atoms: C_28  and  C_34
   16  A    between atoms: C_30  and  C_47
   17  A    between atoms: O_33  and  C_36
   18  A    between atoms: C_34  and  N_43
   19  A    between atoms: C_36  and  C_55
   20  A    between atoms: C_37  and  C_39
   21  A    between atoms: C_39  and  C_47
   22  A    between atoms: C_41  and  C_48
   23  A    between atoms: N_43  and  C_44
                            x       y       z     vdW  Elec       q    Type
                         _______ _______ _______ _____ _____    ______ ____

>  <TORSDO>
F 23

$$$$
=
 OpenBabel10222417163D

 56 60  0  0  1  0  0  0  0  0999 V2000
  188.2110  177.5390  142.1860 C   0  0  2  0  0  3  0  0  0  0  0  0
  189.1690  178.3530  143.0520 C   0  0  0  0  0  2  0  0  0  0  0  0
  189.8380  177.0170  140.5100 C   0  0  2  0  0  3  0  0  0  0  0  0
  188.5780  177.7140  140.7810 N   0  0  0  0  0  2  0  0  0  0  0  0
  192.1310  177.2460  141.1940 O   0  0  0  0  0  0  0  0  0  0  0  0
  190.9180  177.4400  141.4800 C   0  0  0  0  0  0  0  0  0  0  0  0
  190.5560  177.9900  142.7620 N   0  0  0  0  0  0  0  0  0  0  0  0
  190.1030  176.2090  138.1860 C   0  0  0  0  0  0  0  0  0  0  0  0
  192.4120  175.0210  137.3470 C   0  0  0  0  0  0  0  0  0  0  0  0
  190.2550  177.2890  139.0670 C   0  0  1  0  0  0  0  0  0  0  0  0
  192.6210  176.1210  138.2620 C   0  0  0  0  0  3  0  0  0  0  0  0
  189.8340  175.1810  137.3390 C   0  0  0  0  0  3  0  0  0  0  0  0
  189.9970  178.5240  138.4990 F   0  0  0  0  0  0  0  0  0  0  0  0
  191.4240  176.6570  138.6250 C   0  0  0  0  0  0  0  0  0  0  0  0
  191.0750  174.5830  136.9180 C   0  0  0  0  0  3  0  0  0  0  0  0
  194.0830  173.3350  137.4370 O   0  0  0  0  0  0  0  0  0  0  0  0
  193.5870  174.3060  136.8020 C   0  0  0  0  0  0  0  0  0  0  0  0
  194.1870  174.6850  135.4820 C   0  0  0  0  0  2  0  0  0  0  0  0
  195.0500  176.9590  135.6550 N   0  0  0  0  0  1  0  0  0  0  0  0
  193.9370  176.1530  135.1770 C   0  0  0  0  0  2  0  0  0  0  0  0
  184.1220  178.7180  142.8520 C   0  0  0  0  0  3  0  0  0  0  0  0
  184.9200  178.3540  143.9380 C   0  0  0  0  0  3  0  0  0  0  0  0
  186.2470  177.9690  143.7320 C   0  0  0  0  0  3  0  0  0  0  0  0
  186.7910  177.9570  142.4380 C   0  0  0  0  0  0  0  0  0  0  0  0
  184.6490  178.7000  141.5590 C   0  0  0  0  0  0  0  0  0  0  0  0
  185.9830  178.3230  141.3510 C   0  0  0  0  0  3  0  0  0  0  0  0
  183.7660  179.0210  140.4070 C   0  0  0  0  0  2  0  0  0  0  0  0
  182.6800  177.9680  140.2290 C   0  0  0  0  0  2  0  0  0  0  0  0
  181.8150  178.3200  139.0310 C   0  0  0  0  0  2  0  0  0  0  0  0
  182.6740  178.6640  137.8250 C   0  0  0  0  0  2  0  0  0  0  0  0
  183.2110  177.4380  137.2420 N   0  0  0  0  0  0  0  0  0  0  0  0
  181.2260  176.5410  136.4110 O   0  0  0  0  0  0  0  0  0  0  0  0
  182.3120  176.3410  137.0210 C   0  0  0  0  0  0  0  0  0  0  0  0
  187.0100  177.7840  137.4020 C   0  0  0  0  0  2  0  0  0  0  0  0
  185.5440  177.8730  137.7200 C   0  0  0  0  0  2  0  0  0  0  0  0
  185.0200  176.7540  135.6640 N   0  0  0  0  0  0  0  0  0  0  0  0
  184.6140  177.3360  136.9150 C   0  0  0  0  0  0  0  0  0  0  0  0
  187.2390  177.7420  135.8930 C   0  0  0  0  0  2  0  0  0  0  0  0
  186.4260  176.5950  135.3030 C   0  0  0  0  0  2  0  0  0  0  0  0
  183.1320  174.8450  138.6610 O   0  0  0  0  0  0  0  0  0  0  0  0
  182.6200  174.9890  137.5160 C   0  0  0  0  0  0  0  0  0  0  0  0
  182.3300  173.8810  136.7020 O   0  0  0  0  0  0  0  0  0  0  0  0
  183.2780  173.0340  136.1040 C   0  0  0  0  0  3  0  0  0  0  0  0
  183.8310  172.0000  136.7130 C   0  0  0  0  0  2  0  0  0  0  0  0
  191.5830  178.4460  143.6870 C   0  0  0  0  0  2  0  0  0  0  0  0
  191.1760  178.1650  145.1290 C   0  0  0  0  0  2  0  0  0  0  0  0
  191.6980  176.8830  145.5850 N   0  0  0  0  0  2  0  0  0  0  0  0
  191.0560  176.5500  146.8510 C   0  0  0  0  0  2  0  0  0  0  0  0
  189.8180  177.4080  147.0590 C   0  0  0  0  0  2  0  0  0  0  0  0
  188.6970  176.5700  147.6470 C   0  0  0  0  0  2  0  0  0  0  0  0
  187.6430  177.4310  148.1550 N   0  0  0  0  0  0  0  0  0  0  0  0
  188.2080  178.2260  149.0970 O   0  0  0  0  0  1  0  0  0  0  0  0
  187.2540  178.2950  147.0510 C   0  0  0  0  0  2  0  0  0  0  0  0
  185.9630  178.9720  147.3610 C   0  0  0  0  0  0  0  0  0  0  0  0
  185.9570  180.1610  147.7780 O   0  0  0  0  0  1  0  0  0  0  0  0
  184.7690  178.2740  147.2420 O   0  0  0  0  0  0  0  0  0  0  0  0
  1 24  1  6  0  0  0
  1  2  1  0  0  0  0
  3  4  1  1  0  0  0
  3  6  1  0  0  0  0
  4  1  1  0  0  0  0
  5  6  2  0  0  0  0
  6  7  1  0  0  0  0
  7  2  1  0  0  0  0
  7 45  1  0  0  0  0
  8 14  1  0  0  0  0
  8 10  1  0  0  0  0
  9 11  1  0  0  0  0
 10 13  1  6  0  0  0
 10  3  1  0  0  0  0
 11 14  2  0  0  0  0
 12  8  2  0  0  0  0
 14 10  1  0  0  0  0
 15 12  1  0  0  0  0
 15  9  2  0  0  0  0
 17  9  1  0  0  0  0
 17 16  2  0  0  0  0
 18 17  1  0  0  0  0
 20 18  1  0  0  0  0
 20 19  1  0  0  0  0
 21 22  1  0  0  0  0
 23 22  2  0  0  0  0
 24 23  1  0  0  0  0
 25 21  2  0  0  0  0
 26 25  1  0  0  0  0
 26 24  2  0  0  0  0
 27 25  1  0  0  0  0
 28 27  1  0  0  0  0
 29 28  1  0  0  0  0
 30 29  1  0  0  0  0
 31 30  1  0  0  0  0
 32 33  2  0  0  0  0
 33 31  1  0  0  0  0
 33 41  1  0  0  0  0
 34 35  1  0  0  0  0
 36 37  2  0  0  0  0
 37 31  1  0  0  0  0
 37 35  1  0  0  0  0
 38 34  1  0  0  0  0
 39 36  1  0  0  0  0
 39 38  1  0  0  0  0
 41 40  2  0  0  0  0
 42 41  1  0  0  0  0
 43 42  1  0  0  0  0
 43 44  2  0  0  0  0
 45 46  1  0  0  0  0
 46 47  1  0  0  0  0
 47 48  1  0  0  0  0
 48 49  1  0  0  0  0
 49 50  1  0  0  0  0
 50 51  1  0  0  0  0
 51 52  1  0  0  0  0
 53 54  1  0  0  0  0
 53 51  1  0  0  0  0
 54 55  1  0  0  0  0
 56 54  2  0  0  0  0
M  END
>  <MODEL>
2

>  <REMARK>
 VINA RESULT:      -6.7      3.407      8.666
  Name = 
  23 active torsions:
  status: ('A' for Active; 'I' for Inactive)
    1  A    between atoms: C_6  and  C_15
    2  A    between atoms: C_6  and  N_56
    3  A    between atoms: C_8  and  C_44
    4  A    between atoms: N_9  and  C_15
    5  A    between atoms: N_9  and  C_31
    6  A    between atoms: C_10  and  C_22
    7  A    between atoms: C_13  and  N_23
    8  A    between atoms: C_13  and  C_30
    9  A    between atoms: C_14  and  O_33
   10  A    between atoms: C_16  and  C_48
   11  A    between atoms: C_17  and  N_23
   12  A    between atoms: C_24  and  C_35
   13  A    between atoms: C_25  and  C_41
   14  A    between atoms: C_28  and  C_31
   15  A    between atoms: C_28  and  C_34
   16  A    between atoms: C_30  and  C_47
   17  A    between atoms: O_33  and  C_36
   18  A    between atoms: C_34  and  N_43
   19  A    between atoms: C_36  and  C_55
   20  A    between atoms: C_37  and  C_39
   21  A    between atoms: C_39  and  C_47
   22  A    between atoms: C_41  and  C_48
   23  A    between atoms: N_43  and  C_44
                            x       y       z     vdW  Elec       q    Type
                         _______ _______ _______ _____ _____    ______ ____

>  <TORSDO>
F 23

$$$$
=
 OpenBabel10222417163D

 56 60  0  0  1  0  0  0  0  0999 V2000
  188.3520  177.5340  141.8380 C   0  0  2  0  0  3  0  0  0  0  0  0
  189.2910  178.3890  142.6850 C   0  0  0  0  0  2  0  0  0  0  0  0
  190.0360  176.8580  140.2780 C   0  0  2  0  0  3  0  0  0  0  0  0
  188.7830  177.5990  140.4420 N   0  0  0  0  0  2  0  0  0  0  0  0
  192.3020  177.0880  141.0440 O   0  0  0  0  0  0  0  0  0  0  0  0
  191.0830  177.3280  141.2620 C   0  0  0  0  0  0  0  0  0  0  0  0
  190.6810  177.9770  142.4830 N   0  0  0  0  0  0  0  0  0  0  0  0
  190.3100  175.9040  138.0110 C   0  0  0  0  0  0  0  0  0  0  0  0
  192.5420  174.4920  137.3220 C   0  0  0  0  0  0  0  0  0  0  0  0
  190.5200  177.0150  138.8380 C   0  0  1  0  0  0  0  0  0  0  0  0
  192.8090  175.6210  138.1840 C   0  0  0  0  0  3  0  0  0  0  0  0
  189.9870  174.8540  137.2100 C   0  0  0  0  0  3  0  0  0  0  0  0
  190.3810  178.2340  138.1970 F   0  0  0  0  0  0  0  0  0  0  0  0
  191.6480  176.2690  138.4740 C   0  0  0  0  0  0  0  0  0  0  0  0
  191.1880  174.1390  136.8670 C   0  0  0  0  0  3  0  0  0  0  0  0
  193.4630  172.4770  136.4670 O   0  0  0  0  0  0  0  0  0  0  0  0
  193.6720  173.6570  136.8590 C   0  0  0  0  0  0  0  0  0  0  0  0
  195.0700  174.1960  136.8100 C   0  0  0  0  0  2  0  0  0  0  0  0
  195.5240  173.1960  138.9860 N   0  0  0  0  0  1  0  0  0  0  0  0
  196.0140  173.3230  137.6220 C   0  0  0  0  0  2  0  0  0  0  0  0
  184.2710  178.8530  142.2320 C   0  0  0  0  0  3  0  0  0  0  0  0
  184.9420  178.3460  143.3470 C   0  0  0  0  0  3  0  0  0  0  0  0
  186.2650  177.9150  143.2280 C   0  0  0  0  0  3  0  0  0  0  0  0
  186.9330  177.9990  141.9970 C   0  0  0  0  0  0  0  0  0  0  0  0
  184.9200  178.9310  140.9990 C   0  0  0  0  0  0  0  0  0  0  0  0
  186.2510  178.5080  140.8800 C   0  0  0  0  0  3  0  0  0  0  0  0
  184.1690  179.4060  139.8080 C   0  0  0  0  0  2  0  0  0  0  0  0
  184.1340  178.3450  138.7140 C   0  0  0  0  0  2  0  0  0  0  0  0
  182.7570  178.3140  138.0740 C   0  0  0  0  0  2  0  0  0  0  0  0
  182.7050  177.2920  136.9500 C   0  0  0  0  0  2  0  0  0  0  0  0
  182.0260  176.0870  137.4160 N   0  0  0  0  0  0  0  0  0  0  0  0
  179.8220  176.8280  137.2310 O   0  0  0  0  0  0  0  0  0  0  0  0
  180.6860  176.2140  137.9150 C   0  0  0  0  0  0  0  0  0  0  0  0
  184.6750  173.3690  137.8230 C   0  0  0  0  0  2  0  0  0  0  0  0
  183.9520  174.6860  137.8460 C   0  0  0  0  0  2  0  0  0  0  0  0
  182.0670  173.6810  136.7540 N   0  0  0  0  0  0  0  0  0  0  0  0
  182.6980  174.8100  137.3840 C   0  0  0  0  0  0  0  0  0  0  0  0
  184.2050  172.5090  136.6520 C   0  0  0  0  0  2  0  0  0  0  0  0
  182.6890  172.3600  136.7290 C   0  0  0  0  0  2  0  0  0  0  0  0
  180.2400  174.4110  139.3810 O   0  0  0  0  0  0  0  0  0  0  0  0
  180.3040  175.6620  139.2260 C   0  0  0  0  0  0  0  0  0  0  0  0
  180.0240  176.5430  140.2840 O   0  0  0  0  0  0  0  0  0  0  0  0
  180.6630  177.7730  140.5160 C   0  0  0  0  0  3  0  0  0  0  0  0
  180.7050  178.3700  141.6950 C   0  0  0  0  0  2  0  0  0  0  0  0
  191.6770  178.4770  143.4180 C   0  0  0  0  0  2  0  0  0  0  0  0
  191.2530  178.2090  144.8580 C   0  0  0  0  0  2  0  0  0  0  0  0
  191.6390  176.8690  145.2800 N   0  0  0  0  0  2  0  0  0  0  0  0
  191.0620  176.6180  146.5950 C   0  0  0  0  0  2  0  0  0  0  0  0
  189.8130  177.4600  146.7950 C   0  0  0  0  0  2  0  0  0  0  0  0
  188.7360  176.6400  147.4840 C   0  0  0  0  0  2  0  0  0  0  0  0
  187.6690  177.5080  147.9490 N   0  0  0  0  0  0  0  0  0  0  0  0
  188.2560  178.5130  148.6440 O   0  0  0  0  0  1  0  0  0  0  0  0
  187.0800  178.1040  146.7600 C   0  0  0  0  0  2  0  0  0  0  0  0
  185.8160  178.8120  147.1140 C   0  0  0  0  0  0  0  0  0  0  0  0
  184.7040  178.2470  146.9330 O   0  0  0  0  0  0  0  0  0  0  0  0
  185.8620  180.1140  147.5930 O   0  0  0  0  0  1  0  0  0  0  0  0
  1 24  1  6  0  0  0
  1  2  1  0  0  0  0
  3  4  1  6  0  0  0
  3  6  1  0  0  0  0
  4  1  1  0  0  0  0
  5  6  2  0  0  0  0
  6  7  1  0  0  0  0
  7  2  1  0  0  0  0
  7 45  1  0  0  0  0
  8 14  1  0  0  0  0
  8 10  1  0  0  0  0
  9 11  1  0  0  0  0
 10 13  1  6  0  0  0
 10  3  1  0  0  0  0
 11 14  2  0  0  0  0
 12  8  2  0  0  0  0
 14 10  1  0  0  0  0
 15 12  1  0  0  0  0
 15  9  2  0  0  0  0
 16 17  2  0  0  0  0
 17  9  1  0  0  0  0
 18 17  1  0  0  0  0
 18 20  1  0  0  0  0
 20 19  1  0  0  0  0
 21 22  1  0  0  0  0
 23 22  2  0  0  0  0
 24 23  1  0  0  0  0
 25 21  2  0  0  0  0
 26 25  1  0  0  0  0
 26 24  2  0  0  0  0
 27 25  1  0  0  0  0
 28 27  1  0  0  0  0
 29 28  1  0  0  0  0
 30 31  1  0  0  0  0
 30 29  1  0  0  0  0
 31 33  1  0  0  0  0
 32 33  2  0  0  0  0
 33 41  1  0  0  0  0
 34 35  1  0  0  0  0
 36 37  2  0  0  0  0
 37 31  1  0  0  0  0
 37 35  1  0  0  0  0
 38 39  1  0  0  0  0
 38 34  1  0  0  0  0
 39 36  1  0  0  0  0
 41 40  2  0  0  0  0
 41 42  1  0  0  0  0
 42 43  1  0  0  0  0
 43 44  2  0  0  0  0
 45 46  1  0  0  0  0
 46 47  1  0  0  0  0
 47 48  1  0  0  0  0
 48 49  1  0  0  0  0
 49 50  1  0  0  0  0
 50 51  1  0  0  0  0
 51 52  1  0  0  0  0
 53 54  1  0  0  0  0
 53 51  1  0  0  0  0
 54 56  1  0  0  0  0
 55 54  2  0  0  0  0
M  END
>  <MODEL>
3

>  <REMARK>
 VINA RESULT:      -6.7      3.644      9.029
  Name = 
  23 active torsions:
  status: ('A' for Active; 'I' for Inactive)
    1  A    between atoms: C_6  and  C_15
    2  A    between atoms: C_6  and  N_56
    3  A    between atoms: C_8  and  C_44
    4  A    between atoms: N_9  and  C_15
    5  A    between atoms: N_9  and  C_31
    6  A    between atoms: C_10  and  C_22
    7  A    between atoms: C_13  and  N_23
    8  A    between atoms: C_13  and  C_30
    9  A    between atoms: C_14  and  O_33
   10  A    between atoms: C_16  and  C_48
   11  A    between atoms: C_17  and  N_23
   12  A    between atoms: C_24  and  C_35
   13  A    between atoms: C_25  and  C_41
   14  A    between atoms: C_28  and  C_31
   15  A    between atoms: C_28  and  C_34
   16  A    between atoms: C_30  and  C_47
   17  A    between atoms: O_33  and  C_36
   18  A    between atoms: C_34  and  N_43
   19  A    between atoms: C_36  and  C_55
   20  A    between atoms: C_37  and  C_39
   21  A    between atoms: C_39  and  C_47
   22  A    between atoms: C_41  and  C_48
   23  A    between atoms: N_43  and  C_44
                            x       y       z     vdW  Elec       q    Type
                         _______ _______ _______ _____ _____    ______ ____

>  <TORSDO>
F 23

$$$$
=
 OpenBabel10222417163D

 56 60  0  0  1  0  0  0  0  0999 V2000
  185.9850  178.9810  141.0520 C   0  0  2  0  0  3  0  0  0  0  0  0
  185.6180  178.3290  139.7210 C   0  0  0  0  0  2  0  0  0  0  0  0
  188.3450  178.6800  140.7880 C   0  0  2  0  0  3  0  0  0  0  0  0
  187.1740  178.3190  141.5910 N   0  0  0  0  0  2  0  0  0  0  0  0
  189.0890  178.3000  138.5350 O   0  0  0  0  0  0  0  0  0  0  0  0
  188.1080  178.4070  139.3200 C   0  0  0  0  0  0  0  0  0  0  0  0
  186.7630  178.3500  138.8090 N   0  0  0  0  0  0  0  0  0  0  0  0
  189.2710  176.8890  142.2220 C   0  0  0  0  0  0  0  0  0  0  0  0
  190.0000  177.3700  144.8080 C   0  0  0  0  0  0  0  0  0  0  0  0
  189.5570  177.9090  141.3050 C   0  0  1  0  0  0  0  0  0  0  0  0
  190.3060  178.4560  143.9040 C   0  0  0  0  0  3  0  0  0  0  0  0
  188.9470  175.8340  143.0170 C   0  0  0  0  0  3  0  0  0  0  0  0
  190.6060  177.6240  140.4490 F   0  0  0  0  0  0  0  0  0  0  0  0
  189.9150  178.1330  142.6410 C   0  0  0  0  0  0  0  0  0  0  0  0
  189.3490  176.1260  144.3680 C   0  0  0  0  0  3  0  0  0  0  0  0
  191.4930  177.1030  146.6350 O   0  0  0  0  0  0  0  0  0  0  0  0
  190.3640  177.4980  146.2350 C   0  0  0  0  0  0  0  0  0  0  0  0
  189.4290  178.1260  147.2250 C   0  0  0  0  0  2  0  0  0  0  0  0
  187.0400  177.9120  147.6610 N   0  0  0  0  0  1  0  0  0  0  0  0
  188.2930  177.1780  147.5710 C   0  0  0  0  0  2  0  0  0  0  0  0
  182.6410  178.7300  143.7550 C   0  0  0  0  0  3  0  0  0  0  0  0
  183.9380  178.5800  144.2480 C   0  0  0  0  0  3  0  0  0  0  0  0
  185.0280  178.6590  143.3790 C   0  0  0  0  0  3  0  0  0  0  0  0
  184.8320  178.9010  142.0100 C   0  0  0  0  0  0  0  0  0  0  0  0
  182.4310  178.9600  142.3940 C   0  0  0  0  0  0  0  0  0  0  0  0
  183.5240  179.0490  141.5210 C   0  0  0  0  0  3  0  0  0  0  0  0
  181.0410  179.0450  141.8740 C   0  0  0  0  0  2  0  0  0  0  0  0
  180.4360  177.6610  141.6760 C   0  0  0  0  0  2  0  0  0  0  0  0
  180.6410  177.2130  140.2390 C   0  0  0  0  0  2  0  0  0  0  0  0
  179.7300  177.9820  139.2960 C   0  0  0  0  0  2  0  0  0  0  0  0
  180.4630  178.3260  138.0810 N   0  0  0  0  0  0  0  0  0  0  0  0
  180.0420  176.3900  136.8520 O   0  0  0  0  0  0  0  0  0  0  0  0
  180.8800  177.2600  137.2160 C   0  0  0  0  0  0  0  0  0  0  0  0
  181.7260  181.9170  138.3830 C   0  0  0  0  0  2  0  0  0  0  0  0
  181.3990  180.4790  138.6740 C   0  0  0  0  0  2  0  0  0  0  0  0
  180.2990  180.2900  136.5500 N   0  0  0  0  0  0  0  0  0  0  0  0
  180.7680  179.7040  137.7770 C   0  0  0  0  0  0  0  0  0  0  0  0
  180.6990  182.5280  137.4350 C   0  0  0  0  0  2  0  0  0  0  0  0
  180.6130  181.6670  136.1790 C   0  0  0  0  0  2  0  0  0  0  0  0
  182.5980  177.5780  135.6200 O   0  0  0  0  0  0  0  0  0  0  0  0
  182.2760  177.1460  136.7620 C   0  0  0  0  0  0  0  0  0  0  0  0
  183.2270  176.5620  137.6150 O   0  0  0  0  0  0  0  0  0  0  0  0
  183.1380  175.2810  138.1870 C   0  0  0  0  0  3  0  0  0  0  0  0
  183.7750  174.2210  137.7210 C   0  0  0  0  0  2  0  0  0  0  0  0
  186.5160  178.0410  137.4080 C   0  0  0  0  0  2  0  0  0  0  0  0
  186.5270  176.5340  137.1750 C   0  0  0  0  0  2  0  0  0  0  0  0
  187.6460  176.1390  136.3290 N   0  0  0  0  0  2  0  0  0  0  0  0
  188.1890  174.8870  136.8420 C   0  0  0  0  0  2  0  0  0  0  0  0
  189.6010  174.6690  136.3240 C   0  0  0  0  0  2  0  0  0  0  0  0
  190.4270  175.9290  136.5170 C   0  0  0  0  0  2  0  0  0  0  0  0
  191.5870  175.6440  137.3420 N   0  0  0  0  0  0  0  0  0  0  0  0
  191.2310  174.6460  138.1870 O   0  0  0  0  0  1  0  0  0  0  0  0
  192.6000  175.1020  136.4510 C   0  0  0  0  0  2  0  0  0  0  0  0
  193.9420  175.6370  136.8140 C   0  0  0  0  0  0  0  0  0  0  0  0
  194.1500  176.8810  136.8080 O   0  0  0  0  0  0  0  0  0  0  0  0
  194.9800  174.7630  137.1070 O   0  0  0  0  0  1  0  0  0  0  0  0
  1  4  1  0  0  0  0
  1 24  1  1  0  0  0
  2  1  1  0  0  0  0
  3  6  1  6  0  0  0
  3 10  1  0  0  0  0
  3  4  1  0  0  0  0
  5  6  2  0  0  0  0
  7  6  1  0  0  0  0
  7  2  1  0  0  0  0
  8 14  2  0  0  0  0
  8 12  1  0  0  0  0
  9 17  1  0  0  0  0
 10 13  1  6  0  0  0
 10  8  1  0  0  0  0
 10 14  1  0  0  0  0
 11  9  2  0  0  0  0
 12 15  2  0  0  0  0
 14 11  1  0  0  0  0
 15  9  1  0  0  0  0
 17 16  2  0  0  0  0
 17 18  1  0  0  0  0
 18 20  1  0  0  0  0
 20 19  1  0  0  0  0
 21 22  1  0  0  0  0
 23 22  2  0  0  0  0
 24 23  1  0  0  0  0
 25 21  2  0  0  0  0
 26 24  2  0  0  0  0
 26 25  1  0  0  0  0
 27 25  1  0  0  0  0
 28 27  1  0  0  0  0
 29 28  1  0  0  0  0
 30 29  1  0  0  0  0
 31 30  1  0  0  0  0
 32 33  2  0  0  0  0
 33 31  1  0  0  0  0
 34 35  1  0  0  0  0
 36 37  2  0  0  0  0
 37 31  1  0  0  0  0
 37 35  1  0  0  0  0
 38 34  1  0  0  0  0
 39 36  1  0  0  0  0
 39 38  1  0  0  0  0
 40 41  2  0  0  0  0
 41 33  1  0  0  0  0
 41 42  1  0  0  0  0
 42 43  1  0  0  0  0
 44 43  2  0  0  0  0
 45  7  1  0  0  0  0
 46 45  1  0  0  0  0
 47 48  1  0  0  0  0
 47 46  1  0  0  0  0
 49 50  1  0  0  0  0
 49 48  1  0  0  0  0
 50 51  1  0  0  0  0
 51 52  1  0  0  0  0
 53 54  1  0  0  0  0
 53 51  1  0  0  0  0
 54 56  1  0  0  0  0
 55 54  2  0  0  0  0
M  END
>  <MODEL>
4

>  <REMARK>
 VINA RESULT:      -6.4      2.839      8.236
  Name = 
  23 active torsions:
  status: ('A' for Active; 'I' for Inactive)
    1  A    between atoms: C_6  and  C_15
    2  A    between atoms: C_6  and  N_56
    3  A    between atoms: C_8  and  C_44
    4  A    between atoms: N_9  and  C_15
    5  A    between atoms: N_9  and  C_31
    6  A    between atoms: C_10  and  C_22
    7  A    between atoms: C_13  and  N_23
    8  A    between atoms: C_13  and  C_30
    9  A    between atoms: C_14  and  O_33
   10  A    between atoms: C_16  and  C_48
   11  A    between atoms: C_17  and  N_23
   12  A    between atoms: C_24  and  C_35
   13  A    between atoms: C_25  and  C_41
   14  A    between atoms: C_28  and  C_31
   15  A    between atoms: C_28  and  C_34
   16  A    between atoms: C_30  and  C_47
   17  A    between atoms: O_33  and  C_36
   18  A    between atoms: C_34  and  N_43
   19  A    between atoms: C_36  and  C_55
   20  A    between atoms: C_37  and  C_39
   21  A    between atoms: C_39  and  C_47
   22  A    between atoms: C_41  and  C_48
   23  A    between atoms: N_43  and  C_44
                            x       y       z     vdW  Elec       q    Type
                         _______ _______ _______ _____ _____    ______ ____

>  <TORSDO>
F 23

$$$$
=
 OpenBabel10222417163D

 56 60  0  0  1  0  0  0  0  0999 V2000
  187.8080  177.6340  141.8560 C   0  0  2  0  0  3  0  0  0  0  0  0
  188.8140  178.3460  142.7570 C   0  0  0  0  0  2  0  0  0  0  0  0
  189.3690  177.2130  140.0910 C   0  0  2  0  0  3  0  0  0  0  0  0
  188.1380  177.9180  140.4600 N   0  0  0  0  0  2  0  0  0  0  0  0
  191.6860  177.3220  140.7180 O   0  0  0  0  0  0  0  0  0  0  0  0
  190.4890  177.5240  141.0590 C   0  0  0  0  0  0  0  0  0  0  0  0
  190.1810  177.9720  142.3930 N   0  0  0  0  0  0  0  0  0  0  0  0
  189.2560  176.7470  137.6640 C   0  0  0  0  0  0  0  0  0  0  0  0
  191.0990  175.1530  136.4340 C   0  0  0  0  0  0  0  0  0  0  0  0
  189.7500  177.5960  138.6630 C   0  0  1  0  0  0  0  0  0  0  0  0
  191.6560  176.0010  137.4640 C   0  0  0  0  0  3  0  0  0  0  0  0
  188.6650  175.9720  136.7160 C   0  0  0  0  0  3  0  0  0  0  0  0
  189.8010  178.9300  138.3010 F   0  0  0  0  0  0  0  0  0  0  0  0
  190.6740  176.7630  138.0200 C   0  0  0  0  0  0  0  0  0  0  0  0
  189.6680  175.1500  136.0910 C   0  0  0  0  0  3  0  0  0  0  0  0
  193.0180  174.7260  135.1000 O   0  0  0  0  0  0  0  0  0  0  0  0
  191.9990  174.2560  135.6770 C   0  0  0  0  0  0  0  0  0  0  0  0
  191.7480  172.7800  135.6060 C   0  0  0  0  0  2  0  0  0  0  0  0
  193.2510  170.9980  134.8920 N   0  0  0  0  0  1  0  0  0  0  0  0
  193.0160  172.0010  135.9190 C   0  0  0  0  0  2  0  0  0  0  0  0
  183.7760  178.8580  142.7500 C   0  0  0  0  0  3  0  0  0  0  0  0
  184.6130  178.4330  143.7840 C   0  0  0  0  0  3  0  0  0  0  0  0
  185.9210  178.0330  143.5030 C   0  0  0  0  0  3  0  0  0  0  0  0
  186.4090  178.0670  142.1880 C   0  0  0  0  0  0  0  0  0  0  0  0
  184.2460  178.8860  141.4360 C   0  0  0  0  0  0  0  0  0  0  0  0
  185.5620  178.4940  141.1530 C   0  0  0  0  0  3  0  0  0  0  0  0
  183.3210  179.2720  140.3390 C   0  0  0  0  0  2  0  0  0  0  0  0
  183.9790  179.1110  138.9740 C   0  0  0  0  0  2  0  0  0  0  0  0
  183.5620  177.7880  138.3560 C   0  0  0  0  0  2  0  0  0  0  0  0
  184.4570  177.4320  137.1800 C   0  0  0  0  0  2  0  0  0  0  0  0
  183.9170  176.2630  136.4920 N   0  0  0  0  0  0  0  0  0  0  0  0
  182.5950  177.3610  134.9150 O   0  0  0  0  0  0  0  0  0  0  0  0
  182.7000  176.4180  135.7460 C   0  0  0  0  0  0  0  0  0  0  0  0
  185.1300  172.8780  137.7740 C   0  0  0  0  0  2  0  0  0  0  0  0
  184.4400  174.2080  137.6590 C   0  0  0  0  0  2  0  0  0  0  0  0
  185.5130  174.5930  135.5490 N   0  0  0  0  0  0  0  0  0  0  0  0
  184.5890  174.9890  136.5770 C   0  0  0  0  0  0  0  0  0  0  0  0
  186.4520  172.8820  137.0130 C   0  0  0  0  0  2  0  0  0  0  0  0
  186.1890  173.2990  135.5690 C   0  0  0  0  0  2  0  0  0  0  0  0
  181.3320  174.5940  135.1130 O   0  0  0  0  0  0  0  0  0  0  0  0
  181.5580  175.5110  135.9510 C   0  0  0  0  0  0  0  0  0  0  0  0
  180.7440  175.6800  137.0830 O   0  0  0  0  0  0  0  0  0  0  0  0
  180.8140  174.9210  138.2640 C   0  0  0  0  0  3  0  0  0  0  0  0
  181.0310  175.4390  139.4600 C   0  0  0  0  0  2  0  0  0  0  0  0
  191.2480  178.3200  143.3200 C   0  0  0  0  0  2  0  0  0  0  0  0
  191.7040  177.0950  144.1050 C   0  0  0  0  0  2  0  0  0  0  0  0
  191.6540  177.3400  145.5410 N   0  0  0  0  0  2  0  0  0  0  0  0
  190.3990  176.8050  146.0540 C   0  0  0  0  0  2  0  0  0  0  0  0
  190.2770  177.0750  147.5450 C   0  0  0  0  0  2  0  0  0  0  0  0
  189.1950  178.1090  147.8020 C   0  0  0  0  0  2  0  0  0  0  0  0
  187.8870  177.4790  147.7770 N   0  0  0  0  0  0  0  0  0  0  0  0
  187.2560  177.8410  148.9210 O   0  0  0  0  0  1  0  0  0  0  0  0
  187.1580  178.0950  146.6790 C   0  0  0  0  0  2  0  0  0  0  0  0
  185.9730  178.8330  147.2010 C   0  0  0  0  0  0  0  0  0  0  0  0
  186.1080  179.9970  147.6660 O   0  0  0  0  0  1  0  0  0  0  0  0
  184.7300  178.2170  147.2260 O   0  0  0  0  0  0  0  0  0  0  0  0
  1 24  1  1  0  0  0
  1  2  1  0  0  0  0
  3  4  1  1  0  0  0
  3  6  1  0  0  0  0
  4  1  1  0  0  0  0
  5  6  2  0  0  0  0
  6  7  1  0  0  0  0
  7  2  1  0  0  0  0
  7 45  1  0  0  0  0
  8 14  1  0  0  0  0
  8 10  1  0  0  0  0
  9 11  1  0  0  0  0
 10 13  1  6  0  0  0
 10  3  1  0  0  0  0
 11 14  2  0  0  0  0
 12  8  2  0  0  0  0
 14 10  1  0  0  0  0
 15  9  2  0  0  0  0
 15 12  1  0  0  0  0
 16 17  2  0  0  0  0
 17  9  1  0  0  0  0
 18 17  1  0  0  0  0
 18 20  1  0  0  0  0
 19 20  1  0  0  0  0
 21 22  1  0  0  0  0
 23 22  2  0  0  0  0
 24 23  1  0  0  0  0
 25 21  2  0  0  0  0
 26 25  1  0  0  0  0
 26 24  2  0  0  0  0
 27 25  1  0  0  0  0
 28 27  1  0  0  0  0
 29 28  1  0  0  0  0
 30 29  1  0  0  0  0
 31 37  1  0  0  0  0
 31 30  1  0  0  0  0
 32 33  2  0  0  0  0
 33 41  1  0  0  0  0
 33 31  1  0  0  0  0
 35 34  1  0  0  0  0
 36 39  1  0  0  0  0
 36 37  2  0  0  0  0
 37 35  1  0  0  0  0
 38 34  1  0  0  0  0
 39 38  1  0  0  0  0
 40 41  2  0  0  0  0
 41 42  1  0  0  0  0
 42 43  1  0  0  0  0
 43 44  2  0  0  0  0
 45 46  1  0  0  0  0
 46 47  1  0  0  0  0
 47 48  1  0  0  0  0
 48 49  1  0  0  0  0
 49 50  1  0  0  0  0
 51 50  1  0  0  0  0
 51 52  1  0  0  0  0
 53 54  1  0  0  0  0
 53 51  1  0  0  0  0
 54 56  2  0  0  0  0
 54 55  1  0  0  0  0
M  END
>  <MODEL>
5

>  <REMARK>
 VINA RESULT:      -6.1      3.558      8.803
  Name = 
  23 active torsions:
  status: ('A' for Active; 'I' for Inactive)
    1  A    between atoms: C_6  and  C_15
    2  A    between atoms: C_6  and  N_56
    3  A    between atoms: C_8  and  C_44
    4  A    between atoms: N_9  and  C_15
    5  A    between atoms: N_9  and  C_31
    6  A    between atoms: C_10  and  C_22
    7  A    between atoms: C_13  and  N_23
    8  A    between atoms: C_13  and  C_30
    9  A    between atoms: C_14  and  O_33
   10  A    between atoms: C_16  and  C_48
   11  A    between atoms: C_17  and  N_23
   12  A    between atoms: C_24  and  C_35
   13  A    between atoms: C_25  and  C_41
   14  A    between atoms: C_28  and  C_31
   15  A    between atoms: C_28  and  C_34
   16  A    between atoms: C_30  and  C_47
   17  A    between atoms: O_33  and  C_36
   18  A    between atoms: C_34  and  N_43
   19  A    between atoms: C_36  and  C_55
   20  A    between atoms: C_37  and  C_39
   21  A    between atoms: C_39  and  C_47
   22  A    between atoms: C_41  and  C_48
   23  A    between atoms: N_43  and  C_44
                            x       y       z     vdW  Elec       q    Type
                         _______ _______ _______ _____ _____    ______ ____

>  <TORSDO>
F 23

$$$$
=
 OpenBabel10222417163D

 56 60  0  0  1  0  0  0  0  0999 V2000
  184.4320  178.2070  141.9890 C   0  0  2  0  0  3  0  0  0  0  0  0
  184.5150  178.7750  143.4030 C   0  0  0  0  0  2  0  0  0  0  0  0
  186.7980  177.9640  141.7210 C   0  0  2  0  0  3  0  0  0  0  0  0
  185.6010  178.6520  141.2300 N   0  0  0  0  0  2  0  0  0  0  0  0
  188.0670  177.9310  143.7620 O   0  0  0  0  0  0  0  0  0  0  0  0
  186.9450  178.1220  143.2180 C   0  0  0  0  0  0  0  0  0  0  0  0
  185.7880  178.4110  144.0260 N   0  0  0  0  0  0  0  0  0  0  0  0
  187.9540  178.4460  139.5870 C   0  0  0  0  0  0  0  0  0  0  0  0
  189.5750  176.6000  138.3990 C   0  0  0  0  0  0  0  0  0  0  0  0
  188.0190  178.5090  140.9850 C   0  0  1  0  0  0  0  0  0  0  0  0
  189.6710  176.6190  139.8420 C   0  0  0  0  0  3  0  0  0  0  0  0
  187.8070  178.4760  138.2360 C   0  0  0  0  0  3  0  0  0  0  0  0
  188.6710  179.6280  141.4720 F   0  0  0  0  0  0  0  0  0  0  0  0
  188.8370  177.5660  140.3510 C   0  0  0  0  0  0  0  0  0  0  0  0
  188.6780  177.4920  137.6480 C   0  0  0  0  0  3  0  0  0  0  0  0
  190.6620  174.5090  138.0980 O   0  0  0  0  0  0  0  0  0  0  0  0
  190.4200  175.6570  137.6340 C   0  0  0  0  0  0  0  0  0  0  0  0
  190.9730  176.0210  136.2890 C   0  0  0  0  0  2  0  0  0  0  0  0
  192.8900  175.0800  135.1120 N   0  0  0  0  0  1  0  0  0  0  0  0
  192.4860  175.8660  136.2680 C   0  0  0  0  0  2  0  0  0  0  0  0
  180.7860  179.4110  140.0350 C   0  0  0  0  0  3  0  0  0  0  0  0
  180.7630  179.0700  141.3890 C   0  0  0  0  0  3  0  0  0  0  0  0
  181.9390  178.6780  142.0300 C   0  0  0  0  0  3  0  0  0  0  0  0
  183.1530  178.6350  141.3270 C   0  0  0  0  0  0  0  0  0  0  0  0
  181.9850  179.3620  139.3220 C   0  0  0  0  0  0  0  0  0  0  0  0
  183.1690  178.9780  139.9660 C   0  0  0  0  0  3  0  0  0  0  0  0
  181.9800  179.6590  137.8650 C   0  0  0  0  0  2  0  0  0  0  0  0
  180.5670  179.6260  137.2970 C   0  0  0  0  0  2  0  0  0  0  0  0
  180.2550  178.2330  136.7790 C   0  0  0  0  0  2  0  0  0  0  0  0
  181.1430  177.8820  135.5960 C   0  0  0  0  0  2  0  0  0  0  0  0
  181.5360  176.4780  135.6790 N   0  0  0  0  0  0  0  0  0  0  0  0
  179.6990  175.5320  134.5990 O   0  0  0  0  0  0  0  0  0  0  0  0
  180.5120  175.4800  135.5620 C   0  0  0  0  0  0  0  0  0  0  0  0
  185.0370  176.2340  137.1830 C   0  0  0  0  0  2  0  0  0  0  0  0
  183.5970  176.5930  136.9430 C   0  0  0  0  0  2  0  0  0  0  0  0
  183.6120  175.3300  134.9040 N   0  0  0  0  0  0  0  0  0  0  0  0
  182.9180  176.1170  135.8880 C   0  0  0  0  0  0  0  0  0  0  0  0
  185.7600  175.9740  135.8650 C   0  0  0  0  0  2  0  0  0  0  0  0
  184.9970  174.9060  135.0860 C   0  0  0  0  0  2  0  0  0  0  0  0
  180.8050  173.2490  136.2970 O   0  0  0  0  0  0  0  0  0  0  0  0
  180.3740  174.4060  136.5610 C   0  0  0  0  0  0  0  0  0  0  0  0
  179.7700  174.6940  137.7960 O   0  0  0  0  0  0  0  0  0  0  0  0
  179.8550  173.9030  138.9550 C   0  0  0  0  0  3  0  0  0  0  0  0
  179.7060  174.3730  140.1810 C   0  0  0  0  0  2  0  0  0  0  0  0
  185.9210  178.6120  145.4620 C   0  0  0  0  0  2  0  0  0  0  0  0
  186.6350  177.4310  146.1110 C   0  0  0  0  0  2  0  0  0  0  0  0
  187.5790  177.8790  147.1270 N   0  0  0  0  0  2  0  0  0  0  0  0
  188.3500  176.7260  147.5760 C   0  0  0  0  0  2  0  0  0  0  0  0
  189.8390  177.0270  147.5110 C   0  0  0  0  0  2  0  0  0  0  0  0
  190.2610  177.2660  146.0720 C   0  0  0  0  0  2  0  0  0  0  0  0
  191.6910  177.0590  145.9290 N   0  0  0  0  0  0  0  0  0  0  0  0
  192.1470  176.6350  147.1340 O   0  0  0  0  0  1  0  0  0  0  0  0
  191.8520  175.9500  145.0020 C   0  0  0  0  0  2  0  0  0  0  0  0
  191.3490  176.3320  143.6530 C   0  0  0  0  0  0  0  0  0  0  0  0
  190.5160  175.5970  143.0570 O   0  0  0  0  0  1  0  0  0  0  0  0
  191.8380  177.4710  143.0280 O   0  0  0  0  0  0  0  0  0  0  0  0
  1 24  1  6  0  0  0
  1  2  1  0  0  0  0
  2  7  1  0  0  0  0
  3  4  1  6  0  0  0
  3  6  1  0  0  0  0
  4  1  1  0  0  0  0
  6  5  2  0  0  0  0
  6  7  1  0  0  0  0
  7 45  1  0  0  0  0
  8 14  1  0  0  0  0
  8 10  1  0  0  0  0
  9 11  1  0  0  0  0
 10 13  1  1  0  0  0
 10  3  1  0  0  0  0
 11 14  2  0  0  0  0
 12  8  2  0  0  0  0
 14 10  1  0  0  0  0
 15 12  1  0  0  0  0
 15  9  2  0  0  0  0
 17 16  2  0  0  0  0
 17  9  1  0  0  0  0
 18 17  1  0  0  0  0
 19 20  1  0  0  0  0
 20 18  1  0  0  0  0
 21 22  1  0  0  0  0
 22 23  2  0  0  0  0
 24 23  1  0  0  0  0
 25 26  1  0  0  0  0
 25 21  2  0  0  0  0
 26 24  2  0  0  0  0
 27 25  1  0  0  0  0
 28 27  1  0  0  0  0
 29 28  1  0  0  0  0
 30 31  1  0  0  0  0
 30 29  1  0  0  0  0
 31 37  1  0  0  0  0
 32 33  2  0  0  0  0
 33 31  1  0  0  0  0
 33 41  1  0  0  0  0
 35 34  1  0  0  0  0
 36 39  1  0  0  0  0
 36 37  2  0  0  0  0
 37 35  1  0  0  0  0
 38 34  1  0  0  0  0
 39 38  1  0  0  0  0
 40 41  2  0  0  0  0
 41 42  1  0  0  0  0
 42 43  1  0  0  0  0
 43 44  2  0  0  0  0
 45 46  1  0  0  0  0
 46 47  1  0  0  0  0
 47 48  1  0  0  0  0
 49 48  1  0  0  0  0
 50 49  1  0  0  0  0
 51 50  1  0  0  0  0
 51 52  1  0  0  0  0
 53 51  1  0  0  0  0
 54 53  1  0  0  0  0
 55 54  1  0  0  0  0
 56 54  2  0  0  0  0
M  END
>  <MODEL>
6

>  <REMARK>
 VINA RESULT:      -6.0      3.247      8.234
  Name = 
  23 active torsions:
  status: ('A' for Active; 'I' for Inactive)
    1  A    between atoms: C_6  and  C_15
    2  A    between atoms: C_6  and  N_56
    3  A    between atoms: C_8  and  C_44
    4  A    between atoms: N_9  and  C_15
    5  A    between atoms: N_9  and  C_31
    6  A    between atoms: C_10  and  C_22
    7  A    between atoms: C_13  and  N_23
    8  A    between atoms: C_13  and  C_30
    9  A    between atoms: C_14  and  O_33
   10  A    between atoms: C_16  and  C_48
   11  A    between atoms: C_17  and  N_23
   12  A    between atoms: C_24  and  C_35
   13  A    between atoms: C_25  and  C_41
   14  A    between atoms: C_28  and  C_31
   15  A    between atoms: C_28  and  C_34
   16  A    between atoms: C_30  and  C_47
   17  A    between atoms: O_33  and  C_36
   18  A    between atoms: C_34  and  N_43
   19  A    between atoms: C_36  and  C_55
   20  A    between atoms: C_37  and  C_39
   21  A    between atoms: C_39  and  C_47
   22  A    between atoms: C_41  and  C_48
   23  A    between atoms: N_43  and  C_44
                            x       y       z     vdW  Elec       q    Type
                         _______ _______ _______ _____ _____    ______ ____

>  <TORSDO>
F 23

$$$$
=
 OpenBabel10222417163D

 56 60  0  0  1  0  0  0  0  0999 V2000
  188.1780  177.5580  142.2480 C   0  0  2  0  0  3  0  0  0  0  0  0
  189.1030  178.4090  143.1150 C   0  0  0  0  0  2  0  0  0  0  0  0
  189.8420  177.0500  140.6040 C   0  0  2  0  0  3  0  0  0  0  0  0
  188.5610  177.7210  140.8460 N   0  0  0  0  0  2  0  0  0  0  0  0
  192.1180  177.3440  141.3170 O   0  0  0  0  0  0  0  0  0  0  0  0
  190.8970  177.5140  141.5830 C   0  0  0  0  0  0  0  0  0  0  0  0
  190.5030  178.0750  142.8500 N   0  0  0  0  0  0  0  0  0  0  0  0
  190.2600  176.1870  138.3230 C   0  0  0  0  0  0  0  0  0  0  0  0
  192.7040  175.2150  137.5950 C   0  0  0  0  0  0  0  0  0  0  0  0
  190.2720  177.3090  139.1630 C   0  0  1  0  0  0  0  0  0  0  0  0
  192.7700  176.3640  138.4700 C   0  0  0  0  0  3  0  0  0  0  0  0
  190.1240  175.1050  137.5110 C   0  0  0  0  0  3  0  0  0  0  0  0
  189.9060  178.4890  138.5390 F   0  0  0  0  0  0  0  0  0  0  0  0
  191.5140  176.7860  138.7790 C   0  0  0  0  0  0  0  0  0  0  0  0
  191.4320  174.6250  137.1480 C   0  0  0  0  0  3  0  0  0  0  0  0
  194.4020  174.8950  135.9660 O   0  0  0  0  0  0  0  0  0  0  0  0
  193.9620  174.6060  137.1120 C   0  0  0  0  0  0  0  0  0  0  0  0
  194.7560  173.6700  137.9730 C   0  0  0  0  0  2  0  0  0  0  0  0
  195.4680  171.3580  138.2750 N   0  0  0  0  0  1  0  0  0  0  0  0
  194.7070  172.2550  137.4180 C   0  0  0  0  0  2  0  0  0  0  0  0
  184.0540  178.6520  142.8370 C   0  0  0  0  0  3  0  0  0  0  0  0
  184.8310  178.2770  143.9340 C   0  0  0  0  0  3  0  0  0  0  0  0
  186.1680  177.9200  143.7530 C   0  0  0  0  0  3  0  0  0  0  0  0
  186.7450  177.9470  142.4740 C   0  0  0  0  0  0  0  0  0  0  0  0
  184.6130  178.6720  141.5580 C   0  0  0  0  0  0  0  0  0  0  0  0
  185.9580  178.3240  141.3740 C   0  0  0  0  0  3  0  0  0  0  0  0
  183.7530  179.0050  140.3910 C   0  0  0  0  0  2  0  0  0  0  0  0
  182.2750  178.8770  140.7360 C   0  0  0  0  0  2  0  0  0  0  0  0
  181.4340  179.1930  139.5110 C   0  0  0  0  0  2  0  0  0  0  0  0
  182.2800  179.1640  138.2490 C   0  0  0  0  0  2  0  0  0  0  0  0
  181.9030  178.0130  137.4340 N   0  0  0  0  0  0  0  0  0  0  0  0
  179.9260  178.8540  136.5280 O   0  0  0  0  0  0  0  0  0  0  0  0
  180.5270  177.8760  137.0510 C   0  0  0  0  0  0  0  0  0  0  0  0
  184.4930  176.0870  135.3940 C   0  0  0  0  0  2  0  0  0  0  0  0
  183.4620  177.0900  135.8280 C   0  0  0  0  0  3  0  0  0  0  0  0
  183.1980  175.9340  137.9130 N   0  0  0  0  0  2  0  0  0  0  0  0
  182.8930  177.0380  137.0430 C   0  0  0  0  0  0  0  0  0  0  0  0
  184.2580  174.7380  136.0690 C   0  0  0  0  0  2  0  0  0  0  0  0
  184.2180  174.9430  137.5800 C   0  0  0  0  0  2  0  0  0  0  0  0
  179.3670  176.3480  138.4370 O   0  0  0  0  0  0  0  0  0  0  0  0
  179.7920  176.6200  137.2800 C   0  0  0  0  0  0  0  0  0  0  0  0
  179.5710  175.7500  136.2000 O   0  0  0  0  0  0  0  0  0  0  0  0
  180.4040  174.6800  135.8260 C   0  0  0  0  0  3  0  0  0  0  0  0
  180.1430  173.8600  134.8240 C   0  0  0  0  0  2  0  0  0  0  0  0
  191.5050  178.5690  143.7820 C   0  0  0  0  0  2  0  0  0  0  0  0
  191.1920  178.1170  145.2050 C   0  0  0  0  0  2  0  0  0  0  0  0
  191.4080  176.6840  145.3610 N   0  0  0  0  0  2  0  0  0  0  0  0
  191.3800  176.3690  146.7840 C   0  0  0  0  0  2  0  0  0  0  0  0
  190.3390  177.2190  147.4950 C   0  0  0  0  0  2  0  0  0  0  0  0
  188.9580  176.6140  147.3110 C   0  0  0  0  0  2  0  0  0  0  0  0
  187.9560  177.4550  147.9420 N   0  0  0  0  0  0  0  0  0  0  0  0
  188.6160  178.2770  148.7960 O   0  0  0  0  0  1  0  0  0  0  0  0
  187.4060  178.2950  146.8890 C   0  0  0  0  0  2  0  0  0  0  0  0
  186.1150  178.8930  147.3330 C   0  0  0  0  0  0  0  0  0  0  0  0
  185.0620  178.1990  147.3290 O   0  0  0  0  0  0  0  0  0  0  0  0
  186.0610  180.2300  147.7000 O   0  0  0  0  0  1  0  0  0  0  0  0
  1 24  1  6  0  0  0
  1  2  1  0  0  0  0
  3  4  1  1  0  0  0
  3  6  1  0  0  0  0
  4  1  1  0  0  0  0
  5  6  2  0  0  0  0
  6  7  1  0  0  0  0
  7  2  1  0  0  0  0
  7 45  1  0  0  0  0
  8 14  1  0  0  0  0
  8 10  1  0  0  0  0
  9 11  1  0  0  0  0
 10 13  1  6  0  0  0
 10  3  1  0  0  0  0
 11 14  2  0  0  0  0
 12  8  2  0  0  0  0
 14 10  1  0  0  0  0
 15 12  1  0  0  0  0
 15  9  2  0  0  0  0
 16 17  2  0  0  0  0
 17  9  1  0  0  0  0
 17 18  1  0  0  0  0
 20 18  1  0  0  0  0
 20 19  1  0  0  0  0
 21 22  1  0  0  0  0
 23 22  2  0  0  0  0
 24 23  1  0  0  0  0
 25 21  2  0  0  0  0
 26 25  1  0  0  0  0
 26 24  2  0  0  0  0
 27 28  1  0  0  0  0
 27 25  1  0  0  0  0
 29 28  1  0  0  0  0
 30 29  1  0  0  0  0
 31 30  1  0  0  0  0
 32 33  2  0  0  0  0
 33 41  1  0  0  0  0
 33 31  1  0  0  0  0
 34 35  1  0  0  0  0
 34 38  1  0  0  0  0
 35 37  2  0  0  0  0
 37 31  1  0  0  0  0
 37 36  1  0  0  0  0
 38 39  1  0  0  0  0
 39 36  1  0  0  0  0
 41 40  2  0  0  0  0
 42 41  1  0  0  0  0
 43 42  1  0  0  0  0
 44 43  2  0  0  0  0
 45 46  1  0  0  0  0
 46 47  1  0  0  0  0
 47 48  1  0  0  0  0
 48 49  1  0  0  0  0
 50 49  1  0  0  0  0
 50 51  1  0  0  0  0
 51 52  1  0  0  0  0
 53 54  1  0  0  0  0
 53 51  1  0  0  0  0
 54 56  1  0  0  0  0
 55 54  2  0  0  0  0
M  END
>  <MODEL>
7

>  <REMARK>
 VINA RESULT:      -5.9      3.251      9.199
  Name = 
  23 active torsions:
  status: ('A' for Active; 'I' for Inactive)
    1  A    between atoms: C_6  and  C_15
    2  A    between atoms: C_6  and  N_56
    3  A    between atoms: C_8  and  C_44
    4  A    between atoms: N_9  and  C_15
    5  A    between atoms: N_9  and  C_31
    6  A    between atoms: C_10  and  C_22
    7  A    between atoms: C_13  and  N_23
    8  A    between atoms: C_13  and  C_30
    9  A    between atoms: C_14  and  O_33
   10  A    between atoms: C_16  and  C_48
   11  A    between atoms: C_17  and  N_23
   12  A    between atoms: C_24  and  C_35
   13  A    between atoms: C_25  and  C_41
   14  A    between atoms: C_28  and  C_31
   15  A    between atoms: C_28  and  C_34
   16  A    between atoms: C_30  and  C_47
   17  A    between atoms: O_33  and  C_36
   18  A    between atoms: C_34  and  N_43
   19  A    between atoms: C_36  and  C_55
   20  A    between atoms: C_37  and  C_39
   21  A    between atoms: C_39  and  C_47
   22  A    between atoms: C_41  and  C_48
   23  A    between atoms: N_43  and  C_44
                            x       y       z     vdW  Elec       q    Type
                         _______ _______ _______ _____ _____    ______ ____

>  <TORSDO>
F 23

$$$$
=
 OpenBabel10222417163D

 56 60  0  0  1  0  0  0  0  0999 V2000
  189.6240  176.8980  138.1850 C   0  0  2  0  0  3  0  0  0  0  0  0
  190.5870  175.8190  137.6990 C   0  0  0  0  0  2  0  0  0  0  0  0
  190.9590  177.5390  140.0650 C   0  0  2  0  0  3  0  0  0  0  0  0
  189.6790  176.9600  139.6450 N   0  0  0  0  0  2  0  0  0  0  0  0
  193.2730  176.9040  139.9490 O   0  0  0  0  0  0  0  0  0  0  0  0
  192.1240  176.8050  139.4400 C   0  0  0  0  0  0  0  0  0  0  0  0
  191.9330  176.0610  138.2220 N   0  0  0  0  0  0  0  0  0  0  0  0
  190.2410  176.5410  142.2130 C   0  0  0  0  0  0  0  0  0  0  0  0
  188.0610  177.4800  143.5600 C   0  0  0  0  0  0  0  0  0  0  0  0
  191.0400  177.5090  141.5890 C   0  0  1  0  0  0  0  0  0  0  0  0
  188.8460  178.5160  142.9260 C   0  0  0  0  0  3  0  0  0  0  0  0
  189.5450  175.5170  142.7750 C   0  0  0  0  0  3  0  0  0  0  0  0
  192.2530  177.7330  142.2160 F   0  0  0  0  0  0  0  0  0  0  0  0
  189.9110  177.9640  142.2830 C   0  0  0  0  0  0  0  0  0  0  0  0
  188.4080  176.0530  143.4770 C   0  0  0  0  0  3  0  0  0  0  0  0
  185.7290  177.8610  143.7920 O   0  0  0  0  0  0  0  0  0  0  0  0
  186.8640  177.8610  144.3410 C   0  0  0  0  0  0  0  0  0  0  0  0
  186.9610  178.2170  145.7940 C   0  0  0  0  0  2  0  0  0  0  0  0
  184.8930  178.7480  146.9700 N   0  0  0  0  0  1  0  0  0  0  0  0
  185.7740  177.6630  146.5650 C   0  0  0  0  0  2  0  0  0  0  0  0
  185.6160  176.1420  136.8000 C   0  0  0  0  0  3  0  0  0  0  0  0
  186.6480  175.2810  136.4250 C   0  0  0  0  0  3  0  0  0  0  0  0
  187.9510  175.5190  136.8680 C   0  0  0  0  0  3  0  0  0  0  0  0
  188.2300  176.6130  137.7020 C   0  0  0  0  0  0  0  0  0  0  0  0
  185.8820  177.2400  137.6190 C   0  0  0  0  0  0  0  0  0  0  0  0
  187.1870  177.4750  138.0730 C   0  0  0  0  0  3  0  0  0  0  0  0
  184.7850  178.1870  137.9500 C   0  0  0  0  0  2  0  0  0  0  0  0
  183.5790  177.4590  138.5300 C   0  0  0  0  0  2  0  0  0  0  0  0
  182.3110  177.9460  137.8510 C   0  0  0  0  0  2  0  0  0  0  0  0
  181.1130  177.8090  138.7760 C   0  0  0  0  0  2  0  0  0  0  0  0
  180.8170  179.1020  139.3870 N   0  0  0  0  0  0  0  0  0  0  0  0
  179.6000  180.0500  137.6380 O   0  0  0  0  0  0  0  0  0  0  0  0
  180.4860  180.2000  138.5240 C   0  0  0  0  0  0  0  0  0  0  0  0
  181.9680  178.8920  143.0210 C   0  0  0  0  0  2  0  0  0  0  0  0
  181.8870  178.7400  141.5280 C   0  0  0  0  0  2  0  0  0  0  0  0
  179.7840  179.8940  141.5160 N   0  0  0  0  0  0  0  0  0  0  0  0
  180.8740  179.2640  140.8200 C   0  0  0  0  0  0  0  0  0  0  0  0
  180.5750  178.9820  143.6370 C   0  0  0  0  0  2  0  0  0  0  0  0
  179.8090  180.1150  142.9590 C   0  0  0  0  0  2  0  0  0  0  0  0
  182.4380  181.5220  138.7350 O   0  0  0  0  0  0  0  0  0  0  0  0
  181.1800  181.4950  138.6340 C   0  0  0  0  0  0  0  0  0  0  0  0
  180.4240  182.6780  138.6190 O   0  0  0  0  0  0  0  0  0  0  0  0
  180.2130  183.5020  137.5000 C   0  0  0  0  0  3  0  0  0  0  0  0
  181.1840  184.0990  136.8320 C   0  0  0  0  0  2  0  0  0  0  0  0
  193.0320  175.3110  137.6340 C   0  0  0  0  0  2  0  0  0  0  0  0
  193.6010  176.0420  136.4230 C   0  0  0  0  0  2  0  0  0  0  0  0
  193.4670  175.2420  135.2120 N   0  0  0  0  0  2  0  0  0  0  0  0
  194.7550  174.6200  134.9280 C   0  0  0  0  0  2  0  0  0  0  0  0
  195.8880  175.5880  135.2300 C   0  0  0  0  0  2  0  0  0  0  0  0
  197.0300  174.8560  135.9140 C   0  0  0  0  0  2  0  0  0  0  0  0
  196.5800  173.5590  136.3850 N   0  0  0  0  0  0  0  0  0  0  0  0
  197.0540  172.6380  135.5110 O   0  0  0  0  0  1  0  0  0  0  0  0
  197.2580  173.3270  137.6510 C   0  0  0  0  0  2  0  0  0  0  0  0
  197.1440  174.5320  138.5220 C   0  0  0  0  0  0  0  0  0  0  0  0
  198.1170  175.3240  138.6340 O   0  0  0  0  0  0  0  0  0  0  0  0
  195.9840  174.7520  139.2520 O   0  0  0  0  0  1  0  0  0  0  0  0
  1 24  1  1  0  0  0
  1  4  1  0  0  0  0
  2  1  1  0  0  0  0
  2  7  1  0  0  0  0
  3  6  1  6  0  0  0
  3 10  1  0  0  0  0
  4  3  1  0  0  0  0
  6  5  2  0  0  0  0
  7  6  1  0  0  0  0
  8 14  2  0  0  0  0
  8 12  1  0  0  0  0
  9 17  1  0  0  0  0
 10  8  1  0  0  0  0
 10 13  1  1  0  0  0
 10 14  1  0  0  0  0
 11  9  2  0  0  0  0
 12 15  2  0  0  0  0
 14 11  1  0  0  0  0
 15  9  1  0  0  0  0
 16 17  2  0  0  0  0
 17 18  1  0  0  0  0
 18 20  1  0  0  0  0
 20 19  1  0  0  0  0
 21 25  1  0  0  0  0
 22 21  2  0  0  0  0
 22 23  1  0  0  0  0
 23 24  2  0  0  0  0
 24 26  1  0  0  0  0
 25 27  1  0  0  0  0
 25 26  2  0  0  0  0
 27 28  1  0  0  0  0
 29 28  1  0  0  0  0
 29 30  1  0  0  0  0
 30 31  1  0  0  0  0
 31 37  1  0  0  0  0
 32 33  2  0  0  0  0
 33 41  1  0  0  0  0
 33 31  1  0  0  0  0
 34 38  1  0  0  0  0
 35 34  1  0  0  0  0
 36 39  1  0  0  0  0
 37 36  2  0  0  0  0
 37 35  1  0  0  0  0
 39 38  1  0  0  0  0
 41 40  2  0  0  0  0
 42 41  1  0  0  0  0
 43 42  1  0  0  0  0
 44 43  2  0  0  0  0
 45  7  1  0  0  0  0
 46 45  1  0  0  0  0
 47 46  1  0  0  0  0
 48 47  1  0  0  0  0
 48 49  1  0  0  0  0
 49 50  1  0  0  0  0
 50 51  1  0  0  0  0
 51 53  1  0  0  0  0
 52 51  1  0  0  0  0
 53 54  1  0  0  0  0
 54 55  2  0  0  0  0
 54 56  1  0  0  0  0
M  END
>  <MODEL>
8

>  <REMARK>
 VINA RESULT:      -5.7      3.613     10.826
  Name = 
  23 active torsions:
  status: ('A' for Active; 'I' for Inactive)
    1  A    between atoms: C_6  and  C_15
    2  A    between atoms: C_6  and  N_56
    3  A    between atoms: C_8  and  C_44
    4  A    between atoms: N_9  and  C_15
    5  A    between atoms: N_9  and  C_31
    6  A    between atoms: C_10  and  C_22
    7  A    between atoms: C_13  and  N_23
    8  A    between atoms: C_13  and  C_30
    9  A    between atoms: C_14  and  O_33
   10  A    between atoms: C_16  and  C_48
   11  A    between atoms: C_17  and  N_23
   12  A    between atoms: C_24  and  C_35
   13  A    between atoms: C_25  and  C_41
   14  A    between atoms: C_28  and  C_31
   15  A    between atoms: C_28  and  C_34
   16  A    between atoms: C_30  and  C_47
   17  A    between atoms: O_33  and  C_36
   18  A    between atoms: C_34  and  N_43
   19  A    between atoms: C_36  and  C_55
   20  A    between atoms: C_37  and  C_39
   21  A    between atoms: C_39  and  C_47
   22  A    between atoms: C_41  and  C_48
   23  A    between atoms: N_43  and  C_44
                            x       y       z     vdW  Elec       q    Type
                         _______ _______ _______ _____ _____    ______ ____

>  <TORSDO>
F 23

$$$$
=
 OpenBabel10222417163D

 56 60  0  0  1  0  0  0  0  0999 V2000
  188.1050  177.4560  142.2470 C   0  0  2  0  0  3  0  0  0  0  0  0
  189.1870  178.2410  142.9840 C   0  0  0  0  0  2  0  0  0  0  0  0
  189.4710  176.9530  140.3460 C   0  0  2  0  0  3  0  0  0  0  0  0
  188.2720  177.6590  140.8070 N   0  0  0  0  0  2  0  0  0  0  0  0
  191.8400  177.1400  140.7020 O   0  0  0  0  0  0  0  0  0  0  0  0
  190.6830  177.3420  141.1620 C   0  0  0  0  0  0  0  0  0  0  0  0
  190.5140  177.8680  142.4920 N   0  0  0  0  0  0  0  0  0  0  0  0
  188.5330  177.1720  138.0670 C   0  0  0  0  0  0  0  0  0  0  0  0
  188.4020  175.0390  136.3710 C   0  0  0  0  0  0  0  0  0  0  0  0
  189.6820  177.2520  138.8640 C   0  0  1  0  0  0  0  0  0  0  0  0
  189.6010  175.0690  137.1780 C   0  0  0  0  0  3  0  0  0  0  0  0
  187.3800  177.2010  137.3470 C   0  0  0  0  0  3  0  0  0  0  0  0
  190.5690  178.2440  138.4840 F   0  0  0  0  0  0  0  0  0  0  0  0
  189.5870  176.1630  137.9890 C   0  0  0  0  0  0  0  0  0  0  0  0
  187.3500  176.0630  136.4650 C   0  0  0  0  0  3  0  0  0  0  0  0
  189.2260  173.3440  134.9240 O   0  0  0  0  0  0  0  0  0  0  0  0
  188.2200  173.9430  135.3950 C   0  0  0  0  0  0  0  0  0  0  0  0
  186.8540  173.4940  134.9710 C   0  0  0  0  0  2  0  0  0  0  0  0
  186.1820  172.6140  137.1430 N   0  0  0  0  0  1  0  0  0  0  0  0
  186.4240  172.2630  135.7520 C   0  0  0  0  0  2  0  0  0  0  0  0
  184.1690  178.6680  143.5100 C   0  0  0  0  0  3  0  0  0  0  0  0
  185.1140  178.2890  144.4660 C   0  0  0  0  0  3  0  0  0  0  0  0
  186.3920  177.8940  144.0650 C   0  0  0  0  0  3  0  0  0  0  0  0
  186.7410  177.8860  142.7060 C   0  0  0  0  0  0  0  0  0  0  0  0
  184.5010  178.6540  142.1540 C   0  0  0  0  0  0  0  0  0  0  0  0
  185.7860  178.2670  141.7500 C   0  0  0  0  0  3  0  0  0  0  0  0
  183.4630  178.9910  141.1460 C   0  0  0  0  0  2  0  0  0  0  0  0
  182.1150  178.3830  141.5110 C   0  0  0  0  0  2  0  0  0  0  0  0
  181.0570  178.8510  140.5270 C   0  0  0  0  0  2  0  0  0  0  0  0
  181.6820  179.2130  139.1900 C   0  0  0  0  0  2  0  0  0  0  0  0
  181.3190  178.2100  138.1930 N   0  0  0  0  0  0  0  0  0  0  0  0
  179.2700  179.0990  137.5250 O   0  0  0  0  0  0  0  0  0  0  0  0
  179.9350  178.0740  137.8410 C   0  0  0  0  0  0  0  0  0  0  0  0
  183.8380  176.7680  135.7120 C   0  0  0  0  0  2  0  0  0  0  0  0
  182.7860  177.6250  136.3580 C   0  0  0  0  0  3  0  0  0  0  0  0
  182.7850  176.1920  138.2820 N   0  0  0  0  0  2  0  0  0  0  0  0
  182.3320  177.3720  137.5960 C   0  0  0  0  0  0  0  0  0  0  0  0
  183.7530  175.3290  136.2150 C   0  0  0  0  0  2  0  0  0  0  0  0
  183.8340  175.3330  137.7380 C   0  0  0  0  0  2  0  0  0  0  0  0
  179.0090  176.1740  136.7770 O   0  0  0  0  0  0  0  0  0  0  0  0
  179.2650  176.7630  137.8630 C   0  0  0  0  0  0  0  0  0  0  0  0
  178.9310  176.1870  139.1000 O   0  0  0  0  0  0  0  0  0  0  0  0
  179.0540  174.8270  139.4320 C   0  0  0  0  0  3  0  0  0  0  0  0
  179.8510  174.3700  140.3810 C   0  0  0  0  0  2  0  0  0  0  0  0
  191.6680  178.2910  143.2720 C   0  0  0  0  0  2  0  0  0  0  0  0
  191.5220  177.8680  144.7300 C   0  0  0  0  0  2  0  0  0  0  0  0
  191.3290  176.4280  144.8440 N   0  0  0  0  0  2  0  0  0  0  0  0
  192.0800  175.9560  146.0020 C   0  0  0  0  0  2  0  0  0  0  0  0
  191.3860  176.3720  147.2890 C   0  0  0  0  0  2  0  0  0  0  0  0
  189.8810  176.2390  147.1370 C   0  0  0  0  0  2  0  0  0  0  0  0
  189.2060  177.1860  148.0050 N   0  0  0  0  0  0  0  0  0  0  0  0
  190.1470  178.0630  148.4360 O   0  0  0  0  0  1  0  0  0  0  0  0
  188.2880  177.9340  147.1600 C   0  0  0  0  0  2  0  0  0  0  0  0
  187.1800  178.4990  147.9810 C   0  0  0  0  0  0  0  0  0  0  0  0
  187.1710  178.3340  149.2310 O   0  0  0  0  0  1  0  0  0  0  0  0
  186.1290  179.1620  147.3630 O   0  0  0  0  0  0  0  0  0  0  0  0
  1 24  1  1  0  0  0
  1  2  1  0  0  0  0
  3  4  1  1  0  0  0
  3  6  1  0  0  0  0
  4  1  1  0  0  0  0
  5  6  2  0  0  0  0
  6  7  1  0  0  0  0
  7  2  1  0  0  0  0
  7 45  1  0  0  0  0
  8 10  1  0  0  0  0
  9 15  2  0  0  0  0
  9 11  1  0  0  0  0
 10 13  1  6  0  0  0
 10  3  1  0  0  0  0
 11 14  2  0  0  0  0
 12  8  2  0  0  0  0
 14  8  1  0  0  0  0
 14 10  1  0  0  0  0
 15 12  1  0  0  0  0
 16 17  2  0  0  0  0
 17  9  1  0  0  0  0
 18 17  1  0  0  0  0
 18 20  1  0  0  0  0
 20 19  1  0  0  0  0
 21 22  1  0  0  0  0
 23 22  2  0  0  0  0
 24 23  1  0  0  0  0
 25 21  2  0  0  0  0
 26 25  1  0  0  0  0
 26 24  2  0  0  0  0
 27 28  1  0  0  0  0
 27 25  1  0  0  0  0
 29 28  1  0  0  0  0
 30 29  1  0  0  0  0
 31 30  1  0  0  0  0
 32 33  2  0  0  0  0
 33 41  1  0  0  0  0
 33 31  1  0  0  0  0
 34 38  1  0  0  0  0
 34 35  1  0  0  0  0
 35 37  2  0  0  0  0
 37 31  1  0  0  0  0
 37 36  1  0  0  0  0
 38 39  1  0  0  0  0
 39 36  1  0  0  0  0
 40 41  2  0  0  0  0
 41 42  1  0  0  0  0
 42 43  1  0  0  0  0
 43 44  2  0  0  0  0
 45 46  1  0  0  0  0
 46 47  1  0  0  0  0
 47 48  1  0  0  0  0
 48 49  1  0  0  0  0
 50 49  1  0  0  0  0
 50 51  1  0  0  0  0
 51 52  1  0  0  0  0
 53 54  1  0  0  0  0
 53 51  1  0  0  0  0
 54 55  1  0  0  0  0
 56 54  2  0  0  0  0
M  END
>  <MODEL>
9

>  <REMARK>
 VINA RESULT:      -5.7      2.924      9.640
  Name = 
  23 active torsions:
  status: ('A' for Active; 'I' for Inactive)
    1  A    between atoms: C_6  and  C_15
    2  A    between atoms: C_6  and  N_56
    3  A    between atoms: C_8  and  C_44
    4  A    between atoms: N_9  and  C_15
    5  A    between atoms: N_9  and  C_31
    6  A    between atoms: C_10  and  C_22
    7  A    between atoms: C_13  and  N_23
    8  A    between atoms: C_13  and  C_30
    9  A    between atoms: C_14  and  O_33
   10  A    between atoms: C_16  and  C_48
   11  A    between atoms: C_17  and  N_23
   12  A    between atoms: C_24  and  C_35
   13  A    between atoms: C_25  and  C_41
   14  A    between atoms: C_28  and  C_31
   15  A    between atoms: C_28  and  C_34
   16  A    between atoms: C_30  and  C_47
   17  A    between atoms: O_33  and  C_36
   18  A    between atoms: C_34  and  N_43
   19  A    between atoms: C_36  and  C_55
   20  A    between atoms: C_37  and  C_39
   21  A    between atoms: C_39  and  C_47
   22  A    between atoms: C_41  and  C_48
   23  A    between atoms: N_43  and  C_44
                            x       y       z     vdW  Elec       q    Type
                         _______ _______ _______ _____ _____    ______ ____

>  <TORSDO>
F 23

$$$$
