=
 OpenBabel10222418173D

 34 35  0  0  1  0  0  0  0  0999 V2000
  185.8460  178.8290  140.0030 N   0  0  0  0  0  0  0  0  0  0  0  0
  184.9350  178.9500  142.8840 C   0  0  1  0  0  3  0  0  0  0  0  0
  186.2380  178.5380  142.3660 N   0  0  0  0  0  2  0  0  0  0  0  0
  186.6480  178.5080  140.9830 C   0  0  0  0  0  0  0  0  0  0  0  0
  183.8400  178.1950  142.1940 C   0  0  0  0  0  3  0  0  0  0  0  0
  183.6210  178.3560  140.8900 C   0  0  0  0  0  0  0  0  0  0  0  0
  184.4760  179.3200  140.1200 C   0  0  0  0  0  2  0  0  0  0  0  0
  188.6620  177.2290  141.5480 N   0  0  0  0  0  0  0  0  0  0  0  0
  189.9200  176.7760  141.2960 C   0  0  0  0  0  0  0  0  0  0  0  0
  188.6610  178.4270  139.4930 C   0  0  0  0  0  3  0  0  0  0  0  0
  188.0120  178.0460  140.6750 C   0  0  1  0  0  3  0  0  0  0  0  0
  189.9180  177.9750  139.2420 N   0  0  0  0  0  0  0  0  0  0  0  0
  190.5610  177.1570  140.1170 C   0  0  0  0  0  2  0  0  0  0  0  0
  190.5810  175.9120  142.2220 N   0  0  0  0  0  2  0  0  0  0  0  0
  190.5370  176.1440  143.6060 N   0  0  0  0  0  2  0  0  0  0  0  0
  191.5240  177.1690  143.9060 C   0  0  0  0  0  2  0  0  0  0  0  0
  191.3890  177.5940  145.3680 C   0  0  0  0  0  2  0  0  0  0  0  0
  190.8900  176.5270  146.2450 N   0  0  0  0  0  0  0  0  0  0  0  0
  191.9920  175.9880  147.0300 C   0  0  0  0  0  1  0  0  0  0  0  0
  189.8950  177.0570  147.1670 C   0  0  0  0  0  2  0  0  0  0  0  0
  188.6170  177.3810  146.4180 C   0  0  0  0  0  2  0  0  0  0  0  0
  187.6710  178.0080  147.3230 N   0  0  0  0  0  2  0  0  0  0  0  0
  188.2350  177.8980  148.6560 C   0  0  0  0  0  1  0  0  0  0  0  0
  185.6550  177.6550  144.7630 F   0  0  0  0  0  0  0  0  0  0  0  0
  185.3590  179.8730  145.0350 F   0  0  0  0  0  0  0  0  0  0  0  0
  183.5740  178.5270  144.7930 F   0  0  0  0  0  0  0  0  0  0  0  0
  184.8820  178.7430  144.3960 C   0  0  0  0  0  0  0  0  0  0  0  0
  182.9210  176.5450  139.3000 N   0  0  0  0  0  2  0  0  0  0  0  0
  182.5650  177.5940  140.2040 C   0  0  0  0  0  0  0  0  0  0  0  0
  181.3490  177.8620  140.4150 O   0  0  0  0  0  0  0  0  0  0  0  0
  180.8420  176.6390  137.2660 C   0  0  0  0  0  1  0  0  0  0  0  0
  182.4100  174.4620  137.7060 O   0  0  0  0  0  0  0  0  0  0  0  0
  180.6230  174.9400  139.5570 O   0  0  0  0  0  1  0  0  0  0  0  0
  181.7250  175.5850  138.4480 P   0  0  1  0  0  0  0  0  0  0  0  0
  1  7  1  0  0  0  0
  1  4  2  0  0  0  0
  2 27  1  1  0  0  0
  3  2  1  0  0  0  0
  4  3  1  0  0  0  0
  5  2  1  0  0  0  0
  6  5  2  0  0  0  0
  7  6  1  0  0  0  0
  9  8  2  0  0  0  0
  9 14  1  0  0  0  0
 10 11  1  0  0  0  0
 11  4  1  6  0  0  0
 11  8  1  0  0  0  0
 12 10  2  0  0  0  0
 12 13  1  0  0  0  0
 13  9  1  0  0  0  0
 14 15  1  0  0  0  0
 15 16  1  0  0  0  0
 16 17  1  0  0  0  0
 17 18  1  0  0  0  0
 18 19  1  0  0  0  0
 18 20  1  0  0  0  0
 21 20  1  0  0  0  0
 21 22  1  0  0  0  0
 22 23  1  0  0  0  0
 27 24  1  0  0  0  0
 27 26  1  0  0  0  0
 27 25  1  0  0  0  0
 28 29  1  0  0  0  0
 29 30  2  0  0  0  0
 29  6  1  0  0  0  0
 32 34  2  0  0  0  0
 34 31  1  6  0  0  0
 34 28  1  0  0  0  0
 34 33  1  0  0  0  0
M  END
>  <MODEL>
1

>  <REMARK>
 VINA RESULT:      -7.5      0.000      0.000
  Name = 
  12 active torsions:
  status: ('A' for Active; 'I' for Inactive)
    1  A    between atoms: N_3  and  C_26
    2  A    between atoms: N_4  and  P_28
    3  A    between atoms: N_5  and  C_19
    4  A    between atoms: N_5  and  C_25
    5  A    between atoms: C_6  and  N_22
    6  A    between atoms: C_8  and  C_31
    7  A    between atoms: C_9  and  C_33
    8  A    between atoms: C_19  and  C_26
    9  A    between atoms: C_21  and  C_23
   10  A    between atoms: N_22  and  N_30
   11  A    between atoms: C_25  and  C_27
   12  A    between atoms: C_27  and  N_30
                            x       y       z     vdW  Elec       q    Type
                         _______ _______ _______ _____ _____    ______ ____

>  <TORSDO>
F 12

$$$$
=
 OpenBabel10222418173D

 34 35  0  0  1  0  0  0  0  0999 V2000
  185.8260  178.8600  139.8570 N   0  0  0  0  0  0  0  0  0  0  0  0
  184.8860  178.9110  142.7320 C   0  0  1  0  0  3  0  0  0  0  0  0
  186.2010  178.5340  142.2180 N   0  0  0  0  0  2  0  0  0  0  0  0
  186.6240  178.5370  140.8390 C   0  0  0  0  0  0  0  0  0  0  0  0
  183.8120  178.1480  142.0180 C   0  0  0  0  0  3  0  0  0  0  0  0
  183.6020  178.3290  140.7140 C   0  0  0  0  0  0  0  0  0  0  0  0
  184.4450  179.3220  139.9700 C   0  0  0  0  0  2  0  0  0  0  0  0
  188.8020  177.6510  141.5360 N   0  0  0  0  0  0  0  0  0  0  0  0
  190.0760  177.2390  141.2950 C   0  0  0  0  0  0  0  0  0  0  0  0
  188.5060  178.1520  139.2300 C   0  0  0  0  0  3  0  0  0  0  0  0
  188.0000  178.1060  140.5360 C   0  0  1  0  0  3  0  0  0  0  0  0
  189.7790  177.7410  138.9890 N   0  0  0  0  0  0  0  0  0  0  0  0
  190.5740  177.2850  139.9930 C   0  0  0  0  0  2  0  0  0  0  0  0
  190.8980  176.7560  142.3590 N   0  0  0  0  0  2  0  0  0  0  0  0
  191.9800  177.5030  142.8500 N   0  0  0  0  0  2  0  0  0  0  0  0
  191.5080  178.2370  144.0140 C   0  0  0  0  0  2  0  0  0  0  0  0
  191.1330  177.2510  145.1200 C   0  0  0  0  0  2  0  0  0  0  0  0
  189.8510  177.5580  145.7680 N   0  0  0  0  0  0  0  0  0  0  0  0
  188.7650  176.9640  145.0030 C   0  0  0  0  0  1  0  0  0  0  0  0
  189.8190  176.9950  147.1110 C   0  0  0  0  0  2  0  0  0  0  0  0
  189.2430  178.0080  148.0820 C   0  0  0  0  0  2  0  0  0  0  0  0
  187.9120  177.5910  148.4830 N   0  0  0  0  0  2  0  0  0  0  0  0
  186.9760  178.4050  147.7290 C   0  0  0  0  0  1  0  0  0  0  0  0
  185.6150  177.5960  144.5930 F   0  0  0  0  0  0  0  0  0  0  0  0
  185.2710  179.8030  144.9020 F   0  0  0  0  0  0  0  0  0  0  0  0
  183.5160  178.4260  144.6200 F   0  0  0  0  0  0  0  0  0  0  0  0
  184.8230  178.6750  144.2390 C   0  0  0  0  0  0  0  0  0  0  0  0
  182.9490  176.4770  139.1510 N   0  0  0  0  0  2  0  0  0  0  0  0
  182.5670  177.5590  140.0050 C   0  0  0  0  0  0  0  0  0  0  0  0
  181.3480  177.8490  140.1510 O   0  0  0  0  0  0  0  0  0  0  0  0
  182.6450  174.1980  137.3670 C   0  0  0  0  0  1  0  0  0  0  0  0
  180.8070  174.8810  139.2500 O   0  0  0  0  0  1  0  0  0  0  0  0
  180.9350  176.4840  137.1850 O   0  0  0  0  0  0  0  0  0  0  0  0
  181.7790  175.5060  138.2760 P   0  0  1  0  0  0  0  0  0  0  0  0
  1  7  1  0  0  0  0
  1  4  2  0  0  0  0
  2 27  1  1  0  0  0
  3  2  1  0  0  0  0
  4  3  1  0  0  0  0
  5  2  1  0  0  0  0
  6  5  2  0  0  0  0
  7  6  1  0  0  0  0
  9  8  2  0  0  0  0
  9 14  1  0  0  0  0
 10 11  1  0  0  0  0
 11  4  1  6  0  0  0
 11  8  1  0  0  0  0
 12 10  2  0  0  0  0
 12 13  1  0  0  0  0
 13  9  1  0  0  0  0
 14 15  1  0  0  0  0
 15 16  1  0  0  0  0
 16 17  1  0  0  0  0
 17 18  1  0  0  0  0
 18 20  1  0  0  0  0
 19 18  1  0  0  0  0
 20 21  1  0  0  0  0
 21 22  1  0  0  0  0
 23 22  1  0  0  0  0
 27 24  1  0  0  0  0
 27 26  1  0  0  0  0
 27 25  1  0  0  0  0
 28 29  1  0  0  0  0
 29 30  2  0  0  0  0
 29  6  1  0  0  0  0
 33 34  2  0  0  0  0
 34 31  1  6  0  0  0
 34 28  1  0  0  0  0
 34 32  1  0  0  0  0
M  END
>  <MODEL>
2

>  <REMARK>
 VINA RESULT:      -7.2      1.002      1.285
  Name = 
  12 active torsions:
  status: ('A' for Active; 'I' for Inactive)
    1  A    between atoms: N_3  and  C_26
    2  A    between atoms: N_4  and  P_28
    3  A    between atoms: N_5  and  C_19
    4  A    between atoms: N_5  and  C_25
    5  A    between atoms: C_6  and  N_22
    6  A    between atoms: C_8  and  C_31
    7  A    between atoms: C_9  and  C_33
    8  A    between atoms: C_19  and  C_26
    9  A    between atoms: C_21  and  C_23
   10  A    between atoms: N_22  and  N_30
   11  A    between atoms: C_25  and  C_27
   12  A    between atoms: C_27  and  N_30
                            x       y       z     vdW  Elec       q    Type
                         _______ _______ _______ _____ _____    ______ ____

>  <TORSDO>
F 12

$$$$
=
 OpenBabel10222418173D

 34 35  0  0  1  0  0  0  0  0999 V2000
  187.6100  176.4390  143.4450 N   0  0  0  0  0  0  0  0  0  0  0  0
  189.8260  176.5710  145.5000 C   0  0  1  0  0  3  0  0  0  0  0  0
  188.4960  177.1740  145.5650 N   0  0  0  0  0  2  0  0  0  0  0  0
  187.4530  177.0780  144.5740 C   0  0  0  0  0  0  0  0  0  0  0  0
  190.5040  176.9480  144.2170 C   0  0  0  0  0  3  0  0  0  0  0  0
  190.0170  176.5410  143.0460 C   0  0  0  0  0  0  0  0  0  0  0  0
  188.7860  175.6820  143.0260 C   0  0  0  0  0  2  0  0  0  0  0  0
  185.3220  178.0210  143.8100 N   0  0  0  0  0  0  0  0  0  0  0  0
  184.1370  178.6580  144.0120 C   0  0  0  0  0  0  0  0  0  0  0  0
  185.8340  178.1970  146.1250 C   0  0  0  0  0  3  0  0  0  0  0  0
  186.1830  177.7770  144.8350 C   0  0  1  0  0  3  0  0  0  0  0  0
  184.6510  178.8340  146.3270 N   0  0  0  0  0  0  0  0  0  0  0  0
  183.7940  179.0720  145.2980 C   0  0  0  0  0  2  0  0  0  0  0  0
  183.2440  178.8960  142.9220 N   0  0  0  0  0  2  0  0  0  0  0  0
  181.8780  179.1400  143.1300 N   0  0  0  0  0  2  0  0  0  0  0  0
  181.1990  178.9220  141.8630 C   0  0  0  0  0  2  0  0  0  0  0  0
  182.1740  178.2970  140.8640 C   0  0  0  0  0  2  0  0  0  0  0  0
  181.8040  178.5290  139.4620 N   0  0  0  0  0  0  0  0  0  0  0  0
  181.1260  179.8110  139.3430 C   0  0  0  0  0  1  0  0  0  0  0  0
  182.9970  178.5680  138.6270 C   0  0  0  0  0  2  0  0  0  0  0  0
  183.9620  179.6140  139.1520 C   0  0  0  0  0  2  0  0  0  0  0  0
  185.2730  179.0180  139.3290 N   0  0  0  0  0  2  0  0  0  0  0  0
  185.5050  178.1730  138.1720 C   0  0  0  0  0  1  0  0  0  0  0  0
  189.9830  177.9550  147.4450 F   0  0  0  0  0  0  0  0  0  0  0  0
  190.8970  175.8960  147.5130 F   0  0  0  0  0  0  0  0  0  0  0  0
  191.8680  177.5110  146.2870 F   0  0  0  0  0  0  0  0  0  0  0  0
  190.6550  176.9950  146.7090 C   0  0  0  0  0  0  0  0  0  0  0  0
  190.2440  176.3370  140.5540 N   0  0  0  0  0  2  0  0  0  0  0  0
  190.6640  176.9350  141.7840 C   0  0  0  0  0  0  0  0  0  0  0  0
  191.5860  177.7970  141.7860 O   0  0  0  0  0  0  0  0  0  0  0  0
  190.6710  175.4080  137.8300 C   0  0  0  0  0  1  0  0  0  0  0  0
  190.3280  178.0240  138.4830 O   0  0  0  0  0  0  0  0  0  0  0  0
  192.6230  176.9890  139.1990 O   0  0  0  0  0  1  0  0  0  0  0  0
  190.9590  176.7560  139.0080 P   0  0  1  0  0  0  0  0  0  0  0  0
  1  4  2  0  0  0  0
  2  3  1  0  0  0  0
  2 27  1  1  0  0  0
  4  3  1  0  0  0  0
  5  2  1  0  0  0  0
  6  5  2  0  0  0  0
  7  6  1  0  0  0  0
  7  1  1  0  0  0  0
  8  9  2  0  0  0  0
  8 11  1  0  0  0  0
  9 13  1  0  0  0  0
 10 12  2  0  0  0  0
 11  4  1  1  0  0  0
 11 10  1  0  0  0  0
 13 12  1  0  0  0  0
 14 15  1  0  0  0  0
 14  9  1  0  0  0  0
 16 15  1  0  0  0  0
 17 16  1  0  0  0  0
 18 17  1  0  0  0  0
 19 18  1  0  0  0  0
 20 21  1  0  0  0  0
 20 18  1  0  0  0  0
 21 22  1  0  0  0  0
 23 22  1  0  0  0  0
 26 27  1  0  0  0  0
 27 24  1  0  0  0  0
 27 25  1  0  0  0  0
 28 29  1  0  0  0  0
 29 30  2  0  0  0  0
 29  6  1  0  0  0  0
 32 34  2  0  0  0  0
 34 31  1  6  0  0  0
 34 33  1  0  0  0  0
 34 28  1  0  0  0  0
M  END
>  <MODEL>
3

>  <REMARK>
 VINA RESULT:      -6.9      4.248      8.458
  Name = 
  12 active torsions:
  status: ('A' for Active; 'I' for Inactive)
    1  A    between atoms: N_3  and  C_26
    2  A    between atoms: N_4  and  P_28
    3  A    between atoms: N_5  and  C_19
    4  A    between atoms: N_5  and  C_25
    5  A    between atoms: C_6  and  N_22
    6  A    between atoms: C_8  and  C_31
    7  A    between atoms: C_9  and  C_33
    8  A    between atoms: C_19  and  C_26
    9  A    between atoms: C_21  and  C_23
   10  A    between atoms: N_22  and  N_30
   11  A    between atoms: C_25  and  C_27
   12  A    between atoms: C_27  and  N_30
                            x       y       z     vdW  Elec       q    Type
                         _______ _______ _______ _____ _____    ______ ____

>  <TORSDO>
F 12

$$$$
=
 OpenBabel10222418173D

 34 35  0  0  1  0  0  0  0  0999 V2000
  184.5550  179.3790  140.9820 N   0  0  0  0  0  0  0  0  0  0  0  0
  182.0270  177.9350  140.1600 C   0  0  1  0  0  3  0  0  0  0  0  0
  182.6270  178.0210  141.4900 N   0  0  0  0  0  2  0  0  0  0  0  0
  183.8270  178.7330  141.8530 C   0  0  0  0  0  0  0  0  0  0  0  0
  183.0440  177.4720  139.1610 C   0  0  0  0  0  3  0  0  0  0  0  0
  184.1080  178.2230  138.8780 C   0  0  0  0  0  0  0  0  0  0  0  0
  184.2680  179.5500  139.5600 C   0  0  0  0  0  2  0  0  0  0  0  0
  185.5340  178.2920  143.5570 N   0  0  0  0  0  0  0  0  0  0  0  0
  185.9780  178.2360  144.8410 C   0  0  0  0  0  0  0  0  0  0  0  0
  183.4000  179.0260  144.3050 C   0  0  0  0  0  3  0  0  0  0  0  0
  184.2650  178.6800  143.2590 C   0  0  1  0  0  3  0  0  0  0  0  0
  183.8430  178.9690  145.5890 N   0  0  0  0  0  0  0  0  0  0  0  0
  185.1140  178.5830  145.8790 C   0  0  0  0  0  2  0  0  0  0  0  0
  187.3190  177.8340  145.1310 N   0  0  0  0  0  2  0  0  0  0  0  0
  187.7290  177.5290  146.4390 N   0  0  0  0  0  2  0  0  0  0  0  0
  189.1490  177.2190  146.3870 C   0  0  0  0  0  2  0  0  0  0  0  0
  189.7890  177.9580  145.2130 C   0  0  0  0  0  2  0  0  0  0  0  0
  191.1640  177.5270  144.9280 N   0  0  0  0  0  0  0  0  0  0  0  0
  191.6290  176.6510  145.9940 C   0  0  0  0  0  1  0  0  0  0  0  0
  191.2090  176.7800  143.6780 C   0  0  0  0  0  2  0  0  0  0  0  0
  190.1430  177.2950  142.7300 C   0  0  0  0  0  2  0  0  0  0  0  0
  190.6170  177.1830  141.3630 N   0  0  0  0  0  2  0  0  0  0  0  0
  189.4520  177.3040  140.5070 C   0  0  0  0  0  1  0  0  0  0  0  0
  180.1190  177.1530  141.3740 F   0  0  0  0  0  0  0  0  0  0  0  0
  179.9790  177.3050  139.1290 F   0  0  0  0  0  0  0  0  0  0  0  0
  181.2340  175.6910  140.0640 F   0  0  0  0  0  0  0  0  0  0  0  0
  180.8170  177.0050  140.1880 C   0  0  0  0  0  0  0  0  0  0  0  0
  186.4130  178.3760  137.8940 N   0  0  0  0  0  2  0  0  0  0  0  0
  185.1240  177.7570  137.9190 C   0  0  0  0  0  0  0  0  0  0  0  0
  184.8600  176.8130  137.1240 O   0  0  0  0  0  0  0  0  0  0  0  0
  189.1540  178.8930  137.0670 C   0  0  0  0  0  1  0  0  0  0  0  0
  188.0180  176.4240  137.0270 O   0  0  0  0  0  1  0  0  0  0  0  0
  187.1520  178.0790  135.1940 O   0  0  0  0  0  0  0  0  0  0  0  0
  187.6790  177.8770  136.7880 P   0  0  1  0  0  0  0  0  0  0  0  0
  1  4  2  0  0  0  0
  2 27  1  1  0  0  0
  2  3  1  0  0  0  0
  3  4  1  0  0  0  0
  5  2  1  0  0  0  0
  6  5  2  0  0  0  0
  6  7  1  0  0  0  0
  7  1  1  0  0  0  0
  8  9  2  0  0  0  0
  9 14  1  0  0  0  0
  9 13  1  0  0  0  0
 10 12  2  0  0  0  0
 11  4  1  6  0  0  0
 11  8  1  0  0  0  0
 11 10  1  0  0  0  0
 12 13  1  0  0  0  0
 14 15  1  0  0  0  0
 16 15  1  0  0  0  0
 17 16  1  0  0  0  0
 18 17  1  0  0  0  0
 18 19  1  0  0  0  0
 20 18  1  0  0  0  0
 21 20  1  0  0  0  0
 22 21  1  0  0  0  0
 23 22  1  0  0  0  0
 25 27  1  0  0  0  0
 26 27  1  0  0  0  0
 27 24  1  0  0  0  0
 28 29  1  0  0  0  0
 29  6  1  0  0  0  0
 30 29  2  0  0  0  0
 33 34  2  0  0  0  0
 34 32  1  0  0  0  0
 34 31  1  1  0  0  0
 34 28  1  0  0  0  0
M  END
>  <MODEL>
4

>  <REMARK>
 VINA RESULT:      -6.8      3.083      5.384
  Name = 
  12 active torsions:
  status: ('A' for Active; 'I' for Inactive)
    1  A    between atoms: N_3  and  C_26
    2  A    between atoms: N_4  and  P_28
    3  A    between atoms: N_5  and  C_19
    4  A    between atoms: N_5  and  C_25
    5  A    between atoms: C_6  and  N_22
    6  A    between atoms: C_8  and  C_31
    7  A    between atoms: C_9  and  C_33
    8  A    between atoms: C_19  and  C_26
    9  A    between atoms: C_21  and  C_23
   10  A    between atoms: N_22  and  N_30
   11  A    between atoms: C_25  and  C_27
   12  A    between atoms: C_27  and  N_30
                            x       y       z     vdW  Elec       q    Type
                         _______ _______ _______ _____ _____    ______ ____

>  <TORSDO>
F 12

$$$$
=
 OpenBabel10222418173D

 34 35  0  0  1  0  0  0  0  0999 V2000
  187.8480  176.3510  143.3710 N   0  0  0  0  0  0  0  0  0  0  0  0
  190.3240  176.5430  145.0980 C   0  0  1  0  0  3  0  0  0  0  0  0
  189.0050  177.1240  145.3420 N   0  0  0  0  0  2  0  0  0  0  0  0
  187.8370  176.9990  144.5050 C   0  0  0  0  0  0  0  0  0  0  0  0
  190.8110  176.9180  143.7310 C   0  0  0  0  0  3  0  0  0  0  0  0
  190.1750  176.4890  142.6420 C   0  0  0  0  0  0  0  0  0  0  0  0
  188.9690  175.6090  142.8000 C   0  0  0  0  0  2  0  0  0  0  0  0
  185.6720  178.0370  144.0080 N   0  0  0  0  0  0  0  0  0  0  0  0
  184.5170  178.6600  144.3650 C   0  0  0  0  0  0  0  0  0  0  0  0
  186.3590  177.9640  146.2840 C   0  0  0  0  0  3  0  0  0  0  0  0
  186.6030  177.6780  144.9340 C   0  0  1  0  0  3  0  0  0  0  0  0
  185.2050  178.5870  146.6400 N   0  0  0  0  0  0  0  0  0  0  0  0
  184.2780  178.9400  145.7100 C   0  0  0  0  0  2  0  0  0  0  0  0
  183.5490  179.0210  143.3770 N   0  0  0  0  0  2  0  0  0  0  0  0
  183.5640  178.4550  142.0920 N   0  0  0  0  0  2  0  0  0  0  0  0
  182.2230  178.5870  141.5440 C   0  0  0  0  0  2  0  0  0  0  0  0
  182.2520  178.2820  140.0470 C   0  0  0  0  0  2  0  0  0  0  0  0
  183.0810  177.1200  139.7010 N   0  0  0  0  0  0  0  0  0  0  0  0
  182.2250  175.9720  139.4440 C   0  0  0  0  0  1  0  0  0  0  0  0
  183.8500  177.3920  138.4940 C   0  0  0  0  0  2  0  0  0  0  0  0
  184.4680  178.7740  138.5740 C   0  0  0  0  0  2  0  0  0  0  0  0
  185.8470  178.6640  139.0140 N   0  0  0  0  0  2  0  0  0  0  0  0
  186.5580  177.9430  137.9750 C   0  0  0  0  0  1  0  0  0  0  0  0
  192.2300  175.9980  146.4390 F   0  0  0  0  0  0  0  0  0  0  0  0
  191.9700  178.1290  145.7510 F   0  0  0  0  0  0  0  0  0  0  0  0
  190.6160  177.2940  147.3400 F   0  0  0  0  0  0  0  0  0  0  0  0
  191.3050  176.9940  146.1780 C   0  0  0  0  0  0  0  0  0  0  0  0
  190.0860  176.2360  140.1460 N   0  0  0  0  0  2  0  0  0  0  0  0
  190.6340  176.8800  141.2990 C   0  0  0  0  0  0  0  0  0  0  0  0
  191.5070  177.7820  141.1650 O   0  0  0  0  0  0  0  0  0  0  0  0
  189.8970  175.4250  137.3580 C   0  0  0  0  0  1  0  0  0  0  0  0
  190.0510  178.0190  138.1560 O   0  0  0  0  0  0  0  0  0  0  0  0
  192.2620  176.6430  138.4080 O   0  0  0  0  0  1  0  0  0  0  0  0
  190.5740  176.6480  138.5130 P   0  0  1  0  0  0  0  0  0  0  0  0
  1  4  2  0  0  0  0
  2  3  1  0  0  0  0
  2 27  1  1  0  0  0
  4  3  1  0  0  0  0
  5  2  1  0  0  0  0
  6  7  1  0  0  0  0
  6  5  2  0  0  0  0
  7  1  1  0  0  0  0
  8  9  2  0  0  0  0
  8 11  1  0  0  0  0
  9 13  1  0  0  0  0
 10 12  2  0  0  0  0
 11  4  1  1  0  0  0
 11 10  1  0  0  0  0
 13 12  1  0  0  0  0
 14  9  1  0  0  0  0
 15 14  1  0  0  0  0
 16 15  1  0  0  0  0
 17 16  1  0  0  0  0
 18 17  1  0  0  0  0
 19 18  1  0  0  0  0
 20 21  1  0  0  0  0
 20 18  1  0  0  0  0
 21 22  1  0  0  0  0
 23 22  1  0  0  0  0
 25 27  1  0  0  0  0
 27 24  1  0  0  0  0
 27 26  1  0  0  0  0
 28 29  1  0  0  0  0
 29  6  1  0  0  0  0
 30 29  2  0  0  0  0
 32 34  2  0  0  0  0
 33 34  1  0  0  0  0
 34 31  1  6  0  0  0
 34 28  1  0  0  0  0
M  END
>  <MODEL>
5

>  <REMARK>
 VINA RESULT:      -6.8      4.123      8.189
  Name = 
  12 active torsions:
  status: ('A' for Active; 'I' for Inactive)
    1  A    between atoms: N_3  and  C_26
    2  A    between atoms: N_4  and  P_28
    3  A    between atoms: N_5  and  C_19
    4  A    between atoms: N_5  and  C_25
    5  A    between atoms: C_6  and  N_22
    6  A    between atoms: C_8  and  C_31
    7  A    between atoms: C_9  and  C_33
    8  A    between atoms: C_19  and  C_26
    9  A    between atoms: C_21  and  C_23
   10  A    between atoms: N_22  and  N_30
   11  A    between atoms: C_25  and  C_27
   12  A    between atoms: C_27  and  N_30
                            x       y       z     vdW  Elec       q    Type
                         _______ _______ _______ _____ _____    ______ ____

>  <TORSDO>
F 12

$$$$
=
 OpenBabel10222418173D

 34 35  0  0  1  0  0  0  0  0999 V2000
  186.4660  178.6450  141.4790 N   0  0  0  0  0  0  0  0  0  0  0  0
  185.2790  178.8840  144.2510 C   0  0  1  0  0  3  0  0  0  0  0  0
  186.5170  178.2160  143.8520 N   0  0  0  0  0  2  0  0  0  0  0  0
  187.0650  178.1350  142.5210 C   0  0  0  0  0  0  0  0  0  0  0  0
  184.1350  178.3990  143.4120 C   0  0  0  0  0  3  0  0  0  0  0  0
  184.1050  178.6370  142.1020 C   0  0  0  0  0  0  0  0  0  0  0  0
  185.2250  179.4150  141.4750 C   0  0  0  0  0  2  0  0  0  0  0  0
  189.1370  177.6980  141.2840 N   0  0  0  0  0  0  0  0  0  0  0  0
  190.3130  177.0450  141.0830 C   0  0  0  0  0  0  0  0  0  0  0  0
  188.7220  176.3920  143.2280 C   0  0  0  0  0  3  0  0  0  0  0  0
  188.3280  177.3990  142.3360 C   0  0  1  0  0  3  0  0  0  0  0  0
  189.8970  175.7400  143.0270 N   0  0  0  0  0  0  0  0  0  0  0  0
  190.7020  176.0450  141.9740 C   0  0  0  0  0  2  0  0  0  0  0  0
  191.1520  177.3810  139.9750 N   0  0  0  0  0  2  0  0  0  0  0  0
  191.3510  176.4920  138.9070 N   0  0  0  0  0  2  0  0  0  0  0  0
  190.0890  176.3830  138.1920 C   0  0  0  0  0  2  0  0  0  0  0  0
  189.7310  177.7370  137.5800 C   0  0  0  0  0  2  0  0  0  0  0  0
  188.7520  177.6480  136.4900 N   0  0  0  0  0  0  0  0  0  0  0  0
  188.4060  176.2520  136.2600 C   0  0  0  0  0  1  0  0  0  0  0  0
  187.5340  178.3630  136.8470 C   0  0  0  0  0  2  0  0  0  0  0  0
  186.6210  177.4590  137.6540 C   0  0  0  0  0  2  0  0  0  0  0  0
  185.2410  177.8640  137.4550 N   0  0  0  0  0  2  0  0  0  0  0  0
  184.7270  177.0640  136.3590 C   0  0  0  0  0  1  0  0  0  0  0  0
  185.5470  177.4420  146.1420 F   0  0  0  0  0  0  0  0  0  0  0  0
  185.5880  179.6720  146.4730 F   0  0  0  0  0  0  0  0  0  0  0  0
  183.6480  178.6510  145.9720 F   0  0  0  0  0  0  0  0  0  0  0  0
  185.0120  178.6530  145.7360 C   0  0  0  0  0  0  0  0  0  0  0  0
  183.2510  177.1430  140.2750 N   0  0  0  0  0  2  0  0  0  0  0  0
  182.9970  178.1360  141.2720 C   0  0  0  0  0  0  0  0  0  0  0  0
  181.8270  178.5800  141.4390 O   0  0  0  0  0  0  0  0  0  0  0  0
  181.4730  177.7520  138.0530 C   0  0  0  0  0  1  0  0  0  0  0  0
  182.5070  175.2800  138.5090 O   0  0  0  0  0  0  0  0  0  0  0  0
  180.6600  176.0440  140.1990 O   0  0  0  0  0  1  0  0  0  0  0  0
  181.9870  176.4900  139.2490 P   0  0  1  0  0  0  0  0  0  0  0  0
  1  4  2  0  0  0  0
  2 27  1  1  0  0  0
  3  2  1  0  0  0  0
  4  3  1  0  0  0  0
  5  2  1  0  0  0  0
  6  5  2  0  0  0  0
  7  1  1  0  0  0  0
  7  6  1  0  0  0  0
  8 11  1  0  0  0  0
  9  8  2  0  0  0  0
  9 13  1  0  0  0  0
 11  4  1  1  0  0  0
 11 10  1  0  0  0  0
 12 10  2  0  0  0  0
 13 12  1  0  0  0  0
 14  9  1  0  0  0  0
 15 14  1  0  0  0  0
 16 15  1  0  0  0  0
 17 16  1  0  0  0  0
 18 20  1  0  0  0  0
 18 17  1  0  0  0  0
 19 18  1  0  0  0  0
 20 21  1  0  0  0  0
 22 21  1  0  0  0  0
 23 22  1  0  0  0  0
 27 26  1  0  0  0  0
 27 24  1  0  0  0  0
 27 25  1  0  0  0  0
 28 29  1  0  0  0  0
 29 30  2  0  0  0  0
 29  6  1  0  0  0  0
 32 34  2  0  0  0  0
 34 31  1  6  0  0  0
 34 33  1  0  0  0  0
 34 28  1  0  0  0  0
M  END
>  <MODEL>
6

>  <REMARK>
 VINA RESULT:      -6.5      2.171      5.150
  Name = 
  12 active torsions:
  status: ('A' for Active; 'I' for Inactive)
    1  A    between atoms: N_3  and  C_26
    2  A    between atoms: N_4  and  P_28
    3  A    between atoms: N_5  and  C_19
    4  A    between atoms: N_5  and  C_25
    5  A    between atoms: C_6  and  N_22
    6  A    between atoms: C_8  and  C_31
    7  A    between atoms: C_9  and  C_33
    8  A    between atoms: C_19  and  C_26
    9  A    between atoms: C_21  and  C_23
   10  A    between atoms: N_22  and  N_30
   11  A    between atoms: C_25  and  C_27
   12  A    between atoms: C_27  and  N_30
                            x       y       z     vdW  Elec       q    Type
                         _______ _______ _______ _____ _____    ______ ____

>  <TORSDO>
F 12

$$$$
=
 OpenBabel10222418173D

 34 35  0  0  1  0  0  0  0  0999 V2000
  192.4050  177.3830  140.8630 N   0  0  0  0  0  0  0  0  0  0  0  0
  190.2110  177.5250  138.7860 C   0  0  1  0  0  3  0  0  0  0  0  0
  190.0760  177.4710  140.2400 N   0  0  0  0  0  2  0  0  0  0  0  0
  191.1450  177.4220  141.2070 C   0  0  0  0  0  0  0  0  0  0  0  0
  191.0870  176.4080  138.3050 C   0  0  0  0  0  3  0  0  0  0  0  0
  192.3740  176.3600  138.6460 C   0  0  0  0  0  0  0  0  0  0  0  0
  192.9430  177.4500  139.5070 C   0  0  0  0  0  2  0  0  0  0  0  0
  189.4770  177.3260  143.0020 N   0  0  0  0  0  0  0  0  0  0  0  0
  189.1070  177.2630  144.3090 C   0  0  0  0  0  0  0  0  0  0  0  0
  191.7710  177.3340  143.6320 C   0  0  0  0  0  3  0  0  0  0  0  0
  190.7870  177.3610  142.6340 C   0  0  1  0  0  3  0  0  0  0  0  0
  191.4000  177.2730  144.9380 N   0  0  0  0  0  0  0  0  0  0  0  0
  190.0900  177.2350  145.2980 C   0  0  0  0  0  2  0  0  0  0  0  0
  187.7250  177.2180  144.6720 N   0  0  0  0  0  2  0  0  0  0  0  0
  187.2530  177.8250  145.8470 N   0  0  0  0  0  2  0  0  0  0  0  0
  185.9150  178.3220  145.5720 C   0  0  0  0  0  2  0  0  0  0  0  0
  185.5650  178.0590  144.1070 C   0  0  0  0  0  2  0  0  0  0  0  0
  184.1630  178.3470  143.7780 N   0  0  0  0  0  0  0  0  0  0  0  0
  183.5000  178.9220  144.9400 C   0  0  0  0  0  1  0  0  0  0  0  0
  184.0890  179.3130  142.6910 C   0  0  0  0  0  2  0  0  0  0  0  0
  184.1930  178.5990  141.3570 C   0  0  0  0  0  2  0  0  0  0  0  0
  185.1220  179.3110  140.4980 N   0  0  0  0  0  2  0  0  0  0  0  0
  184.8150  178.9170  139.1360 C   0  0  0  0  0  1  0  0  0  0  0  0
  187.8480  177.2880  139.0830 F   0  0  0  0  0  0  0  0  0  0  0  0
  188.5970  178.6520  137.4520 F   0  0  0  0  0  0  0  0  0  0  0  0
  188.7890  176.4230  137.2230 F   0  0  0  0  0  0  0  0  0  0  0  0
  188.8340  177.4690  138.1290 C   0  0  0  0  0  0  0  0  0  0  0  0
  194.6460  175.3250  138.3840 N   0  0  0  0  0  2  0  0  0  0  0  0
  193.2300  175.2480  138.1990 C   0  0  0  0  0  0  0  0  0  0  0  0
  192.7170  174.2310  137.6570 O   0  0  0  0  0  0  0  0  0  0  0  0
  195.6850  173.8830  136.0800 C   0  0  0  0  0  1  0  0  0  0  0  0
  197.1420  174.3720  138.3220 O   0  0  0  0  0  0  0  0  0  0  0  0
  195.2500  172.5830  138.5910 O   0  0  0  0  0  1  0  0  0  0  0  0
  195.7340  174.0420  137.8850 P   0  0  1  0  0  0  0  0  0  0  0  0
  1  4  2  0  0  0  0
  2 27  1  6  0  0  0
  2  3  1  0  0  0  0
  3  4  1  0  0  0  0
  5  6  2  0  0  0  0
  5  2  1  0  0  0  0
  6  7  1  0  0  0  0
  7  1  1  0  0  0  0
  8  9  2  0  0  0  0
  9 14  1  0  0  0  0
  9 13  1  0  0  0  0
 10 12  2  0  0  0  0
 11  4  1  6  0  0  0
 11  8  1  0  0  0  0
 11 10  1  0  0  0  0
 12 13  1  0  0  0  0
 14 15  1  0  0  0  0
 16 15  1  0  0  0  0
 17 16  1  0  0  0  0
 18 17  1  0  0  0  0
 18 19  1  0  0  0  0
 20 18  1  0  0  0  0
 21 20  1  0  0  0  0
 22 21  1  0  0  0  0
 23 22  1  0  0  0  0
 25 27  1  0  0  0  0
 26 27  1  0  0  0  0
 27 24  1  0  0  0  0
 29 28  1  0  0  0  0
 29  6  1  0  0  0  0
 30 29  2  0  0  0  0
 34 31  1  6  0  0  0
 34 32  2  0  0  0  0
 34 28  1  0  0  0  0
 34 33  1  0  0  0  0
M  END
>  <MODEL>
7

>  <REMARK>
 VINA RESULT:      -6.4      5.503      8.612
  Name = 
  12 active torsions:
  status: ('A' for Active; 'I' for Inactive)
    1  A    between atoms: N_3  and  C_26
    2  A    between atoms: N_4  and  P_28
    3  A    between atoms: N_5  and  C_19
    4  A    between atoms: N_5  and  C_25
    5  A    between atoms: C_6  and  N_22
    6  A    between atoms: C_8  and  C_31
    7  A    between atoms: C_9  and  C_33
    8  A    between atoms: C_19  and  C_26
    9  A    between atoms: C_21  and  C_23
   10  A    between atoms: N_22  and  N_30
   11  A    between atoms: C_25  and  C_27
   12  A    between atoms: C_27  and  N_30
                            x       y       z     vdW  Elec       q    Type
                         _______ _______ _______ _____ _____    ______ ____

>  <TORSDO>
F 12

$$$$
=
 OpenBabel10222418173D

 34 35  0  0  1  0  0  0  0  0999 V2000
  184.5160  178.7710  142.0440 N   0  0  0  0  0  0  0  0  0  0  0  0
  181.5540  179.2520  142.4200 C   0  0  1  0  0  3  0  0  0  0  0  0
  182.5660  179.0020  143.4440 N   0  0  0  0  0  2  0  0  0  0  0  0
  183.9770  178.7930  143.2330 C   0  0  0  0  0  0  0  0  0  0  0  0
  181.6130  178.1900  141.3630 C   0  0  0  0  0  3  0  0  0  0  0  0
  182.6890  178.0630  140.5870 C   0  0  0  0  0  0  0  0  0  0  0  0
  183.8380  179.0100  140.7730 C   0  0  0  0  0  2  0  0  0  0  0  0
  186.0700  178.0210  144.2510 N   0  0  0  0  0  0  0  0  0  0  0  0
  186.8850  177.7830  145.3140 C   0  0  0  0  0  0  0  0  0  0  0  0
  184.3770  178.8410  145.7060 C   0  0  0  0  0  3  0  0  0  0  0  0
  184.8250  178.5450  144.4120 C   0  0  1  0  0  3  0  0  0  0  0  0
  185.1910  178.6040  146.7680 N   0  0  0  0  0  0  0  0  0  0  0  0
  186.4350  178.0820  146.6010 C   0  0  0  0  0  2  0  0  0  0  0  0
  188.1930  177.2410  145.1220 N   0  0  0  0  0  2  0  0  0  0  0  0
  189.3430  178.0400  145.2210 N   0  0  0  0  0  2  0  0  0  0  0  0
  189.8290  178.2690  143.8700 C   0  0  0  0  0  2  0  0  0  0  0  0
  189.9800  176.9300  143.1480 C   0  0  0  0  0  2  0  0  0  0  0  0
  189.2610  176.8690  141.8700 N   0  0  0  0  0  0  0  0  0  0  0  0
  188.4800  178.0840  141.6920 C   0  0  0  0  0  1  0  0  0  0  0  0
  190.2050  176.7720  140.7650 C   0  0  0  0  0  2  0  0  0  0  0  0
  189.9300  177.8670  139.7520 C   0  0  0  0  0  2  0  0  0  0  0  0
  190.1590  177.3570  138.4130 N   0  0  0  0  0  2  0  0  0  0  0  0
  188.8600  176.9920  137.8790 C   0  0  0  0  0  1  0  0  0  0  0  0
  180.1960  178.7970  144.3370 F   0  0  0  0  0  0  0  0  0  0  0  0
  179.7530  180.6390  143.1150 F   0  0  0  0  0  0  0  0  0  0  0  0
  179.2650  178.6060  142.2900 F   0  0  0  0  0  0  0  0  0  0  0  0
  180.1680  179.3220  143.0560 C   0  0  0  0  0  0  0  0  0  0  0  0
  183.3580  177.2780  138.2990 N   0  0  0  0  0  2  0  0  0  0  0  0
  182.7610  177.0030  139.5690 C   0  0  0  0  0  0  0  0  0  0  0  0
  182.2990  175.8540  139.8140 O   0  0  0  0  0  0  0  0  0  0  0  0
  184.2780  176.8080  135.5780 C   0  0  0  0  0  1  0  0  0  0  0  0
  184.3240  174.9100  137.5240 O   0  0  0  0  0  1  0  0  0  0  0  0
  181.9460  175.5180  136.6170 O   0  0  0  0  0  0  0  0  0  0  0  0
  183.4890  176.0700  137.0340 P   0  0  1  0  0  0  0  0  0  0  0  0
  1  4  2  0  0  0  0
  2 27  1  1  0  0  0
  2  3  1  0  0  0  0
  4  3  1  0  0  0  0
  5  2  1  0  0  0  0
  6  7  1  0  0  0  0
  6  5  2  0  0  0  0
  7  1  1  0  0  0  0
  8 11  1  0  0  0  0
  8  9  2  0  0  0  0
  9 13  1  0  0  0  0
 10 12  2  0  0  0  0
 11  4  1  6  0  0  0
 11 10  1  0  0  0  0
 13 12  1  0  0  0  0
 14 15  1  0  0  0  0
 14  9  1  0  0  0  0
 16 15  1  0  0  0  0
 17 16  1  0  0  0  0
 18 17  1  0  0  0  0
 19 18  1  0  0  0  0
 20 18  1  0  0  0  0
 21 20  1  0  0  0  0
 22 21  1  0  0  0  0
 23 22  1  0  0  0  0
 26 27  1  0  0  0  0
 27 25  1  0  0  0  0
 27 24  1  0  0  0  0
 28 29  1  0  0  0  0
 29 30  2  0  0  0  0
 29  6  1  0  0  0  0
 33 34  2  0  0  0  0
 34 31  1  6  0  0  0
 34 32  1  0  0  0  0
 34 28  1  0  0  0  0
M  END
>  <MODEL>
8

>  <REMARK>
 VINA RESULT:      -6.4      2.389      5.047
  Name = 
  12 active torsions:
  status: ('A' for Active; 'I' for Inactive)
    1  A    between atoms: N_3  and  C_26
    2  A    between atoms: N_4  and  P_28
    3  A    between atoms: N_5  and  C_19
    4  A    between atoms: N_5  and  C_25
    5  A    between atoms: C_6  and  N_22
    6  A    between atoms: C_8  and  C_31
    7  A    between atoms: C_9  and  C_33
    8  A    between atoms: C_19  and  C_26
    9  A    between atoms: C_21  and  C_23
   10  A    between atoms: N_22  and  N_30
   11  A    between atoms: C_25  and  C_27
   12  A    between atoms: C_27  and  N_30
                            x       y       z     vdW  Elec       q    Type
                         _______ _______ _______ _____ _____    ______ ____

>  <TORSDO>
F 12

$$$$
=
 OpenBabel10222418173D

 34 35  0  0  1  0  0  0  0  0999 V2000
  187.5940  176.4510  143.4440 N   0  0  0  0  0  0  0  0  0  0  0  0
  189.8270  176.5670  145.4800 C   0  0  1  0  0  3  0  0  0  0  0  0
  188.5000  177.1740  145.5590 N   0  0  0  0  0  2  0  0  0  0  0  0
  187.4480  177.0850  144.5760 C   0  0  0  0  0  0  0  0  0  0  0  0
  190.4950  176.9480  144.1940 C   0  0  0  0  0  3  0  0  0  0  0  0
  189.9970  176.5470  143.0250 C   0  0  0  0  0  0  0  0  0  0  0  0
  188.7640  175.6920  143.0120 C   0  0  0  0  0  2  0  0  0  0  0  0
  185.3020  178.0140  143.8390 N   0  0  0  0  0  0  0  0  0  0  0  0
  184.1200  178.6520  144.0540 C   0  0  0  0  0  0  0  0  0  0  0  0
  185.8570  178.2240  146.1420 C   0  0  0  0  0  3  0  0  0  0  0  0
  186.1820  177.7860  144.8510 C   0  0  1  0  0  3  0  0  0  0  0  0
  184.6770  178.8620  146.3560 N   0  0  0  0  0  0  0  0  0  0  0  0
  183.8010  179.0850  145.3410 C   0  0  0  0  0  2  0  0  0  0  0  0
  183.2060  178.8740  142.9780 N   0  0  0  0  0  2  0  0  0  0  0  0
  181.9940  179.5550  143.1710 N   0  0  0  0  0  2  0  0  0  0  0  0
  180.9600  178.8050  142.4760 C   0  0  0  0  0  2  0  0  0  0  0  0
  180.5400  179.5620  141.2160 C   0  0  0  0  0  2  0  0  0  0  0  0
  180.8860  178.8640  139.9710 N   0  0  0  0  0  0  0  0  0  0  0  0
  182.0950  179.4470  139.4060 C   0  0  0  0  0  1  0  0  0  0  0  0
  181.1450  177.4550  140.2380 C   0  0  0  0  0  2  0  0  0  0  0  0
  180.3510  176.5920  139.2770 C   0  0  0  0  0  2  0  0  0  0  0  0
  180.2170  175.2550  139.8260 N   0  0  0  0  0  2  0  0  0  0  0  0
  180.1600  174.3450  138.6980 C   0  0  0  0  0  1  0  0  0  0  0  0
  190.8930  175.9010  147.5160 F   0  0  0  0  0  0  0  0  0  0  0  0
  191.8840  177.4800  146.2490 F   0  0  0  0  0  0  0  0  0  0  0  0
  190.0120  177.9750  147.3930 F   0  0  0  0  0  0  0  0  0  0  0  0
  190.6680  176.9840  146.6840 C   0  0  0  0  0  0  0  0  0  0  0  0
  190.2600  176.2960  140.5410 N   0  0  0  0  0  2  0  0  0  0  0  0
  190.6350  176.9450  141.7590 C   0  0  0  0  0  0  0  0  0  0  0  0
  191.5090  177.8560  141.7470 O   0  0  0  0  0  0  0  0  0  0  0  0
  190.6500  175.3790  137.8070 C   0  0  0  0  0  1  0  0  0  0  0  0
  190.3490  177.9950  138.4800 O   0  0  0  0  0  0  0  0  0  0  0  0
  192.6360  176.9230  139.1680 O   0  0  0  0  0  1  0  0  0  0  0  0
  190.9670  176.7140  138.9910 P   0  0  1  0  0  0  0  0  0  0  0  0
  1  4  2  0  0  0  0
  2  3  1  0  0  0  0
  2 27  1  1  0  0  0
  4  3  1  0  0  0  0
  5  2  1  0  0  0  0
  6  5  2  0  0  0  0
  7  6  1  0  0  0  0
  7  1  1  0  0  0  0
  8  9  2  0  0  0  0
  8 11  1  0  0  0  0
  9 13  1  0  0  0  0
 10 12  2  0  0  0  0
 11  4  1  1  0  0  0
 11 10  1  0  0  0  0
 13 12  1  0  0  0  0
 14 15  1  0  0  0  0
 14  9  1  0  0  0  0
 16 15  1  0  0  0  0
 17 16  1  0  0  0  0
 18 20  1  0  0  0  0
 18 17  1  0  0  0  0
 19 18  1  0  0  0  0
 21 22  1  0  0  0  0
 21 20  1  0  0  0  0
 23 22  1  0  0  0  0
 25 27  1  0  0  0  0
 27 26  1  0  0  0  0
 27 24  1  0  0  0  0
 28 29  1  0  0  0  0
 29  6  1  0  0  0  0
 30 29  2  0  0  0  0
 32 34  2  0  0  0  0
 34 31  1  6  0  0  0
 34 33  1  0  0  0  0
 34 28  1  0  0  0  0
M  END
>  <MODEL>
9

>  <REMARK>
 VINA RESULT:      -6.3      4.322      8.731
  Name = 
  12 active torsions:
  status: ('A' for Active; 'I' for Inactive)
    1  A    between atoms: N_3  and  C_26
    2  A    between atoms: N_4  and  P_28
    3  A    between atoms: N_5  and  C_19
    4  A    between atoms: N_5  and  C_25
    5  A    between atoms: C_6  and  N_22
    6  A    between atoms: C_8  and  C_31
    7  A    between atoms: C_9  and  C_33
    8  A    between atoms: C_19  and  C_26
    9  A    between atoms: C_21  and  C_23
   10  A    between atoms: N_22  and  N_30
   11  A    between atoms: C_25  and  C_27
   12  A    between atoms: C_27  and  N_30
                            x       y       z     vdW  Elec       q    Type
                         _______ _______ _______ _____ _____    ______ ____

>  <TORSDO>
F 12

$$$$
