=
 OpenBabel10222417573D

 33 38  0  0  1  0  0  0  0  0999 V2000
  185.9580  178.4450  144.0350 C   0  0  0  0  0  0  0  0  0  0  0  0
  184.2220  178.4830  145.7460 C   0  0  0  0  0  3  0  0  0  0  0  0
  185.3610  178.6810  141.6900 C   0  0  0  0  0  0  0  0  0  0  0  0
  182.1670  178.8390  143.7300 C   0  0  0  0  0  3  0  0  0  0  0  0
  180.7810  179.2230  140.4430 O   0  0  0  0  0  0  0  0  0  0  0  0
  185.7270  178.7430  140.3840 N   0  0  0  0  0  0  0  0  0  0  0  0
  186.3260  178.5120  142.6820 C   0  0  0  0  0  3  0  0  0  0  0  0
  183.6080  178.7240  143.3920 C   0  0  0  0  0  0  0  0  0  0  0  0
  184.7970  178.9080  139.4060 C   0  0  0  0  0  3  0  0  0  0  0  0
  181.6340  179.0710  141.3590 C   0  0  0  0  0  0  0  0  0  0  0  0
  184.5860  178.5520  144.3940 C   0  0  0  0  0  0  0  0  0  0  0  0
  184.0050  178.7870  142.0430 C   0  0  0  0  0  0  0  0  0  0  0  0
  186.5370  178.2030  146.3820 C   0  0  0  0  0  3  0  0  0  0  0  0
  186.9350  178.2750  145.0390 C   0  0  0  0  0  0  0  0  0  0  0  0
  185.1920  178.3080  146.7340 C   0  0  0  0  0  3  0  0  0  0  0  0
  181.2270  179.0020  142.7910 C   0  0  0  0  0  0  0  0  0  0  0  0
  183.4790  179.0130  139.7240 N   0  0  0  0  0  0  0  0  0  0  0  0
  183.0640  178.9570  141.0180 C   0  0  0  0  0  0  0  0  0  0  0  0
  179.4050  178.6670  144.4280 C   0  0  0  0  0  2  0  0  0  0  0  0
  179.8300  179.1050  143.2500 C   0  0  0  0  0  3  0  0  0  0  0  0
  189.2320  177.6120  145.8420 C   0  0  0  0  0  1  0  0  0  0  0  0
  188.3930  178.1380  144.6820 C   0  0  1  0  0  3  0  0  0  0  0  0
  189.8660  177.2920  141.6110 N   0  0  0  0  0  0  0  0  0  0  0  0
  189.2310  178.1800  142.4190 O   0  0  0  0  0  0  0  0  0  0  0  0
  189.4650  176.1150  143.5560 C   0  0  0  0  0  2  0  0  0  0  0  0
  190.1980  176.0370  142.2500 C   0  0  0  0  0  2  0  0  0  0  0  0
  188.6070  177.3640  143.3780 C   0  0  1  0  0  3  0  0  0  0  0  0
  188.9860  178.5410  138.1890 C   0  0  0  0  0  3  0  0  0  0  0  0
  189.7510  177.6870  137.3900 C   0  0  0  0  0  3  0  0  0  0  0  0
  190.5880  176.5820  139.3730 C   0  0  0  0  0  3  0  0  0  0  0  0
  190.5520  176.7080  137.9820 C   0  0  0  0  0  3  0  0  0  0  0  0
  189.8270  177.4350  140.1850 C   0  0  0  0  0  0  0  0  0  0  0  0
  189.0230  178.4150  139.5810 C   0  0  0  0  0  3  0  0  0  0  0  0
  1 11  1  0  0  0  0
  1 14  2  0  0  0  0
  2 15  1  0  0  0  0
  3 12  1  0  0  0  0
  3  7  2  0  0  0  0
  5 10  2  0  0  0  0
  6  3  1  0  0  0  0
  7  1  1  0  0  0  0
  8  4  1  0  0  0  0
  8 11  1  0  0  0  0
  9 17  1  0  0  0  0
  9  6  2  0  0  0  0
 10 16  1  0  0  0  0
 11  2  2  0  0  0  0
 12  8  2  0  0  0  0
 13 15  2  0  0  0  0
 14 13  1  0  0  0  0
 16 20  1  0  0  0  0
 16  4  2  0  0  0  0
 17 18  2  0  0  0  0
 18 10  1  0  0  0  0
 18 12  1  0  0  0  0
 20 19  2  0  0  0  0
 22 14  1  0  0  0  0
 22 21  1  1  0  0  0
 23 26  1  0  0  0  0
 23 24  1  0  0  0  0
 24 27  1  0  0  0  0
 26 25  1  0  0  0  0
 27 25  1  0  0  0  0
 27 22  1  1  0  0  0
 28 33  1  0  0  0  0
 29 31  1  0  0  0  0
 29 28  2  0  0  0  0
 30 32  1  0  0  0  0
 31 30  2  0  0  0  0
 32 23  1  0  0  0  0
 33 32  2  0  0  0  0
M  END
>  <MODEL>
1

>  <REMARK>
 VINA RESULT:     -11.0      0.000      0.000
  Name = 
  4 active torsions:
  status: ('A' for Active; 'I' for Inactive)
    1  A    between atoms: N_2  and  C_19
    2  A    between atoms: C_23  and  C_33
    3  A    between atoms: C_25  and  C_33
    4  A    between atoms: C_27  and  C_28
                            x       y       z     vdW  Elec       q    Type
                         _______ _______ _______ _____ _____    ______ ____

>  <TORSDO>
F 4

$$$$
=
 OpenBabel10222417573D

 33 38  0  0  1  0  0  0  0  0999 V2000
  184.9580  178.3080  142.6650 C   0  0  0  0  0  0  0  0  0  0  0  0
  184.0430  178.5650  144.9090 C   0  0  0  0  0  3  0  0  0  0  0  0
  187.2960  177.7120  142.3630 C   0  0  0  0  0  0  0  0  0  0  0  0
  186.6140  177.9200  146.0890 C   0  0  0  0  0  3  0  0  0  0  0  0
  190.0900  177.0390  146.1790 O   0  0  0  0  0  0  0  0  0  0  0  0
  188.3440  177.4390  141.5440 N   0  0  0  0  0  0  0  0  0  0  0  0
  186.0480  178.0230  141.8270 C   0  0  0  0  0  3  0  0  0  0  0  0
  186.3950  177.9610  144.6210 C   0  0  0  0  0  0  0  0  0  0  0  0
  189.5670  177.1330  142.0540 C   0  0  0  0  0  3  0  0  0  0  0  0
  188.9520  177.3230  145.7190 C   0  0  0  0  0  0  0  0  0  0  0  0
  185.1330  178.2770  144.0760 C   0  0  0  0  0  0  0  0  0  0  0  0
  187.4700  177.6810  143.7570 C   0  0  0  0  0  0  0  0  0  0  0  0
  182.6260  178.9110  142.9820 C   0  0  0  0  0  3  0  0  0  0  0  0
  183.6940  178.6220  142.1200 C   0  0  0  0  0  0  0  0  0  0  0  0
  182.7980  178.8810  144.3660 C   0  0  0  0  0  3  0  0  0  0  0  0
  187.8050  177.6230  146.6220 C   0  0  0  0  0  0  0  0  0  0  0  0
  189.7590  177.0970  143.4000 N   0  0  0  0  0  0  0  0  0  0  0  0
  188.7400  177.3630  144.2600 C   0  0  0  0  0  0  0  0  0  0  0  0
  188.7020  178.4090  148.7880 C   0  0  0  0  0  2  0  0  0  0  0  0
  187.8990  177.6130  148.0930 C   0  0  0  0  0  3  0  0  0  0  0  0
  183.2150  177.3100  140.0210 C   0  0  0  0  0  1  0  0  0  0  0  0
  183.4900  178.6820  140.6280 C   0  0  1  0  0  3  0  0  0  0  0  0
  181.4880  180.6060  138.4840 N   0  0  0  0  0  0  0  0  0  0  0  0
  182.7050  180.1760  138.9040 O   0  0  0  0  0  0  0  0  0  0  0  0
  181.0250  179.2450  140.2890 C   0  0  0  0  0  2  0  0  0  0  0  0
  180.3700  179.9860  139.1620 C   0  0  0  0  0  2  0  0  0  0  0  0
  182.4650  179.7430  140.2190 C   0  0  1  0  0  3  0  0  0  0  0  0
  181.8030  184.2080  137.4970 C   0  0  0  0  0  3  0  0  0  0  0  0
  181.0570  184.2260  136.3160 C   0  0  0  0  0  3  0  0  0  0  0  0
  180.6010  181.8620  136.5670 C   0  0  0  0  0  3  0  0  0  0  0  0
  180.4560  183.0540  135.8510 C   0  0  0  0  0  3  0  0  0  0  0  0
  181.3510  181.8320  137.7520 C   0  0  0  0  0  0  0  0  0  0  0  0
  181.9480  183.0160  138.2130 C   0  0  0  0  0  3  0  0  0  0  0  0
  1 11  1  0  0  0  0
  3 12  1  0  0  0  0
  4 16  2  0  0  0  0
  6  9  2  0  0  0  0
  6  3  1  0  0  0  0
  7  3  2  0  0  0  0
  7  1  1  0  0  0  0
  8  4  1  0  0  0  0
  9 17  1  0  0  0  0
 10  5  2  0  0  0  0
 10 16  1  0  0  0  0
 11  8  1  0  0  0  0
 11  2  2  0  0  0  0
 12 18  1  0  0  0  0
 12  8  2  0  0  0  0
 13 15  2  0  0  0  0
 14  1  2  0  0  0  0
 14 13  1  0  0  0  0
 15  2  1  0  0  0  0
 16 20  1  0  0  0  0
 17 18  2  0  0  0  0
 18 10  1  0  0  0  0
 20 19  2  0  0  0  0
 22 21  1  1  0  0  0
 22 14  1  0  0  0  0
 23 24  1  0  0  0  0
 23 26  1  0  0  0  0
 24 27  1  0  0  0  0
 26 25  1  0  0  0  0
 27 25  1  0  0  0  0
 27 22  1  6  0  0  0
 28 33  1  0  0  0  0
 29 28  2  0  0  0  0
 30 32  1  0  0  0  0
 31 29  1  0  0  0  0
 31 30  2  0  0  0  0
 32 33  2  0  0  0  0
 32 23  1  0  0  0  0
M  END
>  <MODEL>
2

>  <REMARK>
 VINA RESULT:     -10.9      3.004      7.598
  Name = 
  4 active torsions:
  status: ('A' for Active; 'I' for Inactive)
    1  A    between atoms: N_2  and  C_19
    2  A    between atoms: C_23  and  C_33
    3  A    between atoms: C_25  and  C_33
    4  A    between atoms: C_27  and  C_28
                            x       y       z     vdW  Elec       q    Type
                         _______ _______ _______ _____ _____    ______ ____

>  <TORSDO>
F 4

$$$$
=
 OpenBabel10222417573D

 33 38  0  0  1  0  0  0  0  0999 V2000
  188.0720  177.7300  141.6740 C   0  0  0  0  0  0  0  0  0  0  0  0
  189.8180  177.0200  143.2190 C   0  0  0  0  0  3  0  0  0  0  0  0
  185.9100  178.4460  142.5250 C   0  0  0  0  0  0  0  0  0  0  0  0
  188.0800  177.5060  145.4910 C   0  0  0  0  0  3  0  0  0  0  0  0
  185.0930  178.4620  147.2320 O   0  0  0  0  0  0  0  0  0  0  0  0
  184.6510  178.9030  142.3020 N   0  0  0  0  0  0  0  0  0  0  0  0
  186.7690  178.2040  141.4540 C   0  0  0  0  0  3  0  0  0  0  0  0
  187.6490  177.7400  144.0900 C   0  0  0  0  0  0  0  0  0  0  0  0
  183.8020  179.1440  143.3370 C   0  0  0  0  0  3  0  0  0  0  0  0
  185.8890  178.2360  146.2820 C   0  0  0  0  0  0  0  0  0  0  0  0
  188.5170  177.4960  143.0050 C   0  0  0  0  0  0  0  0  0  0  0  0
  186.3480  178.2150  143.8400 C   0  0  0  0  0  0  0  0  0  0  0  0
  190.2360  177.0060  140.8390 C   0  0  0  0  0  3  0  0  0  0  0  0
  188.9420  177.4870  140.5890 C   0  0  0  0  0  0  0  0  0  0  0  0
  190.6710  176.7750  142.1430 C   0  0  0  0  0  3  0  0  0  0  0  0
  187.2690  177.7330  146.5310 C   0  0  0  0  0  0  0  0  0  0  0  0
  184.2050  178.9270  144.6180 N   0  0  0  0  0  0  0  0  0  0  0  0
  185.4560  178.4700  144.8910 C   0  0  0  0  0  0  0  0  0  0  0  0
  188.7490  178.2000  148.4560 C   0  0  0  0  0  2  0  0  0  0  0  0
  187.8100  177.4630  147.8760 C   0  0  0  0  0  3  0  0  0  0  0  0
  189.1840  178.8930  138.5100 C   0  0  0  0  0  1  0  0  0  0  0  0
  188.4860  177.7080  139.1700 C   0  0  1  0  0  3  0  0  0  0  0  0
  187.5260  175.3930  136.7150 N   0  0  0  0  0  0  0  0  0  0  0  0
  187.2620  176.1150  137.8340 O   0  0  0  0  0  0  0  0  0  0  0  0
  189.4890  176.5290  137.1420 C   0  0  0  0  0  2  0  0  0  0  0  0
  188.8100  175.6770  136.1120 C   0  0  0  0  0  2  0  0  0  0  0  0
  188.5390  176.4290  138.3310 C   0  0  1  0  0  3  0  0  0  0  0  0
  186.2710  172.3460  134.9290 C   0  0  0  0  0  3  0  0  0  0  0  0
  185.3320  171.8690  135.8470 C   0  0  0  0  0  3  0  0  0  0  0  0
  185.8440  173.7110  137.3310 C   0  0  0  0  0  3  0  0  0  0  0  0
  185.1180  172.5510  137.0470 C   0  0  0  0  0  3  0  0  0  0  0  0
  186.7910  174.1970  136.4180 C   0  0  0  0  0  0  0  0  0  0  0  0
  186.9970  173.5070  135.2130 C   0  0  0  0  0  3  0  0  0  0  0  0
  1 11  1  0  0  0  0
  3 12  1  0  0  0  0
  4 16  2  0  0  0  0
  6  3  2  0  0  0  0
  6  9  1  0  0  0  0
  7  1  2  0  0  0  0
  7  3  1  0  0  0  0
  8  4  1  0  0  0  0
  9 17  2  0  0  0  0
 10 16  1  0  0  0  0
 10  5  2  0  0  0  0
 11  2  1  0  0  0  0
 11  8  2  0  0  0  0
 12  8  1  0  0  0  0
 12 18  2  0  0  0  0
 13 15  1  0  0  0  0
 14 13  2  0  0  0  0
 14  1  1  0  0  0  0
 15  2  2  0  0  0  0
 16 20  1  0  0  0  0
 17 18  1  0  0  0  0
 18 10  1  0  0  0  0
 20 19  2  0  0  0  0
 22 21  1  6  0  0  0
 22 14  1  0  0  0  0
 23 24  1  0  0  0  0
 24 27  1  0  0  0  0
 25 27  1  0  0  0  0
 26 23  1  0  0  0  0
 26 25  1  0  0  0  0
 27 22  1  6  0  0  0
 28 33  2  0  0  0  0
 28 29  1  0  0  0  0
 29 31  2  0  0  0  0
 31 30  1  0  0  0  0
 32 23  1  0  0  0  0
 32 30  2  0  0  0  0
 33 32  1  0  0  0  0
M  END
>  <MODEL>
3

>  <REMARK>
 VINA RESULT:     -10.8      3.448      6.061
  Name = 
  4 active torsions:
  status: ('A' for Active; 'I' for Inactive)
    1  A    between atoms: N_2  and  C_19
    2  A    between atoms: C_23  and  C_33
    3  A    between atoms: C_25  and  C_33
    4  A    between atoms: C_27  and  C_28
                            x       y       z     vdW  Elec       q    Type
                         _______ _______ _______ _____ _____    ______ ____

>  <TORSDO>
F 4

$$$$
=
 OpenBabel10222417573D

 33 38  0  0  1  0  0  0  0  0999 V2000
  189.0040  177.7250  141.1460 C   0  0  0  0  0  0  0  0  0  0  0  0
  191.2380  177.2330  141.9870 C   0  0  0  0  0  3  0  0  0  0  0  0
  187.1420  177.9480  142.6920 C   0  0  0  0  0  0  0  0  0  0  0  0
  190.2590  177.1960  144.7180 C   0  0  0  0  0  3  0  0  0  0  0  0
  187.8710  177.4250  147.3850 O   0  0  0  0  0  0  0  0  0  0  0  0
  185.8230  178.1770  142.9200 N   0  0  0  0  0  0  0  0  0  0  0  0
  187.6430  177.9610  141.3920 C   0  0  0  0  0  3  0  0  0  0  0  0
  189.3750  177.4580  143.5550 C   0  0  0  0  0  0  0  0  0  0  0  0
  185.3210  178.1670  144.1840 C   0  0  0  0  0  3  0  0  0  0  0  0
  188.3480  177.4310  146.2190 C   0  0  0  0  0  0  0  0  0  0  0  0
  189.8800  177.4710  142.2380 C   0  0  0  0  0  0  0  0  0  0  0  0
  188.0050  177.6970  143.7730 C   0  0  0  0  0  0  0  0  0  0  0  0
  190.8740  177.4920  139.6120 C   0  0  0  0  0  3  0  0  0  0  0  0
  189.5110  177.7400  139.8280 C   0  0  0  0  0  0  0  0  0  0  0  0
  191.7320  177.2430  140.6830 C   0  0  0  0  0  3  0  0  0  0  0  0
  189.7960  177.1790  145.9740 C   0  0  0  0  0  0  0  0  0  0  0  0
  186.1380  177.9260  145.2440 N   0  0  0  0  0  0  0  0  0  0  0  0
  187.4650  177.6920  145.0670 C   0  0  0  0  0  0  0  0  0  0  0  0
  191.8540  176.1570  146.8880 C   0  0  0  0  0  2  0  0  0  0  0  0
  190.7710  176.9080  147.0460 C   0  0  0  0  0  3  0  0  0  0  0  0
  189.1730  179.0030  137.6720 C   0  0  0  0  0  1  0  0  0  0  0  0
  188.5990  177.9870  138.6540 C   0  0  1  0  0  3  0  0  0  0  0  0
  186.5320  175.8440  136.7980 N   0  0  0  0  0  0  0  0  0  0  0  0
  186.7420  176.6700  137.8550 O   0  0  0  0  0  0  0  0  0  0  0  0
  188.7400  176.4850  136.5960 C   0  0  0  0  0  2  0  0  0  0  0  0
  187.6400  175.7700  135.8700 C   0  0  0  0  0  2  0  0  0  0  0  0
  188.1410  176.6880  137.9850 C   0  0  1  0  0  3  0  0  0  0  0  0
  183.2160  174.1510  136.3640 C   0  0  0  0  0  3  0  0  0  0  0  0
  183.4820  172.8990  136.9250 C   0  0  0  0  0  3  0  0  0  0  0  0
  185.7530  173.5920  137.3960 C   0  0  0  0  0  3  0  0  0  0  0  0
  184.7500  172.6190  137.4410 C   0  0  0  0  0  3  0  0  0  0  0  0
  185.4980  174.8500  136.8320 C   0  0  0  0  0  0  0  0  0  0  0  0
  184.2200  175.1230  136.3190 C   0  0  0  0  0  3  0  0  0  0  0  0
  1  7  2  0  0  0  0
  1 11  1  0  0  0  0
  2 11  1  0  0  0  0
  3  6  2  0  0  0  0
  3 12  1  0  0  0  0
  4 16  2  0  0  0  0
  6  9  1  0  0  0  0
  7  3  1  0  0  0  0
  8 12  1  0  0  0  0
  8  4  1  0  0  0  0
  9 17  2  0  0  0  0
 10  5  2  0  0  0  0
 11  8  2  0  0  0  0
 12 18  2  0  0  0  0
 13 14  2  0  0  0  0
 13 15  1  0  0  0  0
 14  1  1  0  0  0  0
 15  2  2  0  0  0  0
 16 10  1  0  0  0  0
 16 20  1  0  0  0  0
 18 17  1  0  0  0  0
 18 10  1  0  0  0  0
 19 20  2  0  0  0  0
 22 21  1  6  0  0  0
 22 14  1  0  0  0  0
 23 32  1  0  0  0  0
 23 24  1  0  0  0  0
 24 27  1  0  0  0  0
 25 27  1  0  0  0  0
 26 25  1  0  0  0  0
 26 23  1  0  0  0  0
 27 22  1  6  0  0  0
 28 29  1  0  0  0  0
 29 31  2  0  0  0  0
 30 31  1  0  0  0  0
 32 30  2  0  0  0  0
 33 28  2  0  0  0  0
 33 32  1  0  0  0  0
M  END
>  <MODEL>
4

>  <REMARK>
 VINA RESULT:     -10.7      3.335      7.146
  Name = 
  4 active torsions:
  status: ('A' for Active; 'I' for Inactive)
    1  A    between atoms: N_2  and  C_19
    2  A    between atoms: C_23  and  C_33
    3  A    between atoms: C_25  and  C_33
    4  A    between atoms: C_27  and  C_28
                            x       y       z     vdW  Elec       q    Type
                         _______ _______ _______ _____ _____    ______ ____

>  <TORSDO>
F 4

$$$$
=
 OpenBabel10222417573D

 33 38  0  0  1  0  0  0  0  0999 V2000
  188.5620  177.4740  142.2100 C   0  0  0  0  0  0  0  0  0  0  0  0
  190.2780  177.2020  143.9200 C   0  0  0  0  0  3  0  0  0  0  0  0
  186.2880  178.0510  142.8480 C   0  0  0  0  0  0  0  0  0  0  0  0
  188.3630  177.8070  146.0140 C   0  0  0  0  0  3  0  0  0  0  0  0
  185.1900  178.6530  147.4580 O   0  0  0  0  0  0  0  0  0  0  0  0
  185.0030  178.3220  142.5030 N   0  0  0  0  0  0  0  0  0  0  0  0
  187.2310  177.7580  141.8650 C   0  0  0  0  0  3  0  0  0  0  0  0
  187.9950  177.7840  144.5760 C   0  0  0  0  0  0  0  0  0  0  0  0
  184.0720  178.6100  143.4520 C   0  0  0  0  0  3  0  0  0  0  0  0
  186.0620  178.3850  146.5890 C   0  0  0  0  0  0  0  0  0  0  0  0
  188.9480  177.4880  143.5790 C   0  0  0  0  0  0  0  0  0  0  0  0
  186.6680  178.0640  144.2010 C   0  0  0  0  0  0  0  0  0  0  0  0
  190.8380  176.8910  141.5900 C   0  0  0  0  0  3  0  0  0  0  0  0
  189.5170  177.1790  141.2140 C   0  0  0  0  0  0  0  0  0  0  0  0
  191.2160  176.9040  142.9320 C   0  0  0  0  0  3  0  0  0  0  0  0
  187.4710  178.0860  146.9710 C   0  0  0  0  0  0  0  0  0  0  0  0
  184.4170  178.6290  144.7680 N   0  0  0  0  0  0  0  0  0  0  0  0
  185.6910  178.3640  145.1610 C   0  0  0  0  0  0  0  0  0  0  0  0
  189.2240  178.2610  148.7060 C   0  0  0  0  0  2  0  0  0  0  0  0
  187.9550  178.0790  148.3640 C   0  0  0  0  0  3  0  0  0  0  0  0
  188.2840  178.3400  139.3460 C   0  0  0  0  0  1  0  0  0  0  0  0
  189.1270  177.1380  139.7580 C   0  0  1  0  0  3  0  0  0  0  0  0
  191.1880  175.4140  137.5020 N   0  0  0  0  0  0  0  0  0  0  0  0
  190.5680  175.5140  138.7060 O   0  0  0  0  0  0  0  0  0  0  0  0
  190.1320  177.4660  137.4370 C   0  0  0  0  0  2  0  0  0  0  0  0
  190.8730  176.4830  136.5790 C   0  0  0  0  0  2  0  0  0  0  0  0
  190.3250  176.8920  138.8370 C   0  0  1  0  0  3  0  0  0  0  0  0
  193.3910  172.5900  136.4010 C   0  0  0  0  0  3  0  0  0  0  0  0
  194.5930  172.9320  137.0260 C   0  0  0  0  0  3  0  0  0  0  0  0
  193.5480  174.9060  137.9570 C   0  0  0  0  0  3  0  0  0  0  0  0
  194.6720  174.0890  137.8030 C   0  0  0  0  0  3  0  0  0  0  0  0
  192.3370  174.5730  137.3320 C   0  0  0  0  0  0  0  0  0  0  0  0
  192.2670  173.4060  136.5550 C   0  0  0  0  0  3  0  0  0  0  0  0
  1 11  1  0  0  0  0
  3 12  1  0  0  0  0
  4 16  2  0  0  0  0
  6  3  2  0  0  0  0
  6  9  1  0  0  0  0
  7  1  2  0  0  0  0
  7  3  1  0  0  0  0
  8  4  1  0  0  0  0
  9 17  2  0  0  0  0
 10 16  1  0  0  0  0
 10  5  2  0  0  0  0
 11  2  1  0  0  0  0
 11  8  2  0  0  0  0
 12  8  1  0  0  0  0
 12 18  2  0  0  0  0
 13 15  1  0  0  0  0
 14 13  2  0  0  0  0
 14  1  1  0  0  0  0
 15  2  2  0  0  0  0
 16 20  1  0  0  0  0
 17 18  1  0  0  0  0
 18 10  1  0  0  0  0
 20 19  2  0  0  0  0
 22 21  1  6  0  0  0
 22 14  1  0  0  0  0
 23 24  1  0  0  0  0
 24 27  1  0  0  0  0
 25 27  1  0  0  0  0
 26 25  1  0  0  0  0
 26 23  1  0  0  0  0
 27 22  1  1  0  0  0
 28 33  2  0  0  0  0
 28 29  1  0  0  0  0
 29 31  2  0  0  0  0
 31 30  1  0  0  0  0
 32 23  1  0  0  0  0
 32 30  2  0  0  0  0
 33 32  1  0  0  0  0
M  END
>  <MODEL>
5

>  <REMARK>
 VINA RESULT:     -10.4      2.842      5.902
  Name = 
  4 active torsions:
  status: ('A' for Active; 'I' for Inactive)
    1  A    between atoms: N_2  and  C_19
    2  A    between atoms: C_23  and  C_33
    3  A    between atoms: C_25  and  C_33
    4  A    between atoms: C_27  and  C_28
                            x       y       z     vdW  Elec       q    Type
                         _______ _______ _______ _____ _____    ______ ____

>  <TORSDO>
F 4

$$$$
=
 OpenBabel10222417573D

 33 38  0  0  1  0  0  0  0  0999 V2000
  188.0140  178.0320  141.0960 C   0  0  0  0  0  0  0  0  0  0  0  0
  189.9630  177.2310  142.3210 C   0  0  0  0  0  3  0  0  0  0  0  0
  185.9660  178.5770  142.2870 C   0  0  0  0  0  0  0  0  0  0  0  0
  188.5260  177.4170  144.8340 C   0  0  0  0  0  3  0  0  0  0  0  0
  185.7710  178.0790  147.0340 O   0  0  0  0  0  0  0  0  0  0  0  0
  184.6790  179.0080  142.2760 N   0  0  0  0  0  0  0  0  0  0  0  0
  186.6830  178.4780  141.0960 C   0  0  0  0  0  3  0  0  0  0  0  0
  187.9110  177.7780  143.5330 C   0  0  0  0  0  0  0  0  0  0  0  0
  183.9670  179.1100  143.4300 C   0  0  0  0  0  3  0  0  0  0  0  0
  186.4410  177.9810  145.9710 C   0  0  0  0  0  0  0  0  0  0  0  0
  188.6350  177.6790  142.3260 C   0  0  0  0  0  0  0  0  0  0  0  0
  186.5770  178.2270  143.5030 C   0  0  0  0  0  0  0  0  0  0  0  0
  190.0660  177.4770  139.9190 C   0  0  0  0  0  3  0  0  0  0  0  0
  188.7400  177.9340  139.8890 C   0  0  0  0  0  0  0  0  0  0  0  0
  190.6740  177.1300  141.1250 C   0  0  0  0  0  3  0  0  0  0  0  0
  187.8530  177.5060  145.9880 C   0  0  0  0  0  0  0  0  0  0  0  0
  184.5380  178.7770  144.6190 N   0  0  0  0  0  0  0  0  0  0  0  0
  185.8250  178.3400  144.6810 C   0  0  0  0  0  0  0  0  0  0  0  0
  189.0340  177.9890  148.1060 C   0  0  0  0  0  2  0  0  0  0  0  0
  188.5710  177.1200  147.2160 C   0  0  0  0  0  3  0  0  0  0  0  0
  189.0560  179.0000  137.6260 C   0  0  0  0  0  1  0  0  0  0  0  0
  188.0980  178.2830  138.5710 C   0  0  1  0  0  3  0  0  0  0  0  0
  185.7900  176.5710  136.5570 N   0  0  0  0  0  0  0  0  0  0  0  0
  186.0750  177.4230  137.5750 O   0  0  0  0  0  0  0  0  0  0  0  0
  188.0950  176.5810  136.6710 C   0  0  0  0  0  2  0  0  0  0  0  0
  186.9500  176.1050  135.8280 C   0  0  0  0  0  2  0  0  0  0  0  0
  187.3930  177.0860  137.9270 C   0  0  1  0  0  3  0  0  0  0  0  0
  182.4910  175.3220  135.2930 C   0  0  0  0  0  3  0  0  0  0  0  0
  182.0490  174.5800  136.3920 C   0  0  0  0  0  3  0  0  0  0  0  0
  184.0720  175.1510  137.5910 C   0  0  0  0  0  3  0  0  0  0  0  0
  182.8390  174.4950  137.5400 C   0  0  0  0  0  3  0  0  0  0  0  0
  184.5260  175.8950  136.4930 C   0  0  0  0  0  0  0  0  0  0  0  0
  183.7240  175.9780  135.3440 C   0  0  0  0  0  3  0  0  0  0  0  0
  1 11  1  0  0  0  0
  2 11  1  0  0  0  0
  3 12  1  0  0  0  0
  4 16  2  0  0  0  0
  6  3  2  0  0  0  0
  6  9  1  0  0  0  0
  7  1  2  0  0  0  0
  7  3  1  0  0  0  0
  8  4  1  0  0  0  0
  9 17  2  0  0  0  0
 10 16  1  0  0  0  0
 10  5  2  0  0  0  0
 11  8  2  0  0  0  0
 12  8  1  0  0  0  0
 12 18  2  0  0  0  0
 13 15  1  0  0  0  0
 14 13  2  0  0  0  0
 14  1  1  0  0  0  0
 15  2  2  0  0  0  0
 16 20  1  0  0  0  0
 17 18  1  0  0  0  0
 18 10  1  0  0  0  0
 20 19  2  0  0  0  0
 22 21  1  6  0  0  0
 22 14  1  0  0  0  0
 23 24  1  0  0  0  0
 24 27  1  0  0  0  0
 25 27  1  0  0  0  0
 26 23  1  0  0  0  0
 26 25  1  0  0  0  0
 27 22  1  6  0  0  0
 28 33  2  0  0  0  0
 28 29  1  0  0  0  0
 29 31  2  0  0  0  0
 31 30  1  0  0  0  0
 32 23  1  0  0  0  0
 32 30  2  0  0  0  0
 33 32  1  0  0  0  0
M  END
>  <MODEL>
6

>  <REMARK>
 VINA RESULT:     -10.2      3.099      6.518
  Name = 
  4 active torsions:
  status: ('A' for Active; 'I' for Inactive)
    1  A    between atoms: N_2  and  C_19
    2  A    between atoms: C_23  and  C_33
    3  A    between atoms: C_25  and  C_33
    4  A    between atoms: C_27  and  C_28
                            x       y       z     vdW  Elec       q    Type
                         _______ _______ _______ _____ _____    ______ ____

>  <TORSDO>
F 4

$$$$
=
 OpenBabel10222417573D

 33 38  0  0  1  0  0  0  0  0999 V2000
  183.9900  178.6540  141.5740 C   0  0  0  0  0  0  0  0  0  0  0  0
  183.3490  178.6310  143.9250 C   0  0  0  0  0  3  0  0  0  0  0  0
  186.3180  178.3440  140.9430 C   0  0  0  0  0  0  0  0  0  0  0  0
  186.1010  178.1840  144.7260 C   0  0  0  0  0  3  0  0  0  0  0  0
  189.6300  177.6870  144.3220 O   0  0  0  0  0  0  0  0  0  0  0  0
  187.2740  178.2540  139.9840 N   0  0  0  0  0  0  0  0  0  0  0  0
  184.9870  178.5580  140.5890 C   0  0  0  0  0  3  0  0  0  0  0  0
  185.6930  178.3150  143.3060 C   0  0  0  0  0  0  0  0  0  0  0  0
  188.5770  178.0460  140.3140 C   0  0  0  0  0  3  0  0  0  0  0  0
  188.4200  177.8790  144.0280 C   0  0  0  0  0  0  0  0  0  0  0  0
  184.3460  178.5310  142.9450 C   0  0  0  0  0  0  0  0  0  0  0  0
  186.6710  178.2240  142.2980 C   0  0  0  0  0  0  0  0  0  0  0  0
  181.6690  178.9690  142.2200 C   0  0  0  0  0  3  0  0  0  0  0  0
  182.6420  178.8680  141.2140 C   0  0  0  0  0  0  0  0  0  0  0  0
  182.0190  178.8490  143.5650 C   0  0  0  0  0  3  0  0  0  0  0  0
  187.3740  177.9790  145.0850 C   0  0  0  0  0  0  0  0  0  0  0  0
  188.9420  177.9260  141.6190 N   0  0  0  0  0  0  0  0  0  0  0  0
  188.0200  178.0090  142.6150 C   0  0  0  0  0  0  0  0  0  0  0  0
  186.8080  178.2360  147.4780 C   0  0  0  0  0  2  0  0  0  0  0  0
  187.6560  177.8640  146.5280 C   0  0  0  0  0  3  0  0  0  0  0  0
  181.4580  177.8220  139.2490 C   0  0  0  0  0  1  0  0  0  0  0  0
  182.2430  179.0220  139.7690 C   0  0  1  0  0  3  0  0  0  0  0  0
  180.5090  181.4630  137.9410 N   0  0  0  0  0  0  0  0  0  0  0  0
  181.5790  180.6450  138.1120 O   0  0  0  0  0  0  0  0  0  0  0  0
  180.1070  180.4030  139.9520 C   0  0  0  0  0  2  0  0  0  0  0  0
  179.4660  181.2940  138.9300 C   0  0  0  0  0  2  0  0  0  0  0  0
  181.5600  180.3630  139.4880 C   0  0  1  0  0  3  0  0  0  0  0  0
  180.4170  183.7300  134.9580 C   0  0  0  0  0  3  0  0  0  0  0  0
  180.8050  184.9420  135.5330 C   0  0  0  0  0  3  0  0  0  0  0  0
  180.9940  183.8580  137.6890 C   0  0  0  0  0  3  0  0  0  0  0  0
  181.0940  185.0070  136.8980 C   0  0  0  0  0  3  0  0  0  0  0  0
  180.6010  182.6370  137.1220 C   0  0  0  0  0  0  0  0  0  0  0  0
  180.3160  182.5810  135.7490 C   0  0  0  0  0  3  0  0  0  0  0  0
  1 11  1  0  0  0  0
  3 12  1  0  0  0  0
  4 16  2  0  0  0  0
  6  9  2  0  0  0  0
  6  3  1  0  0  0  0
  7  3  2  0  0  0  0
  7  1  1  0  0  0  0
  8  4  1  0  0  0  0
  9 17  1  0  0  0  0
 10  5  2  0  0  0  0
 10 16  1  0  0  0  0
 11  8  1  0  0  0  0
 11  2  2  0  0  0  0
 12 18  1  0  0  0  0
 12  8  2  0  0  0  0
 13 15  2  0  0  0  0
 14  1  2  0  0  0  0
 14 13  1  0  0  0  0
 15  2  1  0  0  0  0
 16 20  1  0  0  0  0
 17 18  2  0  0  0  0
 18 10  1  0  0  0  0
 20 19  2  0  0  0  0
 22 21  1  1  0  0  0
 22 14  1  0  0  0  0
 23 24  1  0  0  0  0
 23 26  1  0  0  0  0
 24 27  1  0  0  0  0
 26 25  1  0  0  0  0
 27 22  1  6  0  0  0
 27 25  1  0  0  0  0
 28 29  2  0  0  0  0
 28 33  1  0  0  0  0
 29 31  1  0  0  0  0
 31 30  2  0  0  0  0
 32 30  1  0  0  0  0
 32 23  1  0  0  0  0
 33 32  2  0  0  0  0
M  END
>  <MODEL>
7

>  <REMARK>
 VINA RESULT:     -10.2      3.396      7.901
  Name = 
  4 active torsions:
  status: ('A' for Active; 'I' for Inactive)
    1  A    between atoms: N_2  and  C_19
    2  A    between atoms: C_23  and  C_33
    3  A    between atoms: C_25  and  C_33
    4  A    between atoms: C_27  and  C_28
                            x       y       z     vdW  Elec       q    Type
                         _______ _______ _______ _____ _____    ______ ____

>  <TORSDO>
F 4

$$$$
=
 OpenBabel10222417573D

 33 38  0  0  1  0  0  0  0  0999 V2000
  185.5800  178.0060  143.4010 C   0  0  0  0  0  0  0  0  0  0  0  0
  185.1110  178.6760  145.6970 C   0  0  0  0  0  3  0  0  0  0  0  0
  187.7880  177.1850  142.7980 C   0  0  0  0  0  0  0  0  0  0  0  0
  187.8200  178.0170  146.4990 C   0  0  0  0  0  3  0  0  0  0  0  0
  191.2030  176.8850  146.1250 O   0  0  0  0  0  0  0  0  0  0  0  0
  188.6510  176.7070  141.8650 N   0  0  0  0  0  0  0  0  0  0  0  0
  186.4800  177.5100  142.4440 C   0  0  0  0  0  3  0  0  0  0  0  0
  187.3360  177.8500  145.1060 C   0  0  0  0  0  0  0  0  0  0  0  0
  189.9310  176.3870  142.1970 C   0  0  0  0  0  3  0  0  0  0  0  0
  190.0160  177.1860  145.8310 C   0  0  0  0  0  0  0  0  0  0  0  0
  186.0120  178.1770  144.7450 C   0  0  0  0  0  0  0  0  0  0  0  0
  188.2160  177.3550  144.1260 C   0  0  0  0  0  0  0  0  0  0  0  0
  183.3810  178.8340  144.0170 C   0  0  0  0  0  3  0  0  0  0  0  0
  184.2550  178.3320  143.0410 C   0  0  0  0  0  0  0  0  0  0  0  0
  183.8040  179.0030  145.3340 C   0  0  0  0  0  3  0  0  0  0  0  0
  189.0730  177.7110  146.8580 C   0  0  0  0  0  0  0  0  0  0  0  0
  190.3670  176.5430  143.4760 N   0  0  0  0  0  0  0  0  0  0  0  0
  189.5390  177.0180  144.4450 C   0  0  0  0  0  0  0  0  0  0  0  0
  188.5670  178.2520  149.2170 C   0  0  0  0  0  2  0  0  0  0  0  0
  189.4370  177.9200  148.2710 C   0  0  0  0  0  3  0  0  0  0  0  0
  182.3360  178.6280  141.4330 C   0  0  0  0  0  1  0  0  0  0  0  0
  183.7810  178.1780  141.6180 C   0  0  1  0  0  3  0  0  0  0  0  0
  185.7070  178.4340  138.6970 N   0  0  0  0  0  0  0  0  0  0  0  0
  185.3850  177.8030  139.8550 O   0  0  0  0  0  0  0  0  0  0  0  0
  184.0600  179.7530  139.6320 C   0  0  0  0  0  2  0  0  0  0  0  0
  184.8580  179.5620  138.3770 C   0  0  0  0  0  2  0  0  0  0  0  0
  184.7460  178.8030  140.6080 C   0  0  1  0  0  3  0  0  0  0  0  0
  189.3850  177.8510  138.2790 C   0  0  0  0  0  3  0  0  0  0  0  0
  189.5080  177.9150  136.8880 C   0  0  0  0  0  3  0  0  0  0  0  0
  187.1290  178.3170  136.6970 C   0  0  0  0  0  3  0  0  0  0  0  0
  188.3810  178.1480  136.0970 C   0  0  0  0  0  3  0  0  0  0  0  0
  186.9940  178.2520  138.0910 C   0  0  0  0  0  0  0  0  0  0  0  0
  188.1340  178.0200  138.8780 C   0  0  0  0  0  3  0  0  0  0  0  0
  1 11  1  0  0  0  0
  3 12  1  0  0  0  0
  4 16  2  0  0  0  0
  6  9  2  0  0  0  0
  6  3  1  0  0  0  0
  7  3  2  0  0  0  0
  7  1  1  0  0  0  0
  8  4  1  0  0  0  0
  9 17  1  0  0  0  0
 10  5  2  0  0  0  0
 10 16  1  0  0  0  0
 11  8  1  0  0  0  0
 11  2  2  0  0  0  0
 12 18  1  0  0  0  0
 12  8  2  0  0  0  0
 13 15  2  0  0  0  0
 14  1  2  0  0  0  0
 14 13  1  0  0  0  0
 15  2  1  0  0  0  0
 16 20  1  0  0  0  0
 17 18  2  0  0  0  0
 18 10  1  0  0  0  0
 20 19  2  0  0  0  0
 22 21  1  1  0  0  0
 22 14  1  0  0  0  0
 23 24  1  0  0  0  0
 24 27  1  0  0  0  0
 25 27  1  0  0  0  0
 26 23  1  0  0  0  0
 26 25  1  0  0  0  0
 27 22  1  1  0  0  0
 28 33  1  0  0  0  0
 29 28  2  0  0  0  0
 30 32  1  0  0  0  0
 31 30  2  0  0  0  0
 31 29  1  0  0  0  0
 32 23  1  0  0  0  0
 32 33  2  0  0  0  0
M  END
>  <MODEL>
8

>  <REMARK>
 VINA RESULT:     -10.1      1.867      6.000
  Name = 
  4 active torsions:
  status: ('A' for Active; 'I' for Inactive)
    1  A    between atoms: N_2  and  C_19
    2  A    between atoms: C_23  and  C_33
    3  A    between atoms: C_25  and  C_33
    4  A    between atoms: C_27  and  C_28
                            x       y       z     vdW  Elec       q    Type
                         _______ _______ _______ _____ _____    ______ ____

>  <TORSDO>
F 4

$$$$
=
 OpenBabel10222417573D

 33 38  0  0  1  0  0  0  0  0999 V2000
  188.1320  178.0360  140.5000 C   0  0  0  0  0  0  0  0  0  0  0  0
  190.0970  177.1680  141.6520 C   0  0  0  0  0  3  0  0  0  0  0  0
  186.1100  178.5420  141.7520 C   0  0  0  0  0  0  0  0  0  0  0  0
  188.7080  177.2560  144.1980 C   0  0  0  0  0  3  0  0  0  0  0  0
  185.9990  177.8400  146.4760 O   0  0  0  0  0  0  0  0  0  0  0  0
  184.8260  178.9830  141.7840 N   0  0  0  0  0  0  0  0  0  0  0  0
  186.8040  178.4900  140.5440 C   0  0  0  0  0  3  0  0  0  0  0  0
  188.0710  177.6770  142.9250 C   0  0  0  0  0  0  0  0  0  0  0  0
  184.1370  179.0390  142.9550 C   0  0  0  0  0  3  0  0  0  0  0  0
  186.6480  177.7840  145.3970 C   0  0  0  0  0  0  0  0  0  0  0  0
  188.7720  177.6250  141.7020 C   0  0  0  0  0  0  0  0  0  0  0  0
  186.7410  178.1360  142.9400 C   0  0  0  0  0  0  0  0  0  0  0  0
  190.1570  177.5180  139.2620 C   0  0  0  0  0  3  0  0  0  0  0  0
  188.8340  177.9850  139.2770 C   0  0  0  0  0  0  0  0  0  0  0  0
  190.7840  177.1140  140.4400 C   0  0  0  0  0  3  0  0  0  0  0  0
  188.0570  177.2980  145.3670 C   0  0  0  0  0  0  0  0  0  0  0  0
  184.7270  178.6510  144.1170 N   0  0  0  0  0  0  0  0  0  0  0  0
  186.0110  178.2030  144.1350 C   0  0  0  0  0  0  0  0  0  0  0  0
  189.2320  177.6760  147.5090 C   0  0  0  0  0  2  0  0  0  0  0  0
  188.7940  176.8540  146.5630 C   0  0  0  0  0  3  0  0  0  0  0  0
  189.0160  179.3750  137.1810 C   0  0  0  0  0  1  0  0  0  0  0  0
  188.1700  178.3950  137.9870 C   0  0  1  0  0  3  0  0  0  0  0  0
  187.4800  175.0360  137.2470 N   0  0  0  0  0  0  0  0  0  0  0  0
  188.3510  176.0250  137.5740 O   0  0  0  0  0  0  0  0  0  0  0  0
  186.1870  176.9470  137.2990 C   0  0  0  0  0  2  0  0  0  0  0  0
  186.0950  175.4540  137.1980 C   0  0  0  0  0  2  0  0  0  0  0  0
  187.6860  177.1950  137.1690 C   0  0  1  0  0  3  0  0  0  0  0  0
  187.5650  171.5230  135.9450 C   0  0  0  0  0  3  0  0  0  0  0  0
  188.8510  171.4720  135.4020 C   0  0  0  0  0  3  0  0  0  0  0  0
  189.2260  173.7670  136.0740 C   0  0  0  0  0  3  0  0  0  0  0  0
  189.6820  172.5930  135.4660 C   0  0  0  0  0  3  0  0  0  0  0  0
  187.9350  173.8300  136.6190 C   0  0  0  0  0  0  0  0  0  0  0  0
  187.1090  172.6970  136.5520 C   0  0  0  0  0  3  0  0  0  0  0  0
  1  7  2  0  0  0  0
  1 11  1  0  0  0  0
  2 11  1  0  0  0  0
  3  6  2  0  0  0  0
  3 12  1  0  0  0  0
  4 16  2  0  0  0  0
  6  9  1  0  0  0  0
  7  3  1  0  0  0  0
  8 12  1  0  0  0  0
  8  4  1  0  0  0  0
  9 17  2  0  0  0  0
 10  5  2  0  0  0  0
 11  8  2  0  0  0  0
 12 18  2  0  0  0  0
 13 14  2  0  0  0  0
 13 15  1  0  0  0  0
 14  1  1  0  0  0  0
 15  2  2  0  0  0  0
 16 10  1  0  0  0  0
 16 20  1  0  0  0  0
 17 18  1  0  0  0  0
 18 10  1  0  0  0  0
 20 19  2  0  0  0  0
 22 21  1  6  0  0  0
 22 14  1  0  0  0  0
 23 24  1  0  0  0  0
 26 23  1  0  0  0  0
 26 25  1  0  0  0  0
 27 25  1  0  0  0  0
 27 24  1  0  0  0  0
 27 22  1  1  0  0  0
 28 33  1  0  0  0  0
 29 31  1  0  0  0  0
 29 28  2  0  0  0  0
 30 32  1  0  0  0  0
 31 30  2  0  0  0  0
 32 23  1  0  0  0  0
 33 32  2  0  0  0  0
M  END
>  <MODEL>
9

>  <REMARK>
 VINA RESULT:      -9.7      3.108      6.296
  Name = 
  4 active torsions:
  status: ('A' for Active; 'I' for Inactive)
    1  A    between atoms: N_2  and  C_19
    2  A    between atoms: C_23  and  C_33
    3  A    between atoms: C_25  and  C_33
    4  A    between atoms: C_27  and  C_28
                            x       y       z     vdW  Elec       q    Type
                         _______ _______ _______ _____ _____    ______ ____

>  <TORSDO>
F 4

$$$$
