=
 OpenBabel10222416083D

 26 29  0  0  1  0  0  0  0  0999 V2000
  184.0480  179.2750  145.3210 C   0  0  0  0  0  3  0  0  0  0  0  0
  185.8680  178.2010  143.0230 C   0  0  0  0  0  0  0  0  0  0  0  0
  184.6300  178.0330  145.9460 C   0  0  0  0  0  2  0  0  0  0  0  0
  183.9440  179.4660  143.9940 C   0  0  0  0  0  3  0  0  0  0  0  0
  187.9370  177.9770  141.9120 C   0  0  0  0  0  3  0  0  0  0  0  0
  188.6400  177.6680  143.1010 C   0  0  0  0  0  0  0  0  0  0  0  0
  187.8860  177.6300  144.2660 C   0  0  0  0  0  0  0  0  0  0  0  0
  186.0480  177.8260  145.5130 C   0  0  0  0  0  0  0  0  0  0  0  0
  188.2020  177.3940  145.5910 C   0  0  0  0  0  3  0  0  0  0  0  0
  186.6150  178.2260  141.9150 O   0  0  0  0  0  0  0  0  0  0  0  0
  184.3910  178.4610  142.9620 C   0  0  0  0  0  2  0  0  0  0  0  0
  186.4940  177.8930  144.2220 C   0  0  0  0  0  0  0  0  0  0  0  0
  187.0720  177.5130  146.3430 N   0  0  0  0  0  0  0  0  0  0  0  0
  190.1120  177.3870  143.1140 C   0  0  1  0  0  3  0  0  0  0  0  0
  190.8330  176.5190  139.7580 C   0  0  0  0  0  0  0  0  0  0  0  0
  191.7140  177.7990  141.2210 N   0  0  0  0  0  0  0  0  0  0  0  0
  190.0410  176.3570  140.8350 N   0  0  0  0  0  0  0  0  0  0  0  0
  190.6340  177.1740  141.7260 C   0  0  0  0  0  0  0  0  0  0  0  0
  191.8420  177.3820  139.9740 N   0  0  0  0  0  2  0  0  0  0  0  0
  190.4500  175.2980  137.5030 N   0  0  0  0  0  0  0  0  0  0  0  0
  190.6210  175.8430  138.5090 C   0  0  0  0  0  0  0  0  0  0  0  0
  190.8770  178.4810  143.8510 C   0  0  0  0  0  2  0  0  0  0  0  0
  191.6810  177.8870  144.9930 C   0  0  0  0  0  2  0  0  0  0  0  0
  191.5150  176.4470  145.0020 N   0  0  0  0  0  2  0  0  0  0  0  0
  192.0030  175.9790  146.2860 C   0  0  0  0  0  2  0  0  0  0  0  0
  191.2290  176.6530  147.3980 C   0  0  0  0  0  1  0  0  0  0  0  0
  1  3  1  0  0  0  0
  2 12  2  0  0  0  0
  4  1  2  0  0  0  0
  5 10  1  0  0  0  0
  5  6  2  0  0  0  0
  6 14  1  0  0  0  0
  6  7  1  0  0  0  0
  7  9  2  0  0  0  0
  8  3  1  0  0  0  0
  8 13  2  0  0  0  0
  9 13  1  0  0  0  0
 10  2  1  0  0  0  0
 11  2  1  0  0  0  0
 11  4  1  0  0  0  0
 12  7  1  0  0  0  0
 12  8  1  0  0  0  0
 14 22  1  6  0  0  0
 15 19  1  0  0  0  0
 15 17  2  0  0  0  0
 16 18  2  0  0  0  0
 17 18  1  0  0  0  0
 18 14  1  0  0  0  0
 19 16  1  0  0  0  0
 20 21  3  0  0  0  0
 21 15  1  0  0  0  0
 22 23  1  0  0  0  0
 23 24  1  0  0  0  0
 24 25  1  0  0  0  0
 25 26  1  0  0  0  0
M  END
>  <MODEL>
1

>  <REMARK>
 VINA RESULT:      -7.8      0.000      0.000
  Name = 
  7 active torsions:
  status: ('A' for Active; 'I' for Inactive)
    1  A    between atoms: C_5  and  C_25
    2  A    between atoms: C_7  and  N_20
    3  A    between atoms: C_8  and  C_16
    4  A    between atoms: C_11  and  C_15
    5  A    between atoms: C_11  and  C_16
    6  A    between atoms: C_15  and  N_20
    7  A    between atoms: C_16  and  C_21
                            x       y       z     vdW  Elec       q    Type
                         _______ _______ _______ _____ _____    ______ ____

>  <TORSDO>
F 7

$$$$
=
 OpenBabel10222416083D

 26 29  0  0  1  0  0  0  0  0999 V2000
  189.4010  178.0990  148.1490 C   0  0  0  0  0  3  0  0  0  0  0  0
  186.9340  177.9410  146.2430 C   0  0  0  0  0  0  0  0  0  0  0  0
  189.7310  176.8840  147.3200 C   0  0  0  0  0  2  0  0  0  0  0  0
  188.1520  178.5600  148.3350 C   0  0  0  0  0  3  0  0  0  0  0  0
  185.8170  178.3750  144.2110 C   0  0  0  0  0  3  0  0  0  0  0  0
  186.9100  177.9470  143.4190 C   0  0  0  0  0  0  0  0  0  0  0  0
  188.0300  177.5040  144.1100 C   0  0  0  0  0  0  0  0  0  0  0  0
  189.2740  177.0560  145.9060 C   0  0  0  0  0  0  0  0  0  0  0  0
  189.2690  177.0400  143.7070 C   0  0  0  0  0  3  0  0  0  0  0  0
  185.8660  178.3570  145.5540 O   0  0  0  0  0  0  0  0  0  0  0  0
  186.9220  177.9190  147.7440 C   0  0  0  0  0  2  0  0  0  0  0  0
  188.0360  177.4970  145.5270 C   0  0  0  0  0  0  0  0  0  0  0  0
  190.0190  176.7670  144.8110 N   0  0  0  0  0  0  0  0  0  0  0  0
  186.8710  177.9590  141.9210 C   0  0  1  0  0  3  0  0  0  0  0  0
  183.4850  178.6300  141.1340 C   0  0  0  0  0  0  0  0  0  0  0  0
  185.3710  179.4540  140.5660 N   0  0  0  0  0  0  0  0  0  0  0  0
  184.3730  177.8760  141.8080 N   0  0  0  0  0  0  0  0  0  0  0  0
  185.5390  178.4250  141.4190 C   0  0  0  0  0  0  0  0  0  0  0  0
  184.0680  179.5820  140.3840 N   0  0  0  0  0  2  0  0  0  0  0  0
  180.9180  178.2880  141.2700 N   0  0  0  0  0  0  0  0  0  0  0  0
  182.0640  178.4400  141.2090 C   0  0  0  0  0  0  0  0  0  0  0  0
  188.0190  178.7810  141.3440 C   0  0  0  0  0  2  0  0  0  0  0  0
  188.7200  178.0090  140.2420 C   0  0  0  0  0  2  0  0  0  0  0  0
  188.6140  178.7440  138.9960 N   0  0  0  0  0  2  0  0  0  0  0  0
  188.2040  177.7890  137.9830 C   0  0  0  0  0  2  0  0  0  0  0  0
  186.8030  178.1210  137.5130 C   0  0  0  0  0  1  0  0  0  0  0  0
  1  4  2  0  0  0  0
  2 11  1  0  0  0  0
  3  1  1  0  0  0  0
  5 10  1  0  0  0  0
  6  7  1  0  0  0  0
  6  5  2  0  0  0  0
  7 12  1  0  0  0  0
  8  3  1  0  0  0  0
  9  7  2  0  0  0  0
  9 13  1  0  0  0  0
 10  2  1  0  0  0  0
 11  4  1  0  0  0  0
 12  8  1  0  0  0  0
 12  2  2  0  0  0  0
 13  8  2  0  0  0  0
 14 22  1  6  0  0  0
 14  6  1  0  0  0  0
 15 21  1  0  0  0  0
 15 17  2  0  0  0  0
 16 18  2  0  0  0  0
 18 17  1  0  0  0  0
 18 14  1  0  0  0  0
 19 16  1  0  0  0  0
 19 15  1  0  0  0  0
 21 20  3  0  0  0  0
 23 22  1  0  0  0  0
 24 23  1  0  0  0  0
 25 24  1  0  0  0  0
 26 25  1  0  0  0  0
M  END
>  <MODEL>
2

>  <REMARK>
 VINA RESULT:      -7.7      3.265      6.051
  Name = 
  7 active torsions:
  status: ('A' for Active; 'I' for Inactive)
    1  A    between atoms: C_5  and  C_25
    2  A    between atoms: C_7  and  N_20
    3  A    between atoms: C_8  and  C_16
    4  A    between atoms: C_11  and  C_15
    5  A    between atoms: C_11  and  C_16
    6  A    between atoms: C_15  and  N_20
    7  A    between atoms: C_16  and  C_21
                            x       y       z     vdW  Elec       q    Type
                         _______ _______ _______ _____ _____    ______ ____

>  <TORSDO>
F 7

$$$$
=
 OpenBabel10222416083D

 26 29  0  0  1  0  0  0  0  0999 V2000
  189.8140  177.9160  147.7970 C   0  0  0  0  0  3  0  0  0  0  0  0
  186.8000  178.1600  147.0240 C   0  0  0  0  0  0  0  0  0  0  0  0
  189.6230  176.7030  146.9230 C   0  0  0  0  0  2  0  0  0  0  0  0
  188.8150  178.5290  148.4550 C   0  0  0  0  0  3  0  0  0  0  0  0
  185.0450  178.8200  145.5920 C   0  0  0  0  0  3  0  0  0  0  0  0
  185.6690  178.2850  144.4400 C   0  0  0  0  0  0  0  0  0  0  0  0
  186.8990  177.6700  144.6380 C   0  0  0  0  0  0  0  0  0  0  0  0
  188.6750  176.9910  145.8020 C   0  0  0  0  0  0  0  0  0  0  0  0
  187.8030  177.0660  143.7850 C   0  0  0  0  0  3  0  0  0  0  0  0
  185.6160  178.7410  146.8070 O   0  0  0  0  0  0  0  0  0  0  0  0
  187.3760  178.0790  148.4070 C   0  0  0  0  0  2  0  0  0  0  0  0
  187.4600  177.6050  145.9370 C   0  0  0  0  0  0  0  0  0  0  0  0
  188.8820  176.6520  144.5070 N   0  0  0  0  0  0  0  0  0  0  0  0
  185.0460  178.3630  143.0790 C   0  0  1  0  0  3  0  0  0  0  0  0
  181.5820  178.9730  142.6670 C   0  0  0  0  0  0  0  0  0  0  0  0
  182.8790  178.6200  144.3260 N   0  0  0  0  0  0  0  0  0  0  0  0
  182.7930  178.8320  142.0960 N   0  0  0  0  0  0  0  0  0  0  0  0
  183.5730  178.6170  143.1730 C   0  0  0  0  0  0  0  0  0  0  0  0
  181.6170  178.8480  144.0060 N   0  0  0  0  0  2  0  0  0  0  0  0
  179.4110  179.4320  141.3270 N   0  0  0  0  0  0  0  0  0  0  0  0
  180.3800  179.2260  141.9260 C   0  0  0  0  0  0  0  0  0  0  0  0
  185.7500  179.3960  142.2060 C   0  0  0  0  0  2  0  0  0  0  0  0
  186.2210  178.7620  140.9110 C   0  0  0  0  0  2  0  0  0  0  0  0
  187.6530  178.9530  140.7740 N   0  0  0  0  0  2  0  0  0  0  0  0
  188.1190  177.9470  139.8370 C   0  0  0  0  0  2  0  0  0  0  0  0
  189.4850  177.4530  140.2650 C   0  0  0  0  0  1  0  0  0  0  0  0
  1  4  2  0  0  0  0
  2 11  1  0  0  0  0
  3  1  1  0  0  0  0
  5 10  1  0  0  0  0
  6  7  1  0  0  0  0
  6  5  2  0  0  0  0
  7 12  1  0  0  0  0
  8 12  1  0  0  0  0
  8  3  1  0  0  0  0
  9 13  1  0  0  0  0
  9  7  2  0  0  0  0
 10  2  1  0  0  0  0
 11  4  1  0  0  0  0
 12  2  2  0  0  0  0
 13  8  2  0  0  0  0
 14 22  1  6  0  0  0
 14 18  1  0  0  0  0
 14  6  1  0  0  0  0
 15 19  1  0  0  0  0
 17 15  2  0  0  0  0
 17 18  1  0  0  0  0
 18 16  2  0  0  0  0
 19 16  1  0  0  0  0
 20 21  3  0  0  0  0
 21 15  1  0  0  0  0
 23 22  1  0  0  0  0
 24 23  1  0  0  0  0
 25 26  1  0  0  0  0
 25 24  1  0  0  0  0
M  END
>  <MODEL>
3

>  <REMARK>
 VINA RESULT:      -7.5      3.411      6.840
  Name = 
  7 active torsions:
  status: ('A' for Active; 'I' for Inactive)
    1  A    between atoms: C_5  and  C_25
    2  A    between atoms: C_7  and  N_20
    3  A    between atoms: C_8  and  C_16
    4  A    between atoms: C_11  and  C_15
    5  A    between atoms: C_11  and  C_16
    6  A    between atoms: C_15  and  N_20
    7  A    between atoms: C_16  and  C_21
                            x       y       z     vdW  Elec       q    Type
                         _______ _______ _______ _____ _____    ______ ____

>  <TORSDO>
F 7

$$$$
=
 OpenBabel10222416083D

 26 29  0  0  1  0  0  0  0  0999 V2000
  188.2850  176.9150  147.7970 C   0  0  0  0  0  3  0  0  0  0  0  0
  187.9120  177.8430  144.8400 C   0  0  0  0  0  0  0  0  0  0  0  0
  187.6230  178.2570  147.9780 C   0  0  0  0  0  2  0  0  0  0  0  0
  188.9840  176.5670  146.7020 C   0  0  0  0  0  3  0  0  0  0  0  0
  186.6610  178.0810  142.8540 C   0  0  0  0  0  3  0  0  0  0  0  0
  185.5190  178.5720  143.5310 C   0  0  0  0  0  0  0  0  0  0  0  0
  185.6270  178.6900  144.9100 C   0  0  0  0  0  0  0  0  0  0  0  0
  186.6160  178.5110  146.9010 C   0  0  0  0  0  0  0  0  0  0  0  0
  184.7500  179.0970  145.8980 C   0  0  0  0  0  3  0  0  0  0  0  0
  187.7840  177.7440  143.5130 O   0  0  0  0  0  0  0  0  0  0  0  0
  189.2000  177.4760  145.5190 C   0  0  0  0  0  2  0  0  0  0  0  0
  186.8320  178.3290  145.5620 C   0  0  0  0  0  0  0  0  0  0  0  0
  185.3640  178.9870  147.1080 N   0  0  0  0  0  0  0  0  0  0  0  0
  184.2600  178.9540  142.8120 C   0  0  1  0  0  3  0  0  0  0  0  0
  184.1730  178.0450  139.3910 C   0  0  0  0  0  0  0  0  0  0  0  0
  185.1500  179.5570  140.5390 N   0  0  0  0  0  0  0  0  0  0  0  0
  183.7650  177.7960  140.6490 N   0  0  0  0  0  0  0  0  0  0  0  0
  184.4050  178.7650  141.3330 C   0  0  0  0  0  0  0  0  0  0  0  0
  185.0040  179.0990  139.3080 N   0  0  0  0  0  2  0  0  0  0  0  0
  183.4300  176.6430  137.3400 N   0  0  0  0  0  0  0  0  0  0  0  0
  183.7620  177.2680  138.2560 C   0  0  0  0  0  0  0  0  0  0  0  0
  183.0550  178.2030  143.3690 C   0  0  0  0  0  2  0  0  0  0  0  0
  181.8700  179.1390  143.5140 C   0  0  0  0  0  2  0  0  0  0  0  0
  180.8180  178.7300  142.6020 N   0  0  0  0  0  2  0  0  0  0  0  0
  179.6460  179.5170  142.9390 C   0  0  0  0  0  2  0  0  0  0  0  0
  179.1200  179.0870  144.2920 C   0  0  0  0  0  1  0  0  0  0  0  0
  1  3  1  0  0  0  0
  2 11  1  0  0  0  0
  2 12  2  0  0  0  0
  4  1  2  0  0  0  0
  5 10  1  0  0  0  0
  5  6  2  0  0  0  0
  6  7  1  0  0  0  0
  7 12  1  0  0  0  0
  7  9  2  0  0  0  0
  8 13  2  0  0  0  0
  8  3  1  0  0  0  0
  9 13  1  0  0  0  0
 10  2  1  0  0  0  0
 11  4  1  0  0  0  0
 12  8  1  0  0  0  0
 14 22  1  1  0  0  0
 14  6  1  0  0  0  0
 15 17  2  0  0  0  0
 16 18  2  0  0  0  0
 17 18  1  0  0  0  0
 18 14  1  0  0  0  0
 19 15  1  0  0  0  0
 19 16  1  0  0  0  0
 20 21  3  0  0  0  0
 21 15  1  0  0  0  0
 22 23  1  0  0  0  0
 24 25  1  0  0  0  0
 24 23  1  0  0  0  0
 25 26  1  0  0  0  0
M  END
>  <MODEL>
4

>  <REMARK>
 VINA RESULT:      -7.4      3.782      6.682
  Name = 
  7 active torsions:
  status: ('A' for Active; 'I' for Inactive)
    1  A    between atoms: C_5  and  C_25
    2  A    between atoms: C_7  and  N_20
    3  A    between atoms: C_8  and  C_16
    4  A    between atoms: C_11  and  C_15
    5  A    between atoms: C_11  and  C_16
    6  A    between atoms: C_15  and  N_20
    7  A    between atoms: C_16  and  C_21
                            x       y       z     vdW  Elec       q    Type
                         _______ _______ _______ _____ _____    ______ ____

>  <TORSDO>
F 7

$$$$
=
 OpenBabel10222416083D

 26 29  0  0  1  0  0  0  0  0999 V2000
  189.5650  177.7360  145.9290 C   0  0  0  0  0  3  0  0  0  0  0  0
  188.2040  177.3450  143.1460 C   0  0  0  0  0  0  0  0  0  0  0  0
  190.4960  176.7530  145.2680 C   0  0  0  0  0  2  0  0  0  0  0  0
  188.2740  177.8920  145.5840 C   0  0  0  0  0  3  0  0  0  0  0  0
  187.9330  177.8290  140.8540 C   0  0  0  0  0  3  0  0  0  0  0  0
  189.3220  177.7620  140.5870 C   0  0  0  0  0  0  0  0  0  0  0  0
  190.1400  177.4670  141.6700 C   0  0  0  0  0  0  0  0  0  0  0  0
  190.6220  177.0310  143.8030 C   0  0  0  0  0  0  0  0  0  0  0  0
  191.5090  177.3390  141.8150 C   0  0  0  0  0  3  0  0  0  0  0  0
  187.4380  177.6250  142.0870 O   0  0  0  0  0  0  0  0  0  0  0  0
  187.5940  177.1000  144.4960 C   0  0  0  0  0  2  0  0  0  0  0  0
  189.5750  177.2530  142.9510 C   0  0  0  0  0  0  0  0  0  0  0  0
  191.7920  177.0700  143.1200 N   0  0  0  0  0  0  0  0  0  0  0  0
  189.8900  177.9850  139.2180 C   0  0  1  0  0  3  0  0  0  0  0  0
  191.8770  175.3310  137.9750 C   0  0  0  0  0  0  0  0  0  0  0  0
  189.8130  175.5920  138.4530 N   0  0  0  0  0  0  0  0  0  0  0  0
  191.8100  176.6100  138.3900 N   0  0  0  0  0  0  0  0  0  0  0  0
  190.4980  176.7290  138.6750 C   0  0  0  0  0  0  0  0  0  0  0  0
  190.6860  174.7060  138.0070 N   0  0  0  0  0  2  0  0  0  0  0  0
  194.0720  174.1900  137.1980 N   0  0  0  0  0  0  0  0  0  0  0  0
  193.0920  174.7000  137.5450 C   0  0  0  0  0  0  0  0  0  0  0  0
  188.8440  178.5680  138.2740 C   0  0  0  0  0  2  0  0  0  0  0  0
  189.3050  178.4460  136.8340 C   0  0  0  0  0  2  0  0  0  0  0  0
  188.1710  178.1210  135.9910 N   0  0  0  0  0  2  0  0  0  0  0  0
  188.4810  176.8590  135.3430 C   0  0  0  0  0  2  0  0  0  0  0  0
  189.9500  176.8250  134.9800 C   0  0  0  0  0  1  0  0  0  0  0  0
  2 11  1  0  0  0  0
  3  1  1  0  0  0  0
  4  1  2  0  0  0  0
  5 10  1  0  0  0  0
  6  5  2  0  0  0  0
  6  7  1  0  0  0  0
  7  9  2  0  0  0  0
  7 12  1  0  0  0  0
  8  3  1  0  0  0  0
  9 13  1  0  0  0  0
 10  2  1  0  0  0  0
 11  4  1  0  0  0  0
 12  2  2  0  0  0  0
 12  8  1  0  0  0  0
 13  8  2  0  0  0  0
 14 22  1  6  0  0  0
 14  6  1  0  0  0  0
 15 19  1  0  0  0  0
 15 17  2  0  0  0  0
 16 18  2  0  0  0  0
 17 18  1  0  0  0  0
 18 14  1  0  0  0  0
 19 16  1  0  0  0  0
 20 21  3  0  0  0  0
 21 15  1  0  0  0  0
 23 22  1  0  0  0  0
 24 23  1  0  0  0  0
 25 24  1  0  0  0  0
 26 25  1  0  0  0  0
M  END
>  <MODEL>
5

>  <REMARK>
 VINA RESULT:      -7.0      2.373      5.588
  Name = 
  7 active torsions:
  status: ('A' for Active; 'I' for Inactive)
    1  A    between atoms: C_5  and  C_25
    2  A    between atoms: C_7  and  N_20
    3  A    between atoms: C_8  and  C_16
    4  A    between atoms: C_11  and  C_15
    5  A    between atoms: C_11  and  C_16
    6  A    between atoms: C_15  and  N_20
    7  A    between atoms: C_16  and  C_21
                            x       y       z     vdW  Elec       q    Type
                         _______ _______ _______ _____ _____    ______ ____

>  <TORSDO>
F 7

$$$$
=
 OpenBabel10222416083D

 26 29  0  0  1  0  0  0  0  0999 V2000
  190.1230  176.7480  137.1330 C   0  0  0  0  0  3  0  0  0  0  0  0
  188.3730  178.2420  139.2430 C   0  0  0  0  0  0  0  0  0  0  0  0
  191.1250  177.0200  138.2250 C   0  0  0  0  0  2  0  0  0  0  0  0
  189.0010  177.4660  136.9520 C   0  0  0  0  0  3  0  0  0  0  0  0
  187.0280  178.3230  141.1790 C   0  0  0  0  0  3  0  0  0  0  0  0
  187.9350  177.5520  141.9460 C   0  0  0  0  0  0  0  0  0  0  0  0
  189.0910  177.1400  141.2960 C   0  0  0  0  0  0  0  0  0  0  0  0
  190.4930  176.9110  139.5770 C   0  0  0  0  0  0  0  0  0  0  0  0
  190.1760  176.3770  141.6850 C   0  0  0  0  0  3  0  0  0  0  0  0
  187.2720  178.6310  139.8930 O   0  0  0  0  0  0  0  0  0  0  0  0
  188.6050  178.6390  137.8140 C   0  0  0  0  0  2  0  0  0  0  0  0
  189.3090  177.4930  139.9410 C   0  0  0  0  0  0  0  0  0  0  0  0
  191.0270  176.2460  140.6300 N   0  0  0  0  0  0  0  0  0  0  0  0
  187.6800  177.2020  143.3800 C   0  0  1  0  0  3  0  0  0  0  0  0
  190.4520  177.2820  145.5820 C   0  0  0  0  0  0  0  0  0  0  0  0
  189.5790  178.6390  144.1840 N   0  0  0  0  0  0  0  0  0  0  0  0
  189.3990  176.5990  145.0970 N   0  0  0  0  0  0  0  0  0  0  0  0
  188.8800  177.4890  144.2290 C   0  0  0  0  0  0  0  0  0  0  0  0
  190.5750  178.5080  145.0430 N   0  0  0  0  0  2  0  0  0  0  0  0
  192.0780  176.3310  147.3640 N   0  0  0  0  0  0  0  0  0  0  0  0
  191.3520  176.7560  146.5680 C   0  0  0  0  0  0  0  0  0  0  0  0
  186.4290  177.8980  143.9060 C   0  0  0  0  0  2  0  0  0  0  0  0
  186.3270  177.7370  145.4110 C   0  0  0  0  0  2  0  0  0  0  0  0
  185.6050  178.8650  145.9680 N   0  0  0  0  0  2  0  0  0  0  0  0
  186.0540  179.0110  147.3410 C   0  0  0  0  0  2  0  0  0  0  0  0
  187.3270  178.2170  147.5430 C   0  0  0  0  0  1  0  0  0  0  0  0
  1  3  1  0  0  0  0
  2 10  1  0  0  0  0
  2 12  2  0  0  0  0
  3  8  1  0  0  0  0
  4  1  2  0  0  0  0
  4 11  1  0  0  0  0
  5  6  2  0  0  0  0
  6 14  1  0  0  0  0
  7  9  2  0  0  0  0
  7  6  1  0  0  0  0
  8 12  1  0  0  0  0
  8 13  2  0  0  0  0
 10  5  1  0  0  0  0
 11  2  1  0  0  0  0
 12  7  1  0  0  0  0
 13  9  1  0  0  0  0
 14 22  1  1  0  0  0
 14 18  1  0  0  0  0
 15 21  1  0  0  0  0
 16 18  2  0  0  0  0
 16 19  1  0  0  0  0
 17 15  2  0  0  0  0
 18 17  1  0  0  0  0
 19 15  1  0  0  0  0
 21 20  3  0  0  0  0
 22 23  1  0  0  0  0
 23 24  1  0  0  0  0
 24 25  1  0  0  0  0
 25 26  1  0  0  0  0
M  END
>  <MODEL>
6

>  <REMARK>
 VINA RESULT:      -7.0      1.865      6.079
  Name = 
  7 active torsions:
  status: ('A' for Active; 'I' for Inactive)
    1  A    between atoms: C_5  and  C_25
    2  A    between atoms: C_7  and  N_20
    3  A    between atoms: C_8  and  C_16
    4  A    between atoms: C_11  and  C_15
    5  A    between atoms: C_11  and  C_16
    6  A    between atoms: C_15  and  N_20
    7  A    between atoms: C_16  and  C_21
                            x       y       z     vdW  Elec       q    Type
                         _______ _______ _______ _____ _____    ______ ____

>  <TORSDO>
F 7

$$$$
=
 OpenBabel10222416083D

 26 29  0  0  1  0  0  0  0  0999 V2000
  188.2000  178.5500  136.8330 C   0  0  0  0  0  3  0  0  0  0  0  0
  189.7300  176.9490  139.0330 C   0  0  0  0  0  0  0  0  0  0  0  0
  187.0880  178.2020  137.7880 C   0  0  0  0  0  2  0  0  0  0  0  0
  189.3470  177.8560  136.7370 C   0  0  0  0  0  3  0  0  0  0  0  0
  190.8530  176.7650  141.0990 C   0  0  0  0  0  3  0  0  0  0  0  0
  189.8540  177.4780  141.8040 C   0  0  0  0  0  0  0  0  0  0  0  0
  188.7700  177.9170  141.0540 C   0  0  0  0  0  0  0  0  0  0  0  0
  187.5640  178.2350  139.2060 C   0  0  0  0  0  0  0  0  0  0  0  0
  187.6360  178.6440  141.3650 C   0  0  0  0  0  3  0  0  0  0  0  0
  190.7590  176.5320  139.7780 O   0  0  0  0  0  0  0  0  0  0  0  0
  189.6650  176.6380  137.5660 C   0  0  0  0  0  2  0  0  0  0  0  0
  188.7090  177.6440  139.6650 C   0  0  0  0  0  0  0  0  0  0  0  0
  186.9060  178.8300  140.2310 N   0  0  0  0  0  0  0  0  0  0  0  0
  189.9420  177.7440  143.2770 C   0  0  1  0  0  3  0  0  0  0  0  0
  186.9170  177.6920  145.1170 C   0  0  0  0  0  0  0  0  0  0  0  0
  187.8910  176.3700  143.7520 N   0  0  0  0  0  0  0  0  0  0  0  0
  188.0540  178.3420  144.8060 N   0  0  0  0  0  0  0  0  0  0  0  0
  188.6330  177.4750  143.9540 C   0  0  0  0  0  0  0  0  0  0  0  0
  186.8040  176.5060  144.4920 N   0  0  0  0  0  2  0  0  0  0  0  0
  185.1290  178.6280  146.7440 N   0  0  0  0  0  0  0  0  0  0  0  0
  185.9280  178.2100  146.0180 C   0  0  0  0  0  0  0  0  0  0  0  0
  191.0850  176.9600  143.9120 C   0  0  0  0  0  2  0  0  0  0  0  0
  191.3460  177.4540  145.3230 C   0  0  0  0  0  2  0  0  0  0  0  0
  192.0300  176.4210  146.0770 N   0  0  0  0  0  2  0  0  0  0  0  0
  191.4730  176.4440  147.4170 C   0  0  0  0  0  2  0  0  0  0  0  0
  189.9920  176.7530  147.3430 C   0  0  0  0  0  1  0  0  0  0  0  0
  1  3  1  0  0  0  0
  2 12  2  0  0  0  0
  2 10  1  0  0  0  0
  3  8  1  0  0  0  0
  4  1  2  0  0  0  0
  4 11  1  0  0  0  0
  5  6  2  0  0  0  0
  6 14  1  0  0  0  0
  7  9  2  0  0  0  0
  7  6  1  0  0  0  0
  8 12  1  0  0  0  0
  8 13  2  0  0  0  0
 10  5  1  0  0  0  0
 11  2  1  0  0  0  0
 12  7  1  0  0  0  0
 13  9  1  0  0  0  0
 14 22  1  1  0  0  0
 14 18  1  0  0  0  0
 15 21  1  0  0  0  0
 16 18  2  0  0  0  0
 16 19  1  0  0  0  0
 17 15  2  0  0  0  0
 18 17  1  0  0  0  0
 19 15  1  0  0  0  0
 21 20  3  0  0  0  0
 22 23  1  0  0  0  0
 23 24  1  0  0  0  0
 24 25  1  0  0  0  0
 26 25  1  0  0  0  0
M  END
>  <MODEL>
7

>  <REMARK>
 VINA RESULT:      -6.9      2.585      5.819
  Name = 
  7 active torsions:
  status: ('A' for Active; 'I' for Inactive)
    1  A    between atoms: C_5  and  C_25
    2  A    between atoms: C_7  and  N_20
    3  A    between atoms: C_8  and  C_16
    4  A    between atoms: C_11  and  C_15
    5  A    between atoms: C_11  and  C_16
    6  A    between atoms: C_15  and  N_20
    7  A    between atoms: C_16  and  C_21
                            x       y       z     vdW  Elec       q    Type
                         _______ _______ _______ _____ _____    ______ ____

>  <TORSDO>
F 7

$$$$
=
 OpenBabel10222416083D

 26 29  0  0  1  0  0  0  0  0999 V2000
  186.2600  177.7980  144.6240 C   0  0  0  0  0  3  0  0  0  0  0  0
  184.8350  178.4850  141.9330 C   0  0  0  0  0  0  0  0  0  0  0  0
  185.3210  178.8980  145.0460 C   0  0  0  0  0  2  0  0  0  0  0  0
  186.6970  177.6300  143.3630 C   0  0  0  0  0  3  0  0  0  0  0  0
  183.0690  178.2910  140.3810 C   0  0  0  0  0  3  0  0  0  0  0  0
  182.0690  178.4540  141.3690 C   0  0  0  0  0  0  0  0  0  0  0  0
  182.5170  178.6430  142.6700 C   0  0  0  0  0  0  0  0  0  0  0  0
  184.0260  178.8180  144.3010 C   0  0  0  0  0  0  0  0  0  0  0  0
  181.8690  178.8120  143.8790 C   0  0  0  0  0  3  0  0  0  0  0  0
  184.3780  178.3110  140.6890 O   0  0  0  0  0  0  0  0  0  0  0  0
  186.3090  178.5250  142.2130 C   0  0  0  0  0  2  0  0  0  0  0  0
  183.9060  178.6630  142.9470 C   0  0  0  0  0  0  0  0  0  0  0  0
  182.7990  178.9210  144.8680 N   0  0  0  0  0  0  0  0  0  0  0  0
  180.6060  178.4360  141.0430 C   0  0  1  0  0  3  0  0  0  0  0  0
  179.6560  181.5670  139.6870 C   0  0  0  0  0  0  0  0  0  0  0  0
  179.4090  180.5840  141.5660 N   0  0  0  0  0  0  0  0  0  0  0  0
  180.2850  180.3890  139.5110 N   0  0  0  0  0  0  0  0  0  0  0  0
  180.1080  179.8110  140.7150 C   0  0  0  0  0  0  0  0  0  0  0  0
  179.1240  181.6990  140.9150 N   0  0  0  0  0  2  0  0  0  0  0  0
  179.4830  183.3860  137.8480 N   0  0  0  0  0  0  0  0  0  0  0  0
  179.5600  182.5740  138.6690 C   0  0  0  0  0  0  0  0  0  0  0  0
  180.2990  177.4380  139.9320 C   0  0  0  0  0  2  0  0  0  0  0  0
  179.0150  176.6880  140.2340 C   0  0  0  0  0  2  0  0  0  0  0  0
  179.2220  175.8180  141.3760 N   0  0  0  0  0  2  0  0  0  0  0  0
  179.1670  174.4560  140.8790 C   0  0  0  0  0  2  0  0  0  0  0  0
  179.3470  173.4900  142.0310 C   0  0  0  0  0  1  0  0  0  0  0  0
  1  3  1  0  0  0  0
  2 11  1  0  0  0  0
  2 12  2  0  0  0  0
  4  1  2  0  0  0  0
  5 10  1  0  0  0  0
  5  6  2  0  0  0  0
  6  7  1  0  0  0  0
  7 12  1  0  0  0  0
  7  9  2  0  0  0  0
  8 13  2  0  0  0  0
  8  3  1  0  0  0  0
  9 13  1  0  0  0  0
 10  2  1  0  0  0  0
 11  4  1  0  0  0  0
 12  8  1  0  0  0  0
 14 22  1  6  0  0  0
 14  6  1  0  0  0  0
 15 19  1  0  0  0  0
 17 15  2  0  0  0  0
 17 18  1  0  0  0  0
 18 14  1  0  0  0  0
 18 16  2  0  0  0  0
 19 16  1  0  0  0  0
 20 21  3  0  0  0  0
 21 15  1  0  0  0  0
 22 23  1  0  0  0  0
 23 24  1  0  0  0  0
 25 24  1  0  0  0  0
 25 26  1  0  0  0  0
M  END
>  <MODEL>
8

>  <REMARK>
 VINA RESULT:      -6.7      5.955      9.299
  Name = 
  7 active torsions:
  status: ('A' for Active; 'I' for Inactive)
    1  A    between atoms: C_5  and  C_25
    2  A    between atoms: C_7  and  N_20
    3  A    between atoms: C_8  and  C_16
    4  A    between atoms: C_11  and  C_15
    5  A    between atoms: C_11  and  C_16
    6  A    between atoms: C_15  and  N_20
    7  A    between atoms: C_16  and  C_21
                            x       y       z     vdW  Elec       q    Type
                         _______ _______ _______ _____ _____    ______ ____

>  <TORSDO>
F 7

$$$$
=
 OpenBabel10222416083D

 26 29  0  0  1  0  0  0  0  0999 V2000
  181.4150  180.4390  139.4540 C   0  0  0  0  0  3  0  0  0  0  0  0
  184.1310  179.0580  140.1350 C   0  0  0  0  0  0  0  0  0  0  0  0
  180.9590  179.2340  140.2360 C   0  0  0  0  0  2  0  0  0  0  0  0
  182.5910  180.5080  138.8050 C   0  0  0  0  0  3  0  0  0  0  0  0
  185.9700  178.6210  141.5450 C   0  0  0  0  0  3  0  0  0  0  0  0
  185.1560  178.3910  142.6800 C   0  0  0  0  0  0  0  0  0  0  0  0
  183.7860  178.5040  142.4830 C   0  0  0  0  0  0  0  0  0  0  0  0
  181.9160  178.9130  141.3390 C   0  0  0  0  0  0  0  0  0  0  0  0
  182.6950  178.3790  143.3240 C   0  0  0  0  0  3  0  0  0  0  0  0
  185.4450  178.9370  140.3480 O   0  0  0  0  0  0  0  0  0  0  0  0
  183.5990  179.3870  138.7700 C   0  0  0  0  0  2  0  0  0  0  0  0
  183.2750  178.8330  141.2040 C   0  0  0  0  0  0  0  0  0  0  0  0
  181.5600  178.6270  142.6150 N   0  0  0  0  0  0  0  0  0  0  0  0
  185.7260  178.0360  144.0200 C   0  0  1  0  0  3  0  0  0  0  0  0
  189.2420  177.6240  143.9510 C   0  0  0  0  0  0  0  0  0  0  0  0
  187.5560  176.3690  143.5780 N   0  0  0  0  0  0  0  0  0  0  0  0
  188.1920  178.4410  144.1520 N   0  0  0  0  0  0  0  0  0  0  0  0
  187.1580  177.6140  143.9030 C   0  0  0  0  0  0  0  0  0  0  0  0
  188.8770  176.3760  143.6060 N   0  0  0  0  0  2  0  0  0  0  0  0
  191.7110  178.3730  144.2080 N   0  0  0  0  0  0  0  0  0  0  0  0
  190.6080  178.0390  144.0930 C   0  0  0  0  0  0  0  0  0  0  0  0
  185.5450  179.1750  145.0170 C   0  0  0  0  0  2  0  0  0  0  0  0
  185.2130  178.6270  146.3920 C   0  0  0  0  0  2  0  0  0  0  0  0
  186.2300  179.0470  147.3370 N   0  0  0  0  0  2  0  0  0  0  0  0
  187.1810  177.9550  147.4380 C   0  0  0  0  0  2  0  0  0  0  0  0
  188.1780  178.2530  148.5380 C   0  0  0  0  0  1  0  0  0  0  0  0
  1  3  1  0  0  0  0
  2 10  1  0  0  0  0
  2 12  2  0  0  0  0
  3  8  1  0  0  0  0
  4  1  2  0  0  0  0
  5  6  2  0  0  0  0
  6 14  1  0  0  0  0
  7  6  1  0  0  0  0
  7  9  2  0  0  0  0
  8 13  2  0  0  0  0
 10  5  1  0  0  0  0
 11  4  1  0  0  0  0
 11  2  1  0  0  0  0
 12  8  1  0  0  0  0
 12  7  1  0  0  0  0
 13  9  1  0  0  0  0
 14 22  1  1  0  0  0
 15 21  1  0  0  0  0
 15 17  2  0  0  0  0
 16 19  1  0  0  0  0
 16 18  2  0  0  0  0
 18 14  1  0  0  0  0
 18 17  1  0  0  0  0
 19 15  1  0  0  0  0
 21 20  3  0  0  0  0
 22 23  1  0  0  0  0
 23 24  1  0  0  0  0
 24 25  1  0  0  0  0
 25 26  1  0  0  0  0
M  END
>  <MODEL>
9

>  <REMARK>
 VINA RESULT:      -6.7      2.912      5.209
  Name = 
  7 active torsions:
  status: ('A' for Active; 'I' for Inactive)
    1  A    between atoms: C_5  and  C_25
    2  A    between atoms: C_7  and  N_20
    3  A    between atoms: C_8  and  C_16
    4  A    between atoms: C_11  and  C_15
    5  A    between atoms: C_11  and  C_16
    6  A    between atoms: C_15  and  N_20
    7  A    between atoms: C_16  and  C_21
                            x       y       z     vdW  Elec       q    Type
                         _______ _______ _______ _____ _____    ______ ____

>  <TORSDO>
F 7

$$$$
