=
 OpenBabel10222420053D

 27 31  0  0  1  0  0  0  0  0999 V2000
  189.6730  177.3000  143.1230 N   0  0  0  0  0  0  0  0  0  0  0  0
  190.8650  177.3480  145.3950 C   0  0  1  0  0  3  0  0  0  0  0  0
  187.2670  177.1180  144.6760 C   0  0  2  0  0  3  0  0  0  0  0  0
  185.9480  178.1530  145.4040 S   0  0  0  0  0  0  0  0  0  0  0  0
  189.6990  177.4120  144.5530 C   0  0  0  0  0  0  0  0  0  0  0  0
  191.2210  176.4940  147.4920 N   0  0  0  0  0  0  0  0  0  0  0  0
  186.1580  178.0920  142.7750 C   0  0  0  0  0  2  0  0  0  0  0  0
  191.9980  175.9040  146.6400 C   0  0  0  0  0  3  0  0  0  0  0  0
  185.3550  178.4840  143.7430 C   0  0  2  0  0  3  0  0  0  0  0  0
  188.5360  177.2980  142.4880 C   0  0  0  0  0  0  0  0  0  0  0  0
  190.4460  177.5140  146.8040 C   0  0  2  0  0  3  0  0  0  0  0  0
  188.6060  177.3720  145.3010 C   0  0  0  0  0  0  0  0  0  0  0  0
  191.7660  176.3850  145.2830 C   0  0  0  0  0  2  0  0  0  0  0  0
  187.3100  177.4100  143.2420 N   0  0  0  0  0  0  0  0  0  0  0  0
  188.9390  177.2140  146.7570 C   0  0  0  0  0  2  0  0  0  0  0  0
  188.3590  178.6260  140.3910 C   0  0  0  0  0  2  0  0  0  0  0  0
  188.5420  177.2500  140.9910 C   0  0  1  0  0  3  0  0  0  0  0  0
  189.7920  176.6840  140.4940 N   0  0  0  0  0  2  0  0  0  0  0  0
  189.1970  178.5890  139.1460 C   0  0  0  0  0  2  0  0  0  0  0  0
  190.2900  177.5910  139.4660 C   0  0  2  0  0  3  0  0  0  0  0  0
  190.6750  176.8050  138.2270 C   0  0  0  0  0  2  0  0  0  0  0  0
  190.8720  175.4070  138.5660 N   0  0  0  0  0  2  0  0  0  0  0  0
  191.8770  174.8940  137.6530 C   0  0  0  0  0  1  0  0  0  0  0  0
  184.1260  179.1520  143.4720 N   0  0  0  0  0  2  0  0  0  0  0  0
  182.9550  178.8180  144.1640 N   0  0  0  0  0  2  0  0  0  0  0  0
  181.8560  178.9940  143.2330 C   0  0  0  0  0  2  0  0  0  0  0  0
  180.5580  178.6000  143.9050 C   0  0  0  0  0  1  0  0  0  0  0  0
  1  5  1  0  0  0  0
  2 13  1  1  0  0  0
  2 11  1  0  0  0  0
  3 12  1  1  0  0  0
  3  4  1  0  0  0  0
  5 12  2  0  0  0  0
  5  2  1  0  0  0  0
  7 14  1  0  0  0  0
  7  9  1  0  0  0  0
  8  6  2  0  0  0  0
  9 24  1  1  0  0  0
  9  4  1  0  0  0  0
 10  1  2  0  0  0  0
 10 14  1  0  0  0  0
 11 15  1  6  0  0  0
 11  6  1  0  0  0  0
 12 15  1  0  0  0  0
 13  8  1  0  0  0  0
 14  3  1  0  0  0  0
 16 17  1  0  0  0  0
 17 10  1  1  0  0  0
 18 17  1  0  0  0  0
 19 20  1  0  0  0  0
 19 16  1  0  0  0  0
 20 21  1  6  0  0  0
 20 18  1  0  0  0  0
 21 22  1  0  0  0  0
 23 22  1  0  0  0  0
 24 25  1  0  0  0  0
 26 27  1  0  0  0  0
 26 25  1  0  0  0  0
M  END
>  <MODEL>
1

>  <REMARK>
 VINA RESULT:      -8.3      0.000      0.000
  Name = 
  6 active torsions:
  status: ('A' for Active; 'I' for Inactive)
    1  A    between atoms: N_3  and  C_6
    2  A    between atoms: C_5  and  N_18
    3  A    between atoms: C_6  and  C_19
    4  A    between atoms: C_7  and  C_20
    5  A    between atoms: N_11  and  C_15
    6  A    between atoms: N_11  and  N_18
                            x       y       z     vdW  Elec       q    Type
                         _______ _______ _______ _____ _____    ______ ____

>  <TORSDO>
F 6

$$$$
=
 OpenBabel10222420053D

 27 31  0  0  1  0  0  0  0  0999 V2000
  190.1560  177.8130  142.7280 N   0  0  0  0  0  0  0  0  0  0  0  0
  190.3540  177.7680  145.2870 C   0  0  1  0  0  3  0  0  0  0  0  0
  187.3550  177.3980  143.1920 C   0  0  2  0  0  3  0  0  0  0  0  0
  185.7820  178.3090  143.3810 S   0  0  0  0  0  0  0  0  0  0  0  0
  189.6100  177.8280  144.0540 C   0  0  0  0  0  0  0  0  0  0  0  0
  189.9220  176.7920  147.3140 N   0  0  0  0  0  0  0  0  0  0  0  0
  187.0100  178.4400  141.0500 C   0  0  0  0  0  2  0  0  0  0  0  0
  191.0130  176.3040  146.8160 C   0  0  0  0  0  3  0  0  0  0  0  0
  185.8650  178.7210  141.6360 C   0  0  0  0  0  0  0  0  0  0  0  0
  189.3630  177.7950  141.6950 C   0  0  0  0  0  0  0  0  0  0  0  0
  189.4040  177.8150  146.4200 C   0  0  2  0  0  3  0  0  0  0  0  0
  188.3180  177.6790  144.3060 C   0  0  0  0  0  0  0  0  0  0  0  0
  191.2960  176.8640  145.4990 C   0  0  0  0  0  2  0  0  0  0  0  0
  187.9350  177.7890  141.9060 N   0  0  0  0  0  0  0  0  0  0  0  0
  188.0640  177.4390  145.7670 C   0  0  0  0  0  2  0  0  0  0  0  0
  191.4110  177.4220  140.3300 C   0  0  0  0  0  2  0  0  0  0  0  0
  189.9600  177.8500  140.3230 C   0  0  1  0  0  3  0  0  0  0  0  0
  189.2230  176.9930  139.4010 N   0  0  0  0  0  2  0  0  0  0  0  0
  191.5840  176.7200  139.0160 C   0  0  0  0  0  2  0  0  0  0  0  0
  190.2080  176.1720  138.7050 C   0  0  2  0  0  3  0  0  0  0  0  0
  189.9440  176.2070  137.2100 C   0  0  0  0  0  2  0  0  0  0  0  0
  189.0460  177.3020  136.8890 N   0  0  0  0  0  2  0  0  0  0  0  0
  188.4160  176.9670  135.6250 C   0  0  0  0  0  1  0  0  0  0  0  0
  184.7930  179.3410  140.9290 N   0  0  0  0  0  0  0  0  0  0  0  0
  184.9140  179.6590  139.5710 N   0  0  0  0  0  2  0  0  0  0  0  0
  184.0420  178.7490  138.8510 C   0  0  0  0  0  2  0  0  0  0  0  0
  184.8760  177.8480  137.9660 C   0  0  0  0  0  1  0  0  0  0  0  0
  1  5  1  0  0  0  0
  2 13  1  6  0  0  0
  2 11  1  0  0  0  0
  3  4  1  1  0  0  0
  3 12  1  0  0  0  0
  5 12  2  0  0  0  0
  5  2  1  0  0  0  0
  7  9  1  0  0  0  0
  7 14  1  0  0  0  0
  8  6  2  0  0  0  0
  9  4  1  0  0  0  0
 10 14  1  0  0  0  0
 10  1  2  0  0  0  0
 11 15  1  6  0  0  0
 11  6  1  0  0  0  0
 12 15  1  0  0  0  0
 13  8  1  0  0  0  0
 14  3  1  0  0  0  0
 17 16  1  0  0  0  0
 17 10  1  1  0  0  0
 18 17  1  0  0  0  0
 19 16  1  0  0  0  0
 20 21  1  6  0  0  0
 20 19  1  0  0  0  0
 20 18  1  0  0  0  0
 22 21  1  0  0  0  0
 23 22  1  0  0  0  0
 24  9  2  0  0  0  0
 25 24  1  0  0  0  0
 26 25  1  0  0  0  0
 27 26  1  0  0  0  0
M  END
>  <MODEL>
2

>  <REMARK>
 VINA RESULT:      -7.9      2.087      2.710
  Name = 
  6 active torsions:
  status: ('A' for Active; 'I' for Inactive)
    1  A    between atoms: N_3  and  C_6
    2  A    between atoms: C_5  and  N_18
    3  A    between atoms: C_6  and  C_19
    4  A    between atoms: C_7  and  C_20
    5  A    between atoms: N_11  and  C_15
    6  A    between atoms: N_11  and  N_18
                            x       y       z     vdW  Elec       q    Type
                         _______ _______ _______ _____ _____    ______ ____

>  <TORSDO>
F 6

$$$$
=
 OpenBabel10222420053D

 27 31  0  0  1  0  0  0  0  0999 V2000
  187.4050  177.9130  141.9640 N   0  0  0  0  0  0  0  0  0  0  0  0
  188.3330  178.3750  139.6160 C   0  0  1  0  0  3  0  0  0  0  0  0
  189.9260  176.6240  142.4290 C   0  0  2  0  0  3  0  0  0  0  0  0
  191.5970  176.9410  143.0970 S   0  0  0  0  0  0  0  0  0  0  0  0
  188.4570  177.9600  140.9900 C   0  0  0  0  0  0  0  0  0  0  0  0
  189.3430  177.6690  137.6840 N   0  0  0  0  0  0  0  0  0  0  0  0
  189.5560  177.0990  144.7590 C   0  0  0  0  0  2  0  0  0  0  0  0
  188.0600  177.5190  137.5890 C   0  0  0  0  0  3  0  0  0  0  0  0
  190.8720  177.0550  144.7340 C   0  0  2  0  0  3  0  0  0  0  0  0
  187.6380  177.4430  143.1550 C   0  0  0  0  0  0  0  0  0  0  0  0
  189.6590  178.2770  138.9660 C   0  0  2  0  0  3  0  0  0  0  0  0
  189.6470  177.4110  141.1840 C   0  0  0  0  0  0  0  0  0  0  0  0
  187.3830  177.9110  138.8200 C   0  0  0  0  0  2  0  0  0  0  0  0
  188.9640  176.9710  143.4770 N   0  0  0  0  0  0  0  0  0  0  0  0
  190.4410  177.3490  139.9100 C   0  0  0  0  0  2  0  0  0  0  0  0
  186.9710  178.1840  145.4350 C   0  0  0  0  0  2  0  0  0  0  0  0
  186.5400  177.4710  144.1730 C   0  0  1  0  0  3  0  0  0  0  0  0
  185.3550  178.1340  143.6410 N   0  0  0  0  0  2  0  0  0  0  0  0
  185.7210  178.8690  145.9050 C   0  0  0  0  0  2  0  0  0  0  0  0
  184.9370  179.1170  144.6340 C   0  0  2  0  0  3  0  0  0  0  0  0
  183.4470  178.9880  144.8930 C   0  0  0  0  0  2  0  0  0  0  0  0
  182.7150  179.0730  143.6410 N   0  0  0  0  0  2  0  0  0  0  0  0
  181.3380  178.7260  143.9380 C   0  0  0  0  0  1  0  0  0  0  0  0
  191.6470  177.1280  145.9280 N   0  0  0  0  0  2  0  0  0  0  0  0
  191.1400  176.6610  147.1470 N   0  0  0  0  0  2  0  0  0  0  0  0
  191.9230  175.4930  147.5040 C   0  0  0  0  0  2  0  0  0  0  0  0
  192.9590  175.8760  148.5380 C   0  0  0  0  0  1  0  0  0  0  0  0
  1 10  2  0  0  0  0
  2 13  1  6  0  0  0
  2  5  1  0  0  0  0
  3 12  1  6  0  0  0
  3  4  1  0  0  0  0
  3 14  1  0  0  0  0
  4  9  1  0  0  0  0
  5 12  2  0  0  0  0
  5  1  1  0  0  0  0
  6 11  1  0  0  0  0
  8  6  2  0  0  0  0
  8 13  1  0  0  0  0
  9  7  1  0  0  0  0
  9 24  1  6  0  0  0
 10 14  1  0  0  0  0
 11  2  1  0  0  0  0
 11 15  1  1  0  0  0
 14  7  1  0  0  0  0
 15 12  1  0  0  0  0
 16 19  1  0  0  0  0
 17 10  1  6  0  0  0
 17 16  1  0  0  0  0
 18 17  1  0  0  0  0
 18 20  1  0  0  0  0
 20 21  1  1  0  0  0
 20 19  1  0  0  0  0
 22 23  1  0  0  0  0
 22 21  1  0  0  0  0
 24 25  1  0  0  0  0
 25 26  1  0  0  0  0
 26 27  1  0  0  0  0
M  END
>  <MODEL>
3

>  <REMARK>
 VINA RESULT:      -7.8      1.928      7.662
  Name = 
  6 active torsions:
  status: ('A' for Active; 'I' for Inactive)
    1  A    between atoms: N_3  and  C_6
    2  A    between atoms: C_5  and  N_18
    3  A    between atoms: C_6  and  C_19
    4  A    between atoms: C_7  and  C_20
    5  A    between atoms: N_11  and  C_15
    6  A    between atoms: N_11  and  N_18
                            x       y       z     vdW  Elec       q    Type
                         _______ _______ _______ _____ _____    ______ ____

>  <TORSDO>
F 6

$$$$
=
 OpenBabel10222420053D

 27 31  0  0  1  0  0  0  0  0999 V2000
  187.3260  177.3710  144.7850 N   0  0  0  0  0  0  0  0  0  0  0  0
  188.6550  177.1200  146.9670 C   0  0  1  0  0  3  0  0  0  0  0  0
  189.8810  177.8890  143.5870 C   0  0  2  0  0  3  0  0  0  0  0  0
  191.2520  177.0530  142.7150 S   0  0  0  0  0  0  0  0  0  0  0  0
  188.5410  177.2390  145.5360 C   0  0  0  0  0  0  0  0  0  0  0  0
  190.2050  177.8860  148.4710 N   0  0  0  0  0  0  0  0  0  0  0  0
  188.8950  177.1140  141.5330 C   0  0  0  0  0  2  0  0  0  0  0  0
  189.0380  178.3640  148.7620 C   0  0  0  0  0  3  0  0  0  0  0  0
  190.1610  176.8340  141.3070 C   0  0  2  0  0  3  0  0  0  0  0  0
  187.3690  177.5500  143.4970 C   0  0  0  0  0  0  0  0  0  0  0  0
  190.0860  177.0000  147.3240 C   0  0  2  0  0  3  0  0  0  0  0  0
  189.7410  177.4320  145.0080 C   0  0  0  0  0  0  0  0  0  0  0  0
  188.0300  177.9390  147.7960 C   0  0  0  0  0  2  0  0  0  0  0  0
  188.6530  177.6120  142.8390 N   0  0  0  0  0  0  0  0  0  0  0  0
  190.8020  177.5210  146.0680 C   0  0  0  0  0  2  0  0  0  0  0  0
  184.9860  178.2650  143.5420 C   0  0  0  0  0  2  0  0  0  0  0  0
  186.0840  177.6150  142.7300 C   0  0  1  0  0  3  0  0  0  0  0  0
  186.2560  178.3630  141.4900 N   0  0  0  0  0  2  0  0  0  0  0  0
  184.1780  179.0100  142.5210 C   0  0  0  0  0  2  0  0  0  0  0  0
  185.1750  179.3410  141.4310 C   0  0  2  0  0  3  0  0  0  0  0  0
  184.5110  179.2940  140.0670 C   0  0  0  0  0  2  0  0  0  0  0  0
  185.4750  178.8920  139.0580 N   0  0  0  0  0  2  0  0  0  0  0  0
  184.7720  178.0250  138.1310 C   0  0  0  0  0  1  0  0  0  0  0  0
  190.6080  176.3580  140.0400 N   0  0  0  0  0  2  0  0  0  0  0  0
  190.8650  177.2450  138.9860 N   0  0  0  0  0  2  0  0  0  0  0  0
  189.7370  177.1500  138.0790 C   0  0  0  0  0  2  0  0  0  0  0  0
  189.1530  178.5290  137.8560 C   0  0  0  0  0  1  0  0  0  0  0  0
  1  5  1  0  0  0  0
  2 11  1  0  0  0  0
  2 13  1  1  0  0  0
  3  4  1  6  0  0  0
  3 12  1  0  0  0  0
  5  2  1  0  0  0  0
  6  8  2  0  0  0  0
  7 14  1  0  0  0  0
  9 24  1  1  0  0  0
  9  7  1  0  0  0  0
  9  4  1  0  0  0  0
 10  1  2  0  0  0  0
 11 15  1  6  0  0  0
 11  6  1  0  0  0  0
 12  5  2  0  0  0  0
 12 15  1  0  0  0  0
 13  8  1  0  0  0  0
 14 10  1  0  0  0  0
 14  3  1  0  0  0  0
 17 10  1  1  0  0  0
 17 16  1  0  0  0  0
 18 17  1  0  0  0  0
 19 16  1  0  0  0  0
 20 21  1  6  0  0  0
 20 18  1  0  0  0  0
 20 19  1  0  0  0  0
 22 21  1  0  0  0  0
 23 22  1  0  0  0  0
 25 24  1  0  0  0  0
 26 25  1  0  0  0  0
 27 26  1  0  0  0  0
M  END
>  <MODEL>
4

>  <REMARK>
 VINA RESULT:      -7.7      2.203      5.388
  Name = 
  6 active torsions:
  status: ('A' for Active; 'I' for Inactive)
    1  A    between atoms: N_3  and  C_6
    2  A    between atoms: C_5  and  N_18
    3  A    between atoms: C_6  and  C_19
    4  A    between atoms: C_7  and  C_20
    5  A    between atoms: N_11  and  C_15
    6  A    between atoms: N_11  and  N_18
                            x       y       z     vdW  Elec       q    Type
                         _______ _______ _______ _____ _____    ______ ____

>  <TORSDO>
F 6

$$$$
=
 OpenBabel10222420053D

 27 31  0  0  1  0  0  0  0  0999 V2000
  187.9330  178.4270  139.9170 N   0  0  0  0  0  0  0  0  0  0  0  0
  189.4220  177.7870  137.9260 C   0  0  1  0  0  3  0  0  0  0  0  0
  189.7090  176.7750  141.4490 C   0  0  2  0  0  3  0  0  0  0  0  0
  191.2140  176.8600  142.4820 S   0  0  0  0  0  0  0  0  0  0  0  0
  189.1130  177.8580  139.3320 C   0  0  0  0  0  0  0  0  0  0  0  0
  190.5010  176.2180  136.6520 N   0  0  0  0  0  0  0  0  0  0  0  0
  189.0550  178.1080  143.3430 C   0  0  0  0  0  2  0  0  0  0  0  0
  189.2930  176.3820  136.2160 C   0  0  0  0  0  3  0  0  0  0  0  0
  190.2520  177.7190  143.7300 C   0  0  2  0  0  3  0  0  0  0  0  0
  187.7420  178.3560  141.2020 C   0  0  0  0  0  0  0  0  0  0  0  0
  190.7370  177.1300  137.7600 C   0  0  2  0  0  3  0  0  0  0  0  0
  189.9770  177.1230  140.0160 C   0  0  0  0  0  0  0  0  0  0  0  0
  188.5550  177.3380  137.0340 C   0  0  0  0  0  2  0  0  0  0  0  0
  188.7300  177.7000  142.0250 N   0  0  0  0  0  0  0  0  0  0  0  0
  190.9440  176.4190  139.1070 C   0  0  0  0  0  2  0  0  0  0  0  0
  185.3310  178.8900  140.8870 C   0  0  0  0  0  2  0  0  0  0  0  0
  186.5360  179.0190  141.7940 C   0  0  1  0  0  3  0  0  0  0  0  0
  186.2090  178.4410  143.0920 N   0  0  0  0  0  2  0  0  0  0  0  0
  184.1780  178.7640  141.8390 C   0  0  0  0  0  2  0  0  0  0  0  0
  184.7850  178.1270  143.0720 C   0  0  2  0  0  3  0  0  0  0  0  0
  184.1210  178.6590  144.3290 C   0  0  0  0  0  2  0  0  0  0  0  0
  185.1300  179.0920  145.2790 N   0  0  0  0  0  2  0  0  0  0  0  0
  184.9060  178.3380  146.4980 C   0  0  0  0  0  1  0  0  0  0  0  0
  190.7440  177.9990  145.0380 N   0  0  0  0  0  2  0  0  0  0  0  0
  191.6720  177.1530  145.6570 N   0  0  0  0  0  2  0  0  0  0  0  0
  191.0830  176.7370  146.9160 C   0  0  0  0  0  2  0  0  0  0  0  0
  192.0540  175.8420  147.6570 C   0  0  0  0  0  1  0  0  0  0  0  0
  1 10  2  0  0  0  0
  2 13  1  6  0  0  0
  2  5  1  0  0  0  0
  3 12  1  6  0  0  0
  3 14  1  0  0  0  0
  3  4  1  0  0  0  0
  4  9  1  0  0  0  0
  5  1  1  0  0  0  0
  5 12  2  0  0  0  0
  6 11  1  0  0  0  0
  7  9  1  0  0  0  0
  8  6  2  0  0  0  0
  8 13  1  0  0  0  0
  9 24  1  6  0  0  0
 10 14  1  0  0  0  0
 11  2  1  0  0  0  0
 11 15  1  1  0  0  0
 14  7  1  0  0  0  0
 15 12  1  0  0  0  0
 16 17  1  0  0  0  0
 16 19  1  0  0  0  0
 17 10  1  6  0  0  0
 17 18  1  0  0  0  0
 19 20  1  0  0  0  0
 20 18  1  0  0  0  0
 20 21  1  1  0  0  0
 21 22  1  0  0  0  0
 22 23  1  0  0  0  0
 24 25  1  0  0  0  0
 25 26  1  0  0  0  0
 26 27  1  0  0  0  0
M  END
>  <MODEL>
5

>  <REMARK>
 VINA RESULT:      -7.4      2.142      7.453
  Name = 
  6 active torsions:
  status: ('A' for Active; 'I' for Inactive)
    1  A    between atoms: N_3  and  C_6
    2  A    between atoms: C_5  and  N_18
    3  A    between atoms: C_6  and  C_19
    4  A    between atoms: C_7  and  C_20
    5  A    between atoms: N_11  and  C_15
    6  A    between atoms: N_11  and  N_18
                            x       y       z     vdW  Elec       q    Type
                         _______ _______ _______ _____ _____    ______ ____

>  <TORSDO>
F 6

$$$$
=
 OpenBabel10222420053D

 27 31  0  0  1  0  0  0  0  0999 V2000
  185.6110  178.3850  141.6810 N   0  0  0  0  0  0  0  0  0  0  0  0
  185.8750  177.7970  144.1660 C   0  0  1  0  0  3  0  0  0  0  0  0
  188.4800  178.3710  141.6350 C   0  0  2  0  0  3  0  0  0  0  0  0
  189.9030  177.2810  141.2780 S   0  0  0  0  0  0  0  0  0  0  0  0
  186.3730  177.9750  142.8260 C   0  0  0  0  0  0  0  0  0  0  0  0
  186.8020  178.1730  146.2280 N   0  0  0  0  0  0  0  0  0  0  0  0
  188.2790  177.8790  139.2880 C   0  0  0  0  0  2  0  0  0  0  0  0
  185.7280  178.8840  146.0940 C   0  0  0  0  0  3  0  0  0  0  0  0
  189.4520  177.3380  139.5430 C   0  0  2  0  0  3  0  0  0  0  0  0
  186.2030  178.5820  140.5390 C   0  0  0  0  0  0  0  0  0  0  0  0
  186.9910  177.3630  145.0350 C   0  0  2  0  0  3  0  0  0  0  0  0
  187.6960  177.9180  142.8310 C   0  0  0  0  0  0  0  0  0  0  0  0
  185.1350  178.7110  144.7720 C   0  0  0  0  0  2  0  0  0  0  0  0
  187.6300  178.3830  140.4430 N   0  0  0  0  0  0  0  0  0  0  0  0
  188.2370  177.7490  144.2220 C   0  0  0  0  0  2  0  0  0  0  0  0
  184.7480  177.7170  138.7140 C   0  0  0  0  0  2  0  0  0  0  0  0
  185.3730  178.9420  139.3450 C   0  0  1  0  0  3  0  0  0  0  0  0
  184.3120  179.8740  139.7120 N   0  0  0  0  0  2  0  0  0  0  0  0
  183.4190  178.2070  138.2200 C   0  0  0  0  0  2  0  0  0  0  0  0
  183.0710  179.3420  139.1600 C   0  0  2  0  0  3  0  0  0  0  0  0
  182.3240  180.4370  138.4210 C   0  0  0  0  0  2  0  0  0  0  0  0
  180.8930  180.2800  138.6120 N   0  0  0  0  0  2  0  0  0  0  0  0
  180.6850  180.0480  140.0300 C   0  0  0  0  0  1  0  0  0  0  0  0
  190.2750  176.8100  138.5050 N   0  0  0  0  0  2  0  0  0  0  0  0
  190.6650  175.4640  138.5080 N   0  0  0  0  0  2  0  0  0  0  0  0
  191.7290  175.3370  137.5300 C   0  0  0  0  0  2  0  0  0  0  0  0
  192.8590  176.2780  137.8900 C   0  0  0  0  0  1  0  0  0  0  0  0
  1  5  1  0  0  0  0
  2 13  1  1  0  0  0
  2 11  1  0  0  0  0
  3  4  1  6  0  0  0
  3 12  1  0  0  0  0
  5 12  2  0  0  0  0
  5  2  1  0  0  0  0
  7  9  1  0  0  0  0
  7 14  1  0  0  0  0
  8  6  2  0  0  0  0
  9 24  1  1  0  0  0
  9  4  1  0  0  0  0
 10  1  2  0  0  0  0
 11 15  1  6  0  0  0
 11  6  1  0  0  0  0
 12 15  1  0  0  0  0
 13  8  1  0  0  0  0
 14 10  1  0  0  0  0
 14  3  1  0  0  0  0
 16 17  1  0  0  0  0
 17 18  1  0  0  0  0
 17 10  1  1  0  0  0
 19 16  1  0  0  0  0
 19 20  1  0  0  0  0
 20 21  1  6  0  0  0
 20 18  1  0  0  0  0
 21 22  1  0  0  0  0
 22 23  1  0  0  0  0
 24 25  1  0  0  0  0
 26 27  1  0  0  0  0
 26 25  1  0  0  0  0
M  END
>  <MODEL>
6

>  <REMARK>
 VINA RESULT:      -7.2      3.000      7.107
  Name = 
  6 active torsions:
  status: ('A' for Active; 'I' for Inactive)
    1  A    between atoms: N_3  and  C_6
    2  A    between atoms: C_5  and  N_18
    3  A    between atoms: C_6  and  C_19
    4  A    between atoms: C_7  and  C_20
    5  A    between atoms: N_11  and  C_15
    6  A    between atoms: N_11  and  N_18
                            x       y       z     vdW  Elec       q    Type
                         _______ _______ _______ _____ _____    ______ ____

>  <TORSDO>
F 6

$$$$
=
 OpenBabel10222420053D

 27 31  0  0  1  0  0  0  0  0999 V2000
  190.6840  176.6460  139.9960 N   0  0  0  0  0  0  0  0  0  0  0  0
  191.8060  175.5350  137.9730 C   0  0  1  0  0  3  0  0  0  0  0  0
  189.1150  178.0390  138.0390 C   0  0  2  0  0  3  0  0  0  0  0  0
  187.5240  177.9440  137.1450 S   0  0  0  0  0  0  0  0  0  0  0  0
  190.7820  176.3300  138.6000 C   0  0  0  0  0  0  0  0  0  0  0  0
  192.8380  175.6640  135.9310 N   0  0  0  0  0  0  0  0  0  0  0  0
  187.4490  178.2530  139.7630 C   0  0  0  0  0  2  0  0  0  0  0  0
  193.7190  175.7680  136.8750 C   0  0  0  0  0  3  0  0  0  0  0  0
  186.6860  178.3010  138.6900 C   0  0  2  0  0  3  0  0  0  0  0  0
  189.7460  177.4430  140.4220 C   0  0  0  0  0  0  0  0  0  0  0  0
  191.5270  175.4550  136.5220 C   0  0  2  0  0  3  0  0  0  0  0  0
  190.0470  176.9240  137.6720 C   0  0  0  0  0  0  0  0  0  0  0  0
  193.0950  175.7410  138.1930 C   0  0  0  0  0  2  0  0  0  0  0  0
  188.8130  178.0000  139.4720 N   0  0  0  0  0  0  0  0  0  0  0  0
  190.5550  176.6230  136.2900 C   0  0  0  0  0  2  0  0  0  0  0  0
  188.6800  176.7180  142.5510 C   0  0  0  0  0  2  0  0  0  0  0  0
  189.6250  177.6990  141.8920 C   0  0  1  0  0  3  0  0  0  0  0  0
  190.9260  177.6070  142.5450 N   0  0  0  0  0  2  0  0  0  0  0  0
  189.2790  176.5010  143.9100 C   0  0  0  0  0  2  0  0  0  0  0  0
  190.7600  176.7350  143.7020 C   0  0  2  0  0  3  0  0  0  0  0  0
  191.3760  177.3820  144.9290 C   0  0  0  0  0  2  0  0  0  0  0  0
  191.7140  176.3660  145.9100 N   0  0  0  0  0  2  0  0  0  0  0  0
  191.0680  176.7520  147.1500 C   0  0  0  0  0  1  0  0  0  0  0  0
  185.2910  178.5820  138.7750 N   0  0  0  0  0  2  0  0  0  0  0  0
  184.7950  179.4970  139.7130 N   0  0  0  0  0  2  0  0  0  0  0  0
  183.7190  178.8270  140.4190 C   0  0  0  0  0  2  0  0  0  0  0  0
  184.2480  178.2550  141.7170 C   0  0  0  0  0  1  0  0  0  0  0  0
  1 10  2  0  0  0  0
  2 13  1  6  0  0  0
  2  5  1  0  0  0  0
  3  4  1  6  0  0  0
  3 14  1  0  0  0  0
  4  9  1  0  0  0  0
  5  1  1  0  0  0  0
  6 11  1  0  0  0  0
  6  8  2  0  0  0  0
  8 13  1  0  0  0  0
  9 24  1  1  0  0  0
  9  7  1  0  0  0  0
 11 15  1  6  0  0  0
 11  2  1  0  0  0  0
 12  3  1  0  0  0  0
 12  5  2  0  0  0  0
 14  7  1  0  0  0  0
 14 10  1  0  0  0  0
 15 12  1  0  0  0  0
 16 19  1  0  0  0  0
 17 10  1  6  0  0  0
 17 18  1  0  0  0  0
 17 16  1  0  0  0  0
 18 20  1  0  0  0  0
 20 19  1  0  0  0  0
 20 21  1  1  0  0  0
 21 22  1  0  0  0  0
 22 23  1  0  0  0  0
 24 25  1  0  0  0  0
 25 26  1  0  0  0  0
 26 27  1  0  0  0  0
M  END
>  <MODEL>
7

>  <REMARK>
 VINA RESULT:      -7.2      2.693      6.655
  Name = 
  6 active torsions:
  status: ('A' for Active; 'I' for Inactive)
    1  A    between atoms: N_3  and  C_6
    2  A    between atoms: C_5  and  N_18
    3  A    between atoms: C_6  and  C_19
    4  A    between atoms: C_7  and  C_20
    5  A    between atoms: N_11  and  C_15
    6  A    between atoms: N_11  and  N_18
                            x       y       z     vdW  Elec       q    Type
                         _______ _______ _______ _____ _____    ______ ____

>  <TORSDO>
F 6

$$$$
=
 OpenBabel10222420053D

 27 31  0  0  1  0  0  0  0  0999 V2000
  189.5060  178.1850  142.5810 N   0  0  0  0  0  0  0  0  0  0  0  0
  190.4980  177.7890  144.9150 C   0  0  1  0  0  3  0  0  0  0  0  0
  187.0210  177.4040  143.7840 C   0  0  2  0  0  3  0  0  0  0  0  0
  185.5360  178.1000  144.5900 S   0  0  0  0  0  0  0  0  0  0  0  0
  189.4030  177.9470  143.9920 C   0  0  0  0  0  0  0  0  0  0  0  0
  190.7810  176.4860  146.7790 N   0  0  0  0  0  0  0  0  0  0  0  0
  185.9620  178.7030  142.0580 C   0  0  0  0  0  2  0  0  0  0  0  0
  191.6880  176.1970  145.9000 C   0  0  0  0  0  3  0  0  0  0  0  0
  185.0440  178.7700  142.9990 C   0  0  2  0  0  3  0  0  0  0  0  0
  188.4320  178.2310  141.8470 C   0  0  0  0  0  0  0  0  0  0  0  0
  189.9510  177.5660  146.2710 C   0  0  2  0  0  3  0  0  0  0  0  0
  188.2660  177.6220  144.5900 C   0  0  0  0  0  0  0  0  0  0  0  0
  191.5110  176.9720  144.6760 C   0  0  0  0  0  2  0  0  0  0  0  0
  187.1450  178.0400  142.4710 N   0  0  0  0  0  0  0  0  0  0  0  0
  188.4980  177.1460  145.9950 C   0  0  0  0  0  2  0  0  0  0  0  0
  189.6860  177.7630  139.7480 C   0  0  0  0  0  2  0  0  0  0  0  0
  188.5640  178.5510  140.3890 C   0  0  1  0  0  3  0  0  0  0  0  0
  187.3230  178.2630  139.6790 N   0  0  0  0  0  2  0  0  0  0  0  0
  189.1840  177.4910  138.3600 C   0  0  0  0  0  2  0  0  0  0  0  0
  187.6780  177.4670  138.5090 C   0  0  2  0  0  3  0  0  0  0  0  0
  187.0090  178.0400  137.2730 C   0  0  0  0  0  2  0  0  0  0  0  0
  185.8340  177.2580  136.9350 N   0  0  0  0  0  2  0  0  0  0  0  0
  186.2060  175.8630  137.0780 C   0  0  0  0  0  1  0  0  0  0  0  0
  183.7710  179.3650  142.7640 N   0  0  0  0  0  2  0  0  0  0  0  0
  182.6280  178.9170  143.4390 N   0  0  0  0  0  2  0  0  0  0  0  0
  181.5250  179.0150  142.5010 C   0  0  0  0  0  2  0  0  0  0  0  0
  182.0040  178.6310  141.1180 C   0  0  0  0  0  1  0  0  0  0  0  0
  1  5  1  0  0  0  0
  2 13  1  6  0  0  0
  2 11  1  0  0  0  0
  3 12  1  1  0  0  0
  3  4  1  0  0  0  0
  5 12  2  0  0  0  0
  5  2  1  0  0  0  0
  7 14  1  0  0  0  0
  7  9  1  0  0  0  0
  8  6  2  0  0  0  0
  9 24  1  1  0  0  0
  9  4  1  0  0  0  0
 10 14  1  0  0  0  0
 10  1  2  0  0  0  0
 11 15  1  6  0  0  0
 11  6  1  0  0  0  0
 12 15  1  0  0  0  0
 13  8  1  0  0  0  0
 14  3  1  0  0  0  0
 16 17  1  0  0  0  0
 17 10  1  1  0  0  0
 18 17  1  0  0  0  0
 19 20  1  0  0  0  0
 19 16  1  0  0  0  0
 20 21  1  6  0  0  0
 20 18  1  0  0  0  0
 22 23  1  0  0  0  0
 22 21  1  0  0  0  0
 24 25  1  0  0  0  0
 26 25  1  0  0  0  0
 27 26  1  0  0  0  0
M  END
>  <MODEL>
8

>  <REMARK>
 VINA RESULT:      -7.1      1.844      2.183
  Name = 
  6 active torsions:
  status: ('A' for Active; 'I' for Inactive)
    1  A    between atoms: N_3  and  C_6
    2  A    between atoms: C_5  and  N_18
    3  A    between atoms: C_6  and  C_19
    4  A    between atoms: C_7  and  C_20
    5  A    between atoms: N_11  and  C_15
    6  A    between atoms: N_11  and  N_18
                            x       y       z     vdW  Elec       q    Type
                         _______ _______ _______ _____ _____    ______ ____

>  <TORSDO>
F 6

$$$$
=
 OpenBabel10222420053D

 27 31  0  0  1  0  0  0  0  0999 V2000
  185.0620  178.4780  141.1550 N   0  0  0  0  0  0  0  0  0  0  0  0
  182.5640  178.2720  140.6010 C   0  0  1  0  0  3  0  0  0  0  0  0
  184.1570  179.3950  143.7190 C   0  0  2  0  0  3  0  0  0  0  0  0
  183.7800  178.7980  145.4050 S   0  0  0  0  0  0  0  0  0  0  0  0
  183.6710  178.4610  141.5040 C   0  0  0  0  0  0  0  0  0  0  0  0
  180.4450  179.1430  140.5390 N   0  0  0  0  0  0  0  0  0  0  0  0
  186.2740  178.6210  144.5630 C   0  0  0  0  0  2  0  0  0  0  0  0
  181.0770  179.4470  139.4500 C   0  0  0  0  0  3  0  0  0  0  0  0
  185.5360  178.5220  145.6490 C   0  0  2  0  0  3  0  0  0  0  0  0
  185.9600  178.7360  142.0620 C   0  0  0  0  0  0  0  0  0  0  0  0
  181.3040  178.3190  141.3750 C   0  0  2  0  0  3  0  0  0  0  0  0
  183.2180  178.8400  142.6900 C   0  0  0  0  0  0  0  0  0  0  0  0
  182.4490  178.9530  139.4720 C   0  0  0  0  0  2  0  0  0  0  0  0
  185.5350  179.0050  143.4150 N   0  0  0  0  0  0  0  0  0  0  0  0
  181.7250  179.0030  142.6860 C   0  0  0  0  0  2  0  0  0  0  0  0
  188.0920  177.4730  142.2900 C   0  0  0  0  0  2  0  0  0  0  0  0
  187.4080  178.6790  141.6840 C   0  0  1  0  0  3  0  0  0  0  0  0
  187.5660  178.6280  140.2350 N   0  0  0  0  0  2  0  0  0  0  0  0
  189.0960  177.0700  141.2500 C   0  0  0  0  0  2  0  0  0  0  0  0
  188.4810  177.5300  139.9450 C   0  0  2  0  0  3  0  0  0  0  0  0
  189.5580  177.9950  138.9820 C   0  0  0  0  0  2  0  0  0  0  0  0
  189.0550  179.0830  138.1630 N   0  0  0  0  0  2  0  0  0  0  0  0
  188.9300  178.5660  136.8130 C   0  0  0  0  0  1  0  0  0  0  0  0
  186.1040  178.1860  146.9130 N   0  0  0  0  0  2  0  0  0  0  0  0
  187.3230  177.5010  146.9960 N   0  0  0  0  0  2  0  0  0  0  0  0
  187.9310  177.8840  148.2570 C   0  0  0  0  0  2  0  0  0  0  0  0
  189.4380  177.8780  148.1130 C   0  0  0  0  0  1  0  0  0  0  0  0
  1  5  1  0  0  0  0
  1 10  2  0  0  0  0
  2 13  1  6  0  0  0
  2 11  1  0  0  0  0
  2  5  1  0  0  0  0
  3 12  1  6  0  0  0
  3  4  1  0  0  0  0
  4  9  1  0  0  0  0
  5 12  2  0  0  0  0
  6 11  1  0  0  0  0
  7  9  1  0  0  0  0
  8 13  1  0  0  0  0
  8  6  2  0  0  0  0
  9 24  1  6  0  0  0
 10 14  1  0  0  0  0
 11 15  1  1  0  0  0
 14  3  1  0  0  0  0
 14  7  1  0  0  0  0
 15 12  1  0  0  0  0
 17 10  1  6  0  0  0
 17 16  1  0  0  0  0
 18 17  1  0  0  0  0
 19 16  1  0  0  0  0
 20 21  1  6  0  0  0
 20 18  1  0  0  0  0
 20 19  1  0  0  0  0
 22 21  1  0  0  0  0
 23 22  1  0  0  0  0
 24 25  1  0  0  0  0
 25 26  1  0  0  0  0
 27 26  1  0  0  0  0
M  END
>  <MODEL>
9

>  <REMARK>
 VINA RESULT:      -7.0      2.495      6.642
  Name = 
  6 active torsions:
  status: ('A' for Active; 'I' for Inactive)
    1  A    between atoms: N_3  and  C_6
    2  A    between atoms: C_5  and  N_18
    3  A    between atoms: C_6  and  C_19
    4  A    between atoms: C_7  and  C_20
    5  A    between atoms: N_11  and  C_15
    6  A    between atoms: N_11  and  N_18
                            x       y       z     vdW  Elec       q    Type
                         _______ _______ _______ _____ _____    ______ ____

>  <TORSDO>
F 6

$$$$
