=
 OpenBabel10222418223D

 34 38  0  0  1  0  0  0  0  0999 V2000
  183.3880  175.2090  136.3650 C   0  0  0  0  0  2  0  0  0  0  0  0
  184.9550  178.9710  143.3770 C   0  0  1  0  0  3  0  0  0  0  0  0
  186.8150  177.4220  143.7720 C   0  0  0  0  0  0  0  0  0  0  0  0
  187.5810  177.9820  136.4400 C   0  0  0  0  0  2  0  0  0  0  0  0
  184.3310  179.3010  139.5880 C   0  0  0  0  0  2  0  0  0  0  0  0
  185.0460  175.8980  134.5940 C   0  0  0  0  0  2  0  0  0  0  0  0
  188.0620  177.2830  143.4020 C   0  0  0  0  0  3  0  0  0  0  0  0
  188.8050  177.9920  137.3250 C   0  0  0  0  0  2  0  0  0  0  0  0
  182.6350  178.5370  143.9630 O   0  0  0  0  0  0  0  0  0  0  0  0
  187.3030  176.3050  138.2080 C   0  0  0  0  0  2  0  0  0  0  0  0
  189.5610  176.5800  139.2320 C   0  0  0  0  0  2  0  0  0  0  0  0
  189.9140  177.3020  141.6640 C   0  0  1  0  0  3  0  0  0  0  0  0
  185.4240  179.3010  141.9740 C   0  0  0  0  0  0  0  0  0  0  0  0
  184.7650  178.1230  137.4520 C   0  0  0  0  0  2  0  0  0  0  0  0
  190.2900  177.5270  140.1840 C   0  0  1  0  0  3  0  0  0  0  0  0
  187.9290  178.8530  141.4300 C   0  0  0  0  0  3  0  0  0  0  0  0
  184.8340  178.0110  138.9680 C   0  0  0  0  0  2  0  0  0  0  0  0
  184.5580  175.6230  137.2520 C   0  0  0  0  0  2  0  0  0  0  0  0
  188.4150  177.5120  141.9440 C   0  0  2  0  0  3  0  0  0  0  0  0
  183.8610  174.9890  134.9290 C   0  0  0  0  0  2  0  0  0  0  0  0
  183.5060  178.7730  143.0850 C   0  0  0  0  0  0  0  0  0  0  0  0
  186.6720  179.1620  141.6060 C   0  0  0  0  0  0  0  0  0  0  0  0
  183.1880  178.8810  141.7020 N   0  0  0  0  0  0  0  0  0  0  0  0
  184.9580  177.1060  135.3190 O   0  0  0  0  0  0  0  0  0  0  0  0
  188.3810  177.2940  138.6000 C   0  0  1  0  0  3  0  0  0  0  0  0
  186.8130  176.7260  136.8260 C   0  0  1  0  0  3  0  0  0  0  0  0
  185.5450  177.6920  143.9440 C   0  0  0  0  0  3  0  0  0  0  0  0
  184.2780  179.1720  141.0740 C   0  0  0  0  0  0  0  0  0  0  0  0
  185.2740  176.8830  136.6900 C   0  0  1  0  0  0  0  0  0  0  0  0
  190.4630  175.9830  142.2390 C   0  0  0  0  0  2  0  0  0  0  0  0
  191.3950  176.1930  143.4240 C   0  0  0  0  0  1  0  0  0  0  0  0
  191.7980  177.4600  139.9740 C   0  0  0  0  0  2  0  0  0  0  0  0
  193.5450  176.6000  138.6990 C   0  0  0  0  0  1  0  0  0  0  0  0
  192.1000  176.7100  138.7680 N   0  0  0  0  0  2  0  0  0  0  0  0
  1 18  1  0  0  0  0
  2 27  1  6  0  0  0
  3 27  2  0  0  0  0
  4  8  1  0  0  0  0
  5 28  1  0  0  0  0
  6 20  1  0  0  0  0
  6 24  1  0  0  0  0
  7  3  2  0  0  0  0
 10 25  1  0  0  0  0
 11 15  1  0  0  0  0
 12 19  1  0  0  0  0
 12 30  1  6  0  0  0
 13  2  1  0  0  0  0
 14 17  1  0  0  0  0
 15 32  1  1  0  0  0
 15 12  1  0  0  0  0
 16 22  2  0  0  0  0
 17  5  1  0  0  0  0
 19 16  1  1  0  0  0
 19  7  1  0  0  0  0
 20  1  1  0  0  0  0
 21  2  1  0  0  0  0
 21  9  2  0  0  0  0
 22 13  2  0  0  0  0
 23 21  1  0  0  0  0
 24 29  1  0  0  0  0
 25  8  1  6  0  0  0
 25 11  1  0  0  0  0
 26  4  1  1  0  0  0
 26 10  1  0  0  0  0
 28 23  2  0  0  0  0
 28 13  1  0  0  0  0
 29 26  1  0  0  0  0
 29 18  1  1  0  0  0
 29 14  1  0  0  0  0
 30 31  1  0  0  0  0
 33 34  1  0  0  0  0
 34 32  1  0  0  0  0
M  END
>  <MODEL>
1

>  <REMARK>
 VINA RESULT:      -7.5      0.000      0.000
  Name = 
  3 active torsions:
  status: ('A' for Active; 'I' for Inactive)
    1  A    between atoms: C_6  and  C_13
    2  A    between atoms: C_17  and  C_33
    3  A    between atoms: N_26  and  C_33
                            x       y       z     vdW  Elec       q    Type
                         _______ _______ _______ _____ _____    ______ ____

>  <TORSDO>
F 3

$$$$
=
 OpenBabel10222418223D

 34 38  0  0  1  0  0  0  0  0999 V2000
  187.8500  173.8930  135.7500 C   0  0  0  0  0  2  0  0  0  0  0  0
  183.5510  178.8860  140.4780 C   0  0  1  0  0  3  0  0  0  0  0  0
  184.5290  177.8230  142.4600 C   0  0  0  0  0  0  0  0  0  0  0  0
  190.5050  177.4410  138.1240 C   0  0  0  0  0  2  0  0  0  0  0  0
  185.9610  178.5190  137.4920 C   0  0  0  0  0  2  0  0  0  0  0  0
  190.2570  174.6350  135.6240 C   0  0  0  0  0  2  0  0  0  0  0  0
  185.6370  177.8880  143.1530 C   0  0  0  0  0  3  0  0  0  0  0  0
  190.6560  177.8300  139.5760 C   0  0  0  0  0  2  0  0  0  0  0  0
  181.5840  178.0800  139.2960 O   0  0  0  0  0  0  0  0  0  0  0  0
  189.0420  176.0220  139.4870 C   0  0  0  0  0  2  0  0  0  0  0  0
  189.7680  176.8990  141.7070 C   0  0  0  0  0  2  0  0  0  0  0  0
  188.1650  178.0270  143.3560 C   0  0  1  0  0  3  0  0  0  0  0  0
  184.9020  179.0940  139.8250 C   0  0  0  0  0  0  0  0  0  0  0  0
  187.8770  177.1530  136.7170 C   0  0  0  0  0  2  0  0  0  0  0  0
  189.5160  178.1040  142.6120 C   0  0  1  0  0  3  0  0  0  0  0  0
  186.9820  179.0900  141.3880 C   0  0  0  0  0  3  0  0  0  0  0  0
  186.7910  177.2820  137.7760 C   0  0  0  0  0  2  0  0  0  0  0  0
  187.9530  174.6620  137.0630 C   0  0  0  0  0  2  0  0  0  0  0  0
  186.9560  177.9670  142.4050 C   0  0  2  0  0  3  0  0  0  0  0  0
  189.2440  173.5640  135.2150 C   0  0  0  0  0  2  0  0  0  0  0  0
  182.8120  178.3560  139.2950 C   0  0  0  0  0  0  0  0  0  0  0  0
  186.0090  179.1590  140.5190 C   0  0  0  0  0  0  0  0  0  0  0  0
  183.6330  178.1920  138.1440 N   0  0  0  0  0  0  0  0  0  0  0  0
  189.6260  175.8940  135.7290 O   0  0  0  0  0  0  0  0  0  0  0  0
  189.4390  177.2560  140.2700 C   0  0  1  0  0  3  0  0  0  0  0  0
  189.7390  176.1250  138.1350 C   0  0  1  0  0  3  0  0  0  0  0  0
  183.5510  177.8510  141.5890 C   0  0  0  0  0  3  0  0  0  0  0  0
  184.8180  178.6040  138.4490 C   0  0  0  0  0  0  0  0  0  0  0  0
  188.8160  175.9450  136.9000 C   0  0  1  0  0  0  0  0  0  0  0  0
  188.1340  176.9470  144.4530 C   0  0  0  0  0  2  0  0  0  0  0  0
  188.0190  177.5270  145.8560 C   0  0  0  0  0  1  0  0  0  0  0  0
  190.6750  178.3150  143.5780 C   0  0  0  0  0  2  0  0  0  0  0  0
  191.6620  176.6970  144.9290 C   0  0  0  0  0  1  0  0  0  0  0  0
  191.5560  177.1610  143.5580 N   0  0  0  0  0  2  0  0  0  0  0  0
  1 18  1  0  0  0  0
  2 27  1  1  0  0  0
  3  7  2  0  0  0  0
  4  8  1  0  0  0  0
  5 17  1  0  0  0  0
  5 28  1  0  0  0  0
  6 24  1  0  0  0  0
  8 25  1  0  0  0  0
 11 15  1  0  0  0  0
 12 30  1  6  0  0  0
 13  2  1  0  0  0  0
 13 22  2  0  0  0  0
 14 17  1  0  0  0  0
 15 12  1  0  0  0  0
 15 32  1  1  0  0  0
 19 16  1  1  0  0  0
 19  7  1  0  0  0  0
 19 12  1  0  0  0  0
 20  6  1  0  0  0  0
 20  1  1  0  0  0  0
 21  9  2  0  0  0  0
 21  2  1  0  0  0  0
 22 16  2  0  0  0  0
 23 28  2  0  0  0  0
 23 21  1  0  0  0  0
 24 29  1  0  0  0  0
 25 10  1  6  0  0  0
 25 11  1  0  0  0  0
 26  4  1  6  0  0  0
 26 10  1  0  0  0  0
 27  3  2  0  0  0  0
 28 13  1  0  0  0  0
 29 14  1  6  0  0  0
 29 18  1  0  0  0  0
 29 26  1  0  0  0  0
 30 31  1  0  0  0  0
 34 32  1  0  0  0  0
 34 33  1  0  0  0  0
M  END
>  <MODEL>
2

>  <REMARK>
 VINA RESULT:      -6.6      2.337      3.554
  Name = 
  3 active torsions:
  status: ('A' for Active; 'I' for Inactive)
    1  A    between atoms: C_6  and  C_13
    2  A    between atoms: C_17  and  C_33
    3  A    between atoms: N_26  and  C_33
                            x       y       z     vdW  Elec       q    Type
                         _______ _______ _______ _____ _____    ______ ____

>  <TORSDO>
F 3

$$$$
=
 OpenBabel10222418223D

 34 38  0  0  1  0  0  0  0  0999 V2000
  179.6910  174.9680  140.4660 C   0  0  0  0  0  2  0  0  0  0  0  0
  185.3870  179.0320  144.5670 C   0  0  1  0  0  3  0  0  0  0  0  0
  187.1200  177.8150  143.3300 C   0  0  0  0  0  0  0  0  0  0  0  0
  182.2370  178.3940  137.8100 C   0  0  0  0  0  2  0  0  0  0  0  0
  182.1690  179.2020  142.4510 C   0  0  0  0  0  2  0  0  0  0  0  0
  179.4380  175.8960  138.1340 C   0  0  0  0  0  2  0  0  0  0  0  0
  187.7110  177.8780  142.1640 C   0  0  0  0  0  3  0  0  0  0  0  0
  183.7060  178.6170  137.5370 C   0  0  0  0  0  2  0  0  0  0  0  0
  184.3000  178.2300  146.5890 O   0  0  0  0  0  0  0  0  0  0  0  0
  183.5410  176.7180  139.0370 C   0  0  0  0  0  2  0  0  0  0  0  0
  185.7770  177.3750  138.1470 C   0  0  0  0  0  2  0  0  0  0  0  0
  187.6950  178.1780  139.6420 C   0  0  1  0  0  3  0  0  0  0  0  0
  184.6430  179.4150  143.3030 C   0  0  0  0  0  0  0  0  0  0  0  0
  181.0540  178.0830  140.5430 C   0  0  0  0  0  2  0  0  0  0  0  0
  186.8450  178.4420  138.3810 C   0  0  1  0  0  3  0  0  0  0  0  0
  185.9940  179.3780  141.0800 C   0  0  0  0  0  3  0  0  0  0  0  0
  182.2170  178.0050  141.5220 C   0  0  0  0  0  2  0  0  0  0  0  0
  181.0760  175.5810  140.2790 C   0  0  0  0  0  2  0  0  0  0  0  0
  186.8600  178.1420  140.9350 C   0  0  2  0  0  3  0  0  0  0  0  0
  178.9930  174.8090  139.1160 C   0  0  0  0  0  2  0  0  0  0  0  0
  184.2200  178.5940  145.3870 C   0  0  0  0  0  0  0  0  0  0  0  0
  185.2350  179.4780  142.1380 C   0  0  0  0  0  0  0  0  0  0  0  0
  182.9860  178.6290  144.6770 N   0  0  0  0  0  0  0  0  0  0  0  0
  179.7580  177.0830  138.8280 O   0  0  0  0  0  0  0  0  0  0  0  0
  184.4320  177.8760  138.6400 C   0  0  1  0  0  3  0  0  0  0  0  0
  182.1540  177.0330  138.4870 C   0  0  1  0  0  3  0  0  0  0  0  0
  186.3550  177.8750  144.3910 C   0  0  0  0  0  3  0  0  0  0  0  0
  183.2300  179.0870  143.4950 C   0  0  0  0  0  0  0  0  0  0  0  0
  180.9960  176.9340  139.5180 C   0  0  1  0  0  0  0  0  0  0  0  0
  188.6460  176.9750  139.4960 C   0  0  0  0  0  2  0  0  0  0  0  0
  190.1160  177.3690  139.5410 C   0  0  0  0  0  1  0  0  0  0  0  0
  187.7190  178.6210  137.1460 C   0  0  0  0  0  2  0  0  0  0  0  0
  188.5750  176.9900  135.7220 C   0  0  0  0  0  1  0  0  0  0  0  0
  187.3490  177.6520  136.1290 N   0  0  0  0  0  2  0  0  0  0  0  0
  2 27  1  6  0  0  0
  2 21  1  0  0  0  0
  3 27  2  0  0  0  0
  5 28  1  0  0  0  0
  6 24  1  0  0  0  0
  6 20  1  0  0  0  0
  7  3  2  0  0  0  0
  8  4  1  0  0  0  0
 11 15  1  0  0  0  0
 11 25  1  0  0  0  0
 12 30  1  6  0  0  0
 12 19  1  0  0  0  0
 13 28  1  0  0  0  0
 13  2  1  0  0  0  0
 14 17  1  0  0  0  0
 15 32  1  6  0  0  0
 15 12  1  0  0  0  0
 16 22  2  0  0  0  0
 17  5  1  0  0  0  0
 18  1  1  0  0  0  0
 19 16  1  1  0  0  0
 19  7  1  0  0  0  0
 20  1  1  0  0  0  0
 21  9  2  0  0  0  0
 22 13  2  0  0  0  0
 23 21  1  0  0  0  0
 24 29  1  0  0  0  0
 25  8  1  6  0  0  0
 25 10  1  0  0  0  0
 26  4  1  1  0  0  0
 26 10  1  0  0  0  0
 26 29  1  0  0  0  0
 28 23  2  0  0  0  0
 29 18  1  1  0  0  0
 29 14  1  0  0  0  0
 30 31  1  0  0  0  0
 33 34  1  0  0  0  0
 34 32  1  0  0  0  0
M  END
>  <MODEL>
3

>  <REMARK>
 VINA RESULT:      -6.5      2.780      4.116
  Name = 
  3 active torsions:
  status: ('A' for Active; 'I' for Inactive)
    1  A    between atoms: C_6  and  C_13
    2  A    between atoms: C_17  and  C_33
    3  A    between atoms: N_26  and  C_33
                            x       y       z     vdW  Elec       q    Type
                         _______ _______ _______ _____ _____    ______ ____

>  <TORSDO>
F 3

$$$$
=
 OpenBabel10222418223D

 34 38  0  0  1  0  0  0  0  0999 V2000
  183.3810  178.7910  142.9680 C   0  0  0  0  0  2  0  0  0  0  0  0
  187.8710  176.5710  136.5900 C   0  0  1  0  0  3  0  0  0  0  0  0
  187.0610  174.2700  136.8430 C   0  0  0  0  0  0  0  0  0  0  0  0
  180.8090  177.7030  138.7890 C   0  0  0  0  0  2  0  0  0  0  0  0
  185.2690  179.0230  138.0290 C   0  0  0  0  0  2  0  0  0  0  0  0
  180.9530  179.0030  142.3200 C   0  0  0  0  0  2  0  0  0  0  0  0
  186.0030  173.5700  136.5240 C   0  0  0  0  0  3  0  0  0  0  0  0
  180.7500  176.4910  137.8900 C   0  0  0  0  0  2  0  0  0  0  0  0
  189.7710  177.5150  137.7800 O   0  0  0  0  0  0  0  0  0  0  0  0
  182.3990  176.0250  139.6060 C   0  0  0  0  0  2  0  0  0  0  0  0
  181.8080  174.2380  137.9690 C   0  0  0  0  0  2  0  0  0  0  0  0
  183.4920  173.2460  136.3140 C   0  0  1  0  0  3  0  0  0  0  0  0
  186.4730  177.1520  136.6350 C   0  0  0  0  0  0  0  0  0  0  0  0
  183.3390  179.0960  139.5810 C   0  0  0  0  0  2  0  0  0  0  0  0
  182.0920  173.8630  136.5150 C   0  0  1  0  0  3  0  0  0  0  0  0
  184.5080  175.5490  136.0560 C   0  0  0  0  0  3  0  0  0  0  0  0
  184.4920  178.2420  139.0720 C   0  0  0  0  0  2  0  0  0  0  0  0
  183.3510  177.8500  141.7680 C   0  0  0  0  0  2  0  0  0  0  0  0
  184.6340  174.1940  136.7240 C   0  0  2  0  0  3  0  0  0  0  0  0
  181.9630  179.0620  143.4680 C   0  0  0  0  0  2  0  0  0  0  0  0
  188.5390  177.5260  137.5210 C   0  0  0  0  0  0  0  0  0  0  0  0
  185.4160  176.4510  136.3160 C   0  0  0  0  0  0  0  0  0  0  0  0
  187.6440  178.4720  138.0970 N   0  0  0  0  0  0  0  0  0  0  0  0
  181.5580  179.4170  141.1130 O   0  0  0  0  0  0  0  0  0  0  0  0
  182.0270  175.7260  138.1690 C   0  0  1  0  0  3  0  0  0  0  0  0
  181.6070  177.2640  140.0080 C   0  0  1  0  0  3  0  0  0  0  0  0
  187.9750  175.1600  137.1400 C   0  0  0  0  0  3  0  0  0  0  0  0
  186.4730  178.2530  137.6000 C   0  0  0  0  0  0  0  0  0  0  0  0
  182.4470  178.4110  140.6350 C   0  0  1  0  0  0  0  0  0  0  0  0
  183.6280  171.8330  136.9120 C   0  0  0  0  0  2  0  0  0  0  0  0
  183.8100  170.7540  135.8540 C   0  0  0  0  0  1  0  0  0  0  0  0
  180.9980  172.9600  135.9600 C   0  0  0  0  0  2  0  0  0  0  0  0
  179.7460  171.2080  136.8430 C   0  0  0  0  0  1  0  0  0  0  0  0
  180.0550  172.6160  137.0090 N   0  0  0  0  0  2  0  0  0  0  0  0
  1 20  1  0  0  0  0
  2 13  1  0  0  0  0
  2 27  1  1  0  0  0
  2 21  1  0  0  0  0
  3 27  2  0  0  0  0
  5 17  1  0  0  0  0
  6 20  1  0  0  0  0
  7 19  1  0  0  0  0
  7  3  2  0  0  0  0
  8  4  1  0  0  0  0
 10 26  1  0  0  0  0
 11 25  1  0  0  0  0
 12 15  1  0  0  0  0
 12 19  1  0  0  0  0
 12 30  1  1  0  0  0
 13 28  1  0  0  0  0
 15 32  1  1  0  0  0
 15 11  1  0  0  0  0
 16 22  2  0  0  0  0
 17 14  1  0  0  0  0
 18  1  1  0  0  0  0
 19 16  1  6  0  0  0
 21  9  2  0  0  0  0
 21 23  1  0  0  0  0
 22 13  2  0  0  0  0
 24  6  1  0  0  0  0
 25  8  1  1  0  0  0
 25 10  1  0  0  0  0
 26  4  1  6  0  0  0
 26 29  1  0  0  0  0
 28  5  1  0  0  0  0
 28 23  2  0  0  0  0
 29 14  1  6  0  0  0
 29 24  1  0  0  0  0
 29 18  1  0  0  0  0
 31 30  1  0  0  0  0
 32 34  1  0  0  0  0
 33 34  1  0  0  0  0
M  END
>  <MODEL>
4

>  <REMARK>
 VINA RESULT:      -6.2      3.298      8.075
  Name = 
  3 active torsions:
  status: ('A' for Active; 'I' for Inactive)
    1  A    between atoms: C_6  and  C_13
    2  A    between atoms: C_17  and  C_33
    3  A    between atoms: N_26  and  C_33
                            x       y       z     vdW  Elec       q    Type
                         _______ _______ _______ _____ _____    ______ ____

>  <TORSDO>
F 3

$$$$
=
 OpenBabel10222418223D

 34 38  0  0  1  0  0  0  0  0999 V2000
  181.0420  175.5520  139.8900 C   0  0  0  0  0  2  0  0  0  0  0  0
  187.6180  177.8600  144.0380 C   0  0  1  0  0  3  0  0  0  0  0  0
  189.0210  176.5620  142.5020 C   0  0  0  0  0  0  0  0  0  0  0  0
  184.0330  178.8410  137.5440 C   0  0  0  0  0  2  0  0  0  0  0  0
  184.3770  178.9220  142.2430 C   0  0  0  0  0  2  0  0  0  0  0  0
  180.8380  176.8580  137.7420 C   0  0  0  0  0  2  0  0  0  0  0  0
  189.5470  176.6990  141.3120 C   0  0  0  0  0  3  0  0  0  0  0  0
  185.5010  178.8400  137.1850 C   0  0  0  0  0  2  0  0  0  0  0  0
  186.5140  176.9610  146.0100 O   0  0  0  0  0  0  0  0  0  0  0  0
  185.0660  176.7920  138.4090 C   0  0  0  0  0  2  0  0  0  0  0  0
  187.3320  177.1720  137.4380 C   0  0  0  0  0  2  0  0  0  0  0  0
  189.4470  177.3820  138.8670 C   0  0  1  0  0  3  0  0  0  0  0  0
  186.8900  178.5590  142.9080 C   0  0  0  0  0  0  0  0  0  0  0  0
  182.9670  178.3270  140.2940 C   0  0  0  0  0  2  0  0  0  0  0  0
  188.5930  177.9840  137.7310 C   0  0  1  0  0  3  0  0  0  0  0  0
  188.0840  178.6280  140.5970 C   0  0  0  0  0  3  0  0  0  0  0  0
  184.1470  177.8930  141.1530 C   0  0  0  0  0  2  0  0  0  0  0  0
  182.5040  175.9310  139.6780 C   0  0  0  0  0  2  0  0  0  0  0  0
  188.6940  177.2950  140.2070 C   0  0  2  0  0  3  0  0  0  0  0  0
  180.2520  175.7300  138.5940 C   0  0  0  0  0  2  0  0  0  0  0  0
  186.4370  177.5150  144.8810 C   0  0  0  0  0  0  0  0  0  0  0  0
  187.4180  178.6960  141.7180 C   0  0  0  0  0  0  0  0  0  0  0  0
  185.1940  177.8770  144.2890 N   0  0  0  0  0  0  0  0  0  0  0  0
  181.4130  177.8490  138.5690 O   0  0  0  0  0  0  0  0  0  0  0  0
  186.1350  177.8210  138.1070 C   0  0  1  0  0  3  0  0  0  0  0  0
  183.7340  177.4290  138.0260 C   0  0  1  0  0  3  0  0  0  0  0  0
  188.3400  176.5920  143.6200 C   0  0  0  0  0  3  0  0  0  0  0  0
  185.4540  178.4620  143.1680 C   0  0  0  0  0  0  0  0  0  0  0  0
  182.6380  177.3780  139.1250 C   0  0  1  0  0  0  0  0  0  0  0  0
  190.1470  176.0670  138.4740 C   0  0  0  0  0  2  0  0  0  0  0  0
  191.6560  176.2110  138.3460 C   0  0  0  0  0  1  0  0  0  0  0  0
  189.4150  178.1940  136.4650 C   0  0  0  0  0  2  0  0  0  0  0  0
  189.8110  176.6960  134.7280 C   0  0  0  0  0  1  0  0  0  0  0  0
  188.7860  177.5170  135.3450 N   0  0  0  0  0  2  0  0  0  0  0  0
  2 27  1  6  0  0  0
  2 21  1  0  0  0  0
  3 27  2  0  0  0  0
  5 28  1  0  0  0  0
  6 24  1  0  0  0  0
  6 20  1  0  0  0  0
  7  3  2  0  0  0  0
  8  4  1  0  0  0  0
 11 15  1  0  0  0  0
 11 25  1  0  0  0  0
 12 30  1  6  0  0  0
 12 19  1  0  0  0  0
 13 28  1  0  0  0  0
 13  2  1  0  0  0  0
 14 17  1  0  0  0  0
 15 32  1  6  0  0  0
 15 12  1  0  0  0  0
 16 22  2  0  0  0  0
 17  5  1  0  0  0  0
 18  1  1  0  0  0  0
 19 16  1  1  0  0  0
 19  7  1  0  0  0  0
 20  1  1  0  0  0  0
 21  9  2  0  0  0  0
 22 13  2  0  0  0  0
 23 21  1  0  0  0  0
 24 29  1  0  0  0  0
 25  8  1  6  0  0  0
 25 10  1  0  0  0  0
 26  4  1  1  0  0  0
 26 10  1  0  0  0  0
 26 29  1  0  0  0  0
 28 23  2  0  0  0  0
 29 18  1  1  0  0  0
 29 14  1  0  0  0  0
 31 30  1  0  0  0  0
 33 34  1  0  0  0  0
 34 32  1  0  0  0  0
M  END
>  <MODEL>
5

>  <REMARK>
 VINA RESULT:      -6.0      2.320      3.530
  Name = 
  3 active torsions:
  status: ('A' for Active; 'I' for Inactive)
    1  A    between atoms: C_6  and  C_13
    2  A    between atoms: C_17  and  C_33
    3  A    between atoms: N_26  and  C_33
                            x       y       z     vdW  Elec       q    Type
                         _______ _______ _______ _____ _____    ______ ____

>  <TORSDO>
F 3

$$$$
=
 OpenBabel10222418223D

 34 38  0  0  1  0  0  0  0  0999 V2000
  189.8750  176.0930  143.6890 C   0  0  0  0  0  2  0  0  0  0  0  0
  186.6160  176.9960  136.3170 C   0  0  1  0  0  3  0  0  0  0  0  0
  184.5230  176.0200  137.1420 C   0  0  0  0  0  0  0  0  0  0  0  0
  186.3660  179.6720  143.3000 C   0  0  0  0  0  2  0  0  0  0  0  0
  188.5230  178.6270  139.2430 C   0  0  0  0  0  2  0  0  0  0  0  0
  189.0340  177.8780  145.2600 C   0  0  0  0  0  2  0  0  0  0  0  0
  183.4680  176.4040  137.8140 C   0  0  0  0  0  3  0  0  0  0  0  0
  184.9310  179.6750  142.8280 C   0  0  0  0  0  2  0  0  0  0  0  0
  188.5100  175.7210  135.4800 O   0  0  0  0  0  0  0  0  0  0  0  0
  185.7780  177.4240  142.5180 C   0  0  0  0  0  2  0  0  0  0  0  0
  183.3750  177.8960  142.0440 C   0  0  0  0  0  2  0  0  0  0  0  0
  182.3350  177.6480  139.7170 C   0  0  1  0  0  3  0  0  0  0  0  0
  186.7020  177.9800  137.4660 C   0  0  0  0  0  0  0  0  0  0  0  0
  188.6630  178.5850  141.7160 C   0  0  0  0  0  2  0  0  0  0  0  0
  182.5180  178.5450  140.9590 C   0  0  1  0  0  3  0  0  0  0  0  0
  184.4900  178.5240  138.7240 C   0  0  0  0  0  3  0  0  0  0  0  0
  188.0710  177.8980  140.4930 C   0  0  0  0  0  2  0  0  0  0  0  0
  188.5500  176.4310  143.0120 C   0  0  0  0  0  2  0  0  0  0  0  0
  183.6650  177.2900  139.0300 C   0  0  2  0  0  3  0  0  0  0  0  0
  189.8870  176.6140  145.1250 C   0  0  0  0  0  2  0  0  0  0  0  0
  188.0320  176.5270  136.3200 C   0  0  0  0  0  0  0  0  0  0  0  0
  185.6460  178.3630  138.1360 C   0  0  0  0  0  0  0  0  0  0  0  0
  188.8100  177.0870  137.3740 N   0  0  0  0  0  0  0  0  0  0  0  0
  189.0510  178.6120  144.0550 O   0  0  0  0  0  0  0  0  0  0  0  0
  184.7920  178.4350  141.9720 C   0  0  1  0  0  3  0  0  0  0  0  0
  186.7620  178.2050  143.3830 C   0  0  1  0  0  3  0  0  0  0  0  0
  185.6860  175.8230  136.5730 C   0  0  0  0  0  3  0  0  0  0  0  0
  188.0510  177.9030  138.0260 C   0  0  0  0  0  0  0  0  0  0  0  0
  188.2620  177.9570  143.0650 C   0  0  1  0  0  0  0  0  0  0  0  0
  181.4330  176.4260  139.9750 C   0  0  0  0  0  2  0  0  0  0  0  0
  180.1310  176.4690  139.1880 C   0  0  0  0  0  1  0  0  0  0  0  0
  181.1770  179.0020  141.5210 C   0  0  0  0  0  2  0  0  0  0  0  0
  180.0320  178.6360  143.5150 C   0  0  0  0  0  1  0  0  0  0  0  0
  181.2680  179.1580  142.9620 N   0  0  0  0  0  2  0  0  0  0  0  0
  1 20  1  0  0  0  0
  2 21  1  0  0  0  0
  2 27  1  1  0  0  0
  2 13  1  0  0  0  0
  3  7  2  0  0  0  0
  4 26  1  0  0  0  0
  5 17  1  0  0  0  0
  8  4  1  0  0  0  0
  9 21  2  0  0  0  0
 12 30  1  1  0  0  0
 12 15  1  0  0  0  0
 13 28  1  0  0  0  0
 13 22  2  0  0  0  0
 15 32  1  1  0  0  0
 15 11  1  0  0  0  0
 16 19  1  0  0  0  0
 17 14  1  0  0  0  0
 18 29  1  0  0  0  0
 18  1  1  0  0  0  0
 19  7  1  6  0  0  0
 19 12  1  0  0  0  0
 20  6  1  0  0  0  0
 21 23  1  0  0  0  0
 22 16  2  0  0  0  0
 23 28  2  0  0  0  0
 24  6  1  0  0  0  0
 25 11  1  1  0  0  0
 25 10  1  0  0  0  0
 25  8  1  0  0  0  0
 26 10  1  6  0  0  0
 27  3  2  0  0  0  0
 28  5  1  0  0  0  0
 29 14  1  6  0  0  0
 29 26  1  0  0  0  0
 29 24  1  0  0  0  0
 31 30  1  0  0  0  0
 32 34  1  0  0  0  0
 34 33  1  0  0  0  0
M  END
>  <MODEL>
6

>  <REMARK>
 VINA RESULT:      -5.9      2.300      8.168
  Name = 
  3 active torsions:
  status: ('A' for Active; 'I' for Inactive)
    1  A    between atoms: C_6  and  C_13
    2  A    between atoms: C_17  and  C_33
    3  A    between atoms: N_26  and  C_33
                            x       y       z     vdW  Elec       q    Type
                         _______ _______ _______ _____ _____    ______ ____

>  <TORSDO>
F 3

$$$$
=
 OpenBabel10222418223D

 34 38  0  0  1  0  0  0  0  0999 V2000
  186.2960  174.0750  135.5680 C   0  0  0  0  0  2  0  0  0  0  0  0
  183.5470  178.9930  141.4010 C   0  0  1  0  0  3  0  0  0  0  0  0
  184.9580  177.8200  143.0300 C   0  0  0  0  0  0  0  0  0  0  0  0
  189.6050  177.4420  137.2930 C   0  0  0  0  0  2  0  0  0  0  0  0
  185.0970  178.6790  137.8860 C   0  0  0  0  0  2  0  0  0  0  0  0
  188.6170  174.7510  134.8510 C   0  0  0  0  0  2  0  0  0  0  0  0
  186.2080  177.8240  143.4160 C   0  0  0  0  0  3  0  0  0  0  0  0
  190.1380  177.7660  138.6690 C   0  0  0  0  0  2  0  0  0  0  0  0
  181.3140  178.2940  140.7400 O   0  0  0  0  0  0  0  0  0  0  0  0
  188.4860  176.0110  138.9400 C   0  0  0  0  0  2  0  0  0  0  0  0
  189.7900  176.7740  140.9260 C   0  0  0  0  0  2  0  0  0  0  0  0
  188.7080  177.8800  142.9670 C   0  0  1  0  0  3  0  0  0  0  0  0
  184.6940  179.1870  140.4300 C   0  0  0  0  0  0  0  0  0  0  0  0
  186.6960  177.2900  136.6000 C   0  0  0  0  0  2  0  0  0  0  0  0
  189.8240  177.9470  141.9030 C   0  0  1  0  0  3  0  0  0  0  0  0
  187.1030  179.0580  141.4040 C   0  0  0  0  0  3  0  0  0  0  0  0
  185.9230  177.4070  137.9070 C   0  0  0  0  0  2  0  0  0  0  0  0
  186.7610  174.7860  136.8350 C   0  0  0  0  0  2  0  0  0  0  0  0
  187.2940  177.8940  142.3580 C   0  0  2  0  0  3  0  0  0  0  0  0
  187.4920  173.7280  134.6820 C   0  0  0  0  0  2  0  0  0  0  0  0
  182.5110  178.5340  140.4320 C   0  0  0  0  0  0  0  0  0  0  0  0
  185.9430  179.1910  140.8180 C   0  0  0  0  0  0  0  0  0  0  0  0
  183.0030  178.3940  139.1030 N   0  0  0  0  0  0  0  0  0  0  0  0
  188.0830  176.0220  135.1550 O   0  0  0  0  0  0  0  0  0  0  0  0
  189.1180  177.2000  139.6340 C   0  0  1  0  0  3  0  0  0  0  0  0
  188.8180  176.1500  137.4580 C   0  0  1  0  0  3  0  0  0  0  0  0
  183.7910  177.9130  142.4410 C   0  0  0  0  0  3  0  0  0  0  0  0
  184.2420  178.7570  139.1070 C   0  0  0  0  0  0  0  0  0  0  0  0
  187.6020  176.0480  136.4970 C   0  0  1  0  0  0  0  0  0  0  0  0
  188.9160  176.7570  144.0000 C   0  0  0  0  0  2  0  0  0  0  0  0
  189.1140  177.2800  145.4150 C   0  0  0  0  0  1  0  0  0  0  0  0
  191.1990  178.0840  142.5450 C   0  0  0  0  0  2  0  0  0  0  0  0
  192.8050  177.5030  140.9640 C   0  0  0  0  0  1  0  0  0  0  0  0
  192.0640  177.0030  142.1060 N   0  0  0  0  0  2  0  0  0  0  0  0
  1 18  1  0  0  0  0
  2 27  1  1  0  0  0
  3  7  2  0  0  0  0
  4  8  1  0  0  0  0
  5 17  1  0  0  0  0
  5 28  1  0  0  0  0
  6 24  1  0  0  0  0
 10 25  1  0  0  0  0
 11 15  1  0  0  0  0
 12 30  1  6  0  0  0
 13 22  2  0  0  0  0
 13  2  1  0  0  0  0
 14 17  1  0  0  0  0
 15 32  1  1  0  0  0
 15 12  1  0  0  0  0
 19 16  1  1  0  0  0
 19 12  1  0  0  0  0
 19  7  1  0  0  0  0
 20  6  1  0  0  0  0
 20  1  1  0  0  0  0
 21  9  2  0  0  0  0
 21  2  1  0  0  0  0
 22 16  2  0  0  0  0
 23 28  2  0  0  0  0
 23 21  1  0  0  0  0
 24 29  1  0  0  0  0
 25  8  1  6  0  0  0
 25 11  1  0  0  0  0
 26  4  1  1  0  0  0
 26 10  1  0  0  0  0
 27  3  2  0  0  0  0
 28 13  1  0  0  0  0
 29 14  1  1  0  0  0
 29 18  1  0  0  0  0
 29 26  1  0  0  0  0
 30 31  1  0  0  0  0
 33 34  1  0  0  0  0
 34 32  1  0  0  0  0
M  END
>  <MODEL>
7

>  <REMARK>
 VINA RESULT:      -5.7      1.805      2.421
  Name = 
  3 active torsions:
  status: ('A' for Active; 'I' for Inactive)
    1  A    between atoms: C_6  and  C_13
    2  A    between atoms: C_17  and  C_33
    3  A    between atoms: N_26  and  C_33
                            x       y       z     vdW  Elec       q    Type
                         _______ _______ _______ _____ _____    ______ ____

>  <TORSDO>
F 3

$$$$
=
 OpenBabel10222418223D

 34 38  0  0  1  0  0  0  0  0999 V2000
  186.0360  177.8710  144.4650 C   0  0  0  0  0  2  0  0  0  0  0  0
  188.9410  175.7820  137.1870 C   0  0  1  0  0  3  0  0  0  0  0  0
  187.0100  174.3070  136.8590 C   0  0  0  0  0  0  0  0  0  0  0  0
  183.4960  179.6820  140.5230 C   0  0  0  0  0  2  0  0  0  0  0  0
  187.9970  178.6290  139.6080 C   0  0  0  0  0  2  0  0  0  0  0  0
  184.1390  179.5170  144.2290 C   0  0  0  0  0  2  0  0  0  0  0  0
  185.7580  174.4090  136.4900 C   0  0  0  0  0  3  0  0  0  0  0  0
  182.8390  179.0390  139.3240 C   0  0  0  0  0  2  0  0  0  0  0  0
  190.9880  175.1560  138.3430 O   0  0  0  0  0  0  0  0  0  0  0  0
  183.8910  177.2630  140.5990 C   0  0  0  0  0  2  0  0  0  0  0  0
  182.5140  176.6780  138.6020 C   0  0  0  0  0  2  0  0  0  0  0  0
  183.4810  175.5350  136.5240 C   0  0  1  0  0  3  0  0  0  0  0  0
  188.0740  176.9600  137.5830 C   0  0  0  0  0  0  0  0  0  0  0  0
  186.3350  179.2070  141.3510 C   0  0  0  0  0  2  0  0  0  0  0  0
  182.6240  176.6930  137.0790 C   0  0  1  0  0  3  0  0  0  0  0  0
  185.5870  176.9050  136.8220 C   0  0  0  0  0  3  0  0  0  0  0  0
  186.8720  178.0890  140.4690 C   0  0  0  0  0  2  0  0  0  0  0  0
  185.5650  177.5240  143.0570 C   0  0  0  0  0  2  0  0  0  0  0  0
  184.9310  175.5560  137.0420 C   0  0  2  0  0  3  0  0  0  0  0  0
  184.9630  178.6710  145.2030 C   0  0  0  0  0  2  0  0  0  0  0  0
  189.9700  175.8930  138.2620 C   0  0  0  0  0  0  0  0  0  0  0  0
  186.8240  177.0610  137.2130 C   0  0  0  0  0  0  0  0  0  0  0  0
  189.6960  176.9270  139.2010 N   0  0  0  0  0  0  0  0  0  0  0  0
  184.9310  179.9090  143.1290 O   0  0  0  0  0  0  0  0  0  0  0  0
  183.4880  177.6770  139.1980 C   0  0  1  0  0  3  0  0  0  0  0  0
  183.8700  178.5310  141.4460 C   0  0  1  0  0  3  0  0  0  0  0  0
  188.2420  174.4370  137.2820 C   0  0  0  0  0  3  0  0  0  0  0  0
  188.6180  177.5250  138.8180 C   0  0  0  0  0  0  0  0  0  0  0  0
  185.1620  178.7990  142.2650 C   0  0  1  0  0  0  0  0  0  0  0  0
  182.8060  174.1570  136.6590 C   0  0  0  0  0  2  0  0  0  0  0  0
  182.5290  173.4960  135.3170 C   0  0  0  0  0  1  0  0  0  0  0  0
  181.2460  176.7280  136.4300 C   0  0  0  0  0  2  0  0  0  0  0  0
  181.1530  179.0010  135.9360 C   0  0  0  0  0  1  0  0  0  0  0  0
  180.5680  177.9660  136.7690 N   0  0  0  0  0  2  0  0  0  0  0  0
  1 20  1  0  0  0  0
  2 27  1  1  0  0  0
  2 13  1  0  0  0  0
  2 21  1  0  0  0  0
  3 27  2  0  0  0  0
  5 17  1  0  0  0  0
  6 20  1  0  0  0  0
  7  3  2  0  0  0  0
  8  4  1  0  0  0  0
 10 26  1  0  0  0  0
 12 30  1  1  0  0  0
 12 19  1  0  0  0  0
 12 15  1  0  0  0  0
 13 28  1  0  0  0  0
 15 32  1  6  0  0  0
 15 11  1  0  0  0  0
 16 19  1  0  0  0  0
 16 22  2  0  0  0  0
 17 14  1  0  0  0  0
 18  1  1  0  0  0  0
 19  7  1  6  0  0  0
 21  9  2  0  0  0  0
 21 23  1  0  0  0  0
 22 13  2  0  0  0  0
 24  6  1  0  0  0  0
 25 11  1  1  0  0  0
 25  8  1  0  0  0  0
 25 10  1  0  0  0  0
 26  4  1  6  0  0  0
 26 29  1  0  0  0  0
 28 23  2  0  0  0  0
 28  5  1  0  0  0  0
 29 14  1  6  0  0  0
 29 18  1  0  0  0  0
 29 24  1  0  0  0  0
 31 30  1  0  0  0  0
 32 34  1  0  0  0  0
 33 34  1  0  0  0  0
M  END
>  <MODEL>
8

>  <REMARK>
 VINA RESULT:      -5.5      2.540      7.938
  Name = 
  3 active torsions:
  status: ('A' for Active; 'I' for Inactive)
    1  A    between atoms: C_6  and  C_13
    2  A    between atoms: C_17  and  C_33
    3  A    between atoms: N_26  and  C_33
                            x       y       z     vdW  Elec       q    Type
                         _______ _______ _______ _____ _____    ______ ____

>  <TORSDO>
F 3

$$$$
=
 OpenBabel10222418223D

 34 38  0  0  1  0  0  0  0  0999 V2000
  190.9660  176.2170  143.8500 C   0  0  0  0  0  2  0  0  0  0  0  0
  194.0380  174.4260  136.5620 C   0  0  1  0  0  3  0  0  0  0  0  0
  191.9250  173.3390  135.9580 C   0  0  0  0  0  0  0  0  0  0  0  0
  189.0560  178.8230  140.0000 C   0  0  0  0  0  2  0  0  0  0  0  0
  193.3850  177.1280  139.2320 C   0  0  0  0  0  2  0  0  0  0  0  0
  189.3820  178.1730  143.6940 C   0  0  0  0  0  2  0  0  0  0  0  0
  190.7380  173.6870  135.5310 C   0  0  0  0  0  3  0  0  0  0  0  0
  188.3960  178.4260  138.7000 C   0  0  0  0  0  2  0  0  0  0  0  0
  195.8640  173.3500  137.7540 O   0  0  0  0  0  0  0  0  0  0  0  0
  189.0490  176.3780  139.8230 C   0  0  0  0  0  2  0  0  0  0  0  0
  187.7510  176.2400  137.6970 C   0  0  0  0  0  2  0  0  0  0  0  0
  188.6750  175.1690  135.5620 C   0  0  1  0  0  3  0  0  0  0  0  0
  193.3450  175.6860  137.0380 C   0  0  0  0  0  0  0  0  0  0  0  0
  191.7100  177.7950  140.9310 C   0  0  0  0  0  2  0  0  0  0  0  0
  187.9770  176.3920  136.1940 C   0  0  1  0  0  3  0  0  0  0  0  0
  190.9460  176.1290  136.1340 C   0  0  0  0  0  3  0  0  0  0  0  0
  192.1250  176.6990  139.9590 C   0  0  0  0  0  2  0  0  0  0  0  0
  190.5530  176.1000  142.3870 C   0  0  0  0  0  2  0  0  0  0  0  0
  190.0660  174.8940  136.1610 C   0  0  2  0  0  3  0  0  0  0  0  0
  189.9830  177.1050  144.6110 C   0  0  0  0  0  2  0  0  0  0  0  0
  194.9870  174.2510  137.6990 C   0  0  0  0  0  0  0  0  0  0  0  0
  192.1580  176.0330  136.6100 C   0  0  0  0  0  0  0  0  0  0  0  0
  194.8130  175.2150  138.7330 N   0  0  0  0  0  0  0  0  0  0  0  0
  190.3080  178.5370  142.6930 O   0  0  0  0  0  0  0  0  0  0  0  0
  188.8250  176.9950  138.4580 C   0  0  1  0  0  3  0  0  0  0  0  0
  189.1690  177.5370  140.8060 C   0  0  1  0  0  3  0  0  0  0  0  0
  193.1270  173.2150  136.4630 C   0  0  0  0  0  3  0  0  0  0  0  0
  193.8770  176.0220  138.3590 C   0  0  0  0  0  0  0  0  0  0  0  0
  190.4210  177.4990  141.7230 C   0  0  1  0  0  0  0  0  0  0  0  0
  187.7790  173.9190  135.5010 C   0  0  0  0  0  2  0  0  0  0  0  0
  187.7380  173.1500  136.8140 C   0  0  0  0  0  1  0  0  0  0  0  0
  186.6750  176.7250  135.4760 C   0  0  0  0  0  2  0  0  0  0  0  0
  184.3910  176.7390  135.9260 C   0  0  0  0  0  1  0  0  0  0  0  0
  185.6790  177.1750  136.4320 N   0  0  0  0  0  2  0  0  0  0  0  0
  1 20  1  0  0  0  0
  2 27  1  1  0  0  0
  2 13  1  0  0  0  0
  2 21  1  0  0  0  0
  3 27  2  0  0  0  0
  4 26  1  0  0  0  0
  5 17  1  0  0  0  0
  6 20  1  0  0  0  0
  7  3  2  0  0  0  0
  8  4  1  0  0  0  0
 12 30  1  1  0  0  0
 12 19  1  0  0  0  0
 12 15  1  0  0  0  0
 13 28  1  0  0  0  0
 15 32  1  6  0  0  0
 15 11  1  0  0  0  0
 16 19  1  0  0  0  0
 16 22  2  0  0  0  0
 17 14  1  0  0  0  0
 18  1  1  0  0  0  0
 19  7  1  6  0  0  0
 21  9  2  0  0  0  0
 21 23  1  0  0  0  0
 22 13  2  0  0  0  0
 24  6  1  0  0  0  0
 25 11  1  1  0  0  0
 25  8  1  0  0  0  0
 25 10  1  0  0  0  0
 26 10  1  6  0  0  0
 26 29  1  0  0  0  0
 28 23  2  0  0  0  0
 28  5  1  0  0  0  0
 29 14  1  6  0  0  0
 29 18  1  0  0  0  0
 29 24  1  0  0  0  0
 30 31  1  0  0  0  0
 32 34  1  0  0  0  0
 33 34  1  0  0  0  0
M  END
>  <MODEL>
9

>  <REMARK>
 VINA RESULT:      -5.4      3.473      8.738
  Name = 
  3 active torsions:
  status: ('A' for Active; 'I' for Inactive)
    1  A    between atoms: C_6  and  C_13
    2  A    between atoms: C_17  and  C_33
    3  A    between atoms: N_26  and  C_33
                            x       y       z     vdW  Elec       q    Type
                         _______ _______ _______ _____ _____    ______ ____

>  <TORSDO>
F 3

$$$$
