=
 OpenBabel10222417573D

 33 34  0  0  1  0  0  0  0  0999 V2000
  189.4980  177.4290  145.4120 C   0  0  0  0  0  0  0  0  0  0  0  0
  188.3280  177.6390  148.6920 N   0  0  0  0  0  2  0  0  0  0  0  0
  190.3430  176.9770  147.6000 N   0  0  0  0  0  2  0  0  0  0  0  0
  191.7870  176.7390  145.7450 O   0  0  0  0  0  0  0  0  0  0  0  0
  188.4990  177.6530  146.2530 C   0  0  0  0  0  0  0  0  0  0  0  0
  188.9710  177.3590  147.6070 C   0  0  0  0  0  0  0  0  0  0  0  0
  190.6500  177.0170  146.2100 C   0  0  0  0  0  0  0  0  0  0  0  0
  189.4800  177.6640  143.9390 C   0  0  0  0  0  2  0  0  0  0  0  0
  189.3470  176.3400  143.2050 C   0  0  0  0  0  2  0  0  0  0  0  0
  189.9460  177.0630  140.8480 C   0  0  0  0  0  0  0  0  0  0  0  0
  188.8430  177.7260  140.7210 N   0  0  0  0  0  2  0  0  0  0  0  0
  190.2210  176.3240  142.0410 N   0  0  0  0  0  2  0  0  0  0  0  0
  190.8660  176.9430  139.6850 C   0  0  0  0  0  2  0  0  0  0  0  0
  190.3100  176.0130  138.7180 N   0  0  0  0  0  2  0  0  0  0  0  0
  190.1070  176.7510  137.4800 C   0  0  0  0  0  2  0  0  0  0  0  0
  188.6500  176.6880  137.0270 C   0  0  1  0  0  3  0  0  0  0  0  0
  187.9260  175.7850  137.8080 O   0  0  0  0  0  1  0  0  0  0  0  0
  187.8570  178.3280  137.0660 P   0  0  0  0  0  0  0  0  0  0  0  0
  186.6830  178.3600  138.2820 O   0  0  0  0  0  1  0  0  0  0  0  0
  189.0280  179.5050  137.3890 O   0  0  0  0  0  1  0  0  0  0  0  0
  187.2090  178.6220  135.7330 O   0  0  0  0  0  0  0  0  0  0  0  0
  187.2080  178.1340  145.8740 N   0  0  0  0  0  2  0  0  0  0  0  0
  186.4380  177.4800  144.9040 N   0  0  0  0  0  2  0  0  0  0  0  0
  184.3420  178.6730  141.9970 C   0  0  0  0  0  2  0  0  0  0  0  0
  185.4630  178.1830  144.1370 C   0  0  0  0  0  0  0  0  0  0  0  0
  181.9550  178.9710  142.1030 N   0  0  0  0  0  0  0  0  0  0  0  0
  185.3400  177.9240  142.8340 C   0  0  0  0  0  3  0  0  0  0  0  0
  184.5850  179.2250  144.7750 C   0  0  0  0  0  2  0  0  0  0  0  0
  183.1420  179.1220  144.2640 C   0  0  0  0  0  2  0  0  0  0  0  0
  183.0730  178.9150  142.7660 C   0  0  0  0  0  0  0  0  0  0  0  0
  179.9300  178.2120  142.9550 O   0  0  0  0  0  1  0  0  0  0  0  0
  180.1280  180.4820  142.7890 O   0  0  0  0  0  0  0  0  0  0  0  0
  180.6390  179.1980  142.6290 C   0  0  0  0  0  0  0  0  0  0  0  0
  1  7  1  0  0  0  0
  1  5  2  0  0  0  0
  3  6  1  0  0  0  0
  4  7  2  0  0  0  0
  5  6  1  0  0  0  0
  6  2  2  0  0  0  0
  7  3  1  0  0  0  0
  8  1  1  0  0  0  0
  9  8  1  0  0  0  0
 10 12  1  0  0  0  0
 11 10  2  0  0  0  0
 12  9  1  0  0  0  0
 13 10  1  0  0  0  0
 14 13  1  0  0  0  0
 15 14  1  0  0  0  0
 16 18  1  0  0  0  0
 16 15  1  0  0  0  0
 16 17  1  1  0  0  0
 18 20  1  0  0  0  0
 18 19  1  0  0  0  0
 21 18  2  0  0  0  0
 22  5  1  0  0  0  0
 23 22  1  0  0  0  0
 24 30  1  0  0  0  0
 24 27  1  0  0  0  0
 25 28  1  0  0  0  0
 25 23  1  0  0  0  0
 26 33  1  0  0  0  0
 26 30  2  0  0  0  0
 27 25  2  0  0  0  0
 29 28  1  0  0  0  0
 30 29  1  0  0  0  0
 33 32  2  0  0  0  0
 33 31  1  0  0  0  0
M  END
>  <MODEL>
1

>  <REMARK>
 VINA RESULT:      -8.2      0.000      0.000
  Name = 
  12 active torsions:
  status: ('A' for Active; 'I' for Inactive)
    1  A    between atoms: C_2  and  N_3
    2  A    between atoms: C_2  and  C_12
    3  A    between atoms: N_3  and  C_18
    4  A    between atoms: C_5  and  N_25
    5  A    between atoms: C_6  and  C_8
    6  A    between atoms: C_7  and  P_9
    7  A    between atoms: C_7  and  C_18
    8  A    between atoms: C_8  and  C_17
    9  A    between atoms: N_11  and  C_31
   10  A    between atoms: C_17  and  N_28
   11  A    between atoms: C_24  and  N_26
   12  A    between atoms: N_25  and  N_26
                            x       y       z     vdW  Elec       q    Type
                         _______ _______ _______ _____ _____    ______ ____

>  <TORSDO>
F 12

$$$$
=
 OpenBabel10222417573D

 33 34  0  0  1  0  0  0  0  0999 V2000
  189.0350  177.0400  145.7560 C   0  0  0  0  0  0  0  0  0  0  0  0
  188.2790  178.2230  148.9500 N   0  0  0  0  0  2  0  0  0  0  0  0
  190.2240  177.4950  147.7780 N   0  0  0  0  0  2  0  0  0  0  0  0
  191.4370  176.8180  145.8660 O   0  0  0  0  0  0  0  0  0  0  0  0
  188.1290  177.4090  146.6490 C   0  0  0  0  0  0  0  0  0  0  0  0
  188.8170  177.6700  147.9140 C   0  0  0  0  0  0  0  0  0  0  0  0
  190.3370  177.0870  146.4180 C   0  0  0  0  0  0  0  0  0  0  0  0
  188.7850  176.7420  144.3160 C   0  0  0  0  0  2  0  0  0  0  0  0
  189.3730  177.8440  143.4500 C   0  0  0  0  0  2  0  0  0  0  0  0
  190.7960  177.1600  141.4640 C   0  0  0  0  0  0  0  0  0  0  0  0
  191.8890  177.4550  142.0870 N   0  0  0  0  0  2  0  0  0  0  0  0
  189.5230  177.3760  142.0800 N   0  0  0  0  0  2  0  0  0  0  0  0
  190.8560  176.7350  140.0400 C   0  0  0  0  0  2  0  0  0  0  0  0
  190.0890  177.6590  139.2230 N   0  0  0  0  0  2  0  0  0  0  0  0
  189.1880  176.8620  138.4030 C   0  0  0  0  0  2  0  0  0  0  0  0
  187.8030  177.4980  138.3180 C   0  0  1  0  0  3  0  0  0  0  0  0
  187.6660  178.5180  139.2620 O   0  0  0  0  0  1  0  0  0  0  0  0
  187.4520  178.1360  136.6490 P   0  0  0  0  0  0  0  0  0  0  0  0
  185.9920  177.4890  136.0910 O   0  0  0  0  0  1  0  0  0  0  0  0
  187.3280  179.8210  136.7100 O   0  0  0  0  0  1  0  0  0  0  0  0
  188.5650  177.7520  135.7030 O   0  0  0  0  0  0  0  0  0  0  0  0
  186.7330  177.5530  146.3790 N   0  0  0  0  0  2  0  0  0  0  0  0
  186.2360  178.6440  145.6540 N   0  0  0  0  0  2  0  0  0  0  0  0
  183.2710  178.8480  143.3220 C   0  0  0  0  0  2  0  0  0  0  0  0
  185.3880  178.4540  144.5240 C   0  0  0  0  0  0  0  0  0  0  0  0
  183.4610  179.2030  140.9480 N   0  0  0  0  0  0  0  0  0  0  0  0
  184.1980  179.0560  144.4860 C   0  0  0  0  0  3  0  0  0  0  0  0
  185.8090  177.5690  143.3830 C   0  0  0  0  0  2  0  0  0  0  0  0
  185.4360  178.1910  142.0320 C   0  0  0  0  0  2  0  0  0  0  0  0
  184.0410  178.7800  142.0330 C   0  0  0  0  0  0  0  0  0  0  0  0
  184.1000  178.1430  138.9800 O   0  0  0  0  0  0  0  0  0  0  0  0
  184.4170  180.4050  139.0160 O   0  0  0  0  0  1  0  0  0  0  0  0
  184.0010  179.2230  139.6180 C   0  0  0  0  0  0  0  0  0  0  0  0
  1  7  1  0  0  0  0
  1  5  2  0  0  0  0
  3  6  1  0  0  0  0
  4  7  2  0  0  0  0
  5  6  1  0  0  0  0
  6  2  2  0  0  0  0
  7  3  1  0  0  0  0
  8  1  1  0  0  0  0
  9  8  1  0  0  0  0
 10 12  1  0  0  0  0
 10 11  2  0  0  0  0
 12  9  1  0  0  0  0
 13 10  1  0  0  0  0
 14 13  1  0  0  0  0
 15 14  1  0  0  0  0
 16 15  1  0  0  0  0
 16 17  1  1  0  0  0
 18 20  1  0  0  0  0
 18 16  1  0  0  0  0
 19 18  1  0  0  0  0
 21 18  2  0  0  0  0
 22  5  1  0  0  0  0
 23 22  1  0  0  0  0
 24 27  1  0  0  0  0
 25 23  1  0  0  0  0
 26 30  2  0  0  0  0
 27 25  2  0  0  0  0
 28 25  1  0  0  0  0
 29 30  1  0  0  0  0
 29 28  1  0  0  0  0
 30 24  1  0  0  0  0
 31 33  2  0  0  0  0
 32 33  1  0  0  0  0
 33 26  1  0  0  0  0
M  END
>  <MODEL>
2

>  <REMARK>
 VINA RESULT:      -8.0      1.871      2.268
  Name = 
  12 active torsions:
  status: ('A' for Active; 'I' for Inactive)
    1  A    between atoms: C_2  and  N_3
    2  A    between atoms: C_2  and  C_12
    3  A    between atoms: N_3  and  C_18
    4  A    between atoms: C_5  and  N_25
    5  A    between atoms: C_6  and  C_8
    6  A    between atoms: C_7  and  P_9
    7  A    between atoms: C_7  and  C_18
    8  A    between atoms: C_8  and  C_17
    9  A    between atoms: N_11  and  C_31
   10  A    between atoms: C_17  and  N_28
   11  A    between atoms: C_24  and  N_26
   12  A    between atoms: N_25  and  N_26
                            x       y       z     vdW  Elec       q    Type
                         _______ _______ _______ _____ _____    ______ ____

>  <TORSDO>
F 12

$$$$
=
 OpenBabel10222417573D

 33 34  0  0  1  0  0  0  0  0999 V2000
  188.3540  177.4680  146.2440 C   0  0  0  0  0  0  0  0  0  0  0  0
  185.1640  178.6210  147.0580 N   0  0  0  0  0  2  0  0  0  0  0  0
  187.2940  178.4930  148.1230 N   0  0  0  0  0  2  0  0  0  0  0  0
  189.6220  178.0920  148.2010 O   0  0  0  0  0  0  0  0  0  0  0  0
  187.0730  177.5890  145.9310 C   0  0  0  0  0  0  0  0  0  0  0  0
  186.3810  178.1890  147.0730 C   0  0  0  0  0  0  0  0  0  0  0  0
  188.5260  178.0210  147.5850 C   0  0  0  0  0  0  0  0  0  0  0  0
  189.4370  176.9670  145.3480 C   0  0  0  0  0  2  0  0  0  0  0  0
  190.0320  178.1210  144.5600 C   0  0  0  0  0  2  0  0  0  0  0  0
  190.6360  177.4350  142.1920 C   0  0  0  0  0  0  0  0  0  0  0  0
  191.8410  177.1210  142.5410 N   0  0  0  0  0  2  0  0  0  0  0  0
  189.7170  177.9750  143.1460 N   0  0  0  0  0  2  0  0  0  0  0  0
  190.2500  177.3750  140.7570 C   0  0  0  0  0  2  0  0  0  0  0  0
  188.9850  178.0620  140.5640 N   0  0  0  0  0  2  0  0  0  0  0  0
  188.8880  178.3930  139.1500 C   0  0  0  0  0  2  0  0  0  0  0  0
  187.6550  177.7560  138.5130 C   0  0  1  0  0  3  0  0  0  0  0  0
  186.5620  178.6240  138.5700 O   0  0  0  0  0  1  0  0  0  0  0  0
  187.9670  177.2520  136.7910 P   0  0  0  0  0  0  0  0  0  0  0  0
  186.9300  178.0980  135.7570 O   0  0  0  0  0  0  0  0  0  0  0  0
  189.5700  177.6080  136.3870 O   0  0  0  0  0  1  0  0  0  0  0  0
  187.7320  175.7680  136.6350 O   0  0  0  0  0  1  0  0  0  0  0  0
  186.5040  177.2210  144.6730 N   0  0  0  0  0  2  0  0  0  0  0  0
  186.3880  178.1410  143.6240 N   0  0  0  0  0  2  0  0  0  0  0  0
  183.2800  178.6090  141.5290 C   0  0  0  0  0  2  0  0  0  0  0  0
  185.1130  178.5970  143.1780 C   0  0  0  0  0  0  0  0  0  0  0  0
  181.0500  178.6450  142.4370 N   0  0  0  0  0  0  0  0  0  0  0  0
  184.6070  178.1220  142.0390 C   0  0  0  0  0  3  0  0  0  0  0  0
  184.3400  179.6200  143.9650 C   0  0  0  0  0  2  0  0  0  0  0  0
  182.8470  179.2730  144.0100 C   0  0  0  0  0  2  0  0  0  0  0  0
  182.3180  178.8240  142.6650 C   0  0  0  0  0  0  0  0  0  0  0  0
  179.3140  179.8770  143.3710 O   0  0  0  0  0  0  0  0  0  0  0  0
  179.6140  177.7920  144.2540 O   0  0  0  0  0  1  0  0  0  0  0  0
  179.9650  178.8010  143.3640 C   0  0  0  0  0  0  0  0  0  0  0  0
  1  7  1  0  0  0  0
  2  6  2  0  0  0  0
  5  1  2  0  0  0  0
  5  6  1  0  0  0  0
  6  3  1  0  0  0  0
  7  3  1  0  0  0  0
  7  4  2  0  0  0  0
  8  1  1  0  0  0  0
  9  8  1  0  0  0  0
 10 11  2  0  0  0  0
 10 12  1  0  0  0  0
 12  9  1  0  0  0  0
 13 10  1  0  0  0  0
 14 13  1  0  0  0  0
 15 14  1  0  0  0  0
 16 17  1  6  0  0  0
 16 15  1  0  0  0  0
 18 16  1  0  0  0  0
 19 18  2  0  0  0  0
 20 18  1  0  0  0  0
 21 18  1  0  0  0  0
 22  5  1  0  0  0  0
 23 22  1  0  0  0  0
 24 27  1  0  0  0  0
 24 30  1  0  0  0  0
 25 23  1  0  0  0  0
 25 28  1  0  0  0  0
 26 30  2  0  0  0  0
 26 33  1  0  0  0  0
 27 25  2  0  0  0  0
 28 29  1  0  0  0  0
 30 29  1  0  0  0  0
 33 31  2  0  0  0  0
 33 32  1  0  0  0  0
M  END
>  <MODEL>
3

>  <REMARK>
 VINA RESULT:      -7.9      1.567      2.234
  Name = 
  12 active torsions:
  status: ('A' for Active; 'I' for Inactive)
    1  A    between atoms: C_2  and  N_3
    2  A    between atoms: C_2  and  C_12
    3  A    between atoms: N_3  and  C_18
    4  A    between atoms: C_5  and  N_25
    5  A    between atoms: C_6  and  C_8
    6  A    between atoms: C_7  and  P_9
    7  A    between atoms: C_7  and  C_18
    8  A    between atoms: C_8  and  C_17
    9  A    between atoms: N_11  and  C_31
   10  A    between atoms: C_17  and  N_28
   11  A    between atoms: C_24  and  N_26
   12  A    between atoms: N_25  and  N_26
                            x       y       z     vdW  Elec       q    Type
                         _______ _______ _______ _____ _____    ______ ____

>  <TORSDO>
F 12

$$$$
=
 OpenBabel10222417573D

 33 34  0  0  1  0  0  0  0  0999 V2000
  184.2540  178.5470  143.3310 C   0  0  0  0  0  0  0  0  0  0  0  0
  184.7370  178.3840  146.7820 N   0  0  0  0  0  2  0  0  0  0  0  0
  183.1630  179.3740  145.2890 N   0  0  0  0  0  2  0  0  0  0  0  0
  182.1700  179.7560  143.1790 O   0  0  0  0  0  0  0  0  0  0  0  0
  185.0050  178.1840  144.3600 C   0  0  0  0  0  0  0  0  0  0  0  0
  184.3830  178.6990  145.5810 C   0  0  0  0  0  0  0  0  0  0  0  0
  183.1090  179.2760  143.8690 C   0  0  0  0  0  0  0  0  0  0  0  0
  184.4780  178.1800  141.9030 C   0  0  0  0  0  2  0  0  0  0  0  0
  185.3860  179.2040  141.2410 C   0  0  0  0  0  2  0  0  0  0  0  0
  187.3550  178.2530  139.9540 C   0  0  0  0  0  0  0  0  0  0  0  0
  188.1620  178.4660  140.9410 N   0  0  0  0  0  2  0  0  0  0  0  0
  185.9800  178.6410  140.0370 N   0  0  0  0  0  2  0  0  0  0  0  0
  187.8920  177.7380  138.6660 C   0  0  0  0  0  2  0  0  0  0  0  0
  188.6600  178.7800  138.0080 N   0  0  0  0  0  2  0  0  0  0  0  0
  189.5540  178.1240  137.0640 C   0  0  0  0  0  2  0  0  0  0  0  0
  189.3910  176.6070  137.1060 C   0  0  1  0  0  3  0  0  0  0  0  0
  189.2210  176.0900  135.8200 O   0  0  0  0  0  1  0  0  0  0  0  0
  190.8010  175.7970  137.9260 P   0  0  0  0  0  0  0  0  0  0  0  0
  190.6900  176.0260  139.5980 O   0  0  0  0  0  1  0  0  0  0  0  0
  190.7680  174.1400  137.5870 O   0  0  0  0  0  1  0  0  0  0  0  0
  192.1000  176.3830  137.4230 O   0  0  0  0  0  0  0  0  0  0  0  0
  186.1930  177.3960  144.2620 N   0  0  0  0  0  2  0  0  0  0  0  0
  187.4500  177.9840  144.0770 N   0  0  0  0  0  2  0  0  0  0  0  0
  189.1590  177.5240  147.4140 C   0  0  0  0  0  2  0  0  0  0  0  0
  188.4600  177.9000  145.0800 C   0  0  0  0  0  0  0  0  0  0  0  0
  191.1870  176.2620  147.7150 N   0  0  0  0  0  0  0  0  0  0  0  0
  188.1190  177.5880  146.3310 C   0  0  0  0  0  3  0  0  0  0  0  0
  189.9010  178.1770  144.7490 C   0  0  0  0  0  2  0  0  0  0  0  0
  190.8330  177.1790  145.4490 C   0  0  0  0  0  2  0  0  0  0  0  0
  190.4400  176.9370  146.8910 C   0  0  0  0  0  0  0  0  0  0  0  0
  193.4180  175.8300  148.2040 O   0  0  0  0  0  1  0  0  0  0  0  0
  192.6120  174.7930  146.3350 O   0  0  0  0  0  0  0  0  0  0  0  0
  192.4440  175.6270  147.4350 C   0  0  0  0  0  0  0  0  0  0  0  0
  1  7  1  0  0  0  0
  1  5  2  0  0  0  0
  3  6  1  0  0  0  0
  4  7  2  0  0  0  0
  5  6  1  0  0  0  0
  6  2  2  0  0  0  0
  7  3  1  0  0  0  0
  8  1  1  0  0  0  0
  9  8  1  0  0  0  0
 10 12  1  0  0  0  0
 10 11  2  0  0  0  0
 12  9  1  0  0  0  0
 13 10  1  0  0  0  0
 14 13  1  0  0  0  0
 15 16  1  0  0  0  0
 15 14  1  0  0  0  0
 16 17  1  6  0  0  0
 16 18  1  0  0  0  0
 18 19  1  0  0  0  0
 20 18  1  0  0  0  0
 21 18  2  0  0  0  0
 22  5  1  0  0  0  0
 23 22  1  0  0  0  0
 23 25  1  0  0  0  0
 25 27  2  0  0  0  0
 27 24  1  0  0  0  0
 28 25  1  0  0  0  0
 28 29  1  0  0  0  0
 29 30  1  0  0  0  0
 30 24  1  0  0  0  0
 30 26  2  0  0  0  0
 32 33  2  0  0  0  0
 33 26  1  0  0  0  0
 33 31  1  0  0  0  0
M  END
>  <MODEL>
4

>  <REMARK>
 VINA RESULT:      -7.9      2.278      6.815
  Name = 
  12 active torsions:
  status: ('A' for Active; 'I' for Inactive)
    1  A    between atoms: C_2  and  N_3
    2  A    between atoms: C_2  and  C_12
    3  A    between atoms: N_3  and  C_18
    4  A    between atoms: C_5  and  N_25
    5  A    between atoms: C_6  and  C_8
    6  A    between atoms: C_7  and  P_9
    7  A    between atoms: C_7  and  C_18
    8  A    between atoms: C_8  and  C_17
    9  A    between atoms: N_11  and  C_31
   10  A    between atoms: C_17  and  N_28
   11  A    between atoms: C_24  and  N_26
   12  A    between atoms: N_25  and  N_26
                            x       y       z     vdW  Elec       q    Type
                         _______ _______ _______ _____ _____    ______ ____

>  <TORSDO>
F 12

$$$$
=
 OpenBabel10222417573D

 33 34  0  0  1  0  0  0  0  0999 V2000
  189.0620  177.1270  145.7120 C   0  0  0  0  0  0  0  0  0  0  0  0
  188.1290  178.1400  148.9180 N   0  0  0  0  0  2  0  0  0  0  0  0
  190.1460  177.5240  147.8040 N   0  0  0  0  0  2  0  0  0  0  0  0
  191.4620  176.9720  145.9210 O   0  0  0  0  0  0  0  0  0  0  0  0
  188.1060  177.4290  146.5790 C   0  0  0  0  0  0  0  0  0  0  0  0
  188.7300  177.6510  147.8840 C   0  0  0  0  0  0  0  0  0  0  0  0
  190.3310  177.1830  146.4340 C   0  0  0  0  0  0  0  0  0  0  0  0
  188.8850  176.8900  144.2510 C   0  0  0  0  0  2  0  0  0  0  0  0
  189.5360  178.0130  143.4610 C   0  0  0  0  0  2  0  0  0  0  0  0
  189.1050  177.6640  140.9850 C   0  0  0  0  0  0  0  0  0  0  0  0
  190.1500  176.9140  140.8610 N   0  0  0  0  0  2  0  0  0  0  0  0
  188.7820  178.2680  142.2410 N   0  0  0  0  0  2  0  0  0  0  0  0
  188.3150  178.0250  139.7770 C   0  0  0  0  0  2  0  0  0  0  0  0
  189.1230  178.8500  138.8960 N   0  0  0  0  0  2  0  0  0  0  0  0
  188.9550  178.3310  137.5460 C   0  0  0  0  0  2  0  0  0  0  0  0
  188.7830  176.8130  137.5510 C   0  0  1  0  0  3  0  0  0  0  0  0
  187.7570  176.4270  136.6860 O   0  0  0  0  0  1  0  0  0  0  0  0
  190.3300  175.9560  137.1140 P   0  0  0  0  0  0  0  0  0  0  0  0
  191.6460  176.8060  137.7500 O   0  0  0  0  0  1  0  0  0  0  0  0
  190.3050  174.3960  137.7650 O   0  0  0  0  0  1  0  0  0  0  0  0
  190.4660  175.8670  135.6120 O   0  0  0  0  0  0  0  0  0  0  0  0
  186.7200  177.5440  146.2530 N   0  0  0  0  0  2  0  0  0  0  0  0
  186.2250  178.6370  145.5290 N   0  0  0  0  0  2  0  0  0  0  0  0
  183.1350  178.8690  143.3690 C   0  0  0  0  0  2  0  0  0  0  0  0
  185.3130  178.4550  144.4490 C   0  0  0  0  0  0  0  0  0  0  0  0
  183.1920  179.2240  140.9890 N   0  0  0  0  0  0  0  0  0  0  0  0
  184.1280  179.0680  144.4790 C   0  0  0  0  0  3  0  0  0  0  0  0
  185.6610  177.5670  143.2860 C   0  0  0  0  0  2  0  0  0  0  0  0
  185.2170  178.1930  141.9580 C   0  0  0  0  0  2  0  0  0  0  0  0
  183.8300  178.7940  142.0380 C   0  0  0  0  0  0  0  0  0  0  0  0
  184.3380  180.2160  139.2260 O   0  0  0  0  0  1  0  0  0  0  0  0
  183.3740  178.2000  138.7500 O   0  0  0  0  0  0  0  0  0  0  0  0
  183.6570  179.2390  139.6300 C   0  0  0  0  0  0  0  0  0  0  0  0
  1  7  1  0  0  0  0
  1  5  2  0  0  0  0
  3  6  1  0  0  0  0
  4  7  2  0  0  0  0
  5  6  1  0  0  0  0
  6  2  2  0  0  0  0
  7  3  1  0  0  0  0
  8  1  1  0  0  0  0
  9  8  1  0  0  0  0
 10 12  1  0  0  0  0
 11 10  2  0  0  0  0
 12  9  1  0  0  0  0
 13 10  1  0  0  0  0
 14 13  1  0  0  0  0
 15 16  1  0  0  0  0
 15 14  1  0  0  0  0
 16 17  1  6  0  0  0
 18 16  1  0  0  0  0
 18 19  1  0  0  0  0
 18 20  1  0  0  0  0
 21 18  2  0  0  0  0
 22  5  1  0  0  0  0
 23 22  1  0  0  0  0
 24 27  1  0  0  0  0
 25 27  2  0  0  0  0
 25 23  1  0  0  0  0
 26 30  2  0  0  0  0
 28 25  1  0  0  0  0
 29 30  1  0  0  0  0
 29 28  1  0  0  0  0
 30 24  1  0  0  0  0
 31 33  1  0  0  0  0
 32 33  2  0  0  0  0
 33 26  1  0  0  0  0
M  END
>  <MODEL>
5

>  <REMARK>
 VINA RESULT:      -7.9      2.024      2.714
  Name = 
  12 active torsions:
  status: ('A' for Active; 'I' for Inactive)
    1  A    between atoms: C_2  and  N_3
    2  A    between atoms: C_2  and  C_12
    3  A    between atoms: N_3  and  C_18
    4  A    between atoms: C_5  and  N_25
    5  A    between atoms: C_6  and  C_8
    6  A    between atoms: C_7  and  P_9
    7  A    between atoms: C_7  and  C_18
    8  A    between atoms: C_8  and  C_17
    9  A    between atoms: N_11  and  C_31
   10  A    between atoms: C_17  and  N_28
   11  A    between atoms: C_24  and  N_26
   12  A    between atoms: N_25  and  N_26
                            x       y       z     vdW  Elec       q    Type
                         _______ _______ _______ _____ _____    ______ ____

>  <TORSDO>
F 12

$$$$
=
 OpenBabel10222417573D

 33 34  0  0  1  0  0  0  0  0999 V2000
  189.4890  177.4880  145.2350 C   0  0  0  0  0  0  0  0  0  0  0  0
  188.2980  177.3260  148.5100 N   0  0  0  0  0  2  0  0  0  0  0  0
  190.2790  176.6890  147.3430 N   0  0  0  0  0  2  0  0  0  0  0  0
  191.7250  176.6120  145.4760 O   0  0  0  0  0  0  0  0  0  0  0  0
  188.4980  177.6610  146.0960 C   0  0  0  0  0  0  0  0  0  0  0  0
  188.9340  177.1550  147.3990 C   0  0  0  0  0  0  0  0  0  0  0  0
  190.6030  176.8970  145.9720 C   0  0  0  0  0  0  0  0  0  0  0  0
  189.5030  177.9220  143.8080 C   0  0  0  0  0  2  0  0  0  0  0  0
  188.9490  176.8170  142.9250 C   0  0  0  0  0  2  0  0  0  0  0  0
  189.1800  177.6240  140.5300 C   0  0  0  0  0  0  0  0  0  0  0  0
  188.0970  178.3250  140.6130 N   0  0  0  0  0  2  0  0  0  0  0  0
  189.6200  176.8260  141.6330 N   0  0  0  0  0  2  0  0  0  0  0  0
  189.8930  177.5280  139.2280 C   0  0  0  0  0  2  0  0  0  0  0  0
  191.0380  176.6450  139.3640 N   0  0  0  0  0  2  0  0  0  0  0  0
  191.5540  176.4010  138.0250 C   0  0  0  0  0  2  0  0  0  0  0  0
  193.0610  176.6380  137.9570 C   0  0  1  0  0  3  0  0  0  0  0  0
  193.5660  176.9850  139.2120 O   0  0  0  0  0  1  0  0  0  0  0  0
  193.9450  175.1870  137.3030 P   0  0  0  0  0  0  0  0  0  0  0  0
  192.9510  173.8230  137.4120 O   0  0  0  0  0  1  0  0  0  0  0  0
  194.3420  175.4600  135.6820 O   0  0  0  0  0  0  0  0  0  0  0  0
  195.2110  174.9510  138.0930 O   0  0  0  0  0  1  0  0  0  0  0  0
  187.2450  178.2730  145.7830 N   0  0  0  0  0  2  0  0  0  0  0  0
  186.2330  177.5700  145.1170 N   0  0  0  0  0  2  0  0  0  0  0  0
  184.4390  178.6710  141.9800 C   0  0  0  0  0  2  0  0  0  0  0  0
  185.3280  178.2350  144.2380 C   0  0  0  0  0  0  0  0  0  0  0  0
  182.0470  178.8940  141.8160 N   0  0  0  0  0  0  0  0  0  0  0  0
  185.3590  177.9620  142.9330 C   0  0  0  0  0  3  0  0  0  0  0  0
  184.3520  179.2540  144.7610 C   0  0  0  0  0  2  0  0  0  0  0  0
  182.9800  179.1010  144.0940 C   0  0  0  0  0  2  0  0  0  0  0  0
  183.0850  178.8790  142.6000 C   0  0  0  0  0  0  0  0  0  0  0  0
  179.9310  178.0780  142.3250 O   0  0  0  0  0  0  0  0  0  0  0  0
  180.1440  180.3510  142.4050 O   0  0  0  0  0  1  0  0  0  0  0  0
  180.6740  179.0840  142.1890 C   0  0  0  0  0  0  0  0  0  0  0  0
  1  7  1  0  0  0  0
  1  5  2  0  0  0  0
  3  6  1  0  0  0  0
  4  7  2  0  0  0  0
  5  6  1  0  0  0  0
  6  2  2  0  0  0  0
  7  3  1  0  0  0  0
  8  1  1  0  0  0  0
  9  8  1  0  0  0  0
 10 11  2  0  0  0  0
 10 12  1  0  0  0  0
 12  9  1  0  0  0  0
 13 14  1  0  0  0  0
 13 10  1  0  0  0  0
 15 14  1  0  0  0  0
 16 15  1  0  0  0  0
 16 17  1  1  0  0  0
 18 19  1  0  0  0  0
 18 16  1  0  0  0  0
 18 21  1  0  0  0  0
 20 18  2  0  0  0  0
 22  5  1  0  0  0  0
 23 22  1  0  0  0  0
 24 30  1  0  0  0  0
 24 27  1  0  0  0  0
 25 28  1  0  0  0  0
 25 23  1  0  0  0  0
 26 33  1  0  0  0  0
 26 30  2  0  0  0  0
 27 25  2  0  0  0  0
 29 28  1  0  0  0  0
 30 29  1  0  0  0  0
 33 31  2  0  0  0  0
 33 32  1  0  0  0  0
M  END
>  <MODEL>
6

>  <REMARK>
 VINA RESULT:      -7.9      2.636      3.036
  Name = 
  12 active torsions:
  status: ('A' for Active; 'I' for Inactive)
    1  A    between atoms: C_2  and  N_3
    2  A    between atoms: C_2  and  C_12
    3  A    between atoms: N_3  and  C_18
    4  A    between atoms: C_5  and  N_25
    5  A    between atoms: C_6  and  C_8
    6  A    between atoms: C_7  and  P_9
    7  A    between atoms: C_7  and  C_18
    8  A    between atoms: C_8  and  C_17
    9  A    between atoms: N_11  and  C_31
   10  A    between atoms: C_17  and  N_28
   11  A    between atoms: C_24  and  N_26
   12  A    between atoms: N_25  and  N_26
                            x       y       z     vdW  Elec       q    Type
                         _______ _______ _______ _____ _____    ______ ____

>  <TORSDO>
F 12

$$$$
=
 OpenBabel10222417573D

 33 34  0  0  1  0  0  0  0  0999 V2000
  189.9070  177.2450  145.3800 C   0  0  0  0  0  0  0  0  0  0  0  0
  188.2820  177.4630  148.4590 N   0  0  0  0  0  2  0  0  0  0  0  0
  190.3370  176.5780  147.6330 N   0  0  0  0  0  2  0  0  0  0  0  0
  192.0070  176.2280  145.9980 O   0  0  0  0  0  0  0  0  0  0  0  0
  188.8290  177.5680  146.0780 C   0  0  0  0  0  0  0  0  0  0  0  0
  189.0420  177.1470  147.4640 C   0  0  0  0  0  0  0  0  0  0  0  0
  190.8580  176.6390  146.3090 C   0  0  0  0  0  0  0  0  0  0  0  0
  190.1480  177.5490  143.9390 C   0  0  0  0  0  2  0  0  0  0  0  0
  189.5710  176.4430  143.0730 C   0  0  0  0  0  2  0  0  0  0  0  0
  189.2340  177.4770  140.7800 C   0  0  0  0  0  0  0  0  0  0  0  0
  190.5060  177.4840  140.5460 N   0  0  0  0  0  2  0  0  0  0  0  0
  188.7250  177.0120  142.0340 N   0  0  0  0  0  2  0  0  0  0  0  0
  188.3050  178.0960  139.7980 C   0  0  0  0  0  2  0  0  0  0  0  0
  189.0440  178.9930  138.9270 N   0  0  0  0  0  2  0  0  0  0  0  0
  189.0400  178.4010  137.5970 C   0  0  0  0  0  2  0  0  0  0  0  0
  187.6240  178.0410  137.1520 C   0  0  1  0  0  3  0  0  0  0  0  0
  187.1710  178.9270  136.1730 O   0  0  0  0  0  1  0  0  0  0  0  0
  187.5210  176.3270  136.5450 P   0  0  0  0  0  0  0  0  0  0  0  0
  188.9060  175.4770  137.0130 O   0  0  0  0  0  1  0  0  0  0  0  0
  186.1570  175.5810  137.2110 O   0  0  0  0  0  1  0  0  0  0  0  0
  187.4090  176.3170  135.0390 O   0  0  0  0  0  0  0  0  0  0  0  0
  187.6870  178.2420  145.5470 N   0  0  0  0  0  0  0  0  0  0  0  0
  186.6440  177.5410  144.9270 N   0  0  0  0  0  0  0  0  0  0  0  0
  184.3460  178.6120  142.1280 C   0  0  0  0  0  2  0  0  0  0  0  0
  185.6260  178.2230  144.1990 C   0  0  0  0  0  0  0  0  0  0  0  0
  181.9830  178.9850  142.4070 N   0  0  0  0  0  0  0  0  0  0  0  0
  185.3900  177.8880  142.9290 C   0  0  0  0  0  3  0  0  0  0  0  0
  184.8280  179.3270  144.8360 C   0  0  0  0  0  2  0  0  0  0  0  0
  183.3470  179.2350  144.4510 C   0  0  0  0  0  2  0  0  0  0  0  0
  183.1500  178.9380  142.9800 C   0  0  0  0  0  0  0  0  0  0  0  0
  180.1550  178.4020  143.7180 O   0  0  0  0  0  1  0  0  0  0  0  0
  180.1060  180.5210  142.8650 O   0  0  0  0  0  0  0  0  0  0  0  0
  180.7200  179.2830  143.0210 C   0  0  0  0  0  0  0  0  0  0  0  0
  1  5  2  0  0  0  0
  1  7  1  0  0  0  0
  4  7  2  0  0  0  0
  5  6  1  0  0  0  0
  6  3  1  0  0  0  0
  6  2  2  0  0  0  0
  7  3  1  0  0  0  0
  8  1  1  0  0  0  0
  9  8  1  0  0  0  0
 10 12  1  0  0  0  0
 11 10  2  0  0  0  0
 12  9  1  0  0  0  0
 13 10  1  0  0  0  0
 14 13  1  0  0  0  0
 15 14  1  0  0  0  0
 16 17  1  6  0  0  0
 16 15  1  0  0  0  0
 18 19  1  0  0  0  0
 18 16  1  0  0  0  0
 18 20  1  0  0  0  0
 21 18  2  0  0  0  0
 22  5  1  0  0  0  0
 23 22  2  0  0  0  0
 24 27  1  0  0  0  0
 24 30  1  0  0  0  0
 25 28  1  0  0  0  0
 25 23  1  0  0  0  0
 26 30  2  0  0  0  0
 26 33  1  0  0  0  0
 27 25  2  0  0  0  0
 29 28  1  0  0  0  0
 30 29  1  0  0  0  0
 32 33  2  0  0  0  0
 33 31  1  0  0  0  0
M  END
>  <MODEL>
7

>  <REMARK>
 VINA RESULT:      -7.7      1.130      1.712
  Name = 
  12 active torsions:
  status: ('A' for Active; 'I' for Inactive)
    1  A    between atoms: C_2  and  N_3
    2  A    between atoms: C_2  and  C_12
    3  A    between atoms: N_3  and  C_18
    4  A    between atoms: C_5  and  N_25
    5  A    between atoms: C_6  and  C_8
    6  A    between atoms: C_7  and  P_9
    7  A    between atoms: C_7  and  C_18
    8  A    between atoms: C_8  and  C_17
    9  A    between atoms: N_11  and  C_31
   10  A    between atoms: C_17  and  N_28
   11  A    between atoms: C_24  and  N_26
   12  A    between atoms: N_25  and  N_26
                            x       y       z     vdW  Elec       q    Type
                         _______ _______ _______ _____ _____    ______ ____

>  <TORSDO>
F 12

$$$$
=
 OpenBabel10222417573D

 33 34  0  0  1  0  0  0  0  0999 V2000
  187.6340  177.5350  146.6840 C   0  0  0  0  0  0  0  0  0  0  0  0
  190.8870  176.7870  145.6680 N   0  0  0  0  0  2  0  0  0  0  0  0
  189.8100  177.5120  147.6700 N   0  0  0  0  0  2  0  0  0  0  0  0
  187.9430  178.0010  149.0330 O   0  0  0  0  0  0  0  0  0  0  0  0
  188.4810  177.2210  145.7150 C   0  0  0  0  0  0  0  0  0  0  0  0
  189.8340  177.2250  146.2750 C   0  0  0  0  0  0  0  0  0  0  0  0
  188.4200  177.7150  147.9020 C   0  0  0  0  0  0  0  0  0  0  0  0
  186.1470  177.5820  146.5750 C   0  0  0  0  0  2  0  0  0  0  0  0
  185.6930  179.0060  146.3010 C   0  0  0  0  0  2  0  0  0  0  0  0
  184.1450  178.9450  144.2910 C   0  0  0  0  0  0  0  0  0  0  0  0
  185.1400  178.9790  143.4660 N   0  0  0  0  0  2  0  0  0  0  0  0
  184.3650  179.0010  145.7040 N   0  0  0  0  0  2  0  0  0  0  0  0
  182.7550  179.0010  143.7660 C   0  0  0  0  0  2  0  0  0  0  0  0
  182.7650  179.5530  142.4220 N   0  0  0  0  0  2  0  0  0  0  0  0
  182.0570  178.6120  141.5660 C   0  0  0  0  0  2  0  0  0  0  0  0
  183.0120  177.9080  140.6040 C   0  0  1  0  0  3  0  0  0  0  0  0
  182.3730  176.8490  139.9570 O   0  0  0  0  0  1  0  0  0  0  0  0
  183.7110  179.0620  139.3800 P   0  0  0  0  0  0  0  0  0  0  0  0
  184.1420  178.2120  137.9830 O   0  0  0  0  0  0  0  0  0  0  0  0
  182.5510  180.2290  138.9880 O   0  0  0  0  0  1  0  0  0  0  0  0
  184.9320  179.7450  139.9500 O   0  0  0  0  0  1  0  0  0  0  0  0
  188.1020  176.9030  144.3750 N   0  0  0  0  0  2  0  0  0  0  0  0
  189.0340  176.4320  143.4420 N   0  0  0  0  0  2  0  0  0  0  0  0
  190.5590  177.4760  140.1470 C   0  0  0  0  0  2  0  0  0  0  0  0
  189.2620  177.1190  142.2130 C   0  0  0  0  0  0  0  0  0  0  0  0
  189.2730  177.9300  138.1630 N   0  0  0  0  0  0  0  0  0  0  0  0
  190.2770  176.7490  141.4310 C   0  0  0  0  0  3  0  0  0  0  0  0
  188.3850  178.2690  141.7980 C   0  0  0  0  0  2  0  0  0  0  0  0
  188.0640  178.2080  140.2990 C   0  0  0  0  0  2  0  0  0  0  0  0
  189.2790  177.8670  139.4630 C   0  0  0  0  0  0  0  0  0  0  0  0
  188.1100  179.4550  136.8480 O   0  0  0  0  0  0  0  0  0  0  0  0
  187.1770  177.3740  136.9830 O   0  0  0  0  0  1  0  0  0  0  0  0
  188.1730  178.2870  137.3110 C   0  0  0  0  0  0  0  0  0  0  0  0
  1  7  1  0  0  0  0
  2  6  2  0  0  0  0
  3  7  1  0  0  0  0
  5  6  1  0  0  0  0
  5  1  2  0  0  0  0
  6  3  1  0  0  0  0
  7  4  2  0  0  0  0
  8  1  1  0  0  0  0
  9  8  1  0  0  0  0
 10 12  1  0  0  0  0
 11 10  2  0  0  0  0
 12  9  1  0  0  0  0
 13 10  1  0  0  0  0
 14 13  1  0  0  0  0
 15 14  1  0  0  0  0
 16 17  1  6  0  0  0
 16 15  1  0  0  0  0
 18 21  1  0  0  0  0
 18 16  1  0  0  0  0
 19 18  2  0  0  0  0
 20 18  1  0  0  0  0
 22  5  1  0  0  0  0
 23 22  1  0  0  0  0
 24 27  1  0  0  0  0
 25 23  1  0  0  0  0
 26 30  2  0  0  0  0
 27 25  2  0  0  0  0
 28 25  1  0  0  0  0
 29 28  1  0  0  0  0
 30 24  1  0  0  0  0
 30 29  1  0  0  0  0
 31 33  2  0  0  0  0
 32 33  1  0  0  0  0
 33 26  1  0  0  0  0
M  END
>  <MODEL>
8

>  <REMARK>
 VINA RESULT:      -7.6      2.302      6.148
  Name = 
  12 active torsions:
  status: ('A' for Active; 'I' for Inactive)
    1  A    between atoms: C_2  and  N_3
    2  A    between atoms: C_2  and  C_12
    3  A    between atoms: N_3  and  C_18
    4  A    between atoms: C_5  and  N_25
    5  A    between atoms: C_6  and  C_8
    6  A    between atoms: C_7  and  P_9
    7  A    between atoms: C_7  and  C_18
    8  A    between atoms: C_8  and  C_17
    9  A    between atoms: N_11  and  C_31
   10  A    between atoms: C_17  and  N_28
   11  A    between atoms: C_24  and  N_26
   12  A    between atoms: N_25  and  N_26
                            x       y       z     vdW  Elec       q    Type
                         _______ _______ _______ _____ _____    ______ ____

>  <TORSDO>
F 12

$$$$
=
 OpenBabel10222417573D

 33 34  0  0  1  0  0  0  0  0999 V2000
  185.6470  178.2020  144.6530 C   0  0  0  0  0  0  0  0  0  0  0  0
  187.5470  177.8770  147.5610 N   0  0  0  0  0  2  0  0  0  0  0  0
  185.4810  178.8920  146.9340 N   0  0  0  0  0  2  0  0  0  0  0  0
  183.6850  179.3490  145.4680 O   0  0  0  0  0  0  0  0  0  0  0  0
  186.7650  177.8110  145.2450 C   0  0  0  0  0  0  0  0  0  0  0  0
  186.7150  178.2420  146.6430 C   0  0  0  0  0  0  0  0  0  0  0  0
  184.8310  178.8650  145.6670 C   0  0  0  0  0  0  0  0  0  0  0  0
  185.2480  177.9160  143.2440 C   0  0  0  0  0  2  0  0  0  0  0  0
  185.3470  179.1820  142.4110 C   0  0  0  0  0  2  0  0  0  0  0  0
  184.4820  178.6700  140.0810 C   0  0  0  0  0  0  0  0  0  0  0  0
  183.2520  178.7290  140.4750 N   0  0  0  0  0  2  0  0  0  0  0  0
  185.5560  178.8440  141.0100 N   0  0  0  0  0  2  0  0  0  0  0  0
  184.7840  178.2690  138.6810 C   0  0  0  0  0  2  0  0  0  0  0  0
  186.0370  178.8730  138.2620 N   0  0  0  0  0  2  0  0  0  0  0  0
  186.8920  177.7970  137.7810 C   0  0  0  0  0  2  0  0  0  0  0  0
  186.7240  177.5800  136.2790 C   0  0  1  0  0  3  0  0  0  0  0  0
  187.7120  178.2630  135.5660 O   0  0  0  0  0  1  0  0  0  0  0  0
  186.7440  175.8120  135.8440 P   0  0  0  0  0  0  0  0  0  0  0  0
  188.1780  175.4470  135.0250 O   0  0  0  0  0  1  0  0  0  0  0  0
  186.6580  174.8890  137.2590 O   0  0  0  0  0  1  0  0  0  0  0  0
  185.5630  175.4820  134.9620 O   0  0  0  0  0  0  0  0  0  0  0  0
  187.8060  177.0670  144.6080 N   0  0  0  0  0  2  0  0  0  0  0  0
  189.1040  177.5780  144.4870 N   0  0  0  0  0  2  0  0  0  0  0  0
  191.7200  177.4940  141.7630 C   0  0  0  0  0  2  0  0  0  0  0  0
  189.7370  177.6940  143.2150 C   0  0  0  0  0  0  0  0  0  0  0  0
  191.3230  176.6190  139.5560 N   0  0  0  0  0  0  0  0  0  0  0  0
  191.0200  177.3510  143.0850 C   0  0  0  0  0  3  0  0  0  0  0  0
  188.9830  178.2180  142.0230 C   0  0  0  0  0  2  0  0  0  0  0  0
  189.3180  177.4150  140.7590 C   0  0  0  0  0  2  0  0  0  0  0  0
  190.8000  177.1340  140.6300 C   0  0  0  0  0  0  0  0  0  0  0  0
  190.4030  174.9920  138.1730 O   0  0  0  0  0  1  0  0  0  0  0  0
  190.2300  177.1360  137.4030 O   0  0  0  0  0  0  0  0  0  0  0  0
  190.6390  176.2130  138.3600 C   0  0  0  0  0  0  0  0  0  0  0  0
  1  5  2  0  0  0  0
  1  7  1  0  0  0  0
  4  7  2  0  0  0  0
  5  6  1  0  0  0  0
  6  3  1  0  0  0  0
  6  2  2  0  0  0  0
  7  3  1  0  0  0  0
  8  1  1  0  0  0  0
  9  8  1  0  0  0  0
 10 11  2  0  0  0  0
 10 12  1  0  0  0  0
 12  9  1  0  0  0  0
 13 10  1  0  0  0  0
 14 13  1  0  0  0  0
 15 14  1  0  0  0  0
 16 17  1  6  0  0  0
 16 15  1  0  0  0  0
 18 16  1  0  0  0  0
 18 20  1  0  0  0  0
 19 18  1  0  0  0  0
 21 18  2  0  0  0  0
 22  5  1  0  0  0  0
 23 22  1  0  0  0  0
 24 27  1  0  0  0  0
 25 23  1  0  0  0  0
 26 30  2  0  0  0  0
 27 25  2  0  0  0  0
 28 25  1  0  0  0  0
 29 28  1  0  0  0  0
 30 29  1  0  0  0  0
 30 24  1  0  0  0  0
 31 33  1  0  0  0  0
 32 33  2  0  0  0  0
 33 26  1  0  0  0  0
M  END
>  <MODEL>
9

>  <REMARK>
 VINA RESULT:      -7.5      2.704      6.150
  Name = 
  12 active torsions:
  status: ('A' for Active; 'I' for Inactive)
    1  A    between atoms: C_2  and  N_3
    2  A    between atoms: C_2  and  C_12
    3  A    between atoms: N_3  and  C_18
    4  A    between atoms: C_5  and  N_25
    5  A    between atoms: C_6  and  C_8
    6  A    between atoms: C_7  and  P_9
    7  A    between atoms: C_7  and  C_18
    8  A    between atoms: C_8  and  C_17
    9  A    between atoms: N_11  and  C_31
   10  A    between atoms: C_17  and  N_28
   11  A    between atoms: C_24  and  N_26
   12  A    between atoms: N_25  and  N_26
                            x       y       z     vdW  Elec       q    Type
                         _______ _______ _______ _____ _____    ______ ____

>  <TORSDO>
F 12

$$$$
