=
 OpenBabel10222419223D

 49 54  0  0  1  0  0  0  0  0999 V2000
  190.9780  176.8010  138.9570 N   0  0  0  0  0  0  0  0  0  0  0  0
  193.5740  177.0360  138.2010 O   0  0  0  0  0  0  0  0  0  0  0  0
  190.7850  176.2450  137.7940 C   0  0  0  0  0  0  0  0  0  0  0  0
  191.8840  176.0680  136.8960 N   0  0  0  0  0  2  0  0  0  0  0  0
  193.2390  176.4660  137.1290 C   0  0  0  0  0  0  0  0  0  0  0  0
  194.2550  176.2260  136.0630 C   0  0  2  0  0  3  0  0  0  0  0  0
  195.0710  174.9540  136.3500 C   0  0  0  0  0  2  0  0  0  0  0  0
  196.7500  175.9950  134.7620 C   0  0  0  0  0  2  0  0  0  0  0  0
  196.5550  175.1590  136.0290 C   0  0  0  0  0  2  0  0  0  0  0  0
  195.0880  177.3500  135.9240 O   0  0  0  0  0  0  0  0  0  0  0  0
  195.7680  177.1780  134.7030 C   0  0  0  0  0  2  0  0  0  0  0  0
  190.0200  177.0600  139.9960 C   0  0  0  0  0  0  0  0  0  0  0  0
  190.0280  176.4250  141.0820 O   0  0  0  0  0  0  0  0  0  0  0  0
  188.9960  178.1220  139.7890 C   0  0  0  0  0  2  0  0  0  0  0  0
  188.1770  178.5380  141.3580 S   0  0  0  0  0  0  0  0  0  0  0  0
  186.5170  178.6470  140.6160 C   0  0  0  0  0  2  0  0  0  0  0  0
  185.4850  179.0380  141.6580 C   0  0  0  0  0  2  0  0  0  0  0  0
  185.1490  177.8900  142.4840 N   0  0  0  0  0  2  0  0  0  0  0  0
  184.3190  178.3810  143.5680 C   0  0  0  0  0  2  0  0  0  0  0  0
  189.7490  177.5690  145.5600 C   0  0  0  0  0  2  0  0  0  0  0  0
  186.2510  178.0770  145.0000 N   0  0  0  0  0  0  0  0  0  0  0  0
  185.1050  178.4810  146.9630 C   0  0  0  0  0  3  0  0  0  0  0  0
  187.4900  177.5110  146.7050 C   0  0  0  0  0  0  0  0  0  0  0  0
  186.2190  177.8060  146.2860 C   0  0  0  0  0  0  0  0  0  0  0  0
  188.0450  177.3410  148.0850 C   0  0  0  0  0  2  0  0  0  0  0  0
  188.2520  177.5950  145.5520 C   0  0  0  0  0  0  0  0  0  0  0  0
  189.5520  177.6420  148.0890 C   0  0  0  0  0  2  0  0  0  0  0  0
  185.1970  178.9930  144.6440 C   0  0  2  0  0  3  0  0  0  0  0  0
  190.2620  176.9920  146.8900 C   0  0  0  0  0  2  0  0  0  0  0  0
  187.4860  178.0290  144.5270 N   0  0  0  0  0  0  0  0  0  0  0  0
  184.4110  179.2030  145.8780 N   0  0  0  0  0  0  0  0  0  0  0  0
  189.1620  175.7140  137.2310 S   0  0  0  0  0  0  0  0  0  0  0  0
  189.0230  177.0880  136.0570 C   0  0  0  0  0  2  0  0  0  0  0  0
  187.5740  177.2360  135.6320 C   0  0  0  0  0  2  0  0  0  0  0  0
  187.1500  179.1210  136.9810 O   0  0  0  0  0  0  0  0  0  0  0  0
  186.8060  177.9930  136.6660 C   0  0  0  0  0  0  0  0  0  0  0  0
  185.6460  177.3570  137.3590 C   0  0  0  0  0  2  0  0  0  0  0  0
  184.7680  175.1620  136.9020 O   0  0  0  0  0  0  0  0  0  0  0  0
  184.8520  176.4740  136.3960 C   0  0  1  0  0  3  0  0  0  0  0  0
  183.5790  175.9140  136.9450 C   0  0  2  0  0  3  0  0  0  0  0  0
  183.2690  176.2730  138.3950 C   0  0  0  0  0  2  0  0  0  0  0  0
  182.2040  177.8970  139.7130 C   0  0  0  0  0  2  0  0  0  0  0  0
  180.1620  176.8650  140.6230 C   0  0  0  0  0  0  0  0  0  0  0  0
  180.8540  178.1790  140.3770 C   0  0  1  0  0  3  0  0  0  0  0  0
  180.9040  176.2780  138.3460 C   0  0  0  0  0  2  0  0  0  0  0  0
  181.0980  178.9310  141.6740 C   0  0  0  0  0  1  0  0  0  0  0  0
  179.3940  176.7170  141.5610 O   0  0  0  0  0  0  0  0  0  0  0  0
  182.1000  177.1350  138.4570 N   0  0  0  0  0  0  0  0  0  0  0  0
  180.4170  175.7270  139.6870 C   0  0  0  0  0  2  0  0  0  0  0  0
  1 12  1  0  0  0  0
  3  1  2  0  0  0  0
  4  5  1  0  0  0  0
  4  3  1  0  0  0  0
  5  2  2  0  0  0  0
  6  7  1  0  0  0  0
  6  5  1  1  0  0  0
  8  9  1  0  0  0  0
  9  7  1  0  0  0  0
 10  6  1  0  0  0  0
 11  8  1  0  0  0  0
 11 10  1  0  0  0  0
 12 13  2  0  0  0  0
 14 12  1  0  0  0  0
 14 15  1  0  0  0  0
 16 15  1  0  0  0  0
 16 17  1  0  0  0  0
 17 18  1  0  0  0  0
 18 19  1  0  0  0  0
 20 29  1  0  0  0  0
 21 24  1  0  0  0  0
 23 25  1  0  0  0  0
 24 23  2  0  0  0  0
 24 22  1  0  0  0  0
 25 27  1  0  0  0  0
 26 20  1  0  0  0  0
 26 23  1  0  0  0  0
 28 19  1  6  0  0  0
 28 21  1  0  0  0  0
 28 31  1  0  0  0  0
 29 27  1  0  0  0  0
 30 21  1  0  0  0  0
 30 26  2  0  0  0  0
 31 22  2  0  0  0  0
 32  3  1  0  0  0  0
 33 32  1  0  0  0  0
 34 33  1  0  0  0  0
 34 36  1  0  0  0  0
 36 35  2  0  0  0  0
 36 37  1  0  0  0  0
 38 40  1  0  0  0  0
 39 38  1  0  0  0  0
 39 40  1  0  0  0  0
 39 37  1  1  0  0  0
 40 41  1  1  0  0  0
 41 48  1  0  0  0  0
 42 44  1  0  0  0  0
 43 47  2  0  0  0  0
 44 43  1  0  0  0  0
 44 46  1  1  0  0  0
 45 48  1  0  0  0  0
 45 49  1  0  0  0  0
 48 42  1  0  0  0  0
 49 43  1  0  0  0  0
M  END
>  <MODEL>
1

>  <REMARK>
 VINA RESULT:      -8.2      0.000      0.000
  Name = 
  17 active torsions:
  status: ('A' for Active; 'I' for Inactive)
    1  A    between atoms: C_2  and  C_48
    2  A    between atoms: N_3  and  C_22
    3  A    between atoms: S_8  and  C_16
    4  A    between atoms: S_8  and  C_27
    5  A    between atoms: C_15  and  S_25
    6  A    between atoms: C_16  and  C_43
    7  A    between atoms: C_17  and  S_25
    8  A    between atoms: C_17  and  C_31
    9  A    between atoms: C_21  and  N_30
   10  A    between atoms: C_21  and  C_45
   11  A    between atoms: C_22  and  C_27
   12  A    between atoms: C_23  and  N_36
   13  A    between atoms: C_23  and  C_42
   14  A    between atoms: N_30  and  C_43
   15  A    between atoms: C_31  and  C_41
   16  A    between atoms: C_32  and  C_44
   17  A    between atoms: C_41  and  C_44
                            x       y       z     vdW  Elec       q    Type
                         _______ _______ _______ _____ _____    ______ ____

>  <TORSDO>
F 17

$$$$
=
 OpenBabel10222419223D

 49 54  0  0  1  0  0  0  0  0999 V2000
  190.9880  177.0110  139.4770 N   0  0  0  0  0  0  0  0  0  0  0  0
  193.5840  176.6940  138.7520 O   0  0  0  0  0  0  0  0  0  0  0  0
  190.6960  176.4670  138.3300 C   0  0  0  0  0  0  0  0  0  0  0  0
  191.7430  176.0420  137.4530 N   0  0  0  0  0  2  0  0  0  0  0  0
  193.1490  176.1670  137.6940 C   0  0  0  0  0  0  0  0  0  0  0  0
  194.1040  175.6920  136.6500 C   0  0  2  0  0  3  0  0  0  0  0  0
  194.9670  174.5310  137.1740 C   0  0  0  0  0  2  0  0  0  0  0  0
  196.5210  175.1850  135.2810 C   0  0  0  0  0  2  0  0  0  0  0  0
  196.4230  174.6690  136.7190 C   0  0  0  0  0  2  0  0  0  0  0  0
  194.9000  176.7590  136.1980 O   0  0  0  0  0  0  0  0  0  0  0  0
  195.5090  176.3110  135.0100 C   0  0  0  0  0  2  0  0  0  0  0  0
  190.0940  177.4920  140.4930 C   0  0  0  0  0  0  0  0  0  0  0  0
  188.9300  177.8870  140.2240 O   0  0  0  0  0  0  0  0  0  0  0  0
  190.5510  177.5090  141.9110 C   0  0  0  0  0  2  0  0  0  0  0  0
  190.1620  175.9320  142.7300 S   0  0  0  0  0  0  0  0  0  0  0  0
  191.4530  176.1200  144.0000 C   0  0  0  0  0  2  0  0  0  0  0  0
  191.6620  177.5820  144.3460 C   0  0  0  0  0  2  0  0  0  0  0  0
  190.5340  178.0800  145.1150 N   0  0  0  0  0  2  0  0  0  0  0  0
  190.4110  177.2260  146.2810 C   0  0  0  0  0  2  0  0  0  0  0  0
  185.3900  178.0850  143.4260 C   0  0  0  0  0  2  0  0  0  0  0  0
  188.1020  177.7180  145.7310 N   0  0  0  0  0  0  0  0  0  0  0  0
  187.4080  177.8770  147.9260 C   0  0  0  0  0  3  0  0  0  0  0  0
  186.0990  178.5800  145.8070 C   0  0  0  0  0  0  0  0  0  0  0  0
  187.2270  178.2880  146.5280 C   0  0  0  0  0  0  0  0  0  0  0  0
  184.7450  179.0310  146.2580 C   0  0  0  0  0  2  0  0  0  0  0  0
  186.4070  178.1680  144.5210 C   0  0  0  0  0  0  0  0  0  0  0  0
  183.6830  178.6300  145.2230 C   0  0  0  0  0  2  0  0  0  0  0  0
  188.9600  176.8240  146.4670 C   0  0  2  0  0  3  0  0  0  0  0  0
  184.1520  178.9220  143.7880 C   0  0  0  0  0  2  0  0  0  0  0  0
  187.6140  177.5610  144.5110 N   0  0  0  0  0  0  0  0  0  0  0  0
  188.5730  176.9710  147.8870 N   0  0  0  0  0  0  0  0  0  0  0  0
  189.0040  176.2550  137.7600 S   0  0  0  0  0  0  0  0  0  0  0  0
  189.0740  177.7390  136.7230 C   0  0  0  0  0  2  0  0  0  0  0  0
  187.8300  178.5750  136.9640 C   0  0  0  0  0  2  0  0  0  0  0  0
  186.5510  177.3310  135.4260 O   0  0  0  0  0  0  0  0  0  0  0  0
  186.6100  177.8230  136.5420 C   0  0  0  0  0  0  0  0  0  0  0  0
  185.4360  177.7150  137.4570 C   0  0  0  0  0  2  0  0  0  0  0  0
  184.7540  179.5240  138.8920 O   0  0  0  0  0  0  0  0  0  0  0  0
  185.6870  178.4780  138.7590 C   0  0  1  0  0  3  0  0  0  0  0  0
  184.5720  178.4270  139.7540 C   0  0  2  0  0  3  0  0  0  0  0  0
  183.3310  177.6520  139.3190 C   0  0  0  0  0  2  0  0  0  0  0  0
  182.0090  178.7450  140.9210 C   0  0  0  0  0  2  0  0  0  0  0  0
  179.8700  177.5330  141.0410 C   0  0  0  0  0  0  0  0  0  0  0  0
  180.5580  178.8230  141.3980 C   0  0  1  0  0  3  0  0  0  0  0  0
  181.0120  177.7590  138.8680 C   0  0  0  0  0  2  0  0  0  0  0  0
  180.5510  179.0610  142.8990 C   0  0  0  0  0  1  0  0  0  0  0  0
  178.9550  177.0920  141.7190 O   0  0  0  0  0  0  0  0  0  0  0  0
  182.1460  178.4780  139.4780 N   0  0  0  0  0  0  0  0  0  0  0  0
  180.3140  176.7890  139.8240 C   0  0  0  0  0  2  0  0  0  0  0  0
  1 12  1  0  0  0  0
  3  1  2  0  0  0  0
  4  5  1  0  0  0  0
  4  3  1  0  0  0  0
  5  2  2  0  0  0  0
  6  7  1  0  0  0  0
  6  5  1  1  0  0  0
  8  9  1  0  0  0  0
  9  7  1  0  0  0  0
 10  6  1  0  0  0  0
 11  8  1  0  0  0  0
 11 10  1  0  0  0  0
 12 14  1  0  0  0  0
 13 12  2  0  0  0  0
 14 15  1  0  0  0  0
 15 16  1  0  0  0  0
 16 17  1  0  0  0  0
 17 18  1  0  0  0  0
 18 19  1  0  0  0  0
 20 29  1  0  0  0  0
 20 26  1  0  0  0  0
 21 28  1  0  0  0  0
 21 24  1  0  0  0  0
 23 25  1  0  0  0  0
 23 24  2  0  0  0  0
 24 22  1  0  0  0  0
 26 23  1  0  0  0  0
 27 25  1  0  0  0  0
 28 19  1  1  0  0  0
 28 31  1  0  0  0  0
 29 27  1  0  0  0  0
 30 26  2  0  0  0  0
 30 21  1  0  0  0  0
 31 22  2  0  0  0  0
 32  3  1  0  0  0  0
 33 34  1  0  0  0  0
 33 32  1  0  0  0  0
 35 36  2  0  0  0  0
 36 34  1  0  0  0  0
 36 37  1  0  0  0  0
 38 40  1  0  0  0  0
 39 37  1  6  0  0  0
 39 38  1  0  0  0  0
 39 40  1  0  0  0  0
 40 41  1  6  0  0  0
 41 48  1  0  0  0  0
 42 44  1  0  0  0  0
 43 44  1  0  0  0  0
 43 47  2  0  0  0  0
 44 46  1  1  0  0  0
 45 48  1  0  0  0  0
 45 49  1  0  0  0  0
 48 42  1  0  0  0  0
 49 43  1  0  0  0  0
M  END
>  <MODEL>
2

>  <REMARK>
 VINA RESULT:      -8.1      1.548      3.139
  Name = 
  17 active torsions:
  status: ('A' for Active; 'I' for Inactive)
    1  A    between atoms: C_2  and  C_48
    2  A    between atoms: N_3  and  C_22
    3  A    between atoms: S_8  and  C_16
    4  A    between atoms: S_8  and  C_27
    5  A    between atoms: C_15  and  S_25
    6  A    between atoms: C_16  and  C_43
    7  A    between atoms: C_17  and  S_25
    8  A    between atoms: C_17  and  C_31
    9  A    between atoms: C_21  and  N_30
   10  A    between atoms: C_21  and  C_45
   11  A    between atoms: C_22  and  C_27
   12  A    between atoms: C_23  and  N_36
   13  A    between atoms: C_23  and  C_42
   14  A    between atoms: N_30  and  C_43
   15  A    between atoms: C_31  and  C_41
   16  A    between atoms: C_32  and  C_44
   17  A    between atoms: C_41  and  C_44
                            x       y       z     vdW  Elec       q    Type
                         _______ _______ _______ _____ _____    ______ ____

>  <TORSDO>
F 17

$$$$
=
 OpenBabel10222419223D

 49 54  0  0  1  0  0  0  0  0999 V2000
  186.7100  175.6750  136.3910 N   0  0  0  0  0  0  0  0  0  0  0  0
  188.8900  174.2020  135.7210 O   0  0  0  0  0  0  0  0  0  0  0  0
  187.5580  176.5530  136.8490 C   0  0  0  0  0  0  0  0  0  0  0  0
  188.9640  176.3100  136.7450 N   0  0  0  0  0  2  0  0  0  0  0  0
  189.5820  175.1470  136.1840 C   0  0  0  0  0  0  0  0  0  0  0  0
  191.0710  175.0500  136.1860 C   0  0  2  0  0  3  0  0  0  0  0  0
  191.6080  174.7750  137.6010 C   0  0  0  0  0  2  0  0  0  0  0  0
  193.7820  175.6770  136.6610 C   0  0  0  0  0  2  0  0  0  0  0  0
  192.8690  175.5950  137.8870 C   0  0  0  0  0  2  0  0  0  0  0  0
  191.6340  176.2170  135.6400 O   0  0  0  0  0  0  0  0  0  0  0  0
  192.9800  175.9050  135.3680 C   0  0  0  0  0  2  0  0  0  0  0  0
  185.2750  175.7320  136.3900 C   0  0  0  0  0  0  0  0  0  0  0  0
  184.6350  176.3740  135.5180 O   0  0  0  0  0  0  0  0  0  0  0  0
  184.5200  174.9950  137.4420 C   0  0  0  0  0  2  0  0  0  0  0  0
  183.0760  174.1550  136.7260 S   0  0  0  0  0  0  0  0  0  0  0  0
  181.8680  175.1230  137.6860 C   0  0  0  0  0  2  0  0  0  0  0  0
  181.3110  176.2650  136.8570 C   0  0  0  0  0  2  0  0  0  0  0  0
  181.1440  177.4480  137.6850 N   0  0  0  0  0  2  0  0  0  0  0  0
  182.3220  178.2710  137.4840 C   0  0  0  0  0  2  0  0  0  0  0  0
  185.3940  178.5030  142.4450 C   0  0  0  0  0  2  0  0  0  0  0  0
  182.9880  178.5570  139.7970 N   0  0  0  0  0  0  0  0  0  0  0  0
  180.9690  179.4480  140.4730 C   0  0  0  0  0  3  0  0  0  0  0  0
  182.9070  178.6250  141.9760 C   0  0  0  0  0  0  0  0  0  0  0  0
  182.1740  178.6850  140.8210 C   0  0  0  0  0  0  0  0  0  0  0  0
  182.5200  178.9210  143.3910 C   0  0  0  0  0  2  0  0  0  0  0  0
  184.2050  178.4150  141.5400 C   0  0  0  0  0  0  0  0  0  0  0  0
  183.7600  179.3200  144.2060 C   0  0  0  0  0  2  0  0  0  0  0  0
  182.4680  179.2430  138.6400 C   0  0  2  0  0  3  0  0  0  0  0  0
  184.9510  178.3940  143.9140 C   0  0  0  0  0  2  0  0  0  0  0  0
  184.2480  178.4610  140.1900 N   0  0  0  0  0  0  0  0  0  0  0  0
  181.1400  179.7560  139.0390 N   0  0  0  0  0  0  0  0  0  0  0  0
  187.0370  178.0710  137.6600 S   0  0  0  0  0  0  0  0  0  0  0  0
  188.6140  178.2470  138.5360 C   0  0  0  0  0  2  0  0  0  0  0  0
  188.3770  178.0950  140.0270 C   0  0  0  0  0  2  0  0  0  0  0  0
  190.1830  176.5870  140.1280 O   0  0  0  0  0  0  0  0  0  0  0  0
  189.5730  177.4860  140.6830 C   0  0  0  0  0  0  0  0  0  0  0  0
  189.9970  177.9340  142.0420 C   0  0  0  0  0  2  0  0  0  0  0  0
  192.0650  177.8350  143.2720 O   0  0  0  0  0  0  0  0  0  0  0  0
  191.1220  177.0490  142.5830 C   0  0  1  0  0  3  0  0  0  0  0  0
  191.2480  177.0150  144.0720 C   0  0  2  0  0  3  0  0  0  0  0  0
  190.2630  177.8900  144.8400 C   0  0  0  0  0  2  0  0  0  0  0  0
  188.0870  177.8640  145.7200 C   0  0  0  0  0  2  0  0  0  0  0  0
  188.2990  177.8680  148.1730 C   0  0  0  0  0  0  0  0  0  0  0  0
  187.3490  177.6040  147.0350 C   0  0  1  0  0  3  0  0  0  0  0  0
  189.9470  176.6320  146.8180 C   0  0  0  0  0  2  0  0  0  0  0  0
  186.1360  178.5170  147.1010 C   0  0  0  0  0  1  0  0  0  0  0  0
  187.8990  178.2650  149.2560 O   0  0  0  0  0  0  0  0  0  0  0  0
  189.3100  177.0590  145.5580 N   0  0  0  0  0  0  0  0  0  0  0  0
  189.7590  177.6240  147.9670 C   0  0  0  0  0  2  0  0  0  0  0  0
  1  3  2  0  0  0  0
  2  5  2  0  0  0  0
  3 32  1  0  0  0  0
  4  3  1  0  0  0  0
  5  4  1  0  0  0  0
  6  5  1  1  0  0  0
  6  7  1  0  0  0  0
  7  9  1  0  0  0  0
  8  9  1  0  0  0  0
 10  6  1  0  0  0  0
 11 10  1  0  0  0  0
 11  8  1  0  0  0  0
 12  1  1  0  0  0  0
 12 14  1  0  0  0  0
 13 12  2  0  0  0  0
 15 14  1  0  0  0  0
 15 16  1  0  0  0  0
 17 18  1  0  0  0  0
 17 16  1  0  0  0  0
 19 18  1  0  0  0  0
 20 29  1  0  0  0  0
 21 30  1  0  0  0  0
 21 24  1  0  0  0  0
 22 24  1  0  0  0  0
 23 25  1  0  0  0  0
 24 23  2  0  0  0  0
 25 27  1  0  0  0  0
 26 23  1  0  0  0  0
 26 20  1  0  0  0  0
 28 19  1  6  0  0  0
 28 31  1  0  0  0  0
 28 21  1  0  0  0  0
 29 27  1  0  0  0  0
 30 26  2  0  0  0  0
 31 22  2  0  0  0  0
 32 33  1  0  0  0  0
 33 34  1  0  0  0  0
 34 36  1  0  0  0  0
 35 36  2  0  0  0  0
 36 37  1  0  0  0  0
 38 40  1  0  0  0  0
 39 37  1  1  0  0  0
 39 38  1  0  0  0  0
 39 40  1  0  0  0  0
 40 41  1  1  0  0  0
 41 48  1  0  0  0  0
 42 44  1  0  0  0  0
 43 47  2  0  0  0  0
 44 46  1  1  0  0  0
 44 43  1  0  0  0  0
 45 49  1  0  0  0  0
 48 42  1  0  0  0  0
 48 45  1  0  0  0  0
 49 43  1  0  0  0  0
M  END
>  <MODEL>
3

>  <REMARK>
 VINA RESULT:      -8.0      2.490      7.105
  Name = 
  17 active torsions:
  status: ('A' for Active; 'I' for Inactive)
    1  A    between atoms: C_2  and  C_48
    2  A    between atoms: N_3  and  C_22
    3  A    between atoms: S_8  and  C_16
    4  A    between atoms: S_8  and  C_27
    5  A    between atoms: C_15  and  S_25
    6  A    between atoms: C_16  and  C_43
    7  A    between atoms: C_17  and  S_25
    8  A    between atoms: C_17  and  C_31
    9  A    between atoms: C_21  and  N_30
   10  A    between atoms: C_21  and  C_45
   11  A    between atoms: C_22  and  C_27
   12  A    between atoms: C_23  and  N_36
   13  A    between atoms: C_23  and  C_42
   14  A    between atoms: N_30  and  C_43
   15  A    between atoms: C_31  and  C_41
   16  A    between atoms: C_32  and  C_44
   17  A    between atoms: C_41  and  C_44
                            x       y       z     vdW  Elec       q    Type
                         _______ _______ _______ _____ _____    ______ ____

>  <TORSDO>
F 17

$$$$
=
 OpenBabel10222419223D

 49 54  0  0  1  0  0  0  0  0999 V2000
  181.9260  179.4300  140.3130 N   0  0  0  0  0  0  0  0  0  0  0  0
  182.0510  181.5880  138.6720 O   0  0  0  0  0  0  0  0  0  0  0  0
  180.7700  179.1910  139.7610 C   0  0  0  0  0  0  0  0  0  0  0  0
  180.2790  180.0530  138.7300 N   0  0  0  0  0  2  0  0  0  0  0  0
  180.9350  181.2190  138.2200 C   0  0  0  0  0  0  0  0  0  0  0  0
  180.2590  182.0200  137.1580 C   0  0  2  0  0  3  0  0  0  0  0  0
  180.4240  181.3620  135.7770 C   0  0  0  0  0  2  0  0  0  0  0  0
  179.8800  183.6780  134.9050 C   0  0  0  0  0  2  0  0  0  0  0  0
  180.7030  182.4050  134.6920 C   0  0  0  0  0  2  0  0  0  0  0  0
  180.7460  183.3380  137.1590 O   0  0  0  0  0  0  0  0  0  0  0  0
  179.8360  184.0860  136.3870 C   0  0  0  0  0  2  0  0  0  0  0  0
  182.5950  178.6890  141.3460 C   0  0  0  0  0  0  0  0  0  0  0  0
  182.2050  178.7130  142.5430 O   0  0  0  0  0  0  0  0  0  0  0  0
  183.7750  177.8530  140.9900 C   0  0  0  0  0  2  0  0  0  0  0  0
  184.9350  178.7900  139.9490 S   0  0  0  0  0  0  0  0  0  0  0  0
  186.2550  178.8100  141.2030 C   0  0  0  0  0  2  0  0  0  0  0  0
  187.6150  178.6240  140.5580 C   0  0  0  0  0  2  0  0  0  0  0  0
  188.6170  178.3450  141.5740 N   0  0  0  0  0  2  0  0  0  0  0  0
  188.9850  176.9500  141.4280 C   0  0  0  0  0  2  0  0  0  0  0  0
  186.5540  177.8970  146.6530 C   0  0  0  0  0  2  0  0  0  0  0  0
  188.6190  177.2290  143.8080 N   0  0  0  0  0  0  0  0  0  0  0  0
  190.7440  176.5600  144.4130 C   0  0  0  0  0  3  0  0  0  0  0  0
  188.9670  177.6990  145.9100 C   0  0  0  0  0  0  0  0  0  0  0  0
  189.5570  177.3680  144.7190 C   0  0  0  0  0  0  0  0  0  0  0  0
  189.5370  177.7640  147.2930 C   0  0  0  0  0  2  0  0  0  0  0  0
  187.6180  177.7780  145.6080 C   0  0  0  0  0  0  0  0  0  0  0  0
  188.4250  177.5600  148.3330 C   0  0  0  0  0  2  0  0  0  0  0  0
  189.0250  176.2890  142.7940 C   0  0  2  0  0  3  0  0  0  0  0  0
  187.1660  178.3690  147.9820 C   0  0  0  0  0  2  0  0  0  0  0  0
  187.4130  177.4010  144.3260 N   0  0  0  0  0  0  0  0  0  0  0  0
  190.4140  175.9080  143.1300 N   0  0  0  0  0  0  0  0  0  0  0  0
  179.7180  177.8250  140.2680 S   0  0  0  0  0  0  0  0  0  0  0  0
  180.2380  176.7910  138.8740 C   0  0  0  0  0  2  0  0  0  0  0  0
  181.2580  175.7770  139.3570 C   0  0  0  0  0  2  0  0  0  0  0  0
  181.2670  174.2610  137.5540 O   0  0  0  0  0  0  0  0  0  0  0  0
  181.8950  175.0880  138.1940 C   0  0  0  0  0  0  0  0  0  0  0  0
  183.3190  175.3650  137.8420 C   0  0  0  0  0  2  0  0  0  0  0  0
  184.1240  175.4010  135.5720 O   0  0  0  0  0  0  0  0  0  0  0  0
  183.7510  174.5440  136.6260 C   0  0  1  0  0  3  0  0  0  0  0  0
  185.1760  174.7190  136.2100 C   0  0  2  0  0  3  0  0  0  0  0  0
  185.9890  175.7140  137.0340 C   0  0  0  0  0  2  0  0  0  0  0  0
  188.2860  176.1670  137.1940 C   0  0  0  0  0  2  0  0  0  0  0  0
  188.5550  178.6090  137.0300 C   0  0  0  0  0  0  0  0  0  0  0  0
  189.2860  177.2960  136.9390 C   0  0  1  0  0  3  0  0  0  0  0  0
  186.8020  177.4920  135.7030 C   0  0  0  0  0  2  0  0  0  0  0  0
  190.3960  177.2050  137.9740 C   0  0  0  0  0  1  0  0  0  0  0  0
  189.1180  179.6260  137.4040 O   0  0  0  0  0  0  0  0  0  0  0  0
  187.1380  176.1730  136.2710 N   0  0  0  0  0  0  0  0  0  0  0  0
  187.1130  178.6610  136.6400 C   0  0  0  0  0  2  0  0  0  0  0  0
  1 12  1  0  0  0  0
  3 32  1  0  0  0  0
  3  1  2  0  0  0  0
  4  3  1  0  0  0  0
  5  2  2  0  0  0  0
  5  4  1  0  0  0  0
  6 10  1  0  0  0  0
  6  5  1  1  0  0  0
  7  6  1  0  0  0  0
  8 11  1  0  0  0  0
  9  8  1  0  0  0  0
  9  7  1  0  0  0  0
 11 10  1  0  0  0  0
 12 13  2  0  0  0  0
 14 12  1  0  0  0  0
 15 14  1  0  0  0  0
 15 16  1  0  0  0  0
 17 16  1  0  0  0  0
 17 18  1  0  0  0  0
 19 18  1  0  0  0  0
 20 29  1  0  0  0  0
 21 30  1  0  0  0  0
 21 24  1  0  0  0  0
 22 24  1  0  0  0  0
 23 25  1  0  0  0  0
 24 23  2  0  0  0  0
 25 27  1  0  0  0  0
 26 23  1  0  0  0  0
 26 20  1  0  0  0  0
 28 19  1  6  0  0  0
 28 31  1  0  0  0  0
 28 21  1  0  0  0  0
 29 27  1  0  0  0  0
 30 26  2  0  0  0  0
 31 22  2  0  0  0  0
 33 34  1  0  0  0  0
 33 32  1  0  0  0  0
 35 36  2  0  0  0  0
 36 34  1  0  0  0  0
 37 36  1  0  0  0  0
 38 40  1  0  0  0  0
 38 39  1  0  0  0  0
 39 37  1  1  0  0  0
 40 39  1  0  0  0  0
 40 41  1  1  0  0  0
 43 47  2  0  0  0  0
 44 43  1  0  0  0  0
 44 42  1  0  0  0  0
 44 46  1  1  0  0  0
 45 48  1  0  0  0  0
 45 49  1  0  0  0  0
 48 41  1  0  0  0  0
 48 42  1  0  0  0  0
 49 43  1  0  0  0  0
M  END
>  <MODEL>
4

>  <REMARK>
 VINA RESULT:      -7.9      3.401      8.699
  Name = 
  17 active torsions:
  status: ('A' for Active; 'I' for Inactive)
    1  A    between atoms: C_2  and  C_48
    2  A    between atoms: N_3  and  C_22
    3  A    between atoms: S_8  and  C_16
    4  A    between atoms: S_8  and  C_27
    5  A    between atoms: C_15  and  S_25
    6  A    between atoms: C_16  and  C_43
    7  A    between atoms: C_17  and  S_25
    8  A    between atoms: C_17  and  C_31
    9  A    between atoms: C_21  and  N_30
   10  A    between atoms: C_21  and  C_45
   11  A    between atoms: C_22  and  C_27
   12  A    between atoms: C_23  and  N_36
   13  A    between atoms: C_23  and  C_42
   14  A    between atoms: N_30  and  C_43
   15  A    between atoms: C_31  and  C_41
   16  A    between atoms: C_32  and  C_44
   17  A    between atoms: C_41  and  C_44
                            x       y       z     vdW  Elec       q    Type
                         _______ _______ _______ _____ _____    ______ ____

>  <TORSDO>
F 17

$$$$
=
 OpenBabel10222419223D

 49 54  0  0  1  0  0  0  0  0999 V2000
  186.9380  178.5920  138.8270 N   0  0  0  0  0  0  0  0  0  0  0  0
  184.7920  179.4930  140.2230 O   0  0  0  0  0  0  0  0  0  0  0  0
  186.0730  178.1370  137.9660 C   0  0  0  0  0  0  0  0  0  0  0  0
  184.6740  178.3460  138.1810 N   0  0  0  0  0  2  0  0  0  0  0  0
  184.0810  179.0170  139.2980 C   0  0  0  0  0  0  0  0  0  0  0  0
  182.5940  179.1190  139.3720 C   0  0  2  0  0  3  0  0  0  0  0  0
  182.0630  180.2020  138.4170 C   0  0  0  0  0  2  0  0  0  0  0  0
  180.0160  180.1350  139.9080 C   0  0  0  0  0  2  0  0  0  0  0  0
  180.9410  181.0170  139.0670 C   0  0  0  0  0  2  0  0  0  0  0  0
  182.1890  179.3590  140.6960 O   0  0  0  0  0  0  0  0  0  0  0  0
  180.8050  179.1010  140.7300 C   0  0  0  0  0  2  0  0  0  0  0  0
  188.3710  178.4970  138.7930 C   0  0  0  0  0  0  0  0  0  0  0  0
  189.0790  179.3230  138.1600 O   0  0  0  0  0  0  0  0  0  0  0  0
  189.0420  177.3970  139.5410 C   0  0  0  0  0  2  0  0  0  0  0  0
  190.6830  177.0520  138.8380 S   0  0  0  0  0  0  0  0  0  0  0  0
  191.5370  177.1400  140.4450 C   0  0  0  0  0  2  0  0  0  0  0  0
  190.5470  177.3760  141.5700 C   0  0  0  0  0  2  0  0  0  0  0  0
  190.9490  176.6340  142.7530 N   0  0  0  0  0  2  0  0  0  0  0  0
  190.5890  177.4460  143.9000 C   0  0  0  0  0  2  0  0  0  0  0  0
  184.8190  178.2520  143.4950 C   0  0  0  0  0  2  0  0  0  0  0  0
  188.2450  177.7830  144.4170 N   0  0  0  0  0  0  0  0  0  0  0  0
  188.5030  177.4970  146.6930 C   0  0  0  0  0  3  0  0  0  0  0  0
  186.4260  178.4090  145.4470 C   0  0  0  0  0  0  0  0  0  0  0  0
  187.7570  178.1170  145.5910 C   0  0  0  0  0  0  0  0  0  0  0  0
  185.3630  178.6350  146.4760 C   0  0  0  0  0  2  0  0  0  0  0  0
  186.1920  178.2530  144.0910 C   0  0  0  0  0  0  0  0  0  0  0  0
  183.9810  178.3060  145.8890 C   0  0  0  0  0  2  0  0  0  0  0  0
  189.3510  176.8710  144.5630 C   0  0  2  0  0  3  0  0  0  0  0  0
  183.8160  178.8830  144.4730 C   0  0  0  0  0  2  0  0  0  0  0  0
  187.3050  177.7840  143.4840 N   0  0  0  0  0  0  0  0  0  0  0  0
  189.5730  176.7360  146.0180 N   0  0  0  0  0  0  0  0  0  0  0  0
  186.5550  177.2010  136.5100 S   0  0  0  0  0  0  0  0  0  0  0  0
  185.8580  175.6600  137.1600 C   0  0  0  0  0  2  0  0  0  0  0  0
  186.9250  174.5810  137.1400 C   0  0  0  0  0  2  0  0  0  0  0  0
  186.9950  172.2280  137.2440 O   0  0  0  0  0  0  0  0  0  0  0  0
  186.2950  173.2280  137.2130 C   0  0  0  0  0  0  0  0  0  0  0  0
  184.8090  173.0860  137.1930 C   0  0  0  0  0  2  0  0  0  0  0  0
  183.9360  170.9870  136.4000 O   0  0  0  0  0  0  0  0  0  0  0  0
  184.3540  172.2660  135.9850 C   0  0  1  0  0  3  0  0  0  0  0  0
  182.9140  171.8640  135.9920 C   0  0  2  0  0  3  0  0  0  0  0  0
  182.1110  172.2980  137.2140 C   0  0  0  0  0  2  0  0  0  0  0  0
  181.3860  174.4670  136.6910 C   0  0  0  0  0  2  0  0  0  0  0  0
  179.8770  175.1820  138.5010 C   0  0  0  0  0  0  0  0  0  0  0  0
  180.3120  175.4810  137.0910 C   0  0  1  0  0  3  0  0  0  0  0  0
  179.8770  172.8220  137.7850 C   0  0  0  0  0  2  0  0  0  0  0  0
  180.8940  176.8790  136.9740 C   0  0  0  0  0  1  0  0  0  0  0  0
  179.4830  176.0660  139.2460 O   0  0  0  0  0  0  0  0  0  0  0  0
  180.9480  173.0650  136.8010 N   0  0  0  0  0  0  0  0  0  0  0  0
  179.9210  173.7690  138.9860 C   0  0  0  0  0  2  0  0  0  0  0  0
  3  4  1  0  0  0  0
  3  1  2  0  0  0  0
  4  5  1  0  0  0  0
  5  2  2  0  0  0  0
  6  5  1  1  0  0  0
  6 10  1  0  0  0  0
  7  9  1  0  0  0  0
  7  6  1  0  0  0  0
  8 11  1  0  0  0  0
  9  8  1  0  0  0  0
 10 11  1  0  0  0  0
 12  1  1  0  0  0  0
 12 14  1  0  0  0  0
 13 12  2  0  0  0  0
 15 14  1  0  0  0  0
 15 16  1  0  0  0  0
 16 17  1  0  0  0  0
 17 18  1  0  0  0  0
 18 19  1  0  0  0  0
 20 26  1  0  0  0  0
 20 29  1  0  0  0  0
 21 28  1  0  0  0  0
 21 24  1  0  0  0  0
 23 24  2  0  0  0  0
 23 25  1  0  0  0  0
 24 22  1  0  0  0  0
 26 23  1  0  0  0  0
 27 25  1  0  0  0  0
 28 19  1  6  0  0  0
 28 31  1  0  0  0  0
 29 27  1  0  0  0  0
 30 26  2  0  0  0  0
 30 21  1  0  0  0  0
 31 22  2  0  0  0  0
 32 33  1  0  0  0  0
 32  3  1  0  0  0  0
 34 33  1  0  0  0  0
 34 36  1  0  0  0  0
 36 35  2  0  0  0  0
 37 36  1  0  0  0  0
 39 40  1  0  0  0  0
 39 38  1  0  0  0  0
 39 37  1  1  0  0  0
 40 38  1  0  0  0  0
 40 41  1  1  0  0  0
 42 48  1  0  0  0  0
 42 44  1  0  0  0  0
 43 49  1  0  0  0  0
 43 47  2  0  0  0  0
 44 46  1  1  0  0  0
 44 43  1  0  0  0  0
 45 49  1  0  0  0  0
 48 41  1  0  0  0  0
 48 45  1  0  0  0  0
M  END
>  <MODEL>
5

>  <REMARK>
 VINA RESULT:      -7.8      3.318      7.011
  Name = 
  17 active torsions:
  status: ('A' for Active; 'I' for Inactive)
    1  A    between atoms: C_2  and  C_48
    2  A    between atoms: N_3  and  C_22
    3  A    between atoms: S_8  and  C_16
    4  A    between atoms: S_8  and  C_27
    5  A    between atoms: C_15  and  S_25
    6  A    between atoms: C_16  and  C_43
    7  A    between atoms: C_17  and  S_25
    8  A    between atoms: C_17  and  C_31
    9  A    between atoms: C_21  and  N_30
   10  A    between atoms: C_21  and  C_45
   11  A    between atoms: C_22  and  C_27
   12  A    between atoms: C_23  and  N_36
   13  A    between atoms: C_23  and  C_42
   14  A    between atoms: N_30  and  C_43
   15  A    between atoms: C_31  and  C_41
   16  A    between atoms: C_32  and  C_44
   17  A    between atoms: C_41  and  C_44
                            x       y       z     vdW  Elec       q    Type
                         _______ _______ _______ _____ _____    ______ ____

>  <TORSDO>
F 17

$$$$
=
 OpenBabel10222419223D

 49 54  0  0  1  0  0  0  0  0999 V2000
  186.8210  178.5200  138.2750 N   0  0  0  0  0  0  0  0  0  0  0  0
  184.9930  179.5370  140.0050 O   0  0  0  0  0  0  0  0  0  0  0  0
  185.7990  178.0750  137.6000 C   0  0  0  0  0  0  0  0  0  0  0  0
  184.4700  178.3420  138.0560 N   0  0  0  0  0  2  0  0  0  0  0  0
  184.1120  179.0650  139.2390 C   0  0  0  0  0  0  0  0  0  0  0  0
  182.6670  179.2240  139.5770 C   0  0  2  0  0  3  0  0  0  0  0  0
  182.3490  178.6180  140.9550 C   0  0  0  0  0  2  0  0  0  0  0  0
  179.9660  178.5900  140.0950 C   0  0  0  0  0  2  0  0  0  0  0  0
  181.0160  177.8630  140.9380 C   0  0  0  0  0  2  0  0  0  0  0  0
  181.8670  178.6570  138.5700 O   0  0  0  0  0  0  0  0  0  0  0  0
  180.5650  179.1450  138.7920 C   0  0  0  0  0  2  0  0  0  0  0  0
  188.2200  178.3690  137.9860 C   0  0  0  0  0  0  0  0  0  0  0  0
  188.9010  179.3030  137.4890 O   0  0  0  0  0  0  0  0  0  0  0  0
  188.8890  177.0750  138.2970 C   0  0  0  0  0  2  0  0  0  0  0  0
  190.2040  176.7260  137.0920 S   0  0  0  0  0  0  0  0  0  0  0  0
  191.5470  176.8650  138.3140 C   0  0  0  0  0  2  0  0  0  0  0  0
  191.0800  176.4020  139.6820 C   0  0  0  0  0  2  0  0  0  0  0  0
  191.2990  177.4500  140.6660 N   0  0  0  0  0  2  0  0  0  0  0  0
  190.9060  176.9060  141.9520 C   0  0  0  0  0  2  0  0  0  0  0  0
  189.2790  177.8780  147.4760 C   0  0  0  0  0  2  0  0  0  0  0  0
  189.6130  177.3660  143.9510 N   0  0  0  0  0  0  0  0  0  0  0  0
  187.6500  177.8020  142.8170 C   0  0  0  0  0  3  0  0  0  0  0  0
  187.9520  177.4460  145.3630 C   0  0  0  0  0  0  0  0  0  0  0  0
  188.3030  177.3270  144.0440 C   0  0  0  0  0  0  0  0  0  0  0  0
  186.6150  177.6710  145.9970 C   0  0  0  0  0  2  0  0  0  0  0  0
  189.1640  177.5180  146.0280 C   0  0  0  0  0  0  0  0  0  0  0  0
  186.7870  178.3430  147.3680 C   0  0  0  0  0  2  0  0  0  0  0  0
  190.0200  177.9030  142.6770 C   0  0  2  0  0  3  0  0  0  0  0  0
  187.9230  177.6960  148.1770 C   0  0  0  0  0  2  0  0  0  0  0  0
  190.1760  177.5530  145.1330 N   0  0  0  0  0  0  0  0  0  0  0  0
  188.7730  178.1190  141.9130 N   0  0  0  0  0  0  0  0  0  0  0  0
  185.9790  177.0840  136.1110 S   0  0  0  0  0  0  0  0  0  0  0  0
  185.3070  175.6020  136.9110 C   0  0  0  0  0  2  0  0  0  0  0  0
  186.4420  174.6440  137.2200 C   0  0  0  0  0  2  0  0  0  0  0  0
  186.8520  172.4070  136.6030 O   0  0  0  0  0  0  0  0  0  0  0  0
  186.0230  173.2370  136.9400 C   0  0  0  0  0  0  0  0  0  0  0  0
  184.5830  172.8500  137.0160 C   0  0  0  0  0  2  0  0  0  0  0  0
  183.8500  170.6510  136.3630 O   0  0  0  0  0  0  0  0  0  0  0  0
  184.2060  171.9180  135.8630 C   0  0  1  0  0  3  0  0  0  0  0  0
  182.7910  171.4350  135.8690 C   0  0  2  0  0  3  0  0  0  0  0  0
  181.9340  171.9100  137.0390 C   0  0  0  0  0  2  0  0  0  0  0  0
  181.0030  173.8760  136.1580 C   0  0  0  0  0  2  0  0  0  0  0  0
  179.4960  174.7950  137.8750 C   0  0  0  0  0  0  0  0  0  0  0  0
  179.8560  174.8570  136.4150 C   0  0  1  0  0  3  0  0  0  0  0  0
  179.6810  172.3500  137.6100 C   0  0  0  0  0  2  0  0  0  0  0  0
  180.3090  176.2500  136.0130 C   0  0  0  0  0  1  0  0  0  0  0  0
  179.0490  175.7680  138.4620 O   0  0  0  0  0  0  0  0  0  0  0  0
  180.6950  172.4890  136.5470 N   0  0  0  0  0  0  0  0  0  0  0  0
  179.6800  173.5070  138.6110 C   0  0  0  0  0  2  0  0  0  0  0  0
  3  4  1  0  0  0  0
  3  1  2  0  0  0  0
  4  5  1  0  0  0  0
  5  2  2  0  0  0  0
  6  5  1  6  0  0  0
  6  7  1  0  0  0  0
  8  9  1  0  0  0  0
  9  7  1  0  0  0  0
 10 11  1  0  0  0  0
 10  6  1  0  0  0  0
 11  8  1  0  0  0  0
 12  1  1  0  0  0  0
 12 14  1  0  0  0  0
 13 12  2  0  0  0  0
 15 14  1  0  0  0  0
 15 16  1  0  0  0  0
 16 17  1  0  0  0  0
 17 18  1  0  0  0  0
 18 19  1  0  0  0  0
 20 29  1  0  0  0  0
 21 24  1  0  0  0  0
 21 30  1  0  0  0  0
 22 24  1  0  0  0  0
 23 25  1  0  0  0  0
 23 26  1  0  0  0  0
 24 23  2  0  0  0  0
 25 27  1  0  0  0  0
 26 20  1  0  0  0  0
 27 29  1  0  0  0  0
 28 19  1  6  0  0  0
 28 21  1  0  0  0  0
 30 26  2  0  0  0  0
 31 28  1  0  0  0  0
 31 22  2  0  0  0  0
 32 33  1  0  0  0  0
 32  3  1  0  0  0  0
 33 34  1  0  0  0  0
 35 36  2  0  0  0  0
 36 37  1  0  0  0  0
 36 34  1  0  0  0  0
 39 40  1  0  0  0  0
 39 38  1  0  0  0  0
 39 37  1  1  0  0  0
 40 38  1  0  0  0  0
 40 41  1  1  0  0  0
 42 44  1  0  0  0  0
 42 48  1  0  0  0  0
 43 47  2  0  0  0  0
 43 49  1  0  0  0  0
 44 46  1  1  0  0  0
 44 43  1  0  0  0  0
 45 49  1  0  0  0  0
 48 41  1  0  0  0  0
 48 45  1  0  0  0  0
M  END
>  <MODEL>
6

>  <REMARK>
 VINA RESULT:      -7.8      3.095      7.042
  Name = 
  17 active torsions:
  status: ('A' for Active; 'I' for Inactive)
    1  A    between atoms: C_2  and  C_48
    2  A    between atoms: N_3  and  C_22
    3  A    between atoms: S_8  and  C_16
    4  A    between atoms: S_8  and  C_27
    5  A    between atoms: C_15  and  S_25
    6  A    between atoms: C_16  and  C_43
    7  A    between atoms: C_17  and  S_25
    8  A    between atoms: C_17  and  C_31
    9  A    between atoms: C_21  and  N_30
   10  A    between atoms: C_21  and  C_45
   11  A    between atoms: C_22  and  C_27
   12  A    between atoms: C_23  and  N_36
   13  A    between atoms: C_23  and  C_42
   14  A    between atoms: N_30  and  C_43
   15  A    between atoms: C_31  and  C_41
   16  A    between atoms: C_32  and  C_44
   17  A    between atoms: C_41  and  C_44
                            x       y       z     vdW  Elec       q    Type
                         _______ _______ _______ _____ _____    ______ ____

>  <TORSDO>
F 17

$$$$
=
 OpenBabel10222419223D

 49 54  0  0  1  0  0  0  0  0999 V2000
  186.8960  178.4910  139.2940 N   0  0  0  0  0  0  0  0  0  0  0  0
  184.6160  179.7500  140.0570 O   0  0  0  0  0  0  0  0  0  0  0  0
  186.1750  177.9490  138.3540 C   0  0  0  0  0  0  0  0  0  0  0  0
  184.7870  178.2790  138.2390 N   0  0  0  0  0  2  0  0  0  0  0  0
  184.0560  179.1680  139.0900 C   0  0  0  0  0  0  0  0  0  0  0  0
  182.6000  179.3720  138.8380 C   0  0  2  0  0  3  0  0  0  0  0  0
  182.0710  178.3730  137.7940 C   0  0  0  0  0  2  0  0  0  0  0  0
  180.1910  180.0520  137.5330 C   0  0  0  0  0  2  0  0  0  0  0  0
  181.0990  179.0460  136.8210 C   0  0  0  0  0  2  0  0  0  0  0  0
  182.3570  180.7000  138.4470 O   0  0  0  0  0  0  0  0  0  0  0  0
  180.9660  180.8890  138.5650 C   0  0  0  0  0  2  0  0  0  0  0  0
  188.2930  178.3030  139.5720 C   0  0  0  0  0  0  0  0  0  0  0  0
  189.1900  178.8510  138.8800 O   0  0  0  0  0  0  0  0  0  0  0  0
  188.6930  177.4450  140.7220 C   0  0  0  0  0  2  0  0  0  0  0  0
  190.4990  177.4510  140.9290 S   0  0  0  0  0  0  0  0  0  0  0  0
  190.4720  176.3350  142.3680 C   0  0  0  0  0  2  0  0  0  0  0  0
  191.4190  176.8240  143.4490 C   0  0  0  0  0  2  0  0  0  0  0  0
  190.7450  177.7890  144.3020 N   0  0  0  0  0  2  0  0  0  0  0  0
  190.6550  177.1920  145.6210 C   0  0  0  0  0  2  0  0  0  0  0  0
  185.4090  178.2640  143.2880 C   0  0  0  0  0  2  0  0  0  0  0  0
  188.3050  177.7050  145.3140 N   0  0  0  0  0  0  0  0  0  0  0  0
  187.7940  177.6330  147.5640 C   0  0  0  0  0  3  0  0  0  0  0  0
  186.3110  178.5270  145.6410 C   0  0  0  0  0  0  0  0  0  0  0  0
  187.4960  178.1800  146.2340 C   0  0  0  0  0  0  0  0  0  0  0  0
  184.9960  178.9110  146.2440 C   0  0  0  0  0  2  0  0  0  0  0  0
  186.5130  178.2500  144.2990 C   0  0  0  0  0  0  0  0  0  0  0  0
  183.8540  178.6010  145.2650 C   0  0  0  0  0  2  0  0  0  0  0  0
  189.2250  176.7530  145.8830 C   0  0  2  0  0  3  0  0  0  0  0  0
  184.2010  179.0420  143.8330 C   0  0  0  0  0  2  0  0  0  0  0  0
  187.7190  177.6640  144.1280 N   0  0  0  0  0  0  0  0  0  0  0  0
  188.9570  176.7520  147.3370 N   0  0  0  0  0  0  0  0  0  0  0  0
  186.8390  176.7490  137.1920 S   0  0  0  0  0  0  0  0  0  0  0  0
  185.2790  175.8300  137.1150 C   0  0  0  0  0  2  0  0  0  0  0  0
  185.5700  174.3430  137.2080 C   0  0  0  0  0  2  0  0  0  0  0  0
  184.4340  173.6790  135.2540 O   0  0  0  0  0  0  0  0  0  0  0  0
  185.4960  173.7150  135.8540 C   0  0  0  0  0  0  0  0  0  0  0  0
  186.7050  173.0810  135.2490 C   0  0  0  0  0  2  0  0  0  0  0  0
  188.8450  172.0940  135.7450 O   0  0  0  0  0  0  0  0  0  0  0  0
  187.7510  172.7690  136.3200 C   0  0  1  0  0  3  0  0  0  0  0  0
  189.0790  173.4280  136.1260 C   0  0  2  0  0  3  0  0  0  0  0  0
  189.2150  174.2890  134.8740 C   0  0  0  0  0  2  0  0  0  0  0  0
  191.3760  174.0800  135.7660 C   0  0  0  0  0  2  0  0  0  0  0  0
  191.8410  176.1440  137.0250 C   0  0  0  0  0  0  0  0  0  0  0  0
  192.4780  174.9310  136.4000 C   0  0  1  0  0  3  0  0  0  0  0  0
  190.5130  176.2650  134.9510 C   0  0  0  0  0  2  0  0  0  0  0  0
  193.2060  174.0910  137.4360 C   0  0  0  0  0  1  0  0  0  0  0  0
  192.3270  176.6820  138.0070 O   0  0  0  0  0  0  0  0  0  0  0  0
  190.5700  174.8030  134.7660 N   0  0  0  0  0  0  0  0  0  0  0  0
  190.5960  176.7020  136.4140 C   0  0  0  0  0  2  0  0  0  0  0  0
  1 12  1  0  0  0  0
  3  1  2  0  0  0  0
  4  3  1  0  0  0  0
  4  5  1  0  0  0  0
  5  2  2  0  0  0  0
  6  5  1  6  0  0  0
  7  6  1  0  0  0  0
  8 11  1  0  0  0  0
  9  8  1  0  0  0  0
  9  7  1  0  0  0  0
 10 11  1  0  0  0  0
 10  6  1  0  0  0  0
 12 14  1  0  0  0  0
 13 12  2  0  0  0  0
 14 15  1  0  0  0  0
 15 16  1  0  0  0  0
 16 17  1  0  0  0  0
 17 18  1  0  0  0  0
 18 19  1  0  0  0  0
 20 29  1  0  0  0  0
 20 26  1  0  0  0  0
 21 28  1  0  0  0  0
 21 24  1  0  0  0  0
 23 24  2  0  0  0  0
 23 25  1  0  0  0  0
 24 22  1  0  0  0  0
 26 23  1  0  0  0  0
 27 25  1  0  0  0  0
 28 19  1  1  0  0  0
 28 31  1  0  0  0  0
 29 27  1  0  0  0  0
 30 26  2  0  0  0  0
 30 21  1  0  0  0  0
 31 22  2  0  0  0  0
 32  3  1  0  0  0  0
 33 32  1  0  0  0  0
 33 34  1  0  0  0  0
 35 36  2  0  0  0  0
 36 34  1  0  0  0  0
 37 36  1  0  0  0  0
 38 40  1  0  0  0  0
 38 39  1  0  0  0  0
 39 37  1  6  0  0  0
 40 41  1  6  0  0  0
 40 39  1  0  0  0  0
 42 44  1  0  0  0  0
 43 47  2  0  0  0  0
 44 43  1  0  0  0  0
 44 46  1  1  0  0  0
 45 49  1  0  0  0  0
 48 41  1  0  0  0  0
 48 45  1  0  0  0  0
 48 42  1  0  0  0  0
 49 43  1  0  0  0  0
M  END
>  <MODEL>
7

>  <REMARK>
 VINA RESULT:      -7.8      2.587      8.265
  Name = 
  17 active torsions:
  status: ('A' for Active; 'I' for Inactive)
    1  A    between atoms: C_2  and  C_48
    2  A    between atoms: N_3  and  C_22
    3  A    between atoms: S_8  and  C_16
    4  A    between atoms: S_8  and  C_27
    5  A    between atoms: C_15  and  S_25
    6  A    between atoms: C_16  and  C_43
    7  A    between atoms: C_17  and  S_25
    8  A    between atoms: C_17  and  C_31
    9  A    between atoms: C_21  and  N_30
   10  A    between atoms: C_21  and  C_45
   11  A    between atoms: C_22  and  C_27
   12  A    between atoms: C_23  and  N_36
   13  A    between atoms: C_23  and  C_42
   14  A    between atoms: N_30  and  C_43
   15  A    between atoms: C_31  and  C_41
   16  A    between atoms: C_32  and  C_44
   17  A    between atoms: C_41  and  C_44
                            x       y       z     vdW  Elec       q    Type
                         _______ _______ _______ _____ _____    ______ ____

>  <TORSDO>
F 17

$$$$
=
 OpenBabel10222419223D

 49 54  0  0  1  0  0  0  0  0999 V2000
  188.6770  177.7660  141.3480 N   0  0  0  0  0  0  0  0  0  0  0  0
  189.8090  176.9460  143.6750 O   0  0  0  0  0  0  0  0  0  0  0  0
  187.6340  178.0690  142.0680 C   0  0  0  0  0  0  0  0  0  0  0  0
  187.6570  177.8580  143.4830 N   0  0  0  0  0  2  0  0  0  0  0  0
  188.7410  177.3070  144.2370 C   0  0  0  0  0  0  0  0  0  0  0  0
  188.5780  177.1300  145.7100 C   0  0  2  0  0  3  0  0  0  0  0  0
  187.1530  177.4960  146.1590 C   0  0  0  0  0  2  0  0  0  0  0  0
  188.2210  177.7380  148.4440 C   0  0  0  0  0  2  0  0  0  0  0  0
  187.1650  178.2780  147.4750 C   0  0  0  0  0  2  0  0  0  0  0  0
  189.5420  177.8860  146.3990 O   0  0  0  0  0  0  0  0  0  0  0  0
  189.5370  177.4030  147.7220 C   0  0  0  0  0  2  0  0  0  0  0  0
  188.8580  177.9090  139.9300 C   0  0  0  0  0  0  0  0  0  0  0  0
  188.8700  179.0350  139.3700 O   0  0  0  0  0  0  0  0  0  0  0  0
  189.0550  176.6880  139.0990 C   0  0  0  0  0  2  0  0  0  0  0  0
  190.3960  176.9400  137.8970 S   0  0  0  0  0  0  0  0  0  0  0  0
  190.6320  175.1610  137.5860 C   0  0  0  0  0  2  0  0  0  0  0  0
  189.9440  174.7420  136.3000 C   0  0  0  0  0  2  0  0  0  0  0  0
  188.7040  174.0450  136.6010 N   0  0  0  0  0  2  0  0  0  0  0  0
  187.6220  174.9390  136.2330 C   0  0  0  0  0  2  0  0  0  0  0  0
  181.9220  173.8600  136.9060 C   0  0  0  0  0  2  0  0  0  0  0  0
  185.4590  173.8520  136.3650 N   0  0  0  0  0  0  0  0  0  0  0  0
  186.2170  171.8130  135.5920 C   0  0  0  0  0  3  0  0  0  0  0  0
  183.9280  172.3300  136.6830 C   0  0  0  0  0  0  0  0  0  0  0  0
  185.2520  172.5550  136.4140 C   0  0  0  0  0  0  0  0  0  0  0  0
  183.1270  171.0670  136.6390 C   0  0  0  0  0  2  0  0  0  0  0  0
  183.3940  173.6000  136.8230 C   0  0  0  0  0  0  0  0  0  0  0  0
  181.6440  171.3890  136.4000 C   0  0  0  0  0  2  0  0  0  0  0  0
  186.5550  174.1630  135.4820 C   0  0  2  0  0  3  0  0  0  0  0  0
  181.1740  172.5680  137.2690 C   0  0  0  0  0  2  0  0  0  0  0  0
  184.3340  174.5280  136.5390 N   0  0  0  0  0  0  0  0  0  0  0  0
  187.0960  172.8610  135.0370 N   0  0  0  0  0  0  0  0  0  0  0  0
  186.1180  178.7170  141.3520 S   0  0  0  0  0  0  0  0  0  0  0  0
  185.1500  178.3340  142.8370 C   0  0  0  0  0  2  0  0  0  0  0  0
  184.6590  179.6280  143.4590 C   0  0  0  0  0  2  0  0  0  0  0  0
  183.6140  178.9300  145.4520 O   0  0  0  0  0  0  0  0  0  0  0  0
  183.4670  179.3670  144.3220 C   0  0  0  0  0  0  0  0  0  0  0  0
  182.0890  179.5880  143.7920 C   0  0  0  0  0  2  0  0  0  0  0  0
  179.9140  178.7150  144.3430 O   0  0  0  0  0  0  0  0  0  0  0  0
  181.2240  178.3420  143.9840 C   0  0  1  0  0  3  0  0  0  0  0  0
  180.0730  178.2110  143.0380 C   0  0  2  0  0  3  0  0  0  0  0  0
  179.9040  179.3520  142.0390 C   0  0  0  0  0  2  0  0  0  0  0  0
  179.6460  177.3840  140.7880 C   0  0  0  0  0  2  0  0  0  0  0  0
  181.8530  176.8290  139.8480 C   0  0  0  0  0  0  0  0  0  0  0  0
  180.3780  176.5520  139.7330 C   0  0  1  0  0  3  0  0  0  0  0  0
  181.1860  179.1940  140.0580 C   0  0  0  0  0  2  0  0  0  0  0  0
  180.0680  175.0830  139.9710 C   0  0  0  0  0  1  0  0  0  0  0  0
  182.6840  175.9820  139.5600 O   0  0  0  0  0  0  0  0  0  0  0  0
  179.9000  178.8310  140.6830 N   0  0  0  0  0  0  0  0  0  0  0  0
  182.3000  178.1780  140.3130 C   0  0  0  0  0  2  0  0  0  0  0  0
  1  3  2  0  0  0  0
  2  5  2  0  0  0  0
  3  4  1  0  0  0  0
  4  5  1  0  0  0  0
  6  5  1  6  0  0  0
  6  7  1  0  0  0  0
  6 10  1  0  0  0  0
  7  9  1  0  0  0  0
  9  8  1  0  0  0  0
 10 11  1  0  0  0  0
 11  8  1  0  0  0  0
 12  1  1  0  0  0  0
 13 12  2  0  0  0  0
 14 12  1  0  0  0  0
 15 14  1  0  0  0  0
 16 15  1  0  0  0  0
 17 18  1  0  0  0  0
 17 16  1  0  0  0  0
 19 18  1  0  0  0  0
 20 29  1  0  0  0  0
 21 24  1  0  0  0  0
 21 30  1  0  0  0  0
 22 24  1  0  0  0  0
 23 26  1  0  0  0  0
 24 23  2  0  0  0  0
 25 23  1  0  0  0  0
 26 20  1  0  0  0  0
 27 25  1  0  0  0  0
 27 29  1  0  0  0  0
 28 19  1  1  0  0  0
 28 21  1  0  0  0  0
 30 26  2  0  0  0  0
 31 28  1  0  0  0  0
 31 22  2  0  0  0  0
 32  3  1  0  0  0  0
 32 33  1  0  0  0  0
 33 34  1  0  0  0  0
 34 36  1  0  0  0  0
 36 35  2  0  0  0  0
 37 36  1  0  0  0  0
 39 37  1  6  0  0  0
 39 38  1  0  0  0  0
 40 41  1  6  0  0  0
 40 39  1  0  0  0  0
 40 38  1  0  0  0  0
 43 49  1  0  0  0  0
 44 43  1  0  0  0  0
 44 46  1  1  0  0  0
 44 42  1  0  0  0  0
 45 49  1  0  0  0  0
 45 48  1  0  0  0  0
 47 43  2  0  0  0  0
 48 42  1  0  0  0  0
 48 41  1  0  0  0  0
M  END
>  <MODEL>
8

>  <REMARK>
 VINA RESULT:      -7.7      3.024      9.201
  Name = 
  17 active torsions:
  status: ('A' for Active; 'I' for Inactive)
    1  A    between atoms: C_2  and  C_48
    2  A    between atoms: N_3  and  C_22
    3  A    between atoms: S_8  and  C_16
    4  A    between atoms: S_8  and  C_27
    5  A    between atoms: C_15  and  S_25
    6  A    between atoms: C_16  and  C_43
    7  A    between atoms: C_17  and  S_25
    8  A    between atoms: C_17  and  C_31
    9  A    between atoms: C_21  and  N_30
   10  A    between atoms: C_21  and  C_45
   11  A    between atoms: C_22  and  C_27
   12  A    between atoms: C_23  and  N_36
   13  A    between atoms: C_23  and  C_42
   14  A    between atoms: N_30  and  C_43
   15  A    between atoms: C_31  and  C_41
   16  A    between atoms: C_32  and  C_44
   17  A    between atoms: C_41  and  C_44
                            x       y       z     vdW  Elec       q    Type
                         _______ _______ _______ _____ _____    ______ ____

>  <TORSDO>
F 17

$$$$
=
 OpenBabel10222419223D

 49 54  0  0  1  0  0  0  0  0999 V2000
  190.3510  175.7430  138.2300 N   0  0  0  0  0  0  0  0  0  0  0  0
  189.5390  173.2430  137.5510 O   0  0  0  0  0  0  0  0  0  0  0  0
  189.5310  176.1610  137.3080 C   0  0  0  0  0  0  0  0  0  0  0  0
  188.7500  175.2190  136.5650 N   0  0  0  0  0  2  0  0  0  0  0  0
  188.7790  173.7950  136.7130 C   0  0  0  0  0  0  0  0  0  0  0  0
  187.9120  172.9610  135.8290 C   0  0  2  0  0  3  0  0  0  0  0  0
  186.5240  173.6000  135.6500 C   0  0  0  0  0  2  0  0  0  0  0  0
  185.8280  171.2570  134.9800 C   0  0  0  0  0  2  0  0  0  0  0  0
  185.4150  172.5450  135.6960 C   0  0  0  0  0  2  0  0  0  0  0  0
  187.8140  171.6550  136.3380 O   0  0  0  0  0  0  0  0  0  0  0  0
  187.2840  170.8730  135.2940 C   0  0  0  0  0  2  0  0  0  0  0  0
  191.2080  176.5170  139.0840 C   0  0  0  0  0  0  0  0  0  0  0  0
  192.4260  176.6940  138.8220 O   0  0  0  0  0  0  0  0  0  0  0  0
  190.6350  177.1440  140.3080 C   0  0  0  0  0  2  0  0  0  0  0  0
  191.9360  177.4540  141.5390 S   0  0  0  0  0  0  0  0  0  0  0  0
  190.7660  177.6810  142.9160 C   0  0  0  0  0  2  0  0  0  0  0  0
  191.4820  177.6010  144.2520 C   0  0  0  0  0  2  0  0  0  0  0  0
  190.7420  176.7450  145.1640 N   0  0  0  0  0  2  0  0  0  0  0  0
  189.9640  177.6190  146.0220 C   0  0  0  0  0  2  0  0  0  0  0  0
  185.1260  178.2160  142.8060 C   0  0  0  0  0  2  0  0  0  0  0  0
  187.6760  177.9750  145.3050 N   0  0  0  0  0  0  0  0  0  0  0  0
  186.8100  178.0440  147.4430 C   0  0  0  0  0  3  0  0  0  0  0  0
  185.6220  178.7060  145.2410 C   0  0  0  0  0  0  0  0  0  0  0  0
  186.7080  178.4720  146.0420 C   0  0  0  0  0  0  0  0  0  0  0  0
  184.2110  179.0610  145.5950 C   0  0  0  0  0  2  0  0  0  0  0  0
  186.0510  178.3410  143.9770 C   0  0  0  0  0  0  0  0  0  0  0  0
  183.2580  178.6140  144.4760 C   0  0  0  0  0  2  0  0  0  0  0  0
  188.5320  177.1210  146.0900 C   0  0  2  0  0  3  0  0  0  0  0  0
  183.8130  178.9650  143.0860 C   0  0  0  0  0  2  0  0  0  0  0  0
  187.2920  177.8120  144.0490 N   0  0  0  0  0  0  0  0  0  0  0  0
  188.0310  177.2150  147.4780 N   0  0  0  0  0  0  0  0  0  0  0  0
  189.3560  177.8980  136.8820 S   0  0  0  0  0  0  0  0  0  0  0  0
  188.0020  177.5680  135.7220 C   0  0  0  0  0  2  0  0  0  0  0  0
  186.8040  178.4190  136.0980 C   0  0  0  0  0  2  0  0  0  0  0  0
  186.4910  178.3340  138.4320 O   0  0  0  0  0  0  0  0  0  0  0  0
  186.1640  177.8930  137.3420 C   0  0  0  0  0  0  0  0  0  0  0  0
  185.1640  176.7870  137.2660 C   0  0  0  0  0  2  0  0  0  0  0  0
  183.4160  175.8660  135.8890 O   0  0  0  0  0  0  0  0  0  0  0  0
  184.1620  177.0340  136.1370 C   0  0  1  0  0  3  0  0  0  0  0  0
  182.7230  176.9140  136.5230 C   0  0  2  0  0  3  0  0  0  0  0  0
  182.4560  176.5300  137.9750 C   0  0  0  0  0  2  0  0  0  0  0  0
  181.2540  178.5020  137.5640 C   0  0  0  0  0  2  0  0  0  0  0  0
  182.4410  180.3260  138.7150 C   0  0  0  0  0  0  0  0  0  0  0  0
  181.1350  179.9400  138.0740 C   0  0  1  0  0  3  0  0  0  0  0  0
  182.3630  178.0900  139.7500 C   0  0  0  0  0  2  0  0  0  0  0  0
  180.8010  180.8470  136.9020 C   0  0  0  0  0  1  0  0  0  0  0  0
  182.8310  181.4830  138.7160 O   0  0  0  0  0  0  0  0  0  0  0  0
  181.6140  177.5290  138.6100 N   0  0  0  0  0  0  0  0  0  0  0  0
  183.2640  179.2670  139.3740 C   0  0  0  0  0  2  0  0  0  0  0  0
  1 12  1  0  0  0  0
  3  1  2  0  0  0  0
  4  5  1  0  0  0  0
  4  3  1  0  0  0  0
  5  2  2  0  0  0  0
  6 10  1  0  0  0  0
  6  5  1  1  0  0  0
  7  9  1  0  0  0  0
  7  6  1  0  0  0  0
  8 11  1  0  0  0  0
  8  9  1  0  0  0  0
 11 10  1  0  0  0  0
 12 14  1  0  0  0  0
 13 12  2  0  0  0  0
 14 15  1  0  0  0  0
 15 16  1  0  0  0  0
 16 17  1  0  0  0  0
 17 18  1  0  0  0  0
 18 19  1  0  0  0  0
 20 29  1  0  0  0  0
 20 26  1  0  0  0  0
 21 24  1  0  0  0  0
 21 28  1  0  0  0  0
 22 31  2  0  0  0  0
 23 25  1  0  0  0  0
 23 24  2  0  0  0  0
 24 22  1  0  0  0  0
 26 30  2  0  0  0  0
 26 23  1  0  0  0  0
 27 25  1  0  0  0  0
 28 19  1  1  0  0  0
 28 31  1  0  0  0  0
 29 27  1  0  0  0  0
 30 21  1  0  0  0  0
 32  3  1  0  0  0  0
 33 34  1  0  0  0  0
 33 32  1  0  0  0  0
 34 36  1  0  0  0  0
 36 35  2  0  0  0  0
 37 36  1  0  0  0  0
 38 39  1  0  0  0  0
 38 40  1  0  0  0  0
 39 40  1  0  0  0  0
 39 37  1  1  0  0  0
 40 41  1  1  0  0  0
 41 48  1  0  0  0  0
 42 44  1  0  0  0  0
 42 48  1  0  0  0  0
 43 47  2  0  0  0  0
 43 49  1  0  0  0  0
 44 46  1  6  0  0  0
 44 43  1  0  0  0  0
 48 45  1  0  0  0  0
 49 45  1  0  0  0  0
M  END
>  <MODEL>
9

>  <REMARK>
 VINA RESULT:      -7.7      2.752      5.004
  Name = 
  17 active torsions:
  status: ('A' for Active; 'I' for Inactive)
    1  A    between atoms: C_2  and  C_48
    2  A    between atoms: N_3  and  C_22
    3  A    between atoms: S_8  and  C_16
    4  A    between atoms: S_8  and  C_27
    5  A    between atoms: C_15  and  S_25
    6  A    between atoms: C_16  and  C_43
    7  A    between atoms: C_17  and  S_25
    8  A    between atoms: C_17  and  C_31
    9  A    between atoms: C_21  and  N_30
   10  A    between atoms: C_21  and  C_45
   11  A    between atoms: C_22  and  C_27
   12  A    between atoms: C_23  and  N_36
   13  A    between atoms: C_23  and  C_42
   14  A    between atoms: N_30  and  C_43
   15  A    between atoms: C_31  and  C_41
   16  A    between atoms: C_32  and  C_44
   17  A    between atoms: C_41  and  C_44
                            x       y       z     vdW  Elec       q    Type
                         _______ _______ _______ _____ _____    ______ ____

>  <TORSDO>
F 17

$$$$
