=
 OpenBabel10222418403D

 66 75  0  0  1  0  0  0  0  0999 V2000
  185.1280  178.5560  140.4880 C   0  0  0  0  0  0  0  0  0  0  0  0
  187.2400  178.2840  141.6590 C   0  0  0  0  0  0  0  0  0  0  0  0
  188.5980  177.7920  144.0860 C   0  0  0  0  0  0  0  0  0  0  0  0
  186.5450  178.5220  140.4590 C   0  0  0  0  0  0  0  0  0  0  0  0
  189.3120  178.0200  142.8970 C   0  0  0  0  0  3  0  0  0  0  0  0
  186.5150  178.0440  142.8480 C   0  0  0  0  0  0  0  0  0  0  0  0
  185.1570  178.0590  142.8330 N   0  0  0  0  0  0  0  0  0  0  0  0
  188.6410  178.2630  141.6960 C   0  0  0  0  0  3  0  0  0  0  0  0
  187.1940  177.7970  144.0440 C   0  0  0  0  0  3  0  0  0  0  0  0
  184.4620  178.3150  141.6960 C   0  0  0  0  0  3  0  0  0  0  0  0
  190.5260  177.0150  147.8520 C   0  0  0  0  0  3  0  0  0  0  0  0
  189.2460  177.5650  147.8040 C   0  0  0  0  0  3  0  0  0  0  0  0
  188.6420  177.8120  146.5710 C   0  0  0  0  0  3  0  0  0  0  0  0
  190.6080  176.9650  145.4190 C   0  0  0  0  0  0  0  0  0  0  0  0
  191.2020  176.7200  146.6690 C   0  0  0  0  0  3  0  0  0  0  0  0
  189.3020  177.5150  145.3660 C   0  0  0  0  0  0  0  0  0  0  0  0
  191.3090  176.6860  144.2380 O   0  0  0  0  0  0  0  0  0  0  0  0
  191.8060  175.3940  143.9180 C   0  0  0  0  0  1  0  0  0  0  0  0
  187.3010  178.7290  139.2520 N   0  0  0  0  0  2  0  0  0  0  0  0
  189.2080  178.1910  136.8530 C   0  0  0  0  0  2  0  0  0  0  0  0
  187.7750  177.6760  138.3670 C   0  0  2  0  0  3  0  0  0  0  0  0
  189.2910  177.7230  138.2960 C   0  0  0  0  0  2  0  0  0  0  0  0
  187.6940  178.1420  136.9220 C   0  0  2  0  0  3  0  0  0  0  0  0
  187.1770  177.0550  136.0310 C   0  0  0  0  0  0  0  0  0  0  0  0
  185.9310  176.8670  135.9510 O   0  0  0  0  0  0  0  0  0  0  0  0
  188.0610  176.2820  135.2710 O   0  0  0  0  0  0  0  0  0  0  0  0
  190.0340  174.9170  135.2220 C   0  0  1  0  0  3  0  0  0  0  0  0
  188.8910  174.1510  134.5940 C   0  0  0  0  0  2  0  0  0  0  0  0
  188.6270  175.0760  135.7620 C   0  0  2  0  0  3  0  0  0  0  0  0
  190.8270  173.9580  136.0980 C   0  0  0  0  0  2  0  0  0  0  0  0
  193.0010  176.3500  137.7170 C   0  0  0  0  0  2  0  0  0  0  0  0
  192.3100  174.3050  136.2120 C   0  0  2  0  0  0  0  0  0  0  0  0
  194.6040  174.2030  135.1190 C   0  0  0  0  0  2  0  0  0  0  0  0
  194.4180  173.8190  137.5610 C   0  0  0  0  0  2  0  0  0  0  0  0
  193.1000  173.8520  134.9640 C   0  0  0  0  0  2  0  0  0  0  0  0
  194.8770  174.8380  136.4990 C   0  0  2  0  0  3  0  0  0  0  0  0
  192.9060  173.5260  137.4100 C   0  0  0  0  0  2  0  0  0  0  0  0
  194.0120  176.1210  136.6030 C   0  0  2  0  0  0  0  0  0  0  0  0
  194.4550  177.2620  135.9380 O   0  0  0  0  0  1  0  0  0  0  0  0
  192.5220  175.8460  136.3520 C   0  0  2  0  0  3  0  0  0  0  0  0
  184.3090  178.9340  139.2960 C   0  0  0  0  0  2  0  0  0  0  0  0
  183.7630  177.6990  138.5960 C   0  0  0  0  0  2  0  0  0  0  0  0
  182.3310  177.8420  138.3700 N   0  0  0  0  0  0  0  0  0  0  0  0
  180.9230  179.3210  137.1020 C   0  0  0  0  0  0  0  0  0  0  0  0
  181.8170  178.3690  137.1390 C   0  0  0  0  0  3  0  0  0  0  0  0
  180.0300  180.2730  137.0450 C   0  0  0  0  0  3  0  0  0  0  0  0
  180.3990  181.6620  136.7550 C   0  0  0  0  0  0  0  0  0  0  0  0
  179.9360  182.3280  135.7460 N   0  0  0  0  0  0  0  0  0  0  0  0
  181.2860  182.4020  137.5820 N   0  0  0  0  0  0  0  0  0  0  0  0
  181.3490  183.5620  137.0280 C   0  0  0  0  0  0  0  0  0  0  0  0
  180.5120  183.6610  135.8030 C   0  0  0  0  0  2  0  0  0  0  0  0
  182.1330  184.6260  137.5560 N   0  0  0  0  0  1  0  0  0  0  0  0
  181.4390  177.2410  139.2710 N   0  0  0  0  0  2  0  0  0  0  0  0
  181.5450  175.8530  139.0990 N   0  0  0  0  0  2  0  0  0  0  0  0
  180.2490  175.3820  138.6510 C   0  0  0  0  0  2  0  0  0  0  0  0
  180.1500  173.9470  138.8740 N   0  0  0  0  0  2  0  0  0  0  0  0
  179.6970  173.3610  137.6250 C   0  0  1  0  0  3  0  0  0  0  0  0
  179.2880  173.8430  135.3210 O   0  0  0  0  0  1  0  0  0  0  0  0
  179.8330  174.3690  136.4930 C   0  0  0  0  0  2  0  0  0  0  0  0
  180.4610  172.0690  137.3360 C   0  0  0  0  0  2  0  0  0  0  0  0
  181.7500  172.3190  136.5680 C   0  0  2  0  0  3  0  0  0  0  0  0
  182.3360  171.0820  136.2500 O   0  0  0  0  0  0  0  0  0  0  0  0
  182.8990  171.7840  137.3320 C   0  0  1  0  0  3  0  0  0  0  0  0
  184.4870  173.7480  137.3150 N   0  0  0  0  0  1  0  0  0  0  0  0
  184.1710  172.4260  136.8910 C   0  0  0  0  0  0  0  0  0  0  0  0
  184.9550  171.8120  136.1190 O   0  0  0  0  0  0  0  0  0  0  0  0
  1 10  1  0  0  0  0
  2  8  2  0  0  0  0
  2  6  1  0  0  0  0
  3 16  1  0  0  0  0
  4  1  2  0  0  0  0
  4  2  1  0  0  0  0
  5  3  2  0  0  0  0
  6  9  2  0  0  0  0
  7  6  1  0  0  0  0
  8  5  1  0  0  0  0
  9  3  1  0  0  0  0
 10  7  2  0  0  0  0
 12 11  1  0  0  0  0
 13 12  2  0  0  0  0
 14 15  1  0  0  0  0
 15 11  2  0  0  0  0
 16 14  2  0  0  0  0
 16 13  1  0  0  0  0
 17 14  1  0  0  0  0
 18 17  1  0  0  0  0
 19  4  1  0  0  0  0
 20 23  1  0  0  0  0
 20 22  1  0  0  0  0
 21 19  1  1  0  0  0
 22 21  1  0  0  0  0
 23 24  1  6  0  0  0
 23 21  1  0  0  0  0
 25 24  2  0  0  0  0
 26 24  1  0  0  0  0
 27 29  1  0  0  0  0
 27 30  1  1  0  0  0
 28 27  1  0  0  0  0
 28 29  1  0  0  0  0
 29 26  1  6  0  0  0
 32 30  1  6  0  0  0
 32 40  1  0  0  0  0
 32 37  1  0  0  0  0
 35 33  1  0  0  0  0
 35 32  1  0  0  0  0
 36 33  1  6  0  0  0
 36 38  1  0  0  0  0
 36 34  1  0  0  0  0
 37 34  1  0  0  0  0
 38 39  1  6  0  0  0
 38 31  1  0  0  0  0
 40 38  1  0  0  0  0
 40 31  1  1  0  0  0
 41  1  1  0  0  0  0
 42 41  1  0  0  0  0
 43 42  1  0  0  0  0
 43 53  1  0  0  0  0
 44 45  2  0  0  0  0
 45 43  1  0  0  0  0
 46 44  2  0  0  0  0
 47 46  1  0  0  0  0
 47 49  1  0  0  0  0
 48 51  1  0  0  0  0
 48 47  2  0  0  0  0
 50 52  1  0  0  0  0
 50 49  2  0  0  0  0
 51 50  1  0  0  0  0
 54 53  1  0  0  0  0
 55 56  1  0  0  0  0
 55 54  1  0  0  0  0
 57 59  1  6  0  0  0
 57 56  1  0  0  0  0
 58 59  1  0  0  0  0
 60 57  1  0  0  0  0
 61 63  1  0  0  0  0
 61 60  1  1  0  0  0
 62 61  1  0  0  0  0
 62 63  1  0  0  0  0
 63 65  1  6  0  0  0
 65 64  1  0  0  0  0
 66 65  2  0  0  0  0
M  END
>  <MODEL>
1

>  <REMARK>
 VINA RESULT:      -7.6      0.000      0.000
  Name = 
  23 active torsions:
  status: ('A' for Active; 'I' for Inactive)
    1  A    between atoms: C_1  and  C_19
    2  A    between atoms: C_3  and  C_45
    3  A    between atoms: C_4  and  C_45
    4  A    between atoms: C_5  and  C_6
    5  A    between atoms: C_6  and  CA_58
    6  A    between atoms: C_8  and  O_18
    7  A    between atoms: C_8  and  C_62
    8  A    between atoms: C_11  and  C_53
    9  A    between atoms: C_12  and  N_61
   10  A    between atoms: C_14  and  N_33
   11  A    between atoms: C_15  and  C_43
   12  A    between atoms: O_18  and  C_28
   13  A    between atoms: C_19  and  C_22
   14  A    between atoms: C_22  and  N_33
   15  A    between atoms: C_24  and  N_61
   16  A    between atoms: C_25  and  C_60
   17  A    between atoms: C_30  and  N_31
   18  A    between atoms: C_30  and  N_39
   19  A    between atoms: N_31  and  CA_58
   20  A    between atoms: N_33  and  N_57
   21  A    between atoms: O_36  and  C_42
   22  A    between atoms: N_39  and  N_57
   23  A    between atoms: C_54  and  CA_58
                            x       y       z     vdW  Elec       q    Type
                         _______ _______ _______ _____ _____    ______ ____

>  <TORSDO>
F 23

$$$$
=
 OpenBabel10222418403D

 66 75  0  0  1  0  0  0  0  0999 V2000
  185.8180  178.5060  140.6820 C   0  0  0  0  0  0  0  0  0  0  0  0
  187.9790  178.1640  141.7400 C   0  0  0  0  0  0  0  0  0  0  0  0
  189.4390  177.4280  144.0420 C   0  0  0  0  0  0  0  0  0  0  0  0
  187.2330  178.5230  140.6020 C   0  0  0  0  0  0  0  0  0  0  0  0
  190.1010  177.8220  142.8670 C   0  0  0  0  0  3  0  0  0  0  0  0
  187.3050  177.7580  142.9140 C   0  0  0  0  0  0  0  0  0  0  0  0
  185.9480  177.7280  142.9460 N   0  0  0  0  0  0  0  0  0  0  0  0
  189.3800  178.1860  141.7280 C   0  0  0  0  0  3  0  0  0  0  0  0
  188.0350  177.3900  144.0470 C   0  0  0  0  0  3  0  0  0  0  0  0
  185.2040  178.0970  141.8720 C   0  0  0  0  0  3  0  0  0  0  0  0
  191.7250  176.2060  147.4750 C   0  0  0  0  0  3  0  0  0  0  0  0
  192.1170  175.8400  146.1880 C   0  0  0  0  0  3  0  0  0  0  0  0
  191.3580  176.2440  145.0900 C   0  0  0  0  0  3  0  0  0  0  0  0
  189.7970  177.3830  146.5660 C   0  0  0  0  0  0  0  0  0  0  0  0
  190.5740  176.9690  147.6620 C   0  0  0  0  0  3  0  0  0  0  0  0
  190.1980  177.0200  145.2550 C   0  0  0  0  0  0  0  0  0  0  0  0
  188.6290  178.1280  146.7710 O   0  0  0  0  0  0  0  0  0  0  0  0
  187.6540  177.7900  147.7480 C   0  0  0  0  0  1  0  0  0  0  0  0
  187.9370  178.9010  139.4050 N   0  0  0  0  0  2  0  0  0  0  0  0
  188.0880  177.9510  136.4450 C   0  0  0  0  0  2  0  0  0  0  0  0
  188.6410  177.9850  138.5200 C   0  0  2  0  0  3  0  0  0  0  0  0
  189.0910  178.7320  137.2770 C   0  0  0  0  0  2  0  0  0  0  0  0
  187.6390  177.2020  137.6850 C   0  0  2  0  0  3  0  0  0  0  0  0
  188.0310  175.7600  137.5810 C   0  0  0  0  0  0  0  0  0  0  0  0
  187.1510  174.9060  137.2830 O   0  0  0  0  0  0  0  0  0  0  0  0
  189.3600  175.3720  137.7770 O   0  0  0  0  0  0  0  0  0  0  0  0
  191.5730  174.6280  137.2260 C   0  0  1  0  0  3  0  0  0  0  0  0
  191.4220  176.0730  136.8050 C   0  0  0  0  0  2  0  0  0  0  0  0
  190.2450  175.1290  136.6940 C   0  0  2  0  0  3  0  0  0  0  0  0
  192.3310  173.8890  136.1310 C   0  0  0  0  0  2  0  0  0  0  0  0
  194.9840  173.0610  138.4430 C   0  0  0  0  0  2  0  0  0  0  0  0
  193.8510  173.9860  136.2560 C   0  0  2  0  0  0  0  0  0  0  0  0
  195.9630  175.2180  135.5590 C   0  0  0  0  0  2  0  0  0  0  0  0
  196.0190  172.7470  135.7460 C   0  0  0  0  0  2  0  0  0  0  0  0
  194.4170  175.1580  135.4250 C   0  0  0  0  0  2  0  0  0  0  0  0
  196.4810  174.0510  136.4260 C   0  0  2  0  0  3  0  0  0  0  0  0
  194.4740  172.6960  135.6710 C   0  0  0  0  0  2  0  0  0  0  0  0
  195.8160  174.1740  137.8210 C   0  0  2  0  0  0  0  0  0  0  0  0
  196.3250  175.1210  138.7070 O   0  0  0  0  0  1  0  0  0  0  0  0
  194.2830  174.2260  137.7380 C   0  0  2  0  0  3  0  0  0  0  0  0
  184.9440  178.9980  139.5720 C   0  0  0  0  0  2  0  0  0  0  0  0
  183.4740  178.8380  139.9240 C   0  0  0  0  0  2  0  0  0  0  0  0
  182.6980  178.5520  138.7250 N   0  0  0  0  0  0  0  0  0  0  0  0
  180.8960  180.1250  138.9670 C   0  0  0  0  0  0  0  0  0  0  0  0
  181.3230  178.9410  138.6130 C   0  0  0  0  0  3  0  0  0  0  0  0
  180.4520  181.3020  139.3150 C   0  0  0  0  0  3  0  0  0  0  0  0
  180.1750  182.3480  138.3250 C   0  0  0  0  0  0  0  0  0  0  0  0
  179.2770  183.2660  138.4880 N   0  0  0  0  0  0  0  0  0  0  0  0
  180.8960  182.4500  137.1040 N   0  0  0  0  0  0  0  0  0  0  0  0
  180.3920  183.4800  136.5200 C   0  0  0  0  0  0  0  0  0  0  0  0
  179.3090  184.1200  137.3130 C   0  0  0  0  0  2  0  0  0  0  0  0
  180.8460  183.9460  135.2540 N   0  0  0  0  0  1  0  0  0  0  0  0
  183.3660  178.0990  137.5770 N   0  0  0  0  0  2  0  0  0  0  0  0
  182.7210  176.9260  137.1560 N   0  0  0  0  0  2  0  0  0  0  0  0
  182.4110  177.0960  135.7500 C   0  0  0  0  0  2  0  0  0  0  0  0
  181.3650  176.1590  135.3670 N   0  0  0  0  0  2  0  0  0  0  0  0
  180.8100  175.6260  136.5990 C   0  0  1  0  0  3  0  0  0  0  0  0
  179.0160  175.9760  138.1380 O   0  0  0  0  0  1  0  0  0  0  0  0
  179.3950  176.1480  136.8060 C   0  0  0  0  0  2  0  0  0  0  0  0
  180.8600  174.0980  136.5870 C   0  0  0  0  0  2  0  0  0  0  0  0
  182.2820  173.5660  136.6770 C   0  0  2  0  0  3  0  0  0  0  0  0
  182.7830  173.3870  135.3760 O   0  0  0  0  0  0  0  0  0  0  0  0
  182.3550  172.2270  136.0500 C   0  0  1  0  0  3  0  0  0  0  0  0
  184.6930  172.1860  137.0040 N   0  0  0  0  0  1  0  0  0  0  0  0
  183.5480  171.4780  136.5420 C   0  0  0  0  0  0  0  0  0  0  0  0
  183.5560  170.2190  136.5230 O   0  0  0  0  0  0  0  0  0  0  0  0
  1 10  1  0  0  0  0
  2  6  1  0  0  0  0
  3  9  1  0  0  0  0
  3 16  1  0  0  0  0
  4  1  2  0  0  0  0
  4  2  1  0  0  0  0
  5  3  2  0  0  0  0
  6  7  1  0  0  0  0
  6  9  2  0  0  0  0
  8  2  2  0  0  0  0
  8  5  1  0  0  0  0
 10  7  2  0  0  0  0
 11 15  1  0  0  0  0
 12 11  2  0  0  0  0
 13 16  2  0  0  0  0
 13 12  1  0  0  0  0
 14 17  1  0  0  0  0
 14 15  2  0  0  0  0
 16 14  1  0  0  0  0
 17 18  1  0  0  0  0
 19  4  1  0  0  0  0
 20 22  1  0  0  0  0
 20 23  1  0  0  0  0
 21 19  1  1  0  0  0
 22 21  1  0  0  0  0
 23 24  1  6  0  0  0
 23 21  1  0  0  0  0
 24 26  1  0  0  0  0
 25 24  2  0  0  0  0
 27 30  1  6  0  0  0
 28 27  1  0  0  0  0
 29 28  1  0  0  0  0
 29 27  1  0  0  0  0
 29 26  1  1  0  0  0
 32 30  1  6  0  0  0
 32 40  1  0  0  0  0
 34 36  1  0  0  0  0
 35 33  1  0  0  0  0
 35 32  1  0  0  0  0
 36 33  1  6  0  0  0
 36 38  1  0  0  0  0
 37 34  1  0  0  0  0
 37 32  1  0  0  0  0
 38 31  1  0  0  0  0
 38 39  1  1  0  0  0
 40 38  1  0  0  0  0
 40 31  1  1  0  0  0
 41 42  1  0  0  0  0
 41  1  1  0  0  0  0
 43 42  1  0  0  0  0
 44 46  2  0  0  0  0
 45 43  1  0  0  0  0
 45 44  2  0  0  0  0
 47 48  2  0  0  0  0
 47 46  1  0  0  0  0
 49 47  1  0  0  0  0
 50 49  2  0  0  0  0
 50 51  1  0  0  0  0
 51 48  1  0  0  0  0
 52 50  1  0  0  0  0
 53 43  1  0  0  0  0
 54 53  1  0  0  0  0
 55 54  1  0  0  0  0
 56 55  1  0  0  0  0
 56 57  1  0  0  0  0
 57 60  1  6  0  0  0
 57 59  1  0  0  0  0
 59 58  1  0  0  0  0
 61 60  1  6  0  0  0
 62 63  1  0  0  0  0
 62 61  1  0  0  0  0
 63 65  1  1  0  0  0
 63 61  1  0  0  0  0
 65 64  1  0  0  0  0
 66 65  2  0  0  0  0
M  END
>  <MODEL>
2

>  <REMARK>
 VINA RESULT:      -7.1      1.692      2.328
  Name = 
  23 active torsions:
  status: ('A' for Active; 'I' for Inactive)
    1  A    between atoms: C_1  and  C_19
    2  A    between atoms: C_3  and  C_45
    3  A    between atoms: C_4  and  C_45
    4  A    between atoms: C_5  and  C_6
    5  A    between atoms: C_6  and  CA_58
    6  A    between atoms: C_8  and  O_18
    7  A    between atoms: C_8  and  C_62
    8  A    between atoms: C_11  and  C_53
    9  A    between atoms: C_12  and  N_61
   10  A    between atoms: C_14  and  N_33
   11  A    between atoms: C_15  and  C_43
   12  A    between atoms: O_18  and  C_28
   13  A    between atoms: C_19  and  C_22
   14  A    between atoms: C_22  and  N_33
   15  A    between atoms: C_24  and  N_61
   16  A    between atoms: C_25  and  C_60
   17  A    between atoms: C_30  and  N_31
   18  A    between atoms: C_30  and  N_39
   19  A    between atoms: N_31  and  CA_58
   20  A    between atoms: N_33  and  N_57
   21  A    between atoms: O_36  and  C_42
   22  A    between atoms: N_39  and  N_57
   23  A    between atoms: C_54  and  CA_58
                            x       y       z     vdW  Elec       q    Type
                         _______ _______ _______ _____ _____    ______ ____

>  <TORSDO>
F 23

$$$$
=
 OpenBabel10222418403D

 66 75  0  0  1  0  0  0  0  0999 V2000
  184.7250  178.9280  140.2970 C   0  0  0  0  0  0  0  0  0  0  0  0
  186.7250  178.3030  141.5270 C   0  0  0  0  0  0  0  0  0  0  0  0
  187.9640  177.8210  144.0190 C   0  0  0  0  0  0  0  0  0  0  0  0
  186.0890  178.5430  140.2940 C   0  0  0  0  0  0  0  0  0  0  0  0
  188.6900  177.7060  142.8210 C   0  0  0  0  0  3  0  0  0  0  0  0
  185.9850  178.4100  142.7250 C   0  0  0  0  0  0  0  0  0  0  0  0
  184.6720  178.7550  142.6870 N   0  0  0  0  0  0  0  0  0  0  0  0
  188.0780  177.9440  141.5880 C   0  0  0  0  0  3  0  0  0  0  0  0
  186.6030  178.1650  143.9540 C   0  0  0  0  0  3  0  0  0  0  0  0
  184.0410  179.0210  141.5150 C   0  0  0  0  0  3  0  0  0  0  0  0
  189.6890  177.0270  147.8780 C   0  0  0  0  0  3  0  0  0  0  0  0
  188.3120  177.1930  147.7300 C   0  0  0  0  0  3  0  0  0  0  0  0
  187.7750  177.4540  146.4700 C   0  0  0  0  0  3  0  0  0  0  0  0
  190.0010  177.3930  145.4910 C   0  0  0  0  0  0  0  0  0  0  0  0
  190.5260  177.1290  146.7680 C   0  0  0  0  0  3  0  0  0  0  0  0
  188.6000  177.5520  145.3360 C   0  0  0  0  0  0  0  0  0  0  0  0
  190.8560  177.5170  144.3890 O   0  0  0  0  0  0  0  0  0  0  0  0
  192.0480  178.2910  144.4150 C   0  0  0  0  0  1  0  0  0  0  0  0
  186.8510  178.3950  139.0830 N   0  0  0  0  0  2  0  0  0  0  0  0
  189.2070  178.2340  137.0560 C   0  0  0  0  0  2  0  0  0  0  0  0
  188.3030  178.4400  138.9930 C   0  0  2  0  0  3  0  0  0  0  0  0
  188.7100  179.4020  137.8910 C   0  0  0  0  0  2  0  0  0  0  0  0
  188.8040  177.2720  138.1570 C   0  0  2  0  0  3  0  0  0  0  0  0
  190.0240  176.6540  138.7670 C   0  0  0  0  0  0  0  0  0  0  0  0
  189.9280  176.0900  139.8930 O   0  0  0  0  0  0  0  0  0  0  0  0
  191.2430  176.6710  138.0830 O   0  0  0  0  0  0  0  0  0  0  0  0
  193.1480  175.7900  136.9210 C   0  0  1  0  0  3  0  0  0  0  0  0
  192.0230  175.9990  135.9320 C   0  0  0  0  0  2  0  0  0  0  0  0
  191.7120  175.5530  137.3440 C   0  0  2  0  0  3  0  0  0  0  0  0
  193.8250  174.4640  136.6000 C   0  0  0  0  0  2  0  0  0  0  0  0
  196.9760  173.3200  137.9520 C   0  0  0  0  0  2  0  0  0  0  0  0
  195.3260  174.5820  136.3380 C   0  0  2  0  0  0  0  0  0  0  0  0
  197.2030  175.9800  135.3450 C   0  0  0  0  0  2  0  0  0  0  0  0
  197.2620  173.5180  135.0670 C   0  0  0  0  0  2  0  0  0  0  0  0
  195.6760  175.8990  135.6100 C   0  0  0  0  0  2  0  0  0  0  0  0
  197.9100  174.6940  135.8240 C   0  0  2  0  0  3  0  0  0  0  0  0
  195.7510  173.4350  135.3900 C   0  0  0  0  0  2  0  0  0  0  0  0
  197.6360  174.5490  137.3430 C   0  0  2  0  0  0  0  0  0  0  0  0
  198.3770  175.3390  138.2190 O   0  0  0  0  0  1  0  0  0  0  0  0
  196.1360  174.5700  137.6740 C   0  0  2  0  0  3  0  0  0  0  0  0
  184.0030  179.3330  139.0510 C   0  0  0  0  0  2  0  0  0  0  0  0
  182.6560  178.6330  138.9500 C   0  0  0  0  0  2  0  0  0  0  0  0
  182.5940  177.8380  137.7310 N   0  0  0  0  0  0  0  0  0  0  0  0
  180.9830  179.2610  136.6550 C   0  0  0  0  0  0  0  0  0  0  0  0
  181.8260  178.2650  136.5980 C   0  0  0  0  0  3  0  0  0  0  0  0
  180.1360  180.2550  136.6930 C   0  0  0  0  0  3  0  0  0  0  0  0
  180.4770  181.5810  136.1680 C   0  0  0  0  0  0  0  0  0  0  0  0
  180.4710  181.8730  134.9070 N   0  0  0  0  0  0  0  0  0  0  0  0
  180.8200  182.6690  137.0160 N   0  0  0  0  0  0  0  0  0  0  0  0
  181.0300  183.6500  136.2080 C   0  0  0  0  0  0  0  0  0  0  0  0
  180.8420  183.2730  134.7830 C   0  0  0  0  0  2  0  0  0  0  0  0
  181.3920  184.9510  136.6560 N   0  0  0  0  0  1  0  0  0  0  0  0
  183.4800  176.7600  137.5780 N   0  0  0  0  0  2  0  0  0  0  0  0
  183.0850  176.0570  136.4290 N   0  0  0  0  0  2  0  0  0  0  0  0
  184.2400  175.3090  135.9740 C   0  0  0  0  0  2  0  0  0  0  0  0
  183.8080  174.0220  135.4490 N   0  0  0  0  0  2  0  0  0  0  0  0
  184.5970  173.0080  136.1270 C   0  0  1  0  0  3  0  0  0  0  0  0
  186.7010  173.1220  137.2520 O   0  0  0  0  0  1  0  0  0  0  0  0
  185.4050  173.6380  137.2520 C   0  0  0  0  0  2  0  0  0  0  0  0
  183.6950  171.8830  136.6320 C   0  0  0  0  0  2  0  0  0  0  0  0
  182.2360  172.0980  136.2560 C   0  0  2  0  0  3  0  0  0  0  0  0
  181.6370  172.9250  137.2210 O   0  0  0  0  0  0  0  0  0  0  0  0
  181.3610  171.5480  137.3160 C   0  0  1  0  0  3  0  0  0  0  0  0
  178.9310  172.1920  137.0670 N   0  0  0  0  0  1  0  0  0  0  0  0
  179.9920  171.2850  136.7850 C   0  0  0  0  0  0  0  0  0  0  0  0
  179.7640  170.2460  136.1110 O   0  0  0  0  0  0  0  0  0  0  0  0
  1 10  1  0  0  0  0
  2  8  2  0  0  0  0
  2  6  1  0  0  0  0
  3 16  1  0  0  0  0
  4  1  2  0  0  0  0
  4  2  1  0  0  0  0
  5  3  2  0  0  0  0
  6  9  2  0  0  0  0
  7  6  1  0  0  0  0
  8  5  1  0  0  0  0
  9  3  1  0  0  0  0
 10  7  2  0  0  0  0
 12 11  1  0  0  0  0
 13 12  2  0  0  0  0
 14 15  1  0  0  0  0
 15 11  2  0  0  0  0
 16 14  2  0  0  0  0
 16 13  1  0  0  0  0
 17 18  1  0  0  0  0
 17 14  1  0  0  0  0
 19  4  1  0  0  0  0
 20 22  1  0  0  0  0
 20 23  1  0  0  0  0
 21 19  1  6  0  0  0
 22 21  1  0  0  0  0
 23 24  1  1  0  0  0
 23 21  1  0  0  0  0
 24 25  2  0  0  0  0
 26 24  1  0  0  0  0
 27 30  1  6  0  0  0
 27 29  1  0  0  0  0
 28 27  1  0  0  0  0
 28 29  1  0  0  0  0
 29 26  1  1  0  0  0
 32 30  1  1  0  0  0
 32 40  1  0  0  0  0
 33 35  1  0  0  0  0
 33 36  1  0  0  0  0
 34 37  1  0  0  0  0
 35 32  1  0  0  0  0
 36 34  1  6  0  0  0
 36 38  1  0  0  0  0
 37 32  1  0  0  0  0
 38 40  1  0  0  0  0
 38 31  1  0  0  0  0
 38 39  1  1  0  0  0
 40 31  1  6  0  0  0
 41  1  1  0  0  0  0
 42 41  1  0  0  0  0
 43 42  1  0  0  0  0
 44 46  2  0  0  0  0
 45 44  2  0  0  0  0
 45 43  1  0  0  0  0
 47 46  1  0  0  0  0
 47 49  1  0  0  0  0
 48 47  2  0  0  0  0
 50 52  1  0  0  0  0
 50 49  2  0  0  0  0
 51 48  1  0  0  0  0
 51 50  1  0  0  0  0
 53 43  1  0  0  0  0
 54 53  1  0  0  0  0
 55 54  1  0  0  0  0
 56 55  1  0  0  0  0
 56 57  1  0  0  0  0
 57 60  1  1  0  0  0
 57 59  1  0  0  0  0
 59 58  1  0  0  0  0
 61 60  1  1  0  0  0
 61 62  1  0  0  0  0
 61 63  1  0  0  0  0
 62 63  1  0  0  0  0
 63 65  1  6  0  0  0
 65 64  1  0  0  0  0
 66 65  2  0  0  0  0
M  END
>  <MODEL>
3

>  <REMARK>
 VINA RESULT:      -6.9      1.793      2.975
  Name = 
  23 active torsions:
  status: ('A' for Active; 'I' for Inactive)
    1  A    between atoms: C_1  and  C_19
    2  A    between atoms: C_3  and  C_45
    3  A    between atoms: C_4  and  C_45
    4  A    between atoms: C_5  and  C_6
    5  A    between atoms: C_6  and  CA_58
    6  A    between atoms: C_8  and  O_18
    7  A    between atoms: C_8  and  C_62
    8  A    between atoms: C_11  and  C_53
    9  A    between atoms: C_12  and  N_61
   10  A    between atoms: C_14  and  N_33
   11  A    between atoms: C_15  and  C_43
   12  A    between atoms: O_18  and  C_28
   13  A    between atoms: C_19  and  C_22
   14  A    between atoms: C_22  and  N_33
   15  A    between atoms: C_24  and  N_61
   16  A    between atoms: C_25  and  C_60
   17  A    between atoms: C_30  and  N_31
   18  A    between atoms: C_30  and  N_39
   19  A    between atoms: N_31  and  CA_58
   20  A    between atoms: N_33  and  N_57
   21  A    between atoms: O_36  and  C_42
   22  A    between atoms: N_39  and  N_57
   23  A    between atoms: C_54  and  CA_58
                            x       y       z     vdW  Elec       q    Type
                         _______ _______ _______ _____ _____    ______ ____

>  <TORSDO>
F 23

$$$$
=
 OpenBabel10222418403D

 66 75  0  0  1  0  0  0  0  0999 V2000
  188.5920  177.4570  136.0510 C   0  0  0  0  0  0  0  0  0  0  0  0
  190.2070  175.8100  136.8160 C   0  0  0  0  0  0  0  0  0  0  0  0
  192.6520  174.4610  136.3900 C   0  0  0  0  0  0  0  0  0  0  0  0
  188.9950  176.4970  137.0130 C   0  0  0  0  0  0  0  0  0  0  0  0
  191.8530  174.1660  137.5080 C   0  0  0  0  0  3  0  0  0  0  0  0
  191.0090  176.1210  135.6950 C   0  0  0  0  0  0  0  0  0  0  0  0
  190.6040  177.0670  134.8080 N   0  0  0  0  0  0  0  0  0  0  0  0
  190.6440  174.8330  137.7200 C   0  0  0  0  0  3  0  0  0  0  0  0
  192.2200  175.4530  135.4940 C   0  0  0  0  0  3  0  0  0  0  0  0
  189.4260  177.7230  134.9580 C   0  0  0  0  0  3  0  0  0  0  0  0
  196.3570  172.4130  135.6320 C   0  0  0  0  0  3  0  0  0  0  0  0
  195.2230  172.1460  134.8670 C   0  0  0  0  0  3  0  0  0  0  0  0
  194.0310  172.8190  135.1330 C   0  0  0  0  0  3  0  0  0  0  0  0
  195.1020  174.0320  136.9490 C   0  0  0  0  0  0  0  0  0  0  0  0
  196.2960  173.3460  136.6660 C   0  0  0  0  0  3  0  0  0  0  0  0
  193.9490  173.7700  136.1650 C   0  0  0  0  0  0  0  0  0  0  0  0
  195.0490  174.9490  138.0060 O   0  0  0  0  0  0  0  0  0  0  0  0
  195.7160  174.7450  139.2440 C   0  0  0  0  0  1  0  0  0  0  0  0
  188.2090  176.1900  138.1780 N   0  0  0  0  0  2  0  0  0  0  0  0
  189.1690  178.7870  139.5990 C   0  0  0  0  0  2  0  0  0  0  0  0
  188.3840  176.7920  139.4920 C   0  0  2  0  0  3  0  0  0  0  0  0
  187.7790  178.1850  139.4920 C   0  0  0  0  0  2  0  0  0  0  0  0
  189.7740  177.3970  139.6010 C   0  0  2  0  0  3  0  0  0  0  0  0
  190.3870  177.1090  140.9370 C   0  0  0  0  0  0  0  0  0  0  0  0
  190.4920  175.9090  141.3170 O   0  0  0  0  0  0  0  0  0  0  0  0
  190.8660  178.1520  141.7360 O   0  0  0  0  0  0  0  0  0  0  0  0
  190.2780  178.2060  144.0610 C   0  0  1  0  0  3  0  0  0  0  0  0
  191.3450  179.2440  143.8010 C   0  0  0  0  0  2  0  0  0  0  0  0
  191.3690  177.9330  143.0450 C   0  0  2  0  0  3  0  0  0  0  0  0
  190.6000  177.5090  145.3760 C   0  0  0  0  0  2  0  0  0  0  0  0
  187.0320  176.9870  145.6310 C   0  0  0  0  0  2  0  0  0  0  0  0
  189.4740  177.5800  146.4070 C   0  0  2  0  0  0  0  0  0  0  0  0
  188.6440  178.6220  148.5720 C   0  0  0  0  0  2  0  0  0  0  0  0
  188.2300  176.2130  148.1620 C   0  0  0  0  0  2  0  0  0  0  0  0
  189.7970  178.5860  147.5340 C   0  0  0  0  0  2  0  0  0  0  0  0
  187.5500  177.5960  148.2090 C   0  0  2  0  0  3  0  0  0  0  0  0
  189.3410  176.1950  147.0850 C   0  0  0  0  0  2  0  0  0  0  0  0
  187.0150  177.9610  146.8000 C   0  0  2  0  0  0  0  0  0  0  0  0
  186.1200  179.0230  146.6970 O   0  0  0  0  0  1  0  0  0  0  0  0
  188.1350  178.0440  145.7510 C   0  0  2  0  0  3  0  0  0  0  0  0
  187.2620  178.1380  136.1030 C   0  0  0  0  0  2  0  0  0  0  0  0
  186.2880  177.5080  135.1190 C   0  0  0  0  0  2  0  0  0  0  0  0
  185.4700  176.5090  135.7920 N   0  0  0  0  0  0  0  0  0  0  0  0
  185.0790  174.1920  136.3030 C   0  0  0  0  0  0  0  0  0  0  0  0
  185.6920  175.1050  135.5970 C   0  0  0  0  0  3  0  0  0  0  0  0
  184.4770  173.2660  136.9990 C   0  0  0  0  0  3  0  0  0  0  0  0
  183.3340  172.5180  136.4640 C   0  0  0  0  0  0  0  0  0  0  0  0
  183.3230  171.9750  135.2890 N   0  0  0  0  0  0  0  0  0  0  0  0
  182.1440  172.3100  137.2120 N   0  0  0  0  0  0  0  0  0  0  0  0
  181.3950  171.6100  136.4330 C   0  0  0  0  0  0  0  0  0  0  0  0
  182.0390  171.3140  135.1270 C   0  0  0  0  0  2  0  0  0  0  0  0
  180.0960  171.1670  136.8100 N   0  0  0  0  0  1  0  0  0  0  0  0
  184.6070  176.9180  136.8210 N   0  0  0  0  0  2  0  0  0  0  0  0
  183.3500  177.1490  136.2420 N   0  0  0  0  0  2  0  0  0  0  0  0
  182.3560  176.7480  137.2190 C   0  0  0  0  0  2  0  0  0  0  0  0
  181.9060  177.9170  137.9610 N   0  0  0  0  0  2  0  0  0  0  0  0
  182.0150  177.5840  139.3700 C   0  0  1  0  0  3  0  0  0  0  0  0
  180.5560  176.1140  140.5620 O   0  0  0  0  0  1  0  0  0  0  0  0
  181.5710  176.1470  139.6060 C   0  0  0  0  0  2  0  0  0  0  0  0
  183.4390  177.8310  139.8670 C   0  0  0  0  0  2  0  0  0  0  0  0
  183.4900  178.8570  140.9900 C   0  0  2  0  0  3  0  0  0  0  0  0
  184.8210  179.2730  141.1640 O   0  0  0  0  0  0  0  0  0  0  0  0
  184.3260  178.3430  142.0990 C   0  0  1  0  0  3  0  0  0  0  0  0
  182.6860  179.0030  143.9020 N   0  0  0  0  0  1  0  0  0  0  0  0
  184.0060  179.0510  143.3720 C   0  0  0  0  0  0  0  0  0  0  0  0
  184.8950  179.7180  143.9650 O   0  0  0  0  0  0  0  0  0  0  0  0
  1 41  1  0  0  0  0
  1  4  1  0  0  0  0
  2  4  2  0  0  0  0
  2  8  1  0  0  0  0
  3  5  1  0  0  0  0
  4 19  1  0  0  0  0
  5  8  2  0  0  0  0
  6  2  1  0  0  0  0
  7 10  1  0  0  0  0
  7  6  2  0  0  0  0
  9  6  1  0  0  0  0
  9  3  2  0  0  0  0
 10  1  2  0  0  0  0
 11 15  1  0  0  0  0
 12 13  1  0  0  0  0
 12 11  2  0  0  0  0
 13 16  2  0  0  0  0
 14 17  1  0  0  0  0
 15 14  2  0  0  0  0
 16  3  1  0  0  0  0
 16 14  1  0  0  0  0
 17 18  1  0  0  0  0
 20 23  1  0  0  0  0
 21 19  1  6  0  0  0
 21 22  1  0  0  0  0
 21 23  1  0  0  0  0
 22 20  1  0  0  0  0
 23 24  1  1  0  0  0
 24 25  2  0  0  0  0
 24 26  1  0  0  0  0
 27 30  1  1  0  0  0
 28 27  1  0  0  0  0
 29 26  1  6  0  0  0
 29 28  1  0  0  0  0
 29 27  1  0  0  0  0
 31 38  1  0  0  0  0
 32 30  1  6  0  0  0
 32 37  1  0  0  0  0
 32 35  1  0  0  0  0
 35 33  1  0  0  0  0
 36 34  1  6  0  0  0
 36 33  1  0  0  0  0
 37 34  1  0  0  0  0
 38 39  1  6  0  0  0
 38 36  1  0  0  0  0
 40 31  1  6  0  0  0
 40 32  1  0  0  0  0
 40 38  1  0  0  0  0
 42 43  1  0  0  0  0
 42 41  1  0  0  0  0
 43 53  1  0  0  0  0
 44 46  2  0  0  0  0
 45 43  1  0  0  0  0
 45 44  2  0  0  0  0
 47 46  1  0  0  0  0
 47 49  1  0  0  0  0
 48 47  2  0  0  0  0
 50 52  1  0  0  0  0
 50 49  2  0  0  0  0
 51 48  1  0  0  0  0
 51 50  1  0  0  0  0
 54 53  1  0  0  0  0
 54 55  1  0  0  0  0
 55 56  1  0  0  0  0
 56 57  1  0  0  0  0
 57 59  1  6  0  0  0
 57 60  1  0  0  0  0
 59 58  1  0  0  0  0
 61 60  1  6  0  0  0
 61 62  1  0  0  0  0
 61 63  1  0  0  0  0
 62 63  1  0  0  0  0
 63 65  1  1  0  0  0
 65 64  1  0  0  0  0
 65 66  2  0  0  0  0
M  END
>  <MODEL>
4

>  <REMARK>
 VINA RESULT:      -6.5      3.109      9.122
  Name = 
  23 active torsions:
  status: ('A' for Active; 'I' for Inactive)
    1  A    between atoms: C_1  and  C_19
    2  A    between atoms: C_3  and  C_45
    3  A    between atoms: C_4  and  C_45
    4  A    between atoms: C_5  and  C_6
    5  A    between atoms: C_6  and  CA_58
    6  A    between atoms: C_8  and  O_18
    7  A    between atoms: C_8  and  C_62
    8  A    between atoms: C_11  and  C_53
    9  A    between atoms: C_12  and  N_61
   10  A    between atoms: C_14  and  N_33
   11  A    between atoms: C_15  and  C_43
   12  A    between atoms: O_18  and  C_28
   13  A    between atoms: C_19  and  C_22
   14  A    between atoms: C_22  and  N_33
   15  A    between atoms: C_24  and  N_61
   16  A    between atoms: C_25  and  C_60
   17  A    between atoms: C_30  and  N_31
   18  A    between atoms: C_30  and  N_39
   19  A    between atoms: N_31  and  CA_58
   20  A    between atoms: N_33  and  N_57
   21  A    between atoms: O_36  and  C_42
   22  A    between atoms: N_39  and  N_57
   23  A    between atoms: C_54  and  CA_58
                            x       y       z     vdW  Elec       q    Type
                         _______ _______ _______ _____ _____    ______ ____

>  <TORSDO>
F 23

$$$$
=
 OpenBabel10222418403D

 66 75  0  0  1  0  0  0  0  0999 V2000
  186.1310  178.4390  139.4640 C   0  0  0  0  0  0  0  0  0  0  0  0
  187.8800  178.3680  141.1490 C   0  0  0  0  0  0  0  0  0  0  0  0
  188.6190  177.8690  143.8290 C   0  0  0  0  0  0  0  0  0  0  0  0
  187.4940  178.6070  139.8170 C   0  0  0  0  0  0  0  0  0  0  0  0
  189.5720  178.2950  142.8880 C   0  0  0  0  0  3  0  0  0  0  0  0
  186.9170  177.9290  142.0860 C   0  0  0  0  0  0  0  0  0  0  0  0
  185.6260  177.7530  141.7040 N   0  0  0  0  0  0  0  0  0  0  0  0
  189.2070  178.5410  141.5630 C   0  0  0  0  0  3  0  0  0  0  0  0
  187.2910  177.6790  143.4080 C   0  0  0  0  0  3  0  0  0  0  0  0
  185.2200  178.0040  140.4350 C   0  0  0  0  0  3  0  0  0  0  0  0
  189.5980  177.0700  147.9410 C   0  0  0  0  0  3  0  0  0  0  0  0
  188.3480  177.5790  147.5890 C   0  0  0  0  0  3  0  0  0  0  0  0
  188.0540  177.8350  146.2490 C   0  0  0  0  0  3  0  0  0  0  0  0
  190.2720  177.0780  145.6010 C   0  0  0  0  0  0  0  0  0  0  0  0
  190.5520  176.8240  146.9550 C   0  0  0  0  0  3  0  0  0  0  0  0
  188.9990  177.5850  145.2390 C   0  0  0  0  0  0  0  0  0  0  0  0
  191.2490  176.8490  144.6240 O   0  0  0  0  0  0  0  0  0  0  0  0
  191.8620  175.5820  144.4220 C   0  0  0  0  0  1  0  0  0  0  0  0
  188.4940  179.0200  138.8710 N   0  0  0  0  0  2  0  0  0  0  0  0
  188.5880  176.3510  137.2730 C   0  0  0  0  0  2  0  0  0  0  0  0
  189.4010  178.1280  138.1630 C   0  0  2  0  0  3  0  0  0  0  0  0
  188.8100  177.7800  136.8080 C   0  0  0  0  0  2  0  0  0  0  0  0
  189.1800  176.6960  138.6260 C   0  0  2  0  0  3  0  0  0  0  0  0
  190.4830  175.9800  138.8100 C   0  0  0  0  0  0  0  0  0  0  0  0
  191.3720  176.5020  139.5400 O   0  0  0  0  0  0  0  0  0  0  0  0
  190.6980  174.7350  138.2110 O   0  0  0  0  0  0  0  0  0  0  0  0
  192.9150  174.5120  137.3220 C   0  0  1  0  0  3  0  0  0  0  0  0
  192.3150  175.8090  136.8260 C   0  0  0  0  0  2  0  0  0  0  0  0
  191.4350  174.5910  137.0060 C   0  0  2  0  0  3  0  0  0  0  0  0
  193.6630  173.8600  136.1670 C   0  0  0  0  0  2  0  0  0  0  0  0
  196.0480  174.1230  138.8710 C   0  0  0  0  0  2  0  0  0  0  0  0
  195.1220  173.5330  136.4800 C   0  0  2  0  0  0  0  0  0  0  0  0
  197.4610  173.1690  135.5530 C   0  0  0  0  0  2  0  0  0  0  0  0
  196.6520  171.7040  137.3810 C   0  0  0  0  0  2  0  0  0  0  0  0
  195.9900  173.5200  135.2030 C   0  0  0  0  0  2  0  0  0  0  0  0
  197.6080  172.8700  137.0600 C   0  0  2  0  0  3  0  0  0  0  0  0
  195.1900  172.1020  137.0670 C   0  0  0  0  0  2  0  0  0  0  0  0
  197.1600  174.1370  137.8330 C   0  0  2  0  0  0  0  0  0  0  0  0
  198.0520  175.2050  137.9100 O   0  0  0  0  0  1  0  0  0  0  0  0
  195.7450  174.5920  137.4450 C   0  0  2  0  0  3  0  0  0  0  0  0
  185.6020  178.7970  138.1120 C   0  0  0  0  0  2  0  0  0  0  0  0
  184.1100  178.5180  138.0180 C   0  0  0  0  0  2  0  0  0  0  0  0
  183.8460  177.5390  136.9730 N   0  0  0  0  0  0  0  0  0  0  0  0
  185.1280  175.5060  136.8980 C   0  0  0  0  0  0  0  0  0  0  0  0
  184.8900  176.7080  136.4460 C   0  0  0  0  0  3  0  0  0  0  0  0
  185.3810  174.3030  137.3380 C   0  0  0  0  0  3  0  0  0  0  0  0
  184.9280  173.1060  136.6200 C   0  0  0  0  0  0  0  0  0  0  0  0
  185.6890  172.0870  136.3810 N   0  0  0  0  0  0  0  0  0  0  0  0
  183.5960  172.9620  136.1470 N   0  0  0  0  0  0  0  0  0  0  0  0
  183.5760  171.7980  135.5980 C   0  0  0  0  0  0  0  0  0  0  0  0
  184.8880  171.1030  135.6720 C   0  0  0  0  0  2  0  0  0  0  0  0
  182.4070  171.2490  135.0010 N   0  0  0  0  0  1  0  0  0  0  0  0
  182.5160  177.2400  136.6420 N   0  0  0  0  0  2  0  0  0  0  0  0
  181.7650  177.3170  137.8250 N   0  0  0  0  0  2  0  0  0  0  0  0
  180.5790  178.0940  137.5210 C   0  0  0  0  0  2  0  0  0  0  0  0
  179.8050  178.2930  138.7380 N   0  0  0  0  0  2  0  0  0  0  0  0
  179.9070  179.7030  139.0710 C   0  0  1  0  0  3  0  0  0  0  0  0
  181.6450  179.5490  140.7030 O   0  0  0  0  0  1  0  0  0  0  0  0
  180.2990  179.8700  140.5320 C   0  0  0  0  0  2  0  0  0  0  0  0
  180.8890  180.4020  138.1320 C   0  0  0  0  0  2  0  0  0  0  0  0
  180.6940  181.9110  138.1090 C   0  0  2  0  0  3  0  0  0  0  0  0
  179.3440  182.1890  137.8350 O   0  0  0  0  0  0  0  0  0  0  0  0
  180.2470  182.3370  136.7640 C   0  0  1  0  0  3  0  0  0  0  0  0
  180.0080  184.7520  137.4640 N   0  0  0  0  0  1  0  0  0  0  0  0
  180.5220  183.7870  136.5510 C   0  0  0  0  0  0  0  0  0  0  0  0
  181.1860  184.1640  135.5490 O   0  0  0  0  0  0  0  0  0  0  0  0
  1  4  2  0  0  0  0
  1 10  1  0  0  0  0
  2  8  2  0  0  0  0
  2  6  1  0  0  0  0
  3 16  1  0  0  0  0
  4  2  1  0  0  0  0
  5  3  2  0  0  0  0
  6  9  2  0  0  0  0
  7  6  1  0  0  0  0
  8  5  1  0  0  0  0
  9  3  1  0  0  0  0
 10  7  2  0  0  0  0
 12 11  1  0  0  0  0
 13 12  2  0  0  0  0
 14 15  1  0  0  0  0
 15 11  2  0  0  0  0
 16 14  2  0  0  0  0
 16 13  1  0  0  0  0
 17 14  1  0  0  0  0
 18 17  1  0  0  0  0
 19  4  1  0  0  0  0
 20 23  1  0  0  0  0
 21 23  1  0  0  0  0
 21 19  1  1  0  0  0
 22 20  1  0  0  0  0
 22 21  1  0  0  0  0
 23 24  1  6  0  0  0
 24 25  2  0  0  0  0
 26 24  1  0  0  0  0
 27 30  1  6  0  0  0
 28 29  1  0  0  0  0
 28 27  1  0  0  0  0
 29 27  1  0  0  0  0
 29 26  1  1  0  0  0
 32 30  1  6  0  0  0
 32 37  1  0  0  0  0
 32 40  1  0  0  0  0
 35 33  1  0  0  0  0
 35 32  1  0  0  0  0
 36 33  1  6  0  0  0
 36 34  1  0  0  0  0
 36 38  1  0  0  0  0
 37 34  1  0  0  0  0
 38 39  1  1  0  0  0
 38 31  1  0  0  0  0
 40 38  1  0  0  0  0
 40 31  1  1  0  0  0
 41  1  1  0  0  0  0
 42 41  1  0  0  0  0
 43 42  1  0  0  0  0
 44 46  2  0  0  0  0
 45 44  2  0  0  0  0
 45 43  1  0  0  0  0
 47 46  1  0  0  0  0
 48 47  2  0  0  0  0
 49 47  1  0  0  0  0
 50 51  1  0  0  0  0
 50 49  2  0  0  0  0
 51 48  1  0  0  0  0
 52 50  1  0  0  0  0
 53 43  1  0  0  0  0
 53 54  1  0  0  0  0
 55 54  1  0  0  0  0
 55 56  1  0  0  0  0
 56 57  1  0  0  0  0
 57 60  1  6  0  0  0
 57 59  1  0  0  0  0
 59 58  1  0  0  0  0
 61 60  1  6  0  0  0
 62 61  1  0  0  0  0
 63 65  1  1  0  0  0
 63 62  1  0  0  0  0
 63 61  1  0  0  0  0
 65 64  1  0  0  0  0
 66 65  2  0  0  0  0
M  END
>  <MODEL>
5

>  <REMARK>
 VINA RESULT:      -6.3      2.621      5.906
  Name = 
  23 active torsions:
  status: ('A' for Active; 'I' for Inactive)
    1  A    between atoms: C_1  and  C_19
    2  A    between atoms: C_3  and  C_45
    3  A    between atoms: C_4  and  C_45
    4  A    between atoms: C_5  and  C_6
    5  A    between atoms: C_6  and  CA_58
    6  A    between atoms: C_8  and  O_18
    7  A    between atoms: C_8  and  C_62
    8  A    between atoms: C_11  and  C_53
    9  A    between atoms: C_12  and  N_61
   10  A    between atoms: C_14  and  N_33
   11  A    between atoms: C_15  and  C_43
   12  A    between atoms: O_18  and  C_28
   13  A    between atoms: C_19  and  C_22
   14  A    between atoms: C_22  and  N_33
   15  A    between atoms: C_24  and  N_61
   16  A    between atoms: C_25  and  C_60
   17  A    between atoms: C_30  and  N_31
   18  A    between atoms: C_30  and  N_39
   19  A    between atoms: N_31  and  CA_58
   20  A    between atoms: N_33  and  N_57
   21  A    between atoms: O_36  and  C_42
   22  A    between atoms: N_39  and  N_57
   23  A    between atoms: C_54  and  CA_58
                            x       y       z     vdW  Elec       q    Type
                         _______ _______ _______ _____ _____    ______ ____

>  <TORSDO>
F 23

$$$$
=
 OpenBabel10222418403D

 66 75  0  0  1  0  0  0  0  0999 V2000
  188.1180  176.5480  137.3820 C   0  0  0  0  0  0  0  0  0  0  0  0
  190.5120  176.3060  137.7270 C   0  0  0  0  0  0  0  0  0  0  0  0
  192.9520  175.1390  136.9170 C   0  0  0  0  0  0  0  0  0  0  0  0
  189.2870  176.8830  138.1120 C   0  0  0  0  0  0  0  0  0  0  0  0
  192.9010  176.0030  138.0250 C   0  0  0  0  0  3  0  0  0  0  0  0
  190.5560  175.4480  136.6060 C   0  0  0  0  0  0  0  0  0  0  0  0
  189.4200  175.1710  135.9140 N   0  0  0  0  0  0  0  0  0  0  0  0
  191.6950  176.5810  138.4250 C   0  0  0  0  0  3  0  0  0  0  0  0
  191.7670  174.8780  136.2080 C   0  0  0  0  0  3  0  0  0  0  0  0
  188.2210  175.6890  136.2810 C   0  0  0  0  0  3  0  0  0  0  0  0
  196.6340  173.2800  135.6940 C   0  0  0  0  0  3  0  0  0  0  0  0
  195.8400  172.7100  136.6890 C   0  0  0  0  0  3  0  0  0  0  0  0
  194.6530  173.3330  137.0730 C   0  0  0  0  0  3  0  0  0  0  0  0
  195.0490  175.1150  135.4670 C   0  0  0  0  0  0  0  0  0  0  0  0
  196.2420  174.4740  135.0900 C   0  0  0  0  0  3  0  0  0  0  0  0
  194.2340  174.5320  136.4710 C   0  0  0  0  0  0  0  0  0  0  0  0
  194.6800  176.3270  134.8680 O   0  0  0  0  0  0  0  0  0  0  0  0
  195.3810  177.5440  135.0850 C   0  0  0  0  0  1  0  0  0  0  0  0
  189.2680  177.7810  139.2350 N   0  0  0  0  0  2  0  0  0  0  0  0
  189.3290  178.8630  142.1520 C   0  0  0  0  0  2  0  0  0  0  0  0
  189.0200  177.3950  140.6160 C   0  0  2  0  0  3  0  0  0  0  0  0
  188.1530  178.4470  141.2850 C   0  0  0  0  0  2  0  0  0  0  0  0
  190.1950  177.8110  141.4870 C   0  0  2  0  0  3  0  0  0  0  0  0
  190.5450  176.7390  142.4720 C   0  0  0  0  0  0  0  0  0  0  0  0
  190.3800  175.5300  142.1480 O   0  0  0  0  0  0  0  0  0  0  0  0
  191.0790  177.0730  143.7210 O   0  0  0  0  0  0  0  0  0  0  0  0
  189.9420  177.7620  145.7170 C   0  0  1  0  0  3  0  0  0  0  0  0
  191.2910  177.1930  146.0930 C   0  0  0  0  0  2  0  0  0  0  0  0
  190.5180  176.5990  144.9360 C   0  0  2  0  0  3  0  0  0  0  0  0
  188.9150  177.2600  146.7230 C   0  0  0  0  0  2  0  0  0  0  0  0
  186.2820  177.1480  144.2480 C   0  0  0  0  0  2  0  0  0  0  0  0
  187.5030  177.7950  146.4870 C   0  0  2  0  0  0  0  0  0  0  0  0
  185.8130  179.6240  147.0000 C   0  0  0  0  0  2  0  0  0  0  0  0
  185.0370  177.2740  146.8700 C   0  0  0  0  0  2  0  0  0  0  0  0
  187.2600  179.1180  147.2470 C   0  0  0  0  0  2  0  0  0  0  0  0
  185.0260  178.6250  146.1270 C   0  0  2  0  0  3  0  0  0  0  0  0
  186.4900  176.7730  147.0570 C   0  0  0  0  0  2  0  0  0  0  0  0
  185.7820  178.4830  144.7810 C   0  0  2  0  0  0  0  0  0  0  0  0
  185.6320  179.4980  143.8380 O   0  0  0  0  0  1  0  0  0  0  0  0
  187.2530  178.0860  144.9730 C   0  0  2  0  0  3  0  0  0  0  0  0
  186.7550  177.0010  137.7960 C   0  0  0  0  0  2  0  0  0  0  0  0
  185.7020  176.5470  136.7970 C   0  0  0  0  0  2  0  0  0  0  0  0
  184.5210  176.0600  137.4980 N   0  0  0  0  0  0  0  0  0  0  0  0
  184.2840  173.8030  136.7040 C   0  0  0  0  0  0  0  0  0  0  0  0
  184.2930  174.6580  137.6930 C   0  0  0  0  0  3  0  0  0  0  0  0
  184.2710  172.9340  135.7290 C   0  0  0  0  0  3  0  0  0  0  0  0
  185.4210  172.0670  135.4520 C   0  0  0  0  0  0  0  0  0  0  0  0
  185.3180  170.7970  135.2260 N   0  0  0  0  0  0  0  0  0  0  0  0
  186.7510  172.5640  135.3860 N   0  0  0  0  0  0  0  0  0  0  0  0
  187.4660  171.5300  135.1100 C   0  0  0  0  0  0  0  0  0  0  0  0
  186.6570  170.2890  134.9780 C   0  0  0  0  0  2  0  0  0  0  0  0
  188.8770  171.5940  134.9410 N   0  0  0  0  0  1  0  0  0  0  0  0
  183.7180  176.9770  138.1930 N   0  0  0  0  0  2  0  0  0  0  0  0
  183.1650  177.8490  137.2440 N   0  0  0  0  0  2  0  0  0  0  0  0
  181.7930  177.4300  137.0330 C   0  0  0  0  0  2  0  0  0  0  0  0
  181.0360  178.5240  136.4430 N   0  0  0  0  0  2  0  0  0  0  0  0
  181.0350  179.6030  137.4150 C   0  0  1  0  0  3  0  0  0  0  0  0
  179.9680  180.6170  135.5340 O   0  0  0  0  0  1  0  0  0  0  0  0
  180.5620  180.8950  136.7650 C   0  0  0  0  0  2  0  0  0  0  0  0
  180.1810  179.2260  138.6260 C   0  0  0  0  0  2  0  0  0  0  0  0
  180.6740  179.8820  139.9080 C   0  0  2  0  0  3  0  0  0  0  0  0
  181.9710  179.4160  140.1860 O   0  0  0  0  0  0  0  0  0  0  0  0
  180.9240  178.8460  140.9350 C   0  0  1  0  0  3  0  0  0  0  0  0
  180.0090  180.4970  142.6130 N   0  0  0  0  0  1  0  0  0  0  0  0
  180.9160  179.4450  142.3010 C   0  0  0  0  0  0  0  0  0  0  0  0
  181.7310  179.0420  143.1730 O   0  0  0  0  0  0  0  0  0  0  0  0
  1 41  1  0  0  0  0
  1  4  1  0  0  0  0
  2  4  2  0  0  0  0
  2  8  1  0  0  0  0
  3  5  1  0  0  0  0
  4 19  1  0  0  0  0
  5  8  2  0  0  0  0
  6  2  1  0  0  0  0
  7 10  1  0  0  0  0
  7  6  2  0  0  0  0
  9  6  1  0  0  0  0
  9  3  2  0  0  0  0
 10  1  2  0  0  0  0
 11 12  1  0  0  0  0
 12 13  2  0  0  0  0
 14 16  2  0  0  0  0
 15 14  1  0  0  0  0
 15 11  2  0  0  0  0
 16  3  1  0  0  0  0
 16 13  1  0  0  0  0
 17 18  1  0  0  0  0
 17 14  1  0  0  0  0
 21 19  1  6  0  0  0
 21 22  1  0  0  0  0
 21 23  1  0  0  0  0
 22 20  1  0  0  0  0
 23 20  1  0  0  0  0
 23 24  1  1  0  0  0
 24 26  1  0  0  0  0
 25 24  2  0  0  0  0
 27 28  1  0  0  0  0
 27 30  1  1  0  0  0
 29 26  1  6  0  0  0
 29 27  1  0  0  0  0
 29 28  1  0  0  0  0
 31 38  1  0  0  0  0
 32 30  1  1  0  0  0
 32 37  1  0  0  0  0
 32 35  1  0  0  0  0
 33 35  1  0  0  0  0
 34 37  1  0  0  0  0
 36 34  1  1  0  0  0
 36 33  1  0  0  0  0
 38 39  1  6  0  0  0
 38 40  1  0  0  0  0
 38 36  1  0  0  0  0
 40 31  1  6  0  0  0
 40 32  1  0  0  0  0
 42 43  1  0  0  0  0
 42 41  1  0  0  0  0
 43 45  1  0  0  0  0
 43 53  1  0  0  0  0
 44 45  2  0  0  0  0
 46 44  2  0  0  0  0
 47 46  1  0  0  0  0
 48 47  2  0  0  0  0
 49 47  1  0  0  0  0
 50 49  2  0  0  0  0
 51 50  1  0  0  0  0
 51 48  1  0  0  0  0
 52 50  1  0  0  0  0
 54 53  1  0  0  0  0
 55 54  1  0  0  0  0
 56 55  1  0  0  0  0
 56 57  1  0  0  0  0
 57 59  1  6  0  0  0
 57 60  1  0  0  0  0
 58 59  1  0  0  0  0
 61 60  1  6  0  0  0
 61 62  1  0  0  0  0
 61 63  1  0  0  0  0
 62 63  1  0  0  0  0
 63 65  1  1  0  0  0
 65 64  1  0  0  0  0
 65 66  2  0  0  0  0
M  END
>  <MODEL>
6

>  <REMARK>
 VINA RESULT:      -6.0      3.105      9.491
  Name = 
  23 active torsions:
  status: ('A' for Active; 'I' for Inactive)
    1  A    between atoms: C_1  and  C_19
    2  A    between atoms: C_3  and  C_45
    3  A    between atoms: C_4  and  C_45
    4  A    between atoms: C_5  and  C_6
    5  A    between atoms: C_6  and  CA_58
    6  A    between atoms: C_8  and  O_18
    7  A    between atoms: C_8  and  C_62
    8  A    between atoms: C_11  and  C_53
    9  A    between atoms: C_12  and  N_61
   10  A    between atoms: C_14  and  N_33
   11  A    between atoms: C_15  and  C_43
   12  A    between atoms: O_18  and  C_28
   13  A    between atoms: C_19  and  C_22
   14  A    between atoms: C_22  and  N_33
   15  A    between atoms: C_24  and  N_61
   16  A    between atoms: C_25  and  C_60
   17  A    between atoms: C_30  and  N_31
   18  A    between atoms: C_30  and  N_39
   19  A    between atoms: N_31  and  CA_58
   20  A    between atoms: N_33  and  N_57
   21  A    between atoms: O_36  and  C_42
   22  A    between atoms: N_39  and  N_57
   23  A    between atoms: C_54  and  CA_58
                            x       y       z     vdW  Elec       q    Type
                         _______ _______ _______ _____ _____    ______ ____

>  <TORSDO>
F 23

$$$$
=
 OpenBabel10222418403D

 66 75  0  0  1  0  0  0  0  0999 V2000
  190.8460  177.2770  139.4260 C   0  0  0  0  0  0  0  0  0  0  0  0
  191.8720  175.5130  138.1070 C   0  0  0  0  0  0  0  0  0  0  0  0
  194.2200  174.1550  137.3200 C   0  0  0  0  0  0  0  0  0  0  0  0
  190.7130  176.1990  138.5150 C   0  0  0  0  0  0  0  0  0  0  0  0
  192.9670  173.7850  136.8010 C   0  0  0  0  0  3  0  0  0  0  0  0
  193.1260  175.8840  138.6420 C   0  0  0  0  0  0  0  0  0  0  0  0
  193.2110  176.9050  139.5330 N   0  0  0  0  0  0  0  0  0  0  0  0
  191.8060  174.4560  137.1900 C   0  0  0  0  0  3  0  0  0  0  0  0
  194.2820  175.2050  138.2520 C   0  0  0  0  0  3  0  0  0  0  0  0
  192.1140  177.6030  139.9220 C   0  0  0  0  0  3  0  0  0  0  0  0
  197.7640  171.9700  136.2390 C   0  0  0  0  0  3  0  0  0  0  0  0
  196.8190  171.4180  137.1040 C   0  0  0  0  0  3  0  0  0  0  0  0
  195.6790  172.1470  137.4440 C   0  0  0  0  0  3  0  0  0  0  0  0
  196.4280  173.9970  136.0550 C   0  0  0  0  0  0  0  0  0  0  0  0
  197.5700  173.2490  135.7210 C   0  0  0  0  0  3  0  0  0  0  0  0
  195.4600  173.4350  136.9270 C   0  0  0  0  0  0  0  0  0  0  0  0
  196.2590  175.2920  135.5470 O   0  0  0  0  0  0  0  0  0  0  0  0
  197.3450  176.1680  135.2790 C   0  0  0  0  0  1  0  0  0  0  0  0
  189.4420  175.7840  137.9850 N   0  0  0  0  0  2  0  0  0  0  0  0
  188.1850  178.1800  136.4470 C   0  0  0  0  0  2  0  0  0  0  0  0
  188.9050  176.1720  136.6890 C   0  0  2  0  0  3  0  0  0  0  0  0
  189.5250  177.4900  136.2600 C   0  0  0  0  0  2  0  0  0  0  0  0
  187.5640  176.8640  136.8730 C   0  0  2  0  0  3  0  0  0  0  0  0
  186.5740  176.4100  135.8440 C   0  0  0  0  0  0  0  0  0  0  0  0
  186.0970  177.2550  135.0370 O   0  0  0  0  0  0  0  0  0  0  0  0
  186.2120  175.0620  135.7580 O   0  0  0  0  0  0  0  0  0  0  0  0
  184.0680  173.9900  135.6520 C   0  0  1  0  0  3  0  0  0  0  0  0
  185.0950  173.1000  134.9900 C   0  0  0  0  0  2  0  0  0  0  0  0
  185.2080  174.6040  134.8650 C   0  0  2  0  0  3  0  0  0  0  0  0
  182.8010  173.9670  134.8090 C   0  0  0  0  0  2  0  0  0  0  0  0
  181.5160  171.6440  137.2630 C   0  0  0  0  0  2  0  0  0  0  0  0
  181.5290  173.6900  135.6090 C   0  0  2  0  0  0  0  0  0  0  0  0
  179.0010  173.9320  135.7250 C   0  0  0  0  0  2  0  0  0  0  0  0
  180.3340  174.2450  137.7910 C   0  0  0  0  0  2  0  0  0  0  0  0
  180.2720  174.2130  134.8800 C   0  0  0  0  0  2  0  0  0  0  0  0
  179.3740  173.2760  137.0720 C   0  0  2  0  0  3  0  0  0  0  0  0
  181.6110  174.4670  136.9450 C   0  0  0  0  0  2  0  0  0  0  0  0
  180.1140  171.9510  136.7570 C   0  0  2  0  0  0  0  0  0  0  0  0
  179.3490  170.8500  136.3800 O   0  0  0  0  0  1  0  0  0  0  0  0
  181.3230  172.1580  135.8330 C   0  0  2  0  0  3  0  0  0  0  0  0
  189.6940  178.1490  139.8120 C   0  0  0  0  0  2  0  0  0  0  0  0
  188.4790  177.3140  140.1830 C   0  0  0  0  0  2  0  0  0  0  0  0
  188.2260  177.4020  141.6150 N   0  0  0  0  0  0  0  0  0  0  0  0
  189.6820  176.7340  143.4080 C   0  0  0  0  0  0  0  0  0  0  0  0
  188.7620  176.4360  142.5300 C   0  0  0  0  0  3  0  0  0  0  0  0
  190.6020  177.0140  144.2920 C   0  0  0  0  0  3  0  0  0  0  0  0
  190.2740  177.2380  145.7040 C   0  0  0  0  0  0  0  0  0  0  0  0
  191.0150  176.8290  146.6830 N   0  0  0  0  0  0  0  0  0  0  0  0
  189.1140  177.9510  146.1120 N   0  0  0  0  0  0  0  0  0  0  0  0
  189.1780  177.9580  147.3970 C   0  0  0  0  0  0  0  0  0  0  0  0
  190.3770  177.2510  147.9180 C   0  0  0  0  0  2  0  0  0  0  0  0
  188.1980  178.5910  148.2130 N   0  0  0  0  0  1  0  0  0  0  0  0
  187.6500  178.5720  142.1320 N   0  0  0  0  0  2  0  0  0  0  0  0
  186.2930  178.2990  142.3650 N   0  0  0  0  0  2  0  0  0  0  0  0
  185.5380  179.3990  141.7980 C   0  0  0  0  0  2  0  0  0  0  0  0
  185.1340  179.0620  140.4410 N   0  0  0  0  0  2  0  0  0  0  0  0
  183.7010  178.8310  140.4770 C   0  0  1  0  0  3  0  0  0  0  0  0
  182.6910  177.9220  138.5120 O   0  0  0  0  0  1  0  0  0  0  0  0
  183.3510  177.5760  139.6910 C   0  0  0  0  0  2  0  0  0  0  0  0
  183.2100  178.7560  141.9230 C   0  0  0  0  0  2  0  0  0  0  0  0
  181.7060  178.5510  142.0130 C   0  0  2  0  0  3  0  0  0  0  0  0
  181.0710  179.8010  141.9110 O   0  0  0  0  0  0  0  0  0  0  0  0
  181.1760  179.2540  143.2040 C   0  0  1  0  0  3  0  0  0  0  0  0
  179.0550  179.3640  144.5710 N   0  0  0  0  0  1  0  0  0  0  0  0
  179.8560  178.6880  143.6060 C   0  0  0  0  0  0  0  0  0  0  0  0
  179.4590  177.5980  143.1160 O   0  0  0  0  0  0  0  0  0  0  0  0
  1 41  1  0  0  0  0
  1 10  1  0  0  0  0
  2  4  1  0  0  0  0
  2  6  1  0  0  0  0
  3  9  1  0  0  0  0
  4  1  2  0  0  0  0
  5  8  1  0  0  0  0
  5  3  2  0  0  0  0
  6  7  1  0  0  0  0
  7 10  2  0  0  0  0
  8  2  2  0  0  0  0
  9  6  2  0  0  0  0
 11 12  1  0  0  0  0
 12 13  2  0  0  0  0
 14 16  2  0  0  0  0
 15 14  1  0  0  0  0
 15 11  2  0  0  0  0
 16  3  1  0  0  0  0
 16 13  1  0  0  0  0
 17 14  1  0  0  0  0
 18 17  1  0  0  0  0
 19  4  1  0  0  0  0
 20 23  1  0  0  0  0
 21 23  1  0  0  0  0
 21 19  1  1  0  0  0
 22 20  1  0  0  0  0
 22 21  1  0  0  0  0
 23 24  1  6  0  0  0
 25 24  2  0  0  0  0
 26 24  1  0  0  0  0
 27 30  1  6  0  0  0
 28 27  1  0  0  0  0
 29 28  1  0  0  0  0
 29 27  1  0  0  0  0
 29 26  1  1  0  0  0
 32 30  1  6  0  0  0
 32 40  1  0  0  0  0
 32 37  1  0  0  0  0
 35 32  1  0  0  0  0
 35 33  1  0  0  0  0
 36 33  1  6  0  0  0
 36 34  1  0  0  0  0
 37 34  1  0  0  0  0
 38 39  1  6  0  0  0
 38 36  1  0  0  0  0
 38 31  1  0  0  0  0
 40 38  1  0  0  0  0
 40 31  1  1  0  0  0
 41 42  1  0  0  0  0
 42 43  1  0  0  0  0
 43 53  1  0  0  0  0
 43 45  1  0  0  0  0
 44 46  2  0  0  0  0
 45 44  2  0  0  0  0
 46 47  1  0  0  0  0
 47 49  1  0  0  0  0
 47 48  2  0  0  0  0
 48 51  1  0  0  0  0
 49 50  2  0  0  0  0
 50 51  1  0  0  0  0
 50 52  1  0  0  0  0
 53 54  1  0  0  0  0
 55 54  1  0  0  0  0
 56 57  1  0  0  0  0
 56 55  1  0  0  0  0
 57 59  1  1  0  0  0
 57 60  1  0  0  0  0
 58 59  1  0  0  0  0
 61 60  1  1  0  0  0
 61 63  1  0  0  0  0
 62 61  1  0  0  0  0
 62 63  1  0  0  0  0
 63 65  1  6  0  0  0
 65 64  1  0  0  0  0
 66 65  2  0  0  0  0
M  END
>  <MODEL>
7

>  <REMARK>
 VINA RESULT:      -6.0      3.282     10.025
  Name = 
  23 active torsions:
  status: ('A' for Active; 'I' for Inactive)
    1  A    between atoms: C_1  and  C_19
    2  A    between atoms: C_3  and  C_45
    3  A    between atoms: C_4  and  C_45
    4  A    between atoms: C_5  and  C_6
    5  A    between atoms: C_6  and  CA_58
    6  A    between atoms: C_8  and  O_18
    7  A    between atoms: C_8  and  C_62
    8  A    between atoms: C_11  and  C_53
    9  A    between atoms: C_12  and  N_61
   10  A    between atoms: C_14  and  N_33
   11  A    between atoms: C_15  and  C_43
   12  A    between atoms: O_18  and  C_28
   13  A    between atoms: C_19  and  C_22
   14  A    between atoms: C_22  and  N_33
   15  A    between atoms: C_24  and  N_61
   16  A    between atoms: C_25  and  C_60
   17  A    between atoms: C_30  and  N_31
   18  A    between atoms: C_30  and  N_39
   19  A    between atoms: N_31  and  CA_58
   20  A    between atoms: N_33  and  N_57
   21  A    between atoms: O_36  and  C_42
   22  A    between atoms: N_39  and  N_57
   23  A    between atoms: C_54  and  CA_58
                            x       y       z     vdW  Elec       q    Type
                         _______ _______ _______ _____ _____    ______ ____

>  <TORSDO>
F 23

$$$$
=
 OpenBabel10222418403D

 66 75  0  0  1  0  0  0  0  0999 V2000
  185.6790  178.5060  141.9830 C   0  0  0  0  0  0  0  0  0  0  0  0
  187.8540  177.6380  142.6320 C   0  0  0  0  0  0  0  0  0  0  0  0
  189.6550  176.9660  144.7010 C   0  0  0  0  0  0  0  0  0  0  0  0
  186.9410  177.9740  141.6150 C   0  0  0  0  0  0  0  0  0  0  0  0
  190.0150  176.8000  143.3530 C   0  0  0  0  0  3  0  0  0  0  0  0
  187.4800  177.7980  143.9850 C   0  0  0  0  0  0  0  0  0  0  0  0
  186.2520  178.2860  144.2990 N   0  0  0  0  0  0  0  0  0  0  0  0
  189.1250  177.1310  142.3290 C   0  0  0  0  0  3  0  0  0  0  0  0
  188.3740  177.4590  145.0030 C   0  0  0  0  0  3  0  0  0  0  0  0
  185.3630  178.6450  143.3390 C   0  0  0  0  0  3  0  0  0  0  0  0
  192.4260  175.8430  147.7940 C   0  0  0  0  0  3  0  0  0  0  0  0
  192.5320  175.3100  146.5100 C   0  0  0  0  0  3  0  0  0  0  0  0
  191.6200  175.6850  145.5240 C   0  0  0  0  0  3  0  0  0  0  0  0
  190.4760  177.1310  147.1090 C   0  0  0  0  0  0  0  0  0  0  0  0
  191.4040  176.7440  148.0910 C   0  0  0  0  0  3  0  0  0  0  0  0
  190.5880  176.5990  145.7990 C   0  0  0  0  0  0  0  0  0  0  0  0
  189.4400  178.0190  147.4280 O   0  0  0  0  0  0  0  0  0  0  0  0
  188.9650  178.2110  148.7540 C   0  0  0  0  0  1  0  0  0  0  0  0
  187.3280  177.7720  140.2450 N   0  0  0  0  0  2  0  0  0  0  0  0
  189.0780  178.8540  137.9100 C   0  0  0  0  0  2  0  0  0  0  0  0
  188.6940  177.8040  139.7430 C   0  0  2  0  0  3  0  0  0  0  0  0
  189.0640  179.2320  139.3820 C   0  0  0  0  0  2  0  0  0  0  0  0
  188.7110  177.4280  138.2700 C   0  0  2  0  0  3  0  0  0  0  0  0
  189.8550  176.5120  137.9590 C   0  0  0  0  0  0  0  0  0  0  0  0
  190.1940  175.6440  138.8100 O   0  0  0  0  0  0  0  0  0  0  0  0
  190.5140  176.5960  136.7290 O   0  0  0  0  0  0  0  0  0  0  0  0
  192.3220  175.4490  135.6470 C   0  0  1  0  0  3  0  0  0  0  0  0
  191.3220  175.8870  134.6000 C   0  0  0  0  0  2  0  0  0  0  0  0
  190.8410  175.4450  135.9640 C   0  0  2  0  0  3  0  0  0  0  0  0
  192.7880  174.0410  135.3020 C   0  0  0  0  0  2  0  0  0  0  0  0
  194.8960  175.0310  138.0670 C   0  0  0  0  0  2  0  0  0  0  0  0
  194.0930  173.6360  135.9870 C   0  0  2  0  0  0  0  0  0  0  0  0
  196.3580  172.5080  135.7390 C   0  0  0  0  0  2  0  0  0  0  0  0
  195.0540  172.1410  137.8140 C   0  0  0  0  0  2  0  0  0  0  0  0
  195.0520  172.9220  135.0090 C   0  0  0  0  0  2  0  0  0  0  0  0
  196.2840  172.8700  137.2370 C   0  0  2  0  0  3  0  0  0  0  0  0
  193.7640  172.6100  137.0990 C   0  0  0  0  0  2  0  0  0  0  0  0
  196.0750  174.4020  137.3390 C   0  0  2  0  0  0  0  0  0  0  0  0
  197.1820  175.2270  137.1460 O   0  0  0  0  0  1  0  0  0  0  0  0
  194.8520  174.8820  136.5430 C   0  0  2  0  0  3  0  0  0  0  0  0
  184.6990  179.0170  140.9750 C   0  0  0  0  0  2  0  0  0  0  0  0
  183.7300  177.9220  140.5540 C   0  0  0  0  0  2  0  0  0  0  0  0
  183.3240  178.1160  139.1690 N   0  0  0  0  0  0  0  0  0  0  0  0
  181.3880  179.5330  139.0090 C   0  0  0  0  0  0  0  0  0  0  0  0
  181.9570  178.3720  138.8190 C   0  0  0  0  0  3  0  0  0  0  0  0
  180.8030  180.6860  139.1910 C   0  0  0  0  0  3  0  0  0  0  0  0
  180.6040  181.6340  138.0900 C   0  0  0  0  0  0  0  0  0  0  0  0
  179.7500  181.4500  137.1350 N   0  0  0  0  0  0  0  0  0  0  0  0
  181.3260  182.8550  137.9980 N   0  0  0  0  0  0  0  0  0  0  0  0
  180.8730  183.4150  136.9310 C   0  0  0  0  0  0  0  0  0  0  0  0
  179.8300  182.6020  136.2520 C   0  0  0  0  0  2  0  0  0  0  0  0
  181.3290  184.6830  136.4750 N   0  0  0  0  0  1  0  0  0  0  0  0
  184.3140  178.2870  138.1890 N   0  0  0  0  0  2  0  0  0  0  0  0
  183.9650  177.4750  137.0990 N   0  0  0  0  0  2  0  0  0  0  0  0
  184.9600  176.4230  137.0220 C   0  0  0  0  0  2  0  0  0  0  0  0
  184.6350  175.5270  135.9220 N   0  0  0  0  0  2  0  0  0  0  0  0
  185.6230  174.4630  135.9430 C   0  0  1  0  0  3  0  0  0  0  0  0
  187.2860  175.7610  134.8210 O   0  0  0  0  0  1  0  0  0  0  0  0
  187.0260  175.0510  135.9940 C   0  0  0  0  0  2  0  0  0  0  0  0
  185.3580  173.5150  137.1110 C   0  0  0  0  0  2  0  0  0  0  0  0
  183.9070  173.0600  137.1700 C   0  0  2  0  0  3  0  0  0  0  0  0
  183.8720  171.7000  137.5260 O   0  0  0  0  0  0  0  0  0  0  0  0
  183.6750  171.9980  136.1630 C   0  0  1  0  0  3  0  0  0  0  0  0
  181.6580  172.6800  134.8050 N   0  0  0  0  0  1  0  0  0  0  0  0
  182.2230  171.8850  135.8420 C   0  0  0  0  0  0  0  0  0  0  0  0
  181.4880  171.1070  136.5050 O   0  0  0  0  0  0  0  0  0  0  0  0
  1 10  1  0  0  0  0
  2  6  1  0  0  0  0
  3  9  1  0  0  0  0
  3 16  1  0  0  0  0
  4  1  2  0  0  0  0
  4  2  1  0  0  0  0
  5  3  2  0  0  0  0
  6  7  1  0  0  0  0
  6  9  2  0  0  0  0
  8  2  2  0  0  0  0
  8  5  1  0  0  0  0
 10  7  2  0  0  0  0
 11 15  1  0  0  0  0
 12 11  2  0  0  0  0
 13 16  2  0  0  0  0
 13 12  1  0  0  0  0
 14 17  1  0  0  0  0
 14 15  2  0  0  0  0
 16 14  1  0  0  0  0
 17 18  1  0  0  0  0
 19  4  1  0  0  0  0
 20 23  1  0  0  0  0
 20 22  1  0  0  0  0
 21 19  1  6  0  0  0
 22 21  1  0  0  0  0
 23 24  1  1  0  0  0
 23 21  1  0  0  0  0
 24 25  2  0  0  0  0
 26 24  1  0  0  0  0
 27 30  1  6  0  0  0
 27 29  1  0  0  0  0
 28 27  1  0  0  0  0
 28 29  1  0  0  0  0
 29 26  1  1  0  0  0
 32 30  1  6  0  0  0
 32 40  1  0  0  0  0
 32 37  1  0  0  0  0
 35 33  1  0  0  0  0
 35 32  1  0  0  0  0
 36 33  1  6  0  0  0
 36 38  1  0  0  0  0
 36 34  1  0  0  0  0
 37 34  1  0  0  0  0
 38 39  1  6  0  0  0
 38 31  1  0  0  0  0
 40 38  1  0  0  0  0
 40 31  1  1  0  0  0
 41  1  1  0  0  0  0
 42 41  1  0  0  0  0
 43 42  1  0  0  0  0
 44 46  2  0  0  0  0
 45 44  2  0  0  0  0
 45 43  1  0  0  0  0
 47 46  1  0  0  0  0
 48 47  2  0  0  0  0
 49 47  1  0  0  0  0
 50 49  2  0  0  0  0
 51 50  1  0  0  0  0
 51 48  1  0  0  0  0
 52 50  1  0  0  0  0
 53 43  1  0  0  0  0
 54 53  1  0  0  0  0
 55 54  1  0  0  0  0
 56 57  1  0  0  0  0
 56 55  1  0  0  0  0
 57 59  1  1  0  0  0
 57 60  1  0  0  0  0
 58 59  1  0  0  0  0
 61 60  1  6  0  0  0
 61 62  1  0  0  0  0
 63 65  1  1  0  0  0
 63 61  1  0  0  0  0
 63 62  1  0  0  0  0
 64 65  1  0  0  0  0
 65 66  2  0  0  0  0
M  END
>  <MODEL>
8

>  <REMARK>
 VINA RESULT:      -5.9      1.838      3.034
  Name = 
  23 active torsions:
  status: ('A' for Active; 'I' for Inactive)
    1  A    between atoms: C_1  and  C_19
    2  A    between atoms: C_3  and  C_45
    3  A    between atoms: C_4  and  C_45
    4  A    between atoms: C_5  and  C_6
    5  A    between atoms: C_6  and  CA_58
    6  A    between atoms: C_8  and  O_18
    7  A    between atoms: C_8  and  C_62
    8  A    between atoms: C_11  and  C_53
    9  A    between atoms: C_12  and  N_61
   10  A    between atoms: C_14  and  N_33
   11  A    between atoms: C_15  and  C_43
   12  A    between atoms: O_18  and  C_28
   13  A    between atoms: C_19  and  C_22
   14  A    between atoms: C_22  and  N_33
   15  A    between atoms: C_24  and  N_61
   16  A    between atoms: C_25  and  C_60
   17  A    between atoms: C_30  and  N_31
   18  A    between atoms: C_30  and  N_39
   19  A    between atoms: N_31  and  CA_58
   20  A    between atoms: N_33  and  N_57
   21  A    between atoms: O_36  and  C_42
   22  A    between atoms: N_39  and  N_57
   23  A    between atoms: C_54  and  CA_58
                            x       y       z     vdW  Elec       q    Type
                         _______ _______ _______ _____ _____    ______ ____

>  <TORSDO>
F 23

$$$$
=
 OpenBabel10222418403D

 66 75  0  0  1  0  0  0  0  0999 V2000
  185.1990  178.5520  140.5570 C   0  0  0  0  0  0  0  0  0  0  0  0
  187.3810  178.1560  141.5520 C   0  0  0  0  0  0  0  0  0  0  0  0
  188.8980  177.5320  143.8500 C   0  0  0  0  0  0  0  0  0  0  0  0
  186.6070  178.4610  140.4160 C   0  0  0  0  0  0  0  0  0  0  0  0
  189.5280  177.7690  142.6160 C   0  0  0  0  0  3  0  0  0  0  0  0
  186.7390  177.9090  142.7850 C   0  0  0  0  0  0  0  0  0  0  0  0
  185.3860  177.9790  142.8760 N   0  0  0  0  0  0  0  0  0  0  0  0
  188.7780  178.0770  141.4790 C   0  0  0  0  0  3  0  0  0  0  0  0
  187.4960  177.5960  143.9170 C   0  0  0  0  0  3  0  0  0  0  0  0
  184.6180  178.2990  141.8050 C   0  0  0  0  0  3  0  0  0  0  0  0
  191.2720  176.4980  147.2850 C   0  0  0  0  0  3  0  0  0  0  0  0
  191.7190  176.2150  145.9950 C   0  0  0  0  0  3  0  0  0  0  0  0
  190.9300  176.5550  144.8960 C   0  0  0  0  0  3  0  0  0  0  0  0
  189.2290  177.4630  146.3770 C   0  0  0  0  0  0  0  0  0  0  0  0
  190.0360  177.1150  147.4740 C   0  0  0  0  0  3  0  0  0  0  0  0
  189.6850  177.1850  145.0630 C   0  0  0  0  0  0  0  0  0  0  0  0
  187.9780  178.0600  146.5830 O   0  0  0  0  0  0  0  0  0  0  0  0
  186.8230  177.3270  146.9700 C   0  0  0  0  0  1  0  0  0  0  0  0
  187.2760  178.6760  139.1610 N   0  0  0  0  0  2  0  0  0  0  0  0
  189.7610  176.9430  138.4490 C   0  0  0  0  0  2  0  0  0  0  0  0
  187.7340  177.6260  138.2620 C   0  0  2  0  0  3  0  0  0  0  0  0
  188.4320  176.5440  139.0660 C   0  0  0  0  0  2  0  0  0  0  0  0
  189.0650  178.0230  137.6430 C   0  0  2  0  0  3  0  0  0  0  0  0
  189.1070  177.6800  136.1850 C   0  0  0  0  0  0  0  0  0  0  0  0
  188.3250  178.2730  135.3930 O   0  0  0  0  0  0  0  0  0  0  0  0
  190.0250  176.7400  135.7060 O   0  0  0  0  0  0  0  0  0  0  0  0
  191.9390  175.3860  136.2140 C   0  0  1  0  0  3  0  0  0  0  0  0
  190.8790  174.5170  135.5770 C   0  0  0  0  0  2  0  0  0  0  0  0
  190.4740  175.6490  136.4950 C   0  0  2  0  0  3  0  0  0  0  0  0
  192.5640  174.6100  137.3660 C   0  0  0  0  0  2  0  0  0  0  0  0
  194.1190  172.4660  134.9050 C   0  0  0  0  0  2  0  0  0  0  0  0
  193.9240  173.9980  137.0350 C   0  0  2  0  0  0  0  0  0  0  0  0
  196.1730  173.2180  137.9280 C   0  0  0  0  0  2  0  0  0  0  0  0
  196.0920  174.4190  135.7620 C   0  0  0  0  0  2  0  0  0  0  0  0
  194.7940  173.8250  138.3000 C   0  0  0  0  0  2  0  0  0  0  0  0
  196.2940  173.0310  136.4010 C   0  0  2  0  0  3  0  0  0  0  0  0
  194.6900  174.9760  136.1110 C   0  0  0  0  0  2  0  0  0  0  0  0
  195.1520  172.0820  135.9540 C   0  0  2  0  0  0  0  0  0  0  0  0
  195.3110  170.7170  136.1810 O   0  0  0  0  0  1  0  0  0  0  0  0
  193.7680  172.5840  136.3920 C   0  0  2  0  0  3  0  0  0  0  0  0
  184.3080  179.0010  139.4430 C   0  0  0  0  0  2  0  0  0  0  0  0
  183.4930  177.8400  138.8950 C   0  0  0  0  0  2  0  0  0  0  0  0
  182.2130  178.3180  138.3900 N   0  0  0  0  0  0  0  0  0  0  0  0
  181.1240  179.6210  136.6880 C   0  0  0  0  0  0  0  0  0  0  0  0
  182.0700  178.7930  137.0450 C   0  0  0  0  0  3  0  0  0  0  0  0
  180.1860  180.4480  136.3140 C   0  0  0  0  0  3  0  0  0  0  0  0
  180.4470  181.8790  136.1230 C   0  0  0  0  0  0  0  0  0  0  0  0
  180.2250  182.5020  135.0100 N   0  0  0  0  0  0  0  0  0  0  0  0
  180.9490  182.7060  137.1640 N   0  0  0  0  0  0  0  0  0  0  0  0
  181.0280  183.8760  136.6320 C   0  0  0  0  0  0  0  0  0  0  0  0
  180.5870  183.8950  135.2130 C   0  0  0  0  0  2  0  0  0  0  0  0
  181.4800  185.0180  137.3510 N   0  0  0  0  0  1  0  0  0  0  0  0
  181.0560  178.0960  139.1520 N   0  0  0  0  0  2  0  0  0  0  0  0
  181.0800  176.7540  139.5620 N   0  0  0  0  0  2  0  0  0  0  0  0
  180.1700  176.0320  138.6950 C   0  0  0  0  0  2  0  0  0  0  0  0
  180.3390  174.6010  138.8970 N   0  0  0  0  0  2  0  0  0  0  0  0
  181.1590  174.1180  137.8000 C   0  0  1  0  0  3  0  0  0  0  0  0
  180.5280  173.5910  135.5560 O   0  0  0  0  0  1  0  0  0  0  0  0
  180.6210  174.6370  136.4750 C   0  0  0  0  0  2  0  0  0  0  0  0
  182.6210  174.5090  138.0170 C   0  0  0  0  0  2  0  0  0  0  0  0
  183.5550  173.8250  137.0290 C   0  0  2  0  0  3  0  0  0  0  0  0
  183.7130  172.4820  137.4100 O   0  0  0  0  0  0  0  0  0  0  0  0
  184.7690  173.3550  137.7330 C   0  0  1  0  0  3  0  0  0  0  0  0
  186.6720  174.2540  136.3370 N   0  0  0  0  0  1  0  0  0  0  0  0
  185.8890  173.1470  136.7700 C   0  0  0  0  0  0  0  0  0  0  0  0
  186.1270  171.9960  136.3160 O   0  0  0  0  0  0  0  0  0  0  0  0
  1 10  1  0  0  0  0
  2  6  1  0  0  0  0
  3  9  1  0  0  0  0
  3 16  1  0  0  0  0
  4  1  2  0  0  0  0
  4  2  1  0  0  0  0
  5  3  2  0  0  0  0
  6  7  1  0  0  0  0
  6  9  2  0  0  0  0
  8  2  2  0  0  0  0
  8  5  1  0  0  0  0
 10  7  2  0  0  0  0
 11 15  1  0  0  0  0
 12 11  2  0  0  0  0
 13 16  2  0  0  0  0
 13 12  1  0  0  0  0
 14 17  1  0  0  0  0
 14 15  2  0  0  0  0
 16 14  1  0  0  0  0
 17 18  1  0  0  0  0
 19  4  1  0  0  0  0
 20 22  1  0  0  0  0
 21 22  1  0  0  0  0
 21 19  1  1  0  0  0
 23 24  1  6  0  0  0
 23 21  1  0  0  0  0
 23 20  1  0  0  0  0
 25 24  2  0  0  0  0
 26 24  1  0  0  0  0
 27 29  1  0  0  0  0
 27 30  1  1  0  0  0
 28 27  1  0  0  0  0
 28 29  1  0  0  0  0
 29 26  1  6  0  0  0
 31 38  1  0  0  0  0
 32 30  1  1  0  0  0
 32 35  1  0  0  0  0
 33 35  1  0  0  0  0
 34 37  1  0  0  0  0
 36 34  1  6  0  0  0
 36 33  1  0  0  0  0
 37 32  1  0  0  0  0
 38 39  1  1  0  0  0
 38 40  1  0  0  0  0
 38 36  1  0  0  0  0
 40 31  1  6  0  0  0
 40 32  1  0  0  0  0
 41  1  1  0  0  0  0
 42 41  1  0  0  0  0
 43 42  1  0  0  0  0
 43 53  1  0  0  0  0
 44 45  2  0  0  0  0
 45 43  1  0  0  0  0
 46 44  2  0  0  0  0
 47 46  1  0  0  0  0
 47 49  1  0  0  0  0
 48 51  1  0  0  0  0
 48 47  2  0  0  0  0
 50 49  2  0  0  0  0
 50 52  1  0  0  0  0
 51 50  1  0  0  0  0
 53 54  1  0  0  0  0
 55 56  1  0  0  0  0
 55 54  1  0  0  0  0
 57 59  1  6  0  0  0
 57 60  1  0  0  0  0
 57 56  1  0  0  0  0
 58 59  1  0  0  0  0
 61 62  1  0  0  0  0
 61 63  1  0  0  0  0
 61 60  1  1  0  0  0
 62 63  1  0  0  0  0
 63 65  1  6  0  0  0
 64 65  1  0  0  0  0
 66 65  2  0  0  0  0
M  END
>  <MODEL>
9

>  <REMARK>
 VINA RESULT:      -5.8      1.500      2.226
  Name = 
  23 active torsions:
  status: ('A' for Active; 'I' for Inactive)
    1  A    between atoms: C_1  and  C_19
    2  A    between atoms: C_3  and  C_45
    3  A    between atoms: C_4  and  C_45
    4  A    between atoms: C_5  and  C_6
    5  A    between atoms: C_6  and  CA_58
    6  A    between atoms: C_8  and  O_18
    7  A    between atoms: C_8  and  C_62
    8  A    between atoms: C_11  and  C_53
    9  A    between atoms: C_12  and  N_61
   10  A    between atoms: C_14  and  N_33
   11  A    between atoms: C_15  and  C_43
   12  A    between atoms: O_18  and  C_28
   13  A    between atoms: C_19  and  C_22
   14  A    between atoms: C_22  and  N_33
   15  A    between atoms: C_24  and  N_61
   16  A    between atoms: C_25  and  C_60
   17  A    between atoms: C_30  and  N_31
   18  A    between atoms: C_30  and  N_39
   19  A    between atoms: N_31  and  CA_58
   20  A    between atoms: N_33  and  N_57
   21  A    between atoms: O_36  and  C_42
   22  A    between atoms: N_39  and  N_57
   23  A    between atoms: C_54  and  CA_58
                            x       y       z     vdW  Elec       q    Type
                         _______ _______ _______ _____ _____    ______ ____

>  <TORSDO>
F 23

$$$$
