=
 OpenBabel10222419533D

 37 39  0  0  1  0  0  0  0  0999 V2000
  187.5270  178.5950  141.5830 N   0  0  0  0  0  0  0  0  0  0  0  0
  190.9000  177.5390  141.0290 O   0  0  0  0  0  0  0  0  0  0  0  0
  187.2400  177.8810  142.6400 C   0  0  0  0  0  0  0  0  0  0  0  0
  188.1100  176.8030  143.0310 N   0  0  0  0  0  0  0  0  0  0  0  0
  188.6490  178.3070  140.6810 C   0  0  1  0  0  3  0  0  0  0  0  0
  189.6950  177.4930  141.3890 C   0  0  0  0  0  0  0  0  0  0  0  0
  189.2700  176.6080  142.4750 C   0  0  0  0  0  0  0  0  0  0  0  0
  183.6070  178.7580  144.7690 C   0  0  0  0  0  3  0  0  0  0  0  0
  184.7860  178.5800  145.4910 C   0  0  0  0  0  3  0  0  0  0  0  0
  187.4190  178.1600  145.8520 Cl  0  0  0  0  0  0  0  0  0  0  0  0
  182.1470  178.8910  142.4680 Cl  0  0  0  0  0  0  0  0  0  0  0  0
  186.0160  178.1920  143.4210 C   0  0  0  0  0  0  0  0  0  0  0  0
  183.6230  178.6630  143.3790 C   0  0  0  0  0  0  0  0  0  0  0  0
  185.9900  178.3010  144.8370 C   0  0  0  0  0  0  0  0  0  0  0  0
  184.8170  178.3830  142.7130 C   0  0  0  0  0  3  0  0  0  0  0  0
  190.1100  175.5780  142.9020 O   0  0  0  0  0  0  0  0  0  0  0  0
  191.3530  175.8300  143.5410 C   0  0  0  0  0  2  0  0  0  0  0  0
  191.1310  176.7030  144.7590 C   0  0  2  0  0  3  0  0  0  0  0  0
  191.6820  177.9660  144.5390 O   0  0  0  0  0  1  0  0  0  0  0  0
  191.7870  176.0550  145.9670 C   0  0  0  0  0  2  0  0  0  0  0  0
  190.0930  176.9960  147.3450 O   0  0  0  0  0  0  0  0  0  0  0  0
  191.3090  176.6930  147.2300 C   0  0  0  0  0  0  0  0  0  0  0  0
  193.2440  176.1490  148.5010 O   0  0  0  0  0  1  0  0  0  0  0  0
  192.1820  176.9380  148.2880 O   0  0  0  0  0  0  0  0  0  0  0  0
  188.1120  177.5420  139.4740 C   0  0  0  0  0  2  0  0  0  0  0  0
  188.9950  179.3210  138.1220 O   0  0  0  0  0  1  0  0  0  0  0  0
  188.8180  177.9360  138.1800 C   0  0  2  0  0  3  0  0  0  0  0  0
  186.7530  178.1470  136.7410 C   0  0  0  0  0  1  0  0  0  0  0  0
  188.0750  177.4220  136.9410 C   0  0  2  0  0  3  0  0  0  0  0  0
  187.8370  176.0480  137.0630 O   0  0  0  0  0  0  0  0  0  0  0  0
  188.7090  175.4170  136.1690 C   0  0  1  0  0  3  0  0  0  0  0  0
  191.0720  175.1990  138.4600 O   0  0  0  0  0  0  0  0  0  0  0  0
  189.3410  174.2020  136.8460 C   0  0  1  0  0  3  0  0  0  0  0  0
  190.5200  173.8240  136.2010 N   0  0  0  0  0  2  0  0  0  0  0  0
  190.4890  174.6140  137.5120 C   0  0  0  0  0  0  0  0  0  0  0  0
  187.1360  174.1110  134.9700 O   0  0  0  0  0  0  0  0  0  0  0  0
  187.9490  175.0210  134.9380 C   0  0  0  0  0  3  0  0  0  0  0  0
  1  3  2  0  0  0  0
  2  6  2  0  0  0  0
  3  4  1  0  0  0  0
  3 12  1  0  0  0  0
  5 25  1  6  0  0  0
  5  6  1  0  0  0  0
  5  1  1  0  0  0  0
  6  7  1  0  0  0  0
  7 16  1  0  0  0  0
  7  4  2  0  0  0  0
  8  9  1  0  0  0  0
 11 13  1  0  0  0  0
 12 14  1  0  0  0  0
 13  8  2  0  0  0  0
 14  9  2  0  0  0  0
 14 10  1  0  0  0  0
 15 13  1  0  0  0  0
 15 12  2  0  0  0  0
 16 17  1  0  0  0  0
 17 18  1  0  0  0  0
 18 19  1  6  0  0  0
 18 20  1  0  0  0  0
 20 22  1  0  0  0  0
 22 21  2  0  0  0  0
 22 24  1  0  0  0  0
 24 23  1  0  0  0  0
 27 26  1  6  0  0  0
 27 25  1  0  0  0  0
 29 28  1  1  0  0  0
 29 30  1  0  0  0  0
 29 27  1  0  0  0  0
 31 37  1  6  0  0  0
 31 30  1  0  0  0  0
 33 31  1  6  0  0  0
 33 35  1  0  0  0  0
 34 33  1  0  0  0  0
 34 35  1  0  0  0  0
 35 32  2  0  0  0  0
 37 36  2  0  0  0  0
M  END
>  <MODEL>
1

>  <REMARK>
 VINA RESULT:      -8.1      0.000      0.000
  Name = 
  14 active torsions:
  status: ('A' for Active; 'I' for Inactive)
    1  A    between atoms: C_7  and  C_10
    2  A    between atoms: C_7  and  O_25
    3  A    between atoms: C_8  and  C_29
    4  A    between atoms: C_8  and  C_31
    5  A    between atoms: C_9  and  C_12
    6  A    between atoms: C_10  and  C_32
    7  A    between atoms: C_12  and  CA_17
    8  A    between atoms: C_12  and  O_20
    9  A    between atoms: C_14  and  C_24
   10  A    between atoms: C_19  and  C_29
   11  A    between atoms: O_20  and  C_31
   12  A    between atoms: C_22  and  C_32
   13  A    between atoms: C_22  and  O_33
   14  A    between atoms: O_25  and  C_27
                            x       y       z     vdW  Elec       q    Type
                         _______ _______ _______ _____ _____    ______ ____

>  <TORSDO>
F 14

$$$$
=
 OpenBabel10222419533D

 37 39  0  0  1  0  0  0  0  0999 V2000
  185.9030  177.3660  143.8740 N   0  0  0  0  0  0  0  0  0  0  0  0
  189.2500  176.5450  142.9160 O   0  0  0  0  0  0  0  0  0  0  0  0
  185.5440  178.0840  142.8420 C   0  0  0  0  0  0  0  0  0  0  0  0
  186.5400  178.5410  141.9090 N   0  0  0  0  0  0  0  0  0  0  0  0
  187.2980  177.0670  144.2170 C   0  0  1  0  0  3  0  0  0  0  0  0
  188.1750  177.1940  143.0040 C   0  0  0  0  0  0  0  0  0  0  0  0
  187.7730  178.1280  141.9520 C   0  0  0  0  0  0  0  0  0  0  0  0
  181.4020  179.0030  142.1320 C   0  0  0  0  0  3  0  0  0  0  0  0
  181.8970  179.0770  143.4330 C   0  0  0  0  0  3  0  0  0  0  0  0
  183.7570  178.9830  145.3750 Cl  0  0  0  0  0  0  0  0  0  0  0  0
  181.6360  178.5570  139.4500 Cl  0  0  0  0  0  0  0  0  0  0  0  0
  184.1110  178.4210  142.6490 C   0  0  0  0  0  0  0  0  0  0  0  0
  182.2510  178.6470  141.0860 C   0  0  0  0  0  0  0  0  0  0  0  0
  183.2390  178.7930  143.7060 C   0  0  0  0  0  0  0  0  0  0  0  0
  183.5920  178.3600  141.3430 C   0  0  0  0  0  3  0  0  0  0  0  0
  188.7100  178.5580  141.0090 O   0  0  0  0  0  0  0  0  0  0  0  0
  188.7250  178.0660  139.6770 C   0  0  0  0  0  2  0  0  0  0  0  0
  189.8640  177.0820  139.5100 C   0  0  2  0  0  3  0  0  0  0  0  0
  190.9380  177.4670  140.3150 O   0  0  0  0  0  1  0  0  0  0  0  0
  190.2930  177.0520  138.0530 C   0  0  0  0  0  2  0  0  0  0  0  0
  192.5370  176.5880  137.4190 O   0  0  0  0  0  0  0  0  0  0  0  0
  191.4540  176.1310  137.8660 C   0  0  0  0  0  0  0  0  0  0  0  0
  190.4120  174.0020  137.6590 O   0  0  0  0  0  1  0  0  0  0  0  0
  191.3610  174.7800  138.1970 O   0  0  0  0  0  0  0  0  0  0  0  0
  187.7470  178.0450  145.3000 C   0  0  0  0  0  2  0  0  0  0  0  0
  186.7960  178.5480  147.4480 O   0  0  0  0  0  1  0  0  0  0  0  0
  187.4200  177.5440  146.7040 C   0  0  2  0  0  3  0  0  0  0  0  0
  189.4170  178.1250  148.1380 C   0  0  0  0  0  1  0  0  0  0  0  0
  188.6630  177.0120  147.4270 C   0  0  2  0  0  3  0  0  0  0  0  0
  189.5170  176.3850  146.5110 O   0  0  0  0  0  0  0  0  0  0  0  0
  190.8190  176.7390  146.8810 C   0  0  1  0  0  3  0  0  0  0  0  0
  193.2860  176.6140  149.0670 O   0  0  0  0  0  0  0  0  0  0  0  0
  191.4950  175.5520  147.5640 C   0  0  1  0  0  3  0  0  0  0  0  0
  192.6480  175.1660  146.8770 N   0  0  0  0  0  2  0  0  0  0  0  0
  192.6670  175.9940  148.1650 C   0  0  0  0  0  0  0  0  0  0  0  0
  191.2180  178.1410  145.0110 O   0  0  0  0  0  0  0  0  0  0  0  0
  191.5770  177.1710  145.6600 C   0  0  0  0  0  3  0  0  0  0  0  0
  1  5  1  0  0  0  0
  2  6  2  0  0  0  0
  3  1  2  0  0  0  0
  4  7  2  0  0  0  0
  4  3  1  0  0  0  0
  5 25  1  1  0  0  0
  6  5  1  0  0  0  0
  7  6  1  0  0  0  0
  8  9  1  0  0  0  0
  9 14  2  0  0  0  0
 11 13  1  0  0  0  0
 12  3  1  0  0  0  0
 12 14  1  0  0  0  0
 13 15  1  0  0  0  0
 13  8  2  0  0  0  0
 14 10  1  0  0  0  0
 15 12  2  0  0  0  0
 16  7  1  0  0  0  0
 17 16  1  0  0  0  0
 18 17  1  0  0  0  0
 18 19  1  1  0  0  0
 20 18  1  0  0  0  0
 21 22  2  0  0  0  0
 22 20  1  0  0  0  0
 22 24  1  0  0  0  0
 23 24  1  0  0  0  0
 25 27  1  0  0  0  0
 27 29  1  0  0  0  0
 27 26  1  1  0  0  0
 29 28  1  6  0  0  0
 30 31  1  0  0  0  0
 30 29  1  0  0  0  0
 31 37  1  6  0  0  0
 33 31  1  6  0  0  0
 33 35  1  0  0  0  0
 34 33  1  0  0  0  0
 34 35  1  0  0  0  0
 35 32  2  0  0  0  0
 36 37  2  0  0  0  0
M  END
>  <MODEL>
2

>  <REMARK>
 VINA RESULT:      -8.0      2.532      7.568
  Name = 
  14 active torsions:
  status: ('A' for Active; 'I' for Inactive)
    1  A    between atoms: C_7  and  C_10
    2  A    between atoms: C_7  and  O_25
    3  A    between atoms: C_8  and  C_29
    4  A    between atoms: C_8  and  C_31
    5  A    between atoms: C_9  and  C_12
    6  A    between atoms: C_10  and  C_32
    7  A    between atoms: C_12  and  CA_17
    8  A    between atoms: C_12  and  O_20
    9  A    between atoms: C_14  and  C_24
   10  A    between atoms: C_19  and  C_29
   11  A    between atoms: O_20  and  C_31
   12  A    between atoms: C_22  and  C_32
   13  A    between atoms: C_22  and  O_33
   14  A    between atoms: O_25  and  C_27
                            x       y       z     vdW  Elec       q    Type
                         _______ _______ _______ _____ _____    ______ ____

>  <TORSDO>
F 14

$$$$
=
 OpenBabel10222419533D

 37 39  0  0  1  0  0  0  0  0999 V2000
  185.6300  177.4510  143.6080 N   0  0  0  0  0  0  0  0  0  0  0  0
  188.9600  176.6380  142.5820 O   0  0  0  0  0  0  0  0  0  0  0  0
  185.2560  178.1860  142.5940 C   0  0  0  0  0  0  0  0  0  0  0  0
  186.2390  178.6560  141.6530 N   0  0  0  0  0  0  0  0  0  0  0  0
  187.0300  177.1430  143.9240 C   0  0  1  0  0  3  0  0  0  0  0  0
  187.8880  177.2880  142.6990 C   0  0  0  0  0  0  0  0  0  0  0  0
  187.4710  178.2410  141.6690 C   0  0  0  0  0  0  0  0  0  0  0  0
  181.1050  179.1240  141.9680 C   0  0  0  0  0  3  0  0  0  0  0  0
  181.6260  179.1930  143.2590 C   0  0  0  0  0  3  0  0  0  0  0  0
  183.5230  179.0860  145.1640 Cl  0  0  0  0  0  0  0  0  0  0  0  0
  181.2850  178.6850  139.2810 Cl  0  0  0  0  0  0  0  0  0  0  0  0
  183.8210  178.5300  142.4300 C   0  0  0  0  0  0  0  0  0  0  0  0
  181.9320  178.7680  140.9040 C   0  0  0  0  0  0  0  0  0  0  0  0
  182.9720  178.9030  143.5050 C   0  0  0  0  0  0  0  0  0  0  0  0
  183.2770  178.4740  141.1350 C   0  0  0  0  0  3  0  0  0  0  0  0
  188.3940  178.6840  140.7180 O   0  0  0  0  0  0  0  0  0  0  0  0
  188.3970  178.1990  139.3830 C   0  0  0  0  0  2  0  0  0  0  0  0
  189.5920  177.2920  139.1740 C   0  0  2  0  0  3  0  0  0  0  0  0
  190.6280  177.6750  140.0290 O   0  0  0  0  0  1  0  0  0  0  0  0
  190.0510  177.3890  137.7290 C   0  0  0  0  0  2  0  0  0  0  0  0
  191.2600  176.0550  136.1760 O   0  0  0  0  0  0  0  0  0  0  0  0
  190.6730  176.1050  137.2880 C   0  0  0  0  0  0  0  0  0  0  0  0
  190.2680  173.7810  137.5960 O   0  0  0  0  0  1  0  0  0  0  0  0
  190.6320  174.9700  138.0960 O   0  0  0  0  0  0  0  0  0  0  0  0
  187.4990  178.1020  145.0150 C   0  0  0  0  0  2  0  0  0  0  0  0
  186.3800  178.2120  147.1380 O   0  0  0  0  0  1  0  0  0  0  0  0
  187.3440  177.5080  146.4120 C   0  0  2  0  0  3  0  0  0  0  0  0
  188.6090  178.2320  148.4760 C   0  0  0  0  0  1  0  0  0  0  0  0
  188.6780  177.4610  147.1660 C   0  0  2  0  0  3  0  0  0  0  0  0
  189.6980  177.9940  146.3680 O   0  0  0  0  0  0  0  0  0  0  0  0
  190.5600  176.9330  146.0720 C   0  0  1  0  0  3  0  0  0  0  0  0
  190.7190  179.3720  143.8570 O   0  0  0  0  0  0  0  0  0  0  0  0
  191.7230  177.4430  145.2230 C   0  0  1  0  0  3  0  0  0  0  0  0
  191.7120  176.8620  143.9530 N   0  0  0  0  0  2  0  0  0  0  0  0
  191.2180  178.2830  144.2380 C   0  0  0  0  0  0  0  0  0  0  0  0
  192.1850  176.5210  147.7480 O   0  0  0  0  0  0  0  0  0  0  0  0
  191.0470  176.3230  147.3530 C   0  0  0  0  0  3  0  0  0  0  0  0
  1  5  1  0  0  0  0
  2  6  2  0  0  0  0
  3  1  2  0  0  0  0
  4  7  2  0  0  0  0
  4  3  1  0  0  0  0
  5 25  1  1  0  0  0
  6  5  1  0  0  0  0
  7  6  1  0  0  0  0
  8  9  1  0  0  0  0
  9 14  2  0  0  0  0
 11 13  1  0  0  0  0
 12  3  1  0  0  0  0
 12 14  1  0  0  0  0
 13 15  1  0  0  0  0
 13  8  2  0  0  0  0
 14 10  1  0  0  0  0
 15 12  2  0  0  0  0
 16  7  1  0  0  0  0
 17 16  1  0  0  0  0
 18 17  1  0  0  0  0
 18 19  1  1  0  0  0
 20 18  1  0  0  0  0
 21 22  2  0  0  0  0
 22 20  1  0  0  0  0
 22 24  1  0  0  0  0
 23 24  1  0  0  0  0
 25 27  1  0  0  0  0
 27 26  1  1  0  0  0
 27 29  1  0  0  0  0
 29 28  1  1  0  0  0
 30 29  1  0  0  0  0
 31 30  1  0  0  0  0
 31 37  1  1  0  0  0
 32 35  2  0  0  0  0
 33 31  1  1  0  0  0
 34 35  1  0  0  0  0
 34 33  1  0  0  0  0
 35 33  1  0  0  0  0
 37 36  2  0  0  0  0
M  END
>  <MODEL>
3

>  <REMARK>
 VINA RESULT:      -8.0      2.483      7.439
  Name = 
  14 active torsions:
  status: ('A' for Active; 'I' for Inactive)
    1  A    between atoms: C_7  and  C_10
    2  A    between atoms: C_7  and  O_25
    3  A    between atoms: C_8  and  C_29
    4  A    between atoms: C_8  and  C_31
    5  A    between atoms: C_9  and  C_12
    6  A    between atoms: C_10  and  C_32
    7  A    between atoms: C_12  and  CA_17
    8  A    between atoms: C_12  and  O_20
    9  A    between atoms: C_14  and  C_24
   10  A    between atoms: C_19  and  C_29
   11  A    between atoms: O_20  and  C_31
   12  A    between atoms: C_22  and  C_32
   13  A    between atoms: C_22  and  O_33
   14  A    between atoms: O_25  and  C_27
                            x       y       z     vdW  Elec       q    Type
                         _______ _______ _______ _____ _____    ______ ____

>  <TORSDO>
F 14

$$$$
=
 OpenBabel10222419533D

 37 39  0  0  1  0  0  0  0  0999 V2000
  186.8250  178.8060  141.6310 N   0  0  0  0  0  0  0  0  0  0  0  0
  190.0640  178.4610  143.1110 O   0  0  0  0  0  0  0  0  0  0  0  0
  186.0880  178.2980  142.5840 C   0  0  0  0  0  0  0  0  0  0  0  0
  186.7110  177.5630  143.6530 N   0  0  0  0  0  0  0  0  0  0  0  0
  188.2720  178.5930  141.5140 C   0  0  1  0  0  3  0  0  0  0  0  0
  188.8570  178.2200  142.8460 C   0  0  0  0  0  0  0  0  0  0  0  0
  188.0020  177.5230  143.8090 C   0  0  0  0  0  0  0  0  0  0  0  0
  181.8210  178.7730  142.3250 C   0  0  0  0  0  3  0  0  0  0  0  0
  182.4460  178.9520  143.5580 C   0  0  0  0  0  3  0  0  0  0  0  0
  184.5100  179.1270  145.2760 Cl  0  0  0  0  0  0  0  0  0  0  0  0
  181.8010  178.2360  139.6500 Cl  0  0  0  0  0  0  0  0  0  0  0  0
  184.6150  178.4840  142.5460 C   0  0  0  0  0  0  0  0  0  0  0  0
  182.5810  178.4570  141.2010 C   0  0  0  0  0  0  0  0  0  0  0  0
  183.8330  178.8140  143.6840 C   0  0  0  0  0  0  0  0  0  0  0  0
  183.9640  178.3150  141.3120 C   0  0  0  0  0  3  0  0  0  0  0  0
  188.5780  176.8350  144.8790 O   0  0  0  0  0  0  0  0  0  0  0  0
  188.1580  177.0340  146.2220 C   0  0  0  0  0  2  0  0  0  0  0  0
  189.3580  176.9800  147.1430 C   0  0  2  0  0  3  0  0  0  0  0  0
  189.3060  178.0410  148.0480 O   0  0  0  0  0  1  0  0  0  0  0  0
  190.6300  177.0660  146.3170 C   0  0  0  0  0  2  0  0  0  0  0  0
  192.2550  175.3430  146.5240 O   0  0  0  0  0  0  0  0  0  0  0  0
  191.7610  176.3880  147.0190 C   0  0  0  0  0  0  0  0  0  0  0  0
  193.2720  176.2710  148.8520 O   0  0  0  0  0  1  0  0  0  0  0  0
  192.2890  176.9060  148.2010 O   0  0  0  0  0  0  0  0  0  0  0  0
  188.5130  177.4770  140.4990 C   0  0  0  0  0  2  0  0  0  0  0  0
  189.0760  179.0910  138.8110 O   0  0  0  0  0  1  0  0  0  0  0  0
  189.4890  177.8950  139.4020 C   0  0  2  0  0  3  0  0  0  0  0  0
  191.1460  176.4770  138.1280 C   0  0  0  0  0  1  0  0  0  0  0  0
  189.6750  176.7950  138.3510 C   0  0  2  0  0  3  0  0  0  0  0  0
  189.0970  177.1890  137.1380 O   0  0  0  0  0  0  0  0  0  0  0  0
  187.8770  176.5090  137.0450 C   0  0  1  0  0  3  0  0  0  0  0  0
  185.7870  178.6680  138.4050 O   0  0  0  0  0  0  0  0  0  0  0  0
  186.8310  177.4260  136.4150 C   0  0  1  0  0  3  0  0  0  0  0  0
  185.5660  176.8340  136.4340 N   0  0  0  0  0  2  0  0  0  0  0  0
  186.0090  177.9180  137.4210 C   0  0  0  0  0  0  0  0  0  0  0  0
  188.5890  175.3100  135.1270 O   0  0  0  0  0  0  0  0  0  0  0  0
  188.0710  175.2630  136.2320 C   0  0  0  0  0  3  0  0  0  0  0  0
  1  3  2  0  0  0  0
  3  4  1  0  0  0  0
  4  7  2  0  0  0  0
  5 25  1  6  0  0  0
  5  1  1  0  0  0  0
  5  6  1  0  0  0  0
  6  2  2  0  0  0  0
  6  7  1  0  0  0  0
  7 16  1  0  0  0  0
  8  9  1  0  0  0  0
  9 14  2  0  0  0  0
 11 13  1  0  0  0  0
 12  3  1  0  0  0  0
 12 14  1  0  0  0  0
 13 15  1  0  0  0  0
 13  8  2  0  0  0  0
 14 10  1  0  0  0  0
 15 12  2  0  0  0  0
 16 17  1  0  0  0  0
 17 18  1  0  0  0  0
 18 19  1  1  0  0  0
 20 22  1  0  0  0  0
 20 18  1  0  0  0  0
 21 22  2  0  0  0  0
 22 24  1  0  0  0  0
 24 23  1  0  0  0  0
 27 26  1  6  0  0  0
 27 25  1  0  0  0  0
 29 28  1  6  0  0  0
 29 27  1  0  0  0  0
 30 29  1  0  0  0  0
 31 37  1  6  0  0  0
 31 30  1  0  0  0  0
 33 34  1  0  0  0  0
 33 31  1  1  0  0  0
 33 35  1  0  0  0  0
 34 35  1  0  0  0  0
 35 32  2  0  0  0  0
 36 37  2  0  0  0  0
M  END
>  <MODEL>
4

>  <REMARK>
 VINA RESULT:      -7.9      1.950      2.863
  Name = 
  14 active torsions:
  status: ('A' for Active; 'I' for Inactive)
    1  A    between atoms: C_7  and  C_10
    2  A    between atoms: C_7  and  O_25
    3  A    between atoms: C_8  and  C_29
    4  A    between atoms: C_8  and  C_31
    5  A    between atoms: C_9  and  C_12
    6  A    between atoms: C_10  and  C_32
    7  A    between atoms: C_12  and  CA_17
    8  A    between atoms: C_12  and  O_20
    9  A    between atoms: C_14  and  C_24
   10  A    between atoms: C_19  and  C_29
   11  A    between atoms: O_20  and  C_31
   12  A    between atoms: C_22  and  C_32
   13  A    between atoms: C_22  and  O_33
   14  A    between atoms: O_25  and  C_27
                            x       y       z     vdW  Elec       q    Type
                         _______ _______ _______ _____ _____    ______ ____

>  <TORSDO>
F 14

$$$$
=
 OpenBabel10222419533D

 37 39  0  0  1  0  0  0  0  0999 V2000
  188.6930  176.9920  142.1290 N   0  0  0  0  0  0  0  0  0  0  0  0
  190.5740  176.5330  139.1220 O   0  0  0  0  0  0  0  0  0  0  0  0
  187.8240  177.8770  141.7170 C   0  0  0  0  0  0  0  0  0  0  0  0
  188.0340  178.5530  140.4650 N   0  0  0  0  0  0  0  0  0  0  0  0
  189.9530  176.6990  141.4380 C   0  0  1  0  0  3  0  0  0  0  0  0
  189.8640  177.1000  139.9930 C   0  0  0  0  0  0  0  0  0  0  0  0
  188.9690  178.2010  139.6320 C   0  0  0  0  0  0  0  0  0  0  0  0
  184.4670  178.7300  144.2680 C   0  0  0  0  0  3  0  0  0  0  0  0
  184.3360  178.9230  142.8940 C   0  0  0  0  0  3  0  0  0  0  0  0
  185.0930  178.8740  140.3120 Cl  0  0  0  0  0  0  0  0  0  0  0  0
  185.8350  178.0070  146.5150 Cl  0  0  0  0  0  0  0  0  0  0  0  0
  186.6330  178.1760  142.5530 C   0  0  0  0  0  0  0  0  0  0  0  0
  185.6680  178.2560  144.7920 C   0  0  0  0  0  0  0  0  0  0  0  0
  185.4010  178.6510  142.0290 C   0  0  0  0  0  0  0  0  0  0  0  0
  186.7390  177.9820  143.9410 C   0  0  0  0  0  3  0  0  0  0  0  0
  189.1240  178.8490  138.4050 O   0  0  0  0  0  0  0  0  0  0  0  0
  188.2070  178.6740  137.3340 C   0  0  0  0  0  2  0  0  0  0  0  0
  188.5570  177.4160  136.5660 C   0  0  2  0  0  3  0  0  0  0  0  0
  188.8150  177.7360  135.2320 O   0  0  0  0  0  1  0  0  0  0  0  0
  187.3970  176.4380  136.6480 C   0  0  0  0  0  2  0  0  0  0  0  0
  187.0800  174.1420  137.1790 O   0  0  0  0  0  0  0  0  0  0  0  0
  187.8960  175.0470  136.8670 C   0  0  0  0  0  0  0  0  0  0  0  0
  189.8120  173.7540  137.4270 O   0  0  0  0  0  1  0  0  0  0  0  0
  189.2450  174.7340  136.7100 O   0  0  0  0  0  0  0  0  0  0  0  0
  191.0740  177.4690  142.1330 C   0  0  0  0  0  2  0  0  0  0  0  0
  191.0840  175.4700  143.4650 O   0  0  0  0  0  1  0  0  0  0  0  0
  191.5200  176.7970  143.4280 C   0  0  2  0  0  3  0  0  0  0  0  0
  190.8020  179.0350  144.3510 C   0  0  0  0  0  1  0  0  0  0  0  0
  191.0500  177.5680  144.6660 C   0  0  2  0  0  3  0  0  0  0  0  0
  192.0060  177.4670  145.6840 O   0  0  0  0  0  0  0  0  0  0  0  0
  191.3130  177.0880  146.8390 C   0  0  1  0  0  3  0  0  0  0  0  0
  188.9440  178.6460  148.5240 O   0  0  0  0  0  0  0  0  0  0  0  0
  189.8100  177.1970  146.5890 C   0  0  1  0  0  3  0  0  0  0  0  0
  189.1080  176.2340  147.3170 N   0  0  0  0  0  2  0  0  0  0  0  0
  189.2060  177.7050  147.7320 C   0  0  0  0  0  0  0  0  0  0  0  0
  192.8650  175.4090  147.4660 O   0  0  0  0  0  0  0  0  0  0  0  0
  191.7040  175.6880  147.2090 C   0  0  0  0  0  3  0  0  0  0  0  0
  2  6  2  0  0  0  0
  3  1  2  0  0  0  0
  3 12  1  0  0  0  0
  4  3  1  0  0  0  0
  5  1  1  0  0  0  0
  5 25  1  1  0  0  0
  6  5  1  0  0  0  0
  7  6  1  0  0  0  0
  7  4  2  0  0  0  0
  8 13  1  0  0  0  0
  9  8  2  0  0  0  0
 10 14  1  0  0  0  0
 12 15  1  0  0  0  0
 13 11  1  0  0  0  0
 14 12  2  0  0  0  0
 14  9  1  0  0  0  0
 15 13  2  0  0  0  0
 16  7  1  0  0  0  0
 17 16  1  0  0  0  0
 18 19  1  6  0  0  0
 18 20  1  0  0  0  0
 18 17  1  0  0  0  0
 20 22  1  0  0  0  0
 22 21  2  0  0  0  0
 24 22  1  0  0  0  0
 24 23  1  0  0  0  0
 25 27  1  0  0  0  0
 27 26  1  1  0  0  0
 27 29  1  0  0  0  0
 29 28  1  6  0  0  0
 29 30  1  0  0  0  0
 30 31  1  0  0  0  0
 31 37  1  6  0  0  0
 33 31  1  1  0  0  0
 33 34  1  0  0  0  0
 33 35  1  0  0  0  0
 34 35  1  0  0  0  0
 35 32  2  0  0  0  0
 37 36  2  0  0  0  0
M  END
>  <MODEL>
5

>  <REMARK>
 VINA RESULT:      -7.8      1.867      7.907
  Name = 
  14 active torsions:
  status: ('A' for Active; 'I' for Inactive)
    1  A    between atoms: C_7  and  C_10
    2  A    between atoms: C_7  and  O_25
    3  A    between atoms: C_8  and  C_29
    4  A    between atoms: C_8  and  C_31
    5  A    between atoms: C_9  and  C_12
    6  A    between atoms: C_10  and  C_32
    7  A    between atoms: C_12  and  CA_17
    8  A    between atoms: C_12  and  O_20
    9  A    between atoms: C_14  and  C_24
   10  A    between atoms: C_19  and  C_29
   11  A    between atoms: O_20  and  C_31
   12  A    between atoms: C_22  and  C_32
   13  A    between atoms: C_22  and  O_33
   14  A    between atoms: O_25  and  C_27
                            x       y       z     vdW  Elec       q    Type
                         _______ _______ _______ _____ _____    ______ ____

>  <TORSDO>
F 14

$$$$
=
 OpenBabel10222419533D

 37 39  0  0  1  0  0  0  0  0999 V2000
  187.6590  178.5810  141.2370 N   0  0  0  0  0  0  0  0  0  0  0  0
  191.0490  177.5190  140.8200 O   0  0  0  0  0  0  0  0  0  0  0  0
  187.3510  177.9250  142.3260 C   0  0  0  0  0  0  0  0  0  0  0  0
  188.2170  176.8760  142.7960 N   0  0  0  0  0  0  0  0  0  0  0  0
  188.8020  178.2510  140.3790 C   0  0  1  0  0  3  0  0  0  0  0  0
  189.8360  177.4850  141.1550 C   0  0  0  0  0  0  0  0  0  0  0  0
  189.3900  176.6590  142.2780 C   0  0  0  0  0  0  0  0  0  0  0  0
  183.8350  178.9320  144.5890 C   0  0  0  0  0  3  0  0  0  0  0  0
  183.7730  178.9630  143.1970 C   0  0  0  0  0  3  0  0  0  0  0  0
  184.6710  178.6530  140.6790 Cl  0  0  0  0  0  0  0  0  0  0  0  0
  185.1010  178.5180  146.9710 Cl  0  0  0  0  0  0  0  0  0  0  0  0
  186.1080  178.2700  143.0600 C   0  0  0  0  0  0  0  0  0  0  0  0
  185.0200  178.5650  145.2240 C   0  0  0  0  0  0  0  0  0  0  0  0
  184.8920  178.6360  142.4240 C   0  0  0  0  0  0  0  0  0  0  0  0
  186.1440  178.2380  144.4650 C   0  0  0  0  0  3  0  0  0  0  0  0
  190.2260  175.6590  142.7800 O   0  0  0  0  0  0  0  0  0  0  0  0
  191.4110  175.9560  143.5060 C   0  0  0  0  0  2  0  0  0  0  0  0
  191.0610  176.7530  144.7460 C   0  0  2  0  0  3  0  0  0  0  0  0
  191.4910  178.0720  144.5940 O   0  0  0  0  0  1  0  0  0  0  0  0
  191.7350  176.1250  145.9540 C   0  0  0  0  0  2  0  0  0  0  0  0
  192.0570  177.0800  148.1080 O   0  0  0  0  0  0  0  0  0  0  0  0
  191.2340  176.7430  147.2170 C   0  0  0  0  0  0  0  0  0  0  0  0
  189.4510  177.9080  148.2760 O   0  0  0  0  0  1  0  0  0  0  0  0
  189.8730  176.9720  147.4160 O   0  0  0  0  0  0  0  0  0  0  0  0
  188.2980  177.4170  139.2040 C   0  0  0  0  0  2  0  0  0  0  0  0
  188.3000  179.0830  137.4720 O   0  0  0  0  0  1  0  0  0  0  0  0
  188.8850  177.8790  137.8730 C   0  0  2  0  0  3  0  0  0  0  0  0
  189.7980  176.9830  135.6950 C   0  0  0  0  0  1  0  0  0  0  0  0
  188.7500  176.8090  136.7840 C   0  0  2  0  0  3  0  0  0  0  0  0
  187.4730  176.8680  136.2120 O   0  0  0  0  0  0  0  0  0  0  0  0
  186.7420  175.8150  136.7740 C   0  0  1  0  0  3  0  0  0  0  0  0
  184.7700  177.4110  134.6650 O   0  0  0  0  0  0  0  0  0  0  0  0
  185.2730  176.2170  136.8830 C   0  0  1  0  0  3  0  0  0  0  0  0
  185.1430  177.5310  137.3380 N   0  0  0  0  0  2  0  0  0  0  0  0
  184.9850  177.1240  135.8710 C   0  0  0  0  0  0  0  0  0  0  0  0
  187.1570  174.6860  134.7310 O   0  0  0  0  0  0  0  0  0  0  0  0
  186.9120  174.5910  135.9230 C   0  0  0  0  0  3  0  0  0  0  0  0
  1  3  2  0  0  0  0
  2  6  2  0  0  0  0
  3  4  1  0  0  0  0
  3 12  1  0  0  0  0
  5 25  1  6  0  0  0
  5  6  1  0  0  0  0
  5  1  1  0  0  0  0
  6  7  1  0  0  0  0
  7 16  1  0  0  0  0
  7  4  2  0  0  0  0
  8 13  1  0  0  0  0
  9  8  2  0  0  0  0
 10 14  1  0  0  0  0
 12 15  1  0  0  0  0
 13 11  1  0  0  0  0
 14 12  2  0  0  0  0
 14  9  1  0  0  0  0
 15 13  2  0  0  0  0
 16 17  1  0  0  0  0
 17 18  1  0  0  0  0
 18 19  1  6  0  0  0
 18 20  1  0  0  0  0
 20 22  1  0  0  0  0
 22 24  1  0  0  0  0
 22 21  2  0  0  0  0
 24 23  1  0  0  0  0
 27 26  1  6  0  0  0
 27 25  1  0  0  0  0
 29 28  1  6  0  0  0
 29 27  1  0  0  0  0
 30 31  1  0  0  0  0
 30 29  1  0  0  0  0
 31 37  1  6  0  0  0
 32 35  2  0  0  0  0
 33 31  1  6  0  0  0
 33 34  1  0  0  0  0
 35 33  1  0  0  0  0
 35 34  1  0  0  0  0
 36 37  2  0  0  0  0
M  END
>  <MODEL>
6

>  <REMARK>
 VINA RESULT:      -7.6      1.678      2.856
  Name = 
  14 active torsions:
  status: ('A' for Active; 'I' for Inactive)
    1  A    between atoms: C_7  and  C_10
    2  A    between atoms: C_7  and  O_25
    3  A    between atoms: C_8  and  C_29
    4  A    between atoms: C_8  and  C_31
    5  A    between atoms: C_9  and  C_12
    6  A    between atoms: C_10  and  C_32
    7  A    between atoms: C_12  and  CA_17
    8  A    between atoms: C_12  and  O_20
    9  A    between atoms: C_14  and  C_24
   10  A    between atoms: C_19  and  C_29
   11  A    between atoms: O_20  and  C_31
   12  A    between atoms: C_22  and  C_32
   13  A    between atoms: C_22  and  O_33
   14  A    between atoms: O_25  and  C_27
                            x       y       z     vdW  Elec       q    Type
                         _______ _______ _______ _____ _____    ______ ____

>  <TORSDO>
F 14

$$$$
=
 OpenBabel10222419533D

 37 39  0  0  1  0  0  0  0  0999 V2000
  187.7540  178.6250  141.2840 N   0  0  0  0  0  0  0  0  0  0  0  0
  191.1330  177.5430  140.8230 O   0  0  0  0  0  0  0  0  0  0  0  0
  187.4400  177.9330  142.3480 C   0  0  0  0  0  0  0  0  0  0  0  0
  188.2950  176.8580  142.7780 N   0  0  0  0  0  0  0  0  0  0  0  0
  188.8940  178.3150  140.4130 C   0  0  1  0  0  3  0  0  0  0  0  0
  189.9200  177.5090  141.1580 C   0  0  0  0  0  0  0  0  0  0  0  0
  189.4660  176.6470  142.2510 C   0  0  0  0  0  0  0  0  0  0  0  0
  183.9400  178.9080  144.6490 C   0  0  0  0  0  3  0  0  0  0  0  0
  183.8480  178.8840  143.2580 C   0  0  0  0  0  3  0  0  0  0  0  0
  184.7030  178.5070  140.7350 Cl  0  0  0  0  0  0  0  0  0  0  0  0
  185.2690  178.6300  147.0160 Cl  0  0  0  0  0  0  0  0  0  0  0  0
  186.2010  178.2650  143.0960 C   0  0  0  0  0  0  0  0  0  0  0  0
  185.1500  178.6060  145.2710 C   0  0  0  0  0  0  0  0  0  0  0  0
  184.9610  178.5650  142.4740 C   0  0  0  0  0  0  0  0  0  0  0  0
  186.2690  178.2880  144.5000 C   0  0  0  0  0  3  0  0  0  0  0  0
  190.2910  175.6210  142.7150 O   0  0  0  0  0  0  0  0  0  0  0  0
  191.4560  175.8760  143.4870 C   0  0  0  0  0  2  0  0  0  0  0  0
  191.0780  176.6360  144.7420 C   0  0  2  0  0  3  0  0  0  0  0  0
  191.4080  177.9840  144.5920 O   0  0  0  0  0  1  0  0  0  0  0  0
  191.8240  176.0500  145.9280 C   0  0  0  0  0  2  0  0  0  0  0  0
  192.1110  176.9870  148.0950 O   0  0  0  0  0  0  0  0  0  0  0  0
  191.3000  176.6120  147.2090 C   0  0  0  0  0  0  0  0  0  0  0  0
  189.3790  177.9520  147.6220 O   0  0  0  0  0  1  0  0  0  0  0  0
  189.9310  176.7460  147.4290 O   0  0  0  0  0  0  0  0  0  0  0  0
  188.3790  177.5300  139.2080 C   0  0  0  0  0  2  0  0  0  0  0  0
  188.6640  179.3860  137.7090 O   0  0  0  0  0  1  0  0  0  0  0  0
  188.9700  178.0350  137.8950 C   0  0  2  0  0  3  0  0  0  0  0  0
  187.7660  175.9450  137.1450 C   0  0  0  0  0  1  0  0  0  0  0  0
  188.5090  177.1950  136.6980 C   0  0  2  0  0  3  0  0  0  0  0  0
  189.6130  176.8250  135.9200 O   0  0  0  0  0  0  0  0  0  0  0  0
  189.9840  175.5450  136.3460 C   0  0  1  0  0  3  0  0  0  0  0  0
  188.1510  173.3440  134.7090 O   0  0  0  0  0  0  0  0  0  0  0  0
  190.3050  174.6770  135.1310 C   0  0  1  0  0  3  0  0  0  0  0  0
  190.7280  173.4040  135.5200 N   0  0  0  0  0  2  0  0  0  0  0  0
  189.3190  173.7080  135.0050 C   0  0  0  0  0  0  0  0  0  0  0  0
  191.1320  175.1730  138.3870 O   0  0  0  0  0  0  0  0  0  0  0  0
  191.1640  175.6560  137.2660 C   0  0  0  0  0  3  0  0  0  0  0  0
  1  3  2  0  0  0  0
  2  6  2  0  0  0  0
  3  4  1  0  0  0  0
  3 12  1  0  0  0  0
  5 25  1  6  0  0  0
  5  6  1  0  0  0  0
  5  1  1  0  0  0  0
  6  7  1  0  0  0  0
  7 16  1  0  0  0  0
  7  4  2  0  0  0  0
  8 13  1  0  0  0  0
  9  8  2  0  0  0  0
 10 14  1  0  0  0  0
 12 15  1  0  0  0  0
 13 11  1  0  0  0  0
 14 12  2  0  0  0  0
 14  9  1  0  0  0  0
 15 13  2  0  0  0  0
 16 17  1  0  0  0  0
 17 18  1  0  0  0  0
 18 19  1  6  0  0  0
 18 20  1  0  0  0  0
 20 22  1  0  0  0  0
 22 24  1  0  0  0  0
 22 21  2  0  0  0  0
 24 23  1  0  0  0  0
 27 26  1  6  0  0  0
 27 25  1  0  0  0  0
 29 28  1  1  0  0  0
 29 27  1  0  0  0  0
 30 31  1  0  0  0  0
 30 29  1  0  0  0  0
 31 37  1  1  0  0  0
 32 35  2  0  0  0  0
 33 34  1  0  0  0  0
 33 31  1  1  0  0  0
 35 33  1  0  0  0  0
 35 34  1  0  0  0  0
 37 36  2  0  0  0  0
M  END
>  <MODEL>
7

>  <REMARK>
 VINA RESULT:      -7.6      1.061      2.420
  Name = 
  14 active torsions:
  status: ('A' for Active; 'I' for Inactive)
    1  A    between atoms: C_7  and  C_10
    2  A    between atoms: C_7  and  O_25
    3  A    between atoms: C_8  and  C_29
    4  A    between atoms: C_8  and  C_31
    5  A    between atoms: C_9  and  C_12
    6  A    between atoms: C_10  and  C_32
    7  A    between atoms: C_12  and  CA_17
    8  A    between atoms: C_12  and  O_20
    9  A    between atoms: C_14  and  C_24
   10  A    between atoms: C_19  and  C_29
   11  A    between atoms: O_20  and  C_31
   12  A    between atoms: C_22  and  C_32
   13  A    between atoms: C_22  and  O_33
   14  A    between atoms: O_25  and  C_27
                            x       y       z     vdW  Elec       q    Type
                         _______ _______ _______ _____ _____    ______ ____

>  <TORSDO>
F 14

$$$$
=
 OpenBabel10222419533D

 37 39  0  0  1  0  0  0  0  0999 V2000
  186.9740  178.8390  141.0460 N   0  0  0  0  0  0  0  0  0  0  0  0
  190.0470  178.5450  142.8530 O   0  0  0  0  0  0  0  0  0  0  0  0
  186.1450  178.3590  141.9350 C   0  0  0  0  0  0  0  0  0  0  0  0
  186.6560  177.6580  143.0830 N   0  0  0  0  0  0  0  0  0  0  0  0
  188.4250  178.6240  141.0800 C   0  0  1  0  0  3  0  0  0  0  0  0
  188.8730  178.2930  142.4760 C   0  0  0  0  0  0  0  0  0  0  0  0
  187.9250  177.6250  143.3690 C   0  0  0  0  0  0  0  0  0  0  0  0
  181.8960  178.9070  141.5420 C   0  0  0  0  0  3  0  0  0  0  0  0
  182.6830  178.8830  140.3910 C   0  0  0  0  0  3  0  0  0  0  0  0
  184.9420  178.6250  138.9510 Cl  0  0  0  0  0  0  0  0  0  0  0  0
  181.5050  178.7660  144.2380 Cl  0  0  0  0  0  0  0  0  0  0  0  0
  184.6830  178.5400  141.7440 C   0  0  0  0  0  0  0  0  0  0  0  0
  182.4890  178.7420  142.7920 C   0  0  0  0  0  0  0  0  0  0  0  0
  184.0670  178.7000  140.4750 C   0  0  0  0  0  0  0  0  0  0  0  0
  183.8690  178.5600  142.8900 C   0  0  0  0  0  3  0  0  0  0  0  0
  188.3900  176.9710  144.5120 O   0  0  0  0  0  0  0  0  0  0  0  0
  188.1640  177.4780  145.8200 C   0  0  0  0  0  2  0  0  0  0  0  0
  189.3380  177.1300  146.7100 C   0  0  2  0  0  3  0  0  0  0  0  0
  189.2440  177.8370  147.9100 O   0  0  0  0  0  1  0  0  0  0  0  0
  190.6320  177.4870  145.9990 C   0  0  0  0  0  2  0  0  0  0  0  0
  192.1990  176.3590  147.3870 O   0  0  0  0  0  0  0  0  0  0  0  0
  191.6730  176.4450  146.2470 C   0  0  0  0  0  0  0  0  0  0  0  0
  191.6810  175.7510  143.9720 O   0  0  0  0  0  1  0  0  0  0  0  0
  192.0560  175.5570  145.2440 O   0  0  0  0  0  0  0  0  0  0  0  0
  188.7650  177.4790  140.1300 C   0  0  0  0  0  2  0  0  0  0  0  0
  189.0490  179.2400  138.5210 O   0  0  0  0  0  1  0  0  0  0  0  0
  189.4900  177.9630  138.8770 C   0  0  2  0  0  3  0  0  0  0  0  0
  187.9200  176.4340  137.6210 C   0  0  0  0  0  1  0  0  0  0  0  0
  189.3370  176.9810  137.7110 C   0  0  2  0  0  3  0  0  0  0  0  0
  190.2360  175.9170  137.8600 O   0  0  0  0  0  0  0  0  0  0  0  0
  191.3780  176.2630  137.1290 C   0  0  1  0  0  3  0  0  0  0  0  0
  192.7760  177.3600  139.9080 O   0  0  0  0  0  0  0  0  0  0  0  0
  192.6230  175.7930  137.8790 C   0  0  1  0  0  3  0  0  0  0  0  0
  193.7410  176.5480  137.5190 N   0  0  0  0  0  2  0  0  0  0  0  0
  192.9630  176.7570  138.8210 C   0  0  0  0  0  0  0  0  0  0  0  0
  191.7910  176.1920  134.7960 O   0  0  0  0  0  0  0  0  0  0  0  0
  191.2950  175.6410  135.7660 C   0  0  0  0  0  3  0  0  0  0  0  0
  1  5  1  0  0  0  0
  1  3  2  0  0  0  0
  3  4  1  0  0  0  0
  4  7  2  0  0  0  0
  5 25  1  6  0  0  0
  5  6  1  0  0  0  0
  6  2  2  0  0  0  0
  6  7  1  0  0  0  0
  7 16  1  0  0  0  0
  8 13  1  0  0  0  0
  9 14  1  0  0  0  0
  9  8  2  0  0  0  0
 10 14  1  0  0  0  0
 12  3  1  0  0  0  0
 12 15  1  0  0  0  0
 13 15  2  0  0  0  0
 13 11  1  0  0  0  0
 14 12  2  0  0  0  0
 16 17  1  0  0  0  0
 17 18  1  0  0  0  0
 18 19  1  1  0  0  0
 20 22  1  0  0  0  0
 20 18  1  0  0  0  0
 22 21  2  0  0  0  0
 23 24  1  0  0  0  0
 24 22  1  0  0  0  0
 27 26  1  6  0  0  0
 27 25  1  0  0  0  0
 29 28  1  1  0  0  0
 29 30  1  0  0  0  0
 29 27  1  0  0  0  0
 31 37  1  6  0  0  0
 31 30  1  0  0  0  0
 33 31  1  6  0  0  0
 33 35  1  0  0  0  0
 34 33  1  0  0  0  0
 34 35  1  0  0  0  0
 35 32  2  0  0  0  0
 36 37  2  0  0  0  0
M  END
>  <MODEL>
8

>  <REMARK>
 VINA RESULT:      -7.5      2.233      3.125
  Name = 
  14 active torsions:
  status: ('A' for Active; 'I' for Inactive)
    1  A    between atoms: C_7  and  C_10
    2  A    between atoms: C_7  and  O_25
    3  A    between atoms: C_8  and  C_29
    4  A    between atoms: C_8  and  C_31
    5  A    between atoms: C_9  and  C_12
    6  A    between atoms: C_10  and  C_32
    7  A    between atoms: C_12  and  CA_17
    8  A    between atoms: C_12  and  O_20
    9  A    between atoms: C_14  and  C_24
   10  A    between atoms: C_19  and  C_29
   11  A    between atoms: O_20  and  C_31
   12  A    between atoms: C_22  and  C_32
   13  A    between atoms: C_22  and  O_33
   14  A    between atoms: O_25  and  C_27
                            x       y       z     vdW  Elec       q    Type
                         _______ _______ _______ _____ _____    ______ ____

>  <TORSDO>
F 14

$$$$
=
 OpenBabel10222419533D

 37 39  0  0  1  0  0  0  0  0999 V2000
  188.8850  176.9430  142.2190 N   0  0  0  0  0  0  0  0  0  0  0  0
  190.7320  176.3520  139.2130 O   0  0  0  0  0  0  0  0  0  0  0  0
  188.0050  177.8020  141.7760 C   0  0  0  0  0  0  0  0  0  0  0  0
  188.1930  178.4180  140.4890 N   0  0  0  0  0  0  0  0  0  0  0  0
  190.1400  176.6260  141.5260 C   0  0  1  0  0  3  0  0  0  0  0  0
  190.0290  176.9560  140.0650 C   0  0  0  0  0  0  0  0  0  0  0  0
  189.1210  178.0320  139.6630 C   0  0  0  0  0  0  0  0  0  0  0  0
  184.6710  178.7410  144.3270 C   0  0  0  0  0  3  0  0  0  0  0  0
  184.5570  178.9670  142.9560 C   0  0  0  0  0  3  0  0  0  0  0  0
  185.3260  178.9400  140.3780 Cl  0  0  0  0  0  0  0  0  0  0  0  0
  185.9950  177.9160  146.5660 Cl  0  0  0  0  0  0  0  0  0  0  0  0
  186.8220  178.1330  142.6110 C   0  0  0  0  0  0  0  0  0  0  0  0
  185.8490  178.2060  144.8470 C   0  0  0  0  0  0  0  0  0  0  0  0
  185.6150  178.6690  142.0910 C   0  0  0  0  0  0  0  0  0  0  0  0
  186.9130  177.9060  143.9960 C   0  0  0  0  0  3  0  0  0  0  0  0
  189.2550  178.6210  138.4040 O   0  0  0  0  0  0  0  0  0  0  0  0
  188.2280  178.5590  137.4250 C   0  0  0  0  0  2  0  0  0  0  0  0
  188.1140  177.1450  136.8950 C   0  0  2  0  0  3  0  0  0  0  0  0
  189.2480  176.8320  136.1430 O   0  0  0  0  0  1  0  0  0  0  0  0
  186.8710  177.0310  136.0290 C   0  0  0  0  0  2  0  0  0  0  0  0
  184.9920  177.6180  137.3630 O   0  0  0  0  0  0  0  0  0  0  0  0
  185.6790  176.6900  136.8630 C   0  0  0  0  0  0  0  0  0  0  0  0
  184.0680  174.9420  136.7840 O   0  0  0  0  0  1  0  0  0  0  0  0
  185.3050  175.3650  137.0770 O   0  0  0  0  0  0  0  0  0  0  0  0
  191.2630  177.4370  142.1680 C   0  0  0  0  0  2  0  0  0  0  0  0
  191.4690  175.5050  143.5800 O   0  0  0  0  0  1  0  0  0  0  0  0
  191.6650  176.8870  143.5330 C   0  0  2  0  0  3  0  0  0  0  0  0
  190.8060  179.0860  144.4310 C   0  0  0  0  0  1  0  0  0  0  0  0
  190.9230  177.5890  144.6760 C   0  0  2  0  0  3  0  0  0  0  0  0
  191.5900  177.3680  145.8870 O   0  0  0  0  0  0  0  0  0  0  0  0
  190.7000  176.6610  146.7030 C   0  0  1  0  0  3  0  0  0  0  0  0
  193.1330  176.6830  148.9310 O   0  0  0  0  0  0  0  0  0  0  0  0
  191.4400  175.5160  147.3920 C   0  0  1  0  0  3  0  0  0  0  0  0
  192.6270  175.2110  146.7230 N   0  0  0  0  0  2  0  0  0  0  0  0
  192.5700  176.0300  148.0150 C   0  0  0  0  0  0  0  0  0  0  0  0
  189.1510  178.3130  147.4060 O   0  0  0  0  0  0  0  0  0  0  0  0
  190.0990  177.6030  147.7050 C   0  0  0  0  0  3  0  0  0  0  0  0
  2  6  2  0  0  0  0
  3  1  2  0  0  0  0
  3 12  1  0  0  0  0
  4  3  1  0  0  0  0
  5 25  1  1  0  0  0
  5  1  1  0  0  0  0
  6  5  1  0  0  0  0
  7  6  1  0  0  0  0
  7  4  2  0  0  0  0
  8 13  1  0  0  0  0
  9  8  2  0  0  0  0
 10 14  1  0  0  0  0
 12 15  1  0  0  0  0
 13 11  1  0  0  0  0
 14 12  2  0  0  0  0
 14  9  1  0  0  0  0
 15 13  2  0  0  0  0
 16  7  1  0  0  0  0
 17 16  1  0  0  0  0
 18 19  1  6  0  0  0
 18 17  1  0  0  0  0
 20 22  1  0  0  0  0
 20 18  1  0  0  0  0
 22 24  1  0  0  0  0
 22 21  2  0  0  0  0
 23 24  1  0  0  0  0
 25 27  1  0  0  0  0
 27 26  1  6  0  0  0
 27 29  1  0  0  0  0
 29 28  1  6  0  0  0
 29 30  1  0  0  0  0
 30 31  1  0  0  0  0
 31 37  1  1  0  0  0
 33 31  1  6  0  0  0
 33 35  1  0  0  0  0
 34 33  1  0  0  0  0
 34 35  1  0  0  0  0
 35 32  2  0  0  0  0
 36 37  2  0  0  0  0
M  END
>  <MODEL>
9

>  <REMARK>
 VINA RESULT:      -7.4      1.985      8.113
  Name = 
  14 active torsions:
  status: ('A' for Active; 'I' for Inactive)
    1  A    between atoms: C_7  and  C_10
    2  A    between atoms: C_7  and  O_25
    3  A    between atoms: C_8  and  C_29
    4  A    between atoms: C_8  and  C_31
    5  A    between atoms: C_9  and  C_12
    6  A    between atoms: C_10  and  C_32
    7  A    between atoms: C_12  and  CA_17
    8  A    between atoms: C_12  and  O_20
    9  A    between atoms: C_14  and  C_24
   10  A    between atoms: C_19  and  C_29
   11  A    between atoms: O_20  and  C_31
   12  A    between atoms: C_22  and  C_32
   13  A    between atoms: C_22  and  O_33
   14  A    between atoms: O_25  and  C_27
                            x       y       z     vdW  Elec       q    Type
                         _______ _______ _______ _____ _____    ______ ____

>  <TORSDO>
F 14

$$$$
