=
 OpenBabel10222416063D

 61 65  0  0  1  0  0  0  0  0999 V2000
  186.3870  177.8260  145.7420 C   0  0  1  0  0  3  0  0  0  0  0  0
  188.2970  177.4540  147.1110 N   0  0  0  0  0  0  0  0  0  0  0  0
  187.6400  178.2620  146.3640 N   0  0  0  0  0  0  0  0  0  0  0  0
  189.4840  177.8470  147.8190 C   0  0  0  0  0  0  0  0  0  0  0  0
  189.4010  178.3470  148.9780 O   0  0  0  0  0  0  0  0  0  0  0  0
  190.7430  177.7020  147.2340 O   0  0  0  0  0  0  0  0  0  0  0  0
  191.0410  176.8490  146.1210 C   0  0  2  0  0  3  0  0  0  0  0  0
  191.9900  175.7190  146.5270 C   0  0  2  0  0  3  0  0  0  0  0  0
  191.4480  175.0600  147.6500 O   0  0  0  0  0  0  0  0  0  0  0  0
  192.5300  175.9250  147.8900 C   0  0  0  0  0  2  0  0  0  0  0  0
  190.6340  178.7470  144.5110 C   0  0  0  0  0  1  0  0  0  0  0  0
  191.5630  177.5940  144.8840 C   0  0  0  0  0  2  0  0  0  0  0  0
  185.6970  179.0680  145.1600 C   0  0  0  0  0  2  0  0  0  0  0  0
  184.2410  178.8590  144.9510 C   0  0  0  0  0  0  0  0  0  0  0  0
  183.4260  179.1190  145.8710 O   0  0  0  0  0  0  0  0  0  0  0  0
  183.7680  178.3680  143.6890 N   0  0  0  0  0  2  0  0  0  0  0  0
  182.7880  179.0910  142.8830 C   0  0  0  0  0  2  0  0  0  0  0  0
  182.7720  179.8430  139.2280 C   0  0  0  0  0  3  0  0  0  0  0  0
  182.8330  178.6860  141.4410 C   0  0  0  0  0  0  0  0  0  0  0  0
  183.4450  177.5910  141.1490 N   0  0  0  0  0  0  0  0  0  0  0  0
  181.9790  179.4290  140.4280 C   0  0  0  0  0  2  0  0  0  0  0  0
  183.4910  176.9110  139.8710 C   0  0  0  0  0  3  0  0  0  0  0  0
  183.4280  177.4900  138.6530 C   0  0  0  0  0  0  0  0  0  0  0  0
  183.3890  178.9510  138.4380 C   0  0  0  0  0  3  0  0  0  0  0  0
  182.9970  174.4550  136.2620 C   0  0  0  0  0  0  0  0  0  0  0  0
  183.5390  176.6010  137.4710 C   0  0  0  0  0  0  0  0  0  0  0  0
  182.3320  173.3970  136.1630 O   0  0  0  0  0  0  0  0  0  0  0  0
  184.1300  176.2490  135.1090 C   0  0  0  0  0  3  0  0  0  0  0  0
  183.6480  175.0130  135.0770 C   0  0  0  0  0  3  0  0  0  0  0  0
  184.0240  177.0760  136.3140 C   0  0  0  0  0  3  0  0  0  0  0  0
  183.1250  175.1440  137.5950 C   0  0  0  0  0  2  0  0  0  0  0  0
  186.6980  176.7770  144.6540 C   0  0  0  0  0  2  0  0  0  0  0  0
  188.3430  176.0360  142.9840 C   0  0  0  0  0  2  0  0  0  0  0  0
  187.6750  178.3090  141.2540 C   0  0  0  0  0  2  0  0  0  0  0  0
  187.6300  177.2450  143.5420 C   0  0  1  0  0  3  0  0  0  0  0  0
  188.9060  177.5070  141.0420 N   0  0  0  0  0  0  0  0  0  0  0  0
  189.3990  176.4810  141.9840 C   0  0  0  0  0  2  0  0  0  0  0  0
  191.0670  177.8480  140.2190 O   0  0  0  0  0  0  0  0  0  0  0  0
  189.8170  177.9130  140.0150 C   0  0  0  0  0  0  0  0  0  0  0  0
  186.8090  177.8390  142.4170 C   0  0  0  0  0  2  0  0  0  0  0  0
  189.3320  178.5040  138.7310 C   0  0  0  0  0  2  0  0  0  0  0  0
  187.9590  177.9780  138.3420 C   0  0  0  0  0  2  0  0  0  0  0  0
  188.1710  176.5750  137.7710 C   0  0  0  0  0  2  0  0  0  0  0  0
  187.4720  177.4850  135.6980 O   0  0  0  0  0  1  0  0  0  0  0  0
  188.1150  176.3780  136.2690 C   0  0  1  0  0  3  0  0  0  0  0  0
  189.3880  176.0370  135.4570 C   0  0  1  0  0  3  0  0  0  0  0  0
  190.5700  176.3940  136.1110 O   0  0  0  0  0  1  0  0  0  0  0  0
  189.4240  174.5850  134.9520 C   0  0  1  0  0  3  0  0  0  0  0  0
  191.0940  173.3030  136.0830 C   0  0  2  0  0  3  0  0  0  0  0  0
  190.7410  174.0360  134.8970 O   0  0  0  0  0  0  0  0  0  0  0  0
  188.4940  173.7250  135.7450 C   0  0  0  0  0  0  0  0  0  0  0  0
  189.0570  173.1280  136.9900 C   0  0  0  0  0  2  0  0  0  0  0  0
  187.4210  173.3880  135.2880 O   0  0  0  0  0  0  0  0  0  0  0  0
  190.3410  173.6600  137.2150 O   0  0  0  0  0  0  0  0  0  0  0  0
  192.8820  173.5040  136.3370 P   0  0  2  0  0  0  0  0  0  0  0  0
  193.4730  174.5460  135.1470 O   0  0  0  0  0  0  0  0  0  0  0  0
  193.5970  172.1710  136.2010 O   0  0  0  0  0  1  0  0  0  0  0  0
  193.1750  174.2870  137.8260 O   0  0  0  0  0  0  0  0  0  0  0  0
  195.2230  172.9440  139.0950 O   0  0  0  0  0  0  0  0  0  0  0  0
  194.8200  174.0340  138.1250 P   0  0  0  0  0  0  0  0  0  0  0  0
  195.8990  174.9510  137.5710 O   0  0  0  0  0  0  0  0  0  0  0  0
  1 32  1  6  0  0  0
  1  3  1  0  0  0  0
  2  4  1  0  0  0  0
  3  2  2  0  0  0  0
  4  5  2  0  0  0  0
  6  4  1  0  0  0  0
  7 12  1  6  0  0  0
  7  6  1  0  0  0  0
  8  7  1  1  0  0  0
  8  9  1  0  0  0  0
  8 10  1  0  0  0  0
  9 10  1  0  0  0  0
 11 12  1  0  0  0  0
 13  1  1  0  0  0  0
 14 13  1  0  0  0  0
 14 15  2  0  0  0  0
 16 14  1  0  0  0  0
 17 16  1  0  0  0  0
 18 21  1  0  0  0  0
 19 17  1  0  0  0  0
 20 19  2  0  0  0  0
 21 19  1  0  0  0  0
 22 20  1  0  0  0  0
 23 22  2  0  0  0  0
 24 23  1  0  0  0  0
 24 18  2  0  0  0  0
 25 31  1  0  0  0  0
 26 31  1  0  0  0  0
 26 23  1  0  0  0  0
 27 25  2  0  0  0  0
 28 30  1  0  0  0  0
 29 28  2  0  0  0  0
 29 25  1  0  0  0  0
 30 26  2  0  0  0  0
 33 35  1  0  0  0  0
 34 40  1  0  0  0  0
 35 32  1  1  0  0  0
 36 34  1  0  0  0  0
 36 37  1  0  0  0  0
 37 33  1  0  0  0  0
 39 38  2  0  0  0  0
 39 36  1  0  0  0  0
 40 35  1  0  0  0  0
 41 39  1  0  0  0  0
 42 41  1  0  0  0  0
 43 42  1  0  0  0  0
 45 44  1  6  0  0  0
 45 43  1  0  0  0  0
 46 47  1  1  0  0  0
 46 45  1  0  0  0  0
 48 46  1  1  0  0  0
 48 51  1  0  0  0  0
 49 55  1  1  0  0  0
 49 54  1  0  0  0  0
 50 48  1  0  0  0  0
 50 49  1  0  0  0  0
 51 52  1  0  0  0  0
 52 54  1  0  0  0  0
 53 51  2  0  0  0  0
 55 56  2  6  0  0  0
 55 58  1  0  0  0  0
 57 55  1  0  0  0  0
 58 60  1  0  0  0  0
 60 59  2  0  0  0  0
 61 60  2  0  0  0  0
M  END
>  <MODEL>
1

>  <REMARK>
 VINA RESULT:      -7.5      0.000      0.000
  Name = 
  22 active torsions:
  status: ('A' for Active; 'I' for Inactive)
    1  A    between atoms: C_1  and  C_6
    2  A    between atoms: C_1  and  N_32
    3  A    between atoms: C_3  and  C_12
    4  A    between atoms: P_5  and  C_11
    5  A    between atoms: P_5  and  O_36
    6  A    between atoms: C_8  and  C_23
    7  A    between atoms: C_8  and  C_42
    8  A    between atoms: C_10  and  C_47
    9  A    between atoms: C_12  and  C_42
   10  A    between atoms: C_14  and  C_19
   11  A    between atoms: C_16  and  C_45
   12  A    between atoms: C_17  and  C_18
   13  A    between atoms: C_17  and  C_53
   14  A    between atoms: C_18  and  C_55
   15  A    between atoms: C_19  and  C_38
   16  A    between atoms: C_19  and  O_52
   17  A    between atoms: N_22  and  C_33
   18  A    between atoms: C_33  and  O_52
   19  A    between atoms: O_36  and  P_40
   20  A    between atoms: N_37  and  C_42
   21  A    between atoms: C_47  and  C_61
   22  A    between atoms: C_53  and  C_61
                            x       y       z     vdW  Elec       q    Type
                         _______ _______ _______ _____ _____    ______ ____

>  <TORSDO>
F 22

$$$$
=
 OpenBabel10222416063D

 61 65  0  0  1  0  0  0  0  0999 V2000
  189.8440  177.6600  142.4170 C   0  0  1  0  0  3  0  0  0  0  0  0
  190.9960  176.0100  143.6870 N   0  0  0  0  0  0  0  0  0  0  0  0
  190.8760  177.2480  143.3730 N   0  0  0  0  0  0  0  0  0  0  0  0
  191.9260  175.5530  144.6830 C   0  0  0  0  0  0  0  0  0  0  0  0
  192.4040  174.3840  144.6230 O   0  0  0  0  0  0  0  0  0  0  0  0
  192.3040  176.3840  145.7390 O   0  0  0  0  0  0  0  0  0  0  0  0
  191.4160  176.8980  146.7400 C   0  0  2  0  0  3  0  0  0  0  0  0
  191.6470  176.2150  148.0900 C   0  0  2  0  0  3  0  0  0  0  0  0
  192.7640  176.8140  148.7100 O   0  0  0  0  0  0  0  0  0  0  0  0
  192.9660  175.5440  148.1420 C   0  0  0  0  0  2  0  0  0  0  0  0
  189.0400  176.8350  147.5820 C   0  0  0  0  0  1  0  0  0  0  0  0
  189.9340  176.8550  146.3440 C   0  0  0  0  0  2  0  0  0  0  0  0
  190.5080  177.7870  141.0380 C   0  0  0  0  0  2  0  0  0  0  0  0
  189.5170  177.7720  139.9320 C   0  0  0  0  0  0  0  0  0  0  0  0
  188.7350  178.7420  139.7690 O   0  0  0  0  0  0  0  0  0  0  0  0
  189.4640  176.6480  139.0420 N   0  0  0  0  0  2  0  0  0  0  0  0
  189.6200  176.7850  137.5960 C   0  0  0  0  0  2  0  0  0  0  0  0
  192.0120  175.8000  134.9070 C   0  0  0  0  0  3  0  0  0  0  0  0
  190.9300  176.2410  137.1150 C   0  0  0  0  0  0  0  0  0  0  0  0
  191.9530  176.3830  137.8860 N   0  0  0  0  0  0  0  0  0  0  0  0
  190.9670  175.3560  135.8810 C   0  0  0  0  0  2  0  0  0  0  0  0
  193.2750  175.8150  137.7240 C   0  0  0  0  0  3  0  0  0  0  0  0
  193.8860  175.5290  136.5550 C   0  0  0  0  0  0  0  0  0  0  0  0
  193.3140  175.8440  135.2290 C   0  0  0  0  0  3  0  0  0  0  0  0
  197.7080  175.0850  136.0010 C   0  0  0  0  0  0  0  0  0  0  0  0
  195.2670  174.9900  136.6230 C   0  0  0  0  0  0  0  0  0  0  0  0
  198.6840  175.6950  135.5020 O   0  0  0  0  0  0  0  0  0  0  0  0
  196.9380  173.5210  137.6720 C   0  0  0  0  0  3  0  0  0  0  0  0
  197.9450  173.9960  136.9490 C   0  0  0  0  0  3  0  0  0  0  0  0
  195.5840  174.0670  137.5430 C   0  0  0  0  0  3  0  0  0  0  0  0
  196.3040  175.4730  135.6230 C   0  0  0  0  0  2  0  0  0  0  0  0
  188.7080  176.6160  142.4150 C   0  0  0  0  0  2  0  0  0  0  0  0
  187.8020  178.0570  144.1890 C   0  0  0  0  0  2  0  0  0  0  0  0
  185.2060  178.1750  142.8270 C   0  0  0  0  0  2  0  0  0  0  0  0
  187.4340  177.0330  143.1430 C   0  0  1  0  0  3  0  0  0  0  0  0
  185.3590  178.5910  144.2440 N   0  0  0  0  0  0  0  0  0  0  0  0
  186.5850  178.3770  145.0430 C   0  0  0  0  0  2  0  0  0  0  0  0
  184.0530  178.6300  146.1820 O   0  0  0  0  0  0  0  0  0  0  0  0
  184.1900  178.9820  144.9720 C   0  0  0  0  0  0  0  0  0  0  0  0
  186.4970  177.7080  142.1640 C   0  0  0  0  0  2  0  0  0  0  0  0
  183.0710  179.7210  144.3110 C   0  0  0  0  0  2  0  0  0  0  0  0
  181.9100  178.8040  143.9590 C   0  0  0  0  0  2  0  0  0  0  0  0
  181.0440  179.5580  142.9500 C   0  0  0  0  0  2  0  0  0  0  0  0
  179.5680  177.7530  142.5310 O   0  0  0  0  0  1  0  0  0  0  0  0
  180.2920  178.7710  141.8950 C   0  0  1  0  0  3  0  0  0  0  0  0
  179.3920  179.4810  140.8540 C   0  0  1  0  0  3  0  0  0  0  0  0
  179.4070  180.8730  140.9710 O   0  0  0  0  0  1  0  0  0  0  0  0
  179.6440  179.0210  139.4090 C   0  0  1  0  0  3  0  0  0  0  0  0
  180.6730  180.7400  138.1070 C   0  0  2  0  0  3  0  0  0  0  0  0
  179.4540  180.0540  138.4430 O   0  0  0  0  0  0  0  0  0  0  0  0
  180.9900  178.3810  139.2830 C   0  0  0  0  0  0  0  0  0  0  0  0
  182.1290  179.3040  139.0100 C   0  0  0  0  0  2  0  0  0  0  0  0
  181.0970  177.1730  139.2150 O   0  0  0  0  0  0  0  0  0  0  0  0
  181.6730  180.6330  139.0880 O   0  0  0  0  0  0  0  0  0  0  0  0
  180.2410  182.4650  137.7290 P   0  0  2  0  0  0  0  0  0  0  0  0
  181.6470  183.3970  137.8210 O   0  0  0  0  0  0  0  0  0  0  0  0
  179.2460  183.0040  138.7410 O   0  0  0  0  0  1  0  0  0  0  0  0
  179.7070  182.5900  136.1120 O   0  0  0  0  0  0  0  0  0  0  0  0
  180.6200  184.7520  134.6610 O   0  0  0  0  0  0  0  0  0  0  0  0
  179.7330  184.2480  135.7810 P   0  0  0  0  0  0  0  0  0  0  0  0
  179.0160  185.2660  136.6530 O   0  0  0  0  0  0  0  0  0  0  0  0
  1 13  1  6  0  0  0
  1  3  1  0  0  0  0
  2  4  1  0  0  0  0
  3  2  2  0  0  0  0
  4  6  1  0  0  0  0
  5  4  2  0  0  0  0
  6  7  1  0  0  0  0
  7 12  1  6  0  0  0
  8  7  1  6  0  0  0
  8 10  1  0  0  0  0
  8  9  1  0  0  0  0
 10  9  1  0  0  0  0
 12 11  1  0  0  0  0
 14 13  1  0  0  0  0
 15 14  2  0  0  0  0
 16 14  1  0  0  0  0
 17 16  1  0  0  0  0
 18 24  2  0  0  0  0
 18 21  1  0  0  0  0
 19 17  1  0  0  0  0
 19 20  2  0  0  0  0
 21 19  1  0  0  0  0
 22 20  1  0  0  0  0
 23 26  1  0  0  0  0
 23 22  2  0  0  0  0
 24 23  1  0  0  0  0
 25 29  1  0  0  0  0
 26 30  2  0  0  0  0
 27 25  2  0  0  0  0
 29 28  2  0  0  0  0
 30 28  1  0  0  0  0
 31 25  1  0  0  0  0
 31 26  1  0  0  0  0
 32  1  1  0  0  0  0
 33 37  1  0  0  0  0
 34 36  1  0  0  0  0
 35 32  1  6  0  0  0
 35 33  1  0  0  0  0
 36 39  1  0  0  0  0
 36 37  1  0  0  0  0
 39 38  2  0  0  0  0
 40 34  1  0  0  0  0
 40 35  1  0  0  0  0
 41 39  1  0  0  0  0
 42 41  1  0  0  0  0
 43 42  1  0  0  0  0
 45 44  1  1  0  0  0
 45 43  1  0  0  0  0
 46 47  1  6  0  0  0
 46 45  1  0  0  0  0
 48 46  1  1  0  0  0
 49 55  1  1  0  0  0
 49 50  1  0  0  0  0
 49 54  1  0  0  0  0
 50 48  1  0  0  0  0
 51 48  1  0  0  0  0
 52 54  1  0  0  0  0
 52 51  1  0  0  0  0
 53 51  2  0  0  0  0
 55 56  2  1  0  0  0
 55 57  1  0  0  0  0
 58 55  1  0  0  0  0
 59 60  2  0  0  0  0
 60 58  1  0  0  0  0
 60 61  2  0  0  0  0
M  END
>  <MODEL>
2

>  <REMARK>
 VINA RESULT:      -6.6      5.162     10.339
  Name = 
  22 active torsions:
  status: ('A' for Active; 'I' for Inactive)
    1  A    between atoms: C_1  and  C_6
    2  A    between atoms: C_1  and  N_32
    3  A    between atoms: C_3  and  C_12
    4  A    between atoms: P_5  and  C_11
    5  A    between atoms: P_5  and  O_36
    6  A    between atoms: C_8  and  C_23
    7  A    between atoms: C_8  and  C_42
    8  A    between atoms: C_10  and  C_47
    9  A    between atoms: C_12  and  C_42
   10  A    between atoms: C_14  and  C_19
   11  A    between atoms: C_16  and  C_45
   12  A    between atoms: C_17  and  C_18
   13  A    between atoms: C_17  and  C_53
   14  A    between atoms: C_18  and  C_55
   15  A    between atoms: C_19  and  C_38
   16  A    between atoms: C_19  and  O_52
   17  A    between atoms: N_22  and  C_33
   18  A    between atoms: C_33  and  O_52
   19  A    between atoms: O_36  and  P_40
   20  A    between atoms: N_37  and  C_42
   21  A    between atoms: C_47  and  C_61
   22  A    between atoms: C_53  and  C_61
                            x       y       z     vdW  Elec       q    Type
                         _______ _______ _______ _____ _____    ______ ____

>  <TORSDO>
F 22

$$$$
=
 OpenBabel10222416063D

 61 65  0  0  1  0  0  0  0  0999 V2000
  190.0850  176.1020  136.0250 C   0  0  1  0  0  3  0  0  0  0  0  0
  191.5100  174.2040  135.8670 N   0  0  0  0  0  0  0  0  0  0  0  0
  191.1890  175.3590  135.4130 N   0  0  0  0  0  0  0  0  0  0  0  0
  192.6380  173.4640  135.3700 C   0  0  0  0  0  0  0  0  0  0  0  0
  192.5410  172.2240  135.1460 O   0  0  0  0  0  0  0  0  0  0  0  0
  193.8610  174.0980  135.1450 O   0  0  0  0  0  0  0  0  0  0  0  0
  194.8580  174.3440  136.1460 C   0  0  2  0  0  3  0  0  0  0  0  0
  194.2880  174.1580  137.5540 C   0  0  2  0  0  3  0  0  0  0  0  0
  194.9210  175.0760  138.4180 O   0  0  0  0  0  0  0  0  0  0  0  0
  195.3340  173.7360  138.5130 C   0  0  0  0  0  2  0  0  0  0  0  0
  197.0440  175.5170  135.6950 C   0  0  0  0  0  1  0  0  0  0  0  0
  195.5610  175.7020  136.0070 C   0  0  0  0  0  2  0  0  0  0  0  0
  189.0110  175.0850  136.4410 C   0  0  0  0  0  2  0  0  0  0  0  0
  187.9930  174.8750  135.3800 C   0  0  0  0  0  0  0  0  0  0  0  0
  188.0570  173.8670  134.6320 O   0  0  0  0  0  0  0  0  0  0  0  0
  186.9290  175.8230  135.2190 N   0  0  0  0  0  2  0  0  0  0  0  0
  185.5210  175.4400  135.2860 C   0  0  0  0  0  2  0  0  0  0  0  0
  185.0860  178.0840  137.8840 C   0  0  0  0  0  3  0  0  0  0  0  0
  184.8290  176.0380  136.4730 C   0  0  0  0  0  0  0  0  0  0  0  0
  183.5820  175.7580  136.6390 N   0  0  0  0  0  0  0  0  0  0  0  0
  185.6480  176.7400  137.5430 C   0  0  0  0  0  2  0  0  0  0  0  0
  182.7430  176.0770  137.7760 C   0  0  0  0  0  3  0  0  0  0  0  0
  182.8640  177.1500  138.5850 C   0  0  0  0  0  0  0  0  0  0  0  0
  183.8450  178.2340  138.3720 C   0  0  0  0  0  3  0  0  0  0  0  0
  180.9940  178.4720  141.7270 C   0  0  0  0  0  0  0  0  0  0  0  0
  181.8620  177.3030  139.6680 C   0  0  0  0  0  0  0  0  0  0  0  0
  181.0240  179.4360  142.5280 O   0  0  0  0  0  0  0  0  0  0  0  0
  179.6470  176.8040  140.6150 C   0  0  0  0  0  3  0  0  0  0  0  0
  179.7860  177.6530  141.6260 C   0  0  0  0  0  3  0  0  0  0  0  0
  180.6830  176.6680  139.5880 C   0  0  0  0  0  3  0  0  0  0  0  0
  182.1970  178.1600  140.8770 C   0  0  0  0  0  2  0  0  0  0  0  0
  190.6190  176.9020  137.2320 C   0  0  0  0  0  2  0  0  0  0  0  0
  190.6140  176.8820  139.6900 C   0  0  0  0  0  2  0  0  0  0  0  0
  188.0190  178.2490  139.7400 C   0  0  0  0  0  2  0  0  0  0  0  0
  189.7270  176.8940  138.4690 C   0  0  1  0  0  3  0  0  0  0  0  0
  188.5650  177.5760  140.9450 N   0  0  0  0  0  0  0  0  0  0  0  0
  189.7630  176.7100  140.9390 C   0  0  0  0  0  2  0  0  0  0  0  0
  187.7340  176.4840  142.8370 O   0  0  0  0  0  0  0  0  0  0  0  0
  187.7600  177.5350  142.1280 C   0  0  0  0  0  0  0  0  0  0  0  0
  188.9210  178.1750  138.5130 C   0  0  0  0  0  2  0  0  0  0  0  0
  186.8690  178.6730  142.5050 C   0  0  0  0  0  2  0  0  0  0  0  0
  185.5620  178.1960  143.1210 C   0  0  0  0  0  2  0  0  0  0  0  0
  185.1090  179.2870  144.0920 C   0  0  0  0  0  2  0  0  0  0  0  0
  184.4680  177.7640  145.7900 O   0  0  0  0  0  1  0  0  0  0  0  0
  185.1100  178.9930  145.5790 C   0  0  1  0  0  3  0  0  0  0  0  0
  186.4160  179.0490  146.4070 C   0  0  1  0  0  3  0  0  0  0  0  0
  186.3810  180.0020  147.4290 O   0  0  0  0  0  1  0  0  0  0  0  0
  186.8810  177.6740  146.9160 C   0  0  1  0  0  3  0  0  0  0  0  0
  189.2240  177.3580  146.5750 C   0  0  2  0  0  3  0  0  0  0  0  0
  187.8930  177.0810  146.1040 O   0  0  0  0  0  0  0  0  0  0  0  0
  187.2910  177.7520  148.3520 C   0  0  0  0  0  0  0  0  0  0  0  0
  188.7090  178.1380  148.6070 C   0  0  0  0  0  2  0  0  0  0  0  0
  186.5610  177.3340  149.2280 O   0  0  0  0  0  0  0  0  0  0  0  0
  189.3120  178.5010  147.3880 O   0  0  0  0  0  0  0  0  0  0  0  0
  190.3110  177.4450  145.1210 P   0  0  2  0  0  0  0  0  0  0  0  0
  190.0280  178.9110  144.3330 O   0  0  0  0  0  1  0  0  0  0  0  0
  190.0020  176.3170  144.1520 O   0  0  0  0  0  0  0  0  0  0  0  0
  191.9450  177.4910  145.6160 O   0  0  0  0  0  0  0  0  0  0  0  0
  192.0940  176.7330  148.2650 O   0  0  0  0  0  0  0  0  0  0  0  0
  192.0610  176.3030  146.8130 P   0  0  0  0  0  0  0  0  0  0  0  0
  192.2800  174.8340  146.4860 O   0  0  0  0  0  0  0  0  0  0  0  0
  1 13  1  1  0  0  0
  1 32  1  0  0  0  0
  3  2  2  0  0  0  0
  3  1  1  0  0  0  0
  4  2  1  0  0  0  0
  5  4  2  0  0  0  0
  6  4  1  0  0  0  0
  6  7  1  0  0  0  0
  7 12  1  1  0  0  0
  8  7  1  6  0  0  0
  8  9  1  0  0  0  0
  8 10  1  0  0  0  0
  9 10  1  0  0  0  0
 11 12  1  0  0  0  0
 14 13  1  0  0  0  0
 15 14  2  0  0  0  0
 16 17  1  0  0  0  0
 16 14  1  0  0  0  0
 17 19  1  0  0  0  0
 18 24  2  0  0  0  0
 19 20  2  0  0  0  0
 19 21  1  0  0  0  0
 20 22  1  0  0  0  0
 21 18  1  0  0  0  0
 22 23  2  0  0  0  0
 23 26  1  0  0  0  0
 24 23  1  0  0  0  0
 25 27  2  0  0  0  0
 26 31  1  0  0  0  0
 28 29  2  0  0  0  0
 29 25  1  0  0  0  0
 30 26  2  0  0  0  0
 30 28  1  0  0  0  0
 31 25  1  0  0  0  0
 33 37  1  0  0  0  0
 34 36  1  0  0  0  0
 35 32  1  6  0  0  0
 35 40  1  0  0  0  0
 35 33  1  0  0  0  0
 36 39  1  0  0  0  0
 37 36  1  0  0  0  0
 39 41  1  0  0  0  0
 39 38  2  0  0  0  0
 40 34  1  0  0  0  0
 41 42  1  0  0  0  0
 42 43  1  0  0  0  0
 43 45  1  0  0  0  0
 45 44  1  6  0  0  0
 45 46  1  0  0  0  0
 46 47  1  1  0  0  0
 48 46  1  6  0  0  0
 48 51  1  0  0  0  0
 49 55  1  6  0  0  0
 49 54  1  0  0  0  0
 50 49  1  0  0  0  0
 50 48  1  0  0  0  0
 51 52  1  0  0  0  0
 51 53  2  0  0  0  0
 54 52  1  0  0  0  0
 55 57  2  6  0  0  0
 55 58  1  0  0  0  0
 56 55  1  0  0  0  0
 58 60  1  0  0  0  0
 60 59  2  0  0  0  0
 61 60  2  0  0  0  0
M  END
>  <MODEL>
3

>  <REMARK>
 VINA RESULT:      -6.3      3.238      9.192
  Name = 
  22 active torsions:
  status: ('A' for Active; 'I' for Inactive)
    1  A    between atoms: C_1  and  C_6
    2  A    between atoms: C_1  and  N_32
    3  A    between atoms: C_3  and  C_12
    4  A    between atoms: P_5  and  C_11
    5  A    between atoms: P_5  and  O_36
    6  A    between atoms: C_8  and  C_23
    7  A    between atoms: C_8  and  C_42
    8  A    between atoms: C_10  and  C_47
    9  A    between atoms: C_12  and  C_42
   10  A    between atoms: C_14  and  C_19
   11  A    between atoms: C_16  and  C_45
   12  A    between atoms: C_17  and  C_18
   13  A    between atoms: C_17  and  C_53
   14  A    between atoms: C_18  and  C_55
   15  A    between atoms: C_19  and  C_38
   16  A    between atoms: C_19  and  O_52
   17  A    between atoms: N_22  and  C_33
   18  A    between atoms: C_33  and  O_52
   19  A    between atoms: O_36  and  P_40
   20  A    between atoms: N_37  and  C_42
   21  A    between atoms: C_47  and  C_61
   22  A    between atoms: C_53  and  C_61
                            x       y       z     vdW  Elec       q    Type
                         _______ _______ _______ _____ _____    ______ ____

>  <TORSDO>
F 22

$$$$
=
 OpenBabel10222416063D

 61 65  0  0  1  0  0  0  0  0999 V2000
  190.4010  177.2400  142.8340 C   0  0  1  0  0  3  0  0  0  0  0  0
  191.2170  175.4020  144.1060 N   0  0  0  0  0  0  0  0  0  0  0  0
  191.3570  176.6290  143.7600 N   0  0  0  0  0  0  0  0  0  0  0  0
  192.0670  174.7710  145.0780 C   0  0  0  0  0  0  0  0  0  0  0  0
  192.9360  173.9280  144.7150 O   0  0  0  0  0  0  0  0  0  0  0  0
  191.9350  175.0630  146.4360 O   0  0  0  0  0  0  0  0  0  0  0  0
  191.5320  176.3310  146.9700 C   0  0  2  0  0  3  0  0  0  0  0  0
  192.2750  176.6480  148.2700 C   0  0  2  0  0  3  0  0  0  0  0  0
  193.6190  176.2450  148.1270 O   0  0  0  0  0  0  0  0  0  0  0  0
  192.7950  175.4190  148.9120 C   0  0  0  0  0  2  0  0  0  0  0  0
  189.6810  177.7430  147.9400 C   0  0  0  0  0  1  0  0  0  0  0  0
  190.0140  176.4800  147.1490 C   0  0  0  0  0  2  0  0  0  0  0  0
  191.1240  177.4670  141.4980 C   0  0  0  0  0  2  0  0  0  0  0  0
  190.2280  177.2650  140.3310 C   0  0  0  0  0  0  0  0  0  0  0  0
  189.3230  178.0990  140.0750 O   0  0  0  0  0  0  0  0  0  0  0  0
  190.4070  176.1190  139.4880 N   0  0  0  0  0  2  0  0  0  0  0  0
  190.6440  176.2300  138.0510 C   0  0  0  0  0  2  0  0  0  0  0  0
  192.5210  174.1450  135.5900 C   0  0  0  0  0  3  0  0  0  0  0  0
  191.8420  175.4440  137.6140 C   0  0  0  0  0  0  0  0  0  0  0  0
  192.9840  175.7730  138.1110 N   0  0  0  0  0  0  0  0  0  0  0  0
  191.6490  174.1710  136.8070 C   0  0  0  0  0  2  0  0  0  0  0  0
  194.2480  175.0790  137.9720 C   0  0  0  0  0  3  0  0  0  0  0  0
  194.6440  174.3390  136.9140 C   0  0  0  0  0  0  0  0  0  0  0  0
  193.8590  174.1970  135.6710 C   0  0  0  0  0  3  0  0  0  0  0  0
  197.5540  171.7980  137.3400 C   0  0  0  0  0  0  0  0  0  0  0  0
  196.0050  173.7520  136.9670 C   0  0  0  0  0  0  0  0  0  0  0  0
  197.7410  170.5680  137.5000 O   0  0  0  0  0  0  0  0  0  0  0  0
  198.4070  173.8760  136.4540 C   0  0  0  0  0  3  0  0  0  0  0  0
  198.6540  172.6400  136.8700 C   0  0  0  0  0  3  0  0  0  0  0  0
  197.0470  174.4210  136.4520 C   0  0  0  0  0  3  0  0  0  0  0  0
  196.2070  172.4010  137.6330 C   0  0  0  0  0  2  0  0  0  0  0  0
  189.1810  176.3080  142.6770 C   0  0  0  0  0  2  0  0  0  0  0  0
  188.3140  177.7520  144.4670 C   0  0  0  0  0  2  0  0  0  0  0  0
  185.7250  177.9630  143.1030 C   0  0  0  0  0  2  0  0  0  0  0  0
  187.9190  176.7530  143.4070 C   0  0  1  0  0  3  0  0  0  0  0  0
  185.8880  178.3570  144.5250 N   0  0  0  0  0  0  0  0  0  0  0  0
  187.1050  178.0970  145.3230 C   0  0  0  0  0  2  0  0  0  0  0  0
  184.5800  178.4090  146.4620 O   0  0  0  0  0  0  0  0  0  0  0  0
  184.7290  178.7720  145.2560 C   0  0  0  0  0  0  0  0  0  0  0  0
  187.0030  177.4670  142.4360 C   0  0  0  0  0  2  0  0  0  0  0  0
  183.6340  179.5520  144.6030 C   0  0  0  0  0  2  0  0  0  0  0  0
  182.4550  178.6700  144.2200 C   0  0  0  0  0  2  0  0  0  0  0  0
  181.7540  179.3570  143.0470 C   0  0  0  0  0  2  0  0  0  0  0  0
  179.8130  178.6540  141.8850 O   0  0  0  0  0  1  0  0  0  0  0  0
  181.2070  178.5060  141.9180 C   0  0  1  0  0  3  0  0  0  0  0  0
  181.7780  178.6120  140.4840 C   0  0  1  0  0  3  0  0  0  0  0  0
  181.6830  179.8980  139.9470 O   0  0  0  0  0  1  0  0  0  0  0  0
  183.1950  178.0310  140.3420 C   0  0  1  0  0  3  0  0  0  0  0  0
  183.5140  177.0070  138.2070 C   0  0  2  0  0  3  0  0  0  0  0  0
  183.2360  176.8100  139.6050 O   0  0  0  0  0  0  0  0  0  0  0  0
  184.1320  179.0520  139.7830 C   0  0  0  0  0  0  0  0  0  0  0  0
  184.1990  179.1330  138.2960 C   0  0  0  0  0  2  0  0  0  0  0  0
  184.9220  179.6280  140.5040 O   0  0  0  0  0  0  0  0  0  0  0  0
  183.2090  178.2980  137.7450 O   0  0  0  0  0  0  0  0  0  0  0  0
  182.6380  175.7070  137.2880 P   0  0  2  0  0  0  0  0  0  0  0  0
  183.0450  174.2130  137.9630 O   0  0  0  0  0  1  0  0  0  0  0  0
  183.0620  175.7010  135.8300 O   0  0  0  0  0  0  0  0  0  0  0  0
  180.9520  175.8720  137.5090 O   0  0  0  0  0  0  0  0  0  0  0  0
  179.9780  175.4060  134.9710 O   0  0  0  0  0  0  0  0  0  0  0  0
  180.3790  176.4240  136.0170 P   0  0  0  0  0  0  0  0  0  0  0  0
  180.3870  177.8950  135.6340 O   0  0  0  0  0  0  0  0  0  0  0  0
  1 13  1  6  0  0  0
  1  3  1  0  0  0  0
  2  4  1  0  0  0  0
  3  2  2  0  0  0  0
  4  6  1  0  0  0  0
  5  4  2  0  0  0  0
  6  7  1  0  0  0  0
  7 12  1  1  0  0  0
  8  7  1  6  0  0  0
  8 10  1  0  0  0  0
  9  8  1  0  0  0  0
  9 10  1  0  0  0  0
 12 11  1  0  0  0  0
 14 13  1  0  0  0  0
 15 14  2  0  0  0  0
 16 14  1  0  0  0  0
 17 16  1  0  0  0  0
 18 24  2  0  0  0  0
 18 21  1  0  0  0  0
 19 17  1  0  0  0  0
 19 20  2  0  0  0  0
 21 19  1  0  0  0  0
 22 20  1  0  0  0  0
 23 26  1  0  0  0  0
 23 22  2  0  0  0  0
 24 23  1  0  0  0  0
 25 27  2  0  0  0  0
 25 31  1  0  0  0  0
 26 31  1  0  0  0  0
 28 29  2  0  0  0  0
 29 25  1  0  0  0  0
 30 28  1  0  0  0  0
 30 26  2  0  0  0  0
 32  1  1  0  0  0  0
 33 37  1  0  0  0  0
 34 36  1  0  0  0  0
 35 32  1  6  0  0  0
 35 33  1  0  0  0  0
 36 39  1  0  0  0  0
 36 37  1  0  0  0  0
 39 38  2  0  0  0  0
 40 34  1  0  0  0  0
 40 35  1  0  0  0  0
 41 39  1  0  0  0  0
 42 41  1  0  0  0  0
 43 42  1  0  0  0  0
 45 44  1  6  0  0  0
 45 43  1  0  0  0  0
 46 47  1  1  0  0  0
 46 45  1  0  0  0  0
 48 46  1  6  0  0  0
 49 55  1  6  0  0  0
 49 50  1  0  0  0  0
 50 48  1  0  0  0  0
 51 48  1  0  0  0  0
 51 53  2  0  0  0  0
 52 51  1  0  0  0  0
 54 49  1  0  0  0  0
 54 52  1  0  0  0  0
 55 57  2  6  0  0  0
 55 58  1  0  0  0  0
 55 56  1  0  0  0  0
 59 60  2  0  0  0  0
 60 58  1  0  0  0  0
 61 60  2  0  0  0  0
M  END
>  <MODEL>
4

>  <REMARK>
 VINA RESULT:      -6.2      3.908      9.383
  Name = 
  22 active torsions:
  status: ('A' for Active; 'I' for Inactive)
    1  A    between atoms: C_1  and  C_6
    2  A    between atoms: C_1  and  N_32
    3  A    between atoms: C_3  and  C_12
    4  A    between atoms: P_5  and  C_11
    5  A    between atoms: P_5  and  O_36
    6  A    between atoms: C_8  and  C_23
    7  A    between atoms: C_8  and  C_42
    8  A    between atoms: C_10  and  C_47
    9  A    between atoms: C_12  and  C_42
   10  A    between atoms: C_14  and  C_19
   11  A    between atoms: C_16  and  C_45
   12  A    between atoms: C_17  and  C_18
   13  A    between atoms: C_17  and  C_53
   14  A    between atoms: C_18  and  C_55
   15  A    between atoms: C_19  and  C_38
   16  A    between atoms: C_19  and  O_52
   17  A    between atoms: N_22  and  C_33
   18  A    between atoms: C_33  and  O_52
   19  A    between atoms: O_36  and  P_40
   20  A    between atoms: N_37  and  C_42
   21  A    between atoms: C_47  and  C_61
   22  A    between atoms: C_53  and  C_61
                            x       y       z     vdW  Elec       q    Type
                         _______ _______ _______ _____ _____    ______ ____

>  <TORSDO>
F 22

$$$$
=
 OpenBabel10222416063D

 61 65  0  0  1  0  0  0  0  0999 V2000
  187.4270  178.7510  141.7600 C   0  0  1  0  0  3  0  0  0  0  0  0
  189.0420  177.9890  143.3330 N   0  0  0  0  0  0  0  0  0  0  0  0
  188.7740  178.2980  142.1180 N   0  0  0  0  0  0  0  0  0  0  0  0
  190.3630  177.6230  143.7640 C   0  0  0  0  0  0  0  0  0  0  0  0
  191.3760  177.9820  143.0970 O   0  0  0  0  0  0  0  0  0  0  0  0
  190.5490  176.8520  144.9130 O   0  0  0  0  0  0  0  0  0  0  0  0
  190.2860  177.2920  146.2510 C   0  0  2  0  0  3  0  0  0  0  0  0
  190.8610  176.3150  147.2800 C   0  0  2  0  0  3  0  0  0  0  0  0
  192.0300  176.8800  147.8300 O   0  0  0  0  0  0  0  0  0  0  0  0
  192.2120  175.8490  146.8920 C   0  0  0  0  0  2  0  0  0  0  0  0
  188.4560  177.2690  147.9860 C   0  0  0  0  0  1  0  0  0  0  0  0
  188.8060  177.5860  146.5340 C   0  0  0  0  0  2  0  0  0  0  0  0
  187.0810  178.1530  140.3890 C   0  0  0  0  0  2  0  0  0  0  0  0
  188.2930  177.8390  139.5890 C   0  0  0  0  0  0  0  0  0  0  0  0
  188.8150  176.6980  139.6520 O   0  0  0  0  0  0  0  0  0  0  0  0
  188.8580  178.8430  138.7340 N   0  0  0  0  0  2  0  0  0  0  0  0
  189.0490  178.6360  137.3010 C   0  0  0  0  0  2  0  0  0  0  0  0
  190.0090  175.7440  135.1460 C   0  0  0  0  0  3  0  0  0  0  0  0
  189.8450  177.4010  137.0090 C   0  0  0  0  0  0  0  0  0  0  0  0
  191.0080  177.2980  137.5560 N   0  0  0  0  0  0  0  0  0  0  0  0
  189.1840  176.2340  136.2950 C   0  0  0  0  0  2  0  0  0  0  0  0
  191.8910  176.1510  137.5590 C   0  0  0  0  0  3  0  0  0  0  0  0
  191.9900  175.2130  136.5930 C   0  0  0  0  0  0  0  0  0  0  0  0
  191.2530  175.2700  135.3140 C   0  0  0  0  0  3  0  0  0  0  0  0
  194.9220  173.1220  138.0570 C   0  0  0  0  0  0  0  0  0  0  0  0
  193.0000  174.1430  136.7840 C   0  0  0  0  0  0  0  0  0  0  0  0
  195.6570  173.0770  139.0720 O   0  0  0  0  0  0  0  0  0  0  0  0
  193.8460  171.8890  136.2800 C   0  0  0  0  0  3  0  0  0  0  0  0
  194.8050  171.9440  137.1970 C   0  0  0  0  0  3  0  0  0  0  0  0
  192.8930  172.9890  136.1090 C   0  0  0  0  0  3  0  0  0  0  0  0
  194.1660  174.3820  137.7280 C   0  0  0  0  0  2  0  0  0  0  0  0
  186.4340  178.3010  142.8520 C   0  0  0  0  0  2  0  0  0  0  0  0
  184.1370  179.0480  143.3100 C   0  0  0  0  0  2  0  0  0  0  0  0
  183.4050  178.6640  140.4960 C   0  0  0  0  0  2  0  0  0  0  0  0
  184.9810  178.1820  142.4070 C   0  0  1  0  0  3  0  0  0  0  0  0
  182.3730  178.8270  141.5510 N   0  0  0  0  0  0  0  0  0  0  0  0
  182.6650  178.8300  143.0000 C   0  0  0  0  0  2  0  0  0  0  0  0
  180.1850  178.1120  141.9500 O   0  0  0  0  0  0  0  0  0  0  0  0
  180.9950  178.7140  141.1830 C   0  0  0  0  0  0  0  0  0  0  0  0
  184.8410  178.7290  141.0020 C   0  0  0  0  0  2  0  0  0  0  0  0
  180.4970  179.2070  139.8630 C   0  0  0  0  0  2  0  0  0  0  0  0
  181.3920  180.2920  139.2840 C   0  0  0  0  0  2  0  0  0  0  0  0
  181.5420  179.9890  137.7920 C   0  0  0  0  0  2  0  0  0  0  0  0
  179.9680  178.9470  136.3610 O   0  0  0  0  0  1  0  0  0  0  0  0
  181.0130  178.6740  137.2540 C   0  0  1  0  0  3  0  0  0  0  0  0
  181.9640  177.6180  136.6400 C   0  0  1  0  0  3  0  0  0  0  0  0
  183.2890  177.7580  137.0610 O   0  0  0  0  0  1  0  0  0  0  0  0
  181.4600  176.1740  136.7930 C   0  0  1  0  0  3  0  0  0  0  0  0
  183.1670  174.7340  137.6430 C   0  0  2  0  0  3  0  0  0  0  0  0
  182.4490  175.1920  136.4840 O   0  0  0  0  0  0  0  0  0  0  0  0
  180.8670  175.9600  138.1480 C   0  0  0  0  0  0  0  0  0  0  0  0
  181.8200  175.5630  139.2240 C   0  0  0  0  0  2  0  0  0  0  0  0
  179.6620  175.9250  138.2980 O   0  0  0  0  0  0  0  0  0  0  0  0
  183.1330  175.6330  138.7220 O   0  0  0  0  0  0  0  0  0  0  0  0
  184.8580  174.3330  137.1140 P   0  0  2  0  0  0  0  0  0  0  0  0
  185.4390  173.0850  138.0920 O   0  0  0  0  0  1  0  0  0  0  0  0
  185.7720  175.5340  137.2820 O   0  0  0  0  0  0  0  0  0  0  0  0
  184.8380  173.7070  135.5250 O   0  0  0  0  0  0  0  0  0  0  0  0
  183.2440  171.5670  136.2220 O   0  0  0  0  0  0  0  0  0  0  0  0
  184.5910  172.0460  135.7250 P   0  0  0  0  0  0  0  0  0  0  0  0
  185.7100  171.0290  135.5630 O   0  0  0  0  0  0  0  0  0  0  0  0
  1 13  1  6  0  0  0
  1  3  1  0  0  0  0
  1 32  1  0  0  0  0
  2  4  1  0  0  0  0
  3  2  2  0  0  0  0
  4  6  1  0  0  0  0
  5  4  2  0  0  0  0
  6  7  1  0  0  0  0
  7 12  1  6  0  0  0
  8  7  1  6  0  0  0
  8  9  1  0  0  0  0
 10  8  1  0  0  0  0
 10  9  1  0  0  0  0
 12 11  1  0  0  0  0
 14 15  2  0  0  0  0
 14 13  1  0  0  0  0
 16 14  1  0  0  0  0
 17 16  1  0  0  0  0
 18 24  2  0  0  0  0
 18 21  1  0  0  0  0
 19 17  1  0  0  0  0
 19 20  2  0  0  0  0
 20 22  1  0  0  0  0
 21 19  1  0  0  0  0
 23 26  1  0  0  0  0
 23 22  2  0  0  0  0
 24 23  1  0  0  0  0
 25 27  2  0  0  0  0
 26 31  1  0  0  0  0
 28 29  2  0  0  0  0
 29 25  1  0  0  0  0
 30 28  1  0  0  0  0
 30 26  2  0  0  0  0
 31 25  1  0  0  0  0
 34 40  1  0  0  0  0
 34 36  1  0  0  0  0
 35 32  1  1  0  0  0
 35 33  1  0  0  0  0
 36 37  1  0  0  0  0
 37 33  1  0  0  0  0
 39 36  1  0  0  0  0
 39 38  2  0  0  0  0
 40 35  1  0  0  0  0
 41 39  1  0  0  0  0
 42 41  1  0  0  0  0
 43 42  1  0  0  0  0
 45 44  1  6  0  0  0
 45 43  1  0  0  0  0
 46 47  1  1  0  0  0
 46 45  1  0  0  0  0
 48 46  1  1  0  0  0
 48 51  1  0  0  0  0
 49 55  1  6  0  0  0
 49 54  1  0  0  0  0
 50 48  1  0  0  0  0
 50 49  1  0  0  0  0
 51 53  2  0  0  0  0
 51 52  1  0  0  0  0
 54 52  1  0  0  0  0
 55 57  2  1  0  0  0
 55 56  1  0  0  0  0
 58 60  1  0  0  0  0
 58 55  1  0  0  0  0
 60 59  2  0  0  0  0
 61 60  2  0  0  0  0
M  END
>  <MODEL>
5

>  <REMARK>
 VINA RESULT:      -6.2      2.901      7.898
  Name = 
  22 active torsions:
  status: ('A' for Active; 'I' for Inactive)
    1  A    between atoms: C_1  and  C_6
    2  A    between atoms: C_1  and  N_32
    3  A    between atoms: C_3  and  C_12
    4  A    between atoms: P_5  and  C_11
    5  A    between atoms: P_5  and  O_36
    6  A    between atoms: C_8  and  C_23
    7  A    between atoms: C_8  and  C_42
    8  A    between atoms: C_10  and  C_47
    9  A    between atoms: C_12  and  C_42
   10  A    between atoms: C_14  and  C_19
   11  A    between atoms: C_16  and  C_45
   12  A    between atoms: C_17  and  C_18
   13  A    between atoms: C_17  and  C_53
   14  A    between atoms: C_18  and  C_55
   15  A    between atoms: C_19  and  C_38
   16  A    between atoms: C_19  and  O_52
   17  A    between atoms: N_22  and  C_33
   18  A    between atoms: C_33  and  O_52
   19  A    between atoms: O_36  and  P_40
   20  A    between atoms: N_37  and  C_42
   21  A    between atoms: C_47  and  C_61
   22  A    between atoms: C_53  and  C_61
                            x       y       z     vdW  Elec       q    Type
                         _______ _______ _______ _____ _____    ______ ____

>  <TORSDO>
F 22

$$$$
=
 OpenBabel10222416063D

 61 65  0  0  1  0  0  0  0  0999 V2000
  182.6290  178.6200  138.0840 C   0  0  1  0  0  3  0  0  0  0  0  0
  184.4330  177.5120  137.0000 N   0  0  0  0  0  0  0  0  0  0  0  0
  183.2410  177.4410  137.4670 N   0  0  0  0  0  0  0  0  0  0  0  0
  185.0560  176.4200  136.3040 C   0  0  0  0  0  0  0  0  0  0  0  0
  184.5230  175.9350  135.2650 O   0  0  0  0  0  0  0  0  0  0  0  0
  186.2490  175.8650  136.7720 O   0  0  0  0  0  0  0  0  0  0  0  0
  187.5350  176.0430  136.1640 C   0  0  2  0  0  3  0  0  0  0  0  0
  188.6530  175.5100  137.0620 C   0  0  2  0  0  3  0  0  0  0  0  0
  189.6600  174.9570  136.2440 O   0  0  0  0  0  0  0  0  0  0  0  0
  188.8210  174.0470  136.9100 C   0  0  0  0  0  2  0  0  0  0  0  0
  188.5110  178.2710  136.8320 C   0  0  0  0  0  1  0  0  0  0  0  0
  187.8220  177.4850  135.7190 C   0  0  0  0  0  2  0  0  0  0  0  0
  181.6670  179.2380  137.0590 C   0  0  0  0  0  2  0  0  0  0  0  0
  180.2490  178.8940  137.3360 C   0  0  0  0  0  0  0  0  0  0  0  0
  179.3220  179.5720  136.8270 O   0  0  0  0  0  0  0  0  0  0  0  0
  179.9420  177.7770  138.1810 N   0  0  0  0  0  2  0  0  0  0  0  0
  179.1080  176.6630  137.7370 C   0  0  0  0  0  2  0  0  0  0  0  0
  179.6920  173.0260  138.3350 C   0  0  0  0  0  3  0  0  0  0  0  0
  179.8940  175.3980  137.5750 C   0  0  0  0  0  0  0  0  0  0  0  0
  180.6110  175.2740  136.5120 N   0  0  0  0  0  0  0  0  0  0  0  0
  180.0060  174.4320  138.7420 C   0  0  0  0  0  2  0  0  0  0  0  0
  181.5690  174.2330  136.2020 C   0  0  0  0  0  3  0  0  0  0  0  0
  181.5200  172.9490  136.6160 C   0  0  0  0  0  0  0  0  0  0  0  0
  180.4030  172.3800  137.3980 C   0  0  0  0  0  3  0  0  0  0  0  0
  185.0250  171.4500  135.8550 C   0  0  0  0  0  0  0  0  0  0  0  0
  182.5890  172.0390  136.1390 C   0  0  0  0  0  0  0  0  0  0  0  0
  186.2340  171.6490  136.1220 O   0  0  0  0  0  0  0  0  0  0  0  0
  183.3110  169.8370  135.3130 C   0  0  0  0  0  3  0  0  0  0  0  0
  184.6020  170.1430  135.3520 C   0  0  0  0  0  3  0  0  0  0  0  0
  182.2900  170.7860  135.7670 C   0  0  0  0  0  3  0  0  0  0  0  0
  184.0170  172.5510  136.0510 C   0  0  0  0  0  2  0  0  0  0  0  0
  181.8970  178.1950  139.3750 C   0  0  0  0  0  2  0  0  0  0  0  0
  181.6240  178.3090  141.8150 C   0  0  0  0  0  2  0  0  0  0  0  0
  184.5290  178.1710  142.1920 C   0  0  0  0  0  2  0  0  0  0  0  0
  182.5630  178.6260  140.6770 C   0  0  1  0  0  3  0  0  0  0  0  0
  183.6230  178.5950  143.2890 N   0  0  0  0  0  0  0  0  0  0  0  0
  182.1820  178.8710  143.1130 C   0  0  0  0  0  2  0  0  0  0  0  0
  183.7090  180.0080  145.1490 O   0  0  0  0  0  0  0  0  0  0  0  0
  184.2020  179.0180  144.5280 C   0  0  0  0  0  0  0  0  0  0  0  0
  183.8200  177.8100  140.8920 C   0  0  0  0  0  2  0  0  0  0  0  0
  185.4400  178.3800  145.0680 C   0  0  0  0  0  2  0  0  0  0  0  0
  185.5650  178.5580  146.5740 C   0  0  0  0  0  2  0  0  0  0  0  0
  186.7100  177.6530  147.0310 C   0  0  0  0  0  2  0  0  0  0  0  0
  187.6330  177.9220  149.1970 O   0  0  0  0  0  1  0  0  0  0  0  0
  187.8370  178.2530  147.8500 C   0  0  1  0  0  3  0  0  0  0  0  0
  189.3180  178.0140  147.4710 C   0  0  1  0  0  3  0  0  0  0  0  0
  190.2010  178.2350  148.5310 O   0  0  0  0  0  1  0  0  0  0  0  0
  189.5670  176.6600  146.7850 C   0  0  1  0  0  3  0  0  0  0  0  0
  190.6940  176.9280  144.6960 C   0  0  2  0  0  3  0  0  0  0  0  0
  189.4390  176.7120  145.3650 O   0  0  0  0  0  0  0  0  0  0  0  0
  190.8810  176.0870  147.2070 C   0  0  0  0  0  0  0  0  0  0  0  0
  192.0670  176.5160  146.4110 C   0  0  0  0  0  2  0  0  0  0  0  0
  190.9310  175.1830  148.0160 O   0  0  0  0  0  0  0  0  0  0  0  0
  191.6750  177.5220  145.5080 O   0  0  0  0  0  0  0  0  0  0  0  0
  190.3510  177.8890  143.1920 P   0  0  2  0  0  0  0  0  0  0  0  0
  191.4650  177.4350  142.0060 O   0  0  0  0  0  0  0  0  0  0  0  0
  190.5160  179.3760  143.4550 O   0  0  0  0  0  1  0  0  0  0  0  0
  188.8160  177.4710  142.5710 O   0  0  0  0  0  0  0  0  0  0  0  0
  189.7920  176.8410  140.0690 O   0  0  0  0  0  0  0  0  0  0  0  0
  188.9340  177.7620  140.9090 P   0  0  0  0  0  0  0  0  0  0  0  0
  188.3310  178.9940  140.2520 O   0  0  0  0  0  0  0  0  0  0  0  0
  1 13  1  6  0  0  0
  1 32  1  0  0  0  0
  2  3  2  0  0  0  0
  3  1  1  0  0  0  0
  4  6  1  0  0  0  0
  4  2  1  0  0  0  0
  5  4  2  0  0  0  0
  7 12  1  1  0  0  0
  7  6  1  0  0  0  0
  8  7  1  6  0  0  0
  9 10  1  0  0  0  0
  9  8  1  0  0  0  0
 10  8  1  0  0  0  0
 12 11  1  0  0  0  0
 13 14  1  0  0  0  0
 14 16  1  0  0  0  0
 15 14  2  0  0  0  0
 17 16  1  0  0  0  0
 18 21  1  0  0  0  0
 19 17  1  0  0  0  0
 19 21  1  0  0  0  0
 20 19  2  0  0  0  0
 22 20  1  0  0  0  0
 22 23  2  0  0  0  0
 23 24  1  0  0  0  0
 24 18  2  0  0  0  0
 25 31  1  0  0  0  0
 25 27  2  0  0  0  0
 26 23  1  0  0  0  0
 28 29  2  0  0  0  0
 28 30  1  0  0  0  0
 29 25  1  0  0  0  0
 30 26  2  0  0  0  0
 31 26  1  0  0  0  0
 33 37  1  0  0  0  0
 34 36  1  0  0  0  0
 35 32  1  6  0  0  0
 35 40  1  0  0  0  0
 35 33  1  0  0  0  0
 36 39  1  0  0  0  0
 37 36  1  0  0  0  0
 39 41  1  0  0  0  0
 39 38  2  0  0  0  0
 40 34  1  0  0  0  0
 41 42  1  0  0  0  0
 42 43  1  0  0  0  0
 43 45  1  0  0  0  0
 45 44  1  1  0  0  0
 46 45  1  0  0  0  0
 46 47  1  1  0  0  0
 48 51  1  0  0  0  0
 48 46  1  6  0  0  0
 49 55  1  6  0  0  0
 49 50  1  0  0  0  0
 49 54  1  0  0  0  0
 50 48  1  0  0  0  0
 51 53  2  0  0  0  0
 52 51  1  0  0  0  0
 54 52  1  0  0  0  0
 55 56  2  6  0  0  0
 55 57  1  0  0  0  0
 58 55  1  0  0  0  0
 59 60  2  0  0  0  0
 60 58  1  0  0  0  0
 61 60  2  0  0  0  0
M  END
>  <MODEL>
6

>  <REMARK>
 VINA RESULT:      -5.8      2.974      8.876
  Name = 
  22 active torsions:
  status: ('A' for Active; 'I' for Inactive)
    1  A    between atoms: C_1  and  C_6
    2  A    between atoms: C_1  and  N_32
    3  A    between atoms: C_3  and  C_12
    4  A    between atoms: P_5  and  C_11
    5  A    between atoms: P_5  and  O_36
    6  A    between atoms: C_8  and  C_23
    7  A    between atoms: C_8  and  C_42
    8  A    between atoms: C_10  and  C_47
    9  A    between atoms: C_12  and  C_42
   10  A    between atoms: C_14  and  C_19
   11  A    between atoms: C_16  and  C_45
   12  A    between atoms: C_17  and  C_18
   13  A    between atoms: C_17  and  C_53
   14  A    between atoms: C_18  and  C_55
   15  A    between atoms: C_19  and  C_38
   16  A    between atoms: C_19  and  O_52
   17  A    between atoms: N_22  and  C_33
   18  A    between atoms: C_33  and  O_52
   19  A    between atoms: O_36  and  P_40
   20  A    between atoms: N_37  and  C_42
   21  A    between atoms: C_47  and  C_61
   22  A    between atoms: C_53  and  C_61
                            x       y       z     vdW  Elec       q    Type
                         _______ _______ _______ _____ _____    ______ ____

>  <TORSDO>
F 22

$$$$
=
 OpenBabel10222416063D

 61 65  0  0  1  0  0  0  0  0999 V2000
  185.1140  178.1640  143.7480 C   0  0  1  0  0  3  0  0  0  0  0  0
  187.0570  177.2050  144.7300 N   0  0  0  0  0  0  0  0  0  0  0  0
  186.3280  178.2470  144.5630 N   0  0  0  0  0  0  0  0  0  0  0  0
  188.2100  177.1990  145.5890 C   0  0  0  0  0  0  0  0  0  0  0  0
  188.1510  177.7150  146.7420 O   0  0  0  0  0  0  0  0  0  0  0  0
  189.4140  176.6390  145.1590 O   0  0  0  0  0  0  0  0  0  0  0  0
  190.6490  177.3530  145.0150 C   0  0  2  0  0  3  0  0  0  0  0  0
  191.2930  177.0780  143.6530 C   0  0  2  0  0  3  0  0  0  0  0  0
  190.8310  178.0450  142.7360 O   0  0  0  0  0  0  0  0  0  0  0  0
  190.2760  176.7580  142.6260 C   0  0  0  0  0  2  0  0  0  0  0  0
  190.9680  176.4210  147.3360 C   0  0  0  0  0  1  0  0  0  0  0  0
  191.6460  177.1150  146.1570 C   0  0  0  0  0  2  0  0  0  0  0  0
  183.9180  178.4900  144.6550 C   0  0  0  0  0  2  0  0  0  0  0  0
  182.9650  179.4320  144.0150 C   0  0  0  0  0  0  0  0  0  0  0  0
  183.0910  180.6710  144.1800 O   0  0  0  0  0  0  0  0  0  0  0  0
  181.9040  178.9200  143.1950 N   0  0  0  0  0  2  0  0  0  0  0  0
  181.7240  179.3230  141.8030 C   0  0  0  0  0  2  0  0  0  0  0  0
  178.9340  177.1290  140.6530 C   0  0  0  0  0  3  0  0  0  0  0  0
  181.1610  178.2180  140.9630 C   0  0  0  0  0  0  0  0  0  0  0  0
  181.7320  177.9770  139.8330 N   0  0  0  0  0  0  0  0  0  0  0  0
  180.1180  177.2850  141.5550 C   0  0  0  0  0  2  0  0  0  0  0  0
  181.4810  176.8770  138.9260 C   0  0  0  0  0  3  0  0  0  0  0  0
  180.3050  176.2370  138.7490 C   0  0  0  0  0  0  0  0  0  0  0  0
  179.0450  176.6340  139.4110 C   0  0  0  0  0  3  0  0  0  0  0  0
  181.0100  172.9160  136.8540 C   0  0  0  0  0  0  0  0  0  0  0  0
  180.2640  175.1600  137.7290 C   0  0  0  0  0  0  0  0  0  0  0  0
  181.6010  171.8230  137.0190 O   0  0  0  0  0  0  0  0  0  0  0  0
  179.1880  174.0930  135.7910 C   0  0  0  0  0  3  0  0  0  0  0  0
  179.9940  173.0380  135.8090 C   0  0  0  0  0  3  0  0  0  0  0  0
  179.2920  175.1460  136.8050 C   0  0  0  0  0  3  0  0  0  0  0  0
  181.3470  174.0950  137.7270 C   0  0  0  0  0  2  0  0  0  0  0  0
  185.2270  179.1510  142.5670 C   0  0  0  0  0  2  0  0  0  0  0  0
  184.9690  179.3150  140.1280 C   0  0  0  0  0  2  0  0  0  0  0  0
  187.6130  178.1120  139.7240 C   0  0  0  0  0  2  0  0  0  0  0  0
  185.6370  178.5350  141.2340 C   0  0  1  0  0  3  0  0  0  0  0  0
  186.6310  178.2180  138.6160 N   0  0  0  0  0  0  0  0  0  0  0  0
  185.2230  178.6310  138.7940 C   0  0  0  0  0  2  0  0  0  0  0  0
  186.0820  177.0340  136.6770 O   0  0  0  0  0  0  0  0  0  0  0  0
  186.9670  177.6450  137.3480 C   0  0  0  0  0  0  0  0  0  0  0  0
  187.1320  178.6870  141.0510 C   0  0  0  0  0  2  0  0  0  0  0  0
  188.3690  177.6670  136.8290 C   0  0  0  0  0  2  0  0  0  0  0  0
  188.5870  176.6410  135.7270 C   0  0  0  0  0  2  0  0  0  0  0  0
  188.8320  175.2990  136.4180 C   0  0  0  0  0  2  0  0  0  0  0  0
  189.7700  174.1020  134.6020 O   0  0  0  0  0  1  0  0  0  0  0  0
  189.9830  174.4310  135.9480 C   0  0  1  0  0  3  0  0  0  0  0  0
  191.4530  174.8680  136.1540 C   0  0  1  0  0  3  0  0  0  0  0  0
  191.7460  176.1070  135.5770 O   0  0  0  0  0  1  0  0  0  0  0  0
  191.9180  174.7890  137.6170 C   0  0  1  0  0  3  0  0  0  0  0  0
  194.2770  175.1240  137.8070 C   0  0  2  0  0  3  0  0  0  0  0  0
  193.1970  174.1740  137.7740 O   0  0  0  0  0  0  0  0  0  0  0  0
  191.8650  176.1360  138.2630 C   0  0  0  0  0  0  0  0  0  0  0  0
  193.0780  176.9880  138.1000 C   0  0  0  0  0  2  0  0  0  0  0  0
  190.9670  176.4200  139.0300 O   0  0  0  0  0  0  0  0  0  0  0  0
  193.9660  176.3570  137.2090 O   0  0  0  0  0  0  0  0  0  0  0  0
  195.7280  174.3260  137.0600 P   0  0  2  0  0  0  0  0  0  0  0  0
  197.1160  174.9740  137.7720 O   0  0  0  0  0  1  0  0  0  0  0  0
  195.7850  174.6030  135.5680 O   0  0  0  0  0  0  0  0  0  0  0  0
  195.7420  172.6620  137.4470 O   0  0  0  0  0  0  0  0  0  0  0  0
  194.9440  171.0680  135.3420 O   0  0  0  0  0  0  0  0  0  0  0  0
  196.0490  171.8850  135.9770 P   0  0  0  0  0  0  0  0  0  0  0  0
  197.4310  171.8550  135.3430 O   0  0  0  0  0  0  0  0  0  0  0  0
  1 32  1  6  0  0  0
  1  3  1  0  0  0  0
  1 13  1  0  0  0  0
  2  4  1  0  0  0  0
  3  2  2  0  0  0  0
  4  5  2  0  0  0  0
  6  4  1  0  0  0  0
  7  6  1  0  0  0  0
  7 12  1  1  0  0  0
  8  7  1  1  0  0  0
  9  8  1  0  0  0  0
 10  9  1  0  0  0  0
 10  8  1  0  0  0  0
 12 11  1  0  0  0  0
 14 15  2  0  0  0  0
 14 13  1  0  0  0  0
 16 14  1  0  0  0  0
 17 16  1  0  0  0  0
 18 21  1  0  0  0  0
 19 21  1  0  0  0  0
 19 17  1  0  0  0  0
 20 19  2  0  0  0  0
 22 20  1  0  0  0  0
 23 22  2  0  0  0  0
 23 24  1  0  0  0  0
 24 18  2  0  0  0  0
 25 27  2  0  0  0  0
 25 31  1  0  0  0  0
 26 23  1  0  0  0  0
 28 29  2  0  0  0  0
 28 30  1  0  0  0  0
 29 25  1  0  0  0  0
 30 26  2  0  0  0  0
 31 26  1  0  0  0  0
 33 35  1  0  0  0  0
 34 40  1  0  0  0  0
 35 32  1  1  0  0  0
 36 37  1  0  0  0  0
 36 34  1  0  0  0  0
 37 33  1  0  0  0  0
 38 39  2  0  0  0  0
 39 36  1  0  0  0  0
 40 35  1  0  0  0  0
 41 39  1  0  0  0  0
 42 43  1  0  0  0  0
 42 41  1  0  0  0  0
 45 44  1  6  0  0  0
 45 46  1  0  0  0  0
 45 43  1  0  0  0  0
 46 47  1  1  0  0  0
 48 46  1  6  0  0  0
 48 50  1  0  0  0  0
 48 51  1  0  0  0  0
 49 55  1  6  0  0  0
 50 49  1  0  0  0  0
 51 53  2  0  0  0  0
 52 51  1  0  0  0  0
 54 49  1  0  0  0  0
 54 52  1  0  0  0  0
 55 57  2  6  0  0  0
 55 58  1  0  0  0  0
 55 56  1  0  0  0  0
 59 60  2  0  0  0  0
 60 58  1  0  0  0  0
 61 60  2  0  0  0  0
M  END
>  <MODEL>
7

>  <REMARK>
 VINA RESULT:      -5.7      2.309      3.610
  Name = 
  22 active torsions:
  status: ('A' for Active; 'I' for Inactive)
    1  A    between atoms: C_1  and  C_6
    2  A    between atoms: C_1  and  N_32
    3  A    between atoms: C_3  and  C_12
    4  A    between atoms: P_5  and  C_11
    5  A    between atoms: P_5  and  O_36
    6  A    between atoms: C_8  and  C_23
    7  A    between atoms: C_8  and  C_42
    8  A    between atoms: C_10  and  C_47
    9  A    between atoms: C_12  and  C_42
   10  A    between atoms: C_14  and  C_19
   11  A    between atoms: C_16  and  C_45
   12  A    between atoms: C_17  and  C_18
   13  A    between atoms: C_17  and  C_53
   14  A    between atoms: C_18  and  C_55
   15  A    between atoms: C_19  and  C_38
   16  A    between atoms: C_19  and  O_52
   17  A    between atoms: N_22  and  C_33
   18  A    between atoms: C_33  and  O_52
   19  A    between atoms: O_36  and  P_40
   20  A    between atoms: N_37  and  C_42
   21  A    between atoms: C_47  and  C_61
   22  A    between atoms: C_53  and  C_61
                            x       y       z     vdW  Elec       q    Type
                         _______ _______ _______ _____ _____    ______ ____

>  <TORSDO>
F 22

$$$$
=
 OpenBabel10222416063D

 61 65  0  0  1  0  0  0  0  0999 V2000
  192.5530  175.1870  137.8550 C   0  0  1  0  0  3  0  0  0  0  0  0
  194.3870  175.7410  136.4450 N   0  0  0  0  0  0  0  0  0  0  0  0
  193.6980  174.8230  137.0170 N   0  0  0  0  0  0  0  0  0  0  0  0
  195.4650  175.4480  135.5410 C   0  0  0  0  0  0  0  0  0  0  0  0
  196.1470  176.3840  135.0330 O   0  0  0  0  0  0  0  0  0  0  0  0
  195.7650  174.1290  135.1950 O   0  0  0  0  0  0  0  0  0  0  0  0
  196.4020  173.1760  136.0550 C   0  0  2  0  0  3  0  0  0  0  0  0
  197.5590  173.8140  136.8280 C   0  0  2  0  0  3  0  0  0  0  0  0
  198.1110  172.8440  137.6910 O   0  0  0  0  0  0  0  0  0  0  0  0
  197.2990  173.8250  138.2860 C   0  0  0  0  0  2  0  0  0  0  0  0
  195.7260  170.8630  135.3120 C   0  0  0  0  0  1  0  0  0  0  0  0
  196.8530  171.8930  135.3430 C   0  0  0  0  0  2  0  0  0  0  0  0
  192.7040  176.6670  138.2370 C   0  0  0  0  0  2  0  0  0  0  0  0
  193.2210  176.8420  139.6190 C   0  0  0  0  0  0  0  0  0  0  0  0
  194.4490  177.0180  139.8180 O   0  0  0  0  0  0  0  0  0  0  0  0
  192.3090  176.8210  140.7260 N   0  0  0  0  0  2  0  0  0  0  0  0
  192.1980  177.9290  141.6710 C   0  0  0  0  0  2  0  0  0  0  0  0
  188.5410  177.2270  141.9270 C   0  0  0  0  0  3  0  0  0  0  0  0
  190.8950  177.9100  142.4120 C   0  0  0  0  0  0  0  0  0  0  0  0
  190.9410  177.8050  143.6950 N   0  0  0  0  0  0  0  0  0  0  0  0
  189.6100  178.2450  141.6750 C   0  0  0  0  0  2  0  0  0  0  0  0
  189.8470  177.9220  144.6370 C   0  0  0  0  0  3  0  0  0  0  0  0
  188.5570  177.5970  144.4090 C   0  0  0  0  0  0  0  0  0  0  0  0
  188.0730  176.9770  143.1590 C   0  0  0  0  0  3  0  0  0  0  0  0
  187.1240  178.0270  147.9980 C   0  0  0  0  0  0  0  0  0  0  0  0
  187.6060  177.7570  145.5380 C   0  0  0  0  0  0  0  0  0  0  0  0
  187.5150  178.2510  149.1680 O   0  0  0  0  0  0  0  0  0  0  0  0
  185.3500  178.2630  146.3760 C   0  0  0  0  0  3  0  0  0  0  0  0
  185.7190  178.2460  147.6510 C   0  0  0  0  0  3  0  0  0  0  0  0
  186.3240  178.0690  145.2980 C   0  0  0  0  0  3  0  0  0  0  0  0
  188.0950  177.5340  146.9590 C   0  0  0  0  0  2  0  0  0  0  0  0
  191.2480  174.9240  137.0740 C   0  0  0  0  0  2  0  0  0  0  0  0
  189.2900  175.9060  135.9590 C   0  0  0  0  0  2  0  0  0  0  0  0
  188.2660  176.8880  138.5270 C   0  0  0  0  0  2  0  0  0  0  0  0
  190.2030  176.0310  137.1550 C   0  0  1  0  0  3  0  0  0  0  0  0
  187.7360  177.3930  137.2350 N   0  0  0  0  0  0  0  0  0  0  0  0
  188.3340  177.0880  135.9190 C   0  0  0  0  0  2  0  0  0  0  0  0
  186.8130  179.3730  136.4050 O   0  0  0  0  0  0  0  0  0  0  0  0
  186.7590  178.4390  137.2600 C   0  0  0  0  0  0  0  0  0  0  0  0
  189.3530  175.8280  138.3910 C   0  0  0  0  0  2  0  0  0  0  0  0
  185.7210  178.5120  138.3330 C   0  0  0  0  0  2  0  0  0  0  0  0
  184.3110  178.5450  137.7640 C   0  0  0  0  0  2  0  0  0  0  0  0
  183.3610  178.7070  138.9510 C   0  0  0  0  0  2  0  0  0  0  0  0
  182.2320  177.9110  140.8760 O   0  0  0  0  0  1  0  0  0  0  0  0
  183.0920  177.5110  139.8450 C   0  0  1  0  0  3  0  0  0  0  0  0
  182.6130  176.1620  139.2570 C   0  0  1  0  0  3  0  0  0  0  0  0
  181.6310  175.5410  140.0330 O   0  0  0  0  0  1  0  0  0  0  0  0
  182.2090  176.2470  137.7750 C   0  0  1  0  0  3  0  0  0  0  0  0
  182.3310  174.1120  136.7090 C   0  0  2  0  0  3  0  0  0  0  0  0
  182.9680  175.3830  136.9300 O   0  0  0  0  0  0  0  0  0  0  0  0
  180.7380  176.0330  137.6140 C   0  0  0  0  0  0  0  0  0  0  0  0
  180.2940  174.6160  137.4810 C   0  0  0  0  0  2  0  0  0  0  0  0
  179.9950  176.9720  137.4110 O   0  0  0  0  0  0  0  0  0  0  0  0
  181.3960  173.7670  137.6990 O   0  0  0  0  0  0  0  0  0  0  0  0
  183.6440  172.8700  136.5200 P   0  0  2  0  0  0  0  0  0  0  0  0
  182.9500  171.3370  136.6610 O   0  0  0  0  0  0  0  0  0  0  0  0
  184.6890  173.0220  137.6120 O   0  0  0  0  0  1  0  0  0  0  0  0
  184.2910  172.9430  134.9410 O   0  0  0  0  0  0  0  0  0  0  0  0
  185.7260  175.2680  135.3260 O   0  0  0  0  0  0  0  0  0  0  0  0
  185.7570  173.7680  135.1180 P   0  0  0  0  0  0  0  0  0  0  0  0
  187.1040  173.0880  134.9320 O   0  0  0  0  0  0  0  0  0  0  0  0
  1 32  1  6  0  0  0
  1 13  1  0  0  0  0
  2  3  2  0  0  0  0
  3  1  1  0  0  0  0
  4  2  1  0  0  0  0
  5  4  2  0  0  0  0
  6  4  1  0  0  0  0
  6  7  1  0  0  0  0
  7 12  1  6  0  0  0
  8  7  1  6  0  0  0
  8  9  1  0  0  0  0
  8 10  1  0  0  0  0
  9 10  1  0  0  0  0
 11 12  1  0  0  0  0
 13 14  1  0  0  0  0
 14 15  2  0  0  0  0
 14 16  1  0  0  0  0
 16 17  1  0  0  0  0
 17 19  1  0  0  0  0
 18 24  2  0  0  0  0
 19 20  2  0  0  0  0
 20 22  1  0  0  0  0
 21 18  1  0  0  0  0
 21 19  1  0  0  0  0
 23 22  2  0  0  0  0
 23 26  1  0  0  0  0
 24 23  1  0  0  0  0
 25 27  2  0  0  0  0
 26 31  1  0  0  0  0
 28 29  2  0  0  0  0
 29 25  1  0  0  0  0
 30 26  2  0  0  0  0
 30 28  1  0  0  0  0
 31 25  1  0  0  0  0
 33 35  1  0  0  0  0
 35 32  1  6  0  0  0
 35 40  1  0  0  0  0
 36 39  1  0  0  0  0
 36 34  1  0  0  0  0
 37 33  1  0  0  0  0
 37 36  1  0  0  0  0
 38 39  2  0  0  0  0
 39 41  1  0  0  0  0
 40 34  1  0  0  0  0
 42 41  1  0  0  0  0
 42 43  1  0  0  0  0
 43 45  1  0  0  0  0
 45 44  1  1  0  0  0
 46 45  1  0  0  0  0
 46 47  1  1  0  0  0
 48 46  1  1  0  0  0
 49 55  1  1  0  0  0
 49 50  1  0  0  0  0
 49 54  1  0  0  0  0
 50 48  1  0  0  0  0
 51 48  1  0  0  0  0
 52 51  1  0  0  0  0
 52 54  1  0  0  0  0
 53 51  2  0  0  0  0
 55 56  2  1  0  0  0
 55 57  1  0  0  0  0
 58 60  1  0  0  0  0
 58 55  1  0  0  0  0
 60 59  2  0  0  0  0
 61 60  2  0  0  0  0
M  END
>  <MODEL>
8

>  <REMARK>
 VINA RESULT:      -5.6      3.474      9.608
  Name = 
  22 active torsions:
  status: ('A' for Active; 'I' for Inactive)
    1  A    between atoms: C_1  and  C_6
    2  A    between atoms: C_1  and  N_32
    3  A    between atoms: C_3  and  C_12
    4  A    between atoms: P_5  and  C_11
    5  A    between atoms: P_5  and  O_36
    6  A    between atoms: C_8  and  C_23
    7  A    between atoms: C_8  and  C_42
    8  A    between atoms: C_10  and  C_47
    9  A    between atoms: C_12  and  C_42
   10  A    between atoms: C_14  and  C_19
   11  A    between atoms: C_16  and  C_45
   12  A    between atoms: C_17  and  C_18
   13  A    between atoms: C_17  and  C_53
   14  A    between atoms: C_18  and  C_55
   15  A    between atoms: C_19  and  C_38
   16  A    between atoms: C_19  and  O_52
   17  A    between atoms: N_22  and  C_33
   18  A    between atoms: C_33  and  O_52
   19  A    between atoms: O_36  and  P_40
   20  A    between atoms: N_37  and  C_42
   21  A    between atoms: C_47  and  C_61
   22  A    between atoms: C_53  and  C_61
                            x       y       z     vdW  Elec       q    Type
                         _______ _______ _______ _____ _____    ______ ____

>  <TORSDO>
F 22

$$$$
=
 OpenBabel10222416063D

 61 65  0  0  1  0  0  0  0  0999 V2000
  190.7670  177.1060  142.6630 C   0  0  1  0  0  3  0  0  0  0  0  0
  191.4110  175.3820  144.1700 N   0  0  0  0  0  0  0  0  0  0  0  0
  191.7760  176.3300  143.3880 N   0  0  0  0  0  0  0  0  0  0  0  0
  192.3440  174.6430  144.9760 C   0  0  0  0  0  0  0  0  0  0  0  0
  192.6520  173.4550  144.6710 O   0  0  0  0  0  0  0  0  0  0  0  0
  192.9110  175.2170  146.1150 O   0  0  0  0  0  0  0  0  0  0  0  0
  192.1790  175.6590  147.2660 C   0  0  2  0  0  3  0  0  0  0  0  0
  191.4470  176.9740  146.9860 C   0  0  2  0  0  3  0  0  0  0  0  0
  190.8490  177.4170  148.1840 O   0  0  0  0  0  0  0  0  0  0  0  0
  189.9910  176.8480  147.2270 C   0  0  0  0  0  2  0  0  0  0  0  0
  192.5840  174.7090  149.5670 C   0  0  0  0  0  1  0  0  0  0  0  0
  193.0230  175.7560  148.5450 C   0  0  0  0  0  2  0  0  0  0  0  0
  191.3920  177.5620  141.3360 C   0  0  0  0  0  2  0  0  0  0  0  0
  190.5780  177.1570  140.1610 C   0  0  0  0  0  0  0  0  0  0  0  0
  189.4650  177.7000  139.9450 O   0  0  0  0  0  0  0  0  0  0  0  0
  191.0730  176.1520  139.2660 N   0  0  0  0  0  2  0  0  0  0  0  0
  191.2450  176.3900  137.8360 C   0  0  0  0  0  2  0  0  0  0  0  0
  190.2780  174.8160  134.5940 C   0  0  0  0  0  3  0  0  0  0  0  0
  190.4160  175.4610  137.0040 C   0  0  0  0  0  0  0  0  0  0  0  0
  189.9230  174.4210  137.5830 N   0  0  0  0  0  0  0  0  0  0  0  0
  189.9940  175.8810  135.6060 C   0  0  0  0  0  2  0  0  0  0  0  0
  188.9720  173.4700  137.0460 C   0  0  0  0  0  3  0  0  0  0  0  0
  188.8390  173.1160  135.7500 C   0  0  0  0  0  0  0  0  0  0  0  0
  189.7270  173.5950  134.6710 C   0  0  0  0  0  3  0  0  0  0  0  0
  185.4350  171.3870  135.0190 C   0  0  0  0  0  0  0  0  0  0  0  0
  187.8230  172.0830  135.4290 C   0  0  0  0  0  0  0  0  0  0  0  0
  184.2330  171.6790  134.8140 O   0  0  0  0  0  0  0  0  0  0  0  0
  187.2430  169.8430  134.5950 C   0  0  0  0  0  3  0  0  0  0  0  0
  185.9350  170.0700  134.6220 C   0  0  0  0  0  3  0  0  0  0  0  0
  188.2050  170.8880  134.9530 C   0  0  0  0  0  3  0  0  0  0  0  0
  186.3540  172.3850  135.6710 C   0  0  0  0  0  2  0  0  0  0  0  0
  189.5170  176.2300  142.4390 C   0  0  0  0  0  2  0  0  0  0  0  0
  188.6970  177.5850  144.3200 C   0  0  0  0  0  2  0  0  0  0  0  0
  186.1040  177.9350  142.9940 C   0  0  0  0  0  2  0  0  0  0  0  0
  188.2710  176.6590  143.2060 C   0  0  1  0  0  3  0  0  0  0  0  0
  186.2870  178.2400  144.4360 N   0  0  0  0  0  0  0  0  0  0  0  0
  187.5030  177.9050  145.2060 C   0  0  0  0  0  2  0  0  0  0  0  0
  184.9950  178.2080  146.3830 O   0  0  0  0  0  0  0  0  0  0  0  0
  185.1440  178.6380  145.2000 C   0  0  0  0  0  0  0  0  0  0  0  0
  187.3650  177.4510  142.2870 C   0  0  0  0  0  2  0  0  0  0  0  0
  184.0620  179.4800  144.6050 C   0  0  0  0  0  2  0  0  0  0  0  0
  182.9860  178.6380  143.9340 C   0  0  0  0  0  2  0  0  0  0  0  0
  182.2310  179.5670  142.9830 C   0  0  0  0  0  2  0  0  0  0  0  0
  180.0950  179.7310  141.9700 O   0  0  0  0  0  1  0  0  0  0  0  0
  181.2680  178.9630  141.9790 C   0  0  1  0  0  3  0  0  0  0  0  0
  181.7090  178.6640  140.5260 C   0  0  1  0  0  3  0  0  0  0  0  0
  181.5360  179.7500  139.6630 O   0  0  0  0  0  1  0  0  0  0  0  0
  183.1210  178.0650  140.4220 C   0  0  1  0  0  3  0  0  0  0  0  0
  183.4280  176.8910  138.3640 C   0  0  2  0  0  3  0  0  0  0  0  0
  183.1520  176.7950  139.7720 O   0  0  0  0  0  0  0  0  0  0  0  0
  184.0650  179.0370  139.7910 C   0  0  0  0  0  0  0  0  0  0  0  0
  184.1290  179.0140  138.3020 C   0  0  0  0  0  2  0  0  0  0  0  0
  184.8600  179.6570  140.4690 O   0  0  0  0  0  0  0  0  0  0  0  0
  183.1310  178.1490  137.8130 O   0  0  0  0  0  0  0  0  0  0  0  0
  182.5410  175.5360  137.5400 P   0  0  2  0  0  0  0  0  0  0  0  0
  183.6770  174.5290  136.8000 O   0  0  0  0  0  1  0  0  0  0  0  0
  181.6130  176.0760  136.4650 O   0  0  0  0  0  0  0  0  0  0  0  0
  181.7490  174.5670  138.7020 O   0  0  0  0  0  0  0  0  0  0  0  0
  179.4710  176.0570  138.2510 O   0  0  0  0  0  0  0  0  0  0  0  0
  180.1080  174.6850  138.3090 P   0  0  0  0  0  0  0  0  0  0  0  0
  179.2170  173.4630  138.1540 O   0  0  0  0  0  0  0  0  0  0  0  0
  1 13  1  6  0  0  0
  1  3  1  0  0  0  0
  2  4  1  0  0  0  0
  3  2  2  0  0  0  0
  4  6  1  0  0  0  0
  5  4  2  0  0  0  0
  6  7  1  0  0  0  0
  7 12  1  1  0  0  0
  8 10  1  0  0  0  0
  8  7  1  1  0  0  0
  8  9  1  0  0  0  0
 10  9  1  0  0  0  0
 12 11  1  0  0  0  0
 14 13  1  0  0  0  0
 15 14  2  0  0  0  0
 16 14  1  0  0  0  0
 17 16  1  0  0  0  0
 18 24  2  0  0  0  0
 18 21  1  0  0  0  0
 19 20  2  0  0  0  0
 19 17  1  0  0  0  0
 21 19  1  0  0  0  0
 22 20  1  0  0  0  0
 23 22  2  0  0  0  0
 24 23  1  0  0  0  0
 25 31  1  0  0  0  0
 26 31  1  0  0  0  0
 26 23  1  0  0  0  0
 27 25  2  0  0  0  0
 28 29  2  0  0  0  0
 28 30  1  0  0  0  0
 29 25  1  0  0  0  0
 30 26  2  0  0  0  0
 32  1  1  0  0  0  0
 33 37  1  0  0  0  0
 34 36  1  0  0  0  0
 35 32  1  6  0  0  0
 35 33  1  0  0  0  0
 36 39  1  0  0  0  0
 36 37  1  0  0  0  0
 39 38  2  0  0  0  0
 40 34  1  0  0  0  0
 40 35  1  0  0  0  0
 41 39  1  0  0  0  0
 42 41  1  0  0  0  0
 43 42  1  0  0  0  0
 45 44  1  6  0  0  0
 45 43  1  0  0  0  0
 46 47  1  6  0  0  0
 46 45  1  0  0  0  0
 48 46  1  6  0  0  0
 49 55  1  6  0  0  0
 49 50  1  0  0  0  0
 50 48  1  0  0  0  0
 51 48  1  0  0  0  0
 51 53  2  0  0  0  0
 52 51  1  0  0  0  0
 54 52  1  0  0  0  0
 54 49  1  0  0  0  0
 55 57  2  6  0  0  0
 55 58  1  0  0  0  0
 56 55  1  0  0  0  0
 59 60  2  0  0  0  0
 60 58  1  0  0  0  0
 61 60  2  0  0  0  0
M  END
>  <MODEL>
9

>  <REMARK>
 VINA RESULT:      -5.6      3.621      8.031
  Name = 
  22 active torsions:
  status: ('A' for Active; 'I' for Inactive)
    1  A    between atoms: C_1  and  C_6
    2  A    between atoms: C_1  and  N_32
    3  A    between atoms: C_3  and  C_12
    4  A    between atoms: P_5  and  C_11
    5  A    between atoms: P_5  and  O_36
    6  A    between atoms: C_8  and  C_23
    7  A    between atoms: C_8  and  C_42
    8  A    between atoms: C_10  and  C_47
    9  A    between atoms: C_12  and  C_42
   10  A    between atoms: C_14  and  C_19
   11  A    between atoms: C_16  and  C_45
   12  A    between atoms: C_17  and  C_18
   13  A    between atoms: C_17  and  C_53
   14  A    between atoms: C_18  and  C_55
   15  A    between atoms: C_19  and  C_38
   16  A    between atoms: C_19  and  O_52
   17  A    between atoms: N_22  and  C_33
   18  A    between atoms: C_33  and  O_52
   19  A    between atoms: O_36  and  P_40
   20  A    between atoms: N_37  and  C_42
   21  A    between atoms: C_47  and  C_61
   22  A    between atoms: C_53  and  C_61
                            x       y       z     vdW  Elec       q    Type
                         _______ _______ _______ _____ _____    ______ ____

>  <TORSDO>
F 22

$$$$
