=
 OpenBabel10222419273D

 42 46  0  0  1  0  0  0  0  0999 V2000
  189.0550  176.5880  139.8090 N   0  0  0  0  0  2  0  0  0  0  0  0
  190.1480  177.4640  140.1920 C   0  0  2  0  0  3  0  0  0  0  0  0
  188.4510  177.2390  138.6420 C   0  0  2  0  0  3  0  0  0  0  0  0
  189.7320  178.1720  137.6910 S   0  0  0  0  0  0  0  0  0  0  0  0
  190.9770  177.7850  138.9540 C   0  0  2  0  0  3  0  0  0  0  0  0
  191.8480  176.6490  138.4620 C   0  0  0  0  0  0  0  0  0  0  0  0
  191.9580  174.3470  137.6310 C   0  0  2  0  0  3  0  0  0  0  0  0
  193.9860  175.5680  138.2320 N   0  0  0  0  0  0  0  0  0  0  0  0
  193.4590  174.5220  137.6540 C   0  0  0  0  0  0  0  0  0  0  0  0
  194.3040  173.4630  137.0860 C   0  0  0  0  0  3  0  0  0  0  0  0
  192.3370  172.6630  135.8580 C   0  0  0  0  0  3  0  0  0  0  0  0
  191.5160  173.5490  136.4310 C   0  0  0  0  0  3  0  0  0  0  0  0
  191.3230  175.6270  137.6660 O   0  0  0  0  0  0  0  0  0  0  0  0
  193.1610  176.6260  138.7520 C   0  0  0  0  0  3  0  0  0  0  0  0
  193.7550  172.5380  136.2820 C   0  0  0  0  0  0  0  0  0  0  0  0
  194.0350  170.4180  135.2370 O   0  0  0  0  0  0  0  0  0  0  0  0
  196.0070  171.5450  135.7610 N   0  0  0  0  0  1  0  0  0  0  0  0
  194.5780  171.4420  135.7300 C   0  0  0  0  0  0  0  0  0  0  0  0
  190.9230  177.0220  141.4520 C   0  0  2  0  0  3  0  0  0  0  0  0
  188.2000  175.5860  143.2690 O   0  0  0  0  0  0  0  0  0  0  0  0
  190.2990  175.8430  142.2270 C   0  0  0  0  0  2  0  0  0  0  0  0
  189.2000  176.2840  143.1470 C   0  0  0  0  0  0  0  0  0  0  0  0
  189.3990  177.5260  143.9790 C   0  0  1  0  0  3  0  0  0  0  0  0
  191.1830  178.2250  142.3600 C   0  0  0  0  0  2  0  0  0  0  0  0
  189.9140  178.6560  143.0970 C   0  0  0  0  0  2  0  0  0  0  0  0
  188.9330  177.4650  146.7750 O   0  0  0  0  0  0  0  0  0  0  0  0
  187.9670  177.8090  146.0360 C   0  0  0  0  0  0  0  0  0  0  0  0
  188.1590  177.9300  144.6260 N   0  0  0  0  0  2  0  0  0  0  0  0
  186.6200  178.1220  146.6270 C   0  0  0  0  0  2  0  0  0  0  0  0
  185.7950  179.0580  145.7340 C   0  0  0  0  0  2  0  0  0  0  0  0
  185.0320  177.8750  143.7240 N   0  0  0  0  0  1  0  0  0  0  0  0
  184.6560  178.2970  145.0620 C   0  0  2  0  0  3  0  0  0  0  0  0
  183.3610  179.1090  145.0560 C   0  0  0  0  0  2  0  0  0  0  0  0
  182.6710  179.1740  143.7000 C   0  0  0  0  0  2  0  0  0  0  0  0
  181.3880  178.6350  143.7840 O   0  0  0  0  0  1  0  0  0  0  0  0
  184.8670  178.0180  138.3580 C   0  0  0  0  0  3  0  0  0  0  0  0
  186.2410  178.4920  138.0340 C   0  0  0  0  0  2  0  0  0  0  0  0
  187.1590  178.4120  140.3390 C   0  0  0  0  0  3  0  0  0  0  0  0
  184.8080  179.1160  140.5860 C   0  0  0  0  0  3  0  0  0  0  0  0
  186.0730  179.1450  140.9180 N   0  0  0  0  0  0  0  0  0  0  0  0
  184.2260  178.3340  139.4800 C   0  0  0  0  0  3  0  0  0  0  0  0
  187.2530  178.0480  139.0540 C   0  0  0  0  0  0  0  0  0  0  0  0
  2  1  1  6  0  0  0
  2 19  1  0  0  0  0
  3 42  1  1  0  0  0
  3  1  1  0  0  0  0
  4  3  1  0  0  0  0
  4  5  1  0  0  0  0
  5  6  1  6  0  0  0
  5  2  1  0  0  0  0
  6 14  2  0  0  0  0
  7 12  1  6  0  0  0
  7  9  1  0  0  0  0
  7 13  1  0  0  0  0
  8 14  1  0  0  0  0
  9  8  2  0  0  0  0
 10  9  1  0  0  0  0
 11 15  1  0  0  0  0
 11 12  2  0  0  0  0
 13  6  1  0  0  0  0
 15 10  2  0  0  0  0
 16 18  2  0  0  0  0
 18 17  1  0  0  0  0
 18 15  1  0  0  0  0
 19 21  1  1  0  0  0
 19 24  1  0  0  0  0
 21 22  1  0  0  0  0
 22 20  2  0  0  0  0
 22 23  1  0  0  0  0
 23 28  1  6  0  0  0
 24 25  1  0  0  0  0
 25 23  1  0  0  0  0
 27 29  1  0  0  0  0
 27 26  2  0  0  0  0
 28 27  1  0  0  0  0
 30 29  1  0  0  0  0
 32 31  1  6  0  0  0
 32 30  1  0  0  0  0
 33 32  1  0  0  0  0
 34 35  1  0  0  0  0
 34 33  1  0  0  0  0
 36 41  2  0  0  0  0
 37 36  1  0  0  0  0
 37 42  1  0  0  0  0
 38 40  1  0  0  0  0
 39 40  2  0  0  0  0
 41 39  1  0  0  0  0
 42 38  2  0  0  0  0
M  END
>  <MODEL>
1

>  <REMARK>
 VINA RESULT:      -7.4      0.000      0.000
  Name = 
  10 active torsions:
  status: ('A' for Active; 'I' for Inactive)
    1  A    between atoms: C_1  and  C_24
    2  A    between atoms: C_6  and  C_11
    3  A    between atoms: C_9  and  C_21
    4  A    between atoms: C_13  and  C_28
    5  A    between atoms: C_18  and  C_38
    6  A    between atoms: C_20  and  N_34
    7  A    between atoms: C_21  and  C_35
    8  A    between atoms: C_27  and  C_42
    9  A    between atoms: C_28  and  C_33
   10  A    between atoms: C_33  and  C_35
                            x       y       z     vdW  Elec       q    Type
                         _______ _______ _______ _____ _____    ______ ____

>  <TORSDO>
F 10

$$$$
=
 OpenBabel10222419273D

 42 46  0  0  1  0  0  0  0  0999 V2000
  189.0290  175.1430  137.5940 N   0  0  0  0  0  2  0  0  0  0  0  0
  189.2530  176.2860  136.7270 C   0  0  2  0  0  3  0  0  0  0  0  0
  188.2720  174.1960  136.7700 C   0  0  2  0  0  3  0  0  0  0  0  0
  188.7390  174.3760  134.9910 S   0  0  0  0  0  0  0  0  0  0  0  0
  189.8020  175.7910  135.3940 C   0  0  2  0  0  3  0  0  0  0  0  0
  191.2440  175.3350  135.4330 C   0  0  0  0  0  0  0  0  0  0  0  0
  193.5620  175.7670  134.7690 C   0  0  2  0  0  3  0  0  0  0  0  0
  192.9200  173.6450  135.7920 N   0  0  0  0  0  0  0  0  0  0  0  0
  193.8860  174.4420  135.4190 C   0  0  0  0  0  0  0  0  0  0  0  0
  195.2920  174.0420  135.5480 C   0  0  0  0  0  3  0  0  0  0  0  0
  195.9070  176.3970  135.2450 C   0  0  0  0  0  3  0  0  0  0  0  0
  194.6470  176.7830  135.0220 C   0  0  0  0  0  3  0  0  0  0  0  0
  192.2940  176.2350  135.2340 O   0  0  0  0  0  0  0  0  0  0  0  0
  191.5430  174.0520  135.7040 C   0  0  0  0  0  3  0  0  0  0  0  0
  196.2590  174.9620  135.4000 C   0  0  0  0  0  0  0  0  0  0  0  0
  198.5600  175.4250  135.7960 O   0  0  0  0  0  0  0  0  0  0  0  0
  198.0660  173.2210  135.2180 N   0  0  0  0  0  1  0  0  0  0  0  0
  197.6820  174.5750  135.4890 C   0  0  0  0  0  0  0  0  0  0  0  0
  189.9950  177.4670  137.3890 C   0  0  2  0  0  3  0  0  0  0  0  0
  190.5170  176.0210  140.6160 O   0  0  0  0  0  0  0  0  0  0  0  0
  190.9320  177.0850  138.5540 C   0  0  0  0  0  2  0  0  0  0  0  0
  190.1940  176.9190  139.8480 C   0  0  0  0  0  0  0  0  0  0  0  0
  189.1360  177.9290  140.2190 C   0  0  1  0  0  3  0  0  0  0  0  0
  188.9990  178.5540  137.7940 C   0  0  0  0  0  2  0  0  0  0  0  0
  188.2030  178.1510  139.0360 C   0  0  0  0  0  2  0  0  0  0  0  0
  189.7520  178.5660  142.9130 O   0  0  0  0  0  0  0  0  0  0  0  0
  188.7760  177.7870  142.7120 C   0  0  0  0  0  0  0  0  0  0  0  0
  188.3700  177.4860  141.3760 N   0  0  0  0  0  2  0  0  0  0  0  0
  188.0160  177.1950  143.8660 C   0  0  0  0  0  2  0  0  0  0  0  0
  188.8080  177.2560  145.1790 C   0  0  0  0  0  2  0  0  0  0  0  0
  188.1980  177.0320  147.5450 N   0  0  0  0  0  1  0  0  0  0  0  0
  187.9250  177.7580  146.3180 C   0  0  2  0  0  3  0  0  0  0  0  0
  186.4440  177.7060  145.9480 C   0  0  0  0  0  2  0  0  0  0  0  0
  185.6900  179.0050  146.2020 C   0  0  0  0  0  2  0  0  0  0  0  0
  184.3560  178.7390  146.5080 O   0  0  0  0  0  1  0  0  0  0  0  0
  184.9770  175.6500  136.0230 C   0  0  0  0  0  3  0  0  0  0  0  0
  186.1120  175.6470  136.9880 C   0  0  0  0  0  2  0  0  0  0  0  0
  186.1500  173.2050  137.4310 C   0  0  0  0  0  3  0  0  0  0  0  0
  183.7700  173.7900  137.1460 C   0  0  0  0  0  3  0  0  0  0  0  0
  184.7450  173.1180  137.7010 N   0  0  0  0  0  0  0  0  0  0  0  0
  183.9230  174.8450  136.1260 C   0  0  0  0  0  3  0  0  0  0  0  0
  186.8010  174.3120  137.0540 C   0  0  0  0  0  0  0  0  0  0  0  0
  2 19  1  0  0  0  0
  2  1  1  1  0  0  0
  3 42  1  6  0  0  0
  3  1  1  0  0  0  0
  4  5  1  0  0  0  0
  4  3  1  0  0  0  0
  5  6  1  1  0  0  0
  5  2  1  0  0  0  0
  6 14  2  0  0  0  0
  7 12  1  1  0  0  0
  7 13  1  0  0  0  0
  7  9  1  0  0  0  0
  9 10  1  0  0  0  0
  9  8  2  0  0  0  0
 11 15  1  0  0  0  0
 12 11  2  0  0  0  0
 13  6  1  0  0  0  0
 14  8  1  0  0  0  0
 15 18  1  0  0  0  0
 15 10  2  0  0  0  0
 17 18  1  0  0  0  0
 18 16  2  0  0  0  0
 19 24  1  1  0  0  0
 19 21  1  0  0  0  0
 21 22  1  0  0  0  0
 22 23  1  0  0  0  0
 22 20  2  0  0  0  0
 23 28  1  1  0  0  0
 24 25  1  0  0  0  0
 25 23  1  0  0  0  0
 27 26  2  0  0  0  0
 27 29  1  0  0  0  0
 28 27  1  0  0  0  0
 29 30  1  0  0  0  0
 30 32  1  0  0  0  0
 32 31  1  1  0  0  0
 33 34  1  0  0  0  0
 33 32  1  0  0  0  0
 34 35  1  0  0  0  0
 36 41  2  0  0  0  0
 36 37  1  0  0  0  0
 37 42  1  0  0  0  0
 38 40  1  0  0  0  0
 39 40  2  0  0  0  0
 41 39  1  0  0  0  0
 42 38  2  0  0  0  0
M  END
>  <MODEL>
2

>  <REMARK>
 VINA RESULT:      -7.4      3.070      4.167
  Name = 
  10 active torsions:
  status: ('A' for Active; 'I' for Inactive)
    1  A    between atoms: C_1  and  C_24
    2  A    between atoms: C_6  and  C_11
    3  A    between atoms: C_9  and  C_21
    4  A    between atoms: C_13  and  C_28
    5  A    between atoms: C_18  and  C_38
    6  A    between atoms: C_20  and  N_34
    7  A    between atoms: C_21  and  C_35
    8  A    between atoms: C_27  and  C_42
    9  A    between atoms: C_28  and  C_33
   10  A    between atoms: C_33  and  C_35
                            x       y       z     vdW  Elec       q    Type
                         _______ _______ _______ _____ _____    ______ ____

>  <TORSDO>
F 10

$$$$
=
 OpenBabel10222419273D

 42 46  0  0  1  0  0  0  0  0999 V2000
  189.7640  175.0820  138.0710 N   0  0  0  0  0  2  0  0  0  0  0  0
  190.0440  176.3030  137.3370 C   0  0  2  0  0  3  0  0  0  0  0  0
  189.2080  174.1670  137.0700 C   0  0  2  0  0  3  0  0  0  0  0  0
  189.9330  174.5170  135.4060 S   0  0  0  0  0  0  0  0  0  0  0  0
  190.8250  175.9490  136.0760 C   0  0  2  0  0  3  0  0  0  0  0  0
  192.2700  175.5690  136.3120 C   0  0  0  0  0  0  0  0  0  0  0  0
  193.8500  173.9410  137.2350 C   0  0  2  0  0  3  0  0  0  0  0  0
  194.6090  176.1230  136.4460 N   0  0  0  0  0  0  0  0  0  0  0  0
  194.9310  174.9190  136.8370 C   0  0  0  0  0  0  0  0  0  0  0  0
  196.3360  174.5150  136.9710 C   0  0  0  0  0  3  0  0  0  0  0  0
  195.5780  172.1830  137.0180 C   0  0  0  0  0  3  0  0  0  0  0  0
  194.2830  172.5170  136.9980 C   0  0  0  0  0  3  0  0  0  0  0  0
  192.6440  174.2400  136.5290 O   0  0  0  0  0  0  0  0  0  0  0  0
  193.2330  176.5080  136.2740 C   0  0  0  0  0  3  0  0  0  0  0  0
  196.6390  173.2160  137.1240 C   0  0  0  0  0  0  0  0  0  0  0  0
  198.3640  171.5770  137.1930 O   0  0  0  0  0  0  0  0  0  0  0  0
  199.0480  173.7680  137.5960 N   0  0  0  0  0  1  0  0  0  0  0  0
  198.0440  172.7900  137.2980 C   0  0  0  0  0  0  0  0  0  0  0  0
  190.5950  177.4640  138.1930 C   0  0  2  0  0  3  0  0  0  0  0  0
  190.2970  175.9340  141.4100 O   0  0  0  0  0  0  0  0  0  0  0  0
  191.2120  177.0480  139.5450 C   0  0  0  0  0  2  0  0  0  0  0  0
  190.1740  176.8530  140.6080 C   0  0  0  0  0  0  0  0  0  0  0  0
  189.0550  177.8580  140.7300 C   0  0  1  0  0  3  0  0  0  0  0  0
  189.5270  178.5450  138.3640 C   0  0  0  0  0  2  0  0  0  0  0  0
  188.4460  178.1140  139.3570 C   0  0  0  0  0  2  0  0  0  0  0  0
  189.0650  178.2830  143.5330 O   0  0  0  0  0  0  0  0  0  0  0  0
  188.1270  177.5800  143.0590 C   0  0  0  0  0  0  0  0  0  0  0  0
  188.0250  177.3900  141.6460 N   0  0  0  0  0  2  0  0  0  0  0  0
  187.0970  176.9620  143.9630 C   0  0  0  0  0  2  0  0  0  0  0  0
  187.0210  177.6630  145.3250 C   0  0  0  0  0  2  0  0  0  0  0  0
  185.2400  178.7600  146.6090 N   0  0  0  0  0  1  0  0  0  0  0  0
  185.9190  178.7200  145.3270 C   0  0  2  0  0  3  0  0  0  0  0  0
  184.9380  178.5130  144.1730 C   0  0  0  0  0  2  0  0  0  0  0  0
  183.7160  179.4210  144.2220 C   0  0  0  0  0  2  0  0  0  0  0  0
  182.5630  178.6690  144.4410 O   0  0  0  0  0  1  0  0  0  0  0  0
  185.9820  175.5360  135.9520 C   0  0  0  0  0  3  0  0  0  0  0  0
  186.9510  175.4800  137.0820 C   0  0  0  0  0  2  0  0  0  0  0  0
  187.0780  173.0090  137.2740 C   0  0  0  0  0  3  0  0  0  0  0  0
  184.7390  173.5080  136.6690 C   0  0  0  0  0  3  0  0  0  0  0  0
  185.6570  172.8260  137.3030 N   0  0  0  0  0  0  0  0  0  0  0  0
  184.9790  174.6750  135.8010 C   0  0  0  0  0  3  0  0  0  0  0  0
  187.7060  174.1810  137.1230 C   0  0  0  0  0  0  0  0  0  0  0  0
  2  1  1  1  0  0  0
  2 19  1  0  0  0  0
  3 42  1  6  0  0  0
  3  1  1  0  0  0  0
  4  5  1  0  0  0  0
  4  3  1  0  0  0  0
  5  6  1  1  0  0  0
  5  2  1  0  0  0  0
  6 13  1  0  0  0  0
  7 12  1  6  0  0  0
  8  9  2  0  0  0  0
  9 10  1  0  0  0  0
  9  7  1  0  0  0  0
 10 15  2  0  0  0  0
 11 15  1  0  0  0  0
 12 11  2  0  0  0  0
 13  7  1  0  0  0  0
 14  6  2  0  0  0  0
 14  8  1  0  0  0  0
 15 18  1  0  0  0  0
 16 18  2  0  0  0  0
 18 17  1  0  0  0  0
 19 24  1  1  0  0  0
 19 21  1  0  0  0  0
 21 22  1  0  0  0  0
 22 23  1  0  0  0  0
 22 20  2  0  0  0  0
 23 28  1  1  0  0  0
 24 25  1  0  0  0  0
 25 23  1  0  0  0  0
 27 26  2  0  0  0  0
 27 29  1  0  0  0  0
 28 27  1  0  0  0  0
 29 30  1  0  0  0  0
 30 32  1  0  0  0  0
 32 31  1  1  0  0  0
 33 34  1  0  0  0  0
 33 32  1  0  0  0  0
 34 35  1  0  0  0  0
 36 37  1  0  0  0  0
 37 42  1  0  0  0  0
 38 40  1  0  0  0  0
 39 40  2  0  0  0  0
 41 36  2  0  0  0  0
 41 39  1  0  0  0  0
 42 38  2  0  0  0  0
M  END
>  <MODEL>
3

>  <REMARK>
 VINA RESULT:      -7.0      2.725      3.552
  Name = 
  10 active torsions:
  status: ('A' for Active; 'I' for Inactive)
    1  A    between atoms: C_1  and  C_24
    2  A    between atoms: C_6  and  C_11
    3  A    between atoms: C_9  and  C_21
    4  A    between atoms: C_13  and  C_28
    5  A    between atoms: C_18  and  C_38
    6  A    between atoms: C_20  and  N_34
    7  A    between atoms: C_21  and  C_35
    8  A    between atoms: C_27  and  C_42
    9  A    between atoms: C_28  and  C_33
   10  A    between atoms: C_33  and  C_35
                            x       y       z     vdW  Elec       q    Type
                         _______ _______ _______ _____ _____    ______ ____

>  <TORSDO>
F 10

$$$$
=
 OpenBabel10222419273D

 42 46  0  0  1  0  0  0  0  0999 V2000
  189.1370  175.0100  137.5880 N   0  0  0  0  0  2  0  0  0  0  0  0
  189.3420  176.1120  136.6650 C   0  0  2  0  0  3  0  0  0  0  0  0
  188.4610  173.9810  136.7920 C   0  0  2  0  0  3  0  0  0  0  0  0
  188.9920  174.0830  135.0250 S   0  0  0  0  0  0  0  0  0  0  0  0
  189.9680  175.5700  135.3860 C   0  0  2  0  0  3  0  0  0  0  0  0
  191.4280  175.1900  135.5070 C   0  0  0  0  0  0  0  0  0  0  0  0
  193.7460  175.6820  134.8860 C   0  0  2  0  0  3  0  0  0  0  0  0
  193.1670  173.6170  136.0540 N   0  0  0  0  0  0  0  0  0  0  0  0
  194.1070  174.4290  135.6500 C   0  0  0  0  0  0  0  0  0  0  0  0
  195.5250  174.1100  135.8560 C   0  0  0  0  0  3  0  0  0  0  0  0
  196.0410  176.4610  135.3870 C   0  0  0  0  0  3  0  0  0  0  0  0
  194.7720  176.7660  135.0930 C   0  0  0  0  0  3  0  0  0  0  0  0
  192.4420  176.1220  135.2710 O   0  0  0  0  0  0  0  0  0  0  0  0
  191.7760  173.9480  135.8890 C   0  0  0  0  0  3  0  0  0  0  0  0
  196.4520  175.0620  135.6660 C   0  0  0  0  0  0  0  0  0  0  0  0
  198.7640  175.4350  135.2360 O   0  0  0  0  0  0  0  0  0  0  0  0
  198.2860  173.6640  136.6740 N   0  0  0  0  0  1  0  0  0  0  0  0
  197.8880  174.7540  135.8320 C   0  0  0  0  0  0  0  0  0  0  0  0
  189.9980  177.3640  137.2850 C   0  0  2  0  0  3  0  0  0  0  0  0
  190.5260  176.1040  140.5880 O   0  0  0  0  0  0  0  0  0  0  0  0
  190.9270  177.0920  138.4860 C   0  0  0  0  0  2  0  0  0  0  0  0
  190.1690  176.9440  139.7710 C   0  0  0  0  0  0  0  0  0  0  0  0
  189.0460  177.9060  140.0710 C   0  0  1  0  0  3  0  0  0  0  0  0
  188.9320  178.4090  137.6160 C   0  0  0  0  0  2  0  0  0  0  0  0
  188.1300  178.0170  138.8600 C   0  0  0  0  0  2  0  0  0  0  0  0
  186.9050  179.3580  141.2330 O   0  0  0  0  0  0  0  0  0  0  0  0
  187.2570  178.2880  141.8080 C   0  0  0  0  0  0  0  0  0  0  0  0
  188.2800  177.4740  141.2310 N   0  0  0  0  0  2  0  0  0  0  0  0
  186.5900  177.8440  143.0800 C   0  0  0  0  0  2  0  0  0  0  0  0
  187.4750  176.8980  143.9030 C   0  0  0  0  0  2  0  0  0  0  0  0
  189.6850  177.1840  144.9310 N   0  0  0  0  0  1  0  0  0  0  0  0
  188.3220  177.6840  144.9000 C   0  0  2  0  0  3  0  0  0  0  0  0
  187.6910  177.6910  146.2920 C   0  0  0  0  0  2  0  0  0  0  0  0
  188.6070  177.1770  147.3960 C   0  0  0  0  0  2  0  0  0  0  0  0
  188.0070  177.3520  148.6420 O   0  0  0  0  0  1  0  0  0  0  0  0
  185.1340  175.2290  135.8390 C   0  0  0  0  0  3  0  0  0  0  0  0
  186.2270  175.3330  136.8450 C   0  0  0  0  0  2  0  0  0  0  0  0
  186.3620  172.9230  137.4230 C   0  0  0  0  0  3  0  0  0  0  0  0
  183.9710  173.3740  137.0130 C   0  0  0  0  0  3  0  0  0  0  0  0
  184.9530  172.7810  137.6420 N   0  0  0  0  0  0  0  0  0  0  0  0
  184.1160  174.3800  135.9440 C   0  0  0  0  0  3  0  0  0  0  0  0
  186.9750  174.0390  137.0120 C   0  0  0  0  0  0  0  0  0  0  0  0
  2 19  1  0  0  0  0
  2  1  1  1  0  0  0
  3 42  1  6  0  0  0
  3  1  1  0  0  0  0
  4  5  1  0  0  0  0
  4  3  1  0  0  0  0
  5  6  1  1  0  0  0
  5  2  1  0  0  0  0
  6 14  2  0  0  0  0
  7 12  1  1  0  0  0
  7 13  1  0  0  0  0
  7  9  1  0  0  0  0
  9 10  1  0  0  0  0
  9  8  2  0  0  0  0
 11 15  1  0  0  0  0
 12 11  2  0  0  0  0
 13  6  1  0  0  0  0
 14  8  1  0  0  0  0
 15 18  1  0  0  0  0
 15 10  2  0  0  0  0
 16 18  2  0  0  0  0
 18 17  1  0  0  0  0
 19 24  1  1  0  0  0
 19 21  1  0  0  0  0
 21 22  1  0  0  0  0
 22 23  1  0  0  0  0
 22 20  2  0  0  0  0
 23 28  1  1  0  0  0
 24 25  1  0  0  0  0
 25 23  1  0  0  0  0
 26 27  2  0  0  0  0
 27 29  1  0  0  0  0
 28 27  1  0  0  0  0
 29 30  1  0  0  0  0
 30 32  1  0  0  0  0
 32 31  1  1  0  0  0
 32 33  1  0  0  0  0
 33 34  1  0  0  0  0
 34 35  1  0  0  0  0
 36 41  2  0  0  0  0
 36 37  1  0  0  0  0
 37 42  1  0  0  0  0
 38 40  1  0  0  0  0
 39 40  2  0  0  0  0
 41 39  1  0  0  0  0
 42 38  2  0  0  0  0
M  END
>  <MODEL>
4

>  <REMARK>
 VINA RESULT:      -6.9      3.147      4.630
  Name = 
  10 active torsions:
  status: ('A' for Active; 'I' for Inactive)
    1  A    between atoms: C_1  and  C_24
    2  A    between atoms: C_6  and  C_11
    3  A    between atoms: C_9  and  C_21
    4  A    between atoms: C_13  and  C_28
    5  A    between atoms: C_18  and  C_38
    6  A    between atoms: C_20  and  N_34
    7  A    between atoms: C_21  and  C_35
    8  A    between atoms: C_27  and  C_42
    9  A    between atoms: C_28  and  C_33
   10  A    between atoms: C_33  and  C_35
                            x       y       z     vdW  Elec       q    Type
                         _______ _______ _______ _____ _____    ______ ____

>  <TORSDO>
F 10

$$$$
=
 OpenBabel10222419273D

 42 46  0  0  1  0  0  0  0  0999 V2000
  182.0620  179.9270  138.2700 N   0  0  0  0  0  2  0  0  0  0  0  0
  181.0200  178.9760  138.6130 C   0  0  2  0  0  3  0  0  0  0  0  0
  181.4000  181.2350  138.3180 C   0  0  2  0  0  3  0  0  0  0  0  0
  180.0470  181.2240  139.5760 S   0  0  0  0  0  0  0  0  0  0  0  0
  180.3160  179.4550  139.8780 C   0  0  2  0  0  3  0  0  0  0  0  0
  181.1150  179.2830  141.1510 C   0  0  0  0  0  0  0  0  0  0  0  0
  183.1990  178.5250  142.1910 C   0  0  2  0  0  3  0  0  0  0  0  0
  181.2740  179.1640  143.5500 N   0  0  0  0  0  0  0  0  0  0  0  0
  182.5470  178.8740  143.5090 C   0  0  0  0  0  0  0  0  0  0  0  0
  183.3490  178.8040  144.7370 C   0  0  0  0  0  3  0  0  0  0  0  0
  185.3590  178.9180  143.3350 C   0  0  0  0  0  3  0  0  0  0  0  0
  184.6640  178.8810  142.1920 C   0  0  0  0  0  3  0  0  0  0  0  0
  182.5080  179.1770  141.1240 O   0  0  0  0  0  0  0  0  0  0  0  0
  180.4950  179.2720  142.3450 C   0  0  0  0  0  3  0  0  0  0  0  0
  184.6880  178.7590  144.6500 C   0  0  0  0  0  0  0  0  0  0  0  0
  186.7700  178.5890  145.7920 O   0  0  0  0  0  0  0  0  0  0  0  0
  184.8790  178.6110  147.1550 N   0  0  0  0  0  1  0  0  0  0  0  0
  185.5150  178.6510  145.8710 C   0  0  0  0  0  0  0  0  0  0  0  0
  181.4560  177.4960  138.5790 C   0  0  2  0  0  3  0  0  0  0  0  0
  184.9940  177.9830  138.7090 O   0  0  0  0  0  0  0  0  0  0  0  0
  182.8300  177.2000  139.2150 C   0  0  0  0  0  2  0  0  0  0  0  0
  183.9640  177.4800  138.2760 C   0  0  0  0  0  0  0  0  0  0  0  0
  183.8480  177.0380  136.8380 C   0  0  1  0  0  3  0  0  0  0  0  0
  181.3610  176.9520  137.1520 C   0  0  0  0  0  2  0  0  0  0  0  0
  182.5010  177.4740  136.2760 C   0  0  0  0  0  2  0  0  0  0  0  0
  186.0830  175.5750  135.8860 O   0  0  0  0  0  0  0  0  0  0  0  0
  186.0570  176.8150  135.6400 C   0  0  0  0  0  0  0  0  0  0  0  0
  184.9240  177.5940  136.0290 N   0  0  0  0  0  2  0  0  0  0  0  0
  187.1940  177.4790  134.9150 C   0  0  0  0  0  2  0  0  0  0  0  0
  188.4800  177.5090  135.7520 C   0  0  0  0  0  2  0  0  0  0  0  0
  188.8090  179.4060  137.2730 N   0  0  0  0  0  1  0  0  0  0  0  0
  188.2100  178.0900  137.1360 C   0  0  2  0  0  3  0  0  0  0  0  0
  188.6660  177.1430  138.2450 C   0  0  0  0  0  2  0  0  0  0  0  0
  189.3930  177.8300  139.3940 C   0  0  0  0  0  2  0  0  0  0  0  0
  190.1280  176.8980  140.1260 O   0  0  0  0  0  1  0  0  0  0  0  0
  179.4790  180.6500  135.2360 C   0  0  0  0  0  3  0  0  0  0  0  0
  180.8430  180.6510  135.8340 C   0  0  0  0  0  2  0  0  0  0  0  0
  180.8040  182.9700  136.7190 C   0  0  0  0  0  3  0  0  0  0  0  0
  179.5530  183.0500  134.5950 C   0  0  0  0  0  3  0  0  0  0  0  0
  180.3670  183.5530  135.4850 N   0  0  0  0  0  0  0  0  0  0  0  0
  178.9320  181.7140  134.6540 C   0  0  0  0  0  3  0  0  0  0  0  0
  180.9810  181.6620  136.9390 C   0  0  0  0  0  0  0  0  0  0  0  0
  1  3  1  0  0  0  0
  2  1  1  1  0  0  0
  2  5  1  0  0  0  0
  3 42  1  6  0  0  0
  3  4  1  0  0  0  0
  4  5  1  0  0  0  0
  5  6  1  1  0  0  0
  6 14  2  0  0  0  0
  7 12  1  1  0  0  0
  7  9  1  0  0  0  0
  9  8  2  0  0  0  0
  9 10  1  0  0  0  0
 11 15  1  0  0  0  0
 12 11  2  0  0  0  0
 13  6  1  0  0  0  0
 13  7  1  0  0  0  0
 14  8  1  0  0  0  0
 15 10  2  0  0  0  0
 15 18  1  0  0  0  0
 16 18  2  0  0  0  0
 18 17  1  0  0  0  0
 19 24  1  6  0  0  0
 19  2  1  0  0  0  0
 19 21  1  0  0  0  0
 22 20  2  0  0  0  0
 22 21  1  0  0  0  0
 23 28  1  6  0  0  0
 23 22  1  0  0  0  0
 25 23  1  0  0  0  0
 25 24  1  0  0  0  0
 27 26  2  0  0  0  0
 27 28  1  0  0  0  0
 29 27  1  0  0  0  0
 29 30  1  0  0  0  0
 30 32  1  0  0  0  0
 32 31  1  6  0  0  0
 32 33  1  0  0  0  0
 33 34  1  0  0  0  0
 34 35  1  0  0  0  0
 36 37  1  0  0  0  0
 37 42  1  0  0  0  0
 38 42  2  0  0  0  0
 39 41  1  0  0  0  0
 39 40  2  0  0  0  0
 40 38  1  0  0  0  0
 41 36  2  0  0  0  0
M  END
>  <MODEL>
5

>  <REMARK>
 VINA RESULT:      -6.8      4.566     10.592
  Name = 
  10 active torsions:
  status: ('A' for Active; 'I' for Inactive)
    1  A    between atoms: C_1  and  C_24
    2  A    between atoms: C_6  and  C_11
    3  A    between atoms: C_9  and  C_21
    4  A    between atoms: C_13  and  C_28
    5  A    between atoms: C_18  and  C_38
    6  A    between atoms: C_20  and  N_34
    7  A    between atoms: C_21  and  C_35
    8  A    between atoms: C_27  and  C_42
    9  A    between atoms: C_28  and  C_33
   10  A    between atoms: C_33  and  C_35
                            x       y       z     vdW  Elec       q    Type
                         _______ _______ _______ _____ _____    ______ ____

>  <TORSDO>
F 10

$$$$
=
 OpenBabel10222419273D

 42 46  0  0  1  0  0  0  0  0999 V2000
  189.2310  175.2700  137.5560 N   0  0  0  0  0  2  0  0  0  0  0  0
  189.3260  176.4370  136.6970 C   0  0  2  0  0  3  0  0  0  0  0  0
  188.7010  174.2130  136.6880 C   0  0  2  0  0  3  0  0  0  0  0  0
  189.2600  174.4730  134.9450 S   0  0  0  0  0  0  0  0  0  0  0  0
  190.0440  176.0420  135.4110 C   0  0  2  0  0  3  0  0  0  0  0  0
  191.5350  175.8300  135.5580 C   0  0  0  0  0  0  0  0  0  0  0  0
  193.4170  175.3960  137.0640 C   0  0  2  0  0  3  0  0  0  0  0  0
  193.7870  175.9900  134.7240 N   0  0  0  0  0  0  0  0  0  0  0  0
  194.2930  175.5390  135.8410 C   0  0  0  0  0  0  0  0  0  0  0  0
  195.7250  175.2360  135.9570 C   0  0  0  0  0  3  0  0  0  0  0  0
  195.2110  173.9640  137.9900 C   0  0  0  0  0  3  0  0  0  0  0  0
  193.9170  174.3030  137.9730 C   0  0  0  0  0  3  0  0  0  0  0  0
  192.0660  175.1600  136.6640 O   0  0  0  0  0  0  0  0  0  0  0  0
  192.3770  176.2480  134.5970 C   0  0  0  0  0  3  0  0  0  0  0  0
  196.1710  174.5420  137.0160 C   0  0  0  0  0  0  0  0  0  0  0  0
  198.1890  173.4270  136.4200 O   0  0  0  0  0  0  0  0  0  0  0  0
  198.3610  174.9300  138.1940 N   0  0  0  0  0  1  0  0  0  0  0  0
  197.6130  174.2580  137.1720 C   0  0  0  0  0  0  0  0  0  0  0  0
  189.8140  177.7220  137.3990 C   0  0  2  0  0  3  0  0  0  0  0  0
  190.8430  176.2700  140.5000 O   0  0  0  0  0  0  0  0  0  0  0  0
  190.8800  177.5070  138.4940 C   0  0  0  0  0  2  0  0  0  0  0  0
  190.2770  177.1070  139.8060 C   0  0  0  0  0  0  0  0  0  0  0  0
  189.0390  177.8210  140.2900 C   0  0  1  0  0  3  0  0  0  0  0  0
  188.6210  178.5240  137.9180 C   0  0  0  0  0  2  0  0  0  0  0  0
  188.0120  177.8820  139.1670 C   0  0  0  0  0  2  0  0  0  0  0  0
  187.2650  179.0270  142.1440 O   0  0  0  0  0  0  0  0  0  0  0  0
  187.6310  177.8410  142.3820 C   0  0  0  0  0  0  0  0  0  0  0  0
  188.4650  177.1520  141.4480 N   0  0  0  0  0  2  0  0  0  0  0  0
  187.1730  177.1310  143.6260 C   0  0  0  0  0  2  0  0  0  0  0  0
  187.5610  177.8850  144.9040 C   0  0  0  0  0  2  0  0  0  0  0  0
  188.3570  176.9770  147.0410 N   0  0  0  0  0  1  0  0  0  0  0  0
  188.6860  177.1590  145.6380 C   0  0  2  0  0  3  0  0  0  0  0  0
  190.0260  177.8690  145.4590 C   0  0  0  0  0  2  0  0  0  0  0  0
  190.7900  177.4550  144.2080 C   0  0  0  0  0  2  0  0  0  0  0  0
  190.6040  176.0970  143.9550 O   0  0  0  0  0  1  0  0  0  0  0  0
  185.2740  175.0880  135.6760 C   0  0  0  0  0  3  0  0  0  0  0  0
  186.3200  175.2860  136.7180 C   0  0  0  0  0  2  0  0  0  0  0  0
  186.7300  172.8900  137.2200 C   0  0  0  0  0  3  0  0  0  0  0  0
  184.3140  173.0650  136.7540 C   0  0  0  0  0  3  0  0  0  0  0  0
  185.3430  172.5720  137.3920 N   0  0  0  0  0  0  0  0  0  0  0  0
  184.3640  174.1190  135.7230 C   0  0  0  0  0  3  0  0  0  0  0  0
  187.2140  174.0850  136.8640 C   0  0  0  0  0  0  0  0  0  0  0  0
  2 19  1  0  0  0  0
  2  1  1  1  0  0  0
  3 42  1  6  0  0  0
  3  1  1  0  0  0  0
  4  5  1  0  0  0  0
  4  3  1  0  0  0  0
  5  6  1  1  0  0  0
  5  2  1  0  0  0  0
  6 13  1  0  0  0  0
  7 12  1  1  0  0  0
  8  9  2  0  0  0  0
  9 10  1  0  0  0  0
  9  7  1  0  0  0  0
 10 15  2  0  0  0  0
 12 11  2  0  0  0  0
 13  7  1  0  0  0  0
 14  8  1  0  0  0  0
 14  6  2  0  0  0  0
 15 18  1  0  0  0  0
 15 11  1  0  0  0  0
 16 18  2  0  0  0  0
 18 17  1  0  0  0  0
 19 24  1  1  0  0  0
 19 21  1  0  0  0  0
 21 22  1  0  0  0  0
 22 23  1  0  0  0  0
 22 20  2  0  0  0  0
 23 28  1  1  0  0  0
 24 25  1  0  0  0  0
 25 23  1  0  0  0  0
 26 27  2  0  0  0  0
 27 29  1  0  0  0  0
 28 27  1  0  0  0  0
 29 30  1  0  0  0  0
 30 32  1  0  0  0  0
 32 31  1  1  0  0  0
 33 32  1  0  0  0  0
 34 33  1  0  0  0  0
 35 34  1  0  0  0  0
 36 41  2  0  0  0  0
 36 37  1  0  0  0  0
 37 42  1  0  0  0  0
 38 40  1  0  0  0  0
 39 40  2  0  0  0  0
 41 39  1  0  0  0  0
 42 38  2  0  0  0  0
M  END
>  <MODEL>
6

>  <REMARK>
 VINA RESULT:      -6.6      3.000      4.622
  Name = 
  10 active torsions:
  status: ('A' for Active; 'I' for Inactive)
    1  A    between atoms: C_1  and  C_24
    2  A    between atoms: C_6  and  C_11
    3  A    between atoms: C_9  and  C_21
    4  A    between atoms: C_13  and  C_28
    5  A    between atoms: C_18  and  C_38
    6  A    between atoms: C_20  and  N_34
    7  A    between atoms: C_21  and  C_35
    8  A    between atoms: C_27  and  C_42
    9  A    between atoms: C_28  and  C_33
   10  A    between atoms: C_33  and  C_35
                            x       y       z     vdW  Elec       q    Type
                         _______ _______ _______ _____ _____    ______ ____

>  <TORSDO>
F 10

$$$$
=
 OpenBabel10222419273D

 42 46  0  0  1  0  0  0  0  0999 V2000
  188.9360  175.2260  137.2770 N   0  0  0  0  0  2  0  0  0  0  0  0
  189.3020  176.3100  136.3830 C   0  0  2  0  0  3  0  0  0  0  0  0
  188.2160  174.2730  136.4270 C   0  0  2  0  0  3  0  0  0  0  0  0
  188.8630  174.3360  134.6970 S   0  0  0  0  0  0  0  0  0  0  0  0
  189.9520  175.7200  135.1360 C   0  0  2  0  0  3  0  0  0  0  0  0
  191.3580  175.2010  135.3420 C   0  0  0  0  0  0  0  0  0  0  0  0
  192.7940  173.4540  136.2840 C   0  0  2  0  0  3  0  0  0  0  0  0
  193.7450  175.5110  135.3760 N   0  0  0  0  0  0  0  0  0  0  0  0
  193.9550  174.2960  135.8080 C   0  0  0  0  0  0  0  0  0  0  0  0
  195.3150  173.7530  135.9150 C   0  0  0  0  0  3  0  0  0  0  0  0
  194.3220  171.5170  136.0880 C   0  0  0  0  0  3  0  0  0  0  0  0
  193.0690  171.9840  136.0960 C   0  0  0  0  0  3  0  0  0  0  0  0
  191.6010  173.8490  135.6050 O   0  0  0  0  0  0  0  0  0  0  0  0
  192.4110  176.0310  135.2320 C   0  0  0  0  0  3  0  0  0  0  0  0
  195.4880  172.4370  136.1140 C   0  0  0  0  0  0  0  0  0  0  0  0
  197.6910  172.4240  137.0170 O   0  0  0  0  0  0  0  0  0  0  0  0
  197.2050  170.6920  135.5330 N   0  0  0  0  0  1  0  0  0  0  0  0
  196.8460  171.8730  136.2620 C   0  0  0  0  0  0  0  0  0  0  0  0
  190.0350  177.4890  137.0580 C   0  0  2  0  0  3  0  0  0  0  0  0
  190.5530  176.0160  140.2730 O   0  0  0  0  0  0  0  0  0  0  0  0
  190.9700  177.1010  138.2230 C   0  0  0  0  0  2  0  0  0  0  0  0
  190.2270  176.9200  139.5120 C   0  0  0  0  0  0  0  0  0  0  0  0
  189.1630  177.9210  139.8890 C   0  0  1  0  0  3  0  0  0  0  0  0
  189.0320  178.5680  137.4690 C   0  0  0  0  0  2  0  0  0  0  0  0
  188.2330  178.1490  138.7040 C   0  0  0  0  0  2  0  0  0  0  0  0
  186.9390  179.2850  140.9990 O   0  0  0  0  0  0  0  0  0  0  0  0
  187.3270  178.2360  141.5890 C   0  0  0  0  0  0  0  0  0  0  0  0
  188.3950  177.4640  141.0380 N   0  0  0  0  0  2  0  0  0  0  0  0
  186.6560  177.7730  142.8530 C   0  0  0  0  0  2  0  0  0  0  0  0
  187.6080  176.9850  143.7630 C   0  0  0  0  0  2  0  0  0  0  0  0
  188.8950  177.1760  145.8440 N   0  0  0  0  0  1  0  0  0  0  0  0
  187.7240  177.6530  145.1300 C   0  0  2  0  0  3  0  0  0  0  0  0
  186.4490  177.4770  145.9530 C   0  0  0  0  0  2  0  0  0  0  0  0
  185.7780  178.7850  146.3520 C   0  0  0  0  0  2  0  0  0  0  0  0
  184.5760  178.5300  147.0120 O   0  0  0  0  0  1  0  0  0  0  0  0
  184.8980  173.0350  137.4250 C   0  0  0  0  0  3  0  0  0  0  0  0
  185.7790  173.3450  136.2640 C   0  0  0  0  0  2  0  0  0  0  0  0
  186.2920  175.6970  136.8710 C   0  0  0  0  0  3  0  0  0  0  0  0
  183.9530  175.3290  137.5620 C   0  0  0  0  0  3  0  0  0  0  0  0
  184.9220  176.0610  137.0770 N   0  0  0  0  0  0  0  0  0  0  0  0
  184.0620  173.9160  137.9680 C   0  0  0  0  0  3  0  0  0  0  0  0
  186.7310  174.4720  136.5560 C   0  0  0  0  0  0  0  0  0  0  0  0
  2 19  1  0  0  0  0
  2  1  1  1  0  0  0
  3 42  1  6  0  0  0
  3  1  1  0  0  0  0
  4  5  1  0  0  0  0
  4  3  1  0  0  0  0
  5  6  1  1  0  0  0
  5  2  1  0  0  0  0
  6 13  1  0  0  0  0
  7 12  1  6  0  0  0
  8  9  2  0  0  0  0
  9 10  1  0  0  0  0
  9  7  1  0  0  0  0
 10 15  2  0  0  0  0
 11 12  2  0  0  0  0
 11 15  1  0  0  0  0
 13  7  1  0  0  0  0
 14  6  2  0  0  0  0
 14  8  1  0  0  0  0
 15 18  1  0  0  0  0
 17 18  1  0  0  0  0
 18 16  2  0  0  0  0
 19 24  1  1  0  0  0
 19 21  1  0  0  0  0
 21 22  1  0  0  0  0
 22 23  1  0  0  0  0
 22 20  2  0  0  0  0
 23 28  1  1  0  0  0
 24 25  1  0  0  0  0
 25 23  1  0  0  0  0
 26 27  2  0  0  0  0
 27 29  1  0  0  0  0
 28 27  1  0  0  0  0
 29 30  1  0  0  0  0
 30 32  1  0  0  0  0
 32 31  1  1  0  0  0
 32 33  1  0  0  0  0
 33 34  1  0  0  0  0
 34 35  1  0  0  0  0
 36 41  2  0  0  0  0
 37 42  1  0  0  0  0
 37 36  1  0  0  0  0
 38 40  1  0  0  0  0
 39 41  1  0  0  0  0
 40 39  2  0  0  0  0
 42 38  2  0  0  0  0
M  END
>  <MODEL>
7

>  <REMARK>
 VINA RESULT:      -6.3      2.815      3.957
  Name = 
  10 active torsions:
  status: ('A' for Active; 'I' for Inactive)
    1  A    between atoms: C_1  and  C_24
    2  A    between atoms: C_6  and  C_11
    3  A    between atoms: C_9  and  C_21
    4  A    between atoms: C_13  and  C_28
    5  A    between atoms: C_18  and  C_38
    6  A    between atoms: C_20  and  N_34
    7  A    between atoms: C_21  and  C_35
    8  A    between atoms: C_27  and  C_42
    9  A    between atoms: C_28  and  C_33
   10  A    between atoms: C_33  and  C_35
                            x       y       z     vdW  Elec       q    Type
                         _______ _______ _______ _____ _____    ______ ____

>  <TORSDO>
F 10

$$$$
=
 OpenBabel10222419273D

 42 46  0  0  1  0  0  0  0  0999 V2000
  184.8530  177.0570  136.9290 N   0  0  0  0  0  2  0  0  0  0  0  0
  184.5890  177.4810  138.2930 C   0  0  2  0  0  3  0  0  0  0  0  0
  184.0980  175.8100  136.7760 C   0  0  2  0  0  3  0  0  0  0  0  0
  182.5810  175.8430  137.8300 S   0  0  0  0  0  0  0  0  0  0  0  0
  183.0850  177.4360  138.5380 C   0  0  2  0  0  3  0  0  0  0  0  0
  182.3020  178.5470  137.8710 C   0  0  0  0  0  0  0  0  0  0  0  0
  181.2680  180.7570  138.0860 C   0  0  2  0  0  3  0  0  0  0  0  0
  180.8870  179.3750  136.1090 N   0  0  0  0  0  0  0  0  0  0  0  0
  180.7740  180.5480  136.6730 C   0  0  0  0  0  0  0  0  0  0  0  0
  180.1010  181.6580  135.9870 C   0  0  0  0  0  3  0  0  0  0  0  0
  181.1350  183.1810  137.6080 C   0  0  0  0  0  3  0  0  0  0  0  0
  181.6810  182.1880  138.3180 C   0  0  0  0  0  3  0  0  0  0  0  0
  182.3430  179.8560  138.3590 O   0  0  0  0  0  0  0  0  0  0  0  0
  181.5820  178.2980  136.7630 C   0  0  0  0  0  3  0  0  0  0  0  0
  180.2200  182.9050  136.4720 C   0  0  0  0  0  0  0  0  0  0  0  0
  179.1100  183.9310  134.6330 O   0  0  0  0  0  0  0  0  0  0  0  0
  179.3190  185.2530  136.5420 N   0  0  0  0  0  1  0  0  0  0  0  0
  179.5220  184.0320  135.8190 C   0  0  0  0  0  0  0  0  0  0  0  0
  185.3270  178.7650  138.7290 C   0  0  2  0  0  3  0  0  0  0  0  0
  188.6460  177.4450  138.8670 O   0  0  0  0  0  0  0  0  0  0  0  0
  186.8170  178.8320  138.3340 C   0  0  0  0  0  2  0  0  0  0  0  0
  187.6950  178.0890  139.2940 C   0  0  0  0  0  0  0  0  0  0  0  0
  187.4480  178.2380  140.7750 C   0  0  1  0  0  3  0  0  0  0  0  0
  185.1240  179.0070  140.2250 C   0  0  0  0  0  2  0  0  0  0  0  0
  185.9650  178.0460  141.0680 C   0  0  0  0  0  2  0  0  0  0  0  0
  187.6230  178.1700  143.6040 O   0  0  0  0  0  0  0  0  0  0  0  0
  188.3290  177.3410  142.9620 C   0  0  0  0  0  0  0  0  0  0  0  0
  188.2300  177.2760  141.5380 N   0  0  0  0  0  2  0  0  0  0  0  0
  189.2540  176.3990  143.6810 C   0  0  0  0  0  2  0  0  0  0  0  0
  189.6680  176.9280  145.0610 C   0  0  0  0  0  2  0  0  0  0  0  0
  191.7620  177.1250  143.7960 N   0  0  0  0  0  1  0  0  0  0  0  0
  191.1780  177.1410  145.1250 C   0  0  2  0  0  3  0  0  0  0  0  0
  191.8510  176.1280  146.0510 C   0  0  0  0  0  2  0  0  0  0  0  0
  191.8990  176.5530  147.5130 C   0  0  0  0  0  2  0  0  0  0  0  0
  192.6060  175.6160  148.2660 O   0  0  0  0  0  1  0  0  0  0  0  0
  184.7470  172.1990  136.5030 C   0  0  0  0  0  3  0  0  0  0  0  0
  184.4270  173.3070  137.4460 C   0  0  0  0  0  2  0  0  0  0  0  0
  186.3120  174.8020  136.8360 C   0  0  0  0  0  3  0  0  0  0  0  0
  187.2070  172.5080  136.6760 C   0  0  0  0  0  3  0  0  0  0  0  0
  187.3100  173.7810  136.9600 N   0  0  0  0  0  0  0  0  0  0  0  0
  185.9880  171.8290  136.1980 C   0  0  0  0  0  3  0  0  0  0  0  0
  184.9960  174.6240  136.9930 C   0  0  0  0  0  0  0  0  0  0  0  0
  2  1  1  6  0  0  0
  2  5  1  0  0  0  0
  2 19  1  0  0  0  0
  3  1  1  0  0  0  0
  3 42  1  1  0  0  0
  3  4  1  0  0  0  0
  4  5  1  0  0  0  0
  5  6  1  6  0  0  0
  6 13  1  0  0  0  0
  7 12  1  6  0  0  0
  7 13  1  0  0  0  0
  8  9  2  0  0  0  0
  8 14  1  0  0  0  0
  9  7  1  0  0  0  0
 10 15  2  0  0  0  0
 10  9  1  0  0  0  0
 11 12  2  0  0  0  0
 14  6  2  0  0  0  0
 15 11  1  0  0  0  0
 16 18  2  0  0  0  0
 18 15  1  0  0  0  0
 18 17  1  0  0  0  0
 19 21  1  1  0  0  0
 19 24  1  0  0  0  0
 20 22  2  0  0  0  0
 21 22  1  0  0  0  0
 22 23  1  0  0  0  0
 23 25  1  0  0  0  0
 23 28  1  1  0  0  0
 24 25  1  0  0  0  0
 27 26  2  0  0  0  0
 27 29  1  0  0  0  0
 28 27  1  0  0  0  0
 29 30  1  0  0  0  0
 30 32  1  0  0  0  0
 32 31  1  6  0  0  0
 32 33  1  0  0  0  0
 33 34  1  0  0  0  0
 34 35  1  0  0  0  0
 36 37  1  0  0  0  0
 38 40  1  0  0  0  0
 38 42  2  0  0  0  0
 39 40  2  0  0  0  0
 41 36  2  0  0  0  0
 41 39  1  0  0  0  0
 42 37  1  0  0  0  0
M  END
>  <MODEL>
8

>  <REMARK>
 VINA RESULT:      -6.2      4.696     10.118
  Name = 
  10 active torsions:
  status: ('A' for Active; 'I' for Inactive)
    1  A    between atoms: C_1  and  C_24
    2  A    between atoms: C_6  and  C_11
    3  A    between atoms: C_9  and  C_21
    4  A    between atoms: C_13  and  C_28
    5  A    between atoms: C_18  and  C_38
    6  A    between atoms: C_20  and  N_34
    7  A    between atoms: C_21  and  C_35
    8  A    between atoms: C_27  and  C_42
    9  A    between atoms: C_28  and  C_33
   10  A    between atoms: C_33  and  C_35
                            x       y       z     vdW  Elec       q    Type
                         _______ _______ _______ _____ _____    ______ ____

>  <TORSDO>
F 10

$$$$
=
 OpenBabel10222419273D

 42 46  0  0  1  0  0  0  0  0999 V2000
  185.6660  176.5860  135.7560 N   0  0  0  0  0  2  0  0  0  0  0  0
  185.7370  176.8450  137.1830 C   0  0  2  0  0  3  0  0  0  0  0  0
  185.0300  175.2690  135.6510 C   0  0  2  0  0  3  0  0  0  0  0  0
  183.8590  175.0060  137.0560 S   0  0  0  0  0  0  0  0  0  0  0  0
  184.3680  176.5810  137.8000 C   0  0  2  0  0  3  0  0  0  0  0  0
  183.3240  177.6340  137.4980 C   0  0  0  0  0  0  0  0  0  0  0  0
  182.0550  179.5690  138.3010 C   0  0  2  0  0  3  0  0  0  0  0  0
  181.4920  178.4840  136.1870 N   0  0  0  0  0  0  0  0  0  0  0  0
  181.3290  179.5110  136.9770 C   0  0  0  0  0  0  0  0  0  0  0  0
  180.3890  180.5870  136.6380 C   0  0  0  0  0  3  0  0  0  0  0  0
  181.4970  181.9800  138.3250 C   0  0  0  0  0  3  0  0  0  0  0  0
  182.3020  180.9930  138.7310 C   0  0  0  0  0  3  0  0  0  0  0  0
  183.2770  178.8340  138.2140 O   0  0  0  0  0  0  0  0  0  0  0  0
  182.4430  177.4490  136.4980 C   0  0  0  0  0  3  0  0  0  0  0  0
  180.4250  181.7390  137.3250 C   0  0  0  0  0  0  0  0  0  0  0  0
  178.9460  182.9210  135.8820 O   0  0  0  0  0  0  0  0  0  0  0  0
  179.1240  183.7690  138.0460 N   0  0  0  0  0  1  0  0  0  0  0  0
  179.4640  182.8210  137.0260 C   0  0  0  0  0  0  0  0  0  0  0  0
  186.4290  178.1710  137.5680 C   0  0  2  0  0  3  0  0  0  0  0  0
  189.3110  177.8900  135.4720 O   0  0  0  0  0  0  0  0  0  0  0  0
  187.3720  178.7550  136.4960 C   0  0  0  0  0  2  0  0  0  0  0  0
  188.7310  178.1220  136.5260 C   0  0  0  0  0  0  0  0  0  0  0  0
  189.3950  177.8820  137.8590 C   0  0  1  0  0  3  0  0  0  0  0  0
  187.1270  178.0270  138.9210 C   0  0  0  0  0  2  0  0  0  0  0  0
  188.4120  177.2050  138.8050 C   0  0  0  0  0  2  0  0  0  0  0  0
  191.3370  177.4620  139.8820 O   0  0  0  0  0  0  0  0  0  0  0  0
  191.5600  176.9440  138.7510 C   0  0  0  0  0  0  0  0  0  0  0  0
  190.5860  177.0570  137.7120 N   0  0  0  0  0  2  0  0  0  0  0  0
  192.8300  176.1820  138.4920 C   0  0  0  0  0  2  0  0  0  0  0  0
  193.2540  176.2390  137.0180 C   0  0  0  0  0  2  0  0  0  0  0  0
  192.3560  174.3250  135.7710 N   0  0  0  0  0  1  0  0  0  0  0  0
  193.5160  174.8350  136.4780 C   0  0  2  0  0  3  0  0  0  0  0  0
  193.9700  173.8820  137.5830 C   0  0  0  0  0  2  0  0  0  0  0  0
  195.4800  173.8020  137.7590 C   0  0  0  0  0  2  0  0  0  0  0  0
  195.7980  173.4780  139.0770 O   0  0  0  0  0  1  0  0  0  0  0  0
  188.5460  174.1870  135.7130 C   0  0  0  0  0  3  0  0  0  0  0  0
  187.3890  174.5050  134.8300 C   0  0  0  0  0  2  0  0  0  0  0  0
  185.7540  172.9560  135.8720 C   0  0  0  0  0  3  0  0  0  0  0  0
  187.9280  171.7940  135.9780 C   0  0  0  0  0  3  0  0  0  0  0  0
  186.6290  171.8220  135.8270 N   0  0  0  0  0  0  0  0  0  0  0  0
  188.7950  172.9690  136.1860 C   0  0  0  0  0  3  0  0  0  0  0  0
  186.0700  174.1960  135.4830 C   0  0  0  0  0  0  0  0  0  0  0  0
  2  1  1  6  0  0  0
  2 19  1  0  0  0  0
  2  5  1  0  0  0  0
  3 42  1  1  0  0  0
  3  1  1  0  0  0  0
  3  4  1  0  0  0  0
  4  5  1  0  0  0  0
  5  6  1  6  0  0  0
  6 13  1  0  0  0  0
  7 12  1  6  0  0  0
  8 14  1  0  0  0  0
  8  9  2  0  0  0  0
  9  7  1  0  0  0  0
 10  9  1  0  0  0  0
 10 15  2  0  0  0  0
 11 12  2  0  0  0  0
 13  7  1  0  0  0  0
 14  6  2  0  0  0  0
 15 11  1  0  0  0  0
 16 18  2  0  0  0  0
 18 15  1  0  0  0  0
 18 17  1  0  0  0  0
 19 21  1  6  0  0  0
 19 24  1  0  0  0  0
 20 22  2  0  0  0  0
 21 22  1  0  0  0  0
 22 23  1  0  0  0  0
 23 28  1  6  0  0  0
 23 25  1  0  0  0  0
 25 24  1  0  0  0  0
 27 26  2  0  0  0  0
 28 27  1  0  0  0  0
 29 27  1  0  0  0  0
 30 29  1  0  0  0  0
 32 31  1  1  0  0  0
 32 30  1  0  0  0  0
 32 33  1  0  0  0  0
 33 34  1  0  0  0  0
 34 35  1  0  0  0  0
 36 41  2  0  0  0  0
 37 42  1  0  0  0  0
 37 36  1  0  0  0  0
 39 41  1  0  0  0  0
 40 38  1  0  0  0  0
 40 39  2  0  0  0  0
 42 38  2  0  0  0  0
M  END
>  <MODEL>
9

>  <REMARK>
 VINA RESULT:      -6.0      4.436     10.925
  Name = 
  10 active torsions:
  status: ('A' for Active; 'I' for Inactive)
    1  A    between atoms: C_1  and  C_24
    2  A    between atoms: C_6  and  C_11
    3  A    between atoms: C_9  and  C_21
    4  A    between atoms: C_13  and  C_28
    5  A    between atoms: C_18  and  C_38
    6  A    between atoms: C_20  and  N_34
    7  A    between atoms: C_21  and  C_35
    8  A    between atoms: C_27  and  C_42
    9  A    between atoms: C_28  and  C_33
   10  A    between atoms: C_33  and  C_35
                            x       y       z     vdW  Elec       q    Type
                         _______ _______ _______ _____ _____    ______ ____

>  <TORSDO>
F 10

$$$$
