=
 OpenBabel10222420433D

 39 43  0  0  1  0  0  0  0  0999 V2000
  189.4530  176.8640  144.0200 C   0  0  0  0  0  0  0  0  0  0  0  0
  191.3880  176.7160  145.2460 C   0  0  0  0  0  2  0  0  0  0  0  0
  187.7620  177.6950  146.0670 C   0  0  0  0  0  0  0  0  0  0  0  0
  190.5350  176.4120  143.1290 C   0  0  2  0  0  3  0  0  0  0  0  0
  186.9380  178.1150  147.1220 C   0  0  0  0  0  3  0  0  0  0  0  0
  188.1060  177.0730  143.7280 C   0  0  0  0  0  3  0  0  0  0  0  0
  191.7200  176.3470  143.9140 O   0  0  0  0  0  0  0  0  0  0  0  0
  189.1410  177.4600  146.3210 C   0  0  0  0  0  0  0  0  0  0  0  0
  189.6610  177.6450  147.6070 C   0  0  0  0  0  3  0  0  0  0  0  0
  189.9500  177.0410  145.2610 C   0  0  0  0  0  0  0  0  0  0  0  0
  188.8240  178.0630  148.6440 C   0  0  0  0  0  3  0  0  0  0  0  0
  187.4680  178.2990  148.4030 C   0  0  0  0  0  3  0  0  0  0  0  0
  187.2440  177.4980  144.7600 C   0  0  0  0  0  0  0  0  0  0  0  0
  183.2430  178.6280  143.6970 C   0  0  2  0  0  3  0  0  0  0  0  0
  185.7910  177.7390  144.4600 C   0  0  1  0  0  3  0  0  0  0  0  0
  185.2290  178.8790  145.3100 C   0  0  0  0  0  2  0  0  0  0  0  0
  185.5650  177.9680  142.9570 C   0  0  0  0  0  2  0  0  0  0  0  0
  183.7190  179.0460  145.0960 C   0  0  0  0  0  2  0  0  0  0  0  0
  184.3390  178.8370  142.6530 C   0  0  0  0  0  2  0  0  0  0  0  0
  181.9920  179.4140  143.3330 C   0  0  0  0  0  2  0  0  0  0  0  0
  181.1940  178.7020  142.2780 C   0  0  0  0  0  0  0  0  0  0  0  0
  180.0170  178.1470  142.5770 C   0  0  0  0  0  3  0  0  0  0  0  0
  181.6810  177.5270  140.2780 O   0  0  0  0  0  0  0  0  0  0  0  0
  181.7100  178.6250  140.8980 C   0  0  0  0  0  0  0  0  0  0  0  0
  182.2460  179.7910  140.2620 N   0  0  0  0  0  2  0  0  0  0  0  0
  182.7490  179.7770  138.8960 C   0  0  0  0  0  2  0  0  0  0  0  0
  184.1880  179.9780  138.9010 N   0  0  0  0  0  2  0  0  0  0  0  0
  184.7920  178.6690  138.7230 C   0  0  0  0  0  1  0  0  0  0  0  0
  179.4750  178.1930  143.8950 N   0  0  0  0  0  2  0  0  0  0  0  0
  178.9370  179.4340  144.4140 C   0  0  0  0  0  1  0  0  0  0  0  0
  190.7220  177.4000  141.9860 C   0  0  0  0  0  2  0  0  0  0  0  0
  188.9630  176.9010  140.4560 O   0  0  0  0  0  0  0  0  0  0  0  0
  190.3460  176.7550  140.6650 C   0  0  1  0  0  3  0  0  0  0  0  0
  189.8050  177.7800  139.7500 C   0  0  1  0  0  3  0  0  0  0  0  0
  189.9320  177.3010  138.3110 C   0  0  0  0  0  2  0  0  0  0  0  0
  188.7570  177.7480  137.4420 C   0  0  0  0  0  0  0  0  0  0  0  0
  188.2940  178.9770  137.9100 O   0  0  0  0  0  1  0  0  0  0  0  0
  187.7240  176.8130  137.5180 O   0  0  0  0  0  1  0  0  0  0  0  0
  189.1930  177.9080  135.9960 C   0  0  0  0  0  1  0  0  0  0  0  0
  1 10  1  0  0  0  0
  2 10  1  0  0  0  0
  3  8  1  0  0  0  0
  3  5  1  0  0  0  0
  4 31  1  6  0  0  0
  4  7  1  0  0  0  0
  4  1  1  0  0  0  0
  5 12  2  0  0  0  0
  6  1  2  0  0  0  0
  6 13  1  0  0  0  0
  7  2  1  0  0  0  0
  8  9  1  0  0  0  0
  9 11  2  0  0  0  0
 10  8  2  0  0  0  0
 12 11  1  0  0  0  0
 13  3  2  0  0  0  0
 14 20  1  6  0  0  0
 14 18  1  0  0  0  0
 15 13  1  6  0  0  0
 15 16  1  0  0  0  0
 17 15  1  0  0  0  0
 18 16  1  0  0  0  0
 19 17  1  0  0  0  0
 19 14  1  0  0  0  0
 21 22  2  0  0  0  0
 21 20  1  0  0  0  0
 22 29  1  0  0  0  0
 23 24  2  0  0  0  0
 24 21  1  0  0  0  0
 25 24  1  0  0  0  0
 26 27  1  0  0  0  0
 26 25  1  0  0  0  0
 28 27  1  0  0  0  0
 29 30  1  0  0  0  0
 32 33  1  0  0  0  0
 33 31  1  1  0  0  0
 34 35  1  6  0  0  0
 34 32  1  0  0  0  0
 34 33  1  0  0  0  0
 36 38  1  0  0  0  0
 36 37  1  0  0  0  0
 36 35  1  0  0  0  0
 39 36  1  0  0  0  0
M  END
>  <MODEL>
1

>  <REMARK>
 VINA RESULT:     -10.6      0.000      0.000
  Name = 
  11 active torsions:
  status: ('A' for Active; 'I' for Inactive)
    1  A    between atoms: C_1  and  C_2
    2  A    between atoms: C_1  and  C_28
    3  A    between atoms: C_3  and  C_30
    4  A    between atoms: C_6  and  C_38
    5  A    between atoms: C_9  and  C_18
    6  A    between atoms: C_9  and  C_30
    7  A    between atoms: C_11  and  C_25
    8  A    between atoms: N_13  and  C_26
    9  A    between atoms: C_17  and  C_25
   10  A    between atoms: C_20  and  N_29
   11  A    between atoms: C_20  and  N_37
                            x       y       z     vdW  Elec       q    Type
                         _______ _______ _______ _____ _____    ______ ____

>  <TORSDO>
F 11

$$$$
=
 OpenBabel10222420433D

 39 43  0  0  1  0  0  0  0  0999 V2000
  189.5280  177.0170  143.8620 C   0  0  0  0  0  0  0  0  0  0  0  0
  191.4420  176.8240  145.1130 C   0  0  0  0  0  2  0  0  0  0  0  0
  187.7860  177.6890  145.9230 C   0  0  0  0  0  0  0  0  0  0  0  0
  190.6340  176.6410  142.9650 C   0  0  2  0  0  3  0  0  0  0  0  0
  186.9350  178.0280  146.9870 C   0  0  0  0  0  3  0  0  0  0  0  0
  188.1840  177.2220  143.5570 C   0  0  0  0  0  3  0  0  0  0  0  0
  191.8060  176.5450  143.7670 O   0  0  0  0  0  0  0  0  0  0  0  0
  189.1640  177.4610  146.1880 C   0  0  0  0  0  0  0  0  0  0  0  0
  189.6560  177.5730  147.4940 C   0  0  0  0  0  3  0  0  0  0  0  0
  189.9990  177.1240  145.1210 C   0  0  0  0  0  0  0  0  0  0  0  0
  188.7930  177.9110  148.5390 C   0  0  0  0  0  3  0  0  0  0  0  0
  187.4380  178.1400  148.2860 C   0  0  0  0  0  3  0  0  0  0  0  0
  187.2950  177.5670  144.5960 C   0  0  0  0  0  0  0  0  0  0  0  0
  183.3010  178.6740  143.4850 C   0  0  2  0  0  3  0  0  0  0  0  0
  185.8440  177.8020  144.2840 C   0  0  1  0  0  3  0  0  0  0  0  0
  185.2820  178.9710  145.0950 C   0  0  0  0  0  2  0  0  0  0  0  0
  185.6240  177.9830  142.7730 C   0  0  0  0  0  2  0  0  0  0  0  0
  183.7740  179.1350  144.8700 C   0  0  0  0  0  2  0  0  0  0  0  0
  184.4010  178.8460  142.4380 C   0  0  0  0  0  2  0  0  0  0  0  0
  182.0540  179.4510  143.0910 C   0  0  0  0  0  2  0  0  0  0  0  0
  181.1620  178.6300  142.2030 C   0  0  0  0  0  0  0  0  0  0  0  0
  180.0810  178.0260  142.7010 C   0  0  0  0  0  3  0  0  0  0  0  0
  181.7510  179.5290  140.0910 O   0  0  0  0  0  0  0  0  0  0  0  0
  181.4780  178.5010  140.7680 C   0  0  0  0  0  0  0  0  0  0  0  0
  181.4700  177.2140  140.1400 N   0  0  0  0  0  2  0  0  0  0  0  0
  181.7940  177.0260  138.7340 C   0  0  0  0  0  2  0  0  0  0  0  0
  180.7620  176.2270  138.0950 N   0  0  0  0  0  2  0  0  0  0  0  0
  179.5710  176.3490  138.9170 C   0  0  0  0  0  1  0  0  0  0  0  0
  179.7330  178.1190  144.0810 N   0  0  0  0  0  2  0  0  0  0  0  0
  178.9320  179.2310  144.5520 C   0  0  0  0  0  1  0  0  0  0  0  0
  190.8250  177.7020  141.8910 C   0  0  0  0  0  2  0  0  0  0  0  0
  189.4270  176.5160  140.3660 O   0  0  0  0  0  0  0  0  0  0  0  0
  190.7070  177.0820  140.5110 C   0  0  1  0  0  3  0  0  0  0  0  0
  189.6400  177.7640  139.7510 C   0  0  1  0  0  3  0  0  0  0  0  0
  189.8580  177.5550  138.2600 C   0  0  0  0  0  2  0  0  0  0  0  0
  188.8510  178.3280  137.4090 C   0  0  0  0  0  0  0  0  0  0  0  0
  189.0820  178.0400  136.0650 O   0  0  0  0  0  1  0  0  0  0  0  0
  189.0060  179.7010  137.6130 O   0  0  0  0  0  1  0  0  0  0  0  0
  187.4310  177.9200  137.7610 C   0  0  0  0  0  1  0  0  0  0  0  0
  1 10  1  0  0  0  0
  2 10  1  0  0  0  0
  3  8  1  0  0  0  0
  3  5  1  0  0  0  0
  4 31  1  6  0  0  0
  4  7  1  0  0  0  0
  4  1  1  0  0  0  0
  5 12  2  0  0  0  0
  6  1  2  0  0  0  0
  6 13  1  0  0  0  0
  7  2  1  0  0  0  0
  8  9  1  0  0  0  0
  9 11  2  0  0  0  0
 10  8  2  0  0  0  0
 12 11  1  0  0  0  0
 13  3  2  0  0  0  0
 14 20  1  6  0  0  0
 14 18  1  0  0  0  0
 15 13  1  6  0  0  0
 15 16  1  0  0  0  0
 17 15  1  0  0  0  0
 18 16  1  0  0  0  0
 19 17  1  0  0  0  0
 19 14  1  0  0  0  0
 21 22  2  0  0  0  0
 21 20  1  0  0  0  0
 22 29  1  0  0  0  0
 23 24  2  0  0  0  0
 24 21  1  0  0  0  0
 25 24  1  0  0  0  0
 26 25  1  0  0  0  0
 27 26  1  0  0  0  0
 27 28  1  0  0  0  0
 29 30  1  0  0  0  0
 32 33  1  0  0  0  0
 33 31  1  1  0  0  0
 34 35  1  6  0  0  0
 34 32  1  0  0  0  0
 34 33  1  0  0  0  0
 36 38  1  0  0  0  0
 36 39  1  0  0  0  0
 36 35  1  0  0  0  0
 37 36  1  0  0  0  0
M  END
>  <MODEL>
2

>  <REMARK>
 VINA RESULT:     -10.3      1.262      1.621
  Name = 
  11 active torsions:
  status: ('A' for Active; 'I' for Inactive)
    1  A    between atoms: C_1  and  C_2
    2  A    between atoms: C_1  and  C_28
    3  A    between atoms: C_3  and  C_30
    4  A    between atoms: C_6  and  C_38
    5  A    between atoms: C_9  and  C_18
    6  A    between atoms: C_9  and  C_30
    7  A    between atoms: C_11  and  C_25
    8  A    between atoms: N_13  and  C_26
    9  A    between atoms: C_17  and  C_25
   10  A    between atoms: C_20  and  N_29
   11  A    between atoms: C_20  and  N_37
                            x       y       z     vdW  Elec       q    Type
                         _______ _______ _______ _____ _____    ______ ____

>  <TORSDO>
F 11

$$$$
=
 OpenBabel10222420433D

 39 43  0  0  1  0  0  0  0  0999 V2000
  188.8260  176.9790  143.5600 C   0  0  0  0  0  0  0  0  0  0  0  0
  190.6770  176.8660  144.9120 C   0  0  0  0  0  2  0  0  0  0  0  0
  187.0060  177.8590  145.4700 C   0  0  0  0  0  0  0  0  0  0  0  0
  189.9630  176.5060  142.7530 C   0  0  2  0  0  3  0  0  0  0  0  0
  186.1150  178.3060  146.4580 C   0  0  0  0  0  3  0  0  0  0  0  0
  187.5010  177.1770  143.1750 C   0  0  0  0  0  3  0  0  0  0  0  0
  191.0950  176.4630  143.6150 O   0  0  0  0  0  0  0  0  0  0  0  0
  188.3650  177.6340  145.8190 C   0  0  0  0  0  0  0  0  0  0  0  0
  188.8000  177.8530  147.1310 C   0  0  0  0  0  3  0  0  0  0  0  0
  189.2410  177.1890  144.8260 C   0  0  0  0  0  0  0  0  0  0  0  0
  187.8970  178.2970  148.1010 C   0  0  0  0  0  3  0  0  0  0  0  0
  186.5600  178.5240  147.7650 C   0  0  0  0  0  3  0  0  0  0  0  0
  186.5730  177.6280  144.1380 C   0  0  0  0  0  0  0  0  0  0  0  0
  182.6520  178.7140  142.7750 C   0  0  2  0  0  3  0  0  0  0  0  0
  185.1430  177.8580  143.7380 C   0  0  1  0  0  3  0  0  0  0  0  0
  184.5400  179.0480  144.4870 C   0  0  0  0  0  2  0  0  0  0  0  0
  185.0090  178.0020  142.2140 C   0  0  0  0  0  2  0  0  0  0  0  0
  183.0470  179.2090  144.1730 C   0  0  0  0  0  2  0  0  0  0  0  0
  183.8100  178.8580  141.7880 C   0  0  0  0  0  2  0  0  0  0  0  0
  181.4320  179.4840  142.2920 C   0  0  0  0  0  2  0  0  0  0  0  0
  180.6890  178.7150  141.2360 C   0  0  0  0  0  0  0  0  0  0  0  0
  180.6680  179.1440  139.9730 C   0  0  0  0  0  3  0  0  0  0  0  0
  179.4330  177.3670  142.7270 O   0  0  0  0  0  0  0  0  0  0  0  0
  179.9870  177.4690  141.5980 C   0  0  0  0  0  0  0  0  0  0  0  0
  179.9360  176.3750  140.6750 N   0  0  0  0  0  2  0  0  0  0  0  0
  179.2400  175.1320  140.9720 C   0  0  0  0  0  2  0  0  0  0  0  0
  179.4010  174.2030  139.8660 N   0  0  0  0  0  2  0  0  0  0  0  0
  180.3570  174.8030  138.9540 C   0  0  0  0  0  1  0  0  0  0  0  0
  181.3310  180.3420  139.5720 N   0  0  0  0  0  2  0  0  0  0  0  0
  182.4140  180.2840  138.6120 C   0  0  0  0  0  1  0  0  0  0  0  0
  190.2240  177.4640  141.6000 C   0  0  0  0  0  2  0  0  0  0  0  0
  188.4910  178.1060  140.0930 O   0  0  0  0  0  0  0  0  0  0  0  0
  189.3950  177.0710  140.3900 C   0  0  1  0  0  3  0  0  0  0  0  0
  189.6430  178.0230  139.2890 C   0  0  1  0  0  3  0  0  0  0  0  0
  189.2800  177.3770  137.9600 C   0  0  0  0  0  2  0  0  0  0  0  0
  188.6680  178.3730  136.9760 C   0  0  0  0  0  0  0  0  0  0  0  0
  189.1760  178.1160  135.7030 O   0  0  0  0  0  1  0  0  0  0  0  0
  189.0030  179.6770  137.3450 O   0  0  0  0  0  1  0  0  0  0  0  0
  187.1570  178.2280  136.9400 C   0  0  0  0  0  1  0  0  0  0  0  0
  1 10  1  0  0  0  0
  3  8  1  0  0  0  0
  3  5  1  0  0  0  0
  4 31  1  6  0  0  0
  4  1  1  0  0  0  0
  4  7  1  0  0  0  0
  5 12  2  0  0  0  0
  6  1  2  0  0  0  0
  6 13  1  0  0  0  0
  7  2  1  0  0  0  0
  8  9  1  0  0  0  0
  9 11  2  0  0  0  0
 10  2  1  0  0  0  0
 10  8  2  0  0  0  0
 12 11  1  0  0  0  0
 13  3  2  0  0  0  0
 14 20  1  6  0  0  0
 14 18  1  0  0  0  0
 15 13  1  6  0  0  0
 15 16  1  0  0  0  0
 17 15  1  0  0  0  0
 18 16  1  0  0  0  0
 19 17  1  0  0  0  0
 19 14  1  0  0  0  0
 21 24  1  0  0  0  0
 21 20  1  0  0  0  0
 22 21  2  0  0  0  0
 24 23  2  0  0  0  0
 25 26  1  0  0  0  0
 25 24  1  0  0  0  0
 27 26  1  0  0  0  0
 28 27  1  0  0  0  0
 29 22  1  0  0  0  0
 30 29  1  0  0  0  0
 32 33  1  0  0  0  0
 33 31  1  1  0  0  0
 34 35  1  6  0  0  0
 34 32  1  0  0  0  0
 34 33  1  0  0  0  0
 36 38  1  0  0  0  0
 36 35  1  0  0  0  0
 37 36  1  0  0  0  0
 39 36  1  0  0  0  0
M  END
>  <MODEL>
3

>  <REMARK>
 VINA RESULT:      -9.6      1.802      2.732
  Name = 
  11 active torsions:
  status: ('A' for Active; 'I' for Inactive)
    1  A    between atoms: C_1  and  C_2
    2  A    between atoms: C_1  and  C_28
    3  A    between atoms: C_3  and  C_30
    4  A    between atoms: C_6  and  C_38
    5  A    between atoms: C_9  and  C_18
    6  A    between atoms: C_9  and  C_30
    7  A    between atoms: C_11  and  C_25
    8  A    between atoms: N_13  and  C_26
    9  A    between atoms: C_17  and  C_25
   10  A    between atoms: C_20  and  N_29
   11  A    between atoms: C_20  and  N_37
                            x       y       z     vdW  Elec       q    Type
                         _______ _______ _______ _____ _____    ______ ____

>  <TORSDO>
F 11

$$$$
=
 OpenBabel10222420433D

 39 43  0  0  1  0  0  0  0  0999 V2000
  186.1690  177.9780  145.3750 C   0  0  0  0  0  0  0  0  0  0  0  0
  184.1490  178.6020  146.2680 C   0  0  0  0  0  2  0  0  0  0  0  0
  185.4800  178.1740  142.6880 C   0  0  0  0  0  0  0  0  0  0  0  0
  186.2770  177.9380  146.8440 C   0  0  2  0  0  3  0  0  0  0  0  0
  185.0990  178.2860  141.3410 C   0  0  0  0  0  3  0  0  0  0  0  0
  187.1290  177.6580  144.4170 C   0  0  0  0  0  3  0  0  0  0  0  0
  185.0170  178.3450  147.3650 O   0  0  0  0  0  0  0  0  0  0  0  0
  184.5300  178.4810  143.7000 C   0  0  0  0  0  0  0  0  0  0  0  0
  183.2370  178.8860  143.3520 C   0  0  0  0  0  3  0  0  0  0  0  0
  184.9230  178.3650  145.0360 C   0  0  0  0  0  0  0  0  0  0  0  0
  182.8770  178.9900  142.0050 C   0  0  0  0  0  3  0  0  0  0  0  0
  183.8050  178.6930  141.0040 C   0  0  0  0  0  3  0  0  0  0  0  0
  186.7880  177.7580  143.0520 C   0  0  0  0  0  0  0  0  0  0  0  0
  190.0640  176.9970  140.3880 C   0  0  2  0  0  3  0  0  0  0  0  0
  187.8140  177.4280  142.0050 C   0  0  1  0  0  3  0  0  0  0  0  0
  188.4250  178.6960  141.4040 C   0  0  0  0  0  2  0  0  0  0  0  0
  188.8830  176.4720  142.5570 C   0  0  0  0  0  2  0  0  0  0  0  0
  189.3810  178.3640  140.2510 C   0  0  0  0  0  2  0  0  0  0  0  0
  190.2400  176.6080  141.8550 C   0  0  0  0  0  2  0  0  0  0  0  0
  191.4070  177.0280  139.6730 C   0  0  0  0  0  2  0  0  0  0  0  0
  191.2760  176.5550  138.2530 C   0  0  0  0  0  0  0  0  0  0  0  0
  192.3330  176.0680  137.6000 C   0  0  0  0  0  3  0  0  0  0  0  0
  189.2130  175.6070  137.5720 O   0  0  0  0  0  0  0  0  0  0  0  0
  189.9650  176.6200  137.5790 C   0  0  0  0  0  0  0  0  0  0  0  0
  189.5450  177.8250  136.9300 N   0  0  0  0  0  2  0  0  0  0  0  0
  188.2550  177.9500  136.2680 C   0  0  0  0  0  2  0  0  0  0  0  0
  187.4180  178.8870  136.9970 N   0  0  0  0  0  2  0  0  0  0  0  0
  186.4060  178.0990  137.6790 C   0  0  0  0  0  1  0  0  0  0  0  0
  193.6210  175.9850  138.2060 N   0  0  0  0  0  2  0  0  0  0  0  0
  194.4840  174.8570  137.9220 C   0  0  0  0  0  1  0  0  0  0  0  0
  187.3670  178.8900  147.3160 C   0  0  0  0  0  2  0  0  0  0  0  0
  188.3870  176.7840  147.7740 O   0  0  0  0  0  0  0  0  0  0  0  0
  188.3980  178.1420  148.1400 C   0  0  1  0  0  3  0  0  0  0  0  0
  189.4270  177.5720  147.2470 C   0  0  1  0  0  3  0  0  0  0  0  0
  190.7020  177.3070  148.0350 C   0  0  0  0  0  2  0  0  0  0  0  0
  191.6220  176.3070  147.3380 C   0  0  0  0  0  0  0  0  0  0  0  0
  191.1230  175.0210  147.5390 O   0  0  0  0  0  1  0  0  0  0  0  0
  192.9080  176.3850  147.8750 O   0  0  0  0  0  1  0  0  0  0  0  0
  191.6780  176.5830  145.8450 C   0  0  0  0  0  1  0  0  0  0  0  0
  1  4  1  0  0  0  0
  2  7  1  0  0  0  0
  3 13  2  0  0  0  0
  3  8  1  0  0  0  0
  4 31  1  1  0  0  0
  4  7  1  0  0  0  0
  5  3  1  0  0  0  0
  6  1  2  0  0  0  0
  8 10  2  0  0  0  0
  9  8  1  0  0  0  0
 10  1  1  0  0  0  0
 10  2  1  0  0  0  0
 11  9  2  0  0  0  0
 12  5  2  0  0  0  0
 12 11  1  0  0  0  0
 13  6  1  0  0  0  0
 14 20  1  1  0  0  0
 14 19  1  0  0  0  0
 15 17  1  0  0  0  0
 15 13  1  1  0  0  0
 16 15  1  0  0  0  0
 18 14  1  0  0  0  0
 18 16  1  0  0  0  0
 19 17  1  0  0  0  0
 21 20  1  0  0  0  0
 22 29  1  0  0  0  0
 22 21  2  0  0  0  0
 23 24  2  0  0  0  0
 24 21  1  0  0  0  0
 25 24  1  0  0  0  0
 26 25  1  0  0  0  0
 26 27  1  0  0  0  0
 27 28  1  0  0  0  0
 30 29  1  0  0  0  0
 32 33  1  0  0  0  0
 33 31  1  6  0  0  0
 34 32  1  0  0  0  0
 34 35  1  1  0  0  0
 34 33  1  0  0  0  0
 36 37  1  0  0  0  0
 36 38  1  0  0  0  0
 36 35  1  0  0  0  0
 39 36  1  0  0  0  0
M  END
>  <MODEL>
4

>  <REMARK>
 VINA RESULT:      -9.5      3.047      8.322
  Name = 
  11 active torsions:
  status: ('A' for Active; 'I' for Inactive)
    1  A    between atoms: C_1  and  C_2
    2  A    between atoms: C_1  and  C_28
    3  A    between atoms: C_3  and  C_30
    4  A    between atoms: C_6  and  C_38
    5  A    between atoms: C_9  and  C_18
    6  A    between atoms: C_9  and  C_30
    7  A    between atoms: C_11  and  C_25
    8  A    between atoms: N_13  and  C_26
    9  A    between atoms: C_17  and  C_25
   10  A    between atoms: C_20  and  N_29
   11  A    between atoms: C_20  and  N_37
                            x       y       z     vdW  Elec       q    Type
                         _______ _______ _______ _____ _____    ______ ____

>  <TORSDO>
F 11

$$$$
=
 OpenBabel10222420433D

 39 43  0  0  1  0  0  0  0  0999 V2000
  187.8690  177.4030  143.0080 C   0  0  0  0  0  0  0  0  0  0  0  0
  189.6910  176.8030  144.2680 C   0  0  0  0  0  2  0  0  0  0  0  0
  186.2310  178.2650  145.0840 C   0  0  0  0  0  0  0  0  0  0  0  0
  188.9090  176.8820  142.1040 C   0  0  2  0  0  3  0  0  0  0  0  0
  185.4330  178.6940  146.1560 C   0  0  0  0  0  3  0  0  0  0  0  0
  186.5890  177.8610  142.7000 C   0  0  0  0  0  3  0  0  0  0  0  0
  190.0270  176.5360  142.9120 O   0  0  0  0  0  0  0  0  0  0  0  0
  187.5410  177.7800  145.3520 C   0  0  0  0  0  0  0  0  0  0  0  0
  188.0180  177.7320  146.6670 C   0  0  0  0  0  3  0  0  0  0  0  0
  188.3250  177.3560  144.2760 C   0  0  0  0  0  0  0  0  0  0  0  0
  187.2060  178.1640  147.7200 C   0  0  0  0  0  3  0  0  0  0  0  0
  185.9200  178.6440  147.4650 C   0  0  0  0  0  3  0  0  0  0  0  0
  185.7540  178.3040  143.7470 C   0  0  0  0  0  0  0  0  0  0  0  0
  181.6470  179.3050  143.0160 C   0  0  2  0  0  3  0  0  0  0  0  0
  184.3760  178.8120  143.4330 C   0  0  1  0  0  3  0  0  0  0  0  0
  183.7610  178.0600  142.2500 C   0  0  0  0  0  2  0  0  0  0  0  0
  183.4730  178.7760  144.6770 C   0  0  0  0  0  2  0  0  0  0  0  0
  182.4070  178.6590  141.8500 C   0  0  0  0  0  2  0  0  0  0  0  0
  181.9840  178.6260  144.3420 C   0  0  0  0  0  2  0  0  0  0  0  0
  180.1520  179.2420  142.7420 C   0  0  0  0  0  2  0  0  0  0  0  0
  179.8700  179.2610  141.2660 C   0  0  0  0  0  0  0  0  0  0  0  0
  179.4390  178.1620  140.6440 C   0  0  0  0  0  3  0  0  0  0  0  0
  179.6790  181.6070  140.9900 O   0  0  0  0  0  0  0  0  0  0  0  0
  180.0600  180.5080  140.5020 C   0  0  0  0  0  0  0  0  0  0  0  0
  180.6720  180.4760  139.2070 N   0  0  0  0  0  2  0  0  0  0  0  0
  180.9020  181.6770  138.4190 C   0  0  0  0  0  2  0  0  0  0  0  0
  180.9850  181.3320  137.0100 N   0  0  0  0  0  2  0  0  0  0  0  0
  180.6790  179.9160  136.9100 C   0  0  0  0  0  1  0  0  0  0  0  0
  179.2390  176.9310  141.3370 N   0  0  0  0  0  2  0  0  0  0  0  0
  179.2950  175.6770  140.6160 C   0  0  0  0  0  1  0  0  0  0  0  0
  189.3080  177.9480  141.0930 C   0  0  0  0  0  2  0  0  0  0  0  0
  189.1690  178.5670  138.7950 O   0  0  0  0  0  0  0  0  0  0  0  0
  188.9460  177.5030  139.6880 C   0  0  1  0  0  3  0  0  0  0  0  0
  190.1450  177.5540  138.8280 C   0  0  1  0  0  3  0  0  0  0  0  0
  189.9560  176.6370  137.6280 C   0  0  0  0  0  2  0  0  0  0  0  0
  191.1700  175.7440  137.3790 C   0  0  0  0  0  0  0  0  0  0  0  0
  191.3320  175.5800  136.0040 O   0  0  0  0  0  1  0  0  0  0  0  0
  190.9730  174.4930  137.9670 O   0  0  0  0  0  1  0  0  0  0  0  0
  192.4270  176.3810  137.9470 C   0  0  0  0  0  1  0  0  0  0  0  0
  1 10  1  0  0  0  0
  2 10  1  0  0  0  0
  3  8  1  0  0  0  0
  3  5  1  0  0  0  0
  4 31  1  6  0  0  0
  4  7  1  0  0  0  0
  4  1  1  0  0  0  0
  5 12  2  0  0  0  0
  6  1  2  0  0  0  0
  6 13  1  0  0  0  0
  7  2  1  0  0  0  0
  8  9  1  0  0  0  0
  9 11  2  0  0  0  0
 10  8  2  0  0  0  0
 12 11  1  0  0  0  0
 13  3  2  0  0  0  0
 14 20  1  6  0  0  0
 14 19  1  0  0  0  0
 15 13  1  1  0  0  0
 15 17  1  0  0  0  0
 16 15  1  0  0  0  0
 18 16  1  0  0  0  0
 18 14  1  0  0  0  0
 19 17  1  0  0  0  0
 21 20  1  0  0  0  0
 22 21  2  0  0  0  0
 22 29  1  0  0  0  0
 24 23  2  0  0  0  0
 24 21  1  0  0  0  0
 25 24  1  0  0  0  0
 26 25  1  0  0  0  0
 27 26  1  0  0  0  0
 28 27  1  0  0  0  0
 30 29  1  0  0  0  0
 32 34  1  0  0  0  0
 32 33  1  0  0  0  0
 33 31  1  1  0  0  0
 34 35  1  6  0  0  0
 34 33  1  0  0  0  0
 36 35  1  0  0  0  0
 36 39  1  0  0  0  0
 36 38  1  0  0  0  0
 37 36  1  0  0  0  0
M  END
>  <MODEL>
5

>  <REMARK>
 VINA RESULT:      -8.9      2.023      2.784
  Name = 
  11 active torsions:
  status: ('A' for Active; 'I' for Inactive)
    1  A    between atoms: C_1  and  C_2
    2  A    between atoms: C_1  and  C_28
    3  A    between atoms: C_3  and  C_30
    4  A    between atoms: C_6  and  C_38
    5  A    between atoms: C_9  and  C_18
    6  A    between atoms: C_9  and  C_30
    7  A    between atoms: C_11  and  C_25
    8  A    between atoms: N_13  and  C_26
    9  A    between atoms: C_17  and  C_25
   10  A    between atoms: C_20  and  N_29
   11  A    between atoms: C_20  and  N_37
                            x       y       z     vdW  Elec       q    Type
                         _______ _______ _______ _____ _____    ______ ____

>  <TORSDO>
F 11

$$$$
=
 OpenBabel10222420433D

 39 43  0  0  1  0  0  0  0  0999 V2000
  187.8540  177.3920  143.0240 C   0  0  0  0  0  0  0  0  0  0  0  0
  189.6730  176.7610  144.2720 C   0  0  0  0  0  2  0  0  0  0  0  0
  186.2530  178.3030  145.1080 C   0  0  0  0  0  0  0  0  0  0  0  0
  188.8740  176.8430  142.1140 C   0  0  2  0  0  3  0  0  0  0  0  0
  185.4720  178.7560  146.1830 C   0  0  0  0  0  3  0  0  0  0  0  0
  186.5810  177.8760  142.7230 C   0  0  0  0  0  3  0  0  0  0  0  0
  189.9920  176.4780  142.9160 O   0  0  0  0  0  0  0  0  0  0  0  0
  187.5530  177.7910  145.3680 C   0  0  0  0  0  0  0  0  0  0  0  0
  188.0400  177.7410  146.6790 C   0  0  0  0  0  3  0  0  0  0  0  0
  188.3190  177.3440  144.2880 C   0  0  0  0  0  0  0  0  0  0  0  0
  187.2480  178.1970  147.7360 C   0  0  0  0  0  3  0  0  0  0  0  0
  185.9690  178.7040  147.4880 C   0  0  0  0  0  3  0  0  0  0  0  0
  185.7650  178.3430  143.7750 C   0  0  0  0  0  0  0  0  0  0  0  0
  181.6790  179.4100  143.0180 C   0  0  2  0  0  3  0  0  0  0  0  0
  184.3950  178.8790  143.4680 C   0  0  1  0  0  3  0  0  0  0  0  0
  183.8190  178.2430  142.2020 C   0  0  0  0  0  2  0  0  0  0  0  0
  183.4560  178.7260  144.6760 C   0  0  0  0  0  2  0  0  0  0  0  0
  182.4760  178.8770  141.8190 C   0  0  0  0  0  2  0  0  0  0  0  0
  181.9780  178.6080  144.2840 C   0  0  0  0  0  2  0  0  0  0  0  0
  180.1930  179.3740  142.6950 C   0  0  0  0  0  2  0  0  0  0  0  0
  179.9570  178.9310  141.2780 C   0  0  0  0  0  0  0  0  0  0  0  0
  179.8170  179.8300  140.3020 C   0  0  0  0  0  3  0  0  0  0  0  0
  179.5100  176.6740  141.8450 O   0  0  0  0  0  0  0  0  0  0  0  0
  179.8920  177.4910  140.9640 C   0  0  0  0  0  0  0  0  0  0  0  0
  180.2640  177.0180  139.6640 N   0  0  0  0  0  2  0  0  0  0  0  0
  180.1990  175.6120  139.2940 C   0  0  0  0  0  2  0  0  0  0  0  0
  181.4460  175.2130  138.6630 N   0  0  0  0  0  2  0  0  0  0  0  0
  182.4960  176.0050  139.2780 C   0  0  0  0  0  1  0  0  0  0  0  0
  179.8710  181.2320  140.5540 N   0  0  0  0  0  2  0  0  0  0  0  0
  178.9650  182.1270  139.8630 C   0  0  0  0  0  1  0  0  0  0  0  0
  189.2870  177.8940  141.0930 C   0  0  0  0  0  2  0  0  0  0  0  0
  189.0620  178.5210  138.8040 O   0  0  0  0  0  0  0  0  0  0  0  0
  188.9240  177.4380  139.6920 C   0  0  1  0  0  3  0  0  0  0  0  0
  190.1000  177.5690  138.8080 C   0  0  1  0  0  3  0  0  0  0  0  0
  189.9410  176.6530  137.6040 C   0  0  0  0  0  2  0  0  0  0  0  0
  191.1580  175.7520  137.3930 C   0  0  0  0  0  0  0  0  0  0  0  0
  191.3670  175.5930  136.0240 O   0  0  0  0  0  1  0  0  0  0  0  0
  190.9310  174.5000  137.9670 O   0  0  0  0  0  1  0  0  0  0  0  0
  192.3970  176.3760  138.0100 C   0  0  0  0  0  1  0  0  0  0  0  0
  1 10  1  0  0  0  0
  2 10  1  0  0  0  0
  3  8  1  0  0  0  0
  3  5  1  0  0  0  0
  4 31  1  6  0  0  0
  4  7  1  0  0  0  0
  4  1  1  0  0  0  0
  5 12  2  0  0  0  0
  6  1  2  0  0  0  0
  6 13  1  0  0  0  0
  7  2  1  0  0  0  0
  8  9  1  0  0  0  0
  9 11  2  0  0  0  0
 10  8  2  0  0  0  0
 12 11  1  0  0  0  0
 13  3  2  0  0  0  0
 14 20  1  6  0  0  0
 14 19  1  0  0  0  0
 15 13  1  1  0  0  0
 15 17  1  0  0  0  0
 16 15  1  0  0  0  0
 18 16  1  0  0  0  0
 18 14  1  0  0  0  0
 19 17  1  0  0  0  0
 21 20  1  0  0  0  0
 22 29  1  0  0  0  0
 22 21  2  0  0  0  0
 24 21  1  0  0  0  0
 24 23  2  0  0  0  0
 25 24  1  0  0  0  0
 26 25  1  0  0  0  0
 27 28  1  0  0  0  0
 27 26  1  0  0  0  0
 30 29  1  0  0  0  0
 32 34  1  0  0  0  0
 32 33  1  0  0  0  0
 33 31  1  1  0  0  0
 34 35  1  6  0  0  0
 34 33  1  0  0  0  0
 36 35  1  0  0  0  0
 36 38  1  0  0  0  0
 36 39  1  0  0  0  0
 37 36  1  0  0  0  0
M  END
>  <MODEL>
6

>  <REMARK>
 VINA RESULT:      -8.9      2.146      2.913
  Name = 
  11 active torsions:
  status: ('A' for Active; 'I' for Inactive)
    1  A    between atoms: C_1  and  C_2
    2  A    between atoms: C_1  and  C_28
    3  A    between atoms: C_3  and  C_30
    4  A    between atoms: C_6  and  C_38
    5  A    between atoms: C_9  and  C_18
    6  A    between atoms: C_9  and  C_30
    7  A    between atoms: C_11  and  C_25
    8  A    between atoms: N_13  and  C_26
    9  A    between atoms: C_17  and  C_25
   10  A    between atoms: C_20  and  N_29
   11  A    between atoms: C_20  and  N_37
                            x       y       z     vdW  Elec       q    Type
                         _______ _______ _______ _____ _____    ______ ____

>  <TORSDO>
F 11

$$$$
=
 OpenBabel10222420433D

 39 43  0  0  1  0  0  0  0  0999 V2000
  188.9390  177.2100  143.5970 C   0  0  0  0  0  0  0  0  0  0  0  0
  190.6810  177.1360  145.0900 C   0  0  0  0  0  2  0  0  0  0  0  0
  186.9250  177.8950  145.3890 C   0  0  0  0  0  0  0  0  0  0  0  0
  190.1630  176.8410  142.8660 C   0  0  2  0  0  3  0  0  0  0  0  0
  185.9340  178.2430  146.3200 C   0  0  0  0  0  3  0  0  0  0  0  0
  187.6390  177.3530  143.1150 C   0  0  0  0  0  3  0  0  0  0  0  0
  191.2240  176.8200  143.8140 O   0  0  0  0  0  0  0  0  0  0  0  0
  188.2640  177.7290  145.8370 C   0  0  0  0  0  0  0  0  0  0  0  0
  188.5800  177.9090  147.1890 C   0  0  0  0  0  3  0  0  0  0  0  0
  189.2400  177.3830  144.9000 C   0  0  0  0  0  0  0  0  0  0  0  0
  187.5790  178.2550  148.1000 C   0  0  0  0  0  3  0  0  0  0  0  0
  186.2610  178.4220  147.6670 C   0  0  0  0  0  3  0  0  0  0  0  0
  186.6130  177.7040  144.0170 C   0  0  0  0  0  0  0  0  0  0  0  0
  182.7450  178.6510  142.4200 C   0  0  2  0  0  3  0  0  0  0  0  0
  185.2080  177.8740  143.5120 C   0  0  1  0  0  3  0  0  0  0  0  0
  184.4450  178.9170  144.3300 C   0  0  0  0  0  2  0  0  0  0  0  0
  185.1930  178.1880  142.0080 C   0  0  0  0  0  2  0  0  0  0  0  0
  182.9760  179.0030  143.8960 C   0  0  0  0  0  2  0  0  0  0  0  0
  183.9660  178.9970  141.5690 C   0  0  0  0  0  2  0  0  0  0  0  0
  181.5090  179.3800  141.9130 C   0  0  0  0  0  2  0  0  0  0  0  0
  181.1890  178.9840  140.5000 C   0  0  0  0  0  0  0  0  0  0  0  0
  180.4930  177.8720  140.2480 C   0  0  0  0  0  3  0  0  0  0  0  0
  182.6100  179.4740  138.6680 O   0  0  0  0  0  0  0  0  0  0  0  0
  181.6360  179.8360  139.3820 C   0  0  0  0  0  0  0  0  0  0  0  0
  180.9710  181.0740  139.1080 N   0  0  0  0  0  2  0  0  0  0  0  0
  181.3560  181.9440  138.0060 C   0  0  0  0  0  2  0  0  0  0  0  0
  180.1750  182.3530  137.2670 N   0  0  0  0  0  2  0  0  0  0  0  0
  179.4970  183.3460  138.0820 C   0  0  0  0  0  1  0  0  0  0  0  0
  180.0390  177.0140  141.2930 N   0  0  0  0  0  2  0  0  0  0  0  0
  179.3280  175.7940  140.9690 C   0  0  0  0  0  1  0  0  0  0  0  0
  190.4560  177.8670  141.7800 C   0  0  0  0  0  2  0  0  0  0  0  0
  189.1530  176.6810  140.1740 O   0  0  0  0  0  0  0  0  0  0  0  0
  190.4350  177.2090  140.4130 C   0  0  1  0  0  3  0  0  0  0  0  0
  189.4620  177.9020  139.5450 C   0  0  1  0  0  3  0  0  0  0  0  0
  189.7990  177.6400  138.0840 C   0  0  0  0  0  2  0  0  0  0  0  0
  188.8570  178.3700  137.1280 C   0  0  0  0  0  0  0  0  0  0  0  0
  189.1280  177.9550  135.8260 O   0  0  0  0  0  1  0  0  0  0  0  0
  189.0610  179.7490  137.2180 O   0  0  0  0  0  1  0  0  0  0  0  0
  187.4090  178.0480  137.4540 C   0  0  0  0  0  1  0  0  0  0  0  0
  1 10  1  0  0  0  0
  3  8  1  0  0  0  0
  3  5  1  0  0  0  0
  4 31  1  6  0  0  0
  4  1  1  0  0  0  0
  4  7  1  0  0  0  0
  5 12  2  0  0  0  0
  6  1  2  0  0  0  0
  6 13  1  0  0  0  0
  7  2  1  0  0  0  0
  8  9  1  0  0  0  0
  9 11  2  0  0  0  0
 10  2  1  0  0  0  0
 10  8  2  0  0  0  0
 12 11  1  0  0  0  0
 13  3  2  0  0  0  0
 14 20  1  6  0  0  0
 14 18  1  0  0  0  0
 15 13  1  1  0  0  0
 15 16  1  0  0  0  0
 17 15  1  0  0  0  0
 18 16  1  0  0  0  0
 19 17  1  0  0  0  0
 19 14  1  0  0  0  0
 21 20  1  0  0  0  0
 22 21  2  0  0  0  0
 22 29  1  0  0  0  0
 23 24  2  0  0  0  0
 24 21  1  0  0  0  0
 25 24  1  0  0  0  0
 26 25  1  0  0  0  0
 27 26  1  0  0  0  0
 27 28  1  0  0  0  0
 30 29  1  0  0  0  0
 32 33  1  0  0  0  0
 33 31  1  1  0  0  0
 34 35  1  6  0  0  0
 34 32  1  0  0  0  0
 34 33  1  0  0  0  0
 36 38  1  0  0  0  0
 36 39  1  0  0  0  0
 36 35  1  0  0  0  0
 37 36  1  0  0  0  0
M  END
>  <MODEL>
7

>  <REMARK>
 VINA RESULT:      -8.9      1.694      2.203
  Name = 
  11 active torsions:
  status: ('A' for Active; 'I' for Inactive)
    1  A    between atoms: C_1  and  C_2
    2  A    between atoms: C_1  and  C_28
    3  A    between atoms: C_3  and  C_30
    4  A    between atoms: C_6  and  C_38
    5  A    between atoms: C_9  and  C_18
    6  A    between atoms: C_9  and  C_30
    7  A    between atoms: C_11  and  C_25
    8  A    between atoms: N_13  and  C_26
    9  A    between atoms: C_17  and  C_25
   10  A    between atoms: C_20  and  N_29
   11  A    between atoms: C_20  and  N_37
                            x       y       z     vdW  Elec       q    Type
                         _______ _______ _______ _____ _____    ______ ____

>  <TORSDO>
F 11

$$$$
=
 OpenBabel10222420433D

 39 43  0  0  1  0  0  0  0  0999 V2000
  186.4600  177.9730  145.5240 C   0  0  0  0  0  0  0  0  0  0  0  0
  184.5430  178.5090  146.6680 C   0  0  0  0  0  2  0  0  0  0  0  0
  185.4530  178.2260  142.9440 C   0  0  0  0  0  0  0  0  0  0  0  0
  186.7420  177.8940  146.9680 C   0  0  2  0  0  3  0  0  0  0  0  0
  184.9120  178.3660  141.6560 C   0  0  0  0  0  3  0  0  0  0  0  0
  187.3080  177.7100  144.4500 C   0  0  0  0  0  3  0  0  0  0  0  0
  185.5420  178.2470  147.6460 O   0  0  0  0  0  0  0  0  0  0  0  0
  184.6220  178.4740  144.0710 C   0  0  0  0  0  0  0  0  0  0  0  0
  183.2860  178.8490  143.8900 C   0  0  0  0  0  3  0  0  0  0  0  0
  185.1720  178.3320  145.3460 C   0  0  0  0  0  0  0  0  0  0  0  0
  182.7660  178.9820  142.5990 C   0  0  0  0  0  3  0  0  0  0  0  0
  183.5770  178.7430  141.4870 C   0  0  0  0  0  3  0  0  0  0  0  0
  186.8050  177.8400  143.1380 C   0  0  0  0  0  0  0  0  0  0  0  0
  189.7630  177.2520  140.0860 C   0  0  2  0  0  3  0  0  0  0  0  0
  187.7090  177.5720  141.9680 C   0  0  1  0  0  3  0  0  0  0  0  0
  188.2210  178.8750  141.3500 C   0  0  0  0  0  2  0  0  0  0  0  0
  188.8530  176.6230  142.3560 C   0  0  0  0  0  2  0  0  0  0  0  0
  189.0420  178.6070  140.0820 C   0  0  0  0  0  2  0  0  0  0  0  0
  190.1160  176.8160  141.5080 C   0  0  0  0  0  2  0  0  0  0  0  0
  191.0130  177.3410  139.2230 C   0  0  0  0  0  2  0  0  0  0  0  0
  190.8460  176.5660  137.9470 C   0  0  0  0  0  0  0  0  0  0  0  0
  190.0720  177.0340  136.9660 C   0  0  0  0  0  3  0  0  0  0  0  0
  190.9340  174.1980  137.9510 O   0  0  0  0  0  0  0  0  0  0  0  0
  191.5520  175.2830  137.7730 C   0  0  0  0  0  0  0  0  0  0  0  0
  192.9370  175.2650  137.4080 N   0  0  0  0  0  2  0  0  0  0  0  0
  193.6770  174.0290  137.2030 C   0  0  0  0  0  2  0  0  0  0  0  0
  194.5400  173.7780  138.3450 N   0  0  0  0  0  2  0  0  0  0  0  0
  195.5210  172.7960  137.9180 C   0  0  0  0  0  1  0  0  0  0  0  0
  189.3670  178.2690  137.0840 N   0  0  0  0  0  2  0  0  0  0  0  0
  188.0990  178.4460  136.4060 C   0  0  0  0  0  1  0  0  0  0  0  0
  187.8540  178.8640  147.3390 C   0  0  0  0  0  2  0  0  0  0  0  0
  188.7740  176.7640  147.9940 O   0  0  0  0  0  0  0  0  0  0  0  0
  188.9240  178.1540  148.1470 C   0  0  1  0  0  3  0  0  0  0  0  0
  189.7940  177.3760  147.2420 C   0  0  1  0  0  3  0  0  0  0  0  0
  191.1340  177.1170  147.9140 C   0  0  0  0  0  2  0  0  0  0  0  0
  191.8190  175.8590  147.3820 C   0  0  0  0  0  0  0  0  0  0  0  0
  192.0580  176.0200  146.0180 O   0  0  0  0  0  1  0  0  0  0  0  0
  190.9950  174.7480  147.5720 O   0  0  0  0  0  1  0  0  0  0  0  0
  193.1450  175.6340  148.0880 C   0  0  0  0  0  1  0  0  0  0  0  0
  1  4  1  0  0  0  0
  2  7  1  0  0  0  0
  3 13  2  0  0  0  0
  3  8  1  0  0  0  0
  4 31  1  6  0  0  0
  4  7  1  0  0  0  0
  5  3  1  0  0  0  0
  6  1  2  0  0  0  0
  8 10  2  0  0  0  0
  9  8  1  0  0  0  0
 10  1  1  0  0  0  0
 10  2  1  0  0  0  0
 11  9  2  0  0  0  0
 12  5  2  0  0  0  0
 12 11  1  0  0  0  0
 13  6  1  0  0  0  0
 14 20  1  6  0  0  0
 14 19  1  0  0  0  0
 15 17  1  0  0  0  0
 15 13  1  1  0  0  0
 16 15  1  0  0  0  0
 18 14  1  0  0  0  0
 18 16  1  0  0  0  0
 19 17  1  0  0  0  0
 21 20  1  0  0  0  0
 22 29  1  0  0  0  0
 22 21  2  0  0  0  0
 24 21  1  0  0  0  0
 24 23  2  0  0  0  0
 25 24  1  0  0  0  0
 26 25  1  0  0  0  0
 26 27  1  0  0  0  0
 28 27  1  0  0  0  0
 30 29  1  0  0  0  0
 32 33  1  0  0  0  0
 33 31  1  6  0  0  0
 34 35  1  1  0  0  0
 34 32  1  0  0  0  0
 34 33  1  0  0  0  0
 36 38  1  0  0  0  0
 36 35  1  0  0  0  0
 36 39  1  0  0  0  0
 37 36  1  0  0  0  0
M  END
>  <MODEL>
8

>  <REMARK>
 VINA RESULT:      -8.5      3.721      8.619
  Name = 
  11 active torsions:
  status: ('A' for Active; 'I' for Inactive)
    1  A    between atoms: C_1  and  C_2
    2  A    between atoms: C_1  and  C_28
    3  A    between atoms: C_3  and  C_30
    4  A    between atoms: C_6  and  C_38
    5  A    between atoms: C_9  and  C_18
    6  A    between atoms: C_9  and  C_30
    7  A    between atoms: C_11  and  C_25
    8  A    between atoms: N_13  and  C_26
    9  A    between atoms: C_17  and  C_25
   10  A    between atoms: C_20  and  N_29
   11  A    between atoms: C_20  and  N_37
                            x       y       z     vdW  Elec       q    Type
                         _______ _______ _______ _____ _____    ______ ____

>  <TORSDO>
F 11

$$$$
=
 OpenBabel10222420433D

 39 43  0  0  1  0  0  0  0  0999 V2000
  188.8080  177.9350  141.3770 C   0  0  0  0  0  0  0  0  0  0  0  0
  190.6340  177.4950  140.0570 C   0  0  0  0  0  2  0  0  0  0  0  0
  186.9320  178.2520  139.3480 C   0  0  0  0  0  0  0  0  0  0  0  0
  189.9770  177.7350  142.2510 C   0  0  2  0  0  3  0  0  0  0  0  0
  186.0120  178.4040  138.3000 C   0  0  0  0  0  3  0  0  0  0  0  0
  187.4960  178.2470  141.7270 C   0  0  0  0  0  3  0  0  0  0  0  0
  191.0850  177.4500  141.4040 O   0  0  0  0  0  0  0  0  0  0  0  0
  188.2850  177.9440  139.0380 C   0  0  0  0  0  0  0  0  0  0  0  0
  188.6850  177.7970  137.7050 C   0  0  0  0  0  3  0  0  0  0  0  0
  189.1910  177.7960  140.0910 C   0  0  0  0  0  0  0  0  0  0  0  0
  187.7530  177.9520  136.6760 C   0  0  0  0  0  3  0  0  0  0  0  0
  186.4210  178.2530  136.9720 C   0  0  0  0  0  3  0  0  0  0  0  0
  186.5380  178.4060  140.7040 C   0  0  0  0  0  0  0  0  0  0  0  0
  182.4990  178.9400  142.0500 C   0  0  2  0  0  3  0  0  0  0  0  0
  185.1160  178.7310  141.0630 C   0  0  1  0  0  3  0  0  0  0  0  0
  184.1540  177.6510  140.5650 C   0  0  0  0  0  2  0  0  0  0  0  0
  184.9690  178.9900  142.5710 C   0  0  0  0  0  2  0  0  0  0  0  0
  182.6930  178.0400  140.8220 C   0  0  0  0  0  2  0  0  0  0  0  0
  183.5690  178.6720  143.1080 C   0  0  0  0  0  2  0  0  0  0  0  0
  181.1070  178.7220  142.6230 C   0  0  0  0  0  2  0  0  0  0  0  0
  180.0480  178.9970  141.5930 C   0  0  0  0  0  0  0  0  0  0  0  0
  179.2190  178.0290  141.1970 C   0  0  0  0  0  3  0  0  0  0  0  0
  179.4900  181.2960  141.7420 O   0  0  0  0  0  0  0  0  0  0  0  0
  179.9180  180.3520  141.0230 C   0  0  0  0  0  0  0  0  0  0  0  0
  180.2700  180.5980  139.6570 N   0  0  0  0  0  2  0  0  0  0  0  0
  180.1800  181.9170  139.0500 C   0  0  0  0  0  2  0  0  0  0  0  0
  181.2660  182.0960  138.1010 N   0  0  0  0  0  2  0  0  0  0  0  0
  180.7990  183.0460  137.1070 C   0  0  0  0  0  1  0  0  0  0  0  0
  179.3040  176.7040  141.7160 N   0  0  0  0  0  2  0  0  0  0  0  0
  179.3050  175.5710  140.8130 C   0  0  0  0  0  1  0  0  0  0  0  0
  189.7320  176.5700  143.1980 C   0  0  0  0  0  2  0  0  0  0  0  0
  189.6830  178.2210  144.9170 O   0  0  0  0  0  0  0  0  0  0  0  0
  190.1620  176.9360  144.6070 C   0  0  1  0  0  3  0  0  0  0  0  0
  188.9690  177.1330  145.4530 C   0  0  1  0  0  3  0  0  0  0  0  0
  189.3450  176.9630  146.9180 C   0  0  0  0  0  2  0  0  0  0  0  0
  188.3680  177.6700  147.8570 C   0  0  0  0  0  0  0  0  0  0  0  0
  189.0280  178.7330  148.4730 O   0  0  0  0  0  1  0  0  0  0  0  0
  187.9200  176.7830  148.8370 O   0  0  0  0  0  1  0  0  0  0  0  0
  187.1810  178.2130  147.0810 C   0  0  0  0  0  1  0  0  0  0  0  0
  1  6  1  0  0  0  0
  1  4  1  0  0  0  0
  2 10  1  0  0  0  0
  2  7  1  0  0  0  0
  3 13  1  0  0  0  0
  4 31  1  1  0  0  0
  5  3  2  0  0  0  0
  7  4  1  0  0  0  0
  8  3  1  0  0  0  0
  8 10  1  0  0  0  0
  9  8  2  0  0  0  0
 10  1  2  0  0  0  0
 11 12  2  0  0  0  0
 11  9  1  0  0  0  0
 12  5  1  0  0  0  0
 13  6  2  0  0  0  0
 14 20  1  1  0  0  0
 14 19  1  0  0  0  0
 15 13  1  1  0  0  0
 15 17  1  0  0  0  0
 16 18  1  0  0  0  0
 16 15  1  0  0  0  0
 17 19  1  0  0  0  0
 18 14  1  0  0  0  0
 21 20  1  0  0  0  0
 22 21  2  0  0  0  0
 22 29  1  0  0  0  0
 24 21  1  0  0  0  0
 24 23  2  0  0  0  0
 25 24  1  0  0  0  0
 26 25  1  0  0  0  0
 27 26  1  0  0  0  0
 28 27  1  0  0  0  0
 30 29  1  0  0  0  0
 32 34  1  0  0  0  0
 33 31  1  6  0  0  0
 33 32  1  0  0  0  0
 33 34  1  0  0  0  0
 34 35  1  1  0  0  0
 35 36  1  0  0  0  0
 36 37  1  0  0  0  0
 36 38  1  0  0  0  0
 39 36  1  0  0  0  0
M  END
>  <MODEL>
9

>  <REMARK>
 VINA RESULT:      -8.5      2.433      6.157
  Name = 
  11 active torsions:
  status: ('A' for Active; 'I' for Inactive)
    1  A    between atoms: C_1  and  C_2
    2  A    between atoms: C_1  and  C_28
    3  A    between atoms: C_3  and  C_30
    4  A    between atoms: C_6  and  C_38
    5  A    between atoms: C_9  and  C_18
    6  A    between atoms: C_9  and  C_30
    7  A    between atoms: C_11  and  C_25
    8  A    between atoms: N_13  and  C_26
    9  A    between atoms: C_17  and  C_25
   10  A    between atoms: C_20  and  N_29
   11  A    between atoms: C_20  and  N_37
                            x       y       z     vdW  Elec       q    Type
                         _______ _______ _______ _____ _____    ______ ____

>  <TORSDO>
F 11

$$$$
