=
 OpenBabel10222420193D

 27 28  0  0  1  0  0  0  0  0999 V2000
  190.7110  176.8440  142.5000 C   0  0  0  0  0  0  0  0  0  0  0  0
  189.3660  176.8010  142.3370 C   0  0  0  0  0  0  0  0  0  0  0  0
  189.2320  177.5670  138.7500 O   0  0  0  0  0  0  0  0  0  0  0  0
  191.5830  177.2990  141.3930 C   0  0  0  0  0  3  0  0  0  0  0  0
  191.1000  177.5800  140.1860 C   0  0  0  0  0  3  0  0  0  0  0  0
  189.6630  177.4750  139.9290 C   0  0  0  0  0  0  0  0  0  0  0  0
  188.7010  177.3090  141.0730 C   0  0  2  0  0  3  0  0  0  0  0  0
  191.6140  175.1020  143.9080 O   0  0  0  0  0  1  0  0  0  0  0  0
  191.5690  177.3210  144.8140 C   0  0  0  0  0  0  0  0  0  0  0  0
  192.0170  176.8350  146.0360 O   0  0  0  0  0  1  0  0  0  0  0  0
  191.3290  176.4150  143.7290 N   0  0  0  0  0  0  0  0  0  0  0  0
  191.4020  178.5610  144.6670 O   0  0  0  0  0  0  0  0  0  0  0  0
  188.4780  176.2080  143.3920 C   0  0  0  0  0  2  0  0  0  0  0  0
  188.0170  177.9400  145.3080 N   0  0  0  0  0  0  0  0  0  0  0  0
  188.2200  177.1760  144.4640 C   0  0  0  0  0  0  0  0  0  0  0  0
  188.0010  178.6390  141.3450 C   0  0  0  0  0  2  0  0  0  0  0  0
  186.4830  178.5000  141.3430 C   0  0  2  0  0  3  0  0  0  0  0  0
  185.9640  178.8000  140.0960 F   0  0  0  0  0  0  0  0  0  0  0  0
  185.8500  179.3810  142.4120 C   0  0  0  0  0  2  0  0  0  0  0  0
  182.6630  178.9810  143.1780 C   0  0  0  0  0  0  0  0  0  0  0  0
  183.6150  178.4250  142.5150 N   0  0  0  0  0  0  0  0  0  0  0  0
  183.0690  179.5620  144.3590 O   0  0  0  0  0  0  0  0  0  0  0  0
  184.8600  178.5890  143.2540 C   0  0  2  0  0  3  0  0  0  0  0  0
  184.4680  179.3840  144.5060 C   0  0  2  0  0  3  0  0  0  0  0  0
  181.2540  178.9910  142.7030 C   0  0  0  0  0  1  0  0  0  0  0  0
  184.7550  178.5570  145.7460 C   0  0  0  0  0  2  0  0  0  0  0  0
  185.2830  179.3740  146.7460 O   0  0  0  0  0  1  0  0  0  0  0  0
  1 11  1  0  0  0  0
  2  1  2  0  0  0  0
  2 13  1  0  0  0  0
  3  6  2  0  0  0  0
  4  1  1  0  0  0  0
  5  4  2  0  0  0  0
  6  5  1  0  0  0  0
  6  7  1  0  0  0  0
  7 16  1  1  0  0  0
  7  2  1  0  0  0  0
  9 10  1  0  0  0  0
 11  8  1  0  0  0  0
 11  9  1  0  0  0  0
 12  9  2  0  0  0  0
 13 15  1  0  0  0  0
 15 14  3  0  0  0  0
 17 18  1  6  0  0  0
 17 16  1  0  0  0  0
 17 19  1  0  0  0  0
 20 22  1  0  0  0  0
 21 20  2  0  0  0  0
 21 23  1  0  0  0  0
 22 24  1  0  0  0  0
 23 19  1  6  0  0  0
 23 24  1  0  0  0  0
 24 26  1  1  0  0  0
 25 20  1  0  0  0  0
 26 27  1  0  0  0  0
M  END
>  <MODEL>
1

>  <REMARK>
 VINA RESULT:      -7.3      0.000      0.000
  Name = 
  8 active torsions:
  status: ('A' for Active; 'I' for Inactive)
    1  A    between atoms: C_1  and  N_20
    2  A    between atoms: C_2  and  C_5
    3  A    between atoms: C_2  and  C_19
    4  A    between atoms: C_3  and  C_23
    5  A    between atoms: C_5  and  C_21
    6  A    between atoms: C_9  and  C_17
    7  A    between atoms: C_17  and  C_22
    8  A    between atoms: C_19  and  C_24
                            x       y       z     vdW  Elec       q    Type
                         _______ _______ _______ _____ _____    ______ ____

>  <TORSDO>
F 8

$$$$
=
 OpenBabel10222420193D

 27 28  0  0  1  0  0  0  0  0999 V2000
  188.6230  178.1190  139.4500 C   0  0  0  0  0  0  0  0  0  0  0  0
  189.7120  177.4910  139.9580 C   0  0  0  0  0  0  0  0  0  0  0  0
  188.3170  176.5450  143.2180 O   0  0  0  0  0  0  0  0  0  0  0  0
  187.4370  178.3610  140.3010 C   0  0  0  0  0  3  0  0  0  0  0  0
  187.3520  177.8910  141.5430 C   0  0  0  0  0  3  0  0  0  0  0  0
  188.4670  177.1370  142.1180 C   0  0  0  0  0  0  0  0  0  0  0  0
  189.8010  177.1110  141.4230 C   0  0  2  0  0  3  0  0  0  0  0  0
  189.0910  179.7300  137.7120 O   0  0  0  0  0  1  0  0  0  0  0  0
  187.9080  177.7460  137.0700 C   0  0  0  0  0  0  0  0  0  0  0  0
  187.7450  178.2550  135.7870 O   0  0  0  0  0  0  0  0  0  0  0  0
  188.5740  178.5290  138.0700 N   0  0  0  0  0  0  0  0  0  0  0  0
  187.4880  176.5880  137.3320 O   0  0  0  0  0  1  0  0  0  0  0  0
  190.8650  177.1080  139.0760 C   0  0  0  0  0  2  0  0  0  0  0  0
  190.4760  174.7470  138.0000 N   0  0  0  0  0  0  0  0  0  0  0  0
  190.6470  175.7870  138.4730 C   0  0  0  0  0  0  0  0  0  0  0  0
  190.7700  178.0420  142.1500 C   0  0  0  0  0  2  0  0  0  0  0  0
  191.5750  177.3110  143.2180 C   0  0  2  0  0  3  0  0  0  0  0  0
  191.2950  175.9570  143.2030 F   0  0  0  0  0  0  0  0  0  0  0  0
  191.3130  177.8960  144.6000 C   0  0  0  0  0  2  0  0  0  0  0  0
  189.5200  177.2930  147.3050 C   0  0  0  0  0  0  0  0  0  0  0  0
  189.4930  177.1440  146.0280 N   0  0  0  0  0  0  0  0  0  0  0  0
  190.7670  177.1160  147.8630 O   0  0  0  0  0  0  0  0  0  0  0  0
  190.8360  176.8200  145.5640 C   0  0  2  0  0  3  0  0  0  0  0  0
  191.6970  176.8220  146.8340 C   0  0  2  0  0  3  0  0  0  0  0  0
  188.3090  177.6260  148.1000 C   0  0  0  0  0  1  0  0  0  0  0  0
  192.2860  175.4400  147.0510 C   0  0  0  0  0  2  0  0  0  0  0  0
  193.1730  175.4680  148.1280 O   0  0  0  0  0  1  0  0  0  0  0  0
  1  2  2  0  0  0  0
  1  4  1  0  0  0  0
  2  7  1  0  0  0  0
  4  5  2  0  0  0  0
  5  6  1  0  0  0  0
  6  3  2  0  0  0  0
  7  6  1  0  0  0  0
  7 16  1  1  0  0  0
  8 11  1  0  0  0  0
  9 12  1  0  0  0  0
  9 11  1  0  0  0  0
 10  9  2  0  0  0  0
 11  1  1  0  0  0  0
 13  2  1  0  0  0  0
 14 15  3  0  0  0  0
 15 13  1  0  0  0  0
 16 17  1  0  0  0  0
 17 18  1  1  0  0  0
 17 19  1  0  0  0  0
 20 22  1  0  0  0  0
 20 25  1  0  0  0  0
 21 20  2  0  0  0  0
 23 19  1  6  0  0  0
 23 21  1  0  0  0  0
 23 24  1  0  0  0  0
 24 26  1  1  0  0  0
 24 22  1  0  0  0  0
 26 27  1  0  0  0  0
M  END
>  <MODEL>
2

>  <REMARK>
 VINA RESULT:      -7.2      3.569      6.830
  Name = 
  8 active torsions:
  status: ('A' for Active; 'I' for Inactive)
    1  A    between atoms: C_1  and  N_20
    2  A    between atoms: C_2  and  C_5
    3  A    between atoms: C_2  and  C_19
    4  A    between atoms: C_3  and  C_23
    5  A    between atoms: C_5  and  C_21
    6  A    between atoms: C_9  and  C_17
    7  A    between atoms: C_17  and  C_22
    8  A    between atoms: C_19  and  C_24
                            x       y       z     vdW  Elec       q    Type
                         _______ _______ _______ _____ _____    ______ ____

>  <TORSDO>
F 8

$$$$
=
 OpenBabel10222420193D

 27 28  0  0  1  0  0  0  0  0999 V2000
  190.2720  176.5720  146.6810 C   0  0  0  0  0  0  0  0  0  0  0  0
  189.9970  177.2150  145.5190 C   0  0  0  0  0  0  0  0  0  0  0  0
  186.7240  178.6040  146.4310 O   0  0  0  0  0  0  0  0  0  0  0  0
  189.2460  176.4820  147.7450 C   0  0  0  0  0  3  0  0  0  0  0  0
  188.0730  177.1030  147.6470 C   0  0  0  0  0  3  0  0  0  0  0  0
  187.7520  177.8770  146.4470 C   0  0  0  0  0  0  0  0  0  0  0  0
  188.6160  177.7660  145.2220 C   0  0  2  0  0  3  0  0  0  0  0  0
  191.9900  174.9510  146.1810 O   0  0  0  0  0  1  0  0  0  0  0  0
  192.4010  176.4450  148.0100 C   0  0  0  0  0  0  0  0  0  0  0  0
  193.5710  175.7590  148.3110 O   0  0  0  0  0  0  0  0  0  0  0  0
  191.5700  176.0000  146.9290 N   0  0  0  0  0  0  0  0  0  0  0  0
  192.0960  177.4680  148.6790 O   0  0  0  0  0  1  0  0  0  0  0  0
  191.0660  177.4430  144.4910 C   0  0  0  0  0  2  0  0  0  0  0  0
  191.2540  179.9880  143.8830 N   0  0  0  0  0  0  0  0  0  0  0  0
  191.1710  178.8670  144.1500 C   0  0  0  0  0  0  0  0  0  0  0  0
  187.9140  176.8940  144.1830 C   0  0  0  0  0  2  0  0  0  0  0  0
  187.8000  177.5900  142.8310 C   0  0  2  0  0  3  0  0  0  0  0  0
  186.4760  177.6950  142.4440 F   0  0  0  0  0  0  0  0  0  0  0  0
  188.6110  176.8610  141.7680 C   0  0  0  0  0  2  0  0  0  0  0  0
  189.3320  178.2160  138.8450 C   0  0  0  0  0  0  0  0  0  0  0  0
  188.7920  178.4980  139.9780 N   0  0  0  0  0  0  0  0  0  0  0  0
  190.4220  177.3790  138.9380 O   0  0  0  0  0  0  0  0  0  0  0  0
  189.5340  177.8230  141.0340 C   0  0  2  0  0  3  0  0  0  0  0  0
  190.6370  177.0490  140.3000 C   0  0  2  0  0  3  0  0  0  0  0  0
  188.8190  178.7500  137.5560 C   0  0  0  0  0  1  0  0  0  0  0  0
  191.9970  177.5550  140.7460 C   0  0  0  0  0  2  0  0  0  0  0  0
  192.9630  177.2070  139.8010 O   0  0  0  0  0  1  0  0  0  0  0  0
  1 11  1  0  0  0  0
  1  4  1  0  0  0  0
  2  1  2  0  0  0  0
  3  6  2  0  0  0  0
  5  4  2  0  0  0  0
  6  5  1  0  0  0  0
  7 16  1  6  0  0  0
  7  2  1  0  0  0  0
  7  6  1  0  0  0  0
  8 11  1  0  0  0  0
  9 10  2  0  0  0  0
  9 12  1  0  0  0  0
 11  9  1  0  0  0  0
 13  2  1  0  0  0  0
 14 15  3  0  0  0  0
 15 13  1  0  0  0  0
 17 18  1  6  0  0  0
 17 16  1  0  0  0  0
 19 17  1  0  0  0  0
 20 22  1  0  0  0  0
 20 21  2  0  0  0  0
 21 23  1  0  0  0  0
 22 24  1  0  0  0  0
 23 19  1  6  0  0  0
 24 26  1  1  0  0  0
 24 23  1  0  0  0  0
 25 20  1  0  0  0  0
 27 26  1  0  0  0  0
M  END
>  <MODEL>
3

>  <REMARK>
 VINA RESULT:      -7.2      3.045      5.923
  Name = 
  8 active torsions:
  status: ('A' for Active; 'I' for Inactive)
    1  A    between atoms: C_1  and  N_20
    2  A    between atoms: C_2  and  C_5
    3  A    between atoms: C_2  and  C_19
    4  A    between atoms: C_3  and  C_23
    5  A    between atoms: C_5  and  C_21
    6  A    between atoms: C_9  and  C_17
    7  A    between atoms: C_17  and  C_22
    8  A    between atoms: C_19  and  C_24
                            x       y       z     vdW  Elec       q    Type
                         _______ _______ _______ _____ _____    ______ ____

>  <TORSDO>
F 8

$$$$
=
 OpenBabel10222420193D

 27 28  0  0  1  0  0  0  0  0999 V2000
  187.8410  177.4840  145.6960 C   0  0  0  0  0  0  0  0  0  0  0  0
  188.7590  177.6130  144.7070 C   0  0  0  0  0  0  0  0  0  0  0  0
  186.4770  178.4450  141.9560 O   0  0  0  0  0  0  0  0  0  0  0  0
  186.3950  177.5290  145.3820 C   0  0  0  0  0  3  0  0  0  0  0  0
  185.9470  177.7940  144.1570 C   0  0  0  0  0  3  0  0  0  0  0  0
  186.8950  178.0210  143.0650 C   0  0  0  0  0  0  0  0  0  0  0  0
  188.3520  177.7000  143.2490 C   0  0  2  0  0  3  0  0  0  0  0  0
  189.0510  176.3150  147.4290 O   0  0  0  0  0  1  0  0  0  0  0  0
  187.7320  178.1990  148.1030 C   0  0  0  0  0  0  0  0  0  0  0  0
  188.0170  177.9270  149.4350 O   0  0  0  0  0  1  0  0  0  0  0  0
  188.2400  177.3410  147.0730 N   0  0  0  0  0  0  0  0  0  0  0  0
  187.0470  179.2160  147.8140 O   0  0  0  0  0  0  0  0  0  0  0  0
  190.2240  177.7150  145.0210 C   0  0  0  0  0  2  0  0  0  0  0  0
  191.2840  179.8210  143.8700 N   0  0  0  0  0  0  0  0  0  0  0  0
  190.8160  178.8940  144.3780 C   0  0  0  0  0  0  0  0  0  0  0  0
  188.6790  176.3910  142.5330 C   0  0  0  0  0  2  0  0  0  0  0  0
  189.7930  176.5610  141.5060 C   0  0  2  0  0  3  0  0  0  0  0  0
  191.0230  176.2530  142.0620 F   0  0  0  0  0  0  0  0  0  0  0  0
  189.8040  177.9730  140.9360 C   0  0  0  0  0  2  0  0  0  0  0  0
  187.6800  177.8050  138.4130 C   0  0  0  0  0  0  0  0  0  0  0  0
  188.4450  178.6350  139.0300 N   0  0  0  0  0  0  0  0  0  0  0  0
  188.2070  176.5370  138.3000 O   0  0  0  0  0  0  0  0  0  0  0  0
  189.6680  177.9470  139.4200 C   0  0  2  0  0  3  0  0  0  0  0  0
  189.4790  176.5070  138.9250 C   0  0  2  0  0  3  0  0  0  0  0  0
  186.3480  178.1870  137.8750 C   0  0  0  0  0  1  0  0  0  0  0  0
  190.5500  176.1760  137.9020 C   0  0  0  0  0  2  0  0  0  0  0  0
  191.2490  175.0360  138.3010 O   0  0  0  0  0  1  0  0  0  0  0  0
  1 11  1  0  0  0  0
  2 13  1  0  0  0  0
  2  1  2  0  0  0  0
  3  6  2  0  0  0  0
  4  1  1  0  0  0  0
  5  4  2  0  0  0  0
  6  7  1  0  0  0  0
  6  5  1  0  0  0  0
  7 16  1  1  0  0  0
  7  2  1  0  0  0  0
  9 10  1  0  0  0  0
 11  8  1  0  0  0  0
 11  9  1  0  0  0  0
 12  9  2  0  0  0  0
 14 15  3  0  0  0  0
 15 13  1  0  0  0  0
 17 18  1  1  0  0  0
 17 16  1  0  0  0  0
 19 17  1  0  0  0  0
 20 21  2  0  0  0  0
 21 23  1  0  0  0  0
 22 20  1  0  0  0  0
 22 24  1  0  0  0  0
 23 19  1  1  0  0  0
 24 26  1  6  0  0  0
 24 23  1  0  0  0  0
 25 20  1  0  0  0  0
 26 27  1  0  0  0  0
M  END
>  <MODEL>
4

>  <REMARK>
 VINA RESULT:      -7.2      2.959      5.857
  Name = 
  8 active torsions:
  status: ('A' for Active; 'I' for Inactive)
    1  A    between atoms: C_1  and  N_20
    2  A    between atoms: C_2  and  C_5
    3  A    between atoms: C_2  and  C_19
    4  A    between atoms: C_3  and  C_23
    5  A    between atoms: C_5  and  C_21
    6  A    between atoms: C_9  and  C_17
    7  A    between atoms: C_17  and  C_22
    8  A    between atoms: C_19  and  C_24
                            x       y       z     vdW  Elec       q    Type
                         _______ _______ _______ _____ _____    ______ ____

>  <TORSDO>
F 8

$$$$
=
 OpenBabel10222420193D

 27 28  0  0  1  0  0  0  0  0999 V2000
  187.9070  177.4590  145.8800 C   0  0  0  0  0  0  0  0  0  0  0  0
  188.8630  177.5540  144.9240 C   0  0  0  0  0  0  0  0  0  0  0  0
  186.6880  178.2510  142.0510 O   0  0  0  0  0  0  0  0  0  0  0  0
  186.4740  177.4790  145.5060 C   0  0  0  0  0  3  0  0  0  0  0  0
  186.0750  177.6900  144.2550 C   0  0  0  0  0  3  0  0  0  0  0  0
  187.0640  177.8780  143.1930 C   0  0  0  0  0  0  0  0  0  0  0  0
  188.5150  177.5770  143.4480 C   0  0  2  0  0  3  0  0  0  0  0  0
  189.0480  176.3690  147.7080 O   0  0  0  0  0  1  0  0  0  0  0  0
  187.7020  178.2790  148.2470 C   0  0  0  0  0  0  0  0  0  0  0  0
  187.9340  178.0650  149.5990 O   0  0  0  0  0  1  0  0  0  0  0  0
  188.2510  177.3770  147.2760 N   0  0  0  0  0  0  0  0  0  0  0  0
  187.0290  179.2810  147.8870 O   0  0  0  0  0  0  0  0  0  0  0  0
  190.3130  177.6810  145.2910 C   0  0  0  0  0  2  0  0  0  0  0  0
  191.4480  179.6420  143.9680 N   0  0  0  0  0  0  0  0  0  0  0  0
  190.9470  178.7780  144.5510 C   0  0  0  0  0  0  0  0  0  0  0  0
  188.8780  176.2410  142.8010 C   0  0  0  0  0  2  0  0  0  0  0  0
  190.0250  176.3790  141.8060 C   0  0  2  0  0  3  0  0  0  0  0  0
  191.2300  176.5450  142.4660 F   0  0  0  0  0  0  0  0  0  0  0  0
  189.7800  177.5320  140.8420 C   0  0  0  0  0  2  0  0  0  0  0  0
  190.7910  176.6470  137.8260 C   0  0  0  0  0  0  0  0  0  0  0  0
  190.3670  176.1450  138.9310 N   0  0  0  0  0  0  0  0  0  0  0  0
  190.1800  177.8320  137.4800 O   0  0  0  0  0  0  0  0  0  0  0  0
  189.3370  177.0170  139.4800 C   0  0  2  0  0  3  0  0  0  0  0  0
  189.2350  178.1750  138.4790 C   0  0  2  0  0  3  0  0  0  0  0  0
  191.8470  176.0000  137.0030 C   0  0  0  0  0  1  0  0  0  0  0  0
  187.8400  178.2090  137.8800 C   0  0  0  0  0  2  0  0  0  0  0  0
  186.9230  178.6280  138.8450 O   0  0  0  0  0  1  0  0  0  0  0  0
  1 11  1  0  0  0  0
  2 13  1  0  0  0  0
  2  1  2  0  0  0  0
  3  6  2  0  0  0  0
  4  1  1  0  0  0  0
  5  4  2  0  0  0  0
  6  7  1  0  0  0  0
  6  5  1  0  0  0  0
  7 16  1  1  0  0  0
  7  2  1  0  0  0  0
  9 10  1  0  0  0  0
 11  8  1  0  0  0  0
 11  9  1  0  0  0  0
 12  9  2  0  0  0  0
 14 15  3  0  0  0  0
 15 13  1  0  0  0  0
 17 18  1  1  0  0  0
 17 16  1  0  0  0  0
 19 17  1  0  0  0  0
 20 21  2  0  0  0  0
 21 23  1  0  0  0  0
 22 20  1  0  0  0  0
 22 24  1  0  0  0  0
 23 19  1  1  0  0  0
 24 26  1  6  0  0  0
 24 23  1  0  0  0  0
 25 20  1  0  0  0  0
 26 27  1  0  0  0  0
M  END
>  <MODEL>
5

>  <REMARK>
 VINA RESULT:      -6.9      3.103      6.270
  Name = 
  8 active torsions:
  status: ('A' for Active; 'I' for Inactive)
    1  A    between atoms: C_1  and  N_20
    2  A    between atoms: C_2  and  C_5
    3  A    between atoms: C_2  and  C_19
    4  A    between atoms: C_3  and  C_23
    5  A    between atoms: C_5  and  C_21
    6  A    between atoms: C_9  and  C_17
    7  A    between atoms: C_17  and  C_22
    8  A    between atoms: C_19  and  C_24
                            x       y       z     vdW  Elec       q    Type
                         _______ _______ _______ _____ _____    ______ ____

>  <TORSDO>
F 8

$$$$
=
 OpenBabel10222420193D

 27 28  0  0  1  0  0  0  0  0999 V2000
  184.9230  178.8040  142.9650 C   0  0  0  0  0  0  0  0  0  0  0  0
  185.7860  178.0040  143.6400 C   0  0  0  0  0  0  0  0  0  0  0  0
  184.2130  178.1850  146.9510 O   0  0  0  0  0  0  0  0  0  0  0  0
  183.8690  179.5460  143.6940 C   0  0  0  0  0  3  0  0  0  0  0  0
  183.6660  179.3830  144.9980 C   0  0  0  0  0  3  0  0  0  0  0  0
  184.5170  178.4720  145.7640 C   0  0  0  0  0  0  0  0  0  0  0  0
  185.7770  177.9210  145.1540 C   0  0  2  0  0  3  0  0  0  0  0  0
  185.8930  179.7490  140.9650 O   0  0  0  0  0  1  0  0  0  0  0  0
  184.0370  178.2590  140.6780 C   0  0  0  0  0  0  0  0  0  0  0  0
  184.0280  178.5280  139.3150 O   0  0  0  0  0  0  0  0  0  0  0  0
  184.9800  178.9210  141.5310 N   0  0  0  0  0  0  0  0  0  0  0  0
  183.2270  177.4150  141.1450 O   0  0  0  0  0  1  0  0  0  0  0  0
  186.7660  177.1340  142.9080 C   0  0  0  0  0  2  0  0  0  0  0  0
  189.0200  178.4090  142.4860 N   0  0  0  0  0  0  0  0  0  0  0  0
  188.0270  177.8480  142.6720 C   0  0  0  0  0  0  0  0  0  0  0  0
  186.9840  178.6600  145.7290 C   0  0  0  0  0  2  0  0  0  0  0  0
  187.8510  177.7540  146.5970 C   0  0  2  0  0  3  0  0  0  0  0  0
  187.5420  177.9170  147.9360 F   0  0  0  0  0  0  0  0  0  0  0  0
  189.3310  178.0150  146.3550 C   0  0  0  0  0  2  0  0  0  0  0  0
  191.8920  176.1630  147.3130 C   0  0  0  0  0  0  0  0  0  0  0  0
  190.6090  176.2230  147.3920 N   0  0  0  0  0  0  0  0  0  0  0  0
  192.3960  176.5670  146.0960 O   0  0  0  0  0  0  0  0  0  0  0  0
  190.0820  176.7110  146.1250 C   0  0  2  0  0  3  0  0  0  0  0  0
  191.3230  176.9560  145.2560 C   0  0  2  0  0  3  0  0  0  0  0  0
  192.7440  175.6990  148.4380 C   0  0  0  0  0  1  0  0  0  0  0  0
  191.2730  176.0580  144.0330 C   0  0  0  0  0  2  0  0  0  0  0  0
  191.8160  176.7260  142.9350 O   0  0  0  0  0  1  0  0  0  0  0  0
  1  2  2  0  0  0  0
  1  4  1  0  0  0  0
  2  7  1  0  0  0  0
  4  5  2  0  0  0  0
  5  6  1  0  0  0  0
  6  3  2  0  0  0  0
  7 16  1  1  0  0  0
  7  6  1  0  0  0  0
  8 11  1  0  0  0  0
  9 12  1  0  0  0  0
  9 11  1  0  0  0  0
 10  9  2  0  0  0  0
 11  1  1  0  0  0  0
 13  2  1  0  0  0  0
 14 15  3  0  0  0  0
 15 13  1  0  0  0  0
 16 17  1  0  0  0  0
 17 18  1  1  0  0  0
 19 17  1  0  0  0  0
 20 21  2  0  0  0  0
 20 25  1  0  0  0  0
 22 20  1  0  0  0  0
 23 19  1  1  0  0  0
 23 21  1  0  0  0  0
 24 26  1  6  0  0  0
 24 22  1  0  0  0  0
 24 23  1  0  0  0  0
 27 26  1  0  0  0  0
M  END
>  <MODEL>
6

>  <REMARK>
 VINA RESULT:      -6.9      2.886      7.695
  Name = 
  8 active torsions:
  status: ('A' for Active; 'I' for Inactive)
    1  A    between atoms: C_1  and  N_20
    2  A    between atoms: C_2  and  C_5
    3  A    between atoms: C_2  and  C_19
    4  A    between atoms: C_3  and  C_23
    5  A    between atoms: C_5  and  C_21
    6  A    between atoms: C_9  and  C_17
    7  A    between atoms: C_17  and  C_22
    8  A    between atoms: C_19  and  C_24
                            x       y       z     vdW  Elec       q    Type
                         _______ _______ _______ _____ _____    ______ ____

>  <TORSDO>
F 8

$$$$
=
 OpenBabel10222420193D

 27 28  0  0  1  0  0  0  0  0999 V2000
  190.6860  177.0700  139.4460 C   0  0  0  0  0  0  0  0  0  0  0  0
  189.7510  177.2280  140.4160 C   0  0  0  0  0  0  0  0  0  0  0  0
  191.9720  178.2820  143.1420 O   0  0  0  0  0  0  0  0  0  0  0  0
  192.1260  177.1770  139.7740 C   0  0  0  0  0  3  0  0  0  0  0  0
  192.5490  177.5240  140.9870 C   0  0  0  0  0  3  0  0  0  0  0  0
  191.5820  177.7840  142.0530 C   0  0  0  0  0  0  0  0  0  0  0  0
  190.1360  177.4100  141.8710 C   0  0  2  0  0  3  0  0  0  0  0  0
  189.8560  177.8720  137.3250 O   0  0  0  0  0  1  0  0  0  0  0  0
  190.3100  175.5250  137.5010 C   0  0  0  0  0  0  0  0  0  0  0  0
  189.7880  175.3250  136.2290 O   0  0  0  0  0  0  0  0  0  0  0  0
  190.3100  176.8380  138.0760 N   0  0  0  0  0  0  0  0  0  0  0  0
  190.8020  174.5480  138.1260 O   0  0  0  0  0  1  0  0  0  0  0  0
  188.2890  177.2680  140.0800 C   0  0  0  0  0  2  0  0  0  0  0  0
  187.1040  179.2670  141.2990 N   0  0  0  0  0  0  0  0  0  0  0  0
  187.6260  178.3860  140.7610 C   0  0  0  0  0  0  0  0  0  0  0  0
  189.8390  176.1340  142.6570 C   0  0  0  0  0  2  0  0  0  0  0  0
  188.8730  176.3820  143.8100 C   0  0  2  0  0  3  0  0  0  0  0  0
  187.6130  175.8970  143.5070 F   0  0  0  0  0  0  0  0  0  0  0  0
  188.8060  177.8620  144.1610 C   0  0  0  0  0  2  0  0  0  0  0  0
  190.5870  176.7240  146.6970 C   0  0  0  0  0  0  0  0  0  0  0  0
  190.5730  177.6660  145.8210 N   0  0  0  0  0  0  0  0  0  0  0  0
  189.3410  176.3880  147.1770 O   0  0  0  0  0  0  0  0  0  0  0  0
  189.1960  178.0950  145.6130 C   0  0  2  0  0  3  0  0  0  0  0  0
  188.3660  177.1960  146.5400 C   0  0  2  0  0  3  0  0  0  0  0  0
  191.8410  176.0640  147.1440 C   0  0  0  0  0  1  0  0  0  0  0  0
  187.6490  178.0500  147.5700 C   0  0  0  0  0  2  0  0  0  0  0  0
  188.0660  177.6920  148.8520 O   0  0  0  0  0  1  0  0  0  0  0  0
  1  4  1  0  0  0  0
  1  2  2  0  0  0  0
  2  7  1  0  0  0  0
  4  5  2  0  0  0  0
  5  6  1  0  0  0  0
  6  3  2  0  0  0  0
  7  6  1  0  0  0  0
  7 16  1  1  0  0  0
  8 11  1  0  0  0  0
  9 11  1  0  0  0  0
  9 12  1  0  0  0  0
 10  9  2  0  0  0  0
 11  1  1  0  0  0  0
 13  2  1  0  0  0  0
 13 15  1  0  0  0  0
 15 14  3  0  0  0  0
 16 17  1  0  0  0  0
 17 18  1  6  0  0  0
 17 19  1  0  0  0  0
 20 25  1  0  0  0  0
 20 22  1  0  0  0  0
 21 20  2  0  0  0  0
 23 19  1  6  0  0  0
 23 21  1  0  0  0  0
 23 24  1  0  0  0  0
 24 22  1  0  0  0  0
 24 26  1  1  0  0  0
 26 27  1  0  0  0  0
M  END
>  <MODEL>
7

>  <REMARK>
 VINA RESULT:      -6.7      3.230      5.742
  Name = 
  8 active torsions:
  status: ('A' for Active; 'I' for Inactive)
    1  A    between atoms: C_1  and  N_20
    2  A    between atoms: C_2  and  C_5
    3  A    between atoms: C_2  and  C_19
    4  A    between atoms: C_3  and  C_23
    5  A    between atoms: C_5  and  C_21
    6  A    between atoms: C_9  and  C_17
    7  A    between atoms: C_17  and  C_22
    8  A    between atoms: C_19  and  C_24
                            x       y       z     vdW  Elec       q    Type
                         _______ _______ _______ _____ _____    ______ ____

>  <TORSDO>
F 8

$$$$
=
 OpenBabel10222420193D

 27 28  0  0  1  0  0  0  0  0999 V2000
  190.1490  177.8180  145.9850 C   0  0  0  0  0  0  0  0  0  0  0  0
  190.7970  176.6870  145.6120 C   0  0  0  0  0  0  0  0  0  0  0  0
  192.4300  177.9720  142.5860 O   0  0  0  0  0  0  0  0  0  0  0  0
  190.1460  179.0030  145.0970 C   0  0  0  0  0  3  0  0  0  0  0  0
  190.8480  179.0400  143.9670 C   0  0  0  0  0  3  0  0  0  0  0  0
  191.6310  177.8750  143.5540 C   0  0  0  0  0  0  0  0  0  0  0  0
  191.4440  176.5530  144.2470 C   0  0  2  0  0  3  0  0  0  0  0  0
  190.2060  178.2350  148.3630 O   0  0  0  0  0  1  0  0  0  0  0  0
  188.0990  177.5880  147.4200 C   0  0  0  0  0  0  0  0  0  0  0  0
  187.5420  177.5390  148.6920 O   0  0  0  0  0  1  0  0  0  0  0  0
  189.4870  177.9140  147.2600 N   0  0  0  0  0  0  0  0  0  0  0  0
  187.3690  177.3690  146.4180 O   0  0  0  0  0  0  0  0  0  0  0  0
  190.9350  175.5290  146.5560 C   0  0  0  0  0  2  0  0  0  0  0  0
  193.1590  175.7060  147.9380 N   0  0  0  0  0  0  0  0  0  0  0  0
  192.1790  175.6290  147.3290 C   0  0  0  0  0  0  0  0  0  0  0  0
  190.6130  175.6280  143.3600 C   0  0  0  0  0  2  0  0  0  0  0  0
  189.3590  176.3140  142.8300 C   0  0  2  0  0  3  0  0  0  0  0  0
  188.2220  175.6280  143.2200 F   0  0  0  0  0  0  0  0  0  0  0  0
  189.4070  176.4500  141.3140 C   0  0  0  0  0  2  0  0  0  0  0  0
  186.9330  178.6280  141.1100 C   0  0  0  0  0  0  0  0  0  0  0  0
  187.9990  178.3780  141.7850 N   0  0  0  0  0  0  0  0  0  0  0  0
  187.0410  178.3390  139.7670 O   0  0  0  0  0  0  0  0  0  0  0  0
  189.0170  177.8560  140.8820 C   0  0  2  0  0  3  0  0  0  0  0  0
  188.3360  177.8230  139.5070 C   0  0  2  0  0  3  0  0  0  0  0  0
  185.7000  179.1780  141.7320 C   0  0  0  0  0  1  0  0  0  0  0  0
  189.0750  178.7400  138.5500 C   0  0  0  0  0  2  0  0  0  0  0  0
  188.2220  179.1310  137.5170 O   0  0  0  0  0  1  0  0  0  0  0  0
  1 11  1  0  0  0  0
  2  1  2  0  0  0  0
  2 13  1  0  0  0  0
  3  6  2  0  0  0  0
  4  1  1  0  0  0  0
  5  4  2  0  0  0  0
  6  5  1  0  0  0  0
  6  7  1  0  0  0  0
  7 16  1  6  0  0  0
  7  2  1  0  0  0  0
  9 10  1  0  0  0  0
 11  9  1  0  0  0  0
 11  8  1  0  0  0  0
 12  9  2  0  0  0  0
 13 15  1  0  0  0  0
 15 14  3  0  0  0  0
 17 18  1  6  0  0  0
 17 16  1  0  0  0  0
 19 17  1  0  0  0  0
 20 25  1  0  0  0  0
 20 21  2  0  0  0  0
 22 20  1  0  0  0  0
 23 19  1  1  0  0  0
 23 21  1  0  0  0  0
 24 26  1  6  0  0  0
 24 22  1  0  0  0  0
 24 23  1  0  0  0  0
 27 26  1  0  0  0  0
M  END
>  <MODEL>
8

>  <REMARK>
 VINA RESULT:      -6.5      2.852      5.215
  Name = 
  8 active torsions:
  status: ('A' for Active; 'I' for Inactive)
    1  A    between atoms: C_1  and  N_20
    2  A    between atoms: C_2  and  C_5
    3  A    between atoms: C_2  and  C_19
    4  A    between atoms: C_3  and  C_23
    5  A    between atoms: C_5  and  C_21
    6  A    between atoms: C_9  and  C_17
    7  A    between atoms: C_17  and  C_22
    8  A    between atoms: C_19  and  C_24
                            x       y       z     vdW  Elec       q    Type
                         _______ _______ _______ _____ _____    ______ ____

>  <TORSDO>
F 8

$$$$
=
 OpenBabel10222420193D

 27 28  0  0  1  0  0  0  0  0999 V2000
  189.5630  177.3180  138.7960 C   0  0  0  0  0  0  0  0  0  0  0  0
  189.7050  177.8780  140.0220 C   0  0  0  0  0  0  0  0  0  0  0  0
  193.2760  177.1870  140.5200 O   0  0  0  0  0  0  0  0  0  0  0  0
  190.6760  176.5500  138.1930 C   0  0  0  0  0  3  0  0  0  0  0  0
  191.8700  176.4650  138.7730 C   0  0  0  0  0  3  0  0  0  0  0  0
  192.1060  177.1170  140.0620 C   0  0  0  0  0  0  0  0  0  0  0  0
  190.9500  177.6550  140.8600 C   0  0  2  0  0  3  0  0  0  0  0  0
  187.4200  176.5030  138.0380 O   0  0  0  0  0  1  0  0  0  0  0  0
  188.1390  178.6270  137.1920 C   0  0  0  0  0  0  0  0  0  0  0  0
  187.0320  178.6720  136.3530 O   0  0  0  0  0  0  0  0  0  0  0  0
  188.3520  177.4860  138.0340 N   0  0  0  0  0  0  0  0  0  0  0  0
  188.9320  179.6050  137.2190 O   0  0  0  0  0  1  0  0  0  0  0  0
  188.6470  178.7790  140.5880 C   0  0  0  0  0  2  0  0  0  0  0  0
  187.1710  177.5050  142.3440 N   0  0  0  0  0  0  0  0  0  0  0  0
  187.8210  178.0660  141.5700 C   0  0  0  0  0  0  0  0  0  0  0  0
  190.6430  176.7020  142.0140 C   0  0  0  0  0  2  0  0  0  0  0  0
  191.3030  177.1470  143.3150 C   0  0  2  0  0  3  0  0  0  0  0  0
  191.7850  176.0570  144.0180 F   0  0  0  0  0  0  0  0  0  0  0  0
  190.3360  177.9510  144.1740 C   0  0  0  0  0  2  0  0  0  0  0  0
  188.0250  177.7800  146.5260 C   0  0  0  0  0  0  0  0  0  0  0  0
  188.3070  177.3200  145.3590 N   0  0  0  0  0  0  0  0  0  0  0  0
  189.1210  177.9280  147.3480 O   0  0  0  0  0  0  0  0  0  0  0  0
  189.7430  177.0880  145.2780 C   0  0  2  0  0  3  0  0  0  0  0  0
  190.2840  177.5260  146.6460 C   0  0  2  0  0  3  0  0  0  0  0  0
  186.6390  178.1210  146.9410 C   0  0  0  0  0  1  0  0  0  0  0  0
  190.9250  176.3390  147.3440 C   0  0  0  0  0  2  0  0  0  0  0  0
  192.3060  176.3660  147.1470 O   0  0  0  0  0  1  0  0  0  0  0  0
  1  2  2  0  0  0  0
  2 13  1  0  0  0  0
  2  7  1  0  0  0  0
  4  5  2  0  0  0  0
  4  1  1  0  0  0  0
  5  6  1  0  0  0  0
  6  3  2  0  0  0  0
  6  7  1  0  0  0  0
  7 16  1  1  0  0  0
  9 12  1  0  0  0  0
  9 11  1  0  0  0  0
 10  9  2  0  0  0  0
 11  8  1  0  0  0  0
 11  1  1  0  0  0  0
 13 15  1  0  0  0  0
 15 14  3  0  0  0  0
 16 17  1  0  0  0  0
 17 18  1  1  0  0  0
 17 19  1  0  0  0  0
 20 25  1  0  0  0  0
 20 22  1  0  0  0  0
 21 20  2  0  0  0  0
 23 19  1  6  0  0  0
 23 21  1  0  0  0  0
 23 24  1  0  0  0  0
 24 26  1  1  0  0  0
 24 22  1  0  0  0  0
 27 26  1  0  0  0  0
M  END
>  <MODEL>
9

>  <REMARK>
 VINA RESULT:      -6.5      3.385      5.842
  Name = 
  8 active torsions:
  status: ('A' for Active; 'I' for Inactive)
    1  A    between atoms: C_1  and  N_20
    2  A    between atoms: C_2  and  C_5
    3  A    between atoms: C_2  and  C_19
    4  A    between atoms: C_3  and  C_23
    5  A    between atoms: C_5  and  C_21
    6  A    between atoms: C_9  and  C_17
    7  A    between atoms: C_17  and  C_22
    8  A    between atoms: C_19  and  C_24
                            x       y       z     vdW  Elec       q    Type
                         _______ _______ _______ _____ _____    ______ ____

>  <TORSDO>
F 8

$$$$
