=
 OpenBabel10222420533D

 48 51  0  0  1  0  0  0  0  0999 V2000
  181.1660  179.0560  140.9080 C   0  0  0  0  0  0  0  0  0  0  0  0
  182.3600  178.2710  141.3540 C   0  0  0  0  0  2  0  0  0  0  0  0
  182.9840  178.8210  142.5940 C   0  0  0  0  0  0  0  0  0  0  0  0
  182.3160  178.8600  143.7590 C   0  0  0  0  0  3  0  0  0  0  0  0
  179.9180  178.6560  143.0480 C   0  0  0  0  0  3  0  0  0  0  0  0
  180.8900  178.5510  143.9600 C   0  0  0  0  0  3  0  0  0  0  0  0
  180.0570  179.1080  141.6530 C   0  0  0  0  0  3  0  0  0  0  0  0
  184.4380  179.1810  142.5430 C   0  0  2  0  0  3  0  0  0  0  0  0
  186.5840  178.7980  141.3420 C   0  0  0  0  0  2  0  0  0  0  0  0
  185.5980  179.3270  140.3740 N   0  0  0  0  0  0  0  0  0  0  0  0
  185.1830  178.3980  141.4500 C   0  0  2  0  0  3  0  0  0  0  0  0
  185.6160  178.5280  139.1490 C   0  0  0  0  0  2  0  0  0  0  0  0
  187.0210  177.9930  138.8150 C   0  0  0  0  0  2  0  0  0  0  0  0
  187.4930  178.4620  137.5190 N   0  0  0  0  0  0  0  0  0  0  0  0
  186.6030  179.4050  137.1300 O   0  0  0  0  0  1  0  0  0  0  0  0
  189.4020  178.4720  138.8020 C   0  0  0  0  0  1  0  0  0  0  0  0
  188.7150  179.1330  137.7050 N   0  0  0  0  0  2  0  0  0  0  0  0
  185.0780  179.0310  143.8960 C   0  0  0  0  0  0  0  0  0  0  0  0
  184.9490  179.9340  144.7680 O   0  0  0  0  0  0  0  0  0  0  0  0
  185.7850  177.8240  144.1980 N   0  0  0  0  0  2  0  0  0  0  0  0
  186.1880  177.4540  145.5460 C   0  0  0  0  0  2  0  0  0  0  0  0
  187.6190  177.8090  145.7710 C   0  0  0  0  0  3  0  0  0  0  0  0
  188.3330  176.3400  144.0540 O   0  0  0  0  0  1  0  0  0  0  0  0
  188.6150  177.2660  145.0590 C   0  0  0  0  0  0  0  0  0  0  0  0
  190.0510  177.6990  145.2760 C   0  0  2  0  0  3  0  0  0  0  0  0
  191.4730  178.4620  143.4850 C   0  0  0  0  0  1  0  0  0  0  0  0
  190.4420  178.8470  144.4510 N   0  0  0  0  0  2  0  0  0  0  0  0
  191.1440  176.6140  145.3110 C   0  0  0  0  0  2  0  0  0  0  0  0
  191.8860  176.4480  146.6370 C   0  0  0  0  0  3  0  0  0  0  0  0
  192.2010  175.1160  146.8180 F   0  0  0  0  0  0  0  0  0  0  0  0
  191.1100  176.8720  147.7000 F   0  0  0  0  0  0  0  0  0  0  0  0
  181.0970  179.4970  139.5470 N   0  0  0  0  0  0  0  0  0  0  0  0
  182.0410  178.9520  138.5820 C   0  0  0  0  0  2  0  0  0  0  0  0
  181.5720  177.6660  138.0820 N   0  0  0  0  0  2  0  0  0  0  0  0
  186.1170  174.2880  136.0790 C   0  0  0  0  0  3  0  0  0  0  0  0
  184.9840  172.9320  137.7580 C   0  0  0  0  0  3  0  0  0  0  0  0
  184.0390  173.9460  137.9530 C   0  0  0  0  0  3  0  0  0  0  0  0
  186.9450  172.1290  136.6580 F   0  0  0  0  0  0  0  0  0  0  0  0
  182.3800  176.5120  138.0690 N   0  0  0  0  0  2  0  0  0  0  0  0
  185.1590  175.2810  136.2770 C   0  0  0  0  0  0  0  0  0  0  0  0
  183.3270  176.2910  137.2020 C   0  0  0  0  0  0  0  0  0  0  0  0
  185.0750  176.5970  135.5810 C   0  0  0  0  0  3  0  0  0  0  0  0
  184.1580  175.1150  137.1970 C   0  0  0  0  0  0  0  0  0  0  0  0
  183.8240  177.2650  136.1760 C   0  0  0  0  0  3  0  0  0  0  0  0
  186.0240  173.1080  136.8270 C   0  0  2  0  0  3  0  0  0  0  0  0
  180.5270  180.8080  139.2480 C   0  0  0  0  0  2  0  0  0  0  0  0
  181.1980  181.4100  138.0590 C   0  0  0  0  0  3  0  0  0  0  0  0
  180.9150  182.6580  137.7020 C   0  0  0  0  0  2  0  0  0  0  0  0
  1  2  1  0  0  0  0
  1  7  2  0  0  0  0
  2  3  1  0  0  0  0
  3  4  2  0  0  0  0
  4  6  1  0  0  0  0
  5  6  2  0  0  0  0
  7  5  1  0  0  0  0
  8  3  1  0  0  0  0
  8 18  1  1  0  0  0
  9 11  1  0  0  0  0
 10  9  1  0  0  0  0
 10 11  1  0  0  0  0
 11  8  1  1  0  0  0
 12 10  1  0  0  0  0
 13 12  1  0  0  0  0
 14 17  1  0  0  0  0
 14 13  1  0  0  0  0
 15 14  1  0  0  0  0
 17 16  1  0  0  0  0
 18 20  1  0  0  0  0
 18 19  2  0  0  0  0
 20 21  1  0  0  0  0
 21 22  1  0  0  0  0
 23 24  1  0  0  0  0
 24 25  1  0  0  0  0
 24 22  2  0  0  0  0
 25 28  1  6  0  0  0
 26 27  1  0  0  0  0
 27 25  1  0  0  0  0
 28 29  1  0  0  0  0
 29 30  1  0  0  0  0
 29 31  1  0  0  0  0
 32  1  1  0  0  0  0
 33 32  1  0  0  0  0
 34 33  1  0  0  0  0
 35 40  2  0  0  0  0
 35 45  1  0  0  0  0
 36 37  2  0  0  0  0
 39 34  1  0  0  0  0
 40 43  1  0  0  0  0
 41 39  1  0  0  0  0
 42 44  2  0  0  0  0
 42 40  1  0  0  0  0
 43 41  2  0  0  0  0
 43 37  1  0  0  0  0
 44 41  1  0  0  0  0
 45 38  1  1  0  0  0
 45 36  1  0  0  0  0
 46 32  1  0  0  0  0
 47 46  1  0  0  0  0
 48 47  2  0  0  0  0
M  END
>  <MODEL>
1

>  <REMARK>
 VINA RESULT:      -7.5      0.000      0.000
  Name = 
  19 active torsions:
  status: ('A' for Active; 'I' for Inactive)
    1  A    between atoms: N_2  and  N_16
    2  A    between atoms: N_2  and  C_31
    3  A    between atoms: C_3  and  C_43
    4  A    between atoms: C_4  and  C_29
    5  A    between atoms: C_6  and  C_29
    6  A    between atoms: C_6  and  N_37
    7  A    between atoms: C_6  and  C_46
    8  A    between atoms: C_7  and  N_25
    9  A    between atoms: C_9  and  C_42
   10  A    between atoms: C_13  and  C_28
   11  A    between atoms: N_17  and  C_19
   12  A    between atoms: N_17  and  N_30
   13  A    between atoms: C_19  and  C_35
   14  A    between atoms: N_25  and  C_28
   15  A    between atoms: N_25  and  C_31
   16  A    between atoms: N_32  and  C_35
   17  A    between atoms: C_34  and  C_43
   18  A    between atoms: C_39  and  C_43
   19  A    between atoms: N_41  and  C_42
                            x       y       z     vdW  Elec       q    Type
                         _______ _______ _______ _____ _____    ______ ____

>  <TORSDO>
F 19

$$$$
=
 OpenBabel10222420533D

 48 51  0  0  1  0  0  0  0  0999 V2000
  180.9100  178.4490  140.7430 C   0  0  0  0  0  0  0  0  0  0  0  0
  182.1810  177.8730  141.2850 C   0  0  0  0  0  2  0  0  0  0  0  0
  182.8100  178.7350  142.3270 C   0  0  0  0  0  0  0  0  0  0  0  0
  182.1910  178.9960  143.4910 C   0  0  0  0  0  3  0  0  0  0  0  0
  179.7900  178.4670  142.9890 C   0  0  0  0  0  3  0  0  0  0  0  0
  180.8050  178.6430  143.8420 C   0  0  0  0  0  3  0  0  0  0  0  0
  179.8330  178.5930  141.5220 C   0  0  0  0  0  3  0  0  0  0  0  0
  184.2270  179.1750  142.1100 C   0  0  2  0  0  3  0  0  0  0  0  0
  186.3010  178.7700  140.7960 C   0  0  0  0  0  2  0  0  0  0  0  0
  185.2530  179.2540  139.8710 N   0  0  0  0  0  0  0  0  0  0  0  0
  184.9130  178.3610  141.0020 C   0  0  2  0  0  3  0  0  0  0  0  0
  185.2060  178.4110  138.6760 C   0  0  0  0  0  2  0  0  0  0  0  0
  186.5240  178.4450  137.8800 C   0  0  0  0  0  2  0  0  0  0  0  0
  187.0850  177.1140  137.6890 N   0  0  0  0  0  0  0  0  0  0  0  0
  187.2030  176.9630  136.3480 O   0  0  0  0  0  1  0  0  0  0  0  0
  188.9840  178.3960  137.8860 C   0  0  0  0  0  1  0  0  0  0  0  0
  188.3950  177.1050  138.1990 N   0  0  0  0  0  2  0  0  0  0  0  0
  185.0010  179.1590  143.3990 C   0  0  0  0  0  0  0  0  0  0  0  0
  185.0260  180.1790  144.1430 O   0  0  0  0  0  0  0  0  0  0  0  0
  185.6580  177.9520  143.7980 N   0  0  0  0  0  2  0  0  0  0  0  0
  186.1810  177.7370  145.1390 C   0  0  0  0  0  2  0  0  0  0  0  0
  187.5910  177.2530  145.0690 C   0  0  0  0  0  3  0  0  0  0  0  0
  188.0960  178.1800  147.1900 O   0  0  0  0  0  1  0  0  0  0  0  0
  188.4780  177.4810  146.0450 C   0  0  0  0  0  0  0  0  0  0  0  0
  189.8830  176.9180  145.9640 C   0  0  2  0  0  3  0  0  0  0  0  0
  191.8050  176.1390  147.1940 C   0  0  0  0  0  1  0  0  0  0  0  0
  190.6110  176.9880  147.2350 N   0  0  0  0  0  2  0  0  0  0  0  0
  190.7650  177.3280  144.7690 C   0  0  0  0  0  2  0  0  0  0  0  0
  190.6390  178.7770  144.3040 C   0  0  0  0  0  3  0  0  0  0  0  0
  189.9390  178.8150  143.1150 F   0  0  0  0  0  0  0  0  0  0  0  0
  191.8840  179.3480  144.1070 F   0  0  0  0  0  0  0  0  0  0  0  0
  180.7480  178.5580  139.3250 N   0  0  0  0  0  0  0  0  0  0  0  0
  179.8390  177.6420  138.6480 C   0  0  0  0  0  2  0  0  0  0  0  0
  180.4710  177.0880  137.4570 N   0  0  0  0  0  2  0  0  0  0  0  0
  183.9890  172.2390  137.0150 C   0  0  0  0  0  3  0  0  0  0  0  0
  181.7160  171.4310  136.6720 C   0  0  0  0  0  3  0  0  0  0  0  0
  181.2230  172.7360  136.7950 C   0  0  0  0  0  3  0  0  0  0  0  0
  183.5620  169.9170  136.6880 F   0  0  0  0  0  0  0  0  0  0  0  0
  180.7100  175.7090  137.2930 N   0  0  0  0  0  2  0  0  0  0  0  0
  183.4820  173.5340  137.1210 C   0  0  0  0  0  0  0  0  0  0  0  0
  181.8940  175.1790  137.1830 C   0  0  0  0  0  0  0  0  0  0  0  0
  184.2600  174.7850  137.3510 C   0  0  0  0  0  2  0  0  0  0  0  0
  182.1370  173.7680  137.0250 C   0  0  0  0  0  0  0  0  0  0  0  0
  183.1980  175.8980  137.3590 C   0  0  0  0  0  3  0  0  0  0  0  0
  183.0960  171.1860  136.7900 C   0  0  0  0  0  0  0  0  0  0  0  0
  181.8240  179.1350  138.5240 C   0  0  0  0  0  2  0  0  0  0  0  0
  181.8750  180.6150  138.7060 C   0  0  0  0  0  3  0  0  0  0  0  0
  180.9150  181.3770  138.1950 C   0  0  0  0  0  2  0  0  0  0  0  0
  1  2  1  0  0  0  0
  1  7  2  0  0  0  0
  2  3  1  0  0  0  0
  3  4  2  0  0  0  0
  4  6  1  0  0  0  0
  5  6  2  0  0  0  0
  7  5  1  0  0  0  0
  8  3  1  0  0  0  0
  8 18  1  1  0  0  0
  9 11  1  0  0  0  0
 10  9  1  0  0  0  0
 10 11  1  0  0  0  0
 11  8  1  1  0  0  0
 12 10  1  0  0  0  0
 13 12  1  0  0  0  0
 14 13  1  0  0  0  0
 14 17  1  0  0  0  0
 15 14  1  0  0  0  0
 16 17  1  0  0  0  0
 18 20  1  0  0  0  0
 18 19  2  0  0  0  0
 20 21  1  0  0  0  0
 22 21  1  0  0  0  0
 22 24  2  0  0  0  0
 24 23  1  0  0  0  0
 25 28  1  6  0  0  0
 25 24  1  0  0  0  0
 25 27  1  0  0  0  0
 26 27  1  0  0  0  0
 29 28  1  0  0  0  0
 30 29  1  0  0  0  0
 31 29  1  0  0  0  0
 32  1  1  0  0  0  0
 33 32  1  0  0  0  0
 34 33  1  0  0  0  0
 35 40  1  0  0  0  0
 36 45  1  0  0  0  0
 36 37  2  0  0  0  0
 37 43  1  0  0  0  0
 38 45  1  0  0  0  0
 39 34  1  0  0  0  0
 40 42  1  0  0  0  0
 41 39  1  0  0  0  0
 41 44  2  0  0  0  0
 42 44  1  0  0  0  0
 43 40  2  0  0  0  0
 43 41  1  0  0  0  0
 45 35  2  0  0  0  0
 46 47  1  0  0  0  0
 46 32  1  0  0  0  0
 48 47  2  0  0  0  0
M  END
>  <MODEL>
2

>  <REMARK>
 VINA RESULT:      -7.4      1.877      2.253
  Name = 
  19 active torsions:
  status: ('A' for Active; 'I' for Inactive)
    1  A    between atoms: N_2  and  N_16
    2  A    between atoms: N_2  and  C_31
    3  A    between atoms: C_3  and  C_43
    4  A    between atoms: C_4  and  C_29
    5  A    between atoms: C_6  and  C_29
    6  A    between atoms: C_6  and  N_37
    7  A    between atoms: C_6  and  C_46
    8  A    between atoms: C_7  and  N_25
    9  A    between atoms: C_9  and  C_42
   10  A    between atoms: C_13  and  C_28
   11  A    between atoms: N_17  and  C_19
   12  A    between atoms: N_17  and  N_30
   13  A    between atoms: C_19  and  C_35
   14  A    between atoms: N_25  and  C_28
   15  A    between atoms: N_25  and  C_31
   16  A    between atoms: N_32  and  C_35
   17  A    between atoms: C_34  and  C_43
   18  A    between atoms: C_39  and  C_43
   19  A    between atoms: N_41  and  C_42
                            x       y       z     vdW  Elec       q    Type
                         _______ _______ _______ _____ _____    ______ ____

>  <TORSDO>
F 19

$$$$
=
 OpenBabel10222420533D

 48 51  0  0  1  0  0  0  0  0999 V2000
  183.8150  178.5800  141.8820 C   0  0  0  0  0  0  0  0  0  0  0  0
  185.0250  177.7160  141.7140 C   0  0  0  0  0  2  0  0  0  0  0  0
  186.2700  178.3560  142.2290 C   0  0  0  0  0  0  0  0  0  0  0  0
  186.4160  178.6640  143.5290 C   0  0  0  0  0  3  0  0  0  0  0  0
  184.0550  178.6860  144.3780 C   0  0  0  0  0  3  0  0  0  0  0  0
  185.3750  178.5880  144.5680 C   0  0  0  0  0  3  0  0  0  0  0  0
  183.3570  178.8970  143.0980 C   0  0  0  0  0  3  0  0  0  0  0  0
  187.4240  178.5000  141.2840 C   0  0  2  0  0  3  0  0  0  0  0  0
  188.3750  177.4980  139.2140 C   0  0  0  0  0  2  0  0  0  0  0  0
  187.6020  178.7000  138.8340 N   0  0  0  0  0  0  0  0  0  0  0  0
  187.1460  177.8200  139.9340 C   0  0  2  0  0  3  0  0  0  0  0  0
  186.7270  178.3990  137.7010 C   0  0  0  0  0  2  0  0  0  0  0  0
  187.3960  178.6940  136.3460 C   0  0  0  0  0  2  0  0  0  0  0  0
  187.5680  177.4900  135.5440 N   0  0  0  0  0  0  0  0  0  0  0  0
  188.8640  177.1330  135.7050 O   0  0  0  0  0  1  0  0  0  0  0  0
  187.2750  175.2090  135.5430 C   0  0  0  0  0  1  0  0  0  0  0  0
  186.8050  176.4580  136.1190 N   0  0  0  0  0  2  0  0  0  0  0  0
  188.7030  178.0230  141.9150 C   0  0  0  0  0  0  0  0  0  0  0  0
  189.5910  178.8500  142.2660 O   0  0  0  0  0  0  0  0  0  0  0  0
  188.8720  176.6250  142.1670 N   0  0  0  0  0  2  0  0  0  0  0  0
  189.9220  176.0920  143.0220 C   0  0  0  0  0  2  0  0  0  0  0  0
  189.6300  176.4040  144.4510 C   0  0  0  0  0  3  0  0  0  0  0  0
  191.7110  177.5060  144.7160 O   0  0  0  0  0  1  0  0  0  0  0  0
  190.4920  177.0660  145.2330 C   0  0  0  0  0  0  0  0  0  0  0  0
  190.1310  177.4180  146.6620 C   0  0  2  0  0  3  0  0  0  0  0  0
  191.7760  175.8650  147.4970 C   0  0  0  0  0  1  0  0  0  0  0  0
  191.2370  177.2230  147.6050 N   0  0  0  0  0  2  0  0  0  0  0  0
  188.7930  176.9020  147.2260 C   0  0  0  0  0  2  0  0  0  0  0  0
  188.0400  177.8550  148.1530 C   0  0  0  0  0  3  0  0  0  0  0  0
  187.0720  178.5230  147.4290 F   0  0  0  0  0  0  0  0  0  0  0  0
  188.8970  178.7840  148.7170 F   0  0  0  0  0  0  0  0  0  0  0  0
  182.9680  178.8140  140.7510 N   0  0  0  0  0  0  0  0  0  0  0  0
  183.5750  179.2080  139.4870 C   0  0  0  0  0  2  0  0  0  0  0  0
  183.0510  178.3950  138.3970 N   0  0  0  0  0  2  0  0  0  0  0  0
  182.2210  172.6490  136.8530 C   0  0  0  0  0  3  0  0  0  0  0  0
  184.5740  172.8300  137.4570 C   0  0  0  0  0  3  0  0  0  0  0  0
  184.4000  174.1840  137.7730 C   0  0  0  0  0  3  0  0  0  0  0  0
  183.6700  170.7660  136.6710 F   0  0  0  0  0  0  0  0  0  0  0  0
  183.4810  177.0750  138.1560 N   0  0  0  0  0  2  0  0  0  0  0  0
  182.0620  173.9940  137.1850 C   0  0  0  0  0  0  0  0  0  0  0  0
  182.6830  176.0840  137.8760 C   0  0  0  0  0  0  0  0  0  0  0  0
  180.8040  174.7920  137.1160 C   0  0  0  0  0  3  0  0  0  0  0  0
  183.1260  174.7380  137.6200 C   0  0  1  0  0  3  0  0  0  0  0  0
  181.2110  176.1890  137.6130 C   0  0  0  0  0  3  0  0  0  0  0  0
  183.4870  172.0690  136.9910 C   0  0  0  0  0  0  0  0  0  0  0  0
  181.5770  179.2040  140.9670 C   0  0  0  0  0  2  0  0  0  0  0  0
  180.6720  178.0330  140.7820 C   0  0  0  0  0  3  0  0  0  0  0  0
  179.8020  177.7130  141.7340 C   0  0  0  0  0  2  0  0  0  0  0  0
  1  7  2  0  0  0  0
  2  1  1  0  0  0  0
  2  3  1  0  0  0  0
  3  4  2  0  0  0  0
  4  6  1  0  0  0  0
  5  6  2  0  0  0  0
  7  5  1  0  0  0  0
  8 18  1  1  0  0  0
  8  3  1  0  0  0  0
  9 11  1  0  0  0  0
 10  9  1  0  0  0  0
 10 11  1  0  0  0  0
 11  8  1  1  0  0  0
 12 10  1  0  0  0  0
 13 12  1  0  0  0  0
 14 15  1  0  0  0  0
 14 17  1  0  0  0  0
 14 13  1  0  0  0  0
 16 17  1  0  0  0  0
 18 20  1  0  0  0  0
 18 19  2  0  0  0  0
 20 21  1  0  0  0  0
 21 22  1  0  0  0  0
 22 24  2  0  0  0  0
 23 24  1  0  0  0  0
 24 25  1  0  0  0  0
 25 28  1  1  0  0  0
 25 27  1  0  0  0  0
 26 27  1  0  0  0  0
 28 29  1  0  0  0  0
 29 31  1  0  0  0  0
 30 29  1  0  0  0  0
 32 46  1  0  0  0  0
 32  1  1  0  0  0  0
 33 32  1  0  0  0  0
 34 33  1  0  0  0  0
 35 45  2  0  0  0  0
 35 40  1  0  0  0  0
 36 37  2  0  0  0  0
 38 45  1  0  0  0  0
 39 34  1  0  0  0  0
 40 43  1  0  0  0  0
 41 39  1  0  0  0  0
 42 40  2  0  0  0  0
 42 44  1  0  0  0  0
 43 37  1  1  0  0  0
 43 41  1  0  0  0  0
 44 41  2  0  0  0  0
 45 36  1  0  0  0  0
 47 46  1  0  0  0  0
 47 48  2  0  0  0  0
M  END
>  <MODEL>
3

>  <REMARK>
 VINA RESULT:      -7.2      2.340      3.498
  Name = 
  19 active torsions:
  status: ('A' for Active; 'I' for Inactive)
    1  A    between atoms: N_2  and  N_16
    2  A    between atoms: N_2  and  C_31
    3  A    between atoms: C_3  and  C_43
    4  A    between atoms: C_4  and  C_29
    5  A    between atoms: C_6  and  C_29
    6  A    between atoms: C_6  and  N_37
    7  A    between atoms: C_6  and  C_46
    8  A    between atoms: C_7  and  N_25
    9  A    between atoms: C_9  and  C_42
   10  A    between atoms: C_13  and  C_28
   11  A    between atoms: N_17  and  C_19
   12  A    between atoms: N_17  and  N_30
   13  A    between atoms: C_19  and  C_35
   14  A    between atoms: N_25  and  C_28
   15  A    between atoms: N_25  and  C_31
   16  A    between atoms: N_32  and  C_35
   17  A    between atoms: C_34  and  C_43
   18  A    between atoms: C_39  and  C_43
   19  A    between atoms: N_41  and  C_42
                            x       y       z     vdW  Elec       q    Type
                         _______ _______ _______ _____ _____    ______ ____

>  <TORSDO>
F 19

$$$$
=
 OpenBabel10222420533D

 48 51  0  0  1  0  0  0  0  0999 V2000
  184.1540  178.9050  140.3110 C   0  0  0  0  0  0  0  0  0  0  0  0
  185.0240  178.7660  139.1010 C   0  0  0  0  0  2  0  0  0  0  0  0
  184.5520  177.7020  138.1670 C   0  0  0  0  0  0  0  0  0  0  0  0
  183.3590  177.7830  137.5550 C   0  0  0  0  0  3  0  0  0  0  0  0
  182.1090  179.4440  138.9610 C   0  0  0  0  0  3  0  0  0  0  0  0
  182.3080  178.7810  137.8160 C   0  0  0  0  0  3  0  0  0  0  0  0
  182.8870  179.3160  140.2050 C   0  0  0  0  0  3  0  0  0  0  0  0
  185.5160  176.6140  137.8020 C   0  0  2  0  0  3  0  0  0  0  0  0
  187.5420  176.1230  136.4430 C   0  0  0  0  0  2  0  0  0  0  0  0
  187.9800  176.6310  137.7610 N   0  0  0  0  0  0  0  0  0  0  0  0
  186.7680  177.1700  137.1050 C   0  0  2  0  0  3  0  0  0  0  0  0
  189.0090  177.6550  137.5900 C   0  0  0  0  0  2  0  0  0  0  0  0
  189.7870  177.9310  138.8910 C   0  0  0  0  0  2  0  0  0  0  0  0
  191.0230  177.1630  138.9660 N   0  0  0  0  0  0  0  0  0  0  0  0
  190.7110  176.0470  139.6650 O   0  0  0  0  0  1  0  0  0  0  0  0
  192.3330  175.6620  137.8170 C   0  0  0  0  0  1  0  0  0  0  0  0
  191.3590  176.7300  137.6700 N   0  0  0  0  0  2  0  0  0  0  0  0
  184.8380  175.5390  136.9980 C   0  0  0  0  0  0  0  0  0  0  0  0
  184.7420  174.3650  137.4530 O   0  0  0  0  0  0  0  0  0  0  0  0
  184.2530  175.8820  135.7390 N   0  0  0  0  0  2  0  0  0  0  0  0
  183.3360  175.0070  135.0230 C   0  0  0  0  0  2  0  0  0  0  0  0
  182.0350  174.9210  135.7500 C   0  0  0  0  0  3  0  0  0  0  0  0
  182.3350  172.6080  136.1690 O   0  0  0  0  0  1  0  0  0  0  0  0
  181.5800  173.7770  136.2750 C   0  0  0  0  0  0  0  0  0  0  0  0
  180.2840  173.7450  137.0600 C   0  0  2  0  0  3  0  0  0  0  0  0
  178.9320  171.7530  136.9170 C   0  0  0  0  0  1  0  0  0  0  0  0
  179.1900  173.0780  136.3470 N   0  0  0  0  0  2  0  0  0  0  0  0
  179.8170  175.0400  137.7520 C   0  0  0  0  0  2  0  0  0  0  0  0
  180.3120  175.2560  139.1810 C   0  0  0  0  0  3  0  0  0  0  0  0
  181.6730  175.4900  139.1600 F   0  0  0  0  0  0  0  0  0  0  0  0
  180.0610  174.1470  139.9690 F   0  0  0  0  0  0  0  0  0  0  0  0
  184.7640  178.8950  141.6070 N   0  0  0  0  0  0  0  0  0  0  0  0
  186.2170  178.8700  141.7010 C   0  0  0  0  0  2  0  0  0  0  0  0
  186.6750  177.5630  142.1530 N   0  0  0  0  0  2  0  0  0  0  0  0
  189.7360  177.0670  147.2980 C   0  0  0  0  0  3  0  0  0  0  0  0
  191.4100  176.9750  145.5300 C   0  0  0  0  0  3  0  0  0  0  0  0
  190.4120  177.1470  144.5620 C   0  0  0  0  0  3  0  0  0  0  0  0
  192.0390  176.7430  147.8210 F   0  0  0  0  0  0  0  0  0  0  0  0
  187.8460  177.3870  142.9170 N   0  0  0  0  0  2  0  0  0  0  0  0
  188.7570  177.2510  146.3220 C   0  0  0  0  0  0  0  0  0  0  0  0
  187.8930  177.4670  144.2160 C   0  0  0  0  0  0  0  0  0  0  0  0
  187.2920  177.4270  146.5430 C   0  0  0  0  0  3  0  0  0  0  0  0
  189.0890  177.2780  144.9940 C   0  0  0  0  0  0  0  0  0  0  0  0
  186.7130  177.6070  145.1300 C   0  0  0  0  0  3  0  0  0  0  0  0
  191.0680  176.9280  146.8930 C   0  0  2  0  0  3  0  0  0  0  0  0
  184.0180  178.3630  142.7440 C   0  0  0  0  0  2  0  0  0  0  0  0
  183.8490  179.4100  143.7940 C   0  0  0  0  0  3  0  0  0  0  0  0
  183.5090  179.0590  145.0290 C   0  0  0  0  0  2  0  0  0  0  0  0
  1 32  1  0  0  0  0
  2  1  1  0  0  0  0
  3  2  1  0  0  0  0
  4  6  1  0  0  0  0
  4  3  2  0  0  0  0
  5  7  1  0  0  0  0
  6  5  2  0  0  0  0
  7  1  2  0  0  0  0
  8 18  1  6  0  0  0
  8  3  1  0  0  0  0
  9 11  1  0  0  0  0
  9 10  1  0  0  0  0
 11 10  1  0  0  0  0
 11  8  1  1  0  0  0
 12 10  1  0  0  0  0
 12 13  1  0  0  0  0
 13 14  1  0  0  0  0
 14 15  1  0  0  0  0
 17 16  1  0  0  0  0
 17 14  1  0  0  0  0
 18 19  2  0  0  0  0
 20 18  1  0  0  0  0
 21 20  1  0  0  0  0
 21 22  1  0  0  0  0
 22 24  2  0  0  0  0
 23 24  1  0  0  0  0
 24 25  1  0  0  0  0
 25 28  1  6  0  0  0
 27 26  1  0  0  0  0
 27 25  1  0  0  0  0
 28 29  1  0  0  0  0
 29 31  1  0  0  0  0
 30 29  1  0  0  0  0
 32 33  1  0  0  0  0
 32 46  1  0  0  0  0
 33 34  1  0  0  0  0
 34 39  1  0  0  0  0
 36 45  1  0  0  0  0
 37 43  1  0  0  0  0
 37 36  2  0  0  0  0
 39 41  1  0  0  0  0
 40 42  1  0  0  0  0
 40 35  2  0  0  0  0
 41 43  2  0  0  0  0
 41 44  1  0  0  0  0
 43 40  1  0  0  0  0
 44 42  2  0  0  0  0
 45 35  1  0  0  0  0
 45 38  1  6  0  0  0
 46 47  1  0  0  0  0
 47 48  2  0  0  0  0
M  END
>  <MODEL>
4

>  <REMARK>
 VINA RESULT:      -7.2      3.099      9.068
  Name = 
  19 active torsions:
  status: ('A' for Active; 'I' for Inactive)
    1  A    between atoms: N_2  and  N_16
    2  A    between atoms: N_2  and  C_31
    3  A    between atoms: C_3  and  C_43
    4  A    between atoms: C_4  and  C_29
    5  A    between atoms: C_6  and  C_29
    6  A    between atoms: C_6  and  N_37
    7  A    between atoms: C_6  and  C_46
    8  A    between atoms: C_7  and  N_25
    9  A    between atoms: C_9  and  C_42
   10  A    between atoms: C_13  and  C_28
   11  A    between atoms: N_17  and  C_19
   12  A    between atoms: N_17  and  N_30
   13  A    between atoms: C_19  and  C_35
   14  A    between atoms: N_25  and  C_28
   15  A    between atoms: N_25  and  C_31
   16  A    between atoms: N_32  and  C_35
   17  A    between atoms: C_34  and  C_43
   18  A    between atoms: C_39  and  C_43
   19  A    between atoms: N_41  and  C_42
                            x       y       z     vdW  Elec       q    Type
                         _______ _______ _______ _____ _____    ______ ____

>  <TORSDO>
F 19

$$$$
=
 OpenBabel10222420533D

 48 51  0  0  1  0  0  0  0  0999 V2000
  188.2400  177.1140  137.5660 C   0  0  0  0  0  0  0  0  0  0  0  0
  187.2620  175.9880  137.4410 C   0  0  0  0  0  2  0  0  0  0  0  0
  186.0450  176.3620  136.6630 C   0  0  0  0  0  0  0  0  0  0  0  0
  186.1200  176.7140  135.3680 C   0  0  0  0  0  3  0  0  0  0  0  0
  188.5360  177.3270  135.0830 C   0  0  0  0  0  3  0  0  0  0  0  0
  187.3510  176.9460  134.5950 C   0  0  0  0  0  3  0  0  0  0  0  0
  188.8660  177.6050  136.4920 C   0  0  0  0  0  3  0  0  0  0  0  0
  184.7110  176.1780  137.3200 C   0  0  2  0  0  3  0  0  0  0  0  0
  182.8090  174.5840  137.5100 C   0  0  0  0  0  2  0  0  0  0  0  0
  184.0620  173.8030  137.4290 N   0  0  0  0  0  0  0  0  0  0  0  0
  183.8970  175.0550  136.6570 C   0  0  2  0  0  3  0  0  0  0  0  0
  183.9190  172.7190  136.4570 C   0  0  0  0  0  2  0  0  0  0  0  0
  183.2820  171.4590  137.0700 C   0  0  0  0  0  2  0  0  0  0  0  0
  182.1300  170.9980  136.3070 N   0  0  0  0  0  0  0  0  0  0  0  0
  181.0480  171.5040  136.9450 O   0  0  0  0  0  1  0  0  0  0  0  0
  180.7810  171.7310  134.5950 C   0  0  0  0  0  1  0  0  0  0  0  0
  182.1580  171.6120  135.0420 N   0  0  0  0  0  2  0  0  0  0  0  0
  183.9550  177.4770  137.3820 C   0  0  0  0  0  0  0  0  0  0  0  0
  183.1260  177.7770  136.4780 O   0  0  0  0  0  0  0  0  0  0  0  0
  184.1460  178.3370  138.5090 N   0  0  0  0  0  2  0  0  0  0  0  0
  183.2690  179.4570  138.8120 C   0  0  0  0  0  2  0  0  0  0  0  0
  182.4470  179.1550  140.0200 C   0  0  0  0  0  3  0  0  0  0  0  0
  184.3570  178.4650  141.2410 O   0  0  0  0  0  1  0  0  0  0  0  0
  182.9810  178.6800  141.1520 C   0  0  0  0  0  0  0  0  0  0  0  0
  182.1210  178.4450  142.3770 C   0  0  2  0  0  3  0  0  0  0  0  0
  180.0280  179.4670  143.0000 C   0  0  0  0  0  1  0  0  0  0  0  0
  180.6830  178.5160  142.0990 N   0  0  0  0  0  2  0  0  0  0  0  0
  182.4930  179.1730  143.6830 C   0  0  0  0  0  2  0  0  0  0  0  0
  183.9080  178.9340  144.2070 C   0  0  0  0  0  3  0  0  0  0  0  0
  183.8430  178.5430  145.5300 F   0  0  0  0  0  0  0  0  0  0  0  0
  184.6740  180.0830  144.1180 F   0  0  0  0  0  0  0  0  0  0  0  0
  188.7380  177.4580  138.8640 N   0  0  0  0  0  0  0  0  0  0  0  0
  187.7900  177.8370  139.9030 C   0  0  0  0  0  2  0  0  0  0  0  0
  188.4860  178.4600  141.0220 N   0  0  0  0  0  2  0  0  0  0  0  0
  189.4150  177.2600  146.8340 C   0  0  0  0  0  3  0  0  0  0  0  0
  187.0120  177.6000  146.6130 C   0  0  0  0  0  3  0  0  0  0  0  0
  187.1580  177.8000  145.2340 C   0  0  0  0  0  3  0  0  0  0  0  0
  187.9930  177.1640  148.7450 F   0  0  0  0  0  0  0  0  0  0  0  0
  188.0780  178.2950  142.3610 N   0  0  0  0  0  2  0  0  0  0  0  0
  189.5390  177.4490  145.4580 C   0  0  0  0  0  0  0  0  0  0  0  0
  188.8580  177.8810  143.3180 C   0  0  0  0  0  0  0  0  0  0  0  0
  190.7960  177.3990  144.6560 C   0  0  0  0  0  3  0  0  0  0  0  0
  188.4410  177.7220  144.6870 C   0  0  0  0  0  0  0  0  0  0  0  0
  190.3360  177.6550  143.2110 C   0  0  0  0  0  3  0  0  0  0  0  0
  188.1420  177.3380  147.4090 C   0  0  2  0  0  3  0  0  0  0  0  0
  190.1020  177.9620  138.9970 C   0  0  0  0  0  2  0  0  0  0  0  0
  191.0230  176.8700  139.4270 C   0  0  0  0  0  3  0  0  0  0  0  0
  192.2250  177.1690  139.9080 C   0  0  0  0  0  2  0  0  0  0  0  0
  1 32  1  0  0  0  0
  2  1  1  0  0  0  0
  3  8  1  0  0  0  0
  3  2  1  0  0  0  0
  4  3  2  0  0  0  0
  5  7  1  0  0  0  0
  6  5  2  0  0  0  0
  6  4  1  0  0  0  0
  7  1  2  0  0  0  0
  8 18  1  6  0  0  0
 10  9  1  0  0  0  0
 11  8  1  1  0  0  0
 11 10  1  0  0  0  0
 11  9  1  0  0  0  0
 12 13  1  0  0  0  0
 12 10  1  0  0  0  0
 14 15  1  0  0  0  0
 14 13  1  0  0  0  0
 16 17  1  0  0  0  0
 17 14  1  0  0  0  0
 18 20  1  0  0  0  0
 19 18  2  0  0  0  0
 20 21  1  0  0  0  0
 21 22  1  0  0  0  0
 22 24  2  0  0  0  0
 24 23  1  0  0  0  0
 24 25  1  0  0  0  0
 25 28  1  1  0  0  0
 27 25  1  0  0  0  0
 27 26  1  0  0  0  0
 28 29  1  0  0  0  0
 29 30  1  0  0  0  0
 31 29  1  0  0  0  0
 32 46  1  0  0  0  0
 32 33  1  0  0  0  0
 33 34  1  0  0  0  0
 34 39  1  0  0  0  0
 35 45  1  0  0  0  0
 36 45  1  0  0  0  0
 37 36  2  0  0  0  0
 39 41  1  0  0  0  0
 40 35  2  0  0  0  0
 41 43  2  0  0  0  0
 42 40  1  0  0  0  0
 43 37  1  0  0  0  0
 43 40  1  0  0  0  0
 44 41  1  0  0  0  0
 44 42  2  0  0  0  0
 45 38  1  1  0  0  0
 46 47  1  0  0  0  0
 47 48  2  0  0  0  0
M  END
>  <MODEL>
5

>  <REMARK>
 VINA RESULT:      -7.1      3.209      9.090
  Name = 
  19 active torsions:
  status: ('A' for Active; 'I' for Inactive)
    1  A    between atoms: N_2  and  N_16
    2  A    between atoms: N_2  and  C_31
    3  A    between atoms: C_3  and  C_43
    4  A    between atoms: C_4  and  C_29
    5  A    between atoms: C_6  and  C_29
    6  A    between atoms: C_6  and  N_37
    7  A    between atoms: C_6  and  C_46
    8  A    between atoms: C_7  and  N_25
    9  A    between atoms: C_9  and  C_42
   10  A    between atoms: C_13  and  C_28
   11  A    between atoms: N_17  and  C_19
   12  A    between atoms: N_17  and  N_30
   13  A    between atoms: C_19  and  C_35
   14  A    between atoms: N_25  and  C_28
   15  A    between atoms: N_25  and  C_31
   16  A    between atoms: N_32  and  C_35
   17  A    between atoms: C_34  and  C_43
   18  A    between atoms: C_39  and  C_43
   19  A    between atoms: N_41  and  C_42
                            x       y       z     vdW  Elec       q    Type
                         _______ _______ _______ _____ _____    ______ ____

>  <TORSDO>
F 19

$$$$
=
 OpenBabel10222420533D

 48 51  0  0  1  0  0  0  0  0999 V2000
  190.3700  177.3680  139.5750 C   0  0  0  0  0  0  0  0  0  0  0  0
  190.6590  176.0800  138.8690 C   0  0  0  0  0  2  0  0  0  0  0  0
  191.8340  176.1730  137.9540 C   0  0  0  0  0  0  0  0  0  0  0  0
  193.0670  176.4350  138.4180 C   0  0  0  0  0  3  0  0  0  0  0  0
  192.6260  177.4430  140.6730 C   0  0  0  0  0  3  0  0  0  0  0  0
  193.4200  176.8220  139.7940 C   0  0  0  0  0  3  0  0  0  0  0  0
  191.2350  177.8810  140.4550 C   0  0  0  0  0  3  0  0  0  0  0  0
  191.6300  175.8050  136.5150 C   0  0  2  0  0  3  0  0  0  0  0  0
  190.2260  174.4930  134.9350 C   0  0  0  0  0  2  0  0  0  0  0  0
  189.3530  175.4570  135.6390 N   0  0  0  0  0  0  0  0  0  0  0  0
  190.4800  174.8000  136.3400 C   0  0  2  0  0  3  0  0  0  0  0  0
  188.1460  174.7860  136.1210 C   0  0  0  0  0  2  0  0  0  0  0  0
  186.8910  175.1920  135.3270 C   0  0  0  0  0  2  0  0  0  0  0  0
  185.7620  174.3090  135.5930 N   0  0  0  0  0  0  0  0  0  0  0  0
  186.2410  173.0530  135.4300 O   0  0  0  0  0  1  0  0  0  0  0  0
  185.3830  173.0740  137.4960 C   0  0  0  0  0  1  0  0  0  0  0  0
  185.4190  174.4210  136.9530 N   0  0  0  0  0  2  0  0  0  0  0  0
  192.9130  175.3260  135.8930 C   0  0  0  0  0  0  0  0  0  0  0  0
  193.1090  174.0930  135.7020 O   0  0  0  0  0  0  0  0  0  0  0  0
  193.8790  176.2910  135.4660 N   0  0  0  0  0  2  0  0  0  0  0  0
  195.0040  175.9620  134.6040 C   0  0  0  0  0  2  0  0  0  0  0  0
  195.7770  174.8230  135.1800 C   0  0  0  0  0  3  0  0  0  0  0  0
  197.3030  176.2930  136.2410 O   0  0  0  0  0  1  0  0  0  0  0  0
  196.8620  175.0030  135.9430 C   0  0  0  0  0  0  0  0  0  0  0  0
  197.5830  173.8200  136.5590 C   0  0  2  0  0  3  0  0  0  0  0  0
  196.9800  171.5010  136.2960 C   0  0  0  0  0  1  0  0  0  0  0  0
  197.6420  172.6510  135.6760 N   0  0  0  0  0  2  0  0  0  0  0  0
  197.2390  173.4320  138.0100 C   0  0  0  0  0  2  0  0  0  0  0  0
  196.0460  174.1520  138.6360 C   0  0  0  0  0  3  0  0  0  0  0  0
  196.4490  174.7710  139.8030 F   0  0  0  0  0  0  0  0  0  0  0  0
  195.0260  173.2650  138.9300 F   0  0  0  0  0  0  0  0  0  0  0  0
  189.0370  177.8910  139.5420 N   0  0  0  0  0  0  0  0  0  0  0  0
  188.5170  178.5660  140.7240 C   0  0  0  0  0  2  0  0  0  0  0  0
  187.6860  177.6570  141.5030 N   0  0  0  0  0  2  0  0  0  0  0  0
  189.1300  177.5140  147.3320 C   0  0  0  0  0  3  0  0  0  0  0  0
  186.8070  178.2450  147.2520 C   0  0  0  0  0  3  0  0  0  0  0  0
  186.8080  178.1290  145.8560 C   0  0  0  0  0  3  0  0  0  0  0  0
  187.9640  178.0770  149.3330 F   0  0  0  0  0  0  0  0  0  0  0  0
  187.4280  177.8470  142.8750 N   0  0  0  0  0  2  0  0  0  0  0  0
  189.1090  177.3910  145.9430 C   0  0  0  0  0  0  0  0  0  0  0  0
  188.2440  177.4990  143.8290 C   0  0  0  0  0  0  0  0  0  0  0  0
  190.2290  176.9450  145.0660 C   0  0  0  0  0  3  0  0  0  0  0  0
  187.9830  177.7030  145.2300 C   0  0  0  0  0  0  0  0  0  0  0  0
  189.6400  176.9830  143.6460 C   0  0  0  0  0  3  0  0  0  0  0  0
  187.9690  177.9440  147.9840 C   0  0  2  0  0  3  0  0  0  0  0  0
  188.0590  177.3010  138.6320 C   0  0  0  0  0  2  0  0  0  0  0  0
  187.8310  178.1950  137.4600 C   0  0  0  0  0  3  0  0  0  0  0  0
  188.7960  179.0120  137.0530 C   0  0  0  0  0  2  0  0  0  0  0  0
  1  7  2  0  0  0  0
  2  1  1  0  0  0  0
  3  4  2  0  0  0  0
  3  2  1  0  0  0  0
  4  6  1  0  0  0  0
  6  5  2  0  0  0  0
  7  5  1  0  0  0  0
  8 18  1  1  0  0  0
  8  3  1  0  0  0  0
  9 10  1  0  0  0  0
  9 11  1  0  0  0  0
 10 12  1  0  0  0  0
 10 11  1  0  0  0  0
 11  8  1  6  0  0  0
 13 14  1  0  0  0  0
 13 12  1  0  0  0  0
 14 17  1  0  0  0  0
 15 14  1  0  0  0  0
 17 16  1  0  0  0  0
 19 18  2  0  0  0  0
 20 18  1  0  0  0  0
 21 22  1  0  0  0  0
 21 20  1  0  0  0  0
 22 24  2  0  0  0  0
 24 23  1  0  0  0  0
 24 25  1  0  0  0  0
 25 28  1  1  0  0  0
 27 26  1  0  0  0  0
 27 25  1  0  0  0  0
 28 29  1  0  0  0  0
 29 31  1  0  0  0  0
 29 30  1  0  0  0  0
 32  1  1  0  0  0  0
 32 33  1  0  0  0  0
 33 34  1  0  0  0  0
 34 39  1  0  0  0  0
 35 45  1  0  0  0  0
 36 45  1  0  0  0  0
 37 36  2  0  0  0  0
 39 41  1  0  0  0  0
 40 35  2  0  0  0  0
 41 43  2  0  0  0  0
 42 40  1  0  0  0  0
 43 37  1  0  0  0  0
 43 40  1  0  0  0  0
 44 41  1  0  0  0  0
 44 42  2  0  0  0  0
 45 38  1  6  0  0  0
 46 32  1  0  0  0  0
 47 46  1  0  0  0  0
 48 47  2  0  0  0  0
M  END
>  <MODEL>
6

>  <REMARK>
 VINA RESULT:      -6.9      5.374     10.141
  Name = 
  19 active torsions:
  status: ('A' for Active; 'I' for Inactive)
    1  A    between atoms: N_2  and  N_16
    2  A    between atoms: N_2  and  C_31
    3  A    between atoms: C_3  and  C_43
    4  A    between atoms: C_4  and  C_29
    5  A    between atoms: C_6  and  C_29
    6  A    between atoms: C_6  and  N_37
    7  A    between atoms: C_6  and  C_46
    8  A    between atoms: C_7  and  N_25
    9  A    between atoms: C_9  and  C_42
   10  A    between atoms: C_13  and  C_28
   11  A    between atoms: N_17  and  C_19
   12  A    between atoms: N_17  and  N_30
   13  A    between atoms: C_19  and  C_35
   14  A    between atoms: N_25  and  C_28
   15  A    between atoms: N_25  and  C_31
   16  A    between atoms: N_32  and  C_35
   17  A    between atoms: C_34  and  C_43
   18  A    between atoms: C_39  and  C_43
   19  A    between atoms: N_41  and  C_42
                            x       y       z     vdW  Elec       q    Type
                         _______ _______ _______ _____ _____    ______ ____

>  <TORSDO>
F 19

$$$$
=
 OpenBabel10222420533D

 48 51  0  0  1  0  0  0  0  0999 V2000
  189.2150  177.4050  143.8740 C   0  0  0  0  0  0  0  0  0  0  0  0
  189.6200  176.4750  142.7730 C   0  0  0  0  0  2  0  0  0  0  0  0
  190.1920  177.1870  141.5930 C   0  0  0  0  0  0  0  0  0  0  0  0
  191.3250  177.9030  141.6850 C   0  0  0  0  0  3  0  0  0  0  0  0
  191.5340  178.3240  144.1500 C   0  0  0  0  0  3  0  0  0  0  0  0
  192.0550  178.2290  142.9220 C   0  0  0  0  0  3  0  0  0  0  0  0
  190.1240  178.1300  144.5320 C   0  0  0  0  0  3  0  0  0  0  0  0
  189.5530  176.9510  140.2580 C   0  0  2  0  0  3  0  0  0  0  0  0
  190.0500  176.5360  137.8550 C   0  0  0  0  0  2  0  0  0  0  0  0
  190.9810  175.7230  138.6670 N   0  0  0  0  0  0  0  0  0  0  0  0
  190.5680  177.0740  139.1100 C   0  0  2  0  0  3  0  0  0  0  0  0
  192.3480  175.8730  138.1690 C   0  0  0  0  0  2  0  0  0  0  0  0
  192.9150  174.5570  137.6040 C   0  0  0  0  0  2  0  0  0  0  0  0
  194.3260  174.6690  137.2600 N   0  0  0  0  0  0  0  0  0  0  0  0
  194.5320  175.9840  137.0090 O   0  0  0  0  0  1  0  0  0  0  0  0
  195.4390  172.9590  138.3210 C   0  0  0  0  0  1  0  0  0  0  0  0
  195.0900  174.3670  138.4020 N   0  0  0  0  0  2  0  0  0  0  0  0
  188.3560  177.8410  140.0660 C   0  0  0  0  0  0  0  0  0  0  0  0
  188.3220  178.9880  140.5930 O   0  0  0  0  0  0  0  0  0  0  0  0
  187.2860  177.3920  139.2290 N   0  0  0  0  0  2  0  0  0  0  0  0
  186.2320  178.2710  138.7460 C   0  0  0  0  0  2  0  0  0  0  0  0
  185.7960  177.8500  137.3830 C   0  0  0  0  0  3  0  0  0  0  0  0
  184.0980  176.4560  138.2710 O   0  0  0  0  0  1  0  0  0  0  0  0
  184.7920  176.9870  137.1830 C   0  0  0  0  0  0  0  0  0  0  0  0
  184.3390  176.6340  135.7810 C   0  0  2  0  0  3  0  0  0  0  0  0
  186.1140  175.0240  135.5130 C   0  0  0  0  0  1  0  0  0  0  0  0
  185.4310  176.1740  134.9170 N   0  0  0  0  0  2  0  0  0  0  0  0
  183.3950  177.6090  135.0510 C   0  0  0  0  0  2  0  0  0  0  0  0
  181.9450  177.6270  135.5290 C   0  0  0  0  0  3  0  0  0  0  0  0
  181.8390  178.4560  136.6280 F   0  0  0  0  0  0  0  0  0  0  0  0
  181.5190  176.3590  135.8820 F   0  0  0  0  0  0  0  0  0  0  0  0
  187.9000  177.2900  144.4280 N   0  0  0  0  0  0  0  0  0  0  0  0
  186.7690  177.1170  143.5270 C   0  0  0  0  0  2  0  0  0  0  0  0
  186.2730  178.4120  143.0790 N   0  0  0  0  0  2  0  0  0  0  0  0
  180.4310  179.1680  141.9030 C   0  0  0  0  0  3  0  0  0  0  0  0
  181.5020  178.8760  139.7340 C   0  0  0  0  0  3  0  0  0  0  0  0
  182.7430  178.7010  140.3590 C   0  0  0  0  0  3  0  0  0  0  0  0
  179.1590  179.3030  139.8920 F   0  0  0  0  0  0  0  0  0  0  0  0
  185.1620  178.5480  142.2220 N   0  0  0  0  0  2  0  0  0  0  0  0
  181.6720  178.9780  142.5090 C   0  0  0  0  0  0  0  0  0  0  0  0
  183.9270  178.6140  142.6300 C   0  0  0  0  0  0  0  0  0  0  0  0
  181.9670  178.9870  143.9710 C   0  0  0  0  0  2  0  0  0  0  0  0
  182.7940  178.7630  141.7540 C   0  0  0  0  0  0  0  0  0  0  0  0
  183.4770  178.7080  144.0570 C   0  0  0  0  0  3  0  0  0  0  0  0
  180.3520  179.1160  140.5070 C   0  0  0  0  0  0  0  0  0  0  0  0
  187.6210  177.8800  145.7350 C   0  0  0  0  0  2  0  0  0  0  0  0
  186.1580  177.8370  146.0260 C   0  0  0  0  0  3  0  0  0  0  0  0
  185.6470  178.6220  146.9680 C   0  0  0  0  0  2  0  0  0  0  0  0
  1 32  1  0  0  0  0
  1  7  2  0  0  0  0
  2  1  1  0  0  0  0
  3  4  2  0  0  0  0
  3  2  1  0  0  0  0
  4  6  1  0  0  0  0
  5  7  1  0  0  0  0
  6  5  2  0  0  0  0
  8 18  1  6  0  0  0
  8  3  1  0  0  0  0
  9 10  1  0  0  0  0
  9 11  1  0  0  0  0
 10 11  1  0  0  0  0
 11  8  1  1  0  0  0
 12 10  1  0  0  0  0
 13 12  1  0  0  0  0
 14 13  1  0  0  0  0
 14 17  1  0  0  0  0
 15 14  1  0  0  0  0
 16 17  1  0  0  0  0
 18 19  2  0  0  0  0
 20 18  1  0  0  0  0
 21 20  1  0  0  0  0
 22 21  1  0  0  0  0
 24 22  2  0  0  0  0
 24 23  1  0  0  0  0
 25 28  1  6  0  0  0
 25 24  1  0  0  0  0
 27 26  1  0  0  0  0
 27 25  1  0  0  0  0
 28 29  1  0  0  0  0
 29 31  1  0  0  0  0
 29 30  1  0  0  0  0
 32 46  1  0  0  0  0
 33 32  1  0  0  0  0
 34 33  1  0  0  0  0
 35 40  1  0  0  0  0
 36 37  2  0  0  0  0
 36 45  1  0  0  0  0
 37 43  1  0  0  0  0
 38 45  1  0  0  0  0
 39 41  1  0  0  0  0
 39 34  1  0  0  0  0
 40 42  1  0  0  0  0
 41 44  2  0  0  0  0
 42 44  1  0  0  0  0
 43 40  2  0  0  0  0
 43 41  1  0  0  0  0
 45 35  2  0  0  0  0
 46 47  1  0  0  0  0
 47 48  2  0  0  0  0
M  END
>  <MODEL>
7

>  <REMARK>
 VINA RESULT:      -6.9      3.957      8.992
  Name = 
  19 active torsions:
  status: ('A' for Active; 'I' for Inactive)
    1  A    between atoms: N_2  and  N_16
    2  A    between atoms: N_2  and  C_31
    3  A    between atoms: C_3  and  C_43
    4  A    between atoms: C_4  and  C_29
    5  A    between atoms: C_6  and  C_29
    6  A    between atoms: C_6  and  N_37
    7  A    between atoms: C_6  and  C_46
    8  A    between atoms: C_7  and  N_25
    9  A    between atoms: C_9  and  C_42
   10  A    between atoms: C_13  and  C_28
   11  A    between atoms: N_17  and  C_19
   12  A    between atoms: N_17  and  N_30
   13  A    between atoms: C_19  and  C_35
   14  A    between atoms: N_25  and  C_28
   15  A    between atoms: N_25  and  C_31
   16  A    between atoms: N_32  and  C_35
   17  A    between atoms: C_34  and  C_43
   18  A    between atoms: C_39  and  C_43
   19  A    between atoms: N_41  and  C_42
                            x       y       z     vdW  Elec       q    Type
                         _______ _______ _______ _____ _____    ______ ____

>  <TORSDO>
F 19

$$$$
=
 OpenBabel10222420533D

 48 51  0  0  1  0  0  0  0  0999 V2000
  189.0750  177.5140  142.9130 C   0  0  0  0  0  0  0  0  0  0  0  0
  189.5100  176.4630  141.9400 C   0  0  0  0  0  2  0  0  0  0  0  0
  190.4520  176.9850  140.9070 C   0  0  0  0  0  0  0  0  0  0  0  0
  191.6590  177.4720  141.2380 C   0  0  0  0  0  3  0  0  0  0  0  0
  191.4180  177.9800  143.6830 C   0  0  0  0  0  3  0  0  0  0  0  0
  192.1590  177.7190  142.6010 C   0  0  0  0  0  3  0  0  0  0  0  0
  189.9490  178.0850  143.7470 C   0  0  0  0  0  3  0  0  0  0  0  0
  190.0800  176.8030  139.4660 C   0  0  2  0  0  3  0  0  0  0  0  0
  190.9810  176.6280  137.1530 C   0  0  0  0  0  2  0  0  0  0  0  0
  191.7070  175.6630  138.0070 N   0  0  0  0  0  0  0  0  0  0  0  0
  191.2900  176.9820  138.5370 C   0  0  2  0  0  3  0  0  0  0  0  0
  193.1470  175.7690  137.7770 C   0  0  0  0  0  2  0  0  0  0  0  0
  193.8450  174.3960  137.7750 C   0  0  0  0  0  2  0  0  0  0  0  0
  194.9910  174.3610  138.6740 N   0  0  0  0  0  0  0  0  0  0  0  0
  195.2540  173.0470  138.8710 O   0  0  0  0  0  1  0  0  0  0  0  0
  197.2200  173.9850  138.2500 C   0  0  0  0  0  1  0  0  0  0  0  0
  196.1070  174.8830  137.9950 N   0  0  0  0  0  2  0  0  0  0  0  0
  188.9280  177.6930  139.0890 C   0  0  0  0  0  0  0  0  0  0  0  0
  188.9980  178.9400  139.2710 O   0  0  0  0  0  0  0  0  0  0  0  0
  187.7780  177.1120  138.4670 N   0  0  0  0  0  2  0  0  0  0  0  0
  186.7470  177.9000  137.8080 C   0  0  0  0  0  2  0  0  0  0  0  0
  186.0690  177.0840  136.7590 C   0  0  0  0  0  3  0  0  0  0  0  0
  184.2690  176.5710  138.2130 O   0  0  0  0  0  1  0  0  0  0  0  0
  184.9040  176.4600  136.9750 C   0  0  0  0  0  0  0  0  0  0  0  0
  184.2170  175.6920  135.8640 C   0  0  2  0  0  3  0  0  0  0  0  0
  182.6420  177.4180  135.2700 C   0  0  0  0  0  1  0  0  0  0  0  0
  182.7980  176.0310  135.7150 N   0  0  0  0  0  2  0  0  0  0  0  0
  184.4610  174.1740  135.7660 C   0  0  0  0  0  2  0  0  0  0  0  0
  184.0940  173.3510  137.0000 C   0  0  0  0  0  3  0  0  0  0  0  0
  182.9220  173.8410  137.5410 F   0  0  0  0  0  0  0  0  0  0  0  0
  185.0900  173.4170  137.9580 F   0  0  0  0  0  0  0  0  0  0  0  0
  187.6760  177.6870  143.1650 N   0  0  0  0  0  0  0  0  0  0  0  0
  186.7490  177.6550  142.0420 C   0  0  0  0  0  2  0  0  0  0  0  0
  186.3060  179.0020  141.7100 N   0  0  0  0  0  2  0  0  0  0  0  0
  180.5180  179.2680  140.1230 C   0  0  0  0  0  3  0  0  0  0  0  0
  181.7730  179.8770  138.1250 C   0  0  0  0  0  3  0  0  0  0  0  0
  182.9790  179.6810  138.8100 C   0  0  0  0  0  3  0  0  0  0  0  0
  179.3860  179.8870  138.1190 F   0  0  0  0  0  0  0  0  0  0  0  0
  185.2510  179.2580  140.8120 N   0  0  0  0  0  2  0  0  0  0  0  0
  181.7280  179.0650  140.7850 C   0  0  0  0  0  0  0  0  0  0  0  0
  183.9980  179.0060  141.0620 C   0  0  0  0  0  0  0  0  0  0  0  0
  181.9140  178.6240  142.1980 C   0  0  0  0  0  2  0  0  0  0  0  0
  182.9210  179.2780  140.1460 C   0  0  0  0  0  0  0  0  0  0  0  0
  183.4390  178.5500  142.3770 C   0  0  0  0  0  3  0  0  0  0  0  0
  180.5480  179.6780  138.7850 C   0  0  0  0  0  0  0  0  0  0  0  0
  187.2490  178.4180  144.3550 C   0  0  0  0  0  2  0  0  0  0  0  0
  186.3980  177.5530  145.2230 C   0  0  0  0  0  3  0  0  0  0  0  0
  185.4390  178.0980  145.9640 C   0  0  0  0  0  2  0  0  0  0  0  0
  1 32  1  0  0  0  0
  1  7  2  0  0  0  0
  2  1  1  0  0  0  0
  3  4  2  0  0  0  0
  3  2  1  0  0  0  0
  4  6  1  0  0  0  0
  5  7  1  0  0  0  0
  6  5  2  0  0  0  0
  8 18  1  6  0  0  0
  8  3  1  0  0  0  0
  9 10  1  0  0  0  0
  9 11  1  0  0  0  0
 10 11  1  0  0  0  0
 11  8  1  1  0  0  0
 12 10  1  0  0  0  0
 13 12  1  0  0  0  0
 13 14  1  0  0  0  0
 14 15  1  0  0  0  0
 17 16  1  0  0  0  0
 17 14  1  0  0  0  0
 18 19  2  0  0  0  0
 20 18  1  0  0  0  0
 21 20  1  0  0  0  0
 22 24  2  0  0  0  0
 22 21  1  0  0  0  0
 24 23  1  0  0  0  0
 25 28  1  1  0  0  0
 25 24  1  0  0  0  0
 26 27  1  0  0  0  0
 27 25  1  0  0  0  0
 28 29  1  0  0  0  0
 29 30  1  0  0  0  0
 29 31  1  0  0  0  0
 32 46  1  0  0  0  0
 33 32  1  0  0  0  0
 34 33  1  0  0  0  0
 35 40  1  0  0  0  0
 36 45  1  0  0  0  0
 36 37  2  0  0  0  0
 37 43  1  0  0  0  0
 38 45  1  0  0  0  0
 39 41  1  0  0  0  0
 39 34  1  0  0  0  0
 40 42  1  0  0  0  0
 41 44  2  0  0  0  0
 42 44  1  0  0  0  0
 43 40  2  0  0  0  0
 43 41  1  0  0  0  0
 45 35  2  0  0  0  0
 46 47  1  0  0  0  0
 47 48  2  0  0  0  0
M  END
>  <MODEL>
8

>  <REMARK>
 VINA RESULT:      -6.9      3.687      8.832
  Name = 
  19 active torsions:
  status: ('A' for Active; 'I' for Inactive)
    1  A    between atoms: N_2  and  N_16
    2  A    between atoms: N_2  and  C_31
    3  A    between atoms: C_3  and  C_43
    4  A    between atoms: C_4  and  C_29
    5  A    between atoms: C_6  and  C_29
    6  A    between atoms: C_6  and  N_37
    7  A    between atoms: C_6  and  C_46
    8  A    between atoms: C_7  and  N_25
    9  A    between atoms: C_9  and  C_42
   10  A    between atoms: C_13  and  C_28
   11  A    between atoms: N_17  and  C_19
   12  A    between atoms: N_17  and  N_30
   13  A    between atoms: C_19  and  C_35
   14  A    between atoms: N_25  and  C_28
   15  A    between atoms: N_25  and  C_31
   16  A    between atoms: N_32  and  C_35
   17  A    between atoms: C_34  and  C_43
   18  A    between atoms: C_39  and  C_43
   19  A    between atoms: N_41  and  C_42
                            x       y       z     vdW  Elec       q    Type
                         _______ _______ _______ _____ _____    ______ ____

>  <TORSDO>
F 19

$$$$
=
 OpenBabel10222420533D

 48 51  0  0  1  0  0  0  0  0999 V2000
  189.3300  176.7580  137.8480 C   0  0  0  0  0  0  0  0  0  0  0  0
  188.1090  175.9140  137.6590 C   0  0  0  0  0  2  0  0  0  0  0  0
  187.1960  176.4450  136.6040 C   0  0  0  0  0  0  0  0  0  0  0  0
  187.5830  176.5380  135.3210 C   0  0  0  0  0  3  0  0  0  0  0  0
  190.0870  176.4570  135.4740 C   0  0  0  0  0  3  0  0  0  0  0  0
  188.9410  176.3110  134.7990 C   0  0  0  0  0  3  0  0  0  0  0  0
  190.2400  176.8810  136.8770 C   0  0  0  0  0  3  0  0  0  0  0  0
  185.7730  176.7230  136.9860 C   0  0  2  0  0  3  0  0  0  0  0  0
  183.4820  177.1210  136.1000 C   0  0  0  0  0  2  0  0  0  0  0  0
  183.7810  175.6770  135.9800 N   0  0  0  0  0  0  0  0  0  0  0  0
  184.8380  176.6920  135.7660 C   0  0  2  0  0  3  0  0  0  0  0  0
  183.4220  175.1970  134.6460 C   0  0  0  0  0  2  0  0  0  0  0  0
  183.2050  173.6720  134.6090 C   0  0  0  0  0  2  0  0  0  0  0  0
  182.6010  173.1730  135.8370 N   0  0  0  0  0  0  0  0  0  0  0  0
  181.2720  173.3900  135.7000 O   0  0  0  0  0  1  0  0  0  0  0  0
  181.8050  171.2060  134.9510 C   0  0  0  0  0  1  0  0  0  0  0  0
  182.7660  171.7770  135.8800 N   0  0  0  0  0  2  0  0  0  0  0  0
  185.6640  178.0060  137.7630 C   0  0  0  0  0  0  0  0  0  0  0  0
  186.2670  179.0440  137.3710 O   0  0  0  0  0  0  0  0  0  0  0  0
  184.8180  178.0470  138.9160 N   0  0  0  0  0  2  0  0  0  0  0  0
  184.4150  179.2870  139.5620 C   0  0  0  0  0  2  0  0  0  0  0  0
  182.9270  179.3950  139.5840 C   0  0  0  0  0  3  0  0  0  0  0  0
  182.8040  178.3340  141.6990 O   0  0  0  0  0  1  0  0  0  0  0  0
  182.1870  178.9320  140.5990 C   0  0  0  0  0  0  0  0  0  0  0  0
  180.6830  179.1170  140.6120 C   0  0  2  0  0  3  0  0  0  0  0  0
  179.7840  181.1970  139.7870 C   0  0  0  0  0  1  0  0  0  0  0  0
  180.2680  180.4780  140.9680 N   0  0  0  0  0  2  0  0  0  0  0  0
  179.8220  178.0490  141.3110 C   0  0  0  0  0  2  0  0  0  0  0  0
  179.5830  176.7580  140.5290 C   0  0  0  0  0  3  0  0  0  0  0  0
  180.7970  176.1600  140.2560 F   0  0  0  0  0  0  0  0  0  0  0  0
  178.9310  177.0110  139.3360 F   0  0  0  0  0  0  0  0  0  0  0  0
  189.6800  177.1840  139.1700 N   0  0  0  0  0  0  0  0  0  0  0  0
  188.9390  178.2830  139.7750 C   0  0  0  0  0  2  0  0  0  0  0  0
  187.9790  177.7750  140.7450 N   0  0  0  0  0  2  0  0  0  0  0  0
  186.7240  177.7540  146.6200 C   0  0  0  0  0  3  0  0  0  0  0  0
  189.0900  177.1920  146.4540 C   0  0  0  0  0  3  0  0  0  0  0  0
  189.0330  177.3220  145.0610 C   0  0  0  0  0  3  0  0  0  0  0  0
  187.9940  177.2550  148.5740 F   0  0  0  0  0  0  0  0  0  0  0  0
  188.2950  177.5900  142.1060 N   0  0  0  0  0  2  0  0  0  0  0  0
  186.6900  177.8920  145.2330 C   0  0  0  0  0  0  0  0  0  0  0  0
  187.4890  177.8690  143.0900 C   0  0  0  0  0  0  0  0  0  0  0  0
  185.5120  178.2660  144.3980 C   0  0  0  0  0  3  0  0  0  0  0  0
  187.8110  177.6700  144.4790 C   0  0  0  0  0  0  0  0  0  0  0  0
  186.0540  178.2850  142.9600 C   0  0  0  0  0  3  0  0  0  0  0  0
  187.9340  177.4010  147.2280 C   0  0  2  0  0  3  0  0  0  0  0  0
  191.0340  176.9480  139.6630 C   0  0  0  0  0  2  0  0  0  0  0  0
  191.2390  177.6280  140.9750 C   0  0  0  0  0  3  0  0  0  0  0  0
  192.0410  177.0840  141.8830 C   0  0  0  0  0  2  0  0  0  0  0  0
  1 32  1  0  0  0  0
  2  1  1  0  0  0  0
  3  8  1  0  0  0  0
  3  2  1  0  0  0  0
  4  3  2  0  0  0  0
  5  7  1  0  0  0  0
  6  4  1  0  0  0  0
  6  5  2  0  0  0  0
  7  1  2  0  0  0  0
  8 18  1  6  0  0  0
 10  9  1  0  0  0  0
 11 10  1  0  0  0  0
 11  9  1  0  0  0  0
 11  8  1  1  0  0  0
 12 10  1  0  0  0  0
 13 12  1  0  0  0  0
 13 14  1  0  0  0  0
 14 17  1  0  0  0  0
 15 14  1  0  0  0  0
 16 17  1  0  0  0  0
 18 20  1  0  0  0  0
 19 18  2  0  0  0  0
 20 21  1  0  0  0  0
 21 22  1  0  0  0  0
 22 24  2  0  0  0  0
 24 25  1  0  0  0  0
 24 23  1  0  0  0  0
 25 27  1  0  0  0  0
 25 28  1  1  0  0  0
 26 27  1  0  0  0  0
 29 28  1  0  0  0  0
 30 29  1  0  0  0  0
 31 29  1  0  0  0  0
 32 46  1  0  0  0  0
 32 33  1  0  0  0  0
 33 34  1  0  0  0  0
 34 39  1  0  0  0  0
 35 45  1  0  0  0  0
 36 45  1  0  0  0  0
 37 36  2  0  0  0  0
 39 41  1  0  0  0  0
 40 35  2  0  0  0  0
 41 43  2  0  0  0  0
 42 40  1  0  0  0  0
 43 37  1  0  0  0  0
 43 40  1  0  0  0  0
 44 41  1  0  0  0  0
 44 42  2  0  0  0  0
 45 38  1  6  0  0  0
 46 47  1  0  0  0  0
 47 48  2  0  0  0  0
M  END
>  <MODEL>
9

>  <REMARK>
 VINA RESULT:      -6.9      3.195      9.569
  Name = 
  19 active torsions:
  status: ('A' for Active; 'I' for Inactive)
    1  A    between atoms: N_2  and  N_16
    2  A    between atoms: N_2  and  C_31
    3  A    between atoms: C_3  and  C_43
    4  A    between atoms: C_4  and  C_29
    5  A    between atoms: C_6  and  C_29
    6  A    between atoms: C_6  and  N_37
    7  A    between atoms: C_6  and  C_46
    8  A    between atoms: C_7  and  N_25
    9  A    between atoms: C_9  and  C_42
   10  A    between atoms: C_13  and  C_28
   11  A    between atoms: N_17  and  C_19
   12  A    between atoms: N_17  and  N_30
   13  A    between atoms: C_19  and  C_35
   14  A    between atoms: N_25  and  C_28
   15  A    between atoms: N_25  and  C_31
   16  A    between atoms: N_32  and  C_35
   17  A    between atoms: C_34  and  C_43
   18  A    between atoms: C_39  and  C_43
   19  A    between atoms: N_41  and  C_42
                            x       y       z     vdW  Elec       q    Type
                         _______ _______ _______ _____ _____    ______ ____

>  <TORSDO>
F 19

$$$$
