=
 OpenBabel10222421143D

 37 40  0  0  1  0  0  0  0  0999 V2000
  188.3860  177.1710  139.2800 C   0  0  0  0  0  3  0  0  0  0  0  0
  190.8430  177.2190  140.1550 C   0  0  0  0  0  0  0  0  0  0  0  0
  189.6160  177.1900  139.7070 C   0  0  0  0  0  0  0  0  0  0  0  0
  191.0240  176.2240  143.9060 C   0  0  1  0  0  3  0  0  0  0  0  0
  191.1120  177.5110  141.5340 N   0  0  0  0  0  2  0  0  0  0  0  0
  190.7310  175.2330  143.0140 N   0  0  0  0  0  0  0  0  0  0  0  0
  190.9890  176.5500  142.5820 C   0  0  0  0  0  0  0  0  0  0  0  0
  188.6110  177.4920  146.6070 C   0  0  0  0  0  0  0  0  0  0  0  0
  187.4430  177.3640  144.4790 C   0  0  0  0  0  3  0  0  0  0  0  0
  187.4490  177.6580  145.8410 C   0  0  0  0  0  3  0  0  0  0  0  0
  190.9650  176.8700  146.7080 O   0  0  0  0  0  1  0  0  0  0  0  0
  189.7730  176.6910  144.6060 C   0  0  0  0  0  0  0  0  0  0  0  0
  188.6000  176.8910  143.8640 C   0  0  0  0  0  3  0  0  0  0  0  0
  189.7860  177.0160  145.9800 C   0  0  0  0  0  0  0  0  0  0  0  0
  187.7270  177.2870  148.8180 O   0  0  0  0  0  1  0  0  0  0  0  0
  188.5570  177.8370  148.0470 C   0  0  0  0  0  0  0  0  0  0  0  0
  189.4340  178.7820  148.5670 O   0  0  0  0  0  0  0  0  0  0  0  0
  191.1760  174.9740  138.3260 O   0  0  0  0  0  0  0  0  0  0  0  0
  192.0530  175.8790  138.3550 C   0  0  0  0  0  0  0  0  0  0  0  0
  191.9170  177.0050  139.2300 N   0  0  0  0  0  2  0  0  0  0  0  0
  193.8500  176.8120  137.0350 N   0  0  0  0  0  0  0  0  0  0  0  0
  194.9180  176.4240  136.2260 N   0  0  0  0  0  2  0  0  0  0  0  0
  194.9770  174.9750  136.1330 C   0  0  2  0  0  3  0  0  0  0  0  0
  193.8110  174.4940  137.0010 C   0  0  0  0  0  2  0  0  0  0  0  0
  193.2220  175.7800  137.4750 C   0  0  0  0  0  0  0  0  0  0  0  0
  196.9600  175.1710  137.4630 O   0  0  0  0  0  1  0  0  0  0  0  0
  196.2750  174.4690  136.6710 C   0  0  0  0  0  0  0  0  0  0  0  0
  196.7170  173.2030  136.3150 O   0  0  0  0  0  0  0  0  0  0  0  0
  187.4890  178.3220  139.5660 C   0  0  0  0  0  2  0  0  0  0  0  0
  187.5620  178.6680  141.0410 C   0  0  0  0  0  2  0  0  0  0  0  0
  186.2150  179.1720  141.5370 C   0  0  0  0  0  2  0  0  0  0  0  0
  183.9790  178.0710  141.3900 C   0  0  0  0  0  2  0  0  0  0  0  0
  183.8120  179.3650  138.8490 C   0  0  0  0  0  2  0  0  0  0  0  0
  185.0970  178.7590  140.5930 C   0  0  1  0  0  3  0  0  0  0  0  0
  184.6030  179.8780  139.8940 O   0  0  0  0  0  0  0  0  0  0  0  0
  182.5910  178.5020  140.9050 C   0  0  0  0  0  2  0  0  0  0  0  0
  182.5510  178.6620  139.3820 C   0  0  0  0  0  2  0  0  0  0  0  0
  1 29  1  0  0  0  0
  1  3  2  0  0  0  0
  2  5  1  0  0  0  0
  3  2  2  0  0  0  0
  4 12  1  1  0  0  0
  5  7  1  0  0  0  0
  6  4  1  0  0  0  0
  7  6  2  0  0  0  0
  7  4  1  0  0  0  0
  8 16  1  0  0  0  0
  9 10  1  0  0  0  0
 10  8  2  0  0  0  0
 12 14  2  0  0  0  0
 13  9  2  0  0  0  0
 13 12  1  0  0  0  0
 14  8  1  0  0  0  0
 14 11  1  0  0  0  0
 16 17  2  0  0  0  0
 16 15  1  0  0  0  0
 18 19  2  0  0  0  0
 19 20  1  0  0  0  0
 20  2  1  0  0  0  0
 21 25  2  0  0  0  0
 22 21  1  0  0  0  0
 23 22  1  0  0  0  0
 23 27  1  1  0  0  0
 23 24  1  0  0  0  0
 24 25  1  0  0  0  0
 25 19  1  0  0  0  0
 27 26  1  0  0  0  0
 28 27  2  0  0  0  0
 29 30  1  0  0  0  0
 30 31  1  0  0  0  0
 33 37  1  0  0  0  0
 33 35  1  0  0  0  0
 34 32  1  0  0  0  0
 34 31  1  1  0  0  0
 35 34  1  0  0  0  0
 36 32  1  0  0  0  0
 37 36  1  0  0  0  0
M  END
>  <MODEL>
1

>  <REMARK>
 VINA RESULT:      -8.9      0.000      0.000
  Name = 
  10 active torsions:
  status: ('A' for Active; 'I' for Inactive)
    1  A    between atoms: C_1  and  C_15
    2  A    between atoms: C_6  and  C_36
    3  A    between atoms: C_7  and  C_26
    4  A    between atoms: C_8  and  C_24
    5  A    between atoms: C_9  and  C_34
    6  A    between atoms: N_11  and  C_13
    7  A    between atoms: C_13  and  N_20
    8  A    between atoms: C_16  and  C_26
    9  A    between atoms: C_16  and  C_34
   10  A    between atoms: C_18  and  C_29
                            x       y       z     vdW  Elec       q    Type
                         _______ _______ _______ _____ _____    ______ ____

>  <TORSDO>
F 10

$$$$
=
 OpenBabel10222421143D

 37 40  0  0  1  0  0  0  0  0999 V2000
  191.5940  177.6610  142.5280 C   0  0  0  0  0  3  0  0  0  0  0  0
  191.1000  176.9950  140.0540 C   0  0  0  0  0  0  0  0  0  0  0  0
  191.3580  177.3320  141.2900 C   0  0  0  0  0  0  0  0  0  0  0  0
  187.7150  178.0440  138.4640 C   0  0  1  0  0  3  0  0  0  0  0  0
  189.7550  176.7200  139.6370 N   0  0  0  0  0  2  0  0  0  0  0  0
  188.7290  178.9580  138.4260 N   0  0  0  0  0  0  0  0  0  0  0  0
  188.9200  177.6800  138.9890 C   0  0  0  0  0  0  0  0  0  0  0  0
  184.4460  178.7510  140.3460 C   0  0  0  0  0  0  0  0  0  0  0  0
  186.3060  178.8180  141.9090 C   0  0  0  0  0  3  0  0  0  0  0  0
  184.9420  178.9240  141.6450 C   0  0  0  0  0  3  0  0  0  0  0  0
  184.8850  178.2590  138.0000 O   0  0  0  0  0  1  0  0  0  0  0  0
  186.7360  178.3880  139.5580 C   0  0  0  0  0  0  0  0  0  0  0  0
  187.1970  178.5440  140.8730 C   0  0  0  0  0  3  0  0  0  0  0  0
  185.3500  178.4680  139.2960 C   0  0  0  0  0  0  0  0  0  0  0  0
  182.4950  179.7820  139.4280 O   0  0  0  0  0  0  0  0  0  0  0  0
  182.9840  178.8600  140.1330 C   0  0  0  0  0  0  0  0  0  0  0  0
  182.1270  177.9340  140.7160 O   0  0  0  0  0  1  0  0  0  0  0  0
  191.5310  174.8360  138.1450 O   0  0  0  0  0  0  0  0  0  0  0  0
  192.3780  175.7660  138.2230 C   0  0  0  0  0  0  0  0  0  0  0  0
  192.1930  176.8520  139.1390 N   0  0  0  0  0  2  0  0  0  0  0  0
  193.9570  176.7630  136.6860 N   0  0  0  0  0  0  0  0  0  0  0  0
  195.1040  176.4540  135.9580 N   0  0  0  0  0  2  0  0  0  0  0  0
  195.4860  175.0700  136.1840 C   0  0  2  0  0  3  0  0  0  0  0  0
  194.4350  174.5450  137.1640 C   0  0  0  0  0  2  0  0  0  0  0  0
  193.5630  175.7390  137.3580 C   0  0  0  0  0  0  0  0  0  0  0  0
  197.7660  175.7730  136.4050 O   0  0  0  0  0  0  0  0  0  0  0  0
  196.8500  174.9960  136.7880 C   0  0  0  0  0  0  0  0  0  0  0  0
  197.1020  174.0810  137.8000 O   0  0  0  0  0  1  0  0  0  0  0  0
  191.0590  176.8180  143.6290 C   0  0  0  0  0  2  0  0  0  0  0  0
  190.9660  177.6410  144.9000 C   0  0  0  0  0  2  0  0  0  0  0  0
  190.0970  176.9350  145.9290 C   0  0  0  0  0  2  0  0  0  0  0  0
  187.8970  177.6890  145.0210 C   0  0  0  0  0  2  0  0  0  0  0  0
  187.2610  178.2260  147.7530 C   0  0  0  0  0  2  0  0  0  0  0  0
  188.8430  177.7410  146.2290 C   0  0  1  0  0  3  0  0  0  0  0  0
  188.2090  177.2510  147.3870 O   0  0  0  0  0  0  0  0  0  0  0  0
  186.4360  177.5270  145.4520 C   0  0  0  0  0  2  0  0  0  0  0  0
  186.1290  178.3360  146.7170 C   0  0  0  0  0  2  0  0  0  0  0  0
  1 29  1  0  0  0  0
  2  3  2  0  0  0  0
  3  1  2  0  0  0  0
  4  7  1  0  0  0  0
  4 12  1  1  0  0  0
  5  2  1  0  0  0  0
  6  4  1  0  0  0  0
  6  7  2  0  0  0  0
  7  5  1  0  0  0  0
  8 10  1  0  0  0  0
 10  9  2  0  0  0  0
 11 14  1  0  0  0  0
 12 13  2  0  0  0  0
 13  9  1  0  0  0  0
 14 12  1  0  0  0  0
 14  8  2  0  0  0  0
 15 16  2  0  0  0  0
 16  8  1  0  0  0  0
 16 17  1  0  0  0  0
 18 19  2  0  0  0  0
 19 20  1  0  0  0  0
 20  2  1  0  0  0  0
 21 25  2  0  0  0  0
 22 23  1  0  0  0  0
 22 21  1  0  0  0  0
 23 27  1  1  0  0  0
 23 24  1  0  0  0  0
 24 25  1  0  0  0  0
 25 19  1  0  0  0  0
 26 27  2  0  0  0  0
 27 28  1  0  0  0  0
 29 30  1  0  0  0  0
 30 31  1  0  0  0  0
 32 36  1  0  0  0  0
 32 34  1  0  0  0  0
 34 31  1  6  0  0  0
 34 35  1  0  0  0  0
 35 33  1  0  0  0  0
 36 37  1  0  0  0  0
 37 33  1  0  0  0  0
M  END
>  <MODEL>
2

>  <REMARK>
 VINA RESULT:      -8.7      1.369      5.802
  Name = 
  10 active torsions:
  status: ('A' for Active; 'I' for Inactive)
    1  A    between atoms: C_1  and  C_15
    2  A    between atoms: C_6  and  C_36
    3  A    between atoms: C_7  and  C_26
    4  A    between atoms: C_8  and  C_24
    5  A    between atoms: C_9  and  C_34
    6  A    between atoms: N_11  and  C_13
    7  A    between atoms: C_13  and  N_20
    8  A    between atoms: C_16  and  C_26
    9  A    between atoms: C_16  and  C_34
   10  A    between atoms: C_18  and  C_29
                            x       y       z     vdW  Elec       q    Type
                         _______ _______ _______ _____ _____    ______ ____

>  <TORSDO>
F 10

$$$$
=
 OpenBabel10222421143D

 37 40  0  0  1  0  0  0  0  0999 V2000
  190.5190  175.9040  143.2310 C   0  0  0  0  0  3  0  0  0  0  0  0
  190.0860  176.7730  140.8100 C   0  0  0  0  0  0  0  0  0  0  0  0
  190.2910  176.3370  142.0250 C   0  0  0  0  0  0  0  0  0  0  0  0
  191.5320  176.6760  137.2060 C   0  0  1  0  0  3  0  0  0  0  0  0
  191.1700  176.8700  139.8750 N   0  0  0  0  0  2  0  0  0  0  0  0
  190.1760  176.5770  137.3340 N   0  0  0  0  0  0  0  0  0  0  0  0
  191.0060  176.7410  138.4620 C   0  0  0  0  0  0  0  0  0  0  0  0
  193.9580  173.7020  137.2100 C   0  0  0  0  0  0  0  0  0  0  0  0
  191.8960  173.0590  136.0940 C   0  0  0  0  0  3  0  0  0  0  0  0
  193.1790  172.7490  136.5400 C   0  0  0  0  0  3  0  0  0  0  0  0
  194.1630  175.9550  138.1150 O   0  0  0  0  0  1  0  0  0  0  0  0
  192.1380  175.3190  136.9480 C   0  0  0  0  0  0  0  0  0  0  0  0
  191.3760  174.3340  136.3030 C   0  0  0  0  0  3  0  0  0  0  0  0
  193.4260  174.9950  137.4250 C   0  0  0  0  0  0  0  0  0  0  0  0
  196.2840  173.2630  136.8790 O   0  0  0  0  0  0  0  0  0  0  0  0
  195.3080  173.3060  137.6730 C   0  0  0  0  0  0  0  0  0  0  0  0
  195.5120  172.9730  139.0070 O   0  0  0  0  0  1  0  0  0  0  0  0
  188.5960  179.0140  141.9290 O   0  0  0  0  0  0  0  0  0  0  0  0
  188.0610  178.3050  141.0340 C   0  0  0  0  0  0  0  0  0  0  0  0
  188.7680  177.2050  140.4490 N   0  0  0  0  0  2  0  0  0  0  0  0
  186.3640  178.6110  139.3390 N   0  0  0  0  0  0  0  0  0  0  0  0
  185.0170  178.9420  139.2000 N   0  0  0  0  0  2  0  0  0  0  0  0
  184.4250  179.1970  140.5030 C   0  0  2  0  0  3  0  0  0  0  0  0
  185.5730  178.9710  141.4890 C   0  0  0  0  0  2  0  0  0  0  0  0
  186.7020  178.6190  140.5810 C   0  0  0  0  0  0  0  0  0  0  0  0
  183.2770  177.1170  140.1920 O   0  0  0  0  0  0  0  0  0  0  0  0
  183.3100  178.2380  140.7660 C   0  0  0  0  0  0  0  0  0  0  0  0
  182.3160  178.5760  141.6740 O   0  0  0  0  0  1  0  0  0  0  0  0
  191.6130  176.5060  144.0370 C   0  0  0  0  0  2  0  0  0  0  0  0
  191.0380  177.5460  144.9790 C   0  0  0  0  0  2  0  0  0  0  0  0
  190.1560  176.8860  146.0260 C   0  0  0  0  0  2  0  0  0  0  0  0
  188.0000  177.6830  145.0500 C   0  0  0  0  0  2  0  0  0  0  0  0
  187.2860  178.2230  147.7630 C   0  0  0  0  0  2  0  0  0  0  0  0
  188.9070  177.7140  146.2890 C   0  0  1  0  0  3  0  0  0  0  0  0
  188.2270  177.2320  147.4240 O   0  0  0  0  0  0  0  0  0  0  0  0
  186.5230  177.5470  145.4350 C   0  0  0  0  0  2  0  0  0  0  0  0
  186.1910  178.3580  146.6910 C   0  0  0  0  0  2  0  0  0  0  0  0
  1 29  1  0  0  0  0
  2  3  2  0  0  0  0
  3  1  2  0  0  0  0
  4 12  1  1  0  0  0
  4  6  1  0  0  0  0
  4  7  1  0  0  0  0
  5  2  1  0  0  0  0
  6  7  2  0  0  0  0
  7  5  1  0  0  0  0
  8 14  1  0  0  0  0
  8 16  1  0  0  0  0
  9 13  2  0  0  0  0
  9 10  1  0  0  0  0
 10  8  2  0  0  0  0
 12 14  2  0  0  0  0
 13 12  1  0  0  0  0
 14 11  1  0  0  0  0
 15 16  2  0  0  0  0
 16 17  1  0  0  0  0
 19 18  2  0  0  0  0
 20  2  1  0  0  0  0
 20 19  1  0  0  0  0
 21 25  2  0  0  0  0
 22 21  1  0  0  0  0
 22 23  1  0  0  0  0
 23 27  1  1  0  0  0
 23 24  1  0  0  0  0
 25 19  1  0  0  0  0
 25 24  1  0  0  0  0
 26 27  2  0  0  0  0
 27 28  1  0  0  0  0
 29 30  1  0  0  0  0
 30 31  1  0  0  0  0
 32 36  1  0  0  0  0
 32 34  1  0  0  0  0
 34 31  1  6  0  0  0
 34 35  1  0  0  0  0
 35 33  1  0  0  0  0
 36 37  1  0  0  0  0
 37 33  1  0  0  0  0
M  END
>  <MODEL>
3

>  <REMARK>
 VINA RESULT:      -8.7      2.272      9.135
  Name = 
  10 active torsions:
  status: ('A' for Active; 'I' for Inactive)
    1  A    between atoms: C_1  and  C_15
    2  A    between atoms: C_6  and  C_36
    3  A    between atoms: C_7  and  C_26
    4  A    between atoms: C_8  and  C_24
    5  A    between atoms: C_9  and  C_34
    6  A    between atoms: N_11  and  C_13
    7  A    between atoms: C_13  and  N_20
    8  A    between atoms: C_16  and  C_26
    9  A    between atoms: C_16  and  C_34
   10  A    between atoms: C_18  and  C_29
                            x       y       z     vdW  Elec       q    Type
                         _______ _______ _______ _____ _____    ______ ____

>  <TORSDO>
F 10

$$$$
=
 OpenBabel10222421143D

 37 40  0  0  1  0  0  0  0  0999 V2000
  186.9350  177.0780  146.1160 C   0  0  0  0  0  3  0  0  0  0  0  0
  186.6700  177.2970  143.5300 C   0  0  0  0  0  0  0  0  0  0  0  0
  186.7910  177.1860  144.8260 C   0  0  0  0  0  0  0  0  0  0  0  0
  188.8900  178.5270  140.5880 C   0  0  1  0  0  3  0  0  0  0  0  0
  187.8180  177.1910  142.6760 N   0  0  0  0  0  2  0  0  0  0  0  0
  187.8330  179.3170  140.9420 N   0  0  0  0  0  0  0  0  0  0  0  0
  188.1200  178.1260  141.6400 C   0  0  0  0  0  0  0  0  0  0  0  0
  189.1050  175.9830  137.7230 C   0  0  0  0  0  0  0  0  0  0  0  0
  186.9750  177.1470  137.6080 C   0  0  0  0  0  3  0  0  0  0  0  0
  187.8640  176.1980  137.1090 C   0  0  0  0  0  3  0  0  0  0  0  0
  190.6640  176.5360  139.5120 O   0  0  0  0  0  1  0  0  0  0  0  0
  188.5620  177.7300  139.3510 C   0  0  0  0  0  0  0  0  0  0  0  0
  187.3190  177.9040  138.7270 C   0  0  0  0  0  3  0  0  0  0  0  0
  189.4510  176.7480  138.8610 C   0  0  0  0  0  0  0  0  0  0  0  0
  189.8980  173.7400  137.4950 O   0  0  0  0  0  1  0  0  0  0  0  0
  190.0000  174.9480  137.1540 C   0  0  0  0  0  0  0  0  0  0  0  0
  190.9710  175.3050  136.2270 O   0  0  0  0  0  0  0  0  0  0  0  0
  184.8910  179.4880  144.2570 O   0  0  0  0  0  0  0  0  0  0  0  0
  184.5230  178.6630  143.3780 C   0  0  0  0  0  0  0  0  0  0  0  0
  185.3770  177.5820  142.9830 N   0  0  0  0  0  2  0  0  0  0  0  0
  183.0080  178.5970  141.4950 N   0  0  0  0  0  0  0  0  0  0  0  0
  181.6710  178.8200  141.1700 N   0  0  0  0  0  2  0  0  0  0  0  0
  180.9300  179.2400  142.3480 C   0  0  2  0  0  3  0  0  0  0  0  0
  181.9740  179.2410  143.4680 C   0  0  0  0  0  2  0  0  0  0  0  0
  183.2090  178.8190  142.7460 C   0  0  0  0  0  0  0  0  0  0  0  0
  179.5780  177.3230  141.8590 O   0  0  0  0  0  0  0  0  0  0  0  0
  179.8370  178.2690  142.6510 C   0  0  0  0  0  0  0  0  0  0  0  0
  179.1160  178.3940  143.8300 O   0  0  0  0  0  1  0  0  0  0  0  0
  187.9580  177.8980  146.8150 C   0  0  0  0  0  2  0  0  0  0  0  0
  189.0050  176.9890  147.4300 C   0  0  0  0  0  2  0  0  0  0  0  0
  190.3920  177.3570  146.9260 C   0  0  0  0  0  2  0  0  0  0  0  0
  190.4890  178.4190  144.6690 C   0  0  0  0  0  2  0  0  0  0  0  0
  191.5800  175.9140  143.8370 C   0  0  0  0  0  2  0  0  0  0  0  0
  190.5190  177.0890  145.4350 C   0  0  1  0  0  3  0  0  0  0  0  0
  191.7020  176.3750  145.1610 O   0  0  0  0  0  0  0  0  0  0  0  0
  191.5080  178.4350  143.5240 C   0  0  0  0  0  2  0  0  0  0  0  0
  191.5930  177.0740  142.8260 C   0  0  0  0  0  2  0  0  0  0  0  0
  1 29  1  0  0  0  0
  2  3  2  0  0  0  0
  3  1  2  0  0  0  0
  4 12  1  6  0  0  0
  4  6  1  0  0  0  0
  4  7  1  0  0  0  0
  5  2  1  0  0  0  0
  6  7  2  0  0  0  0
  7  5  1  0  0  0  0
  8 14  1  0  0  0  0
  9 13  2  0  0  0  0
 10  9  1  0  0  0  0
 10  8  2  0  0  0  0
 13 12  1  0  0  0  0
 14 12  2  0  0  0  0
 14 11  1  0  0  0  0
 16 15  1  0  0  0  0
 16  8  1  0  0  0  0
 17 16  2  0  0  0  0
 19 18  2  0  0  0  0
 20 19  1  0  0  0  0
 20  2  1  0  0  0  0
 21 25  2  0  0  0  0
 22 21  1  0  0  0  0
 22 23  1  0  0  0  0
 23 27  1  1  0  0  0
 23 24  1  0  0  0  0
 25 19  1  0  0  0  0
 25 24  1  0  0  0  0
 26 27  2  0  0  0  0
 27 28  1  0  0  0  0
 29 30  1  0  0  0  0
 31 30  1  0  0  0  0
 32 34  1  0  0  0  0
 33 35  1  0  0  0  0
 34 31  1  1  0  0  0
 35 34  1  0  0  0  0
 36 32  1  0  0  0  0
 37 36  1  0  0  0  0
 37 33  1  0  0  0  0
M  END
>  <MODEL>
4

>  <REMARK>
 VINA RESULT:      -8.7      3.689     10.198
  Name = 
  10 active torsions:
  status: ('A' for Active; 'I' for Inactive)
    1  A    between atoms: C_1  and  C_15
    2  A    between atoms: C_6  and  C_36
    3  A    between atoms: C_7  and  C_26
    4  A    between atoms: C_8  and  C_24
    5  A    between atoms: C_9  and  C_34
    6  A    between atoms: N_11  and  C_13
    7  A    between atoms: C_13  and  N_20
    8  A    between atoms: C_16  and  C_26
    9  A    between atoms: C_16  and  C_34
   10  A    between atoms: C_18  and  C_29
                            x       y       z     vdW  Elec       q    Type
                         _______ _______ _______ _____ _____    ______ ____

>  <TORSDO>
F 10

$$$$
=
 OpenBabel10222421143D

 37 40  0  0  1  0  0  0  0  0999 V2000
  185.6790  179.3590  141.4840 C   0  0  0  0  0  3  0  0  0  0  0  0
  188.0010  178.3080  140.9260 C   0  0  0  0  0  0  0  0  0  0  0  0
  186.8420  178.8390  141.2150 C   0  0  0  0  0  0  0  0  0  0  0  0
  187.0780  177.7660  137.1910 C   0  0  1  0  0  3  0  0  0  0  0  0
  188.2470  177.7540  139.6260 N   0  0  0  0  0  2  0  0  0  0  0  0
  186.3000  178.6330  137.9050 N   0  0  0  0  0  0  0  0  0  0  0  0
  187.4090  177.9930  138.4950 C   0  0  0  0  0  0  0  0  0  0  0  0
  186.4490  174.0160  136.6760 C   0  0  0  0  0  0  0  0  0  0  0  0
  184.3410  175.1290  137.1560 C   0  0  0  0  0  3  0  0  0  0  0  0
  185.0610  173.9710  136.8680 C   0  0  0  0  0  3  0  0  0  0  0  0
  188.4990  175.3320  136.6210 O   0  0  0  0  0  1  0  0  0  0  0  0
  186.3840  176.4370  137.0380 C   0  0  0  0  0  0  0  0  0  0  0  0
  185.0000  176.3530  137.2470 C   0  0  0  0  0  3  0  0  0  0  0  0
  187.1160  175.2590  136.7740 C   0  0  0  0  0  0  0  0  0  0  0  0
  187.1550  172.2460  135.2340 O   0  0  0  0  0  0  0  0  0  0  0  0
  187.1590  172.7480  136.3890 C   0  0  0  0  0  0  0  0  0  0  0  0
  187.8460  172.0930  137.4040 O   0  0  0  0  0  1  0  0  0  0  0  0
  188.5660  176.0630  142.6960 O   0  0  0  0  0  0  0  0  0  0  0  0
  189.2400  177.1220  142.8120 C   0  0  0  0  0  0  0  0  0  0  0  0
  189.0010  178.2420  141.9500 N   0  0  0  0  0  2  0  0  0  0  0  0
  190.9370  178.2870  144.0800 N   0  0  0  0  0  0  0  0  0  0  0  0
  191.8630  178.0780  145.1010 N   0  0  0  0  0  2  0  0  0  0  0  0
  191.8030  176.7000  145.5600 C   0  0  2  0  0  3  0  0  0  0  0  0
  190.7050  176.0660  144.7040 C   0  0  0  0  0  2  0  0  0  0  0  0
  190.2860  177.2050  143.8370 C   0  0  0  0  0  0  0  0  0  0  0  0
  192.3190  176.4660  147.8890 O   0  0  0  0  0  1  0  0  0  0  0  0
  191.4360  176.6480  147.0070 C   0  0  0  0  0  0  0  0  0  0  0  0
  190.1130  176.8290  147.3850 O   0  0  0  0  0  0  0  0  0  0  0  0
  184.4430  178.5840  141.2030 C   0  0  0  0  0  2  0  0  0  0  0  0
  183.7830  178.1870  142.5100 C   0  0  0  0  0  2  0  0  0  0  0  0
  184.1370  179.1780  143.6070 C   0  0  0  0  0  2  0  0  0  0  0  0
  186.0650  177.8220  144.4310 C   0  0  0  0  0  2  0  0  0  0  0  0
  185.1350  178.5760  147.0250 C   0  0  0  0  0  2  0  0  0  0  0  0
  184.7250  178.4670  144.8160 C   0  0  1  0  0  3  0  0  0  0  0  0
  184.8870  179.3670  145.8870 O   0  0  0  0  0  0  0  0  0  0  0  0
  187.1120  177.9920  145.5370 C   0  0  0  0  0  2  0  0  0  0  0  0
  186.4890  177.8500  146.9300 C   0  0  0  0  0  2  0  0  0  0  0  0
  2  3  2  0  0  0  0
  2 20  1  0  0  0  0
  3  1  2  0  0  0  0
  4 12  1  1  0  0  0
  4  6  1  0  0  0  0
  4  7  1  0  0  0  0
  5  2  1  0  0  0  0
  6  7  2  0  0  0  0
  7  5  1  0  0  0  0
  8 14  2  0  0  0  0
  8 10  1  0  0  0  0
  9 13  1  0  0  0  0
 10  9  2  0  0  0  0
 11 14  1  0  0  0  0
 12 13  2  0  0  0  0
 14 12  1  0  0  0  0
 15 16  2  0  0  0  0
 16  8  1  0  0  0  0
 16 17  1  0  0  0  0
 18 19  2  0  0  0  0
 19 25  1  0  0  0  0
 20 19  1  0  0  0  0
 21 22  1  0  0  0  0
 22 23  1  0  0  0  0
 23 27  1  1  0  0  0
 24 23  1  0  0  0  0
 25 21  2  0  0  0  0
 25 24  1  0  0  0  0
 27 28  2  0  0  0  0
 27 26  1  0  0  0  0
 29  1  1  0  0  0  0
 29 30  1  0  0  0  0
 30 31  1  0  0  0  0
 32 34  1  0  0  0  0
 32 36  1  0  0  0  0
 34 31  1  6  0  0  0
 34 35  1  0  0  0  0
 35 33  1  0  0  0  0
 36 37  1  0  0  0  0
 37 33  1  0  0  0  0
M  END
>  <MODEL>
5

>  <REMARK>
 VINA RESULT:      -8.5      4.181      8.300
  Name = 
  10 active torsions:
  status: ('A' for Active; 'I' for Inactive)
    1  A    between atoms: C_1  and  C_15
    2  A    between atoms: C_6  and  C_36
    3  A    between atoms: C_7  and  C_26
    4  A    between atoms: C_8  and  C_24
    5  A    between atoms: C_9  and  C_34
    6  A    between atoms: N_11  and  C_13
    7  A    between atoms: C_13  and  N_20
    8  A    between atoms: C_16  and  C_26
    9  A    between atoms: C_16  and  C_34
   10  A    between atoms: C_18  and  C_29
                            x       y       z     vdW  Elec       q    Type
                         _______ _______ _______ _____ _____    ______ ____

>  <TORSDO>
F 10

$$$$
=
 OpenBabel10222421143D

 37 40  0  0  1  0  0  0  0  0999 V2000
  185.9850  177.8490  146.1500 C   0  0  0  0  0  3  0  0  0  0  0  0
  186.5150  177.3570  143.6430 C   0  0  0  0  0  0  0  0  0  0  0  0
  186.2380  177.6040  144.8970 C   0  0  0  0  0  0  0  0  0  0  0  0
  190.1060  177.8840  142.2570 C   0  0  1  0  0  3  0  0  0  0  0  0
  187.8110  176.8750  143.2620 N   0  0  0  0  0  2  0  0  0  0  0  0
  189.3480  179.0020  142.4610 N   0  0  0  0  0  0  0  0  0  0  0  0
  188.8540  177.7190  142.7740 C   0  0  0  0  0  0  0  0  0  0  0  0
  191.3250  176.7560  138.7970 C   0  0  0  0  0  0  0  0  0  0  0  0
  188.9230  177.1250  138.7240 C   0  0  0  0  0  3  0  0  0  0  0  0
  190.1120  176.7620  138.0950 C   0  0  0  0  0  3  0  0  0  0  0  0
  192.5150  177.1030  140.8950 O   0  0  0  0  0  1  0  0  0  0  0  0
  190.1320  177.5250  140.7930 C   0  0  0  0  0  0  0  0  0  0  0  0
  188.9320  177.4970  140.0670 C   0  0  0  0  0  3  0  0  0  0  0  0
  191.3310  177.1290  140.1610 C   0  0  0  0  0  0  0  0  0  0  0  0
  193.5440  177.1150  137.9850 O   0  0  0  0  0  1  0  0  0  0  0  0
  192.5520  176.3450  138.0760 C   0  0  0  0  0  0  0  0  0  0  0  0
  192.6200  175.0880  137.4860 O   0  0  0  0  0  0  0  0  0  0  0  0
  186.1830  179.8070  142.1010 O   0  0  0  0  0  0  0  0  0  0  0  0
  185.3760  178.8550  141.9240 C   0  0  0  0  0  0  0  0  0  0  0  0
  185.5160  177.6290  142.6530 N   0  0  0  0  0  2  0  0  0  0  0  0
  184.4650  179.4850  139.7750 N   0  0  0  0  0  0  0  0  0  0  0  0
  183.2630  179.5060  139.0700 N   0  0  0  0  0  2  0  0  0  0  0  0
  182.1870  178.9820  139.8950 C   0  0  2  0  0  3  0  0  0  0  0  0
  182.8700  178.6130  141.2140 C   0  0  0  0  0  2  0  0  0  0  0  0
  184.2860  179.0030  140.9540 C   0  0  0  0  0  0  0  0  0  0  0  0
  180.3400  177.6990  139.0660 O   0  0  0  0  0  1  0  0  0  0  0  0
  181.5840  177.7720  139.2600 C   0  0  0  0  0  0  0  0  0  0  0  0
  182.4050  176.7290  138.8560 O   0  0  0  0  0  0  0  0  0  0  0  0
  186.9130  178.7040  146.9360 C   0  0  0  0  0  2  0  0  0  0  0  0
  187.5690  177.8750  148.0250 C   0  0  0  0  0  2  0  0  0  0  0  0
  189.0450  178.2200  148.1400 C   0  0  0  0  0  2  0  0  0  0  0  0
  189.9560  177.2800  146.0130 C   0  0  0  0  0  2  0  0  0  0  0  0
  191.8210  175.9490  147.7190 C   0  0  0  0  0  2  0  0  0  0  0  0
  189.9100  177.1220  147.5400 C   0  0  1  0  0  3  0  0  0  0  0  0
  191.2050  177.1590  148.0910 O   0  0  0  0  0  0  0  0  0  0  0  0
  191.3610  177.0200  145.4610 C   0  0  0  0  0  2  0  0  0  0  0  0
  192.0550  175.8720  146.2010 C   0  0  0  0  0  2  0  0  0  0  0  0
  1 29  1  0  0  0  0
  2  3  2  0  0  0  0
  3  1  2  0  0  0  0
  4 12  1  6  0  0  0
  4  6  1  0  0  0  0
  4  7  1  0  0  0  0
  5  2  1  0  0  0  0
  6  7  2  0  0  0  0
  7  5  1  0  0  0  0
  8 14  1  0  0  0  0
  9 13  2  0  0  0  0
 10  9  1  0  0  0  0
 10  8  2  0  0  0  0
 13 12  1  0  0  0  0
 14 12  2  0  0  0  0
 14 11  1  0  0  0  0
 15 16  1  0  0  0  0
 16  8  1  0  0  0  0
 17 16  2  0  0  0  0
 19 18  2  0  0  0  0
 19 20  1  0  0  0  0
 20  2  1  0  0  0  0
 21 25  2  0  0  0  0
 22 21  1  0  0  0  0
 22 23  1  0  0  0  0
 23 27  1  6  0  0  0
 23 24  1  0  0  0  0
 25 24  1  0  0  0  0
 25 19  1  0  0  0  0
 26 27  1  0  0  0  0
 28 27  2  0  0  0  0
 29 30  1  0  0  0  0
 30 31  1  0  0  0  0
 32 34  1  0  0  0  0
 33 35  1  0  0  0  0
 34 35  1  0  0  0  0
 34 31  1  1  0  0  0
 36 32  1  0  0  0  0
 36 37  1  0  0  0  0
 37 33  1  0  0  0  0
M  END
>  <MODEL>
6

>  <REMARK>
 VINA RESULT:      -8.4      2.892      9.433
  Name = 
  10 active torsions:
  status: ('A' for Active; 'I' for Inactive)
    1  A    between atoms: C_1  and  C_15
    2  A    between atoms: C_6  and  C_36
    3  A    between atoms: C_7  and  C_26
    4  A    between atoms: C_8  and  C_24
    5  A    between atoms: C_9  and  C_34
    6  A    between atoms: N_11  and  C_13
    7  A    between atoms: C_13  and  N_20
    8  A    between atoms: C_16  and  C_26
    9  A    between atoms: C_16  and  C_34
   10  A    between atoms: C_18  and  C_29
                            x       y       z     vdW  Elec       q    Type
                         _______ _______ _______ _____ _____    ______ ____

>  <TORSDO>
F 10

$$$$
=
 OpenBabel10222421143D

 37 40  0  0  1  0  0  0  0  0999 V2000
  188.3110  176.8640  138.4210 C   0  0  0  0  0  3  0  0  0  0  0  0
  190.5870  177.0790  139.6780 C   0  0  0  0  0  0  0  0  0  0  0  0
  189.4520  176.9650  139.0400 C   0  0  0  0  0  0  0  0  0  0  0  0
  190.3550  176.5150  143.5150 C   0  0  1  0  0  3  0  0  0  0  0  0
  190.6200  177.5480  141.0340 N   0  0  0  0  0  2  0  0  0  0  0  0
  190.3150  175.4050  142.7200 N   0  0  0  0  0  0  0  0  0  0  0  0
  190.4690  176.6930  142.1670 C   0  0  0  0  0  0  0  0  0  0  0  0
  187.4370  177.6440  145.7370 C   0  0  0  0  0  0  0  0  0  0  0  0
  186.6320  177.2790  143.4720 C   0  0  0  0  0  3  0  0  0  0  0  0
  186.3970  177.6400  144.7980 C   0  0  0  0  0  3  0  0  0  0  0  0
  189.7980  177.2930  146.2270 O   0  0  0  0  0  1  0  0  0  0  0  0
  188.9700  176.8750  143.9890 C   0  0  0  0  0  0  0  0  0  0  0  0
  187.9120  176.9060  143.0690 C   0  0  0  0  0  3  0  0  0  0  0  0
  188.7370  177.2690  145.3240 C   0  0  0  0  0  0  0  0  0  0  0  0
  187.6750  177.4900  148.1100 O   0  0  0  0  0  1  0  0  0  0  0  0
  187.1270  178.0540  147.1260 C   0  0  0  0  0  0  0  0  0  0  0  0
  186.2170  179.0780  147.3600 O   0  0  0  0  0  0  0  0  0  0  0  0
  191.1940  174.6710  138.1540 O   0  0  0  0  0  0  0  0  0  0  0  0
  192.0680  175.5740  138.2500 C   0  0  0  0  0  0  0  0  0  0  0  0
  191.8010  176.7790  138.9790 N   0  0  0  0  0  2  0  0  0  0  0  0
  194.0070  176.3560  137.0360 N   0  0  0  0  0  0  0  0  0  0  0  0
  195.2120  175.8990  136.5060 N   0  0  0  0  0  2  0  0  0  0  0  0
  195.3630  174.4740  136.7550 C   0  0  2  0  0  3  0  0  0  0  0  0
  194.0970  174.0910  137.5250 C   0  0  0  0  0  2  0  0  0  0  0  0
  193.3700  175.3910  137.6010 C   0  0  0  0  0  0  0  0  0  0  0  0
  197.3100  173.2120  137.3540 O   0  0  0  0  0  0  0  0  0  0  0  0
  196.5790  174.2140  137.5810 C   0  0  0  0  0  0  0  0  0  0  0  0
  196.9230  175.1010  138.5920 O   0  0  0  0  0  1  0  0  0  0  0  0
  187.3750  178.0190  138.4070 C   0  0  0  0  0  2  0  0  0  0  0  0
  186.1130  177.6410  137.6560 C   0  0  0  0  0  2  0  0  0  0  0  0
  186.4440  176.7450  136.4730 C   0  0  0  0  0  2  0  0  0  0  0  0
  186.5540  174.2520  136.5320 C   0  0  0  0  0  2  0  0  0  0  0  0
  183.8390  174.4250  137.4030 C   0  0  0  0  0  2  0  0  0  0  0  0
  185.6190  175.4690  136.5060 C   0  0  1  0  0  3  0  0  0  0  0  0
  184.7590  175.4680  137.6220 O   0  0  0  0  0  0  0  0  0  0  0  0
  186.0480  173.1700  137.4920 C   0  0  0  0  0  2  0  0  0  0  0  0
  184.5210  173.0460  137.4470 C   0  0  0  0  0  2  0  0  0  0  0  0
  1  3  2  0  0  0  0
  2  5  1  0  0  0  0
  3  2  2  0  0  0  0
  4 12  1  6  0  0  0
  5  7  1  0  0  0  0
  6  4  1  0  0  0  0
  7  6  2  0  0  0  0
  7  4  1  0  0  0  0
  8 16  1  0  0  0  0
  9 10  1  0  0  0  0
 10  8  2  0  0  0  0
 12 14  2  0  0  0  0
 13  9  2  0  0  0  0
 13 12  1  0  0  0  0
 14  8  1  0  0  0  0
 14 11  1  0  0  0  0
 16 17  2  0  0  0  0
 16 15  1  0  0  0  0
 18 19  2  0  0  0  0
 19 20  1  0  0  0  0
 20  2  1  0  0  0  0
 21 25  2  0  0  0  0
 22 23  1  0  0  0  0
 22 21  1  0  0  0  0
 23 24  1  0  0  0  0
 23 27  1  1  0  0  0
 24 25  1  0  0  0  0
 25 19  1  0  0  0  0
 26 27  2  0  0  0  0
 27 28  1  0  0  0  0
 29  1  1  0  0  0  0
 30 29  1  0  0  0  0
 31 30  1  0  0  0  0
 32 36  1  0  0  0  0
 33 37  1  0  0  0  0
 33 35  1  0  0  0  0
 34 31  1  1  0  0  0
 34 32  1  0  0  0  0
 34 35  1  0  0  0  0
 37 36  1  0  0  0  0
M  END
>  <MODEL>
7

>  <REMARK>
 VINA RESULT:      -8.3      2.282      2.892
  Name = 
  10 active torsions:
  status: ('A' for Active; 'I' for Inactive)
    1  A    between atoms: C_1  and  C_15
    2  A    between atoms: C_6  and  C_36
    3  A    between atoms: C_7  and  C_26
    4  A    between atoms: C_8  and  C_24
    5  A    between atoms: C_9  and  C_34
    6  A    between atoms: N_11  and  C_13
    7  A    between atoms: C_13  and  N_20
    8  A    between atoms: C_16  and  C_26
    9  A    between atoms: C_16  and  C_34
   10  A    between atoms: C_18  and  C_29
                            x       y       z     vdW  Elec       q    Type
                         _______ _______ _______ _____ _____    ______ ____

>  <TORSDO>
F 10

$$$$
=
 OpenBabel10222421143D

 37 40  0  0  1  0  0  0  0  0999 V2000
  187.6190  177.0870  138.1420 C   0  0  0  0  0  3  0  0  0  0  0  0
  189.7850  177.3370  139.5740 C   0  0  0  0  0  0  0  0  0  0  0  0
  188.7060  177.2050  138.8490 C   0  0  0  0  0  0  0  0  0  0  0  0
  189.0280  177.0300  143.3720 C   0  0  1  0  0  3  0  0  0  0  0  0
  189.7130  177.8770  140.9010 N   0  0  0  0  0  2  0  0  0  0  0  0
  188.9460  175.8880  142.6280 N   0  0  0  0  0  0  0  0  0  0  0  0
  189.3230  177.1140  142.0430 C   0  0  0  0  0  0  0  0  0  0  0  0
  185.9740  178.4700  145.1970 C   0  0  0  0  0  0  0  0  0  0  0  0
  185.5210  178.3860  142.8100 C   0  0  0  0  0  3  0  0  0  0  0  0
  185.1210  178.6950  144.1090 C   0  0  0  0  0  3  0  0  0  0  0  0
  188.1380  177.7120  146.0200 O   0  0  0  0  0  1  0  0  0  0  0  0
  187.6510  177.5780  143.6510 C   0  0  0  0  0  0  0  0  0  0  0  0
  186.7810  177.8380  142.5820 C   0  0  0  0  0  3  0  0  0  0  0  0
  187.2550  177.9180  144.9630 C   0  0  0  0  0  0  0  0  0  0  0  0
  186.0560  179.7450  147.2160 O   0  0  0  0  0  1  0  0  0  0  0  0
  185.4960  178.8350  146.5510 C   0  0  0  0  0  0  0  0  0  0  0  0
  184.4100  178.1670  147.1050 O   0  0  0  0  0  0  0  0  0  0  0  0
  190.4410  174.8850  138.1420 O   0  0  0  0  0  0  0  0  0  0  0  0
  191.3360  175.7570  138.3100 C   0  0  0  0  0  0  0  0  0  0  0  0
  191.0470  176.9810  138.9970 N   0  0  0  0  0  2  0  0  0  0  0  0
  193.4820  176.4710  137.4570 N   0  0  0  0  0  0  0  0  0  0  0  0
  194.6940  175.9550  137.0000 N   0  0  0  0  0  2  0  0  0  0  0  0
  194.6690  174.5020  137.0380 C   0  0  2  0  0  3  0  0  0  0  0  0
  193.2830  174.1640  137.5930 C   0  0  0  0  0  2  0  0  0  0  0  0
  192.6860  175.5170  137.7900 C   0  0  0  0  0  0  0  0  0  0  0  0
  195.4830  173.0900  138.7940 O   0  0  0  0  0  1  0  0  0  0  0  0
  195.7380  173.9850  137.9440 C   0  0  0  0  0  0  0  0  0  0  0  0
  197.0300  174.4760  137.8290 O   0  0  0  0  0  0  0  0  0  0  0  0
  186.7090  178.2530  137.9880 C   0  0  0  0  0  2  0  0  0  0  0  0
  185.3230  177.8850  138.4810 C   0  0  0  0  0  2  0  0  0  0  0  0
  184.6600  179.0800  139.1470 C   0  0  0  0  0  2  0  0  0  0  0  0
  182.7750  178.1690  140.5080 C   0  0  0  0  0  2  0  0  0  0  0  0
  181.1460  179.8690  138.8890 C   0  0  0  0  0  2  0  0  0  0  0  0
  183.1520  178.9020  139.2110 C   0  0  1  0  0  3  0  0  0  0  0  0
  182.5040  180.1500  139.1310 O   0  0  0  0  0  0  0  0  0  0  0  0
  181.5180  178.7660  141.1490 C   0  0  0  0  0  2  0  0  0  0  0  0
  180.4860  179.1750  140.0930 C   0  0  0  0  0  2  0  0  0  0  0  0
  1  3  2  0  0  0  0
  2  5  1  0  0  0  0
  3  2  2  0  0  0  0
  4 12  1  6  0  0  0
  5  7  1  0  0  0  0
  6  4  1  0  0  0  0
  7  6  2  0  0  0  0
  7  4  1  0  0  0  0
  8 16  1  0  0  0  0
  9 10  1  0  0  0  0
 10  8  2  0  0  0  0
 12 14  2  0  0  0  0
 13  9  2  0  0  0  0
 13 12  1  0  0  0  0
 14  8  1  0  0  0  0
 14 11  1  0  0  0  0
 16 17  2  0  0  0  0
 16 15  1  0  0  0  0
 18 19  2  0  0  0  0
 19 20  1  0  0  0  0
 20  2  1  0  0  0  0
 21 25  2  0  0  0  0
 22 23  1  0  0  0  0
 22 21  1  0  0  0  0
 23 24  1  0  0  0  0
 23 27  1  1  0  0  0
 24 25  1  0  0  0  0
 25 19  1  0  0  0  0
 27 26  1  0  0  0  0
 28 27  2  0  0  0  0
 29  1  1  0  0  0  0
 29 30  1  0  0  0  0
 30 31  1  0  0  0  0
 32 36  1  0  0  0  0
 33 35  1  0  0  0  0
 33 37  1  0  0  0  0
 34 31  1  1  0  0  0
 34 32  1  0  0  0  0
 35 34  1  0  0  0  0
 37 36  1  0  0  0  0
M  END
>  <MODEL>
8

>  <REMARK>
 VINA RESULT:      -8.1      1.725      2.312
  Name = 
  10 active torsions:
  status: ('A' for Active; 'I' for Inactive)
    1  A    between atoms: C_1  and  C_15
    2  A    between atoms: C_6  and  C_36
    3  A    between atoms: C_7  and  C_26
    4  A    between atoms: C_8  and  C_24
    5  A    between atoms: C_9  and  C_34
    6  A    between atoms: N_11  and  C_13
    7  A    between atoms: C_13  and  N_20
    8  A    between atoms: C_16  and  C_26
    9  A    between atoms: C_16  and  C_34
   10  A    between atoms: C_18  and  C_29
                            x       y       z     vdW  Elec       q    Type
                         _______ _______ _______ _____ _____    ______ ____

>  <TORSDO>
F 10

$$$$
=
 OpenBabel10222421143D

 37 40  0  0  1  0  0  0  0  0999 V2000
  189.6690  177.7690  136.7330 C   0  0  0  0  0  3  0  0  0  0  0  0
  190.9430  176.4860  138.6130 C   0  0  0  0  0  0  0  0  0  0  0  0
  190.3140  177.1270  137.6640 C   0  0  0  0  0  0  0  0  0  0  0  0
  188.6510  177.2290  141.6610 C   0  0  1  0  0  3  0  0  0  0  0  0
  190.2570  176.0930  139.8100 N   0  0  0  0  0  2  0  0  0  0  0  0
  188.8090  178.2280  140.7430 N   0  0  0  0  0  0  0  0  0  0  0  0
  189.4260  176.9730  140.5680 C   0  0  0  0  0  0  0  0  0  0  0  0
  189.8250  177.5150  145.3030 C   0  0  0  0  0  0  0  0  0  0  0  0
  191.6780  178.0280  143.8160 C   0  0  0  0  0  3  0  0  0  0  0  0
  191.1630  177.8770  145.1020 C   0  0  0  0  0  3  0  0  0  0  0  0
  187.6660  176.9150  144.3440 O   0  0  0  0  0  1  0  0  0  0  0  0
  189.5060  177.4880  142.8750 C   0  0  0  0  0  0  0  0  0  0  0  0
  190.8560  177.8280  142.7100 C   0  0  0  0  0  3  0  0  0  0  0  0
  188.9930  177.3070  144.1780 C   0  0  0  0  0  0  0  0  0  0  0  0
  188.1280  177.5180  146.9860 O   0  0  0  0  0  0  0  0  0  0  0  0
  189.3420  177.3540  146.6940 C   0  0  0  0  0  0  0  0  0  0  0  0
  190.2360  177.0140  147.7030 O   0  0  0  0  0  1  0  0  0  0  0  0
  192.1860  174.1760  137.3430 O   0  0  0  0  0  0  0  0  0  0  0  0
  192.9190  175.0740  137.8380 C   0  0  0  0  0  0  0  0  0  0  0  0
  192.3450  176.2320  138.4570 N   0  0  0  0  0  2  0  0  0  0  0  0
  195.0910  175.5230  136.8750 N   0  0  0  0  0  0  0  0  0  0  0  0
  196.4400  175.2170  137.0500 N   0  0  0  0  0  2  0  0  0  0  0  0
  196.6100  174.3240  138.1850 C   0  0  2  0  0  3  0  0  0  0  0  0
  195.1890  174.1150  138.7150 C   0  0  0  0  0  2  0  0  0  0  0  0
  194.3780  174.9350  137.7700 C   0  0  0  0  0  0  0  0  0  0  0  0
  197.1610  174.8910  140.4470 O   0  0  0  0  0  1  0  0  0  0  0  0
  197.4700  174.9620  139.2270 C   0  0  0  0  0  0  0  0  0  0  0  0
  198.6340  175.6150  138.8480 O   0  0  0  0  0  0  0  0  0  0  0  0
  188.8760  178.9760  137.0850 C   0  0  0  0  0  2  0  0  0  0  0  0
  187.4090  178.7240  136.7910 C   0  0  0  0  0  2  0  0  0  0  0  0
  186.7790  177.8940  137.8980 C   0  0  0  0  0  2  0  0  0  0  0  0
  184.3850  177.1910  137.8010 C   0  0  0  0  0  2  0  0  0  0  0  0
  183.9530  179.3860  139.5770 C   0  0  0  0  0  2  0  0  0  0  0  0
  185.3470  178.3330  138.1610 C   0  0  1  0  0  3  0  0  0  0  0  0
  185.1900  178.7190  139.5060 O   0  0  0  0  0  0  0  0  0  0  0  0
  183.2550  177.0600  138.8270 C   0  0  0  0  0  2  0  0  0  0  0  0
  182.7760  178.4310  139.3160 C   0  0  0  0  0  2  0  0  0  0  0  0
  1 29  1  0  0  0  0
  1  3  2  0  0  0  0
  2  5  1  0  0  0  0
  3  2  2  0  0  0  0
  4 12  1  1  0  0  0
  5  7  1  0  0  0  0
  6  4  1  0  0  0  0
  7  6  2  0  0  0  0
  7  4  1  0  0  0  0
  8 16  1  0  0  0  0
  9 10  2  0  0  0  0
 10  8  1  0  0  0  0
 12 14  1  0  0  0  0
 13 12  2  0  0  0  0
 13  9  1  0  0  0  0
 14 11  1  0  0  0  0
 14  8  2  0  0  0  0
 16 15  2  0  0  0  0
 16 17  1  0  0  0  0
 18 19  2  0  0  0  0
 19 20  1  0  0  0  0
 20  2  1  0  0  0  0
 21 22  1  0  0  0  0
 21 25  2  0  0  0  0
 22 23  1  0  0  0  0
 23 24  1  0  0  0  0
 23 27  1  1  0  0  0
 25 19  1  0  0  0  0
 25 24  1  0  0  0  0
 27 26  1  0  0  0  0
 28 27  2  0  0  0  0
 30 29  1  0  0  0  0
 30 31  1  0  0  0  0
 32 34  1  0  0  0  0
 32 36  1  0  0  0  0
 34 31  1  1  0  0  0
 34 35  1  0  0  0  0
 35 33  1  0  0  0  0
 36 37  1  0  0  0  0
 37 33  1  0  0  0  0
M  END
>  <MODEL>
9

>  <REMARK>
 VINA RESULT:      -8.1      1.949      2.694
  Name = 
  10 active torsions:
  status: ('A' for Active; 'I' for Inactive)
    1  A    between atoms: C_1  and  C_15
    2  A    between atoms: C_6  and  C_36
    3  A    between atoms: C_7  and  C_26
    4  A    between atoms: C_8  and  C_24
    5  A    between atoms: C_9  and  C_34
    6  A    between atoms: N_11  and  C_13
    7  A    between atoms: C_13  and  N_20
    8  A    between atoms: C_16  and  C_26
    9  A    between atoms: C_16  and  C_34
   10  A    between atoms: C_18  and  C_29
                            x       y       z     vdW  Elec       q    Type
                         _______ _______ _______ _____ _____    ______ ____

>  <TORSDO>
F 10

$$$$
