=
 OpenBabel10222419403D

 36 38  0  0  1  0  0  0  0  0999 V2000
  188.6160  177.0900  139.7920 C   0  0  0  0  0  2  0  0  0  0  0  0
  184.7790  178.5980  138.2350 C   0  0  0  0  0  0  0  0  0  0  0  0
  185.3770  178.3850  141.2970 C   0  0  0  0  0  0  0  0  0  0  0  0
  189.6790  177.9520  139.1250 C   0  0  2  0  0  3  0  0  0  0  0  0
  187.8760  178.8850  141.4140 C   0  0  0  0  0  2  0  0  0  0  0  0
  184.4770  177.4090  137.5940 C   0  0  0  0  0  0  0  0  0  0  0  0
  185.4470  177.1750  136.6900 N   0  0  0  0  0  0  0  0  0  0  0  0
  188.4350  177.4740  141.2550 C   0  0  0  0  0  2  0  0  0  0  0  0
  189.0940  178.6770  137.9130 C   0  0  0  0  0  2  0  0  0  0  0  0
  188.6700  177.7110  136.8140 C   0  0  0  0  0  2  0  0  0  0  0  0
  186.2850  178.1970  136.7860 N   0  0  0  0  0  0  0  0  0  0  0  0
  185.9230  179.0710  137.7120 N   0  0  0  0  0  0  0  0  0  0  0  0
  187.5170  178.2990  136.0200 C   0  0  0  0  0  2  0  0  0  0  0  0
  184.0490  179.2540  139.3650 C   0  0  0  0  0  2  0  0  0  0  0  0
  184.2190  178.4980  140.6480 C   0  0  0  0  0  3  0  0  0  0  0  0
  186.5650  179.0040  140.7880 N   0  0  0  0  0  2  0  0  0  0  0  0
  192.0360  177.1070  139.5060 C   0  0  0  0  0  0  0  0  0  0  0  0
  192.1360  177.7610  140.5790 O   0  0  0  0  0  0  0  0  0  0  0  0
  190.8240  177.1310  138.7480 N   0  0  0  0  0  2  0  0  0  0  0  0
  193.1790  176.2750  139.0400 C   0  0  0  0  0  2  0  0  0  0  0  0
  193.2810  176.2790  136.4200 N   0  0  0  0  0  0  0  0  0  0  0  0
  193.2360  176.2780  137.5770 C   0  0  0  0  0  0  0  0  0  0  0  0
  183.3330  176.5140  137.8230 C   0  0  0  0  0  0  0  0  0  0  0  0
  183.5550  175.1720  138.2400 N   0  0  0  0  0  1  0  0  0  0  0  0
  182.1530  176.9210  137.6510 O   0  0  0  0  0  0  0  0  0  0  0  0
  185.3960  177.6220  142.5800 C   0  0  0  0  0  2  0  0  0  0  0  0
  185.2840  178.5410  143.7020 N   0  0  0  0  0  2  0  0  0  0  0  0
  186.3620  178.6250  147.4120 C   0  0  0  0  0  2  0  0  0  0  0  0
  185.6000  179.0870  146.1710 C   0  0  0  0  0  2  0  0  0  0  0  0
  187.2020  177.7240  144.8400 C   0  0  0  0  0  3  0  0  0  0  0  0
  186.0430  178.3890  144.9020 C   0  0  0  0  0  0  0  0  0  0  0  0
  188.0670  177.4830  146.0450 C   0  0  0  0  0  2  0  0  0  0  0  0
  187.8570  178.5590  147.1100 C   0  0  2  0  0  3  0  0  0  0  0  0
  187.8870  177.4280  149.2250 O   0  0  0  0  0  1  0  0  0  0  0  0
  188.6510  178.2260  148.3730 C   0  0  1  0  0  3  0  0  0  0  0  0
  189.9260  177.4780  148.0210 C   0  0  0  0  0  1  0  0  0  0  0  0
  1  8  1  0  0  0  0
  2 14  1  0  0  0  0
  3 26  1  0  0  0  0
  4 19  1  6  0  0  0
  4  1  1  0  0  0  0
  6 23  1  0  0  0  0
  6  2  1  0  0  0  0
  7 11  1  0  0  0  0
  7  6  2  0  0  0  0
  8  5  1  0  0  0  0
  9  4  1  0  0  0  0
 10  9  1  0  0  0  0
 11 12  1  0  0  0  0
 12  2  2  0  0  0  0
 13 11  1  0  0  0  0
 13 10  1  0  0  0  0
 14 15  1  0  0  0  0
 15  3  2  0  0  0  0
 16  3  1  0  0  0  0
 16  5  1  0  0  0  0
 17 18  2  0  0  0  0
 19 17  1  0  0  0  0
 20 17  1  0  0  0  0
 21 22  3  0  0  0  0
 22 20  1  0  0  0  0
 23 24  1  0  0  0  0
 25 23  2  0  0  0  0
 26 27  1  0  0  0  0
 27 31  1  0  0  0  0
 29 28  1  0  0  0  0
 30 31  2  0  0  0  0
 30 32  1  0  0  0  0
 31 29  1  0  0  0  0
 32 33  1  0  0  0  0
 33 28  1  0  0  0  0
 33 35  1  1  0  0  0
 35 36  1  6  0  0  0
 35 34  1  0  0  0  0
M  END
>  <MODEL>
1

>  <REMARK>
 VINA RESULT:      -7.3      0.000      0.000
  Name = 
  8 active torsions:
  status: ('A' for Active; 'I' for Inactive)
    1  A    between atoms: C_4  and  C_19
    2  A    between atoms: C_6  and  C_34
    3  A    between atoms: C_7  and  N_24
    4  A    between atoms: C_8  and  C_32
    5  A    between atoms: C_10  and  C_13
    6  A    between atoms: C_19  and  C_33
    7  A    between atoms: N_25  and  C_28
    8  A    between atoms: N_25  and  C_34
                            x       y       z     vdW  Elec       q    Type
                         _______ _______ _______ _____ _____    ______ ____

>  <TORSDO>
F 8

$$$$
=
 OpenBabel10222419403D

 36 38  0  0  1  0  0  0  0  0999 V2000
  188.0390  177.0890  142.5340 C   0  0  0  0  0  2  0  0  0  0  0  0
  189.2200  177.6420  138.3240 C   0  0  0  0  0  0  0  0  0  0  0  0
  186.3170  178.2140  139.3400 C   0  0  0  0  0  0  0  0  0  0  0  0
  189.0310  177.9200  143.3350 C   0  0  2  0  0  3  0  0  0  0  0  0
  186.7150  179.0790  141.7070 C   0  0  0  0  0  2  0  0  0  0  0  0
  189.5480  176.3090  138.1550 C   0  0  0  0  0  0  0  0  0  0  0  0
  190.5330  176.0170  139.0260 N   0  0  0  0  0  0  0  0  0  0  0  0
  186.6740  177.7630  142.4790 C   0  0  0  0  0  2  0  0  0  0  0  0
  190.2520  178.2610  142.4820 C   0  0  0  0  0  2  0  0  0  0  0  0
  191.0480  177.0210  142.0950 C   0  0  0  0  0  2  0  0  0  0  0  0
  190.7830  177.1430  139.6780 N   0  0  0  0  0  0  0  0  0  0  0  0
  190.0070  178.1430  139.2910 N   0  0  0  0  0  0  0  0  0  0  0  0
  191.7460  177.2440  140.7640 C   0  0  0  0  0  2  0  0  0  0  0  0
  188.1410  178.4250  137.6420 C   0  0  0  0  0  2  0  0  0  0  0  0
  186.7780  178.0110  138.1060 C   0  0  0  0  0  3  0  0  0  0  0  0
  187.1280  178.8650  140.3260 N   0  0  0  0  0  2  0  0  0  0  0  0
  188.7640  177.4150  145.8030 C   0  0  0  0  0  0  0  0  0  0  0  0
  187.7760  178.1920  145.8920 O   0  0  0  0  0  0  0  0  0  0  0  0
  189.4160  177.2070  144.5480 N   0  0  0  0  0  2  0  0  0  0  0  0
  189.2360  176.6810  147.0090 C   0  0  0  0  0  2  0  0  0  0  0  0
  191.8550  176.7320  147.1180 N   0  0  0  0  0  0  0  0  0  0  0  0
  190.6990  176.7100  147.0710 C   0  0  0  0  0  0  0  0  0  0  0  0
  188.9590  175.3340  137.2240 C   0  0  0  0  0  0  0  0  0  0  0  0
  189.6410  175.0040  136.0190 N   0  0  0  0  0  1  0  0  0  0  0  0
  187.8540  174.7880  137.4790 O   0  0  0  0  0  0  0  0  0  0  0  0
  184.9270  177.7720  139.6570 C   0  0  0  0  0  2  0  0  0  0  0  0
  184.0540  178.9300  139.7640 N   0  0  0  0  0  2  0  0  0  0  0  0
  181.8380  178.9980  142.9290 C   0  0  0  0  0  2  0  0  0  0  0  0
  183.0860  178.6780  142.1070 C   0  0  0  0  0  2  0  0  0  0  0  0
  181.7080  179.1250  140.0830 C   0  0  0  0  0  3  0  0  0  0  0  0
  182.9180  178.9620  140.6290 C   0  0  0  0  0  0  0  0  0  0  0  0
  180.4500  179.1990  140.9010 C   0  0  0  0  0  2  0  0  0  0  0  0
  180.5980  178.4520  142.2270 C   0  0  2  0  0  3  0  0  0  0  0  0
  179.5130  177.9900  144.3150 O   0  0  0  0  0  1  0  0  0  0  0  0
  179.3550  178.6450  143.0940 C   0  0  1  0  0  3  0  0  0  0  0  0
  179.1140  180.1210  143.3620 C   0  0  0  0  0  1  0  0  0  0  0  0
  1  4  1  0  0  0  0
  2 12  2  0  0  0  0
  3 26  1  0  0  0  0
  3 16  1  0  0  0  0
  4 19  1  1  0  0  0
  5  8  1  0  0  0  0
  6  2  1  0  0  0  0
  6  7  2  0  0  0  0
  7 11  1  0  0  0  0
  8  1  1  0  0  0  0
  9  4  1  0  0  0  0
 10  9  1  0  0  0  0
 11 13  1  0  0  0  0
 12 11  1  0  0  0  0
 13 10  1  0  0  0  0
 14 15  1  0  0  0  0
 14  2  1  0  0  0  0
 15  3  2  0  0  0  0
 16  5  1  0  0  0  0
 17 18  2  0  0  0  0
 17 20  1  0  0  0  0
 19 17  1  0  0  0  0
 20 22  1  0  0  0  0
 22 21  3  0  0  0  0
 23 25  2  0  0  0  0
 23  6  1  0  0  0  0
 24 23  1  0  0  0  0
 26 27  1  0  0  0  0
 27 31  1  0  0  0  0
 29 28  1  0  0  0  0
 30 31  2  0  0  0  0
 30 32  1  0  0  0  0
 31 29  1  0  0  0  0
 32 33  1  0  0  0  0
 33 28  1  0  0  0  0
 33 35  1  1  0  0  0
 35 36  1  1  0  0  0
 35 34  1  0  0  0  0
M  END
>  <MODEL>
2

>  <REMARK>
 VINA RESULT:      -7.2      3.223      6.518
  Name = 
  8 active torsions:
  status: ('A' for Active; 'I' for Inactive)
    1  A    between atoms: C_4  and  C_19
    2  A    between atoms: C_6  and  C_34
    3  A    between atoms: C_7  and  N_24
    4  A    between atoms: C_8  and  C_32
    5  A    between atoms: C_10  and  C_13
    6  A    between atoms: C_19  and  C_33
    7  A    between atoms: N_25  and  C_28
    8  A    between atoms: N_25  and  C_34
                            x       y       z     vdW  Elec       q    Type
                         _______ _______ _______ _____ _____    ______ ____

>  <TORSDO>
F 8

$$$$
=
 OpenBabel10222419403D

 36 38  0  0  1  0  0  0  0  0999 V2000
  190.3910  175.7860  138.2640 C   0  0  0  0  0  2  0  0  0  0  0  0
  186.5160  176.5080  136.2930 C   0  0  0  0  0  0  0  0  0  0  0  0
  187.4360  178.1090  138.8170 C   0  0  0  0  0  0  0  0  0  0  0  0
  191.4290  175.9350  137.1610 C   0  0  2  0  0  3  0  0  0  0  0  0
  189.9610  178.2690  138.4860 C   0  0  0  0  0  2  0  0  0  0  0  0
  186.0640  175.2200  136.5260 C   0  0  0  0  0  0  0  0  0  0  0  0
  186.9090  174.3730  135.9080 N   0  0  0  0  0  0  0  0  0  0  0  0
  190.4010  176.9910  139.1950 C   0  0  0  0  0  2  0  0  0  0  0  0
  190.7640  175.8490  135.7880 C   0  0  0  0  0  2  0  0  0  0  0  0
  190.1550  174.4770  135.5280 C   0  0  0  0  0  2  0  0  0  0  0  0
  187.8200  175.1350  135.3210 N   0  0  0  0  0  0  0  0  0  0  0  0
  187.6240  176.4270  135.5370 N   0  0  0  0  0  0  0  0  0  0  0  0
  188.9630  174.6040  134.5950 C   0  0  0  0  0  2  0  0  0  0  0  0
  185.9630  177.7940  136.8210 C   0  0  0  0  0  2  0  0  0  0  0  0
  186.2230  177.9490  138.2890 C   0  0  0  0  0  2  0  0  0  0  0  0
  188.5990  178.1460  137.9810 N   0  0  0  0  0  0  0  0  0  0  0  0
  193.7090  175.1810  137.9670 C   0  0  0  0  0  0  0  0  0  0  0  0
  193.9300  176.3000  138.5020 O   0  0  0  0  0  0  0  0  0  0  0  0
  192.4660  174.9200  137.3100 N   0  0  0  0  0  2  0  0  0  0  0  0
  194.7380  174.1080  138.0470 C   0  0  0  0  0  2  0  0  0  0  0  0
  196.5930  174.7780  139.7740 N   0  0  0  0  0  0  0  0  0  0  0  0
  195.7750  174.4810  139.0110 C   0  0  0  0  0  0  0  0  0  0  0  0
  184.8940  174.7910  137.3060 C   0  0  0  0  0  0  0  0  0  0  0  0
  184.8700  173.4950  137.8930 N   0  0  0  0  0  1  0  0  0  0  0  0
  183.9070  175.5590  137.4610 O   0  0  0  0  0  0  0  0  0  0  0  0
  187.5460  178.2760  140.2960 C   0  0  0  0  0  2  0  0  0  0  0  0
  186.2190  178.4150  140.8760 N   0  0  0  0  0  2  0  0  0  0  0  0
  184.6030  179.0460  144.3290 C   0  0  0  0  0  2  0  0  0  0  0  0
  184.8700  179.3040  142.8460 C   0  0  0  0  0  2  0  0  0  0  0  0
  186.8690  177.8390  143.0870 C   0  0  0  0  0  3  0  0  0  0  0  0
  185.9940  178.4590  142.2850 C   0  0  0  0  0  0  0  0  0  0  0  0
  186.7150  177.8000  144.5810 C   0  0  0  0  0  2  0  0  0  0  0  0
  185.9220  179.0000  145.0950 C   0  0  2  0  0  3  0  0  0  0  0  0
  184.4220  178.3010  146.8310 O   0  0  0  0  0  1  0  0  0  0  0  0
  185.6720  178.8750  146.5980 C   0  0  1  0  0  3  0  0  0  0  0  0
  186.7350  178.0020  147.2450 C   0  0  0  0  0  1  0  0  0  0  0  0
  1  8  1  0  0  0  0
  2  6  1  0  0  0  0
  2 14  1  0  0  0  0
  3 26  1  0  0  0  0
  4 19  1  6  0  0  0
  4  1  1  0  0  0  0
  5  8  1  0  0  0  0
  6 23  1  0  0  0  0
  7  6  2  0  0  0  0
  9  4  1  0  0  0  0
 10  9  1  0  0  0  0
 11 12  1  0  0  0  0
 11  7  1  0  0  0  0
 12  2  2  0  0  0  0
 13 11  1  0  0  0  0
 13 10  1  0  0  0  0
 14 15  1  0  0  0  0
 15  3  1  0  0  0  0
 16  5  1  0  0  0  0
 16  3  2  0  0  0  0
 17 20  1  0  0  0  0
 17 18  2  0  0  0  0
 19 17  1  0  0  0  0
 20 22  1  0  0  0  0
 22 21  3  0  0  0  0
 23 25  2  0  0  0  0
 23 24  1  0  0  0  0
 26 27  1  0  0  0  0
 27 31  1  0  0  0  0
 28 33  1  0  0  0  0
 29 28  1  0  0  0  0
 30 32  1  0  0  0  0
 31 29  1  0  0  0  0
 31 30  2  0  0  0  0
 32 33  1  0  0  0  0
 33 35  1  1  0  0  0
 35 34  1  0  0  0  0
 35 36  1  6  0  0  0
M  END
>  <MODEL>
3

>  <REMARK>
 VINA RESULT:      -7.2      2.413      3.278
  Name = 
  8 active torsions:
  status: ('A' for Active; 'I' for Inactive)
    1  A    between atoms: C_4  and  C_19
    2  A    between atoms: C_6  and  C_34
    3  A    between atoms: C_7  and  N_24
    4  A    between atoms: C_8  and  C_32
    5  A    between atoms: C_10  and  C_13
    6  A    between atoms: C_19  and  C_33
    7  A    between atoms: N_25  and  C_28
    8  A    between atoms: N_25  and  C_34
                            x       y       z     vdW  Elec       q    Type
                         _______ _______ _______ _____ _____    ______ ____

>  <TORSDO>
F 8

$$$$
=
 OpenBabel10222419403D

 36 38  0  0  1  0  0  0  0  0999 V2000
  188.7910  176.7290  139.3150 C   0  0  0  0  0  2  0  0  0  0  0  0
  184.8100  178.6180  139.2710 C   0  0  0  0  0  0  0  0  0  0  0  0
  186.4090  178.1420  141.9160 C   0  0  0  0  0  0  0  0  0  0  0  0
  189.6330  177.5580  138.3550 C   0  0  2  0  0  3  0  0  0  0  0  0
  188.8290  178.4510  141.1680 C   0  0  0  0  0  2  0  0  0  0  0  0
  184.1960  177.5030  138.7270 C   0  0  0  0  0  0  0  0  0  0  0  0
  184.7670  177.2660  137.5310 N   0  0  0  0  0  0  0  0  0  0  0  0
  189.1650  177.0190  140.7640 C   0  0  0  0  0  2  0  0  0  0  0  0
  188.7340  178.4090  137.4580 C   0  0  0  0  0  2  0  0  0  0  0  0
  187.8680  177.5570  136.5380 C   0  0  0  0  0  2  0  0  0  0  0  0
  185.6770  178.2150  137.3700 N   0  0  0  0  0  0  0  0  0  0  0  0
  185.7410  179.0440  138.4000 N   0  0  0  0  0  0  0  0  0  0  0  0
  186.5710  178.2830  136.2240 C   0  0  0  0  0  2  0  0  0  0  0  0
  184.5800  179.2410  140.6120 C   0  0  0  0  0  2  0  0  0  0  0  0
  185.1140  178.3850  141.7200 C   0  0  0  0  0  2  0  0  0  0  0  0
  187.3990  178.7090  141.0490 N   0  0  0  0  0  0  0  0  0  0  0  0
  191.8410  176.3870  137.9440 C   0  0  0  0  0  0  0  0  0  0  0  0
  192.3160  176.8270  139.0250 O   0  0  0  0  0  0  0  0  0  0  0  0
  190.4950  176.6860  137.5650 N   0  0  0  0  0  2  0  0  0  0  0  0
  192.6760  175.5200  137.0690 C   0  0  0  0  0  2  0  0  0  0  0  0
  194.6970  176.8910  136.1130 N   0  0  0  0  0  0  0  0  0  0  0  0
  193.8050  176.2860  136.5370 C   0  0  0  0  0  0  0  0  0  0  0  0
  183.1240  176.6790  139.3050 C   0  0  0  0  0  0  0  0  0  0  0  0
  182.1340  177.2810  140.1310 N   0  0  0  0  0  1  0  0  0  0  0  0
  183.0720  175.4410  139.0780 O   0  0  0  0  0  0  0  0  0  0  0  0
  186.8000  177.2890  143.0770 C   0  0  0  0  0  2  0  0  0  0  0  0
  187.2420  178.1300  144.1790 N   0  0  0  0  0  2  0  0  0  0  0  0
  190.9470  177.8540  145.2400 C   0  0  0  0  0  2  0  0  0  0  0  0
  189.7790  177.9180  144.2570 C   0  0  0  0  0  2  0  0  0  0  0  0
  188.2920  177.4340  146.1930 C   0  0  0  0  0  3  0  0  0  0  0  0
  188.4250  177.8570  144.9310 C   0  0  0  0  0  0  0  0  0  0  0  0
  189.4690  177.1420  147.0810 C   0  0  0  0  0  2  0  0  0  0  0  0
  190.7020  176.7520  146.2670 C   0  0  2  0  0  3  0  0  0  0  0  0
  191.8030  177.4190  148.2910 O   0  0  0  0  0  1  0  0  0  0  0  0
  191.9160  176.5820  147.1810 C   0  0  1  0  0  3  0  0  0  0  0  0
  192.0240  175.1460  147.6650 C   0  0  0  0  0  1  0  0  0  0  0  0
  1  8  1  0  0  0  0
  2 14  1  0  0  0  0
  3 26  1  0  0  0  0
  4 19  1  6  0  0  0
  4  1  1  0  0  0  0
  6  2  1  0  0  0  0
  6 23  1  0  0  0  0
  7  6  2  0  0  0  0
  8  5  1  0  0  0  0
  9  4  1  0  0  0  0
 10  9  1  0  0  0  0
 11  7  1  0  0  0  0
 11 12  1  0  0  0  0
 12  2  2  0  0  0  0
 13 10  1  0  0  0  0
 13 11  1  0  0  0  0
 14 15  1  0  0  0  0
 15  3  1  0  0  0  0
 16  5  1  0  0  0  0
 16  3  2  0  0  0  0
 17 18  2  0  0  0  0
 19 17  1  0  0  0  0
 20 17  1  0  0  0  0
 21 22  3  0  0  0  0
 22 20  1  0  0  0  0
 23 24  1  0  0  0  0
 25 23  2  0  0  0  0
 26 27  1  0  0  0  0
 27 31  1  0  0  0  0
 28 33  1  0  0  0  0
 29 31  1  0  0  0  0
 29 28  1  0  0  0  0
 30 32  1  0  0  0  0
 31 30  2  0  0  0  0
 33 32  1  0  0  0  0
 33 35  1  1  0  0  0
 35 36  1  1  0  0  0
 35 34  1  0  0  0  0
M  END
>  <MODEL>
4

>  <REMARK>
 VINA RESULT:      -7.2      1.694      2.180
  Name = 
  8 active torsions:
  status: ('A' for Active; 'I' for Inactive)
    1  A    between atoms: C_4  and  C_19
    2  A    between atoms: C_6  and  C_34
    3  A    between atoms: C_7  and  N_24
    4  A    between atoms: C_8  and  C_32
    5  A    between atoms: C_10  and  C_13
    6  A    between atoms: C_19  and  C_33
    7  A    between atoms: N_25  and  C_28
    8  A    between atoms: N_25  and  C_34
                            x       y       z     vdW  Elec       q    Type
                         _______ _______ _______ _____ _____    ______ ____

>  <TORSDO>
F 8

$$$$
=
 OpenBabel10222419403D

 36 38  0  0  1  0  0  0  0  0999 V2000
  187.4240  177.2270  142.5470 C   0  0  0  0  0  2  0  0  0  0  0  0
  188.1910  177.8520  138.2520 C   0  0  0  0  0  0  0  0  0  0  0  0
  185.4050  178.4160  139.5560 C   0  0  0  0  0  0  0  0  0  0  0  0
  188.4940  178.0400  143.2620 C   0  0  2  0  0  3  0  0  0  0  0  0
  186.0360  179.2370  141.8880 C   0  0  0  0  0  2  0  0  0  0  0  0
  188.4940  176.5200  138.0280 C   0  0  0  0  0  0  0  0  0  0  0  0
  189.5580  176.2100  138.7940 N   0  0  0  0  0  0  0  0  0  0  0  0
  186.0640  177.9070  142.6370 C   0  0  0  0  0  2  0  0  0  0  0  0
  189.6270  178.3920  142.2990 C   0  0  0  0  0  2  0  0  0  0  0  0
  190.3750  177.1570  141.8150 C   0  0  0  0  0  2  0  0  0  0  0  0
  189.8760  177.3230  139.4380 N   0  0  0  0  0  0  0  0  0  0  0  0
  189.0710  178.3330  139.1460 N   0  0  0  0  0  0  0  0  0  0  0  0
  190.9410  177.4000  140.4260 C   0  0  0  0  0  2  0  0  0  0  0  0
  187.0550  178.6510  137.6930 C   0  0  0  0  0  2  0  0  0  0  0  0
  185.7410  178.2330  138.2800 C   0  0  0  0  0  3  0  0  0  0  0  0
  186.3110  179.0460  140.4690 N   0  0  0  0  0  2  0  0  0  0  0  0
  188.5020  177.5290  145.7420 C   0  0  0  0  0  0  0  0  0  0  0  0
  187.5630  178.3430  145.9500 O   0  0  0  0  0  0  0  0  0  0  0  0
  188.9920  177.3040  144.4180 N   0  0  0  0  0  2  0  0  0  0  0  0
  189.0840  176.7680  146.8820 C   0  0  0  0  0  2  0  0  0  0  0  0
  191.7020  176.8480  146.7670 N   0  0  0  0  0  0  0  0  0  0  0  0
  190.5460  176.8140  146.8180 C   0  0  0  0  0  0  0  0  0  0  0  0
  187.8120  175.5650  137.1420 C   0  0  0  0  0  0  0  0  0  0  0  0
  188.3310  175.3100  135.8410 N   0  0  0  0  0  1  0  0  0  0  0  0
  186.7690  174.9690  137.5200 O   0  0  0  0  0  0  0  0  0  0  0  0
  184.0500  177.9730  140.0000 C   0  0  0  0  0  2  0  0  0  0  0  0
  183.1950  177.7650  138.8400 N   0  0  0  0  0  2  0  0  0  0  0  0
  180.5430  179.6200  136.7300 C   0  0  0  0  0  2  0  0  0  0  0  0
  181.6200  178.5730  137.0080 C   0  0  0  0  0  2  0  0  0  0  0  0
  182.2540  179.9410  138.9890 C   0  0  0  0  0  3  0  0  0  0  0  0
  182.3260  178.7770  138.3320 C   0  0  0  0  0  0  0  0  0  0  0  0
  181.3540  181.0630  138.5570 C   0  0  0  0  0  2  0  0  0  0  0  0
  181.0750  181.0130  137.0560 C   0  0  2  0  0  3  0  0  0  0  0  0
  179.9330  183.0260  137.6860 O   0  0  0  0  0  1  0  0  0  0  0  0
  180.0620  182.0870  136.6620 C   0  0  1  0  0  3  0  0  0  0  0  0
  180.5060  182.8040  135.3980 C   0  0  0  0  0  1  0  0  0  0  0  0
  1  8  1  0  0  0  0
  1  4  1  0  0  0  0
  2 12  2  0  0  0  0
  3 26  1  0  0  0  0
  3 16  1  0  0  0  0
  4 19  1  1  0  0  0
  5  8  1  0  0  0  0
  6  2  1  0  0  0  0
  6  7  2  0  0  0  0
  7 11  1  0  0  0  0
  9  4  1  0  0  0  0
 10  9  1  0  0  0  0
 11 13  1  0  0  0  0
 12 11  1  0  0  0  0
 13 10  1  0  0  0  0
 14  2  1  0  0  0  0
 14 15  1  0  0  0  0
 15  3  2  0  0  0  0
 16  5  1  0  0  0  0
 17 18  2  0  0  0  0
 17 20  1  0  0  0  0
 19 17  1  0  0  0  0
 21 22  3  0  0  0  0
 22 20  1  0  0  0  0
 23 25  2  0  0  0  0
 23  6  1  0  0  0  0
 24 23  1  0  0  0  0
 27 26  1  0  0  0  0
 28 29  1  0  0  0  0
 28 33  1  0  0  0  0
 29 31  1  0  0  0  0
 31 27  1  0  0  0  0
 31 30  2  0  0  0  0
 32 30  1  0  0  0  0
 33 35  1  1  0  0  0
 33 32  1  0  0  0  0
 35 36  1  6  0  0  0
 35 34  1  0  0  0  0
M  END
>  <MODEL>
5

>  <REMARK>
 VINA RESULT:      -7.0      3.129      7.682
  Name = 
  8 active torsions:
  status: ('A' for Active; 'I' for Inactive)
    1  A    between atoms: C_4  and  C_19
    2  A    between atoms: C_6  and  C_34
    3  A    between atoms: C_7  and  N_24
    4  A    between atoms: C_8  and  C_32
    5  A    between atoms: C_10  and  C_13
    6  A    between atoms: C_19  and  C_33
    7  A    between atoms: N_25  and  C_28
    8  A    between atoms: N_25  and  C_34
                            x       y       z     vdW  Elec       q    Type
                         _______ _______ _______ _____ _____    ______ ____

>  <TORSDO>
F 8

$$$$
=
 OpenBabel10222419403D

 36 38  0  0  1  0  0  0  0  0999 V2000
  187.8790  176.1700  137.9060 C   0  0  0  0  0  2  0  0  0  0  0  0
  183.6940  176.5950  136.5920 C   0  0  0  0  0  0  0  0  0  0  0  0
  185.0200  178.5650  138.6270 C   0  0  0  0  0  0  0  0  0  0  0  0
  188.6960  176.1410  136.6210 C   0  0  2  0  0  3  0  0  0  0  0  0
  187.4380  178.6600  137.8180 C   0  0  0  0  0  2  0  0  0  0  0  0
  183.3230  175.3620  137.1000 C   0  0  0  0  0  0  0  0  0  0  0  0
  184.0620  174.4240  136.4750 N   0  0  0  0  0  0  0  0  0  0  0  0
  188.0300  177.5060  138.6220 C   0  0  0  0  0  2  0  0  0  0  0  0
  187.7940  175.8450  135.4230 C   0  0  0  0  0  2  0  0  0  0  0  0
  187.1810  174.4520  135.4940 C   0  0  0  0  0  2  0  0  0  0  0  0
  184.8320  175.0820  135.6210 N   0  0  0  0  0  0  0  0  0  0  0  0
  184.6480  176.3920  135.6680 N   0  0  0  0  0  0  0  0  0  0  0  0
  185.8360  174.4380  134.7880 C   0  0  0  0  0  2  0  0  0  0  0  0
  183.2160  177.9510  137.0090 C   0  0  0  0  0  2  0  0  0  0  0  0
  183.7350  178.3310  138.3620 C   0  0  0  0  0  2  0  0  0  0  0  0
  186.0100  178.4660  137.5960 N   0  0  0  0  0  0  0  0  0  0  0  0
  191.0930  175.5050  137.1340 C   0  0  0  0  0  0  0  0  0  0  0  0
  191.3720  176.6870  137.4720 O   0  0  0  0  0  0  0  0  0  0  0  0
  189.7670  175.1570  136.7310 N   0  0  0  0  0  2  0  0  0  0  0  0
  192.1470  174.4550  137.1870 C   0  0  0  0  0  2  0  0  0  0  0  0
  194.3960  175.4810  138.0600 N   0  0  0  0  0  0  0  0  0  0  0  0
  193.4020  175.0290  137.6750 C   0  0  0  0  0  0  0  0  0  0  0  0
  182.3250  175.0650  138.1390 C   0  0  0  0  0  0  0  0  0  0  0  0
  181.1360  174.3620  137.7990 N   0  0  0  0  0  1  0  0  0  0  0  0
  182.5110  175.4280  139.3300 O   0  0  0  0  0  0  0  0  0  0  0  0
  185.3930  178.9610  140.0180 C   0  0  0  0  0  2  0  0  0  0  0  0
  184.5580  178.2500  140.9730 N   0  0  0  0  0  2  0  0  0  0  0  0
  183.9600  178.7720  144.7550 C   0  0  0  0  0  2  0  0  0  0  0  0
  183.7180  178.9900  143.2620 C   0  0  0  0  0  2  0  0  0  0  0  0
  185.9360  177.9250  142.8810 C   0  0  0  0  0  3  0  0  0  0  0  0
  184.7620  178.3310  142.3840 C   0  0  0  0  0  0  0  0  0  0  0  0
  186.2470  177.9430  144.3510 C   0  0  0  0  0  2  0  0  0  0  0  0
  185.4310  179.0080  145.0840 C   0  0  2  0  0  3  0  0  0  0  0  0
  184.5850  178.3100  147.2170 O   0  0  0  0  0  1  0  0  0  0  0  0
  185.6710  178.9240  146.5910 C   0  0  1  0  0  3  0  0  0  0  0  0
  186.9230  178.1180  146.8890 C   0  0  0  0  0  1  0  0  0  0  0  0
  1  8  1  0  0  0  0
  2 14  1  0  0  0  0
  2  6  1  0  0  0  0
  3 26  1  0  0  0  0
  4 19  1  1  0  0  0
  4  1  1  0  0  0  0
  5  8  1  0  0  0  0
  6 23  1  0  0  0  0
  7  6  2  0  0  0  0
  9 10  1  0  0  0  0
  9  4  1  0  0  0  0
 11 12  1  0  0  0  0
 11  7  1  0  0  0  0
 12  2  2  0  0  0  0
 13 10  1  0  0  0  0
 13 11  1  0  0  0  0
 14 15  1  0  0  0  0
 15  3  1  0  0  0  0
 16  5  1  0  0  0  0
 16  3  2  0  0  0  0
 17 20  1  0  0  0  0
 17 18  2  0  0  0  0
 19 17  1  0  0  0  0
 20 22  1  0  0  0  0
 22 21  3  0  0  0  0
 23 25  2  0  0  0  0
 24 23  1  0  0  0  0
 26 27  1  0  0  0  0
 27 31  1  0  0  0  0
 28 33  1  0  0  0  0
 29 28  1  0  0  0  0
 30 32  1  0  0  0  0
 31 30  2  0  0  0  0
 31 29  1  0  0  0  0
 32 33  1  0  0  0  0
 33 35  1  1  0  0  0
 35 36  1  6  0  0  0
 35 34  1  0  0  0  0
M  END
>  <MODEL>
6

>  <REMARK>
 VINA RESULT:      -6.8      2.094      3.051
  Name = 
  8 active torsions:
  status: ('A' for Active; 'I' for Inactive)
    1  A    between atoms: C_4  and  C_19
    2  A    between atoms: C_6  and  C_34
    3  A    between atoms: C_7  and  N_24
    4  A    between atoms: C_8  and  C_32
    5  A    between atoms: C_10  and  C_13
    6  A    between atoms: C_19  and  C_33
    7  A    between atoms: N_25  and  C_28
    8  A    between atoms: N_25  and  C_34
                            x       y       z     vdW  Elec       q    Type
                         _______ _______ _______ _____ _____    ______ ____

>  <TORSDO>
F 8

$$$$
=
 OpenBabel10222419403D

 36 38  0  0  1  0  0  0  0  0999 V2000
  188.0330  175.9340  137.6780 C   0  0  0  0  0  2  0  0  0  0  0  0
  184.1000  177.9000  137.9660 C   0  0  0  0  0  0  0  0  0  0  0  0
  186.4810  178.6310  139.8570 C   0  0  0  0  0  0  0  0  0  0  0  0
  188.4610  176.1160  136.2290 C   0  0  2  0  0  3  0  0  0  0  0  0
  188.5110  178.3280  138.3420 C   0  0  0  0  0  2  0  0  0  0  0  0
  183.4380  176.7190  138.2560 C   0  0  0  0  0  0  0  0  0  0  0  0
  183.6220  175.8830  137.2170 N   0  0  0  0  0  0  0  0  0  0  0  0
  188.8170  176.8560  138.6030 C   0  0  0  0  0  2  0  0  0  0  0  0
  187.2610  176.4980  135.3630 C   0  0  0  0  0  2  0  0  0  0  0  0
  186.2220  175.3860  135.2970 C   0  0  0  0  0  2  0  0  0  0  0  0
  184.3560  176.5510  136.3400 N   0  0  0  0  0  0  0  0  0  0  0  0
  184.6730  177.7680  136.7580 N   0  0  0  0  0  0  0  0  0  0  0  0
  184.8370  175.9770  135.0930 C   0  0  0  0  0  2  0  0  0  0  0  0
  184.2530  179.1130  138.8300 C   0  0  0  0  0  2  0  0  0  0  0  0
  185.1740  178.8590  139.9840 C   0  0  0  0  0  2  0  0  0  0  0  0
  187.1000  178.6180  138.5650 N   0  0  0  0  0  0  0  0  0  0  0  0
  190.5160  174.7100  135.7650 C   0  0  0  0  0  0  0  0  0  0  0  0
  191.2710  175.5800  136.2770 O   0  0  0  0  0  0  0  0  0  0  0  0
  189.1000  174.8990  135.7390 N   0  0  0  0  0  2  0  0  0  0  0  0
  191.1020  173.4590  135.2120 C   0  0  0  0  0  2  0  0  0  0  0  0
  193.4770  173.0510  136.2460 N   0  0  0  0  0  0  0  0  0  0  0  0
  192.4280  173.2290  135.7900 C   0  0  0  0  0  0  0  0  0  0  0  0
  182.6720  176.3750  139.4630 C   0  0  0  0  0  0  0  0  0  0  0  0
  181.4880  175.5930  139.3520 N   0  0  0  0  0  1  0  0  0  0  0  0
  183.0510  176.7670  140.5990 O   0  0  0  0  0  0  0  0  0  0  0  0
  187.2840  178.4180  141.0980 C   0  0  0  0  0  2  0  0  0  0  0  0
  186.3970  178.2850  142.2430 N   0  0  0  0  0  2  0  0  0  0  0  0
  186.5120  177.4440  146.0130 C   0  0  0  0  0  2  0  0  0  0  0  0
  185.9830  178.1270  144.7520 C   0  0  0  0  0  2  0  0  0  0  0  0
  188.1220  177.4720  143.6590 C   0  0  0  0  0  3  0  0  0  0  0  0
  186.8620  177.9060  143.5390 C   0  0  0  0  0  0  0  0  0  0  0  0
  188.7060  177.0250  144.9690 C   0  0  0  0  0  2  0  0  0  0  0  0
  188.0110  177.6970  146.1520 C   0  0  2  0  0  3  0  0  0  0  0  0
  189.7650  176.5050  147.2730 O   0  0  0  0  0  1  0  0  0  0  0  0
  188.5350  177.1340  147.4730 C   0  0  1  0  0  3  0  0  0  0  0  0
  188.7180  178.2460  148.4930 C   0  0  0  0  0  1  0  0  0  0  0  0
  1  8  1  0  0  0  0
  2  6  1  0  0  0  0
  2 14  1  0  0  0  0
  3 15  1  0  0  0  0
  3 26  1  0  0  0  0
  4 19  1  6  0  0  0
  4  1  1  0  0  0  0
  5 16  1  0  0  0  0
  5  8  1  0  0  0  0
  6 23  1  0  0  0  0
  7  6  2  0  0  0  0
  9  4  1  0  0  0  0
 10  9  1  0  0  0  0
 11 12  1  0  0  0  0
 11  7  1  0  0  0  0
 12  2  2  0  0  0  0
 13 10  1  0  0  0  0
 13 11  1  0  0  0  0
 14 15  1  0  0  0  0
 16  3  2  0  0  0  0
 17 18  2  0  0  0  0
 19 17  1  0  0  0  0
 20 17  1  0  0  0  0
 20 22  1  0  0  0  0
 22 21  3  0  0  0  0
 23 25  2  0  0  0  0
 24 23  1  0  0  0  0
 26 27  1  0  0  0  0
 27 31  1  0  0  0  0
 28 33  1  0  0  0  0
 29 28  1  0  0  0  0
 30 32  1  0  0  0  0
 31 30  2  0  0  0  0
 31 29  1  0  0  0  0
 32 33  1  0  0  0  0
 33 35  1  1  0  0  0
 34 35  1  0  0  0  0
 35 36  1  1  0  0  0
M  END
>  <MODEL>
7

>  <REMARK>
 VINA RESULT:      -6.8      2.239      2.777
  Name = 
  8 active torsions:
  status: ('A' for Active; 'I' for Inactive)
    1  A    between atoms: C_4  and  C_19
    2  A    between atoms: C_6  and  C_34
    3  A    between atoms: C_7  and  N_24
    4  A    between atoms: C_8  and  C_32
    5  A    between atoms: C_10  and  C_13
    6  A    between atoms: C_19  and  C_33
    7  A    between atoms: N_25  and  C_28
    8  A    between atoms: N_25  and  C_34
                            x       y       z     vdW  Elec       q    Type
                         _______ _______ _______ _____ _____    ______ ____

>  <TORSDO>
F 8

$$$$
=
 OpenBabel10222419403D

 36 38  0  0  1  0  0  0  0  0999 V2000
  187.1690  177.2630  142.5470 C   0  0  0  0  0  2  0  0  0  0  0  0
  187.6350  177.9260  138.2160 C   0  0  0  0  0  0  0  0  0  0  0  0
  184.9360  178.4410  139.7090 C   0  0  0  0  0  0  0  0  0  0  0  0
  188.2730  178.0860  143.1950 C   0  0  2  0  0  3  0  0  0  0  0  0
  185.7110  179.2570  141.9990 C   0  0  0  0  0  2  0  0  0  0  0  0
  187.9410  176.6000  137.9620 C   0  0  0  0  0  0  0  0  0  0  0  0
  189.0580  176.3000  138.6520 N   0  0  0  0  0  0  0  0  0  0  0  0
  185.8090  177.9230  142.7340 C   0  0  0  0  0  2  0  0  0  0  0  0
  189.3340  178.4610  142.1600 C   0  0  0  0  0  2  0  0  0  0  0  0
  190.0650  177.2390  141.6170 C   0  0  0  0  0  2  0  0  0  0  0  0
  189.4040  177.4140  139.2810 N   0  0  0  0  0  0  0  0  0  0  0  0
  188.5670  178.4140  139.0520 N   0  0  0  0  0  0  0  0  0  0  0  0
  190.5320  177.5000  140.1960 C   0  0  0  0  0  2  0  0  0  0  0  0
  186.4530  178.7120  137.7400 C   0  0  0  0  0  2  0  0  0  0  0  0
  185.1870  178.2720  138.4120 C   0  0  0  0  0  3  0  0  0  0  0  0
  185.8930  179.0790  140.5630 N   0  0  0  0  0  2  0  0  0  0  0  0
  188.4060  177.5060  145.6570 C   0  0  0  0  0  0  0  0  0  0  0  0
  187.4280  178.2550  145.9220 O   0  0  0  0  0  0  0  0  0  0  0  0
  188.8590  177.3500  144.3090 N   0  0  0  0  0  2  0  0  0  0  0  0
  189.0770  176.7510  146.7500 C   0  0  0  0  0  2  0  0  0  0  0  0
  191.6800  176.9040  146.4750 N   0  0  0  0  0  0  0  0  0  0  0  0
  190.5300  176.8360  146.5980 C   0  0  0  0  0  0  0  0  0  0  0  0
  187.2140  175.6410  137.1170 C   0  0  0  0  0  0  0  0  0  0  0  0
  186.9710  175.9450  135.7480 N   0  0  0  0  0  1  0  0  0  0  0  0
  186.8000  174.5510  137.5920 O   0  0  0  0  0  0  0  0  0  0  0  0
  183.6200  177.9760  140.2400 C   0  0  0  0  0  2  0  0  0  0  0  0
  182.6030  178.0930  139.2060 N   0  0  0  0  0  2  0  0  0  0  0  0
  180.4840  174.8770  138.8890 C   0  0  0  0  0  2  0  0  0  0  0  0
  181.4020  175.8790  139.5880 C   0  0  0  0  0  2  0  0  0  0  0  0
  181.8620  176.8310  137.3350 C   0  0  0  0  0  3  0  0  0  0  0  0
  181.9200  176.9620  138.6650 C   0  0  0  0  0  0  0  0  0  0  0  0
  181.1490  175.6950  136.6590 C   0  0  0  0  0  2  0  0  0  0  0  0
  181.0930  174.4570  137.5540 C   0  0  2  0  0  3  0  0  0  0  0  0
  180.6350  173.1970  135.5650 O   0  0  0  0  0  1  0  0  0  0  0  0
  180.2570  173.3580  136.8980 C   0  0  1  0  0  3  0  0  0  0  0  0
  180.4510  172.0350  137.6200 C   0  0  0  0  0  1  0  0  0  0  0  0
  1  8  1  0  0  0  0
  1  4  1  0  0  0  0
  2 12  2  0  0  0  0
  3 26  1  0  0  0  0
  3 16  1  0  0  0  0
  4 19  1  1  0  0  0
  5  8  1  0  0  0  0
  6  2  1  0  0  0  0
  6  7  2  0  0  0  0
  7 11  1  0  0  0  0
  9  4  1  0  0  0  0
 10  9  1  0  0  0  0
 11 13  1  0  0  0  0
 12 11  1  0  0  0  0
 13 10  1  0  0  0  0
 14  2  1  0  0  0  0
 14 15  1  0  0  0  0
 15  3  2  0  0  0  0
 16  5  1  0  0  0  0
 17 18  2  0  0  0  0
 17 20  1  0  0  0  0
 19 17  1  0  0  0  0
 21 22  3  0  0  0  0
 22 20  1  0  0  0  0
 23 25  2  0  0  0  0
 23  6  1  0  0  0  0
 24 23  1  0  0  0  0
 27 26  1  0  0  0  0
 28 29  1  0  0  0  0
 30 31  2  0  0  0  0
 31 27  1  0  0  0  0
 31 29  1  0  0  0  0
 32 30  1  0  0  0  0
 32 33  1  0  0  0  0
 33 35  1  6  0  0  0
 33 28  1  0  0  0  0
 34 35  1  0  0  0  0
 35 36  1  1  0  0  0
M  END
>  <MODEL>
8

>  <REMARK>
 VINA RESULT:      -6.7      2.803      7.529
  Name = 
  8 active torsions:
  status: ('A' for Active; 'I' for Inactive)
    1  A    between atoms: C_4  and  C_19
    2  A    between atoms: C_6  and  C_34
    3  A    between atoms: C_7  and  N_24
    4  A    between atoms: C_8  and  C_32
    5  A    between atoms: C_10  and  C_13
    6  A    between atoms: C_19  and  C_33
    7  A    between atoms: N_25  and  C_28
    8  A    between atoms: N_25  and  C_34
                            x       y       z     vdW  Elec       q    Type
                         _______ _______ _______ _____ _____    ______ ____

>  <TORSDO>
F 8

$$$$
=
 OpenBabel10222419403D

 36 38  0  0  1  0  0  0  0  0999 V2000
  184.5220  177.6620  138.5330 C   0  0  0  0  0  2  0  0  0  0  0  0
  180.4280  176.3510  137.5580 C   0  0  0  0  0  0  0  0  0  0  0  0
  181.0070  178.8370  139.3650 C   0  0  0  0  0  0  0  0  0  0  0  0
  185.2100  177.8400  137.1870 C   0  0  2  0  0  3  0  0  0  0  0  0
  183.1490  179.7790  138.3500 C   0  0  0  0  0  2  0  0  0  0  0  0
  180.5920  175.1160  138.1600 C   0  0  0  0  0  0  0  0  0  0  0  0
  181.5970  174.4830  137.5260 N   0  0  0  0  0  0  0  0  0  0  0  0
  184.1860  179.0080  139.1620 C   0  0  0  0  0  2  0  0  0  0  0  0
  184.4240  177.1270  136.0870 C   0  0  0  0  0  2  0  0  0  0  0  0
  184.4010  175.6160  136.2840 C   0  0  0  0  0  2  0  0  0  0  0  0
  182.0040  175.3120  136.5760 N   0  0  0  0  0  0  0  0  0  0  0  0
  181.3310  176.4520  136.5680 N   0  0  0  0  0  0  0  0  0  0  0  0
  183.1280  175.0330  135.6960 C   0  0  0  0  0  2  0  0  0  0  0  0
  179.4890  177.4520  137.9410 C   0  0  0  0  0  2  0  0  0  0  0  0
  179.8990  178.1110  139.2230 C   0  0  0  0  0  2  0  0  0  0  0  0
  181.8970  179.0390  138.2610 N   0  0  0  0  0  0  0  0  0  0  0  0
  187.7140  178.1980  137.0450 C   0  0  0  0  0  0  0  0  0  0  0  0
  187.5620  179.4330  136.8430 O   0  0  0  0  0  0  0  0  0  0  0  0
  186.5830  177.3510  137.2580 N   0  0  0  0  0  2  0  0  0  0  0  0
  189.0850  177.6220  137.0940 C   0  0  0  0  0  2  0  0  0  0  0  0
  189.9100  177.4880  139.5790 N   0  0  0  0  0  0  0  0  0  0  0  0
  189.5470  177.5480  138.4820 C   0  0  0  0  0  0  0  0  0  0  0  0
  179.8480  174.5470  139.2940 C   0  0  0  0  0  0  0  0  0  0  0  0
  180.1170  174.9990  140.6170 N   0  0  0  0  0  1  0  0  0  0  0  0
  178.9730  173.6610  139.1090 O   0  0  0  0  0  0  0  0  0  0  0  0
  181.2780  179.4580  140.6960 C   0  0  0  0  0  2  0  0  0  0  0  0
  181.6690  178.4300  141.6490 N   0  0  0  0  0  2  0  0  0  0  0  0
  185.1680  178.7500  143.2560 C   0  0  0  0  0  2  0  0  0  0  0  0
  184.1420  178.2570  142.2370 C   0  0  0  0  0  2  0  0  0  0  0  0
  182.3880  179.0030  143.8390 C   0  0  0  0  0  3  0  0  0  0  0  0
  182.7170  178.6190  142.6000 C   0  0  0  0  0  0  0  0  0  0  0  0
  183.4110  179.2560  144.9100 C   0  0  0  0  0  2  0  0  0  0  0  0
  184.6850  178.4460  144.6710 C   0  0  2  0  0  3  0  0  0  0  0  0
  185.1720  178.9880  146.9560 O   0  0  0  0  0  1  0  0  0  0  0  0
  185.7540  178.8120  145.7000 C   0  0  1  0  0  3  0  0  0  0  0  0
  186.8000  177.7140  145.7990 C   0  0  0  0  0  1  0  0  0  0  0  0
  1  8  1  0  0  0  0
  2 14  1  0  0  0  0
  2  6  1  0  0  0  0
  3 26  1  0  0  0  0
  4 19  1  1  0  0  0
  4  1  1  0  0  0  0
  5  8  1  0  0  0  0
  6 23  1  0  0  0  0
  7  6  2  0  0  0  0
  9 10  1  0  0  0  0
  9  4  1  0  0  0  0
 11  7  1  0  0  0  0
 12 11  1  0  0  0  0
 12  2  2  0  0  0  0
 13 10  1  0  0  0  0
 13 11  1  0  0  0  0
 14 15  1  0  0  0  0
 15  3  1  0  0  0  0
 16  5  1  0  0  0  0
 16  3  2  0  0  0  0
 17 20  1  0  0  0  0
 17 19  1  0  0  0  0
 18 17  2  0  0  0  0
 20 22  1  0  0  0  0
 22 21  3  0  0  0  0
 23 24  1  0  0  0  0
 25 23  2  0  0  0  0
 26 27  1  0  0  0  0
 27 31  1  0  0  0  0
 28 33  1  0  0  0  0
 29 31  1  0  0  0  0
 29 28  1  0  0  0  0
 30 32  1  0  0  0  0
 31 30  2  0  0  0  0
 33 32  1  0  0  0  0
 33 35  1  1  0  0  0
 35 36  1  1  0  0  0
 35 34  1  0  0  0  0
M  END
>  <MODEL>
9

>  <REMARK>
 VINA RESULT:      -6.6      2.820      4.755
  Name = 
  8 active torsions:
  status: ('A' for Active; 'I' for Inactive)
    1  A    between atoms: C_4  and  C_19
    2  A    between atoms: C_6  and  C_34
    3  A    between atoms: C_7  and  N_24
    4  A    between atoms: C_8  and  C_32
    5  A    between atoms: C_10  and  C_13
    6  A    between atoms: C_19  and  C_33
    7  A    between atoms: N_25  and  C_28
    8  A    between atoms: N_25  and  C_34
                            x       y       z     vdW  Elec       q    Type
                         _______ _______ _______ _____ _____    ______ ____

>  <TORSDO>
F 8

$$$$
