=
 OpenBabel10222419263D

 64 71  0  0  1  0  0  0  0  0999 V2000
  191.2190  175.6580  138.4450 C   0  0  2  0  0  3  0  0  0  0  0  0
  190.7020  174.2970  135.9640 C   0  0  0  0  0  3  0  0  0  0  0  0
  193.0700  174.6180  135.2990 C   0  0  0  0  0  3  0  0  0  0  0  0
  193.6550  175.8160  137.7380 C   0  0  0  0  0  0  0  0  0  0  0  0
  194.3580  175.0710  135.5920 C   0  0  0  0  0  3  0  0  0  0  0  0
  192.0640  174.7630  136.2520 C   0  0  0  0  0  0  0  0  0  0  0  0
  194.6190  175.6490  136.7940 N   0  0  0  0  0  0  0  0  0  0  0  0
  189.7790  174.3180  136.9250 C   0  0  0  0  0  0  0  0  0  0  0  0
  193.9400  176.3740  138.8280 O   0  0  0  0  0  0  0  0  0  0  0  0
  192.3480  175.3720  137.4860 C   0  0  2  0  0  3  0  0  0  0  0  0
  190.1090  174.7830  138.2090 O   0  0  0  0  0  0  0  0  0  0  0  0
  186.2890  174.2080  135.6060 C   0  0  1  0  0  3  0  0  0  0  0  0
  185.1850  172.3360  134.6000 O   0  0  0  0  0  1  0  0  0  0  0  0
  188.4450  172.4930  135.9550 C   0  0  0  0  0  3  0  0  0  0  0  0
  187.5090  172.1100  135.0700 C   0  0  0  0  0  3  0  0  0  0  0  0
  186.3970  173.0350  134.6350 C   0  0  2  0  0  3  0  0  0  0  0  0
  185.4300  176.5990  137.0900 C   0  0  0  0  0  2  0  0  0  0  0  0
  186.6450  176.0920  137.5750 O   0  0  0  0  0  0  0  0  0  0  0  0
  187.6220  174.8140  135.8040 N   0  0  2  0  0  0  0  0  0  0  0  0
  185.3300  175.1400  135.1880 O   0  0  0  0  0  0  0  0  0  0  0  0
  184.6680  175.4820  136.3720 C   0  0  2  0  0  3  0  0  0  0  0  0
  188.3880  173.8530  136.6210 C   0  0  2  0  0  3  0  0  0  0  0  0
  187.5310  176.1230  136.4850 C   0  0  0  0  0  2  0  0  0  0  0  0
  183.1750  175.7370  136.1080 C   0  0  2  0  0  3  0  0  0  0  0  0
  182.7440  175.4830  134.6540 C   0  0  0  0  0  1  0  0  0  0  0  0
  182.1130  177.7140  135.6070 O   0  0  0  0  0  1  0  0  0  0  0  0
  182.8390  177.0910  136.5700 N   0  0  0  0  0  0  0  0  0  0  0  0
  180.5580  176.3580  137.7270 O   0  0  0  0  0  0  0  0  0  0  0  0
  182.5900  176.3100  139.1120 O   0  0  0  0  0  0  0  0  0  0  0  0
  181.8660  177.0480  138.0140 S   0  0  0  0  0  0  0  0  0  0  0  0
  182.1830  179.0110  139.8770 C   0  0  0  0  0  2  0  0  0  0  0  0
  181.2180  179.6490  140.7700 N   0  0  0  0  0  2  0  0  0  0  0  0
  179.7690  179.0400  138.6440 S   0  0  0  0  0  0  0  0  0  0  0  0
  178.9360  180.4870  140.7890 C   0  0  0  0  0  1  0  0  0  0  0  0
  180.1670  180.2230  139.9440 C   0  0  1  0  0  3  0  0  0  0  0  0
  181.5450  178.7270  138.5230 C   0  0  2  0  0  3  0  0  0  0  0  0
  190.7950  177.0400  138.2670 N   0  0  0  0  0  2  0  0  0  0  0  0
  187.3760  179.1030  141.1440 F   0  0  0  0  0  0  0  0  0  0  0  0
  188.4160  178.2130  140.9510 C   0  0  2  0  0  0  0  0  0  0  0  0
  188.9310  177.9580  139.5370 C   0  0  2  0  0  3  0  0  0  0  0  0
  191.6890  178.1860  142.0320 C   0  0  0  0  0  1  0  0  0  0  0  0
  190.4070  177.5690  139.5660 C   0  0  1  0  0  3  0  0  0  0  0  0
  190.6360  176.5830  140.5460 O   0  0  0  0  0  0  0  0  0  0  0  0
  188.1570  177.0050  141.6280 O   0  0  0  0  0  0  0  0  0  0  0  0
  188.7700  179.1140  138.7720 O   0  0  0  0  0  1  0  0  0  0  0  0
  190.5740  177.1580  141.8420 C   0  0  2  0  0  0  0  0  0  0  0  0
  189.2000  177.8060  142.1460 C   0  0  1  0  0  3  0  0  0  0  0  0
  190.8070  176.0180  142.8390 C   0  0  0  0  0  2  0  0  0  0  0  0
  191.1770  176.4990  144.2370 C   0  0  0  0  0  2  0  0  0  0  0  0
  189.9720  176.3750  145.1470 C   0  0  0  0  0  2  0  0  0  0  0  0
  190.0860  177.3410  146.3170 C   0  0  2  0  0  3  0  0  0  0  0  0
  191.0880  175.3960  147.5330 O   0  0  0  0  0  0  0  0  0  0  0  0
  191.6600  177.5430  148.0910 O   0  0  0  0  0  1  0  0  0  0  0  0
  190.9880  176.7710  147.3580 C   0  0  0  0  0  0  0  0  0  0  0  0
  188.6080  178.7850  148.0440 O   0  0  0  0  0  0  0  0  0  0  0  0
  188.4760  177.6940  147.0170 S   0  0  0  0  0  0  0  0  0  0  0  0
  187.9440  176.4510  147.6740 O   0  0  0  0  0  0  0  0  0  0  0  0
  187.4060  178.2120  145.7510 N   0  0  0  0  0  2  0  0  0  0  0  0
  186.1160  179.8070  147.4540 O   0  0  0  0  0  1  0  0  0  0  0  0
  185.8650  178.7100  146.4410 P   0  0  2  0  0  0  0  0  0  0  0  0
  185.1260  177.4080  147.2320 O   0  0  0  0  0  0  0  0  0  0  0  0
  184.4840  178.2570  144.1100 C   0  0  0  0  0  2  0  0  0  0  0  0
  184.7370  179.3320  145.1510 C   0  0  0  0  0  3  0  0  0  0  0  0
  185.4630  179.3700  143.8190 C   0  0  0  0  0  2  0  0  0  0  0  0
  1 37  1  6  0  0  0
  2  6  1  0  0  0  0
  2  8  2  0  0  0  0
  3  5  1  0  0  0  0
  3  6  2  0  0  0  0
  4  9  2  0  0  0  0
  5  7  2  0  0  0  0
  7  4  1  0  0  0  0
  8 11  1  0  0  0  0
 10  6  1  6  0  0  0
 10  4  1  0  0  0  0
 10  1  1  0  0  0  0
 11  1  1  0  0  0  0
 12 20  1  6  0  0  0
 12 19  1  0  0  0  0
 14 22  1  0  0  0  0
 15 14  2  0  0  0  0
 16 13  1  1  0  0  0
 16 15  1  0  0  0  0
 16 12  1  0  0  0  0
 17 18  1  0  0  0  0
 19 23  1  1  0  0  0
 19 22  1  0  0  0  0
 20 21  1  0  0  0  0
 21 24  1  6  0  0  0
 21 17  1  0  0  0  0
 22  8  1  6  0  0  0
 23 18  1  0  0  0  0
 24 25  1  6  0  0  0
 24 27  1  0  0  0  0
 26 27  1  0  0  0  0
 27 30  1  0  0  0  0
 28 30  2  0  0  0  0
 30 29  2  0  0  0  0
 31 32  1  0  0  0  0
 33 35  1  0  0  0  0
 35 32  1  0  0  0  0
 35 34  1  1  0  0  0
 36 30  1  1  0  0  0
 36 33  1  0  0  0  0
 36 31  1  0  0  0  0
 39 38  1  1  0  0  0
 39 44  1  0  0  0  0
 39 47  1  0  0  0  0
 40 45  1  6  0  0  0
 40 42  1  0  0  0  0
 40 39  1  0  0  0  0
 42 37  1  6  0  0  0
 42 43  1  0  0  0  0
 43 46  1  0  0  0  0
 46 41  1  1  0  0  0
 46 47  1  0  0  0  0
 46 48  1  0  0  0  0
 47 44  1  6  0  0  0
 48 49  1  0  0  0  0
 49 50  1  0  0  0  0
 51 50  1  6  0  0  0
 51 56  1  0  0  0  0
 51 54  1  0  0  0  0
 54 52  2  0  0  0  0
 54 53  1  0  0  0  0
 56 57  2  0  0  0  0
 56 55  2  0  0  0  0
 58 60  1  0  0  0  0
 58 56  1  0  0  0  0
 60 61  2  1  0  0  0
 60 59  1  0  0  0  0
 62 63  1  0  0  0  0
 63 60  1  0  0  0  0
 64 62  1  0  0  0  0
 64 63  1  0  0  0  0
M  END
>  <MODEL>
1

>  <REMARK>
 VINA RESULT:      -7.6      0.000      0.000
  Name = 
  16 active torsions:
  status: ('A' for Active; 'I' for Inactive)
    1  A    between atoms: C_1  and  N_43
    2  A    between atoms: C_6  and  C_50
    3  A    between atoms: C_6  and  C_56
    4  A    between atoms: C_7  and  N_41
    5  A    between atoms: C_7  and  C_51
    6  A    between atoms: P_15  and  C_22
    7  A    between atoms: P_15  and  N_64
    8  A    between atoms: C_32  and  C_52
    9  A    between atoms: C_38  and  N_43
   10  A    between atoms: N_41  and  S_57
   11  A    between atoms: S_46  and  C_62
   12  A    between atoms: S_46  and  N_64
   13  A    between atoms: C_49  and  C_62
   14  A    between atoms: C_56  and  C_63
   15  A    between atoms: S_57  and  C_59
   16  A    between atoms: C_62  and  C_63
                            x       y       z     vdW  Elec       q    Type
                         _______ _______ _______ _____ _____    ______ ____

>  <TORSDO>
F 16

$$$$
=
 OpenBabel10222419263D

 64 71  0  0  1  0  0  0  0  0999 V2000
  188.4040  178.3940  141.6250 C   0  0  2  0  0  3  0  0  0  0  0  0
  186.3230  178.1460  143.5970 C   0  0  0  0  0  3  0  0  0  0  0  0
  187.9900  177.3400  145.2470 C   0  0  0  0  0  3  0  0  0  0  0  0
  190.0570  177.6930  143.4240 C   0  0  0  0  0  0  0  0  0  0  0  0
  189.3120  177.0420  145.5860 C   0  0  0  0  0  3  0  0  0  0  0  0
  187.7070  177.8300  143.9750 C   0  0  0  0  0  0  0  0  0  0  0  0
  190.3050  177.2280  144.6760 N   0  0  0  0  0  0  0  0  0  0  0  0
  186.0760  178.7370  142.4290 C   0  0  0  0  0  0  0  0  0  0  0  0
  191.0060  177.8310  142.6100 O   0  0  0  0  0  0  0  0  0  0  0  0
  188.7440  178.0070  143.0430 C   0  0  2  0  0  3  0  0  0  0  0  0
  187.1350  179.0580  141.5630 O   0  0  0  0  0  0  0  0  0  0  0  0
  182.6890  178.4790  140.8820 C   0  0  1  0  0  3  0  0  0  0  0  0
  180.5850  178.9360  141.9320 O   0  0  0  0  0  1  0  0  0  0  0  0
  183.8310  179.2460  143.2950 C   0  0  0  0  0  3  0  0  0  0  0  0
  182.5210  178.9440  143.3180 C   0  0  0  0  0  3  0  0  0  0  0  0
  181.8260  178.3200  142.1310 C   0  0  2  0  0  3  0  0  0  0  0  0
  183.7130  178.5420  138.1250 C   0  0  0  0  0  2  0  0  0  0  0  0
  184.6840  178.9530  139.0510 O   0  0  0  0  0  0  0  0  0  0  0  0
  184.0640  178.0210  141.1660 N   0  0  2  0  0  0  0  0  0  0  0  0
  182.1220  177.8340  139.7750 O   0  0  0  0  0  0  0  0  0  0  0  0
  182.3210  178.7410  138.7290 C   0  0  2  0  0  3  0  0  0  0  0  0
  184.6620  179.0460  142.0440 C   0  0  2  0  0  3  0  0  0  0  0  0
  184.8560  177.8680  139.9270 C   0  0  0  0  0  2  0  0  0  0  0  0
  181.1400  178.7060  137.7460 C   0  0  2  0  0  3  0  0  0  0  0  0
  181.5270  179.0120  136.2900 C   0  0  0  0  0  1  0  0  0  0  0  0
  179.5010  179.0100  139.3300 O   0  0  0  0  0  1  0  0  0  0  0  0
  180.0820  179.5930  138.2500 N   0  0  0  0  0  0  0  0  0  0  0  0
  180.4160  181.3460  140.2230 O   0  0  0  0  0  0  0  0  0  0  0  0
  182.2220  181.1600  138.5650 O   0  0  0  0  0  0  0  0  0  0  0  0
  180.7280  181.1260  138.7660 S   0  0  0  0  0  0  0  0  0  0  0  0
  181.0090  183.2720  137.1110 C   0  0  0  0  0  2  0  0  0  0  0  0
  180.7270  184.6910  137.3240 N   0  0  0  0  0  2  0  0  0  0  0  0
  178.9310  183.4780  138.8380 S   0  0  0  0  0  0  0  0  0  0  0  0
  179.0790  186.1490  138.3550 C   0  0  0  0  0  1  0  0  0  0  0  0
  179.3240  184.8080  137.6890 C   0  0  1  0  0  3  0  0  0  0  0  0
  179.9580  182.4130  137.8000 C   0  0  2  0  0  3  0  0  0  0  0  0
  188.3610  177.1890  140.8100 N   0  0  0  0  0  2  0  0  0  0  0  0
  191.7460  176.8410  137.2540 F   0  0  0  0  0  0  0  0  0  0  0  0
  190.4270  176.8780  137.6690 C   0  0  2  0  0  0  0  0  0  0  0  0
  190.1080  176.8000  139.1580 C   0  0  2  0  0  3  0  0  0  0  0  0
  187.9620  179.2690  137.3750 C   0  0  0  0  0  1  0  0  0  0  0  0
  188.8030  177.5290  139.4660 C   0  0  1  0  0  3  0  0  0  0  0  0
  187.8020  177.1520  138.5490 O   0  0  0  0  0  0  0  0  0  0  0  0
  189.6570  175.9590  136.9290 O   0  0  0  0  0  0  0  0  0  0  0  0
  191.1480  177.3820  139.8850 O   0  0  0  0  0  1  0  0  0  0  0  0
  188.0470  177.7460  137.2840 C   0  0  2  0  0  0  0  0  0  0  0  0
  189.4120  177.3280  136.6800 C   0  0  1  0  0  3  0  0  0  0  0  0
  186.9330  177.2650  136.3490 C   0  0  0  0  0  2  0  0  0  0  0  0
  186.5420  175.8080  136.5700 C   0  0  0  0  0  2  0  0  0  0  0  0
  185.0340  175.6750  136.4940 C   0  0  0  0  0  2  0  0  0  0  0  0
  184.5780  174.3900  137.1680 C   0  0  2  0  0  3  0  0  0  0  0  0
  186.2620  172.5910  137.6040 O   0  0  0  0  0  1  0  0  0  0  0  0
  185.3840  172.8870  135.5080 O   0  0  0  0  0  0  0  0  0  0  0  0
  185.4230  173.2500  136.7130 C   0  0  0  0  0  0  0  0  0  0  0  0
  182.5670  172.6030  137.0520 O   0  0  0  0  0  0  0  0  0  0  0  0
  182.8530  174.0610  136.8200 S   0  0  0  0  0  0  0  0  0  0  0  0
  182.5680  174.4040  135.3840 O   0  0  0  0  0  0  0  0  0  0  0  0
  181.8650  175.0230  137.8770 N   0  0  0  0  0  2  0  0  0  0  0  0
  179.9380  173.4020  137.0000 O   0  0  0  0  0  1  0  0  0  0  0  0
  180.1690  174.8300  137.4460 P   0  0  2  0  0  0  0  0  0  0  0  0
  179.7670  175.8640  136.1660 O   0  0  0  0  0  0  0  0  0  0  0  0
  179.9120  175.4230  140.1160 C   0  0  0  0  0  2  0  0  0  0  0  0
  179.0840  175.1980  138.8640 C   0  0  0  0  0  3  0  0  0  0  0  0
  179.2160  174.0990  139.9010 C   0  0  0  0  0  2  0  0  0  0  0  0
  1 37  1  6  0  0  0
  1 10  1  0  0  0  0
  2  6  1  0  0  0  0
  3  5  1  0  0  0  0
  4  7  1  0  0  0  0
  6  3  2  0  0  0  0
  7  5  2  0  0  0  0
  8  2  2  0  0  0  0
  9  4  2  0  0  0  0
 10  4  1  6  0  0  0
 10  6  1  0  0  0  0
 11  1  1  0  0  0  0
 11  8  1  0  0  0  0
 12 20  1  6  0  0  0
 12 19  1  0  0  0  0
 12 16  1  0  0  0  0
 14 15  2  0  0  0  0
 16 13  1  6  0  0  0
 16 15  1  0  0  0  0
 17 21  1  0  0  0  0
 17 18  1  0  0  0  0
 18 23  1  0  0  0  0
 19 23  1  6  0  0  0
 19 22  1  0  0  0  0
 21 24  1  6  0  0  0
 21 20  1  0  0  0  0
 22  8  1  1  0  0  0
 22 14  1  0  0  0  0
 24 25  1  6  0  0  0
 24 27  1  0  0  0  0
 27 30  1  0  0  0  0
 27 26  1  0  0  0  0
 29 30  2  0  0  0  0
 30 28  2  0  0  0  0
 31 32  1  0  0  0  0
 31 36  1  0  0  0  0
 32 35  1  0  0  0  0
 35 34  1  1  0  0  0
 35 33  1  0  0  0  0
 36 30  1  1  0  0  0
 36 33  1  0  0  0  0
 39 38  1  6  0  0  0
 39 40  1  0  0  0  0
 40 42  1  0  0  0  0
 40 45  1  1  0  0  0
 42 37  1  1  0  0  0
 43 42  1  0  0  0  0
 44 39  1  0  0  0  0
 46 41  1  1  0  0  0
 46 43  1  0  0  0  0
 47 44  1  6  0  0  0
 47 46  1  0  0  0  0
 47 39  1  0  0  0  0
 48 49  1  0  0  0  0
 48 46  1  0  0  0  0
 50 49  1  0  0  0  0
 51 50  1  6  0  0  0
 53 54  2  0  0  0  0
 54 51  1  0  0  0  0
 54 52  1  0  0  0  0
 56 55  2  0  0  0  0
 56 51  1  0  0  0  0
 56 58  1  0  0  0  0
 57 56  2  0  0  0  0
 59 60  1  0  0  0  0
 60 61  2  6  0  0  0
 60 58  1  0  0  0  0
 60 63  1  0  0  0  0
 63 64  1  0  0  0  0
 63 62  1  0  0  0  0
 64 62  1  0  0  0  0
M  END
>  <MODEL>
2

>  <REMARK>
 VINA RESULT:      -7.0      3.759      8.157
  Name = 
  16 active torsions:
  status: ('A' for Active; 'I' for Inactive)
    1  A    between atoms: C_1  and  N_43
    2  A    between atoms: C_6  and  C_50
    3  A    between atoms: C_6  and  C_56
    4  A    between atoms: C_7  and  N_41
    5  A    between atoms: C_7  and  C_51
    6  A    between atoms: P_15  and  C_22
    7  A    between atoms: P_15  and  N_64
    8  A    between atoms: C_32  and  C_52
    9  A    between atoms: C_38  and  N_43
   10  A    between atoms: N_41  and  S_57
   11  A    between atoms: S_46  and  C_62
   12  A    between atoms: S_46  and  N_64
   13  A    between atoms: C_49  and  C_62
   14  A    between atoms: C_56  and  C_63
   15  A    between atoms: S_57  and  C_59
   16  A    between atoms: C_62  and  C_63
                            x       y       z     vdW  Elec       q    Type
                         _______ _______ _______ _____ _____    ______ ____

>  <TORSDO>
F 16

$$$$
=
 OpenBabel10222419263D

 64 71  0  0  1  0  0  0  0  0999 V2000
  188.6860  178.2490  143.7010 C   0  0  2  0  0  3  0  0  0  0  0  0
  186.2920  178.0540  145.2840 C   0  0  0  0  0  3  0  0  0  0  0  0
  187.6160  177.1200  147.1620 C   0  0  0  0  0  3  0  0  0  0  0  0
  189.9760  177.4170  145.7260 C   0  0  0  0  0  0  0  0  0  0  0  0
  188.8460  176.7460  147.7080 C   0  0  0  0  0  3  0  0  0  0  0  0
  187.5750  177.6580  145.8780 C   0  0  0  0  0  0  0  0  0  0  0  0
  189.9870  176.9070  146.9860 N   0  0  0  0  0  0  0  0  0  0  0  0
  186.2740  178.6880  144.1130 C   0  0  0  0  0  0  0  0  0  0  0  0
  191.0550  177.5290  145.0890 O   0  0  0  0  0  0  0  0  0  0  0  0
  188.7620  177.8080  145.1410 C   0  0  2  0  0  3  0  0  0  0  0  0
  187.4790  178.9780  143.4490 O   0  0  0  0  0  0  0  0  0  0  0  0
  183.2360  178.6960  141.9450 C   0  0  1  0  0  3  0  0  0  0  0  0
  180.9770  179.1070  142.6260 O   0  0  0  0  0  1  0  0  0  0  0  0
  183.9120  179.1750  144.5950 C   0  0  0  0  0  3  0  0  0  0  0  0
  182.6180  178.9130  144.3420 C   0  0  0  0  0  3  0  0  0  0  0  0
  182.1510  178.4360  142.9870 C   0  0  2  0  0  3  0  0  0  0  0  0
  184.7620  179.0080  139.4490 C   0  0  0  0  0  2  0  0  0  0  0  0
  185.5450  179.2920  140.5780 O   0  0  0  0  0  0  0  0  0  0  0  0
  184.5280  178.1670  142.4280 N   0  0  2  0  0  0  0  0  0  0  0  0
  182.8810  178.1840  140.6890 O   0  0  0  0  0  0  0  0  0  0  0  0
  183.2830  179.1870  139.8000 C   0  0  2  0  0  3  0  0  0  0  0  0
  184.9610  179.0780  143.5060 C   0  0  2  0  0  3  0  0  0  0  0  0
  185.5370  178.1180  141.3490 C   0  0  0  0  0  2  0  0  0  0  0  0
  182.3080  179.2900  138.6170 C   0  0  2  0  0  3  0  0  0  0  0  0
  181.3650  180.5020  138.6850 C   0  0  0  0  0  1  0  0  0  0  0  0
  180.3070  178.1960  138.9110 O   0  0  0  0  0  1  0  0  0  0  0  0
  181.5860  178.0170  138.4900 N   0  0  0  0  0  0  0  0  0  0  0  0
  180.0970  177.5100  136.3440 O   0  0  0  0  0  0  0  0  0  0  0  0
  182.3670  178.3760  135.9620 O   0  0  0  0  0  0  0  0  0  0  0  0
  181.5220  177.4820  136.8340 S   0  0  0  0  0  0  0  0  0  0  0  0
  182.2710  175.2230  138.1590 C   0  0  0  0  0  2  0  0  0  0  0  0
  183.5830  174.5990  138.3240 N   0  0  0  0  0  2  0  0  0  0  0  0
  183.7480  175.7440  135.9470 S   0  0  0  0  0  0  0  0  0  0  0  0
  185.6080  174.1120  137.0720 C   0  0  0  0  0  1  0  0  0  0  0  0
  184.1090  174.3250  136.9960 C   0  0  1  0  0  3  0  0  0  0  0  0
  182.1350  175.8090  136.7610 C   0  0  2  0  0  3  0  0  0  0  0  0
  188.7280  177.0700  142.8480 N   0  0  0  0  0  2  0  0  0  0  0  0
  192.7840  177.4650  140.0890 F   0  0  0  0  0  0  0  0  0  0  0  0
  191.4430  177.1590  140.2300 C   0  0  2  0  0  0  0  0  0  0  0  0
  190.8350  177.0840  141.6270 C   0  0  2  0  0  3  0  0  0  0  0  0
  188.5700  178.7510  139.1820 C   0  0  0  0  0  1  0  0  0  0  0  0
  189.3510  177.4400  141.5860 C   0  0  1  0  0  3  0  0  0  0  0  0
  188.7090  176.7460  140.5410 O   0  0  0  0  0  0  0  0  0  0  0  0
  191.1190  176.0210  139.4670 O   0  0  0  0  0  0  0  0  0  0  0  0
  191.5020  177.9740  142.4700 O   0  0  0  0  0  1  0  0  0  0  0  0
  189.0650  177.3080  139.2880 C   0  0  2  0  0  0  0  0  0  0  0  0
  190.5900  177.2510  139.0170 C   0  0  1  0  0  3  0  0  0  0  0  0
  188.3470  176.4820  138.2170 C   0  0  0  0  0  2  0  0  0  0  0  0
  188.1530  177.2290  136.9020 C   0  0  0  0  0  2  0  0  0  0  0  0
  189.4810  177.3240  136.1770 C   0  0  0  0  0  2  0  0  0  0  0  0
  189.6020  176.2200  135.1380 C   0  0  2  0  0  3  0  0  0  0  0  0
  187.1750  176.5870  134.6440 O   0  0  0  0  0  1  0  0  0  0  0  0
  188.0700  174.4780  134.6030 O   0  0  0  0  0  0  0  0  0  0  0  0
  188.2470  175.7110  134.7780 C   0  0  0  0  0  0  0  0  0  0  0  0
  190.9680  173.9620  134.6000 O   0  0  0  0  0  0  0  0  0  0  0  0
  190.6270  174.8820  135.7410 S   0  0  0  0  0  0  0  0  0  0  0  0
  189.8670  174.1160  136.7880 O   0  0  0  0  0  0  0  0  0  0  0  0
  192.0860  175.5410  136.4140 N   0  0  0  0  0  2  0  0  0  0  0  0
  194.1680  174.4180  135.1840 O   0  0  0  0  0  0  0  0  0  0  0  0
  193.3390  174.3040  136.4460 P   0  0  2  0  0  0  0  0  0  0  0  0
  192.6410  172.7610  136.4920 O   0  0  0  0  0  1  0  0  0  0  0  0
  195.8780  174.3520  137.4920 C   0  0  0  0  0  2  0  0  0  0  0  0
  194.4230  174.5040  137.8970 C   0  0  0  0  0  3  0  0  0  0  0  0
  195.1590  173.2040  138.1610 C   0  0  0  0  0  2  0  0  0  0  0  0
  1 37  1  6  0  0  0
  1 10  1  0  0  0  0
  2  6  1  0  0  0  0
  3  5  1  0  0  0  0
  4  7  1  0  0  0  0
  6  3  2  0  0  0  0
  7  5  2  0  0  0  0
  8  2  2  0  0  0  0
  9  4  2  0  0  0  0
 10  4  1  6  0  0  0
 10  6  1  0  0  0  0
 11  1  1  0  0  0  0
 11  8  1  0  0  0  0
 12 20  1  6  0  0  0
 12 19  1  0  0  0  0
 12 16  1  0  0  0  0
 15 14  2  0  0  0  0
 16 13  1  6  0  0  0
 16 15  1  0  0  0  0
 17 21  1  0  0  0  0
 17 18  1  0  0  0  0
 18 23  1  0  0  0  0
 19 23  1  6  0  0  0
 19 22  1  0  0  0  0
 21 24  1  6  0  0  0
 21 20  1  0  0  0  0
 22  8  1  1  0  0  0
 22 14  1  0  0  0  0
 24 25  1  1  0  0  0
 27 24  1  0  0  0  0
 27 26  1  0  0  0  0
 28 30  2  0  0  0  0
 29 30  2  0  0  0  0
 30 27  1  0  0  0  0
 31 32  1  0  0  0  0
 33 36  1  0  0  0  0
 33 35  1  0  0  0  0
 35 34  1  1  0  0  0
 35 32  1  0  0  0  0
 36 30  1  1  0  0  0
 36 31  1  0  0  0  0
 39 38  1  6  0  0  0
 39 40  1  0  0  0  0
 40 45  1  1  0  0  0
 42 40  1  0  0  0  0
 42 37  1  1  0  0  0
 43 42  1  0  0  0  0
 44 39  1  0  0  0  0
 46 41  1  6  0  0  0
 46 43  1  0  0  0  0
 47 46  1  0  0  0  0
 47 44  1  6  0  0  0
 47 39  1  0  0  0  0
 48 46  1  0  0  0  0
 49 48  1  0  0  0  0
 50 49  1  0  0  0  0
 51 56  1  0  0  0  0
 51 50  1  1  0  0  0
 52 54  1  0  0  0  0
 53 54  2  0  0  0  0
 54 51  1  0  0  0  0
 55 56  2  0  0  0  0
 56 58  1  0  0  0  0
 56 57  2  0  0  0  0
 58 60  1  0  0  0  0
 60 59  2  6  0  0  0
 60 61  1  0  0  0  0
 60 63  1  0  0  0  0
 62 63  1  0  0  0  0
 62 64  1  0  0  0  0
 63 64  1  0  0  0  0
M  END
>  <MODEL>
3

>  <REMARK>
 VINA RESULT:      -6.7      3.337      8.937
  Name = 
  16 active torsions:
  status: ('A' for Active; 'I' for Inactive)
    1  A    between atoms: C_1  and  N_43
    2  A    between atoms: C_6  and  C_50
    3  A    between atoms: C_6  and  C_56
    4  A    between atoms: C_7  and  N_41
    5  A    between atoms: C_7  and  C_51
    6  A    between atoms: P_15  and  C_22
    7  A    between atoms: P_15  and  N_64
    8  A    between atoms: C_32  and  C_52
    9  A    between atoms: C_38  and  N_43
   10  A    between atoms: N_41  and  S_57
   11  A    between atoms: S_46  and  C_62
   12  A    between atoms: S_46  and  N_64
   13  A    between atoms: C_49  and  C_62
   14  A    between atoms: C_56  and  C_63
   15  A    between atoms: S_57  and  C_59
   16  A    between atoms: C_62  and  C_63
                            x       y       z     vdW  Elec       q    Type
                         _______ _______ _______ _____ _____    ______ ____

>  <TORSDO>
F 16

$$$$
=
 OpenBabel10222419263D

 64 71  0  0  1  0  0  0  0  0999 V2000
  189.0310  178.0210  141.3810 C   0  0  2  0  0  3  0  0  0  0  0  0
  187.5390  178.1490  143.8380 C   0  0  0  0  0  3  0  0  0  0  0  0
  189.5310  177.3530  145.0840 C   0  0  0  0  0  3  0  0  0  0  0  0
  191.0560  177.3450  142.7610 C   0  0  0  0  0  0  0  0  0  0  0  0
  190.8750  176.9700  145.1020 C   0  0  0  0  0  3  0  0  0  0  0  0
  188.9510  177.7460  143.8800 C   0  0  0  0  0  0  0  0  0  0  0  0
  191.6000  176.9790  143.9510 N   0  0  0  0  0  0  0  0  0  0  0  0
  187.0280  178.6480  142.7140 C   0  0  0  0  0  0  0  0  0  0  0  0
  191.7620  177.3190  141.7190 O   0  0  0  0  0  0  0  0  0  0  0  0
  189.7120  177.7400  142.6990 C   0  0  2  0  0  3  0  0  0  0  0  0
  187.8370  178.7880  141.5730 O   0  0  0  0  0  0  0  0  0  0  0  0
  183.4080  178.7610  141.8130 C   0  0  1  0  0  3  0  0  0  0  0  0
  181.5550  179.0050  143.3100 O   0  0  0  0  0  1  0  0  0  0  0  0
  185.0050  178.9840  144.0730 C   0  0  0  0  0  3  0  0  0  0  0  0
  183.7090  178.6980  144.2790 C   0  0  0  0  0  3  0  0  0  0  0  0
  182.7790  178.3480  143.1410 C   0  0  2  0  0  3  0  0  0  0  0  0
  183.9160  179.3980  138.9860 C   0  0  0  0  0  2  0  0  0  0  0  0
  185.0580  179.5930  139.7780 O   0  0  0  0  0  0  0  0  0  0  0  0
  184.7870  178.2380  141.7310 N   0  0  2  0  0  0  0  0  0  0  0  0
  182.6180  178.3710  140.7220 O   0  0  0  0  0  0  0  0  0  0  0  0
  182.6690  179.4790  139.8690 C   0  0  2  0  0  3  0  0  0  0  0  0
  185.5850  179.0460  142.6740 C   0  0  2  0  0  3  0  0  0  0  0  0
  185.3320  178.3440  140.3610 C   0  0  0  0  0  2  0  0  0  0  0  0
  181.3280  179.6660  139.1400 C   0  0  2  0  0  3  0  0  0  0  0  0
  180.2860  180.4630  139.9400 C   0  0  0  0  0  1  0  0  0  0  0  0
  179.5120  178.2610  139.0220 O   0  0  0  0  0  1  0  0  0  0  0  0
  180.8330  178.3480  138.7190 N   0  0  0  0  0  0  0  0  0  0  0  0
  179.7970  177.3770  136.4690 O   0  0  0  0  0  0  0  0  0  0  0  0
  181.0890  179.4630  136.3060 O   0  0  0  0  0  0  0  0  0  0  0  0
  180.9910  178.1270  136.9980 S   0  0  0  0  0  0  0  0  0  0  0  0
  182.4130  176.5280  135.3120 C   0  0  0  0  0  2  0  0  0  0  0  0
  182.7630  175.1110  135.4010 N   0  0  0  0  0  2  0  0  0  0  0  0
  182.6750  175.8770  137.9300 S   0  0  0  0  0  0  0  0  0  0  0  0
  183.4850  173.4480  137.0190 C   0  0  0  0  0  1  0  0  0  0  0  0
  183.4930  174.9170  136.6440 C   0  0  1  0  0  3  0  0  0  0  0  0
  182.4680  177.1760  136.6890 C   0  0  2  0  0  3  0  0  0  0  0  0
  188.6980  176.7530  140.7480 N   0  0  0  0  0  2  0  0  0  0  0  0
  189.5260  179.5770  136.8040 F   0  0  0  0  0  0  0  0  0  0  0  0
  189.4350  178.3350  137.4030 C   0  0  2  0  0  0  0  0  0  0  0  0
  189.3070  178.2430  138.9210 C   0  0  2  0  0  3  0  0  0  0  0  0
  187.1130  175.7980  137.1620 C   0  0  0  0  0  1  0  0  0  0  0  0
  188.5450  176.9820  139.3200 C   0  0  1  0  0  3  0  0  0  0  0  0
  189.0480  175.8640  138.6240 O   0  0  0  0  0  0  0  0  0  0  0  0
  190.4490  177.4850  136.9210 O   0  0  0  0  0  0  0  0  0  0  0  0
  188.6280  179.3660  139.3960 O   0  0  0  0  0  1  0  0  0  0  0  0
  188.6340  175.9040  137.2670 C   0  0  2  0  0  0  0  0  0  0  0  0
  189.1290  177.1740  136.5280 C   0  0  1  0  0  3  0  0  0  0  0  0
  189.2430  174.6750  136.5860 C   0  0  0  0  0  2  0  0  0  0  0  0
  190.5110  174.1690  137.2640 C   0  0  0  0  0  2  0  0  0  0  0  0
  191.6450  174.1460  136.2590 C   0  0  0  0  0  2  0  0  0  0  0  0
  192.9610  174.5080  136.9300 C   0  0  2  0  0  3  0  0  0  0  0  0
  193.3680  176.3410  135.2740 O   0  0  0  0  0  0  0  0  0  0  0  0
  193.6190  176.7180  137.5200 O   0  0  0  0  0  1  0  0  0  0  0  0
  193.3300  175.9130  136.5960 C   0  0  0  0  0  0  0  0  0  0  0  0
  193.7640  172.5010  135.3240 O   0  0  0  0  0  0  0  0  0  0  0  0
  194.2650  173.3880  136.4300 S   0  0  0  0  0  0  0  0  0  0  0  0
  194.6620  172.5420  137.6080 O   0  0  0  0  0  0  0  0  0  0  0  0
  195.6230  174.3110  135.8660 N   0  0  0  0  0  2  0  0  0  0  0  0
  196.1760  174.7870  138.4320 O   0  0  0  0  0  1  0  0  0  0  0  0
  196.8460  174.4040  137.1300 P   0  0  2  0  0  0  0  0  0  0  0  0
  197.9960  175.5890  136.7500 O   0  0  0  0  0  0  0  0  0  0  0  0
  199.1400  172.9120  136.8850 C   0  0  0  0  0  2  0  0  0  0  0  0
  197.6960  172.8050  137.3410 C   0  0  0  0  0  3  0  0  0  0  0  0
  198.1120  172.2700  135.9840 C   0  0  0  0  0  2  0  0  0  0  0  0
  1 37  1  1  0  0  0
  1 11  1  0  0  0  0
  1 10  1  0  0  0  0
  2  6  1  0  0  0  0
  3  5  1  0  0  0  0
  4  7  1  0  0  0  0
  6  3  2  0  0  0  0
  7  5  2  0  0  0  0
  8  2  2  0  0  0  0
  9  4  2  0  0  0  0
 10  4  1  6  0  0  0
 10  6  1  0  0  0  0
 11  8  1  0  0  0  0
 12 20  1  6  0  0  0
 12 16  1  0  0  0  0
 14 15  2  0  0  0  0
 16 13  1  1  0  0  0
 16 15  1  0  0  0  0
 17 18  1  0  0  0  0
 17 21  1  0  0  0  0
 18 23  1  0  0  0  0
 19 23  1  6  0  0  0
 19 12  1  0  0  0  0
 19 22  1  0  0  0  0
 21 24  1  6  0  0  0
 21 20  1  0  0  0  0
 22  8  1  1  0  0  0
 22 14  1  0  0  0  0
 24 25  1  1  0  0  0
 27 26  1  0  0  0  0
 27 24  1  0  0  0  0
 28 30  2  0  0  0  0
 29 30  2  0  0  0  0
 30 27  1  0  0  0  0
 31 32  1  0  0  0  0
 31 36  1  0  0  0  0
 32 35  1  0  0  0  0
 35 34  1  1  0  0  0
 35 33  1  0  0  0  0
 36 30  1  1  0  0  0
 36 33  1  0  0  0  0
 39 38  1  6  0  0  0
 39 40  1  0  0  0  0
 40 42  1  0  0  0  0
 40 45  1  6  0  0  0
 42 37  1  1  0  0  0
 43 42  1  0  0  0  0
 44 39  1  0  0  0  0
 46 41  1  6  0  0  0
 46 43  1  0  0  0  0
 47 44  1  1  0  0  0
 47 46  1  0  0  0  0
 47 39  1  0  0  0  0
 48 49  1  0  0  0  0
 48 46  1  0  0  0  0
 50 49  1  0  0  0  0
 51 50  1  6  0  0  0
 52 54  2  0  0  0  0
 54 51  1  0  0  0  0
 54 53  1  0  0  0  0
 55 56  2  0  0  0  0
 56 51  1  0  0  0  0
 56 57  2  0  0  0  0
 58 56  1  0  0  0  0
 58 60  1  0  0  0  0
 60 61  2  6  0  0  0
 60 63  1  0  0  0  0
 60 59  1  0  0  0  0
 62 63  1  0  0  0  0
 64 62  1  0  0  0  0
 64 63  1  0  0  0  0
M  END
>  <MODEL>
4

>  <REMARK>
 VINA RESULT:      -6.5      3.688      8.870
  Name = 
  16 active torsions:
  status: ('A' for Active; 'I' for Inactive)
    1  A    between atoms: C_1  and  N_43
    2  A    between atoms: C_6  and  C_50
    3  A    between atoms: C_6  and  C_56
    4  A    between atoms: C_7  and  N_41
    5  A    between atoms: C_7  and  C_51
    6  A    between atoms: P_15  and  C_22
    7  A    between atoms: P_15  and  N_64
    8  A    between atoms: C_32  and  C_52
    9  A    between atoms: C_38  and  N_43
   10  A    between atoms: N_41  and  S_57
   11  A    between atoms: S_46  and  C_62
   12  A    between atoms: S_46  and  N_64
   13  A    between atoms: C_49  and  C_62
   14  A    between atoms: C_56  and  C_63
   15  A    between atoms: S_57  and  C_59
   16  A    between atoms: C_62  and  C_63
                            x       y       z     vdW  Elec       q    Type
                         _______ _______ _______ _____ _____    ______ ____

>  <TORSDO>
F 16

$$$$
=
 OpenBabel10222419263D

 64 71  0  0  1  0  0  0  0  0999 V2000
  186.7950  177.4260  145.0050 C   0  0  2  0  0  3  0  0  0  0  0  0
  189.6640  177.5450  144.8180 C   0  0  0  0  0  3  0  0  0  0  0  0
  189.7880  178.1800  147.2130 C   0  0  0  0  0  3  0  0  0  0  0  0
  187.0320  177.9440  147.4820 C   0  0  0  0  0  0  0  0  0  0  0  0
  189.1570  178.4240  148.4350 C   0  0  0  0  0  3  0  0  0  0  0  0
  189.0210  177.8030  146.1130 C   0  0  0  0  0  0  0  0  0  0  0  0
  187.8080  178.2970  148.5410 N   0  0  0  0  0  0  0  0  0  0  0  0
  188.9430  177.0580  143.8090 C   0  0  0  0  0  0  0  0  0  0  0  0
  185.7860  177.8570  147.6230 O   0  0  0  0  0  0  0  0  0  0  0  0
  187.6260  177.6860  146.2370 C   0  0  2  0  0  3  0  0  0  0  0  0
  187.5740  176.7930  143.9830 O   0  0  0  0  0  0  0  0  0  0  0  0
  190.2140  177.5530  140.3350 C   0  0  1  0  0  3  0  0  0  0  0  0
  192.3480  176.8920  139.4710 O   0  0  0  0  0  1  0  0  0  0  0  0
  191.0370  176.3770  142.7120 C   0  0  0  0  0  3  0  0  0  0  0  0
  191.9980  176.6560  141.8140 C   0  0  0  0  0  3  0  0  0  0  0  0
  191.7190  177.4750  140.5760 C   0  0  2  0  0  3  0  0  0  0  0  0
  187.5380  177.9990  139.1950 C   0  0  0  0  0  2  0  0  0  0  0  0
  187.4710  177.4380  140.4800 O   0  0  0  0  0  0  0  0  0  0  0  0
  189.5310  177.9680  141.5760 N   0  0  2  0  0  0  0  0  0  0  0  0
  189.9060  178.3810  139.2470 O   0  0  0  0  0  0  0  0  0  0  0  0
  188.9000  177.6790  138.5740 C   0  0  2  0  0  3  0  0  0  0  0  0
  189.6020  176.8090  142.4870 C   0  0  2  0  0  3  0  0  0  0  0  0
  188.1250  178.3500  141.3260 C   0  0  0  0  0  2  0  0  0  0  0  0
  189.0200  177.8770  137.0550 C   0  0  2  0  0  3  0  0  0  0  0  0
  188.2430  179.0900  136.5170 C   0  0  0  0  0  1  0  0  0  0  0  0
  187.9820  176.9210  135.2390 O   0  0  0  0  0  1  0  0  0  0  0  0
  188.6470  176.6230  136.3860 N   0  0  0  0  0  0  0  0  0  0  0  0
  191.0050  176.5480  135.1560 O   0  0  0  0  0  0  0  0  0  0  0  0
  190.7490  175.1820  137.1850 O   0  0  0  0  0  0  0  0  0  0  0  0
  190.0520  175.6910  135.9490 S   0  0  0  0  0  0  0  0  0  0  0  0
  188.2980  173.6450  135.5500 C   0  0  0  0  0  2  0  0  0  0  0  0
  188.4880  172.1960  135.6040 N   0  0  0  0  0  2  0  0  0  0  0  0
  190.8370  173.0860  134.7810 S   0  0  0  0  0  0  0  0  0  0  0  0
  190.0880  170.4800  134.9690 C   0  0  0  0  0  1  0  0  0  0  0  0
  189.5300  171.8540  134.6490 C   0  0  1  0  0  3  0  0  0  0  0  0
  189.5230  174.3170  134.9430 C   0  0  2  0  0  3  0  0  0  0  0  0
  186.2840  178.6960  144.5090 N   0  0  0  0  0  2  0  0  0  0  0  0
  181.3690  178.8780  144.3400 F   0  0  0  0  0  0  0  0  0  0  0  0
  182.6060  179.0140  143.7360 C   0  0  2  0  0  0  0  0  0  0  0  0
  183.8670  178.9740  144.5930 C   0  0  2  0  0  3  0  0  0  0  0  0
  184.2710  177.1140  141.3900 C   0  0  0  0  0  1  0  0  0  0  0  0
  185.0480  178.4410  143.7870 C   0  0  1  0  0  3  0  0  0  0  0  0
  185.1140  179.0810  142.5320 O   0  0  0  0  0  0  0  0  0  0  0  0
  182.6070  180.1250  142.8710 O   0  0  0  0  0  0  0  0  0  0  0  0
  183.6490  178.1490  145.6980 O   0  0  0  0  0  1  0  0  0  0  0  0
  184.0830  178.6020  141.6830 C   0  0  2  0  0  0  0  0  0  0  0  0
  182.6670  178.8530  142.2590 C   0  0  1  0  0  3  0  0  0  0  0  0
  184.2140  179.3650  140.3610 C   0  0  0  0  0  2  0  0  0  0  0  0
  183.0680  179.1010  139.3910 C   0  0  0  0  0  2  0  0  0  0  0  0
  183.2940  177.7740  138.6940 C   0  0  0  0  0  2  0  0  0  0  0  0
  182.0290  177.3260  137.9780 C   0  0  2  0  0  3  0  0  0  0  0  0
  179.7170  177.9110  138.7390 O   0  0  0  0  0  0  0  0  0  0  0  0
  181.0360  176.5080  139.9800 O   0  0  0  0  0  1  0  0  0  0  0  0
  180.9050  177.2210  138.9520 C   0  0  0  0  0  0  0  0  0  0  0  0
  183.0700  175.9840  135.8880 O   0  0  0  0  0  0  0  0  0  0  0  0
  182.2820  175.7590  137.1500 S   0  0  0  0  0  0  0  0  0  0  0  0
  180.9440  175.1670  136.8040 O   0  0  0  0  0  0  0  0  0  0  0  0
  183.1590  174.6930  138.2030 N   0  0  0  0  0  2  0  0  0  0  0  0
  185.2770  173.0740  138.2730 O   0  0  0  0  0  1  0  0  0  0  0  0
  184.4730  173.9270  137.3150 P   0  0  2  0  0  0  0  0  0  0  0  0
  185.4980  175.1020  136.6530 O   0  0  0  0  0  0  0  0  0  0  0  0
  183.6200  171.4590  136.4650 C   0  0  0  0  0  2  0  0  0  0  0  0
  183.8330  172.8780  135.9700 C   0  0  0  0  0  3  0  0  0  0  0  0
  184.8450  171.7950  135.6480 C   0  0  0  0  0  2  0  0  0  0  0  0
  1 37  1  6  0  0  0
  1 10  1  0  0  0  0
  2  6  1  0  0  0  0
  3  5  1  0  0  0  0
  4  9  2  0  0  0  0
  4  7  1  0  0  0  0
  5  7  2  0  0  0  0
  6  3  2  0  0  0  0
  8 11  1  0  0  0  0
  8  2  2  0  0  0  0
 10  6  1  6  0  0  0
 10  4  1  0  0  0  0
 11  1  1  0  0  0  0
 12 20  1  6  0  0  0
 12 16  1  0  0  0  0
 12 19  1  0  0  0  0
 15 14  2  0  0  0  0
 16 13  1  6  0  0  0
 16 15  1  0  0  0  0
 17 18  1  0  0  0  0
 18 23  1  0  0  0  0
 19 23  1  6  0  0  0
 19 22  1  0  0  0  0
 21 24  1  6  0  0  0
 21 17  1  0  0  0  0
 21 20  1  0  0  0  0
 22 14  1  0  0  0  0
 22  8  1  1  0  0  0
 24 25  1  6  0  0  0
 26 27  1  0  0  0  0
 27 24  1  0  0  0  0
 28 30  2  0  0  0  0
 30 27  1  0  0  0  0
 30 29  2  0  0  0  0
 31 32  1  0  0  0  0
 33 36  1  0  0  0  0
 35 33  1  0  0  0  0
 35 34  1  1  0  0  0
 35 32  1  0  0  0  0
 36 31  1  0  0  0  0
 36 30  1  1  0  0  0
 39 38  1  1  0  0  0
 39 40  1  0  0  0  0
 40 45  1  1  0  0  0
 42 37  1  1  0  0  0
 42 40  1  0  0  0  0
 43 42  1  0  0  0  0
 44 39  1  0  0  0  0
 46 41  1  6  0  0  0
 46 47  1  0  0  0  0
 46 43  1  0  0  0  0
 47 44  1  6  0  0  0
 47 39  1  0  0  0  0
 48 46  1  0  0  0  0
 49 48  1  0  0  0  0
 50 49  1  0  0  0  0
 51 50  1  1  0  0  0
 51 54  1  0  0  0  0
 52 54  2  0  0  0  0
 54 53  1  0  0  0  0
 55 56  2  0  0  0  0
 56 51  1  0  0  0  0
 56 58  1  0  0  0  0
 57 56  2  0  0  0  0
 60 61  2  6  0  0  0
 60 58  1  0  0  0  0
 60 59  1  0  0  0  0
 63 62  1  0  0  0  0
 63 60  1  0  0  0  0
 64 63  1  0  0  0  0
 64 62  1  0  0  0  0
M  END
>  <MODEL>
5

>  <REMARK>
 VINA RESULT:      -6.0      3.345      9.734
  Name = 
  16 active torsions:
  status: ('A' for Active; 'I' for Inactive)
    1  A    between atoms: C_1  and  N_43
    2  A    between atoms: C_6  and  C_50
    3  A    between atoms: C_6  and  C_56
    4  A    between atoms: C_7  and  N_41
    5  A    between atoms: C_7  and  C_51
    6  A    between atoms: P_15  and  C_22
    7  A    between atoms: P_15  and  N_64
    8  A    between atoms: C_32  and  C_52
    9  A    between atoms: C_38  and  N_43
   10  A    between atoms: N_41  and  S_57
   11  A    between atoms: S_46  and  C_62
   12  A    between atoms: S_46  and  N_64
   13  A    between atoms: C_49  and  C_62
   14  A    between atoms: C_56  and  C_63
   15  A    between atoms: S_57  and  C_59
   16  A    between atoms: C_62  and  C_63
                            x       y       z     vdW  Elec       q    Type
                         _______ _______ _______ _____ _____    ______ ____

>  <TORSDO>
F 16

$$$$
=
 OpenBabel10222419263D

 64 71  0  0  1  0  0  0  0  0999 V2000
  186.3010  177.4740  144.5870 C   0  0  2  0  0  3  0  0  0  0  0  0
  189.1750  177.5830  144.6670 C   0  0  0  0  0  3  0  0  0  0  0  0
  189.0780  178.2680  147.0490 C   0  0  0  0  0  3  0  0  0  0  0  0
  186.3080  178.0430  147.0640 C   0  0  0  0  0  0  0  0  0  0  0  0
  188.3360  178.5400  148.2010 C   0  0  0  0  0  3  0  0  0  0  0  0
  188.4150  177.8700  145.8900 C   0  0  0  0  0  0  0  0  0  0  0  0
  186.9820  178.4170  148.1830 N   0  0  0  0  0  0  0  0  0  0  0  0
  188.5500  177.0770  143.6050 C   0  0  0  0  0  0  0  0  0  0  0  0
  185.0530  177.9620  147.0890 O   0  0  0  0  0  0  0  0  0  0  0  0
  187.0140  177.7580  145.8860 C   0  0  2  0  0  3  0  0  0  0  0  0
  187.1700  176.8180  143.6550 O   0  0  0  0  0  0  0  0  0  0  0  0
  190.1040  177.4790  140.2350 C   0  0  1  0  0  3  0  0  0  0  0  0
  192.3240  176.8550  139.5860 O   0  0  0  0  0  1  0  0  0  0  0  0
  190.7510  176.4230  142.7210 C   0  0  0  0  0  3  0  0  0  0  0  0
  191.7780  176.6980  141.8990 C   0  0  0  0  0  3  0  0  0  0  0  0
  191.5840  177.4600  140.6090 C   0  0  2  0  0  3  0  0  0  0  0  0
  187.5270  177.7920  138.8530 C   0  0  0  0  0  2  0  0  0  0  0  0
  187.3640  177.2800  140.1490 O   0  0  0  0  0  0  0  0  0  0  0  0
  189.3030  177.9190  141.3960 N   0  0  2  0  0  0  0  0  0  0  0  0
  189.8690  178.2540  139.0920 O   0  0  0  0  0  0  0  0  0  0  0  0
  188.9460  177.4940  138.3650 C   0  0  2  0  0  3  0  0  0  0  0  0
  189.3290  176.7980  142.3560 C   0  0  2  0  0  3  0  0  0  0  0  0
  187.9140  178.2450  141.0100 C   0  0  0  0  0  2  0  0  0  0  0  0
  189.1920  177.6370  136.8540 C   0  0  2  0  0  3  0  0  0  0  0  0
  188.6640  178.9500  136.2550 C   0  0  0  0  0  1  0  0  0  0  0  0
  188.2130  176.8110  134.9440 O   0  0  0  0  0  1  0  0  0  0  0  0
  188.6580  176.4480  136.1760 N   0  0  0  0  0  0  0  0  0  0  0  0
  189.7630  174.1800  137.0200 O   0  0  0  0  0  0  0  0  0  0  0  0
  189.7460  174.5910  134.5950 O   0  0  0  0  0  0  0  0  0  0  0  0
  189.8870  175.2350  135.9510 S   0  0  0  0  0  0  0  0  0  0  0  0
  192.0380  176.3520  134.7070 C   0  0  0  0  0  2  0  0  0  0  0  0
  193.4230  175.8980  134.5940 N   0  0  0  0  0  2  0  0  0  0  0  0
  192.6620  174.9540  136.9430 S   0  0  0  0  0  0  0  0  0  0  0  0
  195.1750  174.8510  135.9120 C   0  0  0  0  0  1  0  0  0  0  0  0
  193.9420  175.7330  135.9420 C   0  0  1  0  0  3  0  0  0  0  0  0
  191.4820  176.0210  136.0850 C   0  0  2  0  0  3  0  0  0  0  0  0
  185.8440  178.7340  144.0190 N   0  0  0  0  0  2  0  0  0  0  0  0
  180.9340  178.8000  143.6930 F   0  0  0  0  0  0  0  0  0  0  0  0
  182.1850  178.9900  143.1360 C   0  0  2  0  0  0  0  0  0  0  0  0
  183.4190  178.9480  144.0330 C   0  0  2  0  0  3  0  0  0  0  0  0
  183.9750  177.2280  140.7750 C   0  0  0  0  0  1  0  0  0  0  0  0
  184.6390  178.4780  143.2460 C   0  0  1  0  0  3  0  0  0  0  0  0
  184.7290  179.1690  142.0210 O   0  0  0  0  0  0  0  0  0  0  0  0
  182.1850  180.1350  142.3160 O   0  0  0  0  0  0  0  0  0  0  0  0
  183.1870  178.0740  145.0970 O   0  0  0  0  0  1  0  0  0  0  0  0
  183.7390  178.6980  141.1200 C   0  0  2  0  0  0  0  0  0  0  0  0
  182.2980  178.8910  141.6580 C   0  0  1  0  0  3  0  0  0  0  0  0
  183.8920  179.5160  139.8330 C   0  0  0  0  0  2  0  0  0  0  0  0
  182.8750  179.1540  138.7580 C   0  0  0  0  0  2  0  0  0  0  0  0
  183.4580  178.0880  137.8520 C   0  0  0  0  0  2  0  0  0  0  0  0
  182.4260  177.6320  136.8310 C   0  0  2  0  0  3  0  0  0  0  0  0
  179.9790  177.1090  136.8690 O   0  0  0  0  0  0  0  0  0  0  0  0
  181.2710  176.7850  138.7330 O   0  0  0  0  0  1  0  0  0  0  0  0
  181.2010  177.1500  137.5300 C   0  0  0  0  0  0  0  0  0  0  0  0
  184.2990  176.8650  135.0550 O   0  0  0  0  0  0  0  0  0  0  0  0
  183.0890  176.3430  135.7810 S   0  0  0  0  0  0  0  0  0  0  0  0
  182.0420  175.9400  134.7800 O   0  0  0  0  0  0  0  0  0  0  0  0
  183.5400  174.9840  136.7630 N   0  0  0  0  0  2  0  0  0  0  0  0
  184.4320  173.6180  134.6530 O   0  0  0  0  0  0  0  0  0  0  0  0
  183.4590  173.5070  135.8080 P   0  0  2  0  0  0  0  0  0  0  0  0
  181.9010  173.2990  135.1780 O   0  0  0  0  0  1  0  0  0  0  0  0
  183.8060  170.7870  135.9740 C   0  0  0  0  0  2  0  0  0  0  0  0
  183.8870  172.0490  136.8140 C   0  0  0  0  0  3  0  0  0  0  0  0
  182.6810  171.1350  136.9200 C   0  0  0  0  0  2  0  0  0  0  0  0
  1 37  1  6  0  0  0
  1 10  1  0  0  0  0
  2  6  1  0  0  0  0
  3  5  1  0  0  0  0
  4  9  2  0  0  0  0
  4  7  1  0  0  0  0
  6  3  2  0  0  0  0
  7  5  2  0  0  0  0
  8 11  1  0  0  0  0
  8  2  2  0  0  0  0
 10  6  1  6  0  0  0
 10  4  1  0  0  0  0
 11  1  1  0  0  0  0
 12 20  1  6  0  0  0
 12 16  1  0  0  0  0
 12 19  1  0  0  0  0
 15 14  2  0  0  0  0
 16 13  1  6  0  0  0
 16 15  1  0  0  0  0
 17 18  1  0  0  0  0
 18 23  1  0  0  0  0
 19 23  1  6  0  0  0
 19 22  1  0  0  0  0
 21 24  1  6  0  0  0
 21 17  1  0  0  0  0
 21 20  1  0  0  0  0
 22 14  1  0  0  0  0
 22  8  1  1  0  0  0
 24 25  1  6  0  0  0
 26 27  1  0  0  0  0
 27 24  1  0  0  0  0
 29 30  2  0  0  0  0
 30 27  1  0  0  0  0
 30 28  2  0  0  0  0
 31 36  1  0  0  0  0
 32 31  1  0  0  0  0
 32 35  1  0  0  0  0
 35 34  1  6  0  0  0
 35 33  1  0  0  0  0
 36 30  1  6  0  0  0
 36 33  1  0  0  0  0
 39 38  1  1  0  0  0
 39 40  1  0  0  0  0
 40 45  1  1  0  0  0
 42 37  1  1  0  0  0
 42 40  1  0  0  0  0
 43 42  1  0  0  0  0
 44 39  1  0  0  0  0
 46 41  1  6  0  0  0
 46 47  1  0  0  0  0
 46 43  1  0  0  0  0
 47 44  1  6  0  0  0
 47 39  1  0  0  0  0
 48 46  1  0  0  0  0
 49 48  1  0  0  0  0
 50 49  1  0  0  0  0
 51 54  1  0  0  0  0
 51 50  1  1  0  0  0
 52 54  2  0  0  0  0
 54 53  1  0  0  0  0
 55 56  2  0  0  0  0
 56 58  1  0  0  0  0
 56 51  1  0  0  0  0
 57 56  2  0  0  0  0
 60 59  2  6  0  0  0
 60 58  1  0  0  0  0
 60 63  1  0  0  0  0
 61 60  1  0  0  0  0
 62 63  1  0  0  0  0
 62 64  1  0  0  0  0
 63 64  1  0  0  0  0
M  END
>  <MODEL>
6

>  <REMARK>
 VINA RESULT:      -6.0      3.422     10.203
  Name = 
  16 active torsions:
  status: ('A' for Active; 'I' for Inactive)
    1  A    between atoms: C_1  and  N_43
    2  A    between atoms: C_6  and  C_50
    3  A    between atoms: C_6  and  C_56
    4  A    between atoms: C_7  and  N_41
    5  A    between atoms: C_7  and  C_51
    6  A    between atoms: P_15  and  C_22
    7  A    between atoms: P_15  and  N_64
    8  A    between atoms: C_32  and  C_52
    9  A    between atoms: C_38  and  N_43
   10  A    between atoms: N_41  and  S_57
   11  A    between atoms: S_46  and  C_62
   12  A    between atoms: S_46  and  N_64
   13  A    between atoms: C_49  and  C_62
   14  A    between atoms: C_56  and  C_63
   15  A    between atoms: S_57  and  C_59
   16  A    between atoms: C_62  and  C_63
                            x       y       z     vdW  Elec       q    Type
                         _______ _______ _______ _____ _____    ______ ____

>  <TORSDO>
F 16

$$$$
=
 OpenBabel10222419263D

 64 71  0  0  1  0  0  0  0  0999 V2000
  189.8870  176.8090  137.5530 C   0  0  2  0  0  3  0  0  0  0  0  0
  192.1160  176.7270  139.3710 C   0  0  0  0  0  3  0  0  0  0  0  0
  193.5680  175.8810  137.5460 C   0  0  0  0  0  3  0  0  0  0  0  0
  191.4840  176.0730  135.7170 C   0  0  0  0  0  0  0  0  0  0  0  0
  193.7450  175.5240  136.2070 C   0  0  0  0  0  3  0  0  0  0  0  0
  192.3250  176.3490  137.9670 C   0  0  0  0  0  0  0  0  0  0  0  0
  192.7100  175.6310  135.3320 N   0  0  0  0  0  0  0  0  0  0  0  0
  190.9690  177.2970  139.7380 C   0  0  0  0  0  0  0  0  0  0  0  0
  190.5520  176.1370  134.8750 O   0  0  0  0  0  0  0  0  0  0  0  0
  191.2630  176.4450  137.0520 C   0  0  2  0  0  3  0  0  0  0  0  0
  189.9640  177.5360  138.7850 O   0  0  0  0  0  0  0  0  0  0  0  0
  189.5840  177.4040  143.2020 C   0  0  1  0  0  3  0  0  0  0  0  0
  190.8240  177.5030  145.2490 O   0  0  0  0  0  1  0  0  0  0  0  0
  192.0540  177.4940  141.9360 C   0  0  0  0  0  3  0  0  0  0  0  0
  192.0580  177.1680  143.2400 C   0  0  0  0  0  3  0  0  0  0  0  0
  190.7810  176.8840  143.9940 C   0  0  2  0  0  3  0  0  0  0  0  0
  186.9060  178.2550  142.3300 C   0  0  0  0  0  2  0  0  0  0  0  0
  187.8610  178.4140  141.3140 O   0  0  0  0  0  0  0  0  0  0  0  0
  189.6590  176.9150  141.8100 N   0  0  2  0  0  0  0  0  0  0  0  0
  188.3710  177.0800  143.8230 O   0  0  0  0  0  0  0  0  0  0  0  0
  187.6110  178.2470  143.6890 C   0  0  2  0  0  3  0  0  0  0  0  0
  190.7570  177.6690  141.1730 C   0  0  2  0  0  3  0  0  0  0  0  0
  188.3880  177.1310  141.0850 C   0  0  0  0  0  2  0  0  0  0  0  0
  186.7180  178.4610  144.9210 C   0  0  2  0  0  3  0  0  0  0  0  0
  187.3590  178.0120  146.2440 C   0  0  0  0  0  1  0  0  0  0  0  0
  185.0210  177.1880  145.8110 O   0  0  0  0  0  1  0  0  0  0  0  0
  185.4170  177.8220  144.6760 N   0  0  0  0  0  0  0  0  0  0  0  0
  183.4280  179.3740  145.5210 O   0  0  0  0  0  0  0  0  0  0  0  0
  184.8270  180.2330  143.6910 O   0  0  0  0  0  0  0  0  0  0  0  0
  184.1950  178.9980  144.2800 S   0  0  0  0  0  0  0  0  0  0  0  0
  183.5120  178.5900  141.6740 C   0  0  0  0  0  2  0  0  0  0  0  0
  182.3760  179.0780  140.8940 N   0  0  0  0  0  2  0  0  0  0  0  0
  181.3910  178.8730  143.3380 S   0  0  0  0  0  0  0  0  0  0  0  0
  179.9860  179.4740  141.0900 C   0  0  0  0  0  1  0  0  0  0  0  0
  181.1620  178.6430  141.5660 C   0  0  1  0  0  3  0  0  0  0  0  0
  183.0770  178.2680  143.0980 C   0  0  2  0  0  3  0  0  0  0  0  0
  189.1270  175.5840  137.7590 N   0  0  0  0  0  2  0  0  0  0  0  0
  185.3170  173.3750  135.5630 F   0  0  0  0  0  0  0  0  0  0  0  0
  185.8420  174.3940  136.3360 C   0  0  2  0  0  0  0  0  0  0  0  0
  187.2830  174.2960  136.8270 C   0  0  2  0  0  3  0  0  0  0  0  0
  186.3960  177.7390  135.7120 C   0  0  0  0  0  1  0  0  0  0  0  0
  187.8840  175.6870  137.0110 C   0  0  1  0  0  3  0  0  0  0  0  0
  186.9920  176.5160  137.7210 O   0  0  0  0  0  0  0  0  0  0  0  0
  184.9620  174.7120  137.3880 O   0  0  0  0  0  0  0  0  0  0  0  0
  188.0410  173.5830  135.8960 O   0  0  0  0  0  1  0  0  0  0  0  0
  185.9070  176.8950  136.8890 C   0  0  2  0  0  0  0  0  0  0  0  0
  185.0980  175.6800  136.3690 C   0  0  1  0  0  3  0  0  0  0  0  0
  184.9820  177.7670  137.7450 C   0  0  0  0  0  2  0  0  0  0  0  0
  183.5370  177.2840  137.7630 C   0  0  0  0  0  2  0  0  0  0  0  0
  182.7610  177.9750  136.6600 C   0  0  0  0  0  2  0  0  0  0  0  0
  181.2660  177.7660  136.8480 C   0  0  2  0  0  3  0  0  0  0  0  0
  181.7060  175.7680  135.4060 O   0  0  0  0  0  0  0  0  0  0  0  0
  179.7420  175.9590  136.5710 O   0  0  0  0  0  1  0  0  0  0  0  0
  180.8620  176.4510  136.2740 C   0  0  0  0  0  0  0  0  0  0  0  0
  179.2860  178.5030  135.1780 O   0  0  0  0  0  0  0  0  0  0  0  0
  180.3330  179.0900  136.0850 S   0  0  0  0  0  0  0  0  0  0  0  0
  181.2690  179.9480  135.2790 O   0  0  0  0  0  0  0  0  0  0  0  0
  179.5670  180.0350  137.3250 N   0  0  0  0  0  2  0  0  0  0  0  0
  181.9450  181.0160  138.0240 O   0  0  0  0  0  0  0  0  0  0  0  0
  180.5400  181.4590  137.6760 P   0  0  2  0  0  0  0  0  0  0  0  0
  179.8980  182.2980  139.0000 O   0  0  0  0  0  1  0  0  0  0  0  0
  180.7800  184.0170  136.7040 C   0  0  0  0  0  2  0  0  0  0  0  0
  180.6030  182.5820  136.2420 C   0  0  0  0  0  3  0  0  0  0  0  0
  179.4150  183.5240  136.2850 C   0  0  0  0  0  2  0  0  0  0  0  0
  1 37  1  1  0  0  0
  1 11  1  0  0  0  0
  2  8  2  0  0  0  0
  3  6  2  0  0  0  0
  5  3  1  0  0  0  0
  6  2  1  0  0  0  0
  7  4  1  0  0  0  0
  7  5  2  0  0  0  0
  9  4  2  0  0  0  0
 10  4  1  1  0  0  0
 10  1  1  0  0  0  0
 10  6  1  0  0  0  0
 11  8  1  0  0  0  0
 12 20  1  1  0  0  0
 12 16  1  0  0  0  0
 14 15  2  0  0  0  0
 15 16  1  0  0  0  0
 16 13  1  1  0  0  0
 17 21  1  0  0  0  0
 18 17  1  0  0  0  0
 19 23  1  6  0  0  0
 19 12  1  0  0  0  0
 21 20  1  0  0  0  0
 21 24  1  1  0  0  0
 22  8  1  6  0  0  0
 22 19  1  0  0  0  0
 22 14  1  0  0  0  0
 23 18  1  0  0  0  0
 24 25  1  1  0  0  0
 27 24  1  0  0  0  0
 27 26  1  0  0  0  0
 29 30  2  0  0  0  0
 30 27  1  0  0  0  0
 30 28  2  0  0  0  0
 31 36  1  0  0  0  0
 32 35  1  0  0  0  0
 32 31  1  0  0  0  0
 35 34  1  6  0  0  0
 35 33  1  0  0  0  0
 36 33  1  0  0  0  0
 36 30  1  1  0  0  0
 39 38  1  6  0  0  0
 39 47  1  0  0  0  0
 39 40  1  0  0  0  0
 39 44  1  0  0  0  0
 40 45  1  6  0  0  0
 40 42  1  0  0  0  0
 42 43  1  0  0  0  0
 42 37  1  1  0  0  0
 46 41  1  6  0  0  0
 46 43  1  0  0  0  0
 46 48  1  0  0  0  0
 47 46  1  0  0  0  0
 47 44  1  1  0  0  0
 48 49  1  0  0  0  0
 50 49  1  0  0  0  0
 51 50  1  6  0  0  0
 52 54  2  0  0  0  0
 54 53  1  0  0  0  0
 54 51  1  0  0  0  0
 55 56  2  0  0  0  0
 56 51  1  0  0  0  0
 56 58  1  0  0  0  0
 57 56  2  0  0  0  0
 58 60  1  0  0  0  0
 60 59  2  1  0  0  0
 60 61  1  0  0  0  0
 63 64  1  0  0  0  0
 63 62  1  0  0  0  0
 63 60  1  0  0  0  0
 64 62  1  0  0  0  0
M  END
>  <MODEL>
7

>  <REMARK>
 VINA RESULT:      -5.9      3.041      8.590
  Name = 
  16 active torsions:
  status: ('A' for Active; 'I' for Inactive)
    1  A    between atoms: C_1  and  N_43
    2  A    between atoms: C_6  and  C_50
    3  A    between atoms: C_6  and  C_56
    4  A    between atoms: C_7  and  N_41
    5  A    between atoms: C_7  and  C_51
    6  A    between atoms: P_15  and  C_22
    7  A    between atoms: P_15  and  N_64
    8  A    between atoms: C_32  and  C_52
    9  A    between atoms: C_38  and  N_43
   10  A    between atoms: N_41  and  S_57
   11  A    between atoms: S_46  and  C_62
   12  A    between atoms: S_46  and  N_64
   13  A    between atoms: C_49  and  C_62
   14  A    between atoms: C_56  and  C_63
   15  A    between atoms: S_57  and  C_59
   16  A    between atoms: C_62  and  C_63
                            x       y       z     vdW  Elec       q    Type
                         _______ _______ _______ _____ _____    ______ ____

>  <TORSDO>
F 16

$$$$
=
 OpenBabel10222419263D

 64 71  0  0  1  0  0  0  0  0999 V2000
  183.9490  177.2410  138.1140 C   0  0  2  0  0  3  0  0  0  0  0  0
  186.0620  178.1900  139.8210 C   0  0  0  0  0  3  0  0  0  0  0  0
  187.4720  178.6230  137.8260 C   0  0  0  0  0  3  0  0  0  0  0  0
  185.4140  177.8480  136.1270 C   0  0  0  0  0  0  0  0  0  0  0  0
  187.6340  178.6400  136.4390 C   0  0  0  0  0  3  0  0  0  0  0  0
  186.2530  178.2180  138.3650 C   0  0  0  0  0  0  0  0  0  0  0  0
  186.6090  178.2600  135.6300 N   0  0  0  0  0  0  0  0  0  0  0  0
  184.8560  177.9300  140.3240 C   0  0  0  0  0  0  0  0  0  0  0  0
  184.5010  177.4880  135.3400 O   0  0  0  0  0  0  0  0  0  0  0  0
  185.2070  177.8190  137.5150 C   0  0  2  0  0  3  0  0  0  0  0  0
  183.7710  177.6850  139.4650 O   0  0  0  0  0  0  0  0  0  0  0  0
  185.4010  178.4660  143.9770 C   0  0  1  0  0  3  0  0  0  0  0  0
  183.7490  179.0450  145.6120 O   0  0  0  0  0  1  0  0  0  0  0  0
  183.3000  178.4300  142.1620 C   0  0  0  0  0  3  0  0  0  0  0  0
  183.0760  179.0580  143.3280 C   0  0  0  0  0  3  0  0  0  0  0  0
  184.1880  179.3290  144.3140 C   0  0  2  0  0  3  0  0  0  0  0  0
  187.9810  177.0530  144.0130 C   0  0  0  0  0  2  0  0  0  0  0  0
  187.2590  176.7920  142.8380 O   0  0  0  0  0  0  0  0  0  0  0  0
  185.7310  178.6090  142.5440 N   0  0  2  0  0  0  0  0  0  0  0  0
  186.4890  178.7530  144.8120 O   0  0  0  0  0  0  0  0  0  0  0  0
  187.0120  177.4910  145.1140 C   0  0  2  0  0  3  0  0  0  0  0  0
  184.6710  177.8900  141.8090 C   0  0  2  0  0  3  0  0  0  0  0  0
  187.0600  178.0430  142.2300 C   0  0  0  0  0  2  0  0  0  0  0  0
  187.5530  177.4550  146.5520 C   0  0  2  0  0  3  0  0  0  0  0  0
  186.5320  177.8860  147.6170 C   0  0  0  0  0  1  0  0  0  0  0  0
  188.7440  179.0610  147.6890 O   0  0  0  0  0  1  0  0  0  0  0  0
  188.7940  178.2400  146.6080 N   0  0  0  0  0  0  0  0  0  0  0  0
  190.8670  177.5100  148.1060 O   0  0  0  0  0  0  0  0  0  0  0  0
  189.7820  175.7640  146.7570 O   0  0  0  0  0  0  0  0  0  0  0  0
  190.1900  177.2150  146.7940 S   0  0  0  0  0  0  0  0  0  0  0  0
  190.9970  178.8980  144.8100 C   0  0  0  0  0  2  0  0  0  0  0  0
  190.9450  178.7600  143.3550 N   0  0  0  0  0  2  0  0  0  0  0  0
  191.2430  176.2700  144.1930 S   0  0  0  0  0  0  0  0  0  0  0  0
  191.2840  177.1060  141.6060 C   0  0  0  0  0  1  0  0  0  0  0  0
  191.6740  177.5520  143.0030 C   0  0  1  0  0  3  0  0  0  0  0  0
  191.3200  177.5590  145.4580 C   0  0  2  0  0  3  0  0  0  0  0  0
  184.0440  175.7890  138.0880 N   0  0  0  0  0  2  0  0  0  0  0  0
  181.7100  171.9450  136.0890 F   0  0  0  0  0  0  0  0  0  0  0  0
  181.6930  173.1890  136.6930 C   0  0  2  0  0  0  0  0  0  0  0  0
  182.9800  173.7490  137.2900 C   0  0  2  0  0  3  0  0  0  0  0  0
  181.0000  176.3470  135.4970 C   0  0  0  0  0  1  0  0  0  0  0  0
  182.9700  175.2750  137.2520 C   0  0  1  0  0  3  0  0  0  0  0  0
  181.7410  175.7700  137.7340 O   0  0  0  0  0  0  0  0  0  0  0  0
  180.6240  173.2740  137.6060 O   0  0  0  0  0  0  0  0  0  0  0  0
  184.0730  173.2750  136.5610 O   0  0  0  0  0  1  0  0  0  0  0  0
  180.7180  175.5570  136.7750 C   0  0  2  0  0  0  0  0  0  0  0  0
  180.5150  174.0580  136.4360 C   0  0  1  0  0  3  0  0  0  0  0  0
  179.4220  176.0970  137.3890 C   0  0  0  0  0  2  0  0  0  0  0  0
  179.3230  177.6180  137.3580 C   0  0  0  0  0  2  0  0  0  0  0  0
  178.9830  178.1290  138.7440 C   0  0  0  0  0  2  0  0  0  0  0  0
  180.2160  178.7160  139.4130 C   0  0  2  0  0  3  0  0  0  0  0  0
  179.5560  180.5870  140.9400 O   0  0  0  0  0  0  0  0  0  0  0  0
  179.8410  178.4630  141.7500 O   0  0  0  0  0  1  0  0  0  0  0  0
  179.8590  179.2420  140.7620 C   0  0  0  0  0  0  0  0  0  0  0  0
  181.3500  179.4460  137.0810 O   0  0  0  0  0  0  0  0  0  0  0  0
  180.9320  180.0150  138.4100 S   0  0  0  0  0  0  0  0  0  0  0  0
  182.1380  180.5710  139.1170 O   0  0  0  0  0  0  0  0  0  0  0  0
  179.7490  181.2620  138.1640 N   0  0  0  0  0  2  0  0  0  0  0  0
  180.7530  182.1140  135.8440 O   0  0  0  0  0  0  0  0  0  0  0  0
  180.4630  182.5890  137.2520 P   0  0  2  0  0  0  0  0  0  0  0  0
  181.9210  183.0740  137.9650 O   0  0  0  0  0  1  0  0  0  0  0  0
  179.9800  185.1590  136.4110 C   0  0  0  0  0  2  0  0  0  0  0  0
  179.3380  184.0200  137.1820 C   0  0  0  0  0  3  0  0  0  0  0  0
  179.9590  185.1900  137.9210 C   0  0  0  0  0  2  0  0  0  0  0  0
  1 37  1  1  0  0  0
  1 11  1  0  0  0  0
  2  8  2  0  0  0  0
  3  6  2  0  0  0  0
  5  3  1  0  0  0  0
  6  2  1  0  0  0  0
  7  4  1  0  0  0  0
  7  5  2  0  0  0  0
  9  4  2  0  0  0  0
 10  4  1  6  0  0  0
 10  1  1  0  0  0  0
 10  6  1  0  0  0  0
 11  8  1  0  0  0  0
 12 16  1  0  0  0  0
 12 20  1  1  0  0  0
 14 15  2  0  0  0  0
 15 16  1  0  0  0  0
 16 13  1  1  0  0  0
 17 21  1  0  0  0  0
 18 17  1  0  0  0  0
 19 23  1  1  0  0  0
 19 12  1  0  0  0  0
 20 21  1  0  0  0  0
 21 24  1  1  0  0  0
 22  8  1  6  0  0  0
 22 14  1  0  0  0  0
 22 19  1  0  0  0  0
 23 18  1  0  0  0  0
 24 27  1  0  0  0  0
 24 25  1  1  0  0  0
 27 30  1  0  0  0  0
 27 26  1  0  0  0  0
 29 30  2  0  0  0  0
 30 28  2  0  0  0  0
 31 36  1  0  0  0  0
 32 31  1  0  0  0  0
 33 36  1  0  0  0  0
 35 34  1  6  0  0  0
 35 32  1  0  0  0  0
 35 33  1  0  0  0  0
 36 30  1  1  0  0  0
 39 38  1  6  0  0  0
 39 40  1  0  0  0  0
 39 44  1  0  0  0  0
 40 45  1  6  0  0  0
 42 40  1  0  0  0  0
 42 43  1  0  0  0  0
 42 37  1  1  0  0  0
 46 41  1  6  0  0  0
 46 48  1  0  0  0  0
 46 43  1  0  0  0  0
 47 39  1  0  0  0  0
 47 46  1  0  0  0  0
 47 44  1  1  0  0  0
 49 48  1  0  0  0  0
 49 50  1  0  0  0  0
 51 50  1  6  0  0  0
 51 54  1  0  0  0  0
 54 52  2  0  0  0  0
 54 53  1  0  0  0  0
 55 56  2  0  0  0  0
 56 57  2  0  0  0  0
 56 51  1  0  0  0  0
 58 56  1  0  0  0  0
 60 59  2  6  0  0  0
 60 61  1  0  0  0  0
 60 58  1  0  0  0  0
 62 63  1  0  0  0  0
 62 64  1  0  0  0  0
 63 60  1  0  0  0  0
 63 64  1  0  0  0  0
M  END
>  <MODEL>
8

>  <REMARK>
 VINA RESULT:      -5.3      3.947     10.643
  Name = 
  16 active torsions:
  status: ('A' for Active; 'I' for Inactive)
    1  A    between atoms: C_1  and  N_43
    2  A    between atoms: C_6  and  C_50
    3  A    between atoms: C_6  and  C_56
    4  A    between atoms: C_7  and  N_41
    5  A    between atoms: C_7  and  C_51
    6  A    between atoms: P_15  and  C_22
    7  A    between atoms: P_15  and  N_64
    8  A    between atoms: C_32  and  C_52
    9  A    between atoms: C_38  and  N_43
   10  A    between atoms: N_41  and  S_57
   11  A    between atoms: S_46  and  C_62
   12  A    between atoms: S_46  and  N_64
   13  A    between atoms: C_49  and  C_62
   14  A    between atoms: C_56  and  C_63
   15  A    between atoms: S_57  and  C_59
   16  A    between atoms: C_62  and  C_63
                            x       y       z     vdW  Elec       q    Type
                         _______ _______ _______ _____ _____    ______ ____

>  <TORSDO>
F 16

$$$$
=
 OpenBabel10222419263D

 64 71  0  0  1  0  0  0  0  0999 V2000
  186.7640  177.3160  144.6250 C   0  0  2  0  0  3  0  0  0  0  0  0
  189.6380  177.4480  144.6460 C   0  0  0  0  0  3  0  0  0  0  0  0
  189.5880  178.0440  147.0540 C   0  0  0  0  0  3  0  0  0  0  0  0
  186.8210  177.7930  147.1200 C   0  0  0  0  0  0  0  0  0  0  0  0
  188.8690  178.2660  148.2310 C   0  0  0  0  0  3  0  0  0  0  0  0
  188.9030  177.6830  145.8960 C   0  0  0  0  0  0  0  0  0  0  0  0
  187.5160  178.1320  148.2380 N   0  0  0  0  0  0  0  0  0  0  0  0
  188.9940  176.9760  143.5800 C   0  0  0  0  0  0  0  0  0  0  0  0
  185.5670  177.7000  147.1710 O   0  0  0  0  0  0  0  0  0  0  0  0
  187.5030  177.5590  145.9170 C   0  0  2  0  0  3  0  0  0  0  0  0
  187.6180  176.7020  143.6510 O   0  0  0  0  0  0  0  0  0  0  0  0
  190.4420  177.5020  140.1800 C   0  0  1  0  0  3  0  0  0  0  0  0
  192.6620  176.9680  139.4590 O   0  0  0  0  0  1  0  0  0  0  0  0
  191.1900  176.4160  142.6240 C   0  0  0  0  0  3  0  0  0  0  0  0
  192.1850  176.7430  141.7810 C   0  0  0  0  0  3  0  0  0  0  0  0
  191.9310  177.5250  140.5140 C   0  0  2  0  0  3  0  0  0  0  0  0
  187.8180  177.7590  138.8740 C   0  0  0  0  0  2  0  0  0  0  0  0
  187.7080  177.2130  140.1620 O   0  0  0  0  0  0  0  0  0  0  0  0
  189.6590  177.8910  141.3710 N   0  0  2  0  0  0  0  0  0  0  0  0
  190.1490  178.2940  139.0610 O   0  0  0  0  0  0  0  0  0  0  0  0
  189.2330  177.5190  138.3420 C   0  0  2  0  0  3  0  0  0  0  0  0
  189.7470  176.7510  142.3050 C   0  0  2  0  0  3  0  0  0  0  0  0
  188.2490  178.1770  141.0290 C   0  0  0  0  0  2  0  0  0  0  0  0
  189.4330  177.7030  136.8290 C   0  0  2  0  0  3  0  0  0  0  0  0
  188.1230  177.8090  136.0320 C   0  0  0  0  0  1  0  0  0  0  0  0
  191.5270  176.7560  136.9300 O   0  0  0  0  0  1  0  0  0  0  0  0
  190.3110  176.6320  136.3370 N   0  0  0  0  0  0  0  0  0  0  0  0
  190.3970  174.5290  137.9650 O   0  0  0  0  0  0  0  0  0  0  0  0
  188.2080  175.1370  137.0250 O   0  0  0  0  0  0  0  0  0  0  0  0
  189.6870  175.0580  136.7460 S   0  0  0  0  0  0  0  0  0  0  0  0
  189.0740  172.7440  135.4440 C   0  0  0  0  0  2  0  0  0  0  0  0
  189.8480  171.5180  135.2530 N   0  0  0  0  0  2  0  0  0  0  0  0
  191.7030  173.3980  135.3510 S   0  0  0  0  0  0  0  0  0  0  0  0
  192.1110  170.7730  134.7760 C   0  0  0  0  0  1  0  0  0  0  0  0
  191.0920  171.8820  134.5950 C   0  0  1  0  0  3  0  0  0  0  0  0
  189.9860  173.9620  135.3710 C   0  0  2  0  0  3  0  0  0  0  0  0
  186.2840  178.5920  144.1150 N   0  0  0  0  0  2  0  0  0  0  0  0
  181.3790  178.9140  144.3550 F   0  0  0  0  0  0  0  0  0  0  0  0
  182.5650  179.0190  143.6500 C   0  0  2  0  0  0  0  0  0  0  0  0
  183.8910  178.9380  144.4000 C   0  0  2  0  0  3  0  0  0  0  0  0
  183.9740  177.0900  141.1660 C   0  0  0  0  0  1  0  0  0  0  0  0
  184.9850  178.3770  143.4960 C   0  0  1  0  0  3  0  0  0  0  0  0
  184.9660  179.0240  142.2430 O   0  0  0  0  0  0  0  0  0  0  0  0
  182.5270  180.1370  142.7940 O   0  0  0  0  0  0  0  0  0  0  0  0
  183.7420  178.1110  145.5150 O   0  0  0  0  0  1  0  0  0  0  0  0
  183.8550  178.5810  141.4800 C   0  0  2  0  0  0  0  0  0  0  0  0
  182.4980  178.8680  142.1730 C   0  0  1  0  0  3  0  0  0  0  0  0
  183.8970  179.3490  140.1560 C   0  0  0  0  0  2  0  0  0  0  0  0
  182.8020  178.9370  139.1790 C   0  0  0  0  0  2  0  0  0  0  0  0
  183.4080  178.7210  137.8060 C   0  0  0  0  0  2  0  0  0  0  0  0
  183.1990  177.2850  137.3510 C   0  0  2  0  0  3  0  0  0  0  0  0
  184.5760  177.2430  135.2620 O   0  0  0  0  0  0  0  0  0  0  0  0
  185.2100  176.0360  137.1030 O   0  0  0  0  0  1  0  0  0  0  0  0
  184.3820  176.8220  136.5730 C   0  0  0  0  0  0  0  0  0  0  0  0
  181.7960  175.8920  135.5220 O   0  0  0  0  0  0  0  0  0  0  0  0
  181.7110  177.1330  136.3680 S   0  0  0  0  0  0  0  0  0  0  0  0
  181.5890  178.3380  135.4760 O   0  0  0  0  0  0  0  0  0  0  0  0
  180.3370  177.0250  137.4250 N   0  0  0  0  0  2  0  0  0  0  0  0
  181.7240  174.9010  138.2490 O   0  0  0  0  0  1  0  0  0  0  0  0
  180.3130  175.4490  138.2110 P   0  0  2  0  0  0  0  0  0  0  0  0
  179.3430  174.3710  137.3360 O   0  0  0  0  0  0  0  0  0  0  0  0
  180.3470  174.5470  140.8050 C   0  0  0  0  0  2  0  0  0  0  0  0
  179.6720  175.5720  139.9120 C   0  0  0  0  0  3  0  0  0  0  0  0
  178.9560  174.2850  140.2770 C   0  0  0  0  0  2  0  0  0  0  0  0
  1 37  1  6  0  0  0
  1 10  1  0  0  0  0
  2  6  1  0  0  0  0
  3  5  1  0  0  0  0
  4  9  2  0  0  0  0
  4  7  1  0  0  0  0
  5  7  2  0  0  0  0
  6  3  2  0  0  0  0
  8 11  1  0  0  0  0
  8  2  2  0  0  0  0
 10  6  1  6  0  0  0
 10  4  1  0  0  0  0
 11  1  1  0  0  0  0
 12 20  1  6  0  0  0
 12 16  1  0  0  0  0
 12 19  1  0  0  0  0
 15 14  2  0  0  0  0
 16 13  1  6  0  0  0
 16 15  1  0  0  0  0
 17 18  1  0  0  0  0
 18 23  1  0  0  0  0
 19 23  1  6  0  0  0
 19 22  1  0  0  0  0
 21 24  1  6  0  0  0
 21 17  1  0  0  0  0
 21 20  1  0  0  0  0
 22 14  1  0  0  0  0
 22  8  1  1  0  0  0
 24 25  1  6  0  0  0
 27 30  1  0  0  0  0
 27 24  1  0  0  0  0
 27 26  1  0  0  0  0
 30 29  2  0  0  0  0
 30 28  2  0  0  0  0
 32 31  1  0  0  0  0
 33 36  1  0  0  0  0
 35 34  1  1  0  0  0
 35 32  1  0  0  0  0
 35 33  1  0  0  0  0
 36 31  1  0  0  0  0
 36 30  1  1  0  0  0
 39 38  1  1  0  0  0
 39 40  1  0  0  0  0
 40 45  1  1  0  0  0
 42 37  1  1  0  0  0
 42 40  1  0  0  0  0
 43 42  1  0  0  0  0
 44 39  1  0  0  0  0
 46 41  1  6  0  0  0
 46 47  1  0  0  0  0
 46 43  1  0  0  0  0
 47 44  1  6  0  0  0
 47 39  1  0  0  0  0
 48 46  1  0  0  0  0
 49 48  1  0  0  0  0
 50 49  1  0  0  0  0
 51 50  1  6  0  0  0
 52 54  2  0  0  0  0
 54 53  1  0  0  0  0
 54 51  1  0  0  0  0
 55 56  2  0  0  0  0
 56 51  1  0  0  0  0
 56 58  1  0  0  0  0
 57 56  2  0  0  0  0
 58 60  1  0  0  0  0
 60 61  2  6  0  0  0
 60 59  1  0  0  0  0
 60 63  1  0  0  0  0
 63 64  1  0  0  0  0
 63 62  1  0  0  0  0
 64 62  1  0  0  0  0
M  END
>  <MODEL>
9

>  <REMARK>
 VINA RESULT:      -5.2      3.245      9.780
  Name = 
  16 active torsions:
  status: ('A' for Active; 'I' for Inactive)
    1  A    between atoms: C_1  and  N_43
    2  A    between atoms: C_6  and  C_50
    3  A    between atoms: C_6  and  C_56
    4  A    between atoms: C_7  and  N_41
    5  A    between atoms: C_7  and  C_51
    6  A    between atoms: P_15  and  C_22
    7  A    between atoms: P_15  and  N_64
    8  A    between atoms: C_32  and  C_52
    9  A    between atoms: C_38  and  N_43
   10  A    between atoms: N_41  and  S_57
   11  A    between atoms: S_46  and  C_62
   12  A    between atoms: S_46  and  N_64
   13  A    between atoms: C_49  and  C_62
   14  A    between atoms: C_56  and  C_63
   15  A    between atoms: S_57  and  C_59
   16  A    between atoms: C_62  and  C_63
                            x       y       z     vdW  Elec       q    Type
                         _______ _______ _______ _____ _____    ______ ____

>  <TORSDO>
F 16

$$$$
