=
 OpenBabel10222415363D

 40 44  0  0  1  0  0  0  0  0999 V2000
  187.2010  175.4750  135.5220 N   0  0  0  0  0  2  0  0  0  0  0  0
  187.7150  174.2910  135.5750 C   0  0  0  0  0  2  0  0  0  0  0  0
  183.4730  177.1700  137.4540 C   0  0  0  0  0  3  0  0  0  0  0  0
  182.9390  176.0990  136.9420 N   0  0  0  0  0  0  0  0  0  0  0  0
  191.7380  174.1270  136.9640 C   0  0  0  0  0  0  0  0  0  0  0  0
  189.1540  174.2390  135.8550 C   0  0  0  0  0  0  0  0  0  0  0  0
  185.8710  175.8360  135.8510 C   0  0  0  0  0  0  0  0  0  0  0  0
  191.3450  176.4230  137.9990 C   0  0  0  0  0  2  0  0  0  0  0  0
  184.7960  174.8320  135.8680 C   0  0  0  0  0  3  0  0  0  0  0  0
  189.3300  178.5400  139.1310 S   0  0  0  0  0  0  0  0  0  0  0  0
  189.6790  175.3140  136.5790 C   0  0  0  0  0  3  0  0  0  0  0  0
  183.5440  174.9560  136.3170 C   0  0  0  0  0  3  0  0  0  0  0  0
  191.2180  173.0340  136.2350 C   0  0  0  0  0  3  0  0  0  0  0  0
  190.8000  176.2550  139.3430 N   0  0  0  0  0  0  0  0  0  0  0  0
  187.6090  178.0770  139.5250 C   0  0  2  0  0  3  0  0  0  0  0  0
  189.9860  177.0760  139.9450 C   0  0  0  0  0  0  0  0  0  0  0  0
  185.8610  176.9680  136.5290 C   0  0  0  0  0  3  0  0  0  0  0  0
  186.7170  178.6140  138.4970 N   0  0  0  0  0  2  0  0  0  0  0  0
  186.0910  179.1000  141.0600 O   0  0  0  0  0  0  0  0  0  0  0  0
  187.2300  178.5930  140.8910 C   0  0  0  0  0  0  0  0  0  0  0  0
  190.9450  175.2740  137.1340 C   0  0  0  0  0  0  0  0  0  0  0  0
  188.0920  178.5020  142.0370 N   0  0  0  0  0  0  0  0  0  0  0  0
  189.1490  177.7750  142.2550 C   0  0  0  0  0  0  0  0  0  0  0  0
  184.8980  177.5000  137.4770 C   0  0  0  0  0  0  0  0  0  0  0  0
  189.9200  173.0800  135.7000 C   0  0  0  0  0  3  0  0  0  0  0  0
  185.3540  178.2600  138.4280 N   0  0  0  0  0  0  0  0  0  0  0  0
  189.6800  176.8300  141.3170 N   0  0  0  0  0  2  0  0  0  0  0  0
  193.0130  174.0780  137.5380 O   0  0  0  0  0  0  0  0  0  0  0  0
  194.1050  173.4060  136.9230 C   0  0  0  0  0  2  0  0  0  0  0  0
  195.3570  173.5370  137.7800 C   0  0  2  0  0  3  0  0  0  0  0  0
  195.3220  172.6060  138.8190 O   0  0  0  0  0  1  0  0  0  0  0  0
  196.0440  174.6540  139.5600 C   0  0  0  0  0  1  0  0  0  0  0  0
  195.4560  174.8270  138.3060 O   0  0  0  0  0  0  0  0  0  0  0  0
  189.8150  177.8820  143.5830 C   0  0  0  0  0  2  0  0  0  0  0  0
  188.2660  177.7780  147.0430 C   0  0  0  0  0  3  0  0  0  0  0  0
  188.8110  177.7520  144.6810 C   0  0  0  0  0  0  0  0  0  0  0  0
  186.9250  177.5290  146.7360 C   0  0  0  0  0  3  0  0  0  0  0  0
  186.5230  177.4000  145.4020 C   0  0  0  0  0  3  0  0  0  0  0  0
  189.2090  177.8910  146.0160 C   0  0  0  0  0  3  0  0  0  0  0  0
  187.4660  177.5140  144.3750 C   0  0  0  0  0  3  0  0  0  0  0  0
  1  2  1  0  0  0  0
  1  7  1  0  0  0  0
  2  6  1  0  0  0  0
  3 24  1  0  0  0  0
  4  3  2  0  0  0  0
  5 21  1  0  0  0  0
  5 28  1  0  0  0  0
  6 11  1  0  0  0  0
  7  9  1  0  0  0  0
  7 17  2  0  0  0  0
  8 14  1  0  0  0  0
  9 12  2  0  0  0  0
 10 15  1  0  0  0  0
 10 16  1  0  0  0  0
 11 21  2  0  0  0  0
 12  4  1  0  0  0  0
 13  5  2  0  0  0  0
 14 16  2  0  0  0  0
 15 18  1  6  0  0  0
 15 20  1  0  0  0  0
 16 27  1  0  0  0  0
 17 24  1  0  0  0  0
 20 19  2  0  0  0  0
 20 22  1  0  0  0  0
 21  8  1  0  0  0  0
 22 23  2  0  0  0  0
 23 34  1  0  0  0  0
 24 26  2  0  0  0  0
 25  6  2  0  0  0  0
 25 13  1  0  0  0  0
 26 18  1  0  0  0  0
 27 23  1  0  0  0  0
 29 28  1  0  0  0  0
 29 30  1  0  0  0  0
 30 33  1  0  0  0  0
 30 31  1  1  0  0  0
 33 32  1  0  0  0  0
 34 36  1  0  0  0  0
 36 39  1  0  0  0  0
 37 35  1  0  0  0  0
 38 37  2  0  0  0  0
 39 35  2  0  0  0  0
 40 36  2  0  0  0  0
 40 38  1  0  0  0  0
M  END
>  <MODEL>
1

>  <REMARK>
 VINA RESULT:      -9.5      0.000      0.000
  Name = 
  6 active torsions:
  status: ('A' for Active; 'I' for Inactive)
    1  A    between atoms: C_4  and  C_22
    2  A    between atoms: C_7  and  O_13
    3  A    between atoms: C_10  and  O_13
    4  A    between atoms: C_10  and  C_28
    5  A    between atoms: C_22  and  C_35
    6  A    between atoms: C_28  and  O_30
                            x       y       z     vdW  Elec       q    Type
                         _______ _______ _______ _____ _____    ______ ____

>  <TORSDO>
F 6

$$$$
=
 OpenBabel10222415363D

 40 44  0  0  1  0  0  0  0  0999 V2000
  184.6280  176.9140  137.2780 N   0  0  0  0  0  2  0  0  0  0  0  0
  185.4080  175.9490  136.9230 C   0  0  0  0  0  2  0  0  0  0  0  0
  180.9310  176.9200  139.8940 C   0  0  0  0  0  3  0  0  0  0  0  0
  180.5960  175.9350  139.1110 N   0  0  0  0  0  0  0  0  0  0  0  0
  189.5160  176.4900  137.9130 C   0  0  0  0  0  0  0  0  0  0  0  0
  186.8440  176.2100  137.0740 C   0  0  0  0  0  0  0  0  0  0  0  0
  183.3130  176.7950  137.7940 C   0  0  0  0  0  0  0  0  0  0  0  0
  188.7490  178.2040  139.6370 C   0  0  0  0  0  2  0  0  0  0  0  0
  182.5210  175.5760  137.5710 C   0  0  0  0  0  3  0  0  0  0  0  0
  186.4790  179.2860  141.5090 S   0  0  0  0  0  0  0  0  0  0  0  0
  187.2010  177.1360  138.0600 C   0  0  0  0  0  3  0  0  0  0  0  0
  181.3550  175.2240  138.1210 C   0  0  0  0  0  3  0  0  0  0  0  0
  189.1670  175.5500  136.9170 C   0  0  0  0  0  3  0  0  0  0  0  0
  188.4630  177.5200  140.8960 N   0  0  0  0  0  0  0  0  0  0  0  0
  184.9940  178.2840  141.8560 C   0  0  2  0  0  3  0  0  0  0  0  0
  187.5760  177.8860  141.7780 C   0  0  0  0  0  0  0  0  0  0  0  0
  183.1360  177.6420  138.7900 C   0  0  0  0  0  3  0  0  0  0  0  0
  183.8590  178.8280  141.1100 N   0  0  0  0  0  2  0  0  0  0  0  0
  183.5210  178.3810  143.7330 O   0  0  0  0  0  0  0  0  0  0  0  0
  184.7100  178.2690  143.3370 C   0  0  0  0  0  0  0  0  0  0  0  0
  188.5080  177.2840  138.4860 C   0  0  0  0  0  0  0  0  0  0  0  0
  185.7280  178.0930  144.3360 N   0  0  0  0  0  0  0  0  0  0  0  0
  186.9470  177.6470  144.2420 C   0  0  0  0  0  0  0  0  0  0  0  0
  182.2260  177.6020  139.9210 C   0  0  0  0  0  0  0  0  0  0  0  0
  187.8310  175.3940  136.5120 C   0  0  0  0  0  3  0  0  0  0  0  0
  182.6230  178.1540  141.0280 N   0  0  0  0  0  0  0  0  0  0  0  0
  187.5420  177.1870  143.0220 N   0  0  0  0  0  2  0  0  0  0  0  0
  190.8370  176.6260  138.3540 O   0  0  0  0  0  0  0  0  0  0  0  0
  191.9540  176.4770  137.4860 C   0  0  0  0  0  2  0  0  0  0  0  0
  193.1890  176.0740  138.2790 C   0  0  2  0  0  3  0  0  0  0  0  0
  193.4920  177.0590  139.2210 O   0  0  0  0  0  1  0  0  0  0  0  0
  194.7420  174.6030  137.7180 C   0  0  0  0  0  1  0  0  0  0  0  0
  194.2790  175.8870  137.4260 O   0  0  0  0  0  0  0  0  0  0  0  0
  187.7570  177.5490  145.4880 C   0  0  0  0  0  2  0  0  0  0  0  0
  191.0330  178.8420  144.0780 C   0  0  0  0  0  3  0  0  0  0  0  0
  189.2130  177.6740  145.1740 C   0  0  0  0  0  0  0  0  0  0  0  0
  191.9410  177.9180  144.6050 C   0  0  0  0  0  3  0  0  0  0  0  0
  191.4890  176.8770  145.4220 C   0  0  0  0  0  3  0  0  0  0  0  0
  189.6690  178.7210  144.3630 C   0  0  0  0  0  3  0  0  0  0  0  0
  190.1250  176.7570  145.7090 C   0  0  0  0  0  3  0  0  0  0  0  0
  1  7  1  0  0  0  0
  2  6  1  0  0  0  0
  2  1  1  0  0  0  0
  3 24  1  0  0  0  0
  4  3  2  0  0  0  0
  5 28  1  0  0  0  0
  5 21  1  0  0  0  0
  6 11  1  0  0  0  0
  7 17  2  0  0  0  0
  8 14  1  0  0  0  0
  9  7  1  0  0  0  0
  9 12  2  0  0  0  0
 10 16  1  0  0  0  0
 10 15  1  0  0  0  0
 11 21  2  0  0  0  0
 12  4  1  0  0  0  0
 13  5  2  0  0  0  0
 14 16  2  0  0  0  0
 15 18  1  6  0  0  0
 15 20  1  0  0  0  0
 16 27  1  0  0  0  0
 17 24  1  0  0  0  0
 20 19  2  0  0  0  0
 20 22  1  0  0  0  0
 21  8  1  0  0  0  0
 23 22  2  0  0  0  0
 23 34  1  0  0  0  0
 24 26  2  0  0  0  0
 25 13  1  0  0  0  0
 25  6  2  0  0  0  0
 26 18  1  0  0  0  0
 27 23  1  0  0  0  0
 29 30  1  0  0  0  0
 29 28  1  0  0  0  0
 30 31  1  1  0  0  0
 33 32  1  0  0  0  0
 33 30  1  0  0  0  0
 35 39  2  0  0  0  0
 35 37  1  0  0  0  0
 36 34  1  0  0  0  0
 36 40  2  0  0  0  0
 37 38  2  0  0  0  0
 38 40  1  0  0  0  0
 39 36  1  0  0  0  0
M  END
>  <MODEL>
2

>  <REMARK>
 VINA RESULT:      -9.3      2.231      3.430
  Name = 
  6 active torsions:
  status: ('A' for Active; 'I' for Inactive)
    1  A    between atoms: C_4  and  C_22
    2  A    between atoms: C_7  and  O_13
    3  A    between atoms: C_10  and  O_13
    4  A    between atoms: C_10  and  C_28
    5  A    between atoms: C_22  and  C_35
    6  A    between atoms: C_28  and  O_30
                            x       y       z     vdW  Elec       q    Type
                         _______ _______ _______ _____ _____    ______ ____

>  <TORSDO>
F 6

$$$$
=
 OpenBabel10222415363D

 40 44  0  0  1  0  0  0  0  0999 V2000
  185.6950  177.1810  137.0440 N   0  0  0  0  0  2  0  0  0  0  0  0
  186.0450  175.9930  136.6770 C   0  0  0  0  0  2  0  0  0  0  0  0
  182.4450  178.5650  139.8770 C   0  0  0  0  0  3  0  0  0  0  0  0
  181.7220  177.7610  139.1530 N   0  0  0  0  0  0  0  0  0  0  0  0
  190.1270  175.0100  137.3950 C   0  0  0  0  0  0  0  0  0  0  0  0
  187.4840  175.7150  136.7310 C   0  0  0  0  0  0  0  0  0  0  0  0
  184.4660  177.5550  137.6420 C   0  0  0  0  0  0  0  0  0  0  0  0
  190.1570  176.9050  139.0990 C   0  0  0  0  0  2  0  0  0  0  0  0
  183.2720  176.7060  137.5120 C   0  0  0  0  0  3  0  0  0  0  0  0
  188.5720  178.7630  141.0650 S   0  0  0  0  0  0  0  0  0  0  0  0
  188.2210  176.4570  137.6590 C   0  0  0  0  0  3  0  0  0  0  0  0
  182.1000  176.8100  138.1440 C   0  0  0  0  0  3  0  0  0  0  0  0
  189.3920  174.2510  136.4570 C   0  0  0  0  0  3  0  0  0  0  0  0
  189.7310  176.3880  140.3970 N   0  0  0  0  0  0  0  0  0  0  0  0
  186.8530  178.3750  141.5380 C   0  0  2  0  0  3  0  0  0  0  0  0
  189.1020  177.0620  141.3180 C   0  0  0  0  0  0  0  0  0  0  0  0
  184.6790  178.4200  138.6160 C   0  0  0  0  0  3  0  0  0  0  0  0
  185.9440  179.2880  140.8430 N   0  0  0  0  0  2  0  0  0  0  0  0
  185.6500  179.0250  143.4970 O   0  0  0  0  0  0  0  0  0  0  0  0
  186.6870  178.4830  143.0330 C   0  0  0  0  0  0  0  0  0  0  0  0
  189.5190  176.1230  137.9990 C   0  0  0  0  0  0  0  0  0  0  0  0
  187.6390  177.9590  143.9730 N   0  0  0  0  0  0  0  0  0  0  0  0
  188.6030  177.0980  143.8220 C   0  0  0  0  0  0  0  0  0  0  0  0
  183.8970  178.7280  139.8010 C   0  0  0  0  0  0  0  0  0  0  0  0
  188.0660  174.5880  136.1400 C   0  0  0  0  0  3  0  0  0  0  0  0
  184.5450  179.1100  140.8610 N   0  0  0  0  0  0  0  0  0  0  0  0
  188.9030  176.4380  142.5860 N   0  0  0  0  0  2  0  0  0  0  0  0
  191.4350  174.6600  137.7490 O   0  0  0  0  0  0  0  0  0  0  0  0
  192.5720  175.1080  137.0220 C   0  0  0  0  0  2  0  0  0  0  0  0
  193.6380  175.6270  137.9760 C   0  0  2  0  0  3  0  0  0  0  0  0
  193.5570  177.0180  138.0680 O   0  0  0  0  0  1  0  0  0  0  0  0
  195.2880  174.2110  138.3770 C   0  0  0  0  0  1  0  0  0  0  0  0
  194.9110  175.2580  137.5340 O   0  0  0  0  0  0  0  0  0  0  0  0
  189.4070  176.7260  145.0200 C   0  0  0  0  0  2  0  0  0  0  0  0
  189.0640  178.2550  148.4730 C   0  0  0  0  0  3  0  0  0  0  0  0
  188.8060  177.3140  146.2540 C   0  0  0  0  0  0  0  0  0  0  0  0
  187.6800  178.4360  148.5560 C   0  0  0  0  0  3  0  0  0  0  0  0
  186.8580  178.0660  147.4870 C   0  0  0  0  0  3  0  0  0  0  0  0
  189.6270  177.6960  147.3220 C   0  0  0  0  0  3  0  0  0  0  0  0
  187.4220  177.5070  146.3350 C   0  0  0  0  0  3  0  0  0  0  0  0
  1  7  1  0  0  0  0
  2  6  1  0  0  0  0
  2  1  1  0  0  0  0
  4  3  2  0  0  0  0
  5 28  1  0  0  0  0
  5 21  1  0  0  0  0
  6 11  1  0  0  0  0
  7 17  2  0  0  0  0
  8 14  1  0  0  0  0
  9  7  1  0  0  0  0
  9 12  2  0  0  0  0
 10 16  1  0  0  0  0
 10 15  1  0  0  0  0
 11 21  2  0  0  0  0
 12  4  1  0  0  0  0
 13  5  2  0  0  0  0
 14 16  2  0  0  0  0
 15 18  1  6  0  0  0
 15 20  1  0  0  0  0
 16 27  1  0  0  0  0
 17 24  1  0  0  0  0
 18 26  1  0  0  0  0
 20 19  2  0  0  0  0
 20 22  1  0  0  0  0
 21  8  1  0  0  0  0
 23 22  2  0  0  0  0
 23 34  1  0  0  0  0
 24  3  1  0  0  0  0
 24 26  2  0  0  0  0
 25 13  1  0  0  0  0
 25  6  2  0  0  0  0
 27 23  1  0  0  0  0
 29 28  1  0  0  0  0
 29 30  1  0  0  0  0
 30 31  1  6  0  0  0
 33 30  1  0  0  0  0
 33 32  1  0  0  0  0
 34 36  1  0  0  0  0
 35 37  1  0  0  0  0
 36 40  2  0  0  0  0
 36 39  1  0  0  0  0
 38 37  2  0  0  0  0
 39 35  2  0  0  0  0
 40 38  1  0  0  0  0
M  END
>  <MODEL>
3

>  <REMARK>
 VINA RESULT:      -9.1      1.723      2.344
  Name = 
  6 active torsions:
  status: ('A' for Active; 'I' for Inactive)
    1  A    between atoms: C_4  and  C_22
    2  A    between atoms: C_7  and  O_13
    3  A    between atoms: C_10  and  O_13
    4  A    between atoms: C_10  and  C_28
    5  A    between atoms: C_22  and  C_35
    6  A    between atoms: C_28  and  O_30
                            x       y       z     vdW  Elec       q    Type
                         _______ _______ _______ _____ _____    ______ ____

>  <TORSDO>
F 6

$$$$
=
 OpenBabel10222415363D

 40 44  0  0  1  0  0  0  0  0999 V2000
  182.7680  175.3890  136.5480 N   0  0  0  0  0  2  0  0  0  0  0  0
  183.9640  174.9060  136.6060 C   0  0  0  0  0  2  0  0  0  0  0  0
  178.9660  174.1420  138.6690 C   0  0  0  0  0  3  0  0  0  0  0  0
  179.3220  172.9690  138.2320 N   0  0  0  0  0  0  0  0  0  0  0  0
  186.9870  177.6900  137.7250 C   0  0  0  0  0  0  0  0  0  0  0  0
  185.0350  175.8910  136.7900 C   0  0  0  0  0  0  0  0  0  0  0  0
  181.5730  174.7450  136.9530 C   0  0  0  0  0  0  0  0  0  0  0  0
  185.1260  179.1310  138.7040 C   0  0  0  0  0  2  0  0  0  0  0  0
  181.5070  173.2810  137.0780 C   0  0  0  0  0  3  0  0  0  0  0  0
  182.2340  179.3200  139.8980 S   0  0  0  0  0  0  0  0  0  0  0  0
  184.6760  177.0760  137.4400 C   0  0  0  0  0  3  0  0  0  0  0  0
  180.5380  172.5290  137.6060 C   0  0  0  0  0  3  0  0  0  0  0  0
  187.3610  176.4950  137.0710 C   0  0  0  0  0  3  0  0  0  0  0  0
  184.8870  178.7270  140.0880 N   0  0  0  0  0  0  0  0  0  0  0  0
  181.3380  177.8190  140.4230 C   0  0  2  0  0  3  0  0  0  0  0  0
  183.7460  178.7910  140.7150 C   0  0  0  0  0  0  0  0  0  0  0  0
  180.7910  175.5950  137.5910 C   0  0  0  0  0  3  0  0  0  0  0  0
  180.3000  177.5080  139.4400 N   0  0  0  0  0  2  0  0  0  0  0  0
  179.5750  177.6030  142.0210 O   0  0  0  0  0  0  0  0  0  0  0  0
  180.7400  178.0220  141.7930 C   0  0  0  0  0  0  0  0  0  0  0  0
  185.6220  177.9690  137.9080 C   0  0  0  0  0  0  0  0  0  0  0  0
  181.4480  178.6390  142.8800 N   0  0  0  0  0  0  0  0  0  0  0  0
  182.7170  178.8720  143.0510 C   0  0  0  0  0  0  0  0  0  0  0  0
  179.7550  175.3720  138.5840 C   0  0  0  0  0  0  0  0  0  0  0  0
  186.3890  175.5860  136.6230 C   0  0  0  0  0  3  0  0  0  0  0  0
  179.5720  176.3000  139.4760 N   0  0  0  0  0  0  0  0  0  0  0  0
  183.7340  178.4990  142.1120 N   0  0  0  0  0  2  0  0  0  0  0  0
  187.9470  178.5850  138.2120 O   0  0  0  0  0  0  0  0  0  0  0  0
  189.0550  178.1650  138.9980 C   0  0  0  0  0  2  0  0  0  0  0  0
  188.5830  177.6770  140.3600 C   0  0  2  0  0  3  0  0  0  0  0  0
  188.1530  178.7590  141.1310 O   0  0  0  0  0  1  0  0  0  0  0  0
  190.7570  177.2810  140.2710 C   0  0  0  0  0  1  0  0  0  0  0  0
  189.6130  177.0060  141.0230 O   0  0  0  0  0  0  0  0  0  0  0  0
  183.1500  179.5080  144.3260 C   0  0  0  0  0  2  0  0  0  0  0  0
  186.5130  177.7590  144.4460 C   0  0  0  0  0  3  0  0  0  0  0  0
  184.3820  178.8430  144.8470 C   0  0  0  0  0  0  0  0  0  0  0  0
  186.6990  177.6180  145.8240 C   0  0  0  0  0  3  0  0  0  0  0  0
  185.7330  178.0950  146.7160 C   0  0  0  0  0  3  0  0  0  0  0  0
  185.3560  178.3730  143.9570 C   0  0  0  0  0  3  0  0  0  0  0  0
  184.5750  178.7100  146.2260 C   0  0  0  0  0  3  0  0  0  0  0  0
  1  2  1  0  0  0  0
  1  7  1  0  0  0  0
  2  6  1  0  0  0  0
  4  3  2  0  0  0  0
  5 21  1  0  0  0  0
  5 28  1  0  0  0  0
  6 11  1  0  0  0  0
  7  9  1  0  0  0  0
  7 17  2  0  0  0  0
  8 14  1  0  0  0  0
  9 12  2  0  0  0  0
 10 15  1  0  0  0  0
 10 16  1  0  0  0  0
 11 21  2  0  0  0  0
 12  4  1  0  0  0  0
 13  5  2  0  0  0  0
 14 16  2  0  0  0  0
 15 18  1  6  0  0  0
 15 20  1  0  0  0  0
 16 27  1  0  0  0  0
 17 24  1  0  0  0  0
 18 26  1  0  0  0  0
 20 19  2  0  0  0  0
 20 22  1  0  0  0  0
 21  8  1  0  0  0  0
 22 23  2  0  0  0  0
 23 34  1  0  0  0  0
 24  3  1  0  0  0  0
 24 26  2  0  0  0  0
 25  6  2  0  0  0  0
 25 13  1  0  0  0  0
 27 23  1  0  0  0  0
 28 29  1  0  0  0  0
 29 30  1  0  0  0  0
 30 33  1  0  0  0  0
 30 31  1  1  0  0  0
 32 33  1  0  0  0  0
 34 36  1  0  0  0  0
 35 37  1  0  0  0  0
 36 40  2  0  0  0  0
 37 38  2  0  0  0  0
 39 35  2  0  0  0  0
 39 36  1  0  0  0  0
 40 38  1  0  0  0  0
M  END
>  <MODEL>
4

>  <REMARK>
 VINA RESULT:      -9.1      3.792      5.815
  Name = 
  6 active torsions:
  status: ('A' for Active; 'I' for Inactive)
    1  A    between atoms: C_4  and  C_22
    2  A    between atoms: C_7  and  O_13
    3  A    between atoms: C_10  and  O_13
    4  A    between atoms: C_10  and  C_28
    5  A    between atoms: C_22  and  C_35
    6  A    between atoms: C_28  and  O_30
                            x       y       z     vdW  Elec       q    Type
                         _______ _______ _______ _____ _____    ______ ____

>  <TORSDO>
F 6

$$$$
=
 OpenBabel10222415363D

 40 44  0  0  1  0  0  0  0  0999 V2000
  182.5990  178.1650  138.7250 N   0  0  0  0  0  2  0  0  0  0  0  0
  183.0800  177.1940  138.0230 C   0  0  0  0  0  2  0  0  0  0  0  0
  179.9390  178.1290  142.3900 C   0  0  0  0  0  3  0  0  0  0  0  0
  179.2370  177.3210  141.6500 N   0  0  0  0  0  0  0  0  0  0  0  0
  187.3250  177.1530  137.6670 C   0  0  0  0  0  0  0  0  0  0  0  0
  184.5140  177.2820  137.7240 C   0  0  0  0  0  0  0  0  0  0  0  0
  181.5070  178.0990  139.6250 C   0  0  0  0  0  0  0  0  0  0  0  0
  187.3910  178.6400  139.7360 C   0  0  0  0  0  2  0  0  0  0  0  0
  180.5140  177.0170  139.5330 C   0  0  0  0  0  3  0  0  0  0  0  0
  185.9990  179.6350  142.3620 S   0  0  0  0  0  0  0  0  0  0  0  0
  185.2910  177.9980  138.6400 C   0  0  0  0  0  3  0  0  0  0  0  0
  179.5380  176.7030  140.3890 C   0  0  0  0  0  3  0  0  0  0  0  0
  186.5500  176.4230  136.7370 C   0  0  0  0  0  3  0  0  0  0  0  0
  187.4120  177.7980  140.9290 N   0  0  0  0  0  0  0  0  0  0  0  0
  184.5650  178.7460  143.0570 C   0  0  2  0  0  3  0  0  0  0  0  0
  186.9070  178.1060  142.0900 C   0  0  0  0  0  0  0  0  0  0  0  0
  181.7740  178.7900  140.7170 C   0  0  0  0  0  3  0  0  0  0  0  0
  183.3480  179.5140  142.7940 N   0  0  0  0  0  2  0  0  0  0  0  0
  183.7770  178.6930  145.3110 O   0  0  0  0  0  0  0  0  0  0  0  0
  184.7550  178.5260  144.5360 C   0  0  0  0  0  0  0  0  0  0  0  0
  186.6720  177.9430  138.6280 C   0  0  0  0  0  0  0  0  0  0  0  0
  185.9950  178.0910  145.1180 N   0  0  0  0  0  0  0  0  0  0  0  0
  187.0460  177.5450  144.5780 C   0  0  0  0  0  0  0  0  0  0  0  0
  181.2640  178.6640  142.0710 C   0  0  0  0  0  0  0  0  0  0  0  0
  185.1470  176.4690  136.7780 C   0  0  0  0  0  3  0  0  0  0  0  0
  182.0620  178.9900  143.0430 N   0  0  0  0  0  0  0  0  0  0  0  0
  187.1580  177.2260  143.1850 N   0  0  0  0  0  2  0  0  0  0  0  0
  188.7230  177.0830  137.6630 O   0  0  0  0  0  0  0  0  0  0  0  0
  189.4560  176.4760  136.6060 C   0  0  0  0  0  2  0  0  0  0  0  0
  190.7490  175.8740  137.1390 C   0  0  2  0  0  3  0  0  0  0  0  0
  190.4650  174.7470  137.9130 O   0  0  0  0  0  1  0  0  0  0  0  0
  192.7850  176.4330  137.7980 C   0  0  0  0  0  1  0  0  0  0  0  0
  191.4450  176.8100  137.9070 O   0  0  0  0  0  0  0  0  0  0  0  0
  188.1790  177.1690  145.4690 C   0  0  0  0  0  2  0  0  0  0  0  0
  191.1360  178.9230  143.8680 C   0  0  0  0  0  3  0  0  0  0  0  0
  189.4830  177.4010  144.7780 C   0  0  0  0  0  0  0  0  0  0  0  0
  191.9360  177.8350  143.5050 C   0  0  0  0  0  3  0  0  0  0  0  0
  191.5160  176.5310  143.7850 C   0  0  0  0  0  3  0  0  0  0  0  0
  189.9100  178.7070  144.5060 C   0  0  0  0  0  3  0  0  0  0  0  0
  190.2900  176.3140  144.4240 C   0  0  0  0  0  3  0  0  0  0  0  0
  1  7  1  0  0  0  0
  2  1  1  0  0  0  0
  4  3  2  0  0  0  0
  5 21  1  0  0  0  0
  6  2  1  0  0  0  0
  6 11  1  0  0  0  0
  7 17  2  0  0  0  0
  8 14  1  0  0  0  0
  9  7  1  0  0  0  0
  9 12  2  0  0  0  0
 12  4  1  0  0  0  0
 13 25  1  0  0  0  0
 13  5  2  0  0  0  0
 14 16  2  0  0  0  0
 15 10  1  1  0  0  0
 15 20  1  0  0  0  0
 16 10  1  0  0  0  0
 16 27  1  0  0  0  0
 17 24  1  0  0  0  0
 18 26  1  0  0  0  0
 18 15  1  0  0  0  0
 20 22  1  0  0  0  0
 20 19  2  0  0  0  0
 21 11  2  0  0  0  0
 21  8  1  0  0  0  0
 23 22  2  0  0  0  0
 23 34  1  0  0  0  0
 24  3  1  0  0  0  0
 24 26  2  0  0  0  0
 25  6  2  0  0  0  0
 27 23  1  0  0  0  0
 28  5  1  0  0  0  0
 29 30  1  0  0  0  0
 29 28  1  0  0  0  0
 30 33  1  0  0  0  0
 30 31  1  1  0  0  0
 32 33  1  0  0  0  0
 35 39  1  0  0  0  0
 36 34  1  0  0  0  0
 37 38  1  0  0  0  0
 37 35  2  0  0  0  0
 38 40  2  0  0  0  0
 39 36  2  0  0  0  0
 40 36  1  0  0  0  0
M  END
>  <MODEL>
5

>  <REMARK>
 VINA RESULT:      -8.9      3.114      5.050
  Name = 
  6 active torsions:
  status: ('A' for Active; 'I' for Inactive)
    1  A    between atoms: C_4  and  C_22
    2  A    between atoms: C_7  and  O_13
    3  A    between atoms: C_10  and  O_13
    4  A    between atoms: C_10  and  C_28
    5  A    between atoms: C_22  and  C_35
    6  A    between atoms: C_28  and  O_30
                            x       y       z     vdW  Elec       q    Type
                         _______ _______ _______ _____ _____    ______ ____

>  <TORSDO>
F 6

$$$$
=
 OpenBabel10222415363D

 40 44  0  0  1  0  0  0  0  0999 V2000
  186.2130  174.9420  136.3620 N   0  0  0  0  0  2  0  0  0  0  0  0
  187.2850  174.3870  136.8200 C   0  0  0  0  0  2  0  0  0  0  0  0
  181.8450  174.0460  137.1540 C   0  0  0  0  0  3  0  0  0  0  0  0
  182.2330  172.8320  136.8870 N   0  0  0  0  0  0  0  0  0  0  0  0
  189.9850  177.0240  138.7940 C   0  0  0  0  0  0  0  0  0  0  0  0
  188.3100  175.3100  137.3180 C   0  0  0  0  0  0  0  0  0  0  0  0
  184.9050  174.3960  136.3700 C   0  0  0  0  0  0  0  0  0  0  0  0
  188.0230  178.6270  139.0740 C   0  0  0  0  0  2  0  0  0  0  0  0
  184.6920  172.9470  136.5040 C   0  0  0  0  0  3  0  0  0  0  0  0
  184.9230  179.0580  139.2500 S   0  0  0  0  0  0  0  0  0  0  0  0
  187.8510  176.5460  137.7850 C   0  0  0  0  0  3  0  0  0  0  0  0
  183.5490  172.2860  136.7060 C   0  0  0  0  0  3  0  0  0  0  0  0
  190.4590  175.7770  138.3290 C   0  0  0  0  0  3  0  0  0  0  0  0
  187.3180  178.3080  140.3130 N   0  0  0  0  0  0  0  0  0  0  0  0
  183.7930  177.6460  139.4930 C   0  0  2  0  0  3  0  0  0  0  0  0
  186.0440  178.4750  140.5310 C   0  0  0  0  0  0  0  0  0  0  0  0
  184.0260  175.3250  136.6960 C   0  0  0  0  0  3  0  0  0  0  0  0
  183.1100  177.3530  138.2320 N   0  0  0  0  0  2  0  0  0  0  0  0
  181.5970  177.6210  140.4310 O   0  0  0  0  0  0  0  0  0  0  0  0
  182.8010  177.9530  140.5850 C   0  0  0  0  0  0  0  0  0  0  0  0
  188.6600  177.3990  138.5140 C   0  0  0  0  0  0  0  0  0  0  0  0
  183.1620  178.5770  141.8290 N   0  0  0  0  0  0  0  0  0  0  0  0
  184.3210  178.7360  142.3980 C   0  0  0  0  0  0  0  0  0  0  0  0
  182.7100  175.2170  137.3000 C   0  0  0  0  0  0  0  0  0  0  0  0
  189.6180  174.9110  137.6110 C   0  0  0  0  0  3  0  0  0  0  0  0
  182.3190  176.1980  138.0590 N   0  0  0  0  0  0  0  0  0  0  0  0
  185.5560  178.2540  141.8540 N   0  0  0  0  0  2  0  0  0  0  0  0
  190.8000  177.8790  139.5450 O   0  0  0  0  0  0  0  0  0  0  0  0
  191.7470  177.3980  140.4910 C   0  0  0  0  0  2  0  0  0  0  0  0
  191.0840  177.1920  141.8450 C   0  0  2  0  0  3  0  0  0  0  0  0
  190.3550  176.0010  141.8420 O   0  0  0  0  0  1  0  0  0  0  0  0
  190.5530  178.6110  143.4570 C   0  0  0  0  0  1  0  0  0  0  0  0
  190.2360  178.2620  142.1420 O   0  0  0  0  0  0  0  0  0  0  0  0
  184.3650  179.4050  143.7290 C   0  0  0  0  0  2  0  0  0  0  0  0
  187.3670  177.4050  144.9010 C   0  0  0  0  0  3  0  0  0  0  0  0
  185.3550  178.7280  144.6200 C   0  0  0  0  0  0  0  0  0  0  0  0
  187.2200  177.4800  146.2890 C   0  0  0  0  0  3  0  0  0  0  0  0
  186.1480  178.1850  146.8450 C   0  0  0  0  0  3  0  0  0  0  0  0
  186.4350  178.0300  144.0650 C   0  0  0  0  0  3  0  0  0  0  0  0
  185.2170  178.8110  146.0100 C   0  0  0  0  0  3  0  0  0  0  0  0
  1  7  1  0  0  0  0
  1  2  1  0  0  0  0
  2  6  1  0  0  0  0
  3 24  1  0  0  0  0
  4  3  2  0  0  0  0
  5 28  1  0  0  0  0
  6 25  2  0  0  0  0
  6 11  1  0  0  0  0
  7  9  1  0  0  0  0
  7 17  2  0  0  0  0
  8 14  1  0  0  0  0
  9 12  2  0  0  0  0
 10 15  1  0  0  0  0
 10 16  1  0  0  0  0
 11 21  2  0  0  0  0
 12  4  1  0  0  0  0
 13  5  2  0  0  0  0
 14 16  2  0  0  0  0
 15 18  1  6  0  0  0
 15 20  1  0  0  0  0
 16 27  1  0  0  0  0
 17 24  1  0  0  0  0
 19 20  2  0  0  0  0
 20 22  1  0  0  0  0
 21  5  1  0  0  0  0
 21  8  1  0  0  0  0
 22 23  2  0  0  0  0
 23 34  1  0  0  0  0
 24 26  2  0  0  0  0
 25 13  1  0  0  0  0
 26 18  1  0  0  0  0
 27 23  1  0  0  0  0
 28 29  1  0  0  0  0
 29 30  1  0  0  0  0
 30 31  1  6  0  0  0
 30 33  1  0  0  0  0
 33 32  1  0  0  0  0
 34 36  1  0  0  0  0
 35 37  1  0  0  0  0
 36 40  2  0  0  0  0
 37 38  2  0  0  0  0
 39 36  1  0  0  0  0
 39 35  2  0  0  0  0
 40 38  1  0  0  0  0
M  END
>  <MODEL>
6

>  <REMARK>
 VINA RESULT:      -8.5      2.866      4.125
  Name = 
  6 active torsions:
  status: ('A' for Active; 'I' for Inactive)
    1  A    between atoms: C_4  and  C_22
    2  A    between atoms: C_7  and  O_13
    3  A    between atoms: C_10  and  O_13
    4  A    between atoms: C_10  and  C_28
    5  A    between atoms: C_22  and  C_35
    6  A    between atoms: C_28  and  O_30
                            x       y       z     vdW  Elec       q    Type
                         _______ _______ _______ _____ _____    ______ ____

>  <TORSDO>
F 6

$$$$
=
 OpenBabel10222415363D

 40 44  0  0  1  0  0  0  0  0999 V2000
  186.7890  178.7310  142.3530 N   0  0  0  0  0  2  0  0  0  0  0  0
  185.7280  178.3740  142.9980 C   0  0  0  0  0  2  0  0  0  0  0  0
  190.5560  176.4280  141.3460 C   0  0  0  0  0  3  0  0  0  0  0  0
  190.5090  176.1510  142.6170 N   0  0  0  0  0  2  0  0  0  0  0  0
  182.0760  178.8070  140.8490 C   0  0  0  0  0  0  0  0  0  0  0  0
  184.4550  178.7060  142.3500 C   0  0  0  0  0  0  0  0  0  0  0  0
  188.0530  178.0920  142.3810 C   0  0  0  0  0  0  0  0  0  0  0  0
  183.4740  178.8320  138.7180 C   0  0  0  0  0  2  0  0  0  0  0  0
  188.4270  177.2020  143.4910 C   0  0  0  0  0  3  0  0  0  0  0  0
  186.1290  178.0460  137.2490 S   0  0  0  0  0  0  0  0  0  0  0  0
  184.4820  178.8100  140.9560 C   0  0  0  0  0  3  0  0  0  0  0  0
  189.4840  176.3920  143.5940 C   0  0  0  0  0  3  0  0  0  0  0  0
  182.0360  178.7000  142.2580 C   0  0  0  0  0  3  0  0  0  0  0  0
  183.6650  177.4600  138.2560 N   0  0  0  0  0  0  0  0  0  0  0  0
  187.2800  176.8320  137.9800 C   0  0  2  0  0  3  0  0  0  0  0  0
  184.7000  177.0120  137.6020 C   0  0  0  0  0  0  0  0  0  0  0  0
  188.5650  178.0430  141.1660 C   0  0  0  0  0  3  0  0  0  0  0  0
  188.4480  177.5350  138.5120 N   0  0  0  0  0  2  0  0  0  0  0  0
  188.8890  175.4420  136.8930 O   0  0  0  0  0  0  0  0  0  0  0  0
  187.6870  175.8120  136.9470 C   0  0  0  0  0  0  0  0  0  0  0  0
  183.3230  178.8580  140.2030 C   0  0  0  0  0  0  0  0  0  0  0  0
  186.7630  175.2000  136.0340 N   0  0  0  0  0  0  0  0  0  0  0  0
  185.4630  175.1300  136.0530 C   0  0  0  0  0  0  0  0  0  0  0  0
  189.5280  177.1290  140.5760 C   0  0  0  0  0  0  0  0  0  0  0  0
  183.2220  178.6280  143.0070 C   0  0  0  0  0  3  0  0  0  0  0  0
  189.4180  176.8850  139.3040 N   0  0  0  0  0  2  0  0  0  0  0  0
  184.6450  175.6790  137.0940 N   0  0  0  0  0  2  0  0  0  0  0  0
  180.9020  178.8390  140.0880 O   0  0  0  0  0  0  0  0  0  0  0  0
  179.6230  178.5510  140.6410 C   0  0  0  0  0  2  0  0  0  0  0  0
  179.2210  177.1170  140.3230 C   0  0  2  0  0  3  0  0  0  0  0  0
  179.3050  176.3330  141.4750 O   0  0  0  0  0  1  0  0  0  0  0  0
  180.4770  175.3610  139.8430 C   0  0  0  0  0  1  0  0  0  0  0  0
  180.0480  176.5870  139.3300 O   0  0  0  0  0  0  0  0  0  0  0  0
  184.7830  174.3800  134.9600 C   0  0  0  0  0  2  0  0  0  0  0  0
  183.4360  171.3760  136.8430 C   0  0  0  0  0  3  0  0  0  0  0  0
  183.8370  173.3740  135.5300 C   0  0  0  0  0  0  0  0  0  0  0  0
  182.0630  171.5030  136.6140 C   0  0  0  0  0  3  0  0  0  0  0  0
  181.5730  172.5680  135.8510 C   0  0  0  0  0  3  0  0  0  0  0  0
  184.3240  172.3120  136.3030 C   0  0  0  0  0  3  0  0  0  0  0  0
  182.4610  173.5050  135.3110 C   0  0  0  0  0  3  0  0  0  0  0  0
  1  7  1  0  0  0  0
  1  2  1  0  0  0  0
  3  4  1  0  0  0  0
  4 12  1  0  0  0  0
  5 13  1  0  0  0  0
  6  2  1  0  0  0  0
  6 25  1  0  0  0  0
  7  9  1  0  0  0  0
  8 21  1  0  0  0  0
  9 12  2  0  0  0  0
 10 16  1  0  0  0  0
 10 15  1  0  0  0  0
 11  6  2  0  0  0  0
 13 25  2  0  0  0  0
 14  8  1  0  0  0  0
 15 20  1  6  0  0  0
 15 18  1  0  0  0  0
 16 14  2  0  0  0  0
 17  7  2  0  0  0  0
 18 26  1  0  0  0  0
 19 20  2  0  0  0  0
 21  5  2  0  0  0  0
 21 11  1  0  0  0  0
 22 23  2  0  0  0  0
 22 20  1  0  0  0  0
 23 27  1  0  0  0  0
 24 17  1  0  0  0  0
 24  3  2  0  0  0  0
 26 24  1  0  0  0  0
 27 16  1  0  0  0  0
 28 29  1  0  0  0  0
 28  5  1  0  0  0  0
 30 29  1  0  0  0  0
 30 31  1  1  0  0  0
 33 32  1  0  0  0  0
 33 30  1  0  0  0  0
 34 36  1  0  0  0  0
 34 23  1  0  0  0  0
 36 39  1  0  0  0  0
 37 35  1  0  0  0  0
 38 37  2  0  0  0  0
 39 35  2  0  0  0  0
 40 36  2  0  0  0  0
 40 38  1  0  0  0  0
M  END
>  <MODEL>
7

>  <REMARK>
 VINA RESULT:      -8.5      3.365     10.081
  Name = 
  6 active torsions:
  status: ('A' for Active; 'I' for Inactive)
    1  A    between atoms: C_4  and  C_22
    2  A    between atoms: C_7  and  O_13
    3  A    between atoms: C_10  and  O_13
    4  A    between atoms: C_10  and  C_28
    5  A    between atoms: C_22  and  C_35
    6  A    between atoms: C_28  and  O_30
                            x       y       z     vdW  Elec       q    Type
                         _______ _______ _______ _____ _____    ______ ____

>  <TORSDO>
F 6

$$$$
=
 OpenBabel10222415363D

 40 44  0  0  1  0  0  0  0  0999 V2000
  186.6300  176.9760  137.1070 N   0  0  0  0  0  2  0  0  0  0  0  0
  187.5960  176.1480  137.3310 C   0  0  0  0  0  2  0  0  0  0  0  0
  182.1420  176.4210  137.3480 C   0  0  0  0  0  3  0  0  0  0  0  0
  182.4140  175.3760  136.6220 N   0  0  0  0  0  0  0  0  0  0  0  0
  190.4040  177.4000  140.2780 C   0  0  0  0  0  0  0  0  0  0  0  0
  188.6730  176.6520  138.1880 C   0  0  0  0  0  0  0  0  0  0  0  0
  185.2740  176.6490  136.8580 C   0  0  0  0  0  0  0  0  0  0  0  0
  188.6130  179.0010  141.1290 C   0  0  0  0  0  2  0  0  0  0  0  0
  184.8940  175.3090  136.3870 C   0  0  0  0  0  3  0  0  0  0  0  0
  185.5750  179.7300  141.3810 S   0  0  0  0  0  0  0  0  0  0  0  0
  188.3170  177.6490  139.1030 C   0  0  0  0  0  3  0  0  0  0  0  0
  183.6730  174.7790  136.2710 C   0  0  0  0  0  3  0  0  0  0  0  0
  190.7740  176.3910  139.3610 C   0  0  0  0  0  3  0  0  0  0  0  0
  187.7830  178.3100  142.1130 N   0  0  0  0  0  0  0  0  0  0  0  0
  184.2820  178.5000  140.9980 C   0  0  2  0  0  3  0  0  0  0  0  0
  186.5220  178.5420  142.3450 C   0  0  0  0  0  0  0  0  0  0  0  0
  184.4790  177.4780  137.5070 C   0  0  0  0  0  3  0  0  0  0  0  0
  183.6720  178.8270  139.7090 N   0  0  0  0  0  2  0  0  0  0  0  0
  182.0300  178.3920  141.7850 O   0  0  0  0  0  0  0  0  0  0  0  0
  183.2470  178.4740  142.0940 C   0  0  0  0  0  0  0  0  0  0  0  0
  189.1550  178.0250  140.1370 C   0  0  0  0  0  0  0  0  0  0  0  0
  183.5760  178.4960  143.4920 N   0  0  0  0  0  0  0  0  0  0  0  0
  184.6970  178.2610  144.1090 C   0  0  0  0  0  0  0  0  0  0  0  0
  183.1160  177.3130  137.9800 C   0  0  0  0  0  0  0  0  0  0  0  0
  189.9030  176.0010  138.3300 C   0  0  0  0  0  3  0  0  0  0  0  0
  182.7760  177.9510  139.0600 N   0  0  0  0  0  0  0  0  0  0  0  0
  185.9110  177.8780  143.4510 N   0  0  0  0  0  2  0  0  0  0  0  0
  191.2470  177.7680  141.3340 O   0  0  0  0  0  0  0  0  0  0  0  0
  190.9240  177.5150  142.6950 C   0  0  0  0  0  2  0  0  0  0  0  0
  191.2780  176.0810  143.0640 C   0  0  2  0  0  3  0  0  0  0  0  0
  190.1800  175.2470  142.8430 O   0  0  0  0  0  1  0  0  0  0  0  0
  191.6800  177.3270  144.8470 C   0  0  0  0  0  1  0  0  0  0  0  0
  191.6680  176.0030  144.4030 O   0  0  0  0  0  0  0  0  0  0  0  0
  184.7090  178.3320  145.5970 C   0  0  0  0  0  2  0  0  0  0  0  0
  187.7700  178.4680  147.8330 C   0  0  0  0  0  3  0  0  0  0  0  0
  186.0930  178.1180  146.1180 C   0  0  0  0  0  0  0  0  0  0  0  0
  188.6780  177.6980  147.1020 C   0  0  0  0  0  3  0  0  0  0  0  0
  188.2950  177.1300  145.8820 C   0  0  0  0  0  3  0  0  0  0  0  0
  186.4770  178.6780  147.3430 C   0  0  0  0  0  3  0  0  0  0  0  0
  187.0010  177.3380  145.3920 C   0  0  0  0  0  3  0  0  0  0  0  0
  1  2  1  0  0  0  0
  2  6  1  0  0  0  0
  3 24  1  0  0  0  0
  4  3  2  0  0  0  0
  5 28  1  0  0  0  0
  6 25  2  0  0  0  0
  6 11  1  0  0  0  0
  7  1  1  0  0  0  0
  7 17  2  0  0  0  0
  8 14  1  0  0  0  0
  9  7  1  0  0  0  0
 10 16  1  0  0  0  0
 11 21  2  0  0  0  0
 12  9  2  0  0  0  0
 12  4  1  0  0  0  0
 13  5  2  0  0  0  0
 14 16  2  0  0  0  0
 15 18  1  6  0  0  0
 15 10  1  0  0  0  0
 15 20  1  0  0  0  0
 16 27  1  0  0  0  0
 17 24  1  0  0  0  0
 19 20  2  0  0  0  0
 20 22  1  0  0  0  0
 21  5  1  0  0  0  0
 21  8  1  0  0  0  0
 22 23  2  0  0  0  0
 23 34  1  0  0  0  0
 24 26  2  0  0  0  0
 25 13  1  0  0  0  0
 26 18  1  0  0  0  0
 27 23  1  0  0  0  0
 28 29  1  0  0  0  0
 29 30  1  0  0  0  0
 30 31  1  1  0  0  0
 30 33  1  0  0  0  0
 33 32  1  0  0  0  0
 34 36  1  0  0  0  0
 36 39  2  0  0  0  0
 37 35  2  0  0  0  0
 38 37  1  0  0  0  0
 39 35  1  0  0  0  0
 40 38  2  0  0  0  0
 40 36  1  0  0  0  0
M  END
>  <MODEL>
8

>  <REMARK>
 VINA RESULT:      -8.2      3.029      4.198
  Name = 
  6 active torsions:
  status: ('A' for Active; 'I' for Inactive)
    1  A    between atoms: C_4  and  C_22
    2  A    between atoms: C_7  and  O_13
    3  A    between atoms: C_10  and  O_13
    4  A    between atoms: C_10  and  C_28
    5  A    between atoms: C_22  and  C_35
    6  A    between atoms: C_28  and  O_30
                            x       y       z     vdW  Elec       q    Type
                         _______ _______ _______ _____ _____    ______ ____

>  <TORSDO>
F 6

$$$$
=
 OpenBabel10222415363D

 40 44  0  0  1  0  0  0  0  0999 V2000
  184.7260  174.9670  136.1770 N   0  0  0  0  0  2  0  0  0  0  0  0
  185.8210  174.3420  136.4540 C   0  0  0  0  0  2  0  0  0  0  0  0
  180.5170  174.4040  137.7510 C   0  0  0  0  0  3  0  0  0  0  0  0
  180.7660  173.1620  137.4540 N   0  0  0  0  0  0  0  0  0  0  0  0
  189.0050  176.8040  137.8480 C   0  0  0  0  0  0  0  0  0  0  0  0
  186.9800  175.1940  136.7390 C   0  0  0  0  0  0  0  0  0  0  0  0
  183.4060  174.5180  136.4310 C   0  0  0  0  0  0  0  0  0  0  0  0
  187.2400  178.5500  138.4250 C   0  0  0  0  0  2  0  0  0  0  0  0
  183.1200  173.0910  136.6400 C   0  0  0  0  0  3  0  0  0  0  0  0
  184.2590  179.2090  139.1340 S   0  0  0  0  0  0  0  0  0  0  0  0
  186.6990  176.4670  137.2440 C   0  0  0  0  0  3  0  0  0  0  0  0
  181.9880  172.5180  137.0580 C   0  0  0  0  0  3  0  0  0  0  0  0
  189.3020  175.5180  137.3420 C   0  0  0  0  0  3  0  0  0  0  0  0
  186.7460  178.3010  139.7780 N   0  0  0  0  0  0  0  0  0  0  0  0
  183.0950  177.8860  139.6100 C   0  0  2  0  0  3  0  0  0  0  0  0
  185.5460  178.5640  140.2120 C   0  0  0  0  0  0  0  0  0  0  0  0
  182.6650  175.5140  136.8800 C   0  0  0  0  0  3  0  0  0  0  0  0
  182.1800  177.6260  138.4980 N   0  0  0  0  0  2  0  0  0  0  0  0
  181.1040  178.0360  140.9210 O   0  0  0  0  0  0  0  0  0  0  0  0
  182.3360  178.2820  140.8510 C   0  0  0  0  0  0  0  0  0  0  0  0
  187.6810  177.2690  137.7960 C   0  0  0  0  0  0  0  0  0  0  0  0
  182.9550  178.8960  141.9940 N   0  0  0  0  0  0  0  0  0  0  0  0
  184.2050  178.9780  142.3460 C   0  0  0  0  0  0  0  0  0  0  0  0
  181.4740  175.5110  137.7100 C   0  0  0  0  0  0  0  0  0  0  0  0
  188.2890  174.7050  136.8080 C   0  0  0  0  0  3  0  0  0  0  0  0
  181.2930  176.5290  138.4990 N   0  0  0  0  0  0  0  0  0  0  0  0
  185.2870  178.3990  141.6060 N   0  0  0  0  0  2  0  0  0  0  0  0
  189.9980  177.6070  138.4210 O   0  0  0  0  0  0  0  0  0  0  0  0
  190.6020  177.3040  139.6720 C   0  0  0  0  0  2  0  0  0  0  0  0
  192.0120  176.7690  139.4620 C   0  0  2  0  0  3  0  0  0  0  0  0
  192.9160  177.4930  140.2410 O   0  0  0  0  0  1  0  0  0  0  0  0
  193.3000  175.8300  137.9290 C   0  0  0  0  0  1  0  0  0  0  0  0
  192.3730  176.8570  138.1160 O   0  0  0  0  0  0  0  0  0  0  0  0
  184.5310  179.6620  143.6290 C   0  0  0  0  0  2  0  0  0  0  0  0
  187.2220  177.1740  144.6070 C   0  0  0  0  0  3  0  0  0  0  0  0
  185.4410  178.8130  144.4550 C   0  0  0  0  0  0  0  0  0  0  0  0
  187.1610  177.2400  146.0020 C   0  0  0  0  0  3  0  0  0  0  0  0
  186.2480  178.0960  146.6260 C   0  0  0  0  0  3  0  0  0  0  0  0
  186.3630  177.9610  143.8320 C   0  0  0  0  0  3  0  0  0  0  0  0
  185.3900  178.8850  145.8510 C   0  0  0  0  0  3  0  0  0  0  0  0
  1  7  1  0  0  0  0
  1  2  1  0  0  0  0
  2  6  1  0  0  0  0
  4  3  2  0  0  0  0
  5 28  1  0  0  0  0
  6 25  2  0  0  0  0
  6 11  1  0  0  0  0
  7  9  1  0  0  0  0
  7 17  2  0  0  0  0
  8 14  1  0  0  0  0
  9 12  2  0  0  0  0
 10 15  1  0  0  0  0
 10 16  1  0  0  0  0
 11 21  2  0  0  0  0
 12  4  1  0  0  0  0
 13  5  2  0  0  0  0
 14 16  2  0  0  0  0
 15 18  1  6  0  0  0
 15 20  1  0  0  0  0
 16 27  1  0  0  0  0
 17 24  1  0  0  0  0
 18 26  1  0  0  0  0
 20 19  2  0  0  0  0
 20 22  1  0  0  0  0
 21  5  1  0  0  0  0
 21  8  1  0  0  0  0
 22 23  2  0  0  0  0
 23 34  1  0  0  0  0
 24  3  1  0  0  0  0
 24 26  2  0  0  0  0
 25 13  1  0  0  0  0
 27 23  1  0  0  0  0
 28 29  1  0  0  0  0
 30 29  1  0  0  0  0
 30 31  1  1  0  0  0
 32 33  1  0  0  0  0
 33 30  1  0  0  0  0
 34 36  1  0  0  0  0
 35 37  1  0  0  0  0
 36 40  2  0  0  0  0
 37 38  2  0  0  0  0
 39 36  1  0  0  0  0
 39 35  2  0  0  0  0
 40 38  1  0  0  0  0
M  END
>  <MODEL>
9

>  <REMARK>
 VINA RESULT:      -8.1      2.613      4.025
  Name = 
  6 active torsions:
  status: ('A' for Active; 'I' for Inactive)
    1  A    between atoms: C_4  and  C_22
    2  A    between atoms: C_7  and  O_13
    3  A    between atoms: C_10  and  O_13
    4  A    between atoms: C_10  and  C_28
    5  A    between atoms: C_22  and  C_35
    6  A    between atoms: C_28  and  O_30
                            x       y       z     vdW  Elec       q    Type
                         _______ _______ _______ _____ _____    ______ ____

>  <TORSDO>
F 6

$$$$
