=
 OpenBabel10222418163D

 59 63  0  0  1  0  0  0  0  0999 V2000
  189.3870  177.6280  140.8850 C   0  0  0  0  0  3  0  0  0  0  0  0
  190.0560  177.4310  139.7710 C   0  0  0  0  0  0  0  0  0  0  0  0
  189.0940  177.3360  138.6220 C   0  0  1  0  0  3  0  0  0  0  0  0
  188.0060  177.6840  140.5730 N   0  0  0  0  0  0  0  0  0  0  0  0
  187.7550  177.5050  139.2030 N   0  0  0  0  0  2  0  0  0  0  0  0
  185.8510  178.5880  141.1760 C   0  0  0  0  0  3  0  0  0  0  0  0
  186.9560  177.9130  141.5230 C   0  0  0  0  0  0  0  0  0  0  0  0
  187.0850  177.3760  142.9260 C   0  0  0  0  0  2  0  0  0  0  0  0
  185.3150  179.0750  143.5290 C   0  0  0  0  0  0  0  0  0  0  0  0
  186.5960  178.3950  143.9650 C   0  0  1  0  0  3  0  0  0  0  0  0
  184.7420  179.8450  144.2840 O   0  0  0  0  0  0  0  0  0  0  0  0
  184.7430  178.8120  142.1630 C   0  0  0  0  0  2  0  0  0  0  0  0
  186.4030  177.7200  145.2390 N   0  0  0  0  0  2  0  0  0  0  0  0
  187.1590  178.4640  146.2320 C   0  0  0  0  0  2  0  0  0  0  0  0
  188.4850  176.7870  147.6440 C   0  0  0  0  0  3  0  0  0  0  0  0
  190.3880  176.8000  146.5950 N   0  0  0  0  0  0  0  0  0  0  0  0
  191.7580  176.4610  146.2480 C   0  0  0  0  0  1  0  0  0  0  0  0
  189.7300  176.2590  147.6110 N   0  0  0  0  0  0  0  0  0  0  0  0
  188.3820  177.6970  146.6060 C   0  0  0  0  0  0  0  0  0  0  0  0
  189.5960  177.6750  145.9560 C   0  0  0  0  0  0  0  0  0  0  0  0
  189.9830  178.4700  144.7500 C   0  0  0  0  0  1  0  0  0  0  0  0
  193.4540  176.2110  138.5300 C   0  0  0  0  0  3  0  0  0  0  0  0
  192.2670  177.8800  140.4580 O   0  0  0  0  0  0  0  0  0  0  0  0
  191.4960  175.6520  137.7360 C   0  0  0  0  0  3  0  0  0  0  0  0
  193.6620  175.3360  137.4800 C   0  0  0  0  0  0  0  0  0  0  0  0
  191.5230  177.2510  139.6550 C   0  0  0  0  0  0  0  0  0  0  0  0
  192.4240  174.9660  136.9740 C   0  0  0  0  0  3  0  0  0  0  0  0
  192.1280  176.3970  138.6660 N   0  0  0  0  0  0  0  0  0  0  0  0
  194.9400  174.8300  137.0310 N   0  0  0  0  0  0  0  0  0  0  0  0
  196.7660  175.2900  135.6190 O   0  0  0  0  0  1  0  0  0  0  0  0
  195.5740  173.7670  137.7770 C   0  0  0  0  0  0  0  0  0  0  0  0
  194.6980  175.7330  134.7530 O   0  0  0  0  0  0  0  0  0  0  0  0
  194.8950  172.7610  138.1150 O   0  0  0  0  0  0  0  0  0  0  0  0
  195.5170  175.2960  135.7920 C   0  0  0  0  0  0  0  0  0  0  0  0
  197.0160  173.8320  138.2040 C   0  0  1  0  0  3  0  0  0  0  0  0
  197.9150  173.1300  137.1970 C   0  0  0  0  0  1  0  0  0  0  0  0
  197.4300  175.1560  138.3930 O   0  0  0  0  0  0  0  0  0  0  0  0
  198.2970  175.1160  139.4920 C   0  0  0  0  0  2  0  0  0  0  0  0
  197.5170  175.3980  140.7660 C   0  0  0  0  0  1  0  0  0  0  0  0
  188.9120  179.6640  138.0190 O   0  0  0  0  0  1  0  0  0  0  0  0
  189.3680  178.4150  137.5740 C   0  0  2  0  0  3  0  0  0  0  0  0
  188.6990  178.0390  136.2600 C   0  0  0  0  0  2  0  0  0  0  0  0
  187.2670  178.5450  136.2230 C   0  0  0  0  0  2  0  0  0  0  0  0
  186.3620  177.5100  135.5680 C   0  0  0  0  0  2  0  0  0  0  0  0
  185.8860  176.4440  136.5560 C   0  0  1  0  0  3  0  0  0  0  0  0
  183.4770  175.3280  137.0310 O   0  0  0  0  0  0  0  0  0  0  0  0
  183.5240  177.3480  135.6260 O   0  0  0  0  0  0  0  0  0  0  0  0
  184.1320  176.6660  136.8250 S   0  0  0  0  0  0  0  0  0  0  0  0
  183.9050  177.6410  138.2350 N   0  0  0  0  0  2  0  0  0  0  0  0
  182.8480  178.6020  137.9390 C   0  0  0  0  0  2  0  0  0  0  0  0
  182.3040  180.8530  138.5590 O   0  0  0  0  0  1  0  0  0  0  0  0
  181.6970  179.1350  140.0940 C   0  0  0  0  0  1  0  0  0  0  0  0
  182.6990  179.6100  139.0640 C   0  0  1  0  0  3  0  0  0  0  0  0
  186.1190  175.1690  136.0330 O   0  0  0  0  0  0  0  0  0  0  0  0
  188.8620  173.0470  136.8130 C   0  0  0  0  0  2  0  0  0  0  0  0
  186.9910  174.5460  136.9310 C   0  0  0  0  0  3  0  0  0  0  0  0
  187.6270  172.1900  136.9910 C   0  0  0  0  0  2  0  0  0  0  0  0
  188.3560  174.3700  136.2960 C   0  0  0  0  0  2  0  0  0  0  0  0
  186.4860  173.1550  137.2580 C   0  0  0  0  0  2  0  0  0  0  0  0
  2  1  2  0  0  0  0
  3 41  1  6  0  0  0
  3  5  1  0  0  0  0
  3  2  1  0  0  0  0
  4  1  1  0  0  0  0
  4  7  1  0  0  0  0
  5  4  1  0  0  0  0
  6  7  2  0  0  0  0
  6 12  1  0  0  0  0
  7  8  1  0  0  0  0
  8 10  1  0  0  0  0
  9 10  1  0  0  0  0
  9 11  2  0  0  0  0
 10 13  1  1  0  0  0
 12  9  1  0  0  0  0
 13 14  1  0  0  0  0
 14 19  1  0  0  0  0
 16 18  1  0  0  0  0
 17 16  1  0  0  0  0
 18 15  2  0  0  0  0
 19 15  1  0  0  0  0
 20 16  1  0  0  0  0
 20 19  2  0  0  0  0
 21 20  1  0  0  0  0
 22 28  1  0  0  0  0
 24 28  1  0  0  0  0
 25 22  2  0  0  0  0
 26  2  1  0  0  0  0
 26 23  2  0  0  0  0
 27 25  1  0  0  0  0
 27 24  2  0  0  0  0
 28 26  1  0  0  0  0
 29 25  1  0  0  0  0
 29 31  1  0  0  0  0
 30 34  1  0  0  0  0
 31 33  2  0  0  0  0
 31 35  1  0  0  0  0
 32 34  2  0  0  0  0
 34 29  1  0  0  0  0
 35 36  1  6  0  0  0
 35 37  1  0  0  0  0
 37 38  1  0  0  0  0
 38 39  1  0  0  0  0
 41 40  1  1  0  0  0
 42 41  1  0  0  0  0
 43 42  1  0  0  0  0
 44 43  1  0  0  0  0
 45 44  1  6  0  0  0
 45 48  1  0  0  0  0
 47 48  2  0  0  0  0
 48 46  2  0  0  0  0
 48 49  1  0  0  0  0
 50 49  1  0  0  0  0
 50 53  1  0  0  0  0
 51 53  1  0  0  0  0
 53 52  1  1  0  0  0
 54 45  1  0  0  0  0
 54 56  1  0  0  0  0
 55 57  1  0  0  0  0
 56 59  1  0  0  0  0
 57 59  1  0  0  0  0
 58 55  1  0  0  0  0
 58 56  1  0  0  0  0
M  END
>  <MODEL>
1

>  <REMARK>
 VINA RESULT:      -7.6      0.000      0.000
  Name = 
  20 active torsions:
  status: ('A' for Active; 'I' for Inactive)
    1  A    between atoms: O_1  and  C_7
    2  A    between atoms: O_1  and  C_29
    3  A    between atoms: N_4  and  C_5
    4  A    between atoms: N_4  and  C_38
    5  A    between atoms: C_5  and  C_46
    6  A    between atoms: C_6  and  N_48
    7  A    between atoms: C_6  and  C_52
    8  A    between atoms: C_7  and  C_39
    9  A    between atoms: C_10  and  C_15
   10  A    between atoms: C_10  and  O_17
   11  A    between atoms: C_10  and  S_51
   12  A    between atoms: N_11  and  C_22
   13  A    between atoms: C_14  and  O_17
   14  A    between atoms: C_15  and  C_24
   15  A    between atoms: C_18  and  N_42
   16  A    between atoms: C_24  and  C_31
   17  A    between atoms: C_31  and  C_54
   18  A    between atoms: C_33  and  C_34
   19  A    between atoms: C_36  and  C_54
   20  A    between atoms: N_48  and  S_51
                            x       y       z     vdW  Elec       q    Type
                         _______ _______ _______ _____ _____    ______ ____

>  <TORSDO>
F 20

$$$$
=
 OpenBabel10222418163D

 59 63  0  0  1  0  0  0  0  0999 V2000
  189.3490  177.6350  140.8960 C   0  0  0  0  0  3  0  0  0  0  0  0
  190.0160  177.4500  139.7790 C   0  0  0  0  0  0  0  0  0  0  0  0
  189.0530  177.3680  138.6300 C   0  0  1  0  0  3  0  0  0  0  0  0
  187.9670  177.6960  140.5850 N   0  0  0  0  0  0  0  0  0  0  0  0
  187.7150  177.5330  139.2140 N   0  0  0  0  0  2  0  0  0  0  0  0
  185.8110  178.5900  141.1980 C   0  0  0  0  0  3  0  0  0  0  0  0
  186.9180  177.9160  141.5380 C   0  0  0  0  0  0  0  0  0  0  0  0
  187.0510  177.3710  142.9380 C   0  0  0  0  0  2  0  0  0  0  0  0
  185.2770  179.0600  143.5540 C   0  0  0  0  0  0  0  0  0  0  0  0
  186.5610  178.3810  143.9850 C   0  0  1  0  0  3  0  0  0  0  0  0
  184.7030  179.8240  144.3160 O   0  0  0  0  0  0  0  0  0  0  0  0
  184.7030  178.8040  142.1880 C   0  0  0  0  0  2  0  0  0  0  0  0
  186.3730  177.6970  145.2540 N   0  0  0  0  0  2  0  0  0  0  0  0
  187.1290  178.4370  146.2500 C   0  0  0  0  0  2  0  0  0  0  0  0
  188.5020  176.7600  147.6160 C   0  0  0  0  0  3  0  0  0  0  0  0
  190.3890  176.8200  146.5400 N   0  0  0  0  0  0  0  0  0  0  0  0
  191.7600  176.5090  146.1680 C   0  0  0  0  0  1  0  0  0  0  0  0
  189.7550  176.2530  147.5570 N   0  0  0  0  0  0  0  0  0  0  0  0
  188.3690  177.6830  146.5950 C   0  0  0  0  0  0  0  0  0  0  0  0
  189.5740  177.6920  145.9270 C   0  0  0  0  0  0  0  0  0  0  0  0
  189.9300  178.5120  144.7280 C   0  0  0  0  0  1  0  0  0  0  0  0
  193.4210  176.3770  138.4250 C   0  0  0  0  0  3  0  0  0  0  0  0
  192.2210  177.7660  140.5570 O   0  0  0  0  0  0  0  0  0  0  0  0
  191.4700  175.9640  137.5300 C   0  0  0  0  0  3  0  0  0  0  0  0
  193.6370  175.6610  137.2630 C   0  0  0  0  0  0  0  0  0  0  0  0
  191.4830  177.2690  139.6600 C   0  0  0  0  0  0  0  0  0  0  0  0
  192.4040  175.3840  136.6900 C   0  0  0  0  0  3  0  0  0  0  0  0
  192.0950  176.5590  138.5670 N   0  0  0  0  0  0  0  0  0  0  0  0
  194.9170  175.2090  136.7640 N   0  0  0  0  0  0  0  0  0  0  0  0
  196.9130  175.9310  135.7480 O   0  0  0  0  0  1  0  0  0  0  0  0
  195.3880  173.8940  137.1360 C   0  0  0  0  0  0  0  0  0  0  0  0
  194.9880  176.8570  134.9370 O   0  0  0  0  0  0  0  0  0  0  0  0
  194.6070  172.9100  137.0470 O   0  0  0  0  0  0  0  0  0  0  0  0
  195.6560  176.0080  135.8160 C   0  0  0  0  0  0  0  0  0  0  0  0
  196.7770  173.6580  137.6680 C   0  0  1  0  0  3  0  0  0  0  0  0
  197.7470  173.3440  136.5390 C   0  0  0  0  0  1  0  0  0  0  0  0
  197.2280  174.7540  138.4140 O   0  0  0  0  0  0  0  0  0  0  0  0
  196.7080  174.5620  139.6990 C   0  0  0  0  0  2  0  0  0  0  0  0
  197.4380  175.4620  140.6830 C   0  0  0  0  0  1  0  0  0  0  0  0
  188.8770  179.7040  138.0550 O   0  0  0  0  0  1  0  0  0  0  0  0
  189.3270  178.4590  137.5930 C   0  0  2  0  0  3  0  0  0  0  0  0
  188.6540  178.1000  136.2770 C   0  0  0  0  0  2  0  0  0  0  0  0
  187.1470  178.2680  136.3830 C   0  0  0  0  0  2  0  0  0  0  0  0
  186.4460  177.3220  135.4170 C   0  0  0  0  0  2  0  0  0  0  0  0
  185.4150  176.4350  136.1160 C   0  0  1  0  0  3  0  0  0  0  0  0
  185.2370  173.9830  135.0050 O   0  0  0  0  0  0  0  0  0  0  0  0
  185.7820  174.0950  137.4030 O   0  0  0  0  0  0  0  0  0  0  0  0
  185.9950  174.7440  136.0590 S   0  0  0  0  0  0  0  0  0  0  0  0
  187.6790  174.7460  135.6660 N   0  0  0  0  0  2  0  0  0  0  0  0
  187.9190  173.6360  134.7510 C   0  0  0  0  0  2  0  0  0  0  0  0
  189.5670  173.1120  136.4120 O   0  0  0  0  0  1  0  0  0  0  0  0
  187.8880  171.4710  136.0020 C   0  0  0  0  0  1  0  0  0  0  0  0
  188.7600  172.5590  135.4120 C   0  0  1  0  0  3  0  0  0  0  0  0
  185.2680  176.8310  137.4480 O   0  0  0  0  0  0  0  0  0  0  0  0
  182.5170  178.3010  139.1530 C   0  0  0  0  0  2  0  0  0  0  0  0
  183.9030  177.0840  137.6170 C   0  0  0  0  0  3  0  0  0  0  0  0
  182.5980  176.8810  139.6710 C   0  0  0  0  0  2  0  0  0  0  0  0
  183.6980  178.4550  138.2290 C   0  0  0  0  0  2  0  0  0  0  0  0
  183.3120  176.0850  138.5920 C   0  0  0  0  0  2  0  0  0  0  0  0
  2  1  2  0  0  0  0
  3 41  1  6  0  0  0
  3  5  1  0  0  0  0
  3  2  1  0  0  0  0
  4  1  1  0  0  0  0
  4  7  1  0  0  0  0
  5  4  1  0  0  0  0
  6  7  2  0  0  0  0
  6 12  1  0  0  0  0
  7  8  1  0  0  0  0
  8 10  1  0  0  0  0
  9 10  1  0  0  0  0
  9 11  2  0  0  0  0
 10 13  1  1  0  0  0
 12  9  1  0  0  0  0
 13 14  1  0  0  0  0
 14 19  1  0  0  0  0
 16 18  1  0  0  0  0
 17 16  1  0  0  0  0
 18 15  2  0  0  0  0
 19 15  1  0  0  0  0
 20 16  1  0  0  0  0
 20 19  2  0  0  0  0
 21 20  1  0  0  0  0
 22 28  1  0  0  0  0
 24 28  1  0  0  0  0
 25 22  2  0  0  0  0
 26  2  1  0  0  0  0
 26 23  2  0  0  0  0
 27 25  1  0  0  0  0
 27 24  2  0  0  0  0
 28 26  1  0  0  0  0
 29 31  1  0  0  0  0
 29 25  1  0  0  0  0
 30 34  1  0  0  0  0
 31 35  1  0  0  0  0
 32 34  2  0  0  0  0
 33 31  2  0  0  0  0
 34 29  1  0  0  0  0
 35 36  1  6  0  0  0
 35 37  1  0  0  0  0
 37 38  1  0  0  0  0
 38 39  1  0  0  0  0
 41 40  1  1  0  0  0
 42 43  1  0  0  0  0
 42 41  1  0  0  0  0
 44 43  1  0  0  0  0
 45 44  1  1  0  0  0
 45 54  1  0  0  0  0
 46 48  2  0  0  0  0
 48 45  1  0  0  0  0
 48 47  2  0  0  0  0
 49 48  1  0  0  0  0
 50 53  1  0  0  0  0
 50 49  1  0  0  0  0
 53 52  1  1  0  0  0
 53 51  1  0  0  0  0
 54 56  1  0  0  0  0
 55 57  1  0  0  0  0
 56 58  1  0  0  0  0
 56 59  1  0  0  0  0
 58 55  1  0  0  0  0
 59 57  1  0  0  0  0
M  END
>  <MODEL>
2

>  <REMARK>
 VINA RESULT:      -7.1      1.291      3.390
  Name = 
  20 active torsions:
  status: ('A' for Active; 'I' for Inactive)
    1  A    between atoms: O_1  and  C_7
    2  A    between atoms: O_1  and  C_29
    3  A    between atoms: N_4  and  C_5
    4  A    between atoms: N_4  and  C_38
    5  A    between atoms: C_5  and  C_46
    6  A    between atoms: C_6  and  N_48
    7  A    between atoms: C_6  and  C_52
    8  A    between atoms: C_7  and  C_39
    9  A    between atoms: C_10  and  C_15
   10  A    between atoms: C_10  and  O_17
   11  A    between atoms: C_10  and  S_51
   12  A    between atoms: N_11  and  C_22
   13  A    between atoms: C_14  and  O_17
   14  A    between atoms: C_15  and  C_24
   15  A    between atoms: C_18  and  N_42
   16  A    between atoms: C_24  and  C_31
   17  A    between atoms: C_31  and  C_54
   18  A    between atoms: C_33  and  C_34
   19  A    between atoms: C_36  and  C_54
   20  A    between atoms: N_48  and  S_51
                            x       y       z     vdW  Elec       q    Type
                         _______ _______ _______ _____ _____    ______ ____

>  <TORSDO>
F 20

$$$$
=
 OpenBabel10222418163D

 59 63  0  0  1  0  0  0  0  0999 V2000
  189.3140  177.6250  140.7400 C   0  0  0  0  0  3  0  0  0  0  0  0
  189.9700  177.4460  139.6150 C   0  0  0  0  0  0  0  0  0  0  0  0
  189.0000  177.4320  138.4690 C   0  0  1  0  0  3  0  0  0  0  0  0
  187.9350  177.7470  140.4380 N   0  0  0  0  0  0  0  0  0  0  0  0
  187.6720  177.6310  139.0640 N   0  0  0  0  0  2  0  0  0  0  0  0
  185.8070  178.6870  141.0790 C   0  0  0  0  0  3  0  0  0  0  0  0
  186.8990  177.9800  141.4020 C   0  0  0  0  0  0  0  0  0  0  0  0
  187.0280  177.4120  142.7930 C   0  0  0  0  0  2  0  0  0  0  0  0
  185.3020  179.1380  143.4450 C   0  0  0  0  0  0  0  0  0  0  0  0
  186.5710  178.4200  143.8570 C   0  0  1  0  0  3  0  0  0  0  0  0
  184.7530  179.9050  144.2210 O   0  0  0  0  0  0  0  0  0  0  0  0
  184.7120  178.9160  142.0800 C   0  0  0  0  0  2  0  0  0  0  0  0
  186.3740  177.7240  145.1180 N   0  0  0  0  0  2  0  0  0  0  0  0
  187.0980  178.4720  146.1320 C   0  0  0  0  0  2  0  0  0  0  0  0
  188.4110  176.8190  147.5850 C   0  0  0  0  0  3  0  0  0  0  0  0
  190.3280  176.8250  146.5620 N   0  0  0  0  0  0  0  0  0  0  0  0
  191.7040  176.4870  146.2380 C   0  0  0  0  0  1  0  0  0  0  0  0
  189.6580  176.2960  147.5760 N   0  0  0  0  0  0  0  0  0  0  0  0
  188.3190  177.7140  146.5330 C   0  0  0  0  0  0  0  0  0  0  0  0
  189.5420  177.6890  145.9010 C   0  0  0  0  0  0  0  0  0  0  0  0
  189.9420  178.4680  144.6890 C   0  0  0  0  0  1  0  0  0  0  0  0
  193.3190  176.2030  138.2650 C   0  0  0  0  0  3  0  0  0  0  0  0
  192.1950  177.7270  140.3470 O   0  0  0  0  0  0  0  0  0  0  0  0
  191.3420  175.8110  137.4180 C   0  0  0  0  0  3  0  0  0  0  0  0
  193.4940  175.4270  137.1350 C   0  0  0  0  0  0  0  0  0  0  0  0
  191.4290  177.2130  139.4850 C   0  0  0  0  0  0  0  0  0  0  0  0
  192.2440  175.1630  136.5930 C   0  0  0  0  0  3  0  0  0  0  0  0
  192.0010  176.4340  138.4180 N   0  0  0  0  0  0  0  0  0  0  0  0
  194.7510  174.9110  136.6410 N   0  0  0  0  0  0  0  0  0  0  0  0
  196.7390  175.5150  135.5360 O   0  0  0  0  0  1  0  0  0  0  0  0
  195.2010  173.6140  137.0900 C   0  0  0  0  0  0  0  0  0  0  0  0
  194.8170  176.4320  134.7060 O   0  0  0  0  0  0  0  0  0  0  0  0
  194.3950  172.6450  137.0830 O   0  0  0  0  0  0  0  0  0  0  0  0
  195.4860  175.6270  135.6250 C   0  0  0  0  0  0  0  0  0  0  0  0
  196.5950  173.3790  137.6060 C   0  0  1  0  0  3  0  0  0  0  0  0
  196.8450  174.1700  138.8820 C   0  0  0  0  0  1  0  0  0  0  0  0
  196.8360  172.0170  137.8190 O   0  0  0  0  0  0  0  0  0  0  0  0
  197.6310  171.6120  136.7400 C   0  0  0  0  0  2  0  0  0  0  0  0
  197.4350  170.1240  136.4940 C   0  0  0  0  0  1  0  0  0  0  0  0
  188.5830  179.7000  137.7600 O   0  0  0  0  0  1  0  0  0  0  0  0
  189.3120  178.5390  137.4610 C   0  0  2  0  0  3  0  0  0  0  0  0
  188.9980  178.0580  136.0520 C   0  0  0  0  0  2  0  0  0  0  0  0
  187.5310  178.2820  135.7240 C   0  0  0  0  0  2  0  0  0  0  0  0
  187.0550  177.2410  134.7200 C   0  0  0  0  0  2  0  0  0  0  0  0
  186.4330  176.0190  135.3970 C   0  0  1  0  0  3  0  0  0  0  0  0
  184.2220  177.3610  134.6310 O   0  0  0  0  0  0  0  0  0  0  0  0
  184.4370  176.8200  137.0220 O   0  0  0  0  0  0  0  0  0  0  0  0
  184.6850  176.3260  135.6190 S   0  0  0  0  0  0  0  0  0  0  0  0
  183.8230  174.8510  135.3530 N   0  0  0  0  0  2  0  0  0  0  0  0
  183.4620  174.3110  136.6590 C   0  0  0  0  0  2  0  0  0  0  0  0
  184.5060  172.4120  135.6320 O   0  0  0  0  0  1  0  0  0  0  0  0
  185.1480  172.9170  137.8710 C   0  0  0  0  0  1  0  0  0  0  0  0
  184.0320  172.9170  136.8480 C   0  0  1  0  0  3  0  0  0  0  0  0
  186.6080  174.8870  134.5970 O   0  0  0  0  0  0  0  0  0  0  0  0
  188.8220  172.3310  135.6930 C   0  0  0  0  0  2  0  0  0  0  0  0
  187.8780  174.3950  134.9120 C   0  0  0  0  0  3  0  0  0  0  0  0
  188.5430  173.1740  136.9190 C   0  0  0  0  0  2  0  0  0  0  0  0
  187.9560  172.9130  134.6050 C   0  0  0  0  0  2  0  0  0  0  0  0
  188.1320  174.5410  136.3990 C   0  0  0  0  0  2  0  0  0  0  0  0
  2  1  2  0  0  0  0
  3 41  1  6  0  0  0
  3  5  1  0  0  0  0
  3  2  1  0  0  0  0
  4  1  1  0  0  0  0
  4  7  1  0  0  0  0
  5  4  1  0  0  0  0
  6  7  2  0  0  0  0
  6 12  1  0  0  0  0
  7  8  1  0  0  0  0
  8 10  1  0  0  0  0
  9 10  1  0  0  0  0
  9 11  2  0  0  0  0
 10 13  1  1  0  0  0
 12  9  1  0  0  0  0
 13 14  1  0  0  0  0
 14 19  1  0  0  0  0
 16 18  1  0  0  0  0
 17 16  1  0  0  0  0
 18 15  2  0  0  0  0
 19 15  1  0  0  0  0
 20 19  2  0  0  0  0
 20 16  1  0  0  0  0
 21 20  1  0  0  0  0
 22 28  1  0  0  0  0
 24 28  1  0  0  0  0
 25 22  2  0  0  0  0
 26  2  1  0  0  0  0
 26 23  2  0  0  0  0
 27 25  1  0  0  0  0
 27 24  2  0  0  0  0
 28 26  1  0  0  0  0
 29 31  1  0  0  0  0
 29 25  1  0  0  0  0
 30 34  1  0  0  0  0
 31 35  1  0  0  0  0
 32 34  2  0  0  0  0
 33 31  2  0  0  0  0
 34 29  1  0  0  0  0
 35 37  1  0  0  0  0
 35 36  1  1  0  0  0
 38 37  1  0  0  0  0
 39 38  1  0  0  0  0
 41 40  1  1  0  0  0
 42 41  1  0  0  0  0
 43 42  1  0  0  0  0
 44 43  1  0  0  0  0
 45 44  1  6  0  0  0
 45 48  1  0  0  0  0
 46 48  2  0  0  0  0
 48 47  2  0  0  0  0
 49 48  1  0  0  0  0
 49 50  1  0  0  0  0
 50 53  1  0  0  0  0
 51 53  1  0  0  0  0
 53 52  1  1  0  0  0
 54 56  1  0  0  0  0
 54 45  1  0  0  0  0
 55 57  1  0  0  0  0
 56 59  1  0  0  0  0
 58 56  1  0  0  0  0
 58 55  1  0  0  0  0
 59 57  1  0  0  0  0
M  END
>  <MODEL>
3

>  <REMARK>
 VINA RESULT:      -7.1      1.462      2.455
  Name = 
  20 active torsions:
  status: ('A' for Active; 'I' for Inactive)
    1  A    between atoms: O_1  and  C_7
    2  A    between atoms: O_1  and  C_29
    3  A    between atoms: N_4  and  C_5
    4  A    between atoms: N_4  and  C_38
    5  A    between atoms: C_5  and  C_46
    6  A    between atoms: C_6  and  N_48
    7  A    between atoms: C_6  and  C_52
    8  A    between atoms: C_7  and  C_39
    9  A    between atoms: C_10  and  C_15
   10  A    between atoms: C_10  and  O_17
   11  A    between atoms: C_10  and  S_51
   12  A    between atoms: N_11  and  C_22
   13  A    between atoms: C_14  and  O_17
   14  A    between atoms: C_15  and  C_24
   15  A    between atoms: C_18  and  N_42
   16  A    between atoms: C_24  and  C_31
   17  A    between atoms: C_31  and  C_54
   18  A    between atoms: C_33  and  C_34
   19  A    between atoms: C_36  and  C_54
   20  A    between atoms: N_48  and  S_51
                            x       y       z     vdW  Elec       q    Type
                         _______ _______ _______ _____ _____    ______ ____

>  <TORSDO>
F 20

$$$$
=
 OpenBabel10222418163D

 59 63  0  0  1  0  0  0  0  0999 V2000
  191.4710  176.9930  139.7920 C   0  0  0  0  0  3  0  0  0  0  0  0
  191.0120  176.7920  138.5770 C   0  0  0  0  0  0  0  0  0  0  0  0
  189.5160  176.9190  138.5800 C   0  0  1  0  0  3  0  0  0  0  0  0
  190.3710  177.2640  140.6440 N   0  0  0  0  0  0  0  0  0  0  0  0
  189.1420  177.2270  139.9670 N   0  0  0  0  0  2  0  0  0  0  0  0
  191.6350  177.4360  142.6930 C   0  0  0  0  0  3  0  0  0  0  0  0
  190.4690  177.5620  142.0430 C   0  0  0  0  0  0  0  0  0  0  0  0
  189.2520  178.0390  142.7950 C   0  0  0  0  0  2  0  0  0  0  0  0
  190.5000  177.3290  144.8740 C   0  0  0  0  0  0  0  0  0  0  0  0
  189.1540  177.3850  144.1810 C   0  0  1  0  0  3  0  0  0  0  0  0
  190.5800  176.9230  146.0230 O   0  0  0  0  0  0  0  0  0  0  0  0
  191.7450  177.7670  144.1530 C   0  0  0  0  0  2  0  0  0  0  0  0
  188.1970  178.1220  144.9890 N   0  0  0  0  0  2  0  0  0  0  0  0
  187.1370  177.1940  145.3430 C   0  0  0  0  0  2  0  0  0  0  0  0
  185.1180  178.3580  146.4090 C   0  0  0  0  0  3  0  0  0  0  0  0
  184.0230  178.9620  144.6320 N   0  0  0  0  0  0  0  0  0  0  0  0
  182.9930  179.5640  143.8010 C   0  0  0  0  0  1  0  0  0  0  0  0
  184.0170  179.0010  145.9570 N   0  0  0  0  0  0  0  0  0  0  0  0
  185.8240  177.9010  145.3100 C   0  0  0  0  0  0  0  0  0  0  0  0
  185.1120  178.3060  144.2020 C   0  0  0  0  0  0  0  0  0  0  0  0
  185.4720  178.0750  142.7700 C   0  0  0  0  0  1  0  0  0  0  0  0
  193.9070  175.5090  136.4420 C   0  0  0  0  0  3  0  0  0  0  0  0
  191.3200  176.5970  136.2450 O   0  0  0  0  0  0  0  0  0  0  0  0
  193.8360  175.6050  138.6240 C   0  0  0  0  0  3  0  0  0  0  0  0
  195.1020  175.0080  136.9230 C   0  0  0  0  0  0  0  0  0  0  0  0
  191.8220  176.4190  137.3910 C   0  0  0  0  0  0  0  0  0  0  0  0
  195.0730  175.0730  138.3080 C   0  0  0  0  0  3  0  0  0  0  0  0
  193.1440  175.8610  137.4940 N   0  0  0  0  0  0  0  0  0  0  0  0
  196.2230  174.5630  136.1250 N   0  0  0  0  0  0  0  0  0  0  0  0
  198.4690  175.0250  135.5960 O   0  0  0  0  0  0  0  0  0  0  0  0
  196.1840  173.2450  135.5350 C   0  0  0  0  0  0  0  0  0  0  0  0
  197.0860  176.8380  135.7500 O   0  0  0  0  0  1  0  0  0  0  0  0
  195.1470  172.8720  134.9240 O   0  0  0  0  0  0  0  0  0  0  0  0
  197.3100  175.4660  135.8240 C   0  0  0  0  0  0  0  0  0  0  0  0
  197.3290  172.2750  135.6550 C   0  0  1  0  0  3  0  0  0  0  0  0
  197.8350  172.2040  137.0880 C   0  0  0  0  0  1  0  0  0  0  0  0
  196.9660  171.0020  135.1990 O   0  0  0  0  0  0  0  0  0  0  0  0
  196.6850  170.2650  136.3560 C   0  0  0  0  0  2  0  0  0  0  0  0
  195.3090  169.6290  136.2330 C   0  0  0  0  0  1  0  0  0  0  0  0
  188.8440  179.2230  138.3390 O   0  0  0  0  0  1  0  0  0  0  0  0
  189.0490  178.0270  137.6360 C   0  0  2  0  0  3  0  0  0  0  0  0
  187.7720  177.5970  136.9290 C   0  0  0  0  0  2  0  0  0  0  0  0
  186.6160  178.5070  137.3090 C   0  0  0  0  0  2  0  0  0  0  0  0
  185.8630  177.9280  138.5000 C   0  0  0  0  0  2  0  0  0  0  0  0
  184.4040  177.6130  138.1690 C   0  0  1  0  0  3  0  0  0  0  0  0
  184.2390  179.9760  139.4600 O   0  0  0  0  0  0  0  0  0  0  0  0
  182.5380  178.2800  139.9960 O   0  0  0  0  0  0  0  0  0  0  0  0
  183.3740  178.8820  138.8960 S   0  0  0  0  0  0  0  0  0  0  0  0
  182.3480  179.5360  137.6670 N   0  0  0  0  0  2  0  0  0  0  0  0
  181.3590  180.3820  138.3260 C   0  0  0  0  0  2  0  0  0  0  0  0
  179.3720  181.2800  137.3270 O   0  0  0  0  0  1  0  0  0  0  0  0
  181.1660  182.7990  137.7170 C   0  0  0  0  0  1  0  0  0  0  0  0
  180.7670  181.3850  137.3520 C   0  0  1  0  0  3  0  0  0  0  0  0
  184.2190  177.6010  136.7840 O   0  0  0  0  0  0  0  0  0  0  0  0
  182.6960  174.4950  137.6030 C   0  0  0  0  0  2  0  0  0  0  0  0
  183.7890  176.3080  136.4710 C   0  0  0  0  0  3  0  0  0  0  0  0
  184.1860  174.2620  137.7440 C   0  0  0  0  0  2  0  0  0  0  0  0
  182.5530  175.9590  137.2750 C   0  0  0  0  0  2  0  0  0  0  0  0
  184.8540  175.3030  136.8630 C   0  0  0  0  0  2  0  0  0  0  0  0
  1  4  1  0  0  0  0
  2  3  1  0  0  0  0
  2  1  2  0  0  0  0
  3 41  1  6  0  0  0
  3  5  1  0  0  0  0
  4  7  1  0  0  0  0
  5  4  1  0  0  0  0
  6 12  1  0  0  0  0
  7  6  2  0  0  0  0
  7  8  1  0  0  0  0
  8 10  1  0  0  0  0
  9 11  2  0  0  0  0
 10  9  1  0  0  0  0
 10 13  1  1  0  0  0
 12  9  1  0  0  0  0
 13 14  1  0  0  0  0
 16 18  1  0  0  0  0
 17 16  1  0  0  0  0
 18 15  2  0  0  0  0
 19 14  1  0  0  0  0
 19 15  1  0  0  0  0
 20 16  1  0  0  0  0
 20 19  2  0  0  0  0
 21 20  1  0  0  0  0
 22 25  2  0  0  0  0
 22 28  1  0  0  0  0
 23 26  2  0  0  0  0
 25 27  1  0  0  0  0
 26 28  1  0  0  0  0
 26  2  1  0  0  0  0
 27 24  2  0  0  0  0
 28 24  1  0  0  0  0
 29 25  1  0  0  0  0
 30 34  2  0  0  0  0
 31 35  1  0  0  0  0
 31 29  1  0  0  0  0
 32 34  1  0  0  0  0
 33 31  2  0  0  0  0
 34 29  1  0  0  0  0
 35 36  1  1  0  0  0
 37 35  1  0  0  0  0
 37 38  1  0  0  0  0
 39 38  1  0  0  0  0
 41 40  1  1  0  0  0
 42 43  1  0  0  0  0
 42 41  1  0  0  0  0
 43 44  1  0  0  0  0
 45 44  1  6  0  0  0
 45 48  1  0  0  0  0
 48 46  2  0  0  0  0
 48 47  2  0  0  0  0
 49 50  1  0  0  0  0
 49 48  1  0  0  0  0
 51 53  1  0  0  0  0
 53 52  1  1  0  0  0
 53 50  1  0  0  0  0
 54 45  1  0  0  0  0
 55 57  1  0  0  0  0
 56 54  1  0  0  0  0
 56 59  1  0  0  0  0
 56 58  1  0  0  0  0
 58 55  1  0  0  0  0
 59 57  1  0  0  0  0
M  END
>  <MODEL>
4

>  <REMARK>
 VINA RESULT:      -7.1      2.328      4.001
  Name = 
  20 active torsions:
  status: ('A' for Active; 'I' for Inactive)
    1  A    between atoms: O_1  and  C_7
    2  A    between atoms: O_1  and  C_29
    3  A    between atoms: N_4  and  C_5
    4  A    between atoms: N_4  and  C_38
    5  A    between atoms: C_5  and  C_46
    6  A    between atoms: C_6  and  N_48
    7  A    between atoms: C_6  and  C_52
    8  A    between atoms: C_7  and  C_39
    9  A    between atoms: C_10  and  C_15
   10  A    between atoms: C_10  and  O_17
   11  A    between atoms: C_10  and  S_51
   12  A    between atoms: N_11  and  C_22
   13  A    between atoms: C_14  and  O_17
   14  A    between atoms: C_15  and  C_24
   15  A    between atoms: C_18  and  N_42
   16  A    between atoms: C_24  and  C_31
   17  A    between atoms: C_31  and  C_54
   18  A    between atoms: C_33  and  C_34
   19  A    between atoms: C_36  and  C_54
   20  A    between atoms: N_48  and  S_51
                            x       y       z     vdW  Elec       q    Type
                         _______ _______ _______ _____ _____    ______ ____

>  <TORSDO>
F 20

$$$$
=
 OpenBabel10222418163D

 59 63  0  0  1  0  0  0  0  0999 V2000
  189.5130  176.6280  138.1020 C   0  0  0  0  0  3  0  0  0  0  0  0
  190.3870  177.1130  138.9540 C   0  0  0  0  0  0  0  0  0  0  0  0
  189.6870  178.0140  139.9300 C   0  0  1  0  0  3  0  0  0  0  0  0
  188.2330  177.1370  138.4370 N   0  0  0  0  0  0  0  0  0  0  0  0
  188.2690  177.9990  139.5440 N   0  0  0  0  0  2  0  0  0  0  0  0
  187.0160  175.9830  136.7010 C   0  0  0  0  0  3  0  0  0  0  0  0
  187.0150  176.8150  137.7530 C   0  0  0  0  0  0  0  0  0  0  0  0
  185.7100  177.4040  138.2280 C   0  0  0  0  0  2  0  0  0  0  0  0
  184.8400  176.8330  135.9260 C   0  0  0  0  0  0  0  0  0  0  0  0
  184.8310  177.8470  137.0510 C   0  0  1  0  0  3  0  0  0  0  0  0
  184.1170  176.9890  134.9540 O   0  0  0  0  0  0  0  0  0  0  0  0
  185.7390  175.6290  135.9960 C   0  0  0  0  0  2  0  0  0  0  0  0
  183.4740  178.0670  137.5260 N   0  0  0  0  0  2  0  0  0  0  0  0
  183.5680  178.9230  138.6960 C   0  0  0  0  0  2  0  0  0  0  0  0
  181.9270  177.8920  140.3720 C   0  0  0  0  0  3  0  0  0  0  0  0
  180.3430  179.3800  140.3440 N   0  0  0  0  0  0  0  0  0  0  0  0
  179.1000  180.0570  140.6730 C   0  0  0  0  0  1  0  0  0  0  0  0
  180.7270  178.2360  140.8930 N   0  0  0  0  0  0  0  0  0  0  0  0
  182.2880  178.8670  139.4580 C   0  0  0  0  0  0  0  0  0  0  0  0
  181.2710  179.7970  139.4700 C   0  0  0  0  0  0  0  0  0  0  0  0
  181.1990  181.0570  138.6670 C   0  0  0  0  0  1  0  0  0  0  0  0
  193.8620  176.1290  137.7130 C   0  0  0  0  0  3  0  0  0  0  0  0
  192.5220  177.1690  139.9580 O   0  0  0  0  0  0  0  0  0  0  0  0
  191.9870  175.9850  136.5980 C   0  0  0  0  0  3  0  0  0  0  0  0
  194.1570  175.6240  136.4610 C   0  0  0  0  0  0  0  0  0  0  0  0
  191.8520  176.8810  138.9260 C   0  0  0  0  0  0  0  0  0  0  0  0
  192.9720  175.5190  135.7460 C   0  0  0  0  0  3  0  0  0  0  0  0
  192.5350  176.3500  137.7760 N   0  0  0  0  0  0  0  0  0  0  0  0
  195.4600  175.2040  135.9950 N   0  0  0  0  0  0  0  0  0  0  0  0
  197.6810  175.9200  135.6930 O   0  0  0  0  0  1  0  0  0  0  0  0
  195.7140  173.7940  135.8050 C   0  0  0  0  0  0  0  0  0  0  0  0
  196.0600  177.4260  135.1210 O   0  0  0  0  0  0  0  0  0  0  0  0
  194.8740  173.0940  135.1800 O   0  0  0  0  0  0  0  0  0  0  0  0
  196.4510  176.1830  135.6130 C   0  0  0  0  0  0  0  0  0  0  0  0
  196.9370  173.1150  136.3630 C   0  0  1  0  0  3  0  0  0  0  0  0
  197.0810  173.3890  137.8530 C   0  0  0  0  0  1  0  0  0  0  0  0
  196.9080  171.7370  136.1180 O   0  0  0  0  0  0  0  0  0  0  0  0
  196.6250  171.1500  137.3570 C   0  0  0  0  0  2  0  0  0  0  0  0
  195.5100  170.1280  137.1930 C   0  0  0  0  0  1  0  0  0  0  0  0
  189.8940  176.1210  141.4100 O   0  0  0  0  0  1  0  0  0  0  0  0
  189.8600  177.5220  141.3670 C   0  0  2  0  0  3  0  0  0  0  0  0
  188.7310  178.0570  142.2350 C   0  0  0  0  0  2  0  0  0  0  0  0
  187.8590  176.9210  142.7410 C   0  0  0  0  0  2  0  0  0  0  0  0
  187.9760  176.8060  144.2550 C   0  0  0  0  0  2  0  0  0  0  0  0
  187.9750  178.1700  144.9450 C   0  0  1  0  0  3  0  0  0  0  0  0
  186.9800  178.7290  147.3890 O   0  0  0  0  0  0  0  0  0  0  0  0
  185.9270  176.8890  146.1400 O   0  0  0  0  0  0  0  0  0  0  0  0
  186.5530  178.2550  146.0270 S   0  0  0  0  0  0  0  0  0  0  0  0
  185.4140  179.3720  145.3610 N   0  0  0  0  0  2  0  0  0  0  0  0
  184.1120  178.7130  145.3420 C   0  0  0  0  0  2  0  0  0  0  0  0
  182.9320  179.9870  143.6890 O   0  0  0  0  0  1  0  0  0  0  0  0
  184.5540  178.4310  142.8970 C   0  0  0  0  0  1  0  0  0  0  0  0
  183.5090  178.7400  143.9490 C   0  0  1  0  0  3  0  0  0  0  0  0
  189.1420  178.3270  145.6980 O   0  0  0  0  0  0  0  0  0  0  0  0
  191.1510  175.9440  147.4080 C   0  0  0  0  0  2  0  0  0  0  0  0
  189.6400  177.0350  145.8950 C   0  0  0  0  0  3  0  0  0  0  0  0
  191.9680  176.3720  146.2070 C   0  0  0  0  0  2  0  0  0  0  0  0
  189.9100  176.7990  147.3680 C   0  0  0  0  0  2  0  0  0  0  0  0
  190.9690  176.8810  145.1840 C   0  0  0  0  0  2  0  0  0  0  0  0
  1  4  1  0  0  0  0
  1  2  2  0  0  0  0
  2  3  1  0  0  0  0
  3 41  1  1  0  0  0
  4  5  1  0  0  0  0
  5  3  1  0  0  0  0
  6  7  2  0  0  0  0
  7  8  1  0  0  0  0
  7  4  1  0  0  0  0
  9 12  1  0  0  0  0
  9 10  1  0  0  0  0
 10 13  1  1  0  0  0
 10  8  1  0  0  0  0
 11  9  2  0  0  0  0
 12  6  1  0  0  0  0
 13 14  1  0  0  0  0
 14 19  1  0  0  0  0
 15 18  2  0  0  0  0
 16 17  1  0  0  0  0
 16 18  1  0  0  0  0
 19 20  2  0  0  0  0
 19 15  1  0  0  0  0
 20 16  1  0  0  0  0
 21 20  1  0  0  0  0
 22 28  1  0  0  0  0
 24 28  1  0  0  0  0
 25 22  2  0  0  0  0
 26  2  1  0  0  0  0
 26 23  2  0  0  0  0
 27 25  1  0  0  0  0
 27 24  2  0  0  0  0
 28 26  1  0  0  0  0
 29 25  1  0  0  0  0
 31 29  1  0  0  0  0
 31 35  1  0  0  0  0
 32 34  2  0  0  0  0
 33 31  2  0  0  0  0
 34 30  1  0  0  0  0
 34 29  1  0  0  0  0
 35 36  1  1  0  0  0
 37 35  1  0  0  0  0
 37 38  1  0  0  0  0
 39 38  1  0  0  0  0
 41 40  1  6  0  0  0
 41 42  1  0  0  0  0
 42 43  1  0  0  0  0
 43 44  1  0  0  0  0
 45 44  1  1  0  0  0
 45 54  1  0  0  0  0
 45 48  1  0  0  0  0
 48 47  2  0  0  0  0
 48 46  2  0  0  0  0
 49 48  1  0  0  0  0
 50 49  1  0  0  0  0
 51 53  1  0  0  0  0
 53 52  1  6  0  0  0
 53 50  1  0  0  0  0
 54 56  1  0  0  0  0
 56 58  1  0  0  0  0
 57 55  1  0  0  0  0
 58 55  1  0  0  0  0
 59 56  1  0  0  0  0
 59 57  1  0  0  0  0
M  END
>  <MODEL>
5

>  <REMARK>
 VINA RESULT:      -7.0      2.551      7.117
  Name = 
  20 active torsions:
  status: ('A' for Active; 'I' for Inactive)
    1  A    between atoms: O_1  and  C_7
    2  A    between atoms: O_1  and  C_29
    3  A    between atoms: N_4  and  C_5
    4  A    between atoms: N_4  and  C_38
    5  A    between atoms: C_5  and  C_46
    6  A    between atoms: C_6  and  N_48
    7  A    between atoms: C_6  and  C_52
    8  A    between atoms: C_7  and  C_39
    9  A    between atoms: C_10  and  C_15
   10  A    between atoms: C_10  and  O_17
   11  A    between atoms: C_10  and  S_51
   12  A    between atoms: N_11  and  C_22
   13  A    between atoms: C_14  and  O_17
   14  A    between atoms: C_15  and  C_24
   15  A    between atoms: C_18  and  N_42
   16  A    between atoms: C_24  and  C_31
   17  A    between atoms: C_31  and  C_54
   18  A    between atoms: C_33  and  C_34
   19  A    between atoms: C_36  and  C_54
   20  A    between atoms: N_48  and  S_51
                            x       y       z     vdW  Elec       q    Type
                         _______ _______ _______ _____ _____    ______ ____

>  <TORSDO>
F 20

$$$$
=
 OpenBabel10222418163D

 59 63  0  0  1  0  0  0  0  0999 V2000
  188.2750  177.9210  140.2700 C   0  0  0  0  0  3  0  0  0  0  0  0
  188.1530  177.7550  138.9720 C   0  0  0  0  0  0  0  0  0  0  0  0
  189.5030  177.4800  138.3750 C   0  0  1  0  0  3  0  0  0  0  0  0
  189.6420  177.7670  140.6130 N   0  0  0  0  0  0  0  0  0  0  0  0
  190.4510  177.5020  139.4970 N   0  0  0  0  0  2  0  0  0  0  0  0
  191.4340  177.4860  142.2050 C   0  0  0  0  0  3  0  0  0  0  0  0
  190.1700  177.8510  141.9430 C   0  0  0  0  0  0  0  0  0  0  0  0
  189.3040  178.3690  143.0630 C   0  0  0  0  0  2  0  0  0  0  0  0
  190.9450  177.2200  144.6020 C   0  0  0  0  0  0  0  0  0  0  0  0
  189.4880  177.5450  144.3450 C   0  0  1  0  0  3  0  0  0  0  0  0
  191.2730  176.6500  145.6320 O   0  0  0  0  0  0  0  0  0  0  0  0
  191.9960  177.5910  143.5930 C   0  0  0  0  0  2  0  0  0  0  0  0
  188.9260  178.2790  145.4680 N   0  0  0  0  0  2  0  0  0  0  0  0
  187.9880  177.3880  146.1300 C   0  0  0  0  0  2  0  0  0  0  0  0
  185.9260  178.5680  147.0880 C   0  0  0  0  0  3  0  0  0  0  0  0
  184.6900  178.7190  145.3080 N   0  0  0  0  0  0  0  0  0  0  0  0
  183.5660  179.0580  144.4490 C   0  0  0  0  0  1  0  0  0  0  0  0
  184.7470  179.0160  146.5980 N   0  0  0  0  0  0  0  0  0  0  0  0
  186.6140  177.9640  146.0510 C   0  0  0  0  0  0  0  0  0  0  0  0
  185.8120  178.0830  144.9380 C   0  0  0  0  0  0  0  0  0  0  0  0
  186.1190  177.6060  143.5550 C   0  0  0  0  0  1  0  0  0  0  0  0
  184.5040  178.4640  138.0980 C   0  0  0  0  0  3  0  0  0  0  0  0
  186.9320  177.6140  136.9580 O   0  0  0  0  0  0  0  0  0  0  0  0
  185.4380  178.6580  140.0650 C   0  0  0  0  0  3  0  0  0  0  0  0
  183.5360  178.9050  138.9800 C   0  0  0  0  0  0  0  0  0  0  0  0
  186.9000  177.8900  138.1900 C   0  0  0  0  0  0  0  0  0  0  0  0
  184.1150  179.0220  140.2360 C   0  0  0  0  0  3  0  0  0  0  0  0
  185.6600  178.3270  138.7760 N   0  0  0  0  0  0  0  0  0  0  0  0
  182.1410  179.1310  138.6720 N   0  0  0  0  0  0  0  0  0  0  0  0
  180.6700  180.5340  137.4870 O   0  0  0  0  0  0  0  0  0  0  0  0
  181.1850  178.0820  138.9430 C   0  0  0  0  0  0  0  0  0  0  0  0
  182.3740  181.5810  138.5940 O   0  0  0  0  0  1  0  0  0  0  0  0
  181.2090  177.4970  140.0590 O   0  0  0  0  0  0  0  0  0  0  0  0
  181.6950  180.4260  138.2140 C   0  0  0  0  0  0  0  0  0  0  0  0
  180.1760  177.6290  137.9210 C   0  0  1  0  0  3  0  0  0  0  0  0
  180.8460  177.3300  136.5880 C   0  0  0  0  0  1  0  0  0  0  0  0
  179.4620  176.5130  138.3730 O   0  0  0  0  0  0  0  0  0  0  0  0
  180.0560  175.4160  137.7380 C   0  0  0  0  0  2  0  0  0  0  0  0
  179.9970  174.2040  138.6540 C   0  0  0  0  0  1  0  0  0  0  0  0
  190.3210  175.2100  138.3860 O   0  0  0  0  0  1  0  0  0  0  0  0
  189.5350  176.1230  137.6690 C   0  0  2  0  0  3  0  0  0  0  0  0
  190.0670  176.2920  136.2530 C   0  0  0  0  0  2  0  0  0  0  0  0
  191.5840  176.2020  136.2370 C   0  0  0  0  0  2  0  0  0  0  0  0
  192.0810  176.0030  134.8110 C   0  0  0  0  0  2  0  0  0  0  0  0
  193.2900  175.0690  134.7410 C   0  0  1  0  0  3  0  0  0  0  0  0
  194.6800  175.9290  136.8870 O   0  0  0  0  0  0  0  0  0  0  0  0
  194.6970  177.3630  134.8870 O   0  0  0  0  0  0  0  0  0  0  0  0
  194.7140  175.9400  135.3830 S   0  0  0  0  0  0  0  0  0  0  0  0
  196.1470  175.1420  134.8350 N   0  0  0  0  0  2  0  0  0  0  0  0
  197.2030  175.4240  135.8010 C   0  0  0  0  0  2  0  0  0  0  0  0
  198.3210  173.3070  135.6530 O   0  0  0  0  0  1  0  0  0  0  0  0
  198.5030  174.4820  137.7180 C   0  0  0  0  0  1  0  0  0  0  0  0
  197.6320  174.1590  136.5220 C   0  0  1  0  0  3  0  0  0  0  0  0
  193.0570  173.9260  135.5120 O   0  0  0  0  0  0  0  0  0  0  0  0
  191.9940  170.6470  134.6450 C   0  0  0  0  0  2  0  0  0  0  0  0
  192.8440  172.8910  134.5970 C   0  0  0  0  0  3  0  0  0  0  0  0
  193.4940  170.5490  134.8250 C   0  0  0  0  0  2  0  0  0  0  0  0
  191.6420  172.0660  135.0110 C   0  0  0  0  0  2  0  0  0  0  0  0
  194.0330  171.9500  134.5980 C   0  0  0  0  0  2  0  0  0  0  0  0
  1  4  1  0  0  0  0
  2  1  2  0  0  0  0
  3 41  1  1  0  0  0
  3  2  1  0  0  0  0
  3  5  1  0  0  0  0
  4  7  1  0  0  0  0
  5  4  1  0  0  0  0
  6 12  1  0  0  0  0
  7  6  2  0  0  0  0
  7  8  1  0  0  0  0
  8 10  1  0  0  0  0
  9 11  2  0  0  0  0
 10  9  1  0  0  0  0
 10 13  1  1  0  0  0
 12  9  1  0  0  0  0
 13 14  1  0  0  0  0
 16 18  1  0  0  0  0
 17 16  1  0  0  0  0
 18 15  2  0  0  0  0
 19 14  1  0  0  0  0
 19 15  1  0  0  0  0
 20 16  1  0  0  0  0
 20 19  2  0  0  0  0
 21 20  1  0  0  0  0
 22 28  1  0  0  0  0
 22 25  2  0  0  0  0
 23 26  2  0  0  0  0
 24 27  2  0  0  0  0
 25 27  1  0  0  0  0
 26 28  1  0  0  0  0
 26  2  1  0  0  0  0
 28 24  1  0  0  0  0
 29 31  1  0  0  0  0
 29 25  1  0  0  0  0
 30 34  2  0  0  0  0
 31 33  2  0  0  0  0
 34 32  1  0  0  0  0
 34 29  1  0  0  0  0
 35 36  1  6  0  0  0
 35 37  1  0  0  0  0
 35 31  1  0  0  0  0
 38 37  1  0  0  0  0
 38 39  1  0  0  0  0
 41 40  1  1  0  0  0
 42 41  1  0  0  0  0
 43 42  1  0  0  0  0
 44 43  1  0  0  0  0
 45 44  1  1  0  0  0
 45 48  1  0  0  0  0
 45 54  1  0  0  0  0
 47 48  2  0  0  0  0
 48 46  2  0  0  0  0
 49 48  1  0  0  0  0
 49 50  1  0  0  0  0
 50 53  1  0  0  0  0
 51 53  1  0  0  0  0
 53 52  1  1  0  0  0
 55 57  1  0  0  0  0
 55 58  1  0  0  0  0
 56 59  1  0  0  0  0
 56 58  1  0  0  0  0
 56 54  1  0  0  0  0
 59 57  1  0  0  0  0
M  END
>  <MODEL>
6

>  <REMARK>
 VINA RESULT:      -6.7      2.873      9.950
  Name = 
  20 active torsions:
  status: ('A' for Active; 'I' for Inactive)
    1  A    between atoms: O_1  and  C_7
    2  A    between atoms: O_1  and  C_29
    3  A    between atoms: N_4  and  C_5
    4  A    between atoms: N_4  and  C_38
    5  A    between atoms: C_5  and  C_46
    6  A    between atoms: C_6  and  N_48
    7  A    between atoms: C_6  and  C_52
    8  A    between atoms: C_7  and  C_39
    9  A    between atoms: C_10  and  C_15
   10  A    between atoms: C_10  and  O_17
   11  A    between atoms: C_10  and  S_51
   12  A    between atoms: N_11  and  C_22
   13  A    between atoms: C_14  and  O_17
   14  A    between atoms: C_15  and  C_24
   15  A    between atoms: C_18  and  N_42
   16  A    between atoms: C_24  and  C_31
   17  A    between atoms: C_31  and  C_54
   18  A    between atoms: C_33  and  C_34
   19  A    between atoms: C_36  and  C_54
   20  A    between atoms: N_48  and  S_51
                            x       y       z     vdW  Elec       q    Type
                         _______ _______ _______ _____ _____    ______ ____

>  <TORSDO>
F 20

$$$$
=
 OpenBabel10222418163D

 59 63  0  0  1  0  0  0  0  0999 V2000
  185.3940  178.7100  139.4560 C   0  0  0  0  0  3  0  0  0  0  0  0
  186.6010  178.2800  139.1630 C   0  0  0  0  0  0  0  0  0  0  0  0
  186.6130  177.7460  137.7590 C   0  0  1  0  0  3  0  0  0  0  0  0
  184.5630  178.5130  138.3250 N   0  0  0  0  0  0  0  0  0  0  0  0
  185.2450  177.9190  137.2520 N   0  0  0  0  0  2  0  0  0  0  0  0
  182.6800  179.8460  139.0330 C   0  0  0  0  0  3  0  0  0  0  0  0
  183.1790  178.8810  138.2470 C   0  0  0  0  0  0  0  0  0  0  0  0
  182.2740  178.1900  137.2590 C   0  0  0  0  0  2  0  0  0  0  0  0
  180.3800  179.0340  138.7020 C   0  0  0  0  0  0  0  0  0  0  0  0
  180.9020  177.8780  137.8750 C   0  0  1  0  0  3  0  0  0  0  0  0
  179.2590  178.9850  139.1840 O   0  0  0  0  0  0  0  0  0  0  0  0
  181.2360  180.2470  138.9390 C   0  0  0  0  0  2  0  0  0  0  0  0
  179.9670  177.5500  136.8110 N   0  0  0  0  0  2  0  0  0  0  0  0
  180.6520  176.6430  135.9080 C   0  0  0  0  0  2  0  0  0  0  0  0
  179.1010  174.6040  135.8750 C   0  0  0  0  0  3  0  0  0  0  0  0
  180.3450  173.1420  136.8930 N   0  0  0  0  0  0  0  0  0  0  0  0
  180.7760  171.8760  137.4660 C   0  0  0  0  0  1  0  0  0  0  0  0
  179.1740  173.3210  136.2990 N   0  0  0  0  0  0  0  0  0  0  0  0
  180.2790  175.2370  136.2340 C   0  0  0  0  0  0  0  0  0  0  0  0
  181.0470  174.2850  136.8670 C   0  0  0  0  0  0  0  0  0  0  0  0
  182.4220  174.4680  137.4260 C   0  0  0  0  0  1  0  0  0  0  0  0
  188.6620  177.9290  142.3580 C   0  0  0  0  0  3  0  0  0  0  0  0
  188.9110  178.4640  139.6070 O   0  0  0  0  0  0  0  0  0  0  0  0
  186.4940  177.7190  142.1720 C   0  0  0  0  0  3  0  0  0  0  0  0
  188.1610  177.6320  143.6110 C   0  0  0  0  0  0  0  0  0  0  0  0
  187.7620  178.2460  140.0850 C   0  0  0  0  0  0  0  0  0  0  0  0
  186.7830  177.5060  143.5080 C   0  0  0  0  0  3  0  0  0  0  0  0
  187.6320  177.9700  141.4910 N   0  0  0  0  0  0  0  0  0  0  0  0
  188.9240  177.5430  144.8360 N   0  0  0  0  0  0  0  0  0  0  0  0
  188.7610  177.0700  147.1360 O   0  0  0  0  0  1  0  0  0  0  0  0
  190.3660  177.4940  144.7600 C   0  0  0  0  0  0  0  0  0  0  0  0
  187.0750  178.3360  146.2540 O   0  0  0  0  0  0  0  0  0  0  0  0
  190.9740  178.3180  144.0250 O   0  0  0  0  0  0  0  0  0  0  0  0
  188.2620  177.6220  146.1170 C   0  0  0  0  0  0  0  0  0  0  0  0
  191.1770  176.4650  145.5020 C   0  0  1  0  0  3  0  0  0  0  0  0
  191.9530  175.5830  144.5360 C   0  0  0  0  0  1  0  0  0  0  0  0
  192.0440  177.0680  146.4210 O   0  0  0  0  0  0  0  0  0  0  0  0
  191.7310  176.4850  147.6560 C   0  0  0  0  0  2  0  0  0  0  0  0
  192.8950  175.6250  148.1220 C   0  0  0  0  0  1  0  0  0  0  0  0
  187.4920  179.8850  137.0760 O   0  0  0  0  0  1  0  0  0  0  0  0
  187.6130  178.5020  136.8830 C   0  0  2  0  0  3  0  0  0  0  0  0
  187.3910  178.1430  135.4210 C   0  0  0  0  0  2  0  0  0  0  0  0
  188.4400  177.1500  134.9480 C   0  0  0  0  0  2  0  0  0  0  0  0
  189.4530  176.8920  136.0550 C   0  0  0  0  0  2  0  0  0  0  0  0
  189.5880  175.4050  136.3860 C   0  0  1  0  0  3  0  0  0  0  0  0
  191.3450  173.7480  137.5880 O   0  0  0  0  0  0  0  0  0  0  0  0
  190.5560  175.6850  138.8850 O   0  0  0  0  0  0  0  0  0  0  0  0
  190.9590  175.2000  137.5160 S   0  0  0  0  0  0  0  0  0  0  0  0
  192.3000  176.1240  136.9360 N   0  0  0  0  0  2  0  0  0  0  0  0
  193.4900  175.6630  137.6430 C   0  0  0  0  0  2  0  0  0  0  0  0
  195.1300  176.4060  136.0600 O   0  0  0  0  0  1  0  0  0  0  0  0
  195.6790  174.4890  137.3640 C   0  0  0  0  0  1  0  0  0  0  0  0
  194.5850  175.2710  136.6680 C   0  0  1  0  0  3  0  0  0  0  0  0
  188.4150  174.9410  136.9880 O   0  0  0  0  0  0  0  0  0  0  0  0
  185.7520  173.0440  135.5940 C   0  0  0  0  0  2  0  0  0  0  0  0
  187.9020  173.9740  136.1190 C   0  0  0  0  0  3  0  0  0  0  0  0
  186.3620  172.1570  136.6590 C   0  0  0  0  0  2  0  0  0  0  0  0
  186.4980  174.3500  135.6900 C   0  0  0  0  0  2  0  0  0  0  0  0
  187.7900  172.6440  136.8370 C   0  0  0  0  0  2  0  0  0  0  0  0
  2  1  2  0  0  0  0
  2 26  1  0  0  0  0
  3 41  1  6  0  0  0
  3  2  1  0  0  0  0
  4  1  1  0  0  0  0
  5  3  1  0  0  0  0
  5  4  1  0  0  0  0
  7  4  1  0  0  0  0
  7  6  2  0  0  0  0
  8 10  1  0  0  0  0
  8  7  1  0  0  0  0
  9 12  1  0  0  0  0
  9 11  2  0  0  0  0
 10 13  1  6  0  0  0
 10  9  1  0  0  0  0
 12  6  1  0  0  0  0
 14 19  1  0  0  0  0
 14 13  1  0  0  0  0
 15 19  1  0  0  0  0
 15 18  2  0  0  0  0
 16 17  1  0  0  0  0
 18 16  1  0  0  0  0
 19 20  2  0  0  0  0
 20 16  1  0  0  0  0
 20 21  1  0  0  0  0
 22 25  2  0  0  0  0
 23 26  2  0  0  0  0
 24 27  2  0  0  0  0
 25 29  1  0  0  0  0
 26 28  1  0  0  0  0
 27 25  1  0  0  0  0
 28 24  1  0  0  0  0
 28 22  1  0  0  0  0
 29 34  1  0  0  0  0
 31 29  1  0  0  0  0
 31 35  1  0  0  0  0
 33 31  2  0  0  0  0
 34 32  2  0  0  0  0
 34 30  1  0  0  0  0
 35 36  1  6  0  0  0
 35 37  1  0  0  0  0
 37 38  1  0  0  0  0
 38 39  1  0  0  0  0
 41 40  1  6  0  0  0
 42 41  1  0  0  0  0
 43 42  1  0  0  0  0
 43 44  1  0  0  0  0
 45 44  1  1  0  0  0
 45 54  1  0  0  0  0
 45 48  1  0  0  0  0
 48 46  2  0  0  0  0
 48 47  2  0  0  0  0
 49 48  1  0  0  0  0
 49 50  1  0  0  0  0
 51 53  1  0  0  0  0
 53 52  1  1  0  0  0
 53 50  1  0  0  0  0
 55 58  1  0  0  0  0
 55 57  1  0  0  0  0
 56 59  1  0  0  0  0
 56 54  1  0  0  0  0
 57 59  1  0  0  0  0
 58 56  1  0  0  0  0
M  END
>  <MODEL>
7

>  <REMARK>
 VINA RESULT:      -6.4      2.947      8.870
  Name = 
  20 active torsions:
  status: ('A' for Active; 'I' for Inactive)
    1  A    between atoms: O_1  and  C_7
    2  A    between atoms: O_1  and  C_29
    3  A    between atoms: N_4  and  C_5
    4  A    between atoms: N_4  and  C_38
    5  A    between atoms: C_5  and  C_46
    6  A    between atoms: C_6  and  N_48
    7  A    between atoms: C_6  and  C_52
    8  A    between atoms: C_7  and  C_39
    9  A    between atoms: C_10  and  C_15
   10  A    between atoms: C_10  and  O_17
   11  A    between atoms: C_10  and  S_51
   12  A    between atoms: N_11  and  C_22
   13  A    between atoms: C_14  and  O_17
   14  A    between atoms: C_15  and  C_24
   15  A    between atoms: C_18  and  N_42
   16  A    between atoms: C_24  and  C_31
   17  A    between atoms: C_31  and  C_54
   18  A    between atoms: C_33  and  C_34
   19  A    between atoms: C_36  and  C_54
   20  A    between atoms: N_48  and  S_51
                            x       y       z     vdW  Elec       q    Type
                         _______ _______ _______ _____ _____    ______ ____

>  <TORSDO>
F 20

$$$$
=
 OpenBabel10222418163D

 59 63  0  0  1  0  0  0  0  0999 V2000
  188.0010  178.2120  140.7370 C   0  0  0  0  0  3  0  0  0  0  0  0
  187.8290  178.1650  139.4350 C   0  0  0  0  0  0  0  0  0  0  0  0
  189.1680  178.1430  138.7550 C   0  0  1  0  0  3  0  0  0  0  0  0
  189.3930  178.2150  141.0040 N   0  0  0  0  0  0  0  0  0  0  0  0
  190.1660  178.1810  139.8320 N   0  0  0  0  0  2  0  0  0  0  0  0
  191.3080  178.1510  142.4700 C   0  0  0  0  0  3  0  0  0  0  0  0
  189.9800  178.2340  142.3120 C   0  0  0  0  0  0  0  0  0  0  0  0
  189.0980  178.3650  143.5280 C   0  0  0  0  0  2  0  0  0  0  0  0
  191.0650  177.4380  144.8130 C   0  0  0  0  0  0  0  0  0  0  0  0
  189.5580  177.4360  144.6600 C   0  0  1  0  0  3  0  0  0  0  0  0
  191.5880  176.8240  145.7300 O   0  0  0  0  0  0  0  0  0  0  0  0
  191.9270  178.1900  143.8370 C   0  0  0  0  0  2  0  0  0  0  0  0
  188.9210  177.8460  145.9010 N   0  0  0  0  0  2  0  0  0  0  0  0
  187.7420  177.0140  146.0670 C   0  0  0  0  0  2  0  0  0  0  0  0
  186.0500  178.6610  147.0640 C   0  0  0  0  0  3  0  0  0  0  0  0
  184.7530  178.9840  145.3510 N   0  0  0  0  0  0  0  0  0  0  0  0
  183.6700  179.5140  144.5380 C   0  0  0  0  0  1  0  0  0  0  0  0
  184.9630  179.3280  146.6140 N   0  0  0  0  0  0  0  0  0  0  0  0
  186.5200  177.8690  146.0310 C   0  0  0  0  0  0  0  0  0  0  0  0
  185.6860  178.1020  144.9600 C   0  0  0  0  0  0  0  0  0  0  0  0
  185.7860  177.4990  143.5950 C   0  0  0  0  0  1  0  0  0  0  0  0
  184.1020  178.6460  138.7590 C   0  0  0  0  0  3  0  0  0  0  0  0
  186.5020  177.8850  137.5040 O   0  0  0  0  0  0  0  0  0  0  0  0
  185.1370  178.9620  140.6580 C   0  0  0  0  0  3  0  0  0  0  0  0
  183.1630  179.0670  139.6830 C   0  0  0  0  0  0  0  0  0  0  0  0
  186.5270  178.2050  138.7260 C   0  0  0  0  0  0  0  0  0  0  0  0
  183.8070  179.2620  140.8960 C   0  0  0  0  0  3  0  0  0  0  0  0
  185.3000  178.5960  139.3700 N   0  0  0  0  0  0  0  0  0  0  0  0
  181.7430  179.2080  139.4520 N   0  0  0  0  0  0  0  0  0  0  0  0
  179.6620  179.4080  140.5330 O   0  0  0  0  0  0  0  0  0  0  0  0
  181.2820  179.5890  138.1370 C   0  0  0  0  0  0  0  0  0  0  0  0
  181.1110  177.8840  141.4280 O   0  0  0  0  0  1  0  0  0  0  0  0
  181.7470  179.0000  137.1240 O   0  0  0  0  0  0  0  0  0  0  0  0
  180.7960  178.8580  140.4850 C   0  0  0  0  0  0  0  0  0  0  0  0
  180.2870  180.6990  137.9230 C   0  0  1  0  0  3  0  0  0  0  0  0
  180.7930  182.0070  138.5140 C   0  0  0  0  0  1  0  0  0  0  0  0
  179.9870  180.8580  136.5650 O   0  0  0  0  0  0  0  0  0  0  0  0
  180.5230  182.1030  136.2140 C   0  0  0  0  0  2  0  0  0  0  0  0
  180.6940  182.1770  134.7050 C   0  0  0  0  0  1  0  0  0  0  0  0
  189.7100  175.7930  138.7040 O   0  0  0  0  0  1  0  0  0  0  0  0
  189.3400  176.8840  137.9040 C   0  0  2  0  0  3  0  0  0  0  0  0
  190.3810  177.1330  136.8220 C   0  0  0  0  0  2  0  0  0  0  0  0
  191.3810  175.9890  136.7680 C   0  0  0  0  0  2  0  0  0  0  0  0
  191.3830  175.3620  135.3800 C   0  0  0  0  0  2  0  0  0  0  0  0
  191.6670  173.8600  135.4210 C   0  0  1  0  0  3  0  0  0  0  0  0
  194.1820  174.8270  135.3040 O   0  0  0  0  0  0  0  0  0  0  0  0
  193.8980  172.3970  135.0400 O   0  0  0  0  0  0  0  0  0  0  0  0
  193.4060  173.6240  135.7640 S   0  0  0  0  0  0  0  0  0  0  0  0
  193.6130  173.4230  137.4690 N   0  0  0  0  0  2  0  0  0  0  0  0
  194.6730  174.3320  137.8930 C   0  0  0  0  0  2  0  0  0  0  0  0
  196.5870  172.9040  137.6810 O   0  0  0  0  0  1  0  0  0  0  0  0
  196.6340  174.5180  139.4330 C   0  0  0  0  0  1  0  0  0  0  0  0
  195.7830  173.5790  138.6040 C   0  0  1  0  0  3  0  0  0  0  0  0
  190.9080  173.2560  136.4270 O   0  0  0  0  0  0  0  0  0  0  0  0
  187.6460  171.8500  136.3040 C   0  0  0  0  0  2  0  0  0  0  0  0
  189.6060  173.1830  135.9250 C   0  0  0  0  0  3  0  0  0  0  0  0
  188.4110  171.1890  135.1770 C   0  0  0  0  0  2  0  0  0  0  0  0
  188.6520  172.7220  137.0090 C   0  0  0  0  0  2  0  0  0  0  0  0
  189.5360  172.1450  134.8220 C   0  0  0  0  0  2  0  0  0  0  0  0
  1  4  1  0  0  0  0
  2  1  2  0  0  0  0
  3 41  1  1  0  0  0
  3  2  1  0  0  0  0
  3  5  1  0  0  0  0
  4  7  1  0  0  0  0
  5  4  1  0  0  0  0
  6 12  1  0  0  0  0
  7  6  2  0  0  0  0
  7  8  1  0  0  0  0
  8 10  1  0  0  0  0
  9 11  2  0  0  0  0
 10  9  1  0  0  0  0
 10 13  1  1  0  0  0
 12  9  1  0  0  0  0
 13 14  1  0  0  0  0
 16 18  1  0  0  0  0
 17 16  1  0  0  0  0
 18 15  2  0  0  0  0
 19 14  1  0  0  0  0
 19 15  1  0  0  0  0
 20 16  1  0  0  0  0
 20 19  2  0  0  0  0
 21 20  1  0  0  0  0
 22 28  1  0  0  0  0
 22 25  2  0  0  0  0
 23 26  2  0  0  0  0
 24 27  2  0  0  0  0
 25 27  1  0  0  0  0
 26 28  1  0  0  0  0
 26  2  1  0  0  0  0
 28 24  1  0  0  0  0
 29 25  1  0  0  0  0
 29 34  1  0  0  0  0
 31 29  1  0  0  0  0
 33 31  2  0  0  0  0
 34 30  2  0  0  0  0
 34 32  1  0  0  0  0
 35 31  1  0  0  0  0
 35 36  1  6  0  0  0
 37 35  1  0  0  0  0
 38 37  1  0  0  0  0
 39 38  1  0  0  0  0
 41 40  1  1  0  0  0
 42 41  1  0  0  0  0
 43 42  1  0  0  0  0
 44 43  1  0  0  0  0
 45 44  1  1  0  0  0
 45 48  1  0  0  0  0
 45 54  1  0  0  0  0
 46 48  2  0  0  0  0
 47 48  2  0  0  0  0
 48 49  1  0  0  0  0
 49 50  1  0  0  0  0
 50 53  1  0  0  0  0
 51 53  1  0  0  0  0
 53 52  1  6  0  0  0
 55 58  1  0  0  0  0
 56 54  1  0  0  0  0
 56 58  1  0  0  0  0
 57 55  1  0  0  0  0
 59 57  1  0  0  0  0
 59 56  1  0  0  0  0
M  END
>  <MODEL>
8

>  <REMARK>
 VINA RESULT:      -6.4      2.658      9.842
  Name = 
  20 active torsions:
  status: ('A' for Active; 'I' for Inactive)
    1  A    between atoms: O_1  and  C_7
    2  A    between atoms: O_1  and  C_29
    3  A    between atoms: N_4  and  C_5
    4  A    between atoms: N_4  and  C_38
    5  A    between atoms: C_5  and  C_46
    6  A    between atoms: C_6  and  N_48
    7  A    between atoms: C_6  and  C_52
    8  A    between atoms: C_7  and  C_39
    9  A    between atoms: C_10  and  C_15
   10  A    between atoms: C_10  and  O_17
   11  A    between atoms: C_10  and  S_51
   12  A    between atoms: N_11  and  C_22
   13  A    between atoms: C_14  and  O_17
   14  A    between atoms: C_15  and  C_24
   15  A    between atoms: C_18  and  N_42
   16  A    between atoms: C_24  and  C_31
   17  A    between atoms: C_31  and  C_54
   18  A    between atoms: C_33  and  C_34
   19  A    between atoms: C_36  and  C_54
   20  A    between atoms: N_48  and  S_51
                            x       y       z     vdW  Elec       q    Type
                         _______ _______ _______ _____ _____    ______ ____

>  <TORSDO>
F 20

$$$$
=
 OpenBabel10222418163D

 59 63  0  0  1  0  0  0  0  0999 V2000
  188.5710  176.0840  136.5620 C   0  0  0  0  0  3  0  0  0  0  0  0
  188.0900  176.7740  137.5710 C   0  0  0  0  0  0  0  0  0  0  0  0
  188.8590  176.4380  138.8170 C   0  0  1  0  0  3  0  0  0  0  0  0
  189.6440  175.2880  137.0360 N   0  0  0  0  0  0  0  0  0  0  0  0
  189.8690  175.4520  138.4120 N   0  0  0  0  0  2  0  0  0  0  0  0
  189.8690  173.4740  135.4610 C   0  0  0  0  0  3  0  0  0  0  0  0
  190.4420  174.4150  136.2250 C   0  0  0  0  0  0  0  0  0  0  0  0
  191.9420  174.5640  136.2150 C   0  0  0  0  0  2  0  0  0  0  0  0
  191.9740  172.2060  135.3090 C   0  0  0  0  0  0  0  0  0  0  0  0
  192.6430  173.1980  136.2370 C   0  0  1  0  0  3  0  0  0  0  0  0
  192.4640  171.1000  135.1380 O   0  0  0  0  0  0  0  0  0  0  0  0
  190.7010  172.5710  134.5960 C   0  0  0  0  0  2  0  0  0  0  0  0
  194.0390  173.3740  135.8700 N   0  0  0  0  0  2  0  0  0  0  0  0
  194.8230  172.5630  136.7860 C   0  0  0  0  0  2  0  0  0  0  0  0
  195.3240  174.2540  138.6450 C   0  0  0  0  0  3  0  0  0  0  0  0
  197.4830  174.4140  138.4670 N   0  0  0  0  0  0  0  0  0  0  0  0
  198.8500  174.8270  138.7430 C   0  0  0  0  0  1  0  0  0  0  0  0
  196.4330  174.8370  139.1550 N   0  0  0  0  0  0  0  0  0  0  0  0
  195.7160  173.4450  137.5930 C   0  0  0  0  0  0  0  0  0  0  0  0
  197.0860  173.5600  137.5110 C   0  0  0  0  0  0  0  0  0  0  0  0
  197.9890  172.8620  136.5460 C   0  0  0  0  0  1  0  0  0  0  0  0
  184.4790  178.0120  137.4950 C   0  0  0  0  0  3  0  0  0  0  0  0
  187.1380  178.9310  137.4820 O   0  0  0  0  0  0  0  0  0  0  0  0
  185.1450  175.9320  137.5730 C   0  0  0  0  0  3  0  0  0  0  0  0
  183.3520  177.2120  137.5240 C   0  0  0  0  0  0  0  0  0  0  0  0
  186.9220  177.6870  137.5250 C   0  0  0  0  0  0  0  0  0  0  0  0
  183.7630  175.8870  137.5630 C   0  0  0  0  0  3  0  0  0  0  0  0
  185.5620  177.2140  137.5340 N   0  0  0  0  0  0  0  0  0  0  0  0
  181.9810  177.6650  137.4480 N   0  0  0  0  0  0  0  0  0  0  0  0
  180.0300  177.5760  136.1360 O   0  0  0  0  0  1  0  0  0  0  0  0
  181.3580  178.2130  138.6310 C   0  0  0  0  0  0  0  0  0  0  0  0
  181.9900  177.8450  134.9930 O   0  0  0  0  0  0  0  0  0  0  0  0
  181.9770  179.0730  139.3130 O   0  0  0  0  0  0  0  0  0  0  0  0
  181.2850  177.6820  136.1820 C   0  0  0  0  0  0  0  0  0  0  0  0
  180.0020  177.7640  139.1080 C   0  0  1  0  0  3  0  0  0  0  0  0
  180.0010  176.2770  139.4280 C   0  0  0  0  0  1  0  0  0  0  0  0
  179.5830  178.5060  140.2190 O   0  0  0  0  0  0  0  0  0  0  0  0
  179.4340  177.5700  141.2490 C   0  0  0  0  0  2  0  0  0  0  0  0
  179.0010  178.2800  142.5230 C   0  0  0  0  0  1  0  0  0  0  0  0
  190.9100  177.4940  139.5210 O   0  0  0  0  0  1  0  0  0  0  0  0
  189.5240  177.6790  139.4130 C   0  0  2  0  0  3  0  0  0  0  0  0
  188.9170  177.9860  140.7740 C   0  0  0  0  0  2  0  0  0  0  0  0
  189.8320  177.5080  141.8890 C   0  0  0  0  0  2  0  0  0  0  0  0
  189.7540  178.4600  143.0750 C   0  0  0  0  0  2  0  0  0  0  0  0
  189.6220  177.7220  144.4070 C   0  0  1  0  0  3  0  0  0  0  0  0
  187.6400  177.0860  146.1220 O   0  0  0  0  0  0  0  0  0  0  0  0
  187.5630  176.0640  143.8850 O   0  0  0  0  0  0  0  0  0  0  0  0
  187.8990  177.3130  144.6580 S   0  0  0  0  0  0  0  0  0  0  0  0
  186.9280  178.6300  144.1000 N   0  0  0  0  0  2  0  0  0  0  0  0
  185.6950  178.0690  143.5610 C   0  0  0  0  0  2  0  0  0  0  0  0
  183.7640  179.0090  142.4940 O   0  0  0  0  0  1  0  0  0  0  0  0
  183.7050  178.8300  144.8700 C   0  0  0  0  0  1  0  0  0  0  0  0
  184.5590  179.0730  143.6430 C   0  0  1  0  0  3  0  0  0  0  0  0
  190.3800  176.5480  144.3810 O   0  0  0  0  0  0  0  0  0  0  0  0
  192.4190  175.6320  147.1440 C   0  0  0  0  0  2  0  0  0  0  0  0
  191.4390  176.7620  145.2670 C   0  0  0  0  0  3  0  0  0  0  0  0
  191.3960  176.5980  147.7020 C   0  0  0  0  0  2  0  0  0  0  0  0
  192.0350  175.4370  145.7000 C   0  0  0  0  0  2  0  0  0  0  0  0
  190.9300  177.4360  146.5250 C   0  0  0  0  0  2  0  0  0  0  0  0
  1  4  1  0  0  0  0
  1  2  2  0  0  0  0
  2  3  1  0  0  0  0
  3 41  1  6  0  0  0
  4  5  1  0  0  0  0
  5  3  1  0  0  0  0
  6  7  2  0  0  0  0
  7  4  1  0  0  0  0
  8  7  1  0  0  0  0
  8 10  1  0  0  0  0
  9 10  1  0  0  0  0
 10 13  1  6  0  0  0
 11  9  2  0  0  0  0
 12  9  1  0  0  0  0
 12  6  1  0  0  0  0
 13 14  1  0  0  0  0
 14 19  1  0  0  0  0
 15 18  2  0  0  0  0
 16 17  1  0  0  0  0
 16 18  1  0  0  0  0
 19 15  1  0  0  0  0
 20 19  2  0  0  0  0
 20 16  1  0  0  0  0
 21 20  1  0  0  0  0
 22 25  2  0  0  0  0
 22 28  1  0  0  0  0
 23 26  2  0  0  0  0
 25 27  1  0  0  0  0
 26 28  1  0  0  0  0
 26  2  1  0  0  0  0
 27 24  2  0  0  0  0
 28 24  1  0  0  0  0
 29 25  1  0  0  0  0
 29 31  1  0  0  0  0
 30 34  1  0  0  0  0
 31 35  1  0  0  0  0
 31 33  2  0  0  0  0
 32 34  2  0  0  0  0
 34 29  1  0  0  0  0
 35 36  1  1  0  0  0
 35 37  1  0  0  0  0
 37 38  1  0  0  0  0
 38 39  1  0  0  0  0
 41 40  1  1  0  0  0
 41 42  1  0  0  0  0
 42 43  1  0  0  0  0
 43 44  1  0  0  0  0
 45 44  1  6  0  0  0
 45 48  1  0  0  0  0
 47 48  2  0  0  0  0
 48 46  2  0  0  0  0
 49 48  1  0  0  0  0
 50 53  1  0  0  0  0
 50 49  1  0  0  0  0
 51 53  1  0  0  0  0
 53 52  1  1  0  0  0
 54 45  1  0  0  0  0
 54 56  1  0  0  0  0
 55 57  1  0  0  0  0
 56 58  1  0  0  0  0
 56 59  1  0  0  0  0
 58 55  1  0  0  0  0
 59 57  1  0  0  0  0
M  END
>  <MODEL>
9

>  <REMARK>
 VINA RESULT:      -6.3      2.843     10.814
  Name = 
  20 active torsions:
  status: ('A' for Active; 'I' for Inactive)
    1  A    between atoms: O_1  and  C_7
    2  A    between atoms: O_1  and  C_29
    3  A    between atoms: N_4  and  C_5
    4  A    between atoms: N_4  and  C_38
    5  A    between atoms: C_5  and  C_46
    6  A    between atoms: C_6  and  N_48
    7  A    between atoms: C_6  and  C_52
    8  A    between atoms: C_7  and  C_39
    9  A    between atoms: C_10  and  C_15
   10  A    between atoms: C_10  and  O_17
   11  A    between atoms: C_10  and  S_51
   12  A    between atoms: N_11  and  C_22
   13  A    between atoms: C_14  and  O_17
   14  A    between atoms: C_15  and  C_24
   15  A    between atoms: C_18  and  N_42
   16  A    between atoms: C_24  and  C_31
   17  A    between atoms: C_31  and  C_54
   18  A    between atoms: C_33  and  C_34
   19  A    between atoms: C_36  and  C_54
   20  A    between atoms: N_48  and  S_51
                            x       y       z     vdW  Elec       q    Type
                         _______ _______ _______ _____ _____    ______ ____

>  <TORSDO>
F 20

$$$$
