=
 OpenBabel10222418053D

 35 39  0  0  1  0  0  0  0  0999 V2000
  189.3420  177.1620  142.1940 C   0  0  0  0  0  0  0  0  0  0  0  0
  189.4270  177.0540  140.7980 C   0  0  0  0  0  3  0  0  0  0  0  0
  190.4920  177.5500  142.9170 C   0  0  0  0  0  0  0  0  0  0  0  0
  191.7240  177.6950  140.8620 N   0  0  0  0  0  0  0  0  0  0  0  0
  191.6800  177.8110  142.2140 C   0  0  0  0  0  3  0  0  0  0  0  0
  190.6280  177.3350  140.1410 C   0  0  0  0  0  0  0  0  0  0  0  0
  191.5390  176.0020  138.3080 C   0  0  2  0  0  3  0  0  0  0  0  0
  190.1350  175.9640  138.2650 O   0  0  0  0  0  0  0  0  0  0  0  0
  190.7180  177.1840  138.6580 C   0  0  1  0  0  3  0  0  0  0  0  0
  192.0380  176.1480  137.0050 O   0  0  0  0  0  0  0  0  0  0  0  0
  193.4220  175.8850  137.0390 C   0  0  0  0  0  0  0  0  0  0  0  0
  194.1280  176.8470  136.3290 F   0  0  0  0  0  0  0  0  0  0  0  0
  193.8810  175.8340  138.3470 F   0  0  0  0  0  0  0  0  0  0  0  0
  193.6510  174.6570  136.4500 F   0  0  0  0  0  0  0  0  0  0  0  0
  188.0490  176.8580  142.8500 C   0  0  0  0  0  0  0  0  0  0  0  0
  187.8200  175.7110  143.3200 O   0  0  0  0  0  0  0  0  0  0  0  0
  187.0540  177.8810  142.9600 N   0  0  0  0  0  2  0  0  0  0  0  0
  184.1540  179.5650  145.0090 N   0  0  0  0  0  0  0  0  0  0  0  0
  185.7760  177.7540  145.0340 C   0  0  0  0  0  2  0  0  0  0  0  0
  185.4770  179.1790  145.4870 C   0  0  0  0  0  2  0  0  0  0  0  0
  184.7120  178.5940  142.8350 C   0  0  1  0  0  3  0  0  0  0  0  0
  185.7240  177.6380  143.5030 C   0  0  1  0  0  3  0  0  0  0  0  0
  183.9630  177.9180  141.7190 C   0  0  0  0  0  3  0  0  0  0  0  0
  180.3600  179.7230  141.7550 Cl  0  0  0  0  0  0  0  0  0  0  0  0
  182.4660  179.6770  143.3570 N   0  0  0  0  0  0  0  0  0  0  0  0
  181.9650  179.2280  142.2440 C   0  0  0  0  0  0  0  0  0  0  0  0
  182.7030  178.2440  141.4250 C   0  0  0  0  0  3  0  0  0  0  0  0
  183.7730  179.2910  143.7980 C   0  0  0  0  0  0  0  0  0  0  0  0
  190.4470  177.6750  144.3120 O   0  0  0  0  0  0  0  0  0  0  0  0
  191.5760  177.4780  145.1550 C   0  0  0  0  0  2  0  0  0  0  0  0
  191.0670  176.6710  146.7040 S   0  0  0  0  0  0  0  0  0  0  0  0
  189.3270  177.1420  146.4760 C   0  0  0  0  0  2  0  0  0  0  0  0
  187.7980  178.3430  147.9950 C   0  0  0  0  0  2  0  0  0  0  0  0
  188.5960  177.0700  147.8010 C   0  0  0  0  0  3  0  0  0  0  0  0
  189.1170  178.1600  148.7150 C   0  0  0  0  0  2  0  0  0  0  0  0
  1 15  1  0  0  0  0
  1  3  1  0  0  0  0
  2  1  2  0  0  0  0
  3 29  1  0  0  0  0
  4  5  1  0  0  0  0
  5  3  2  0  0  0  0
  6  2  1  0  0  0  0
  6  4  2  0  0  0  0
  7 10  1  6  0  0  0
  7  9  1  0  0  0  0
  8  7  1  0  0  0  0
  8  9  1  0  0  0  0
  9  6  1  1  0  0  0
 10 11  1  0  0  0  0
 11 13  1  0  0  0  0
 12 11  1  0  0  0  0
 14 11  1  0  0  0  0
 15 17  1  0  0  0  0
 15 16  2  0  0  0  0
 18 20  1  0  0  0  0
 19 20  1  0  0  0  0
 21 23  1  6  0  0  0
 21 22  1  0  0  0  0
 21 28  1  0  0  0  0
 22 17  1  6  0  0  0
 22 19  1  0  0  0  0
 24 26  1  0  0  0  0
 25 28  1  0  0  0  0
 26 25  2  0  0  0  0
 27 23  2  0  0  0  0
 27 26  1  0  0  0  0
 28 18  2  0  0  0  0
 29 30  1  0  0  0  0
 30 31  1  0  0  0  0
 32 31  1  0  0  0  0
 32 34  1  0  0  0  0
 33 35  1  0  0  0  0
 34 33  1  0  0  0  0
 34 35  1  0  0  0  0
M  END
>  <MODEL>
1

>  <REMARK>
 VINA RESULT:      -7.9      0.000      0.000
  Name = 
  10 active torsions:
  status: ('A' for Active; 'I' for Inactive)
    1  A    between atoms: C_1  and  O_34
    2  A    between atoms: C_5  and  C_15
    3  A    between atoms: C_9  and  N_31
    4  A    between atoms: O_10  and  C_11
    5  A    between atoms: O_10  and  C_30
    6  A    between atoms: C_14  and  O_34
    7  A    between atoms: S_16  and  C_17
    8  A    between atoms: S_16  and  C_30
    9  A    between atoms: C_17  and  C_22
   10  A    between atoms: C_25  and  C_35
                            x       y       z     vdW  Elec       q    Type
                         _______ _______ _______ _____ _____    ______ ____

>  <TORSDO>
F 10

$$$$
=
 OpenBabel10222418053D

 35 39  0  0  1  0  0  0  0  0999 V2000
  189.2540  177.1350  141.6950 C   0  0  0  0  0  0  0  0  0  0  0  0
  189.0110  177.4890  140.3600 C   0  0  0  0  0  3  0  0  0  0  0  0
  190.5900  177.0580  142.1460 C   0  0  0  0  0  0  0  0  0  0  0  0
  191.3540  177.6760  139.9560 N   0  0  0  0  0  0  0  0  0  0  0  0
  191.6290  177.3370  141.2420 C   0  0  0  0  0  3  0  0  0  0  0  0
  190.0760  177.7670  139.5000 C   0  0  0  0  0  0  0  0  0  0  0  0
  188.3560  178.0650  137.7920 C   0  0  2  0  0  3  0  0  0  0  0  0
  189.0300  179.2810  137.9980 O   0  0  0  0  0  0  0  0  0  0  0  0
  189.8100  178.1110  138.0710 C   0  0  1  0  0  3  0  0  0  0  0  0
  188.1490  177.8790  136.4170 O   0  0  0  0  0  0  0  0  0  0  0  0
  186.7680  177.6850  136.2080 C   0  0  0  0  0  0  0  0  0  0  0  0
  186.0230  178.3270  137.1880 F   0  0  0  0  0  0  0  0  0  0  0  0
  186.3920  178.1430  134.9540 F   0  0  0  0  0  0  0  0  0  0  0  0
  186.4990  176.3320  136.2760 F   0  0  0  0  0  0  0  0  0  0  0  0
  188.0950  176.8500  142.5740 C   0  0  0  0  0  0  0  0  0  0  0  0
  188.0260  175.7680  143.2170 O   0  0  0  0  0  0  0  0  0  0  0  0
  187.0490  177.8180  142.7000 N   0  0  0  0  0  2  0  0  0  0  0  0
  184.6560  179.4310  145.3690 N   0  0  0  0  0  0  0  0  0  0  0  0
  186.1730  177.5740  144.9630 C   0  0  0  0  0  2  0  0  0  0  0  0
  186.0260  178.9690  145.5620 C   0  0  0  0  0  2  0  0  0  0  0  0
  184.7580  178.6110  143.0670 C   0  0  1  0  0  3  0  0  0  0  0  0
  185.8330  177.5760  143.4650 C   0  0  1  0  0  3  0  0  0  0  0  0
  183.7870  178.0460  142.0680 C   0  0  0  0  0  3  0  0  0  0  0  0
  180.3360  179.9530  142.9040 Cl  0  0  0  0  0  0  0  0  0  0  0  0
  182.6980  179.7200  144.0750 N   0  0  0  0  0  0  0  0  0  0  0  0
  181.9810  179.3720  143.0470 C   0  0  0  0  0  0  0  0  0  0  0  0
  182.5090  178.4320  142.0390 C   0  0  0  0  0  3  0  0  0  0  0  0
  184.0460  179.2620  144.2350 C   0  0  0  0  0  0  0  0  0  0  0  0
  190.8740  176.7140  143.4740 O   0  0  0  0  0  0  0  0  0  0  0  0
  191.2900  177.6560  144.4570 C   0  0  0  0  0  2  0  0  0  0  0  0
  191.3220  176.8730  146.0990 S   0  0  0  0  0  0  0  0  0  0  0  0
  189.5490  177.1660  146.3660 C   0  0  0  0  0  2  0  0  0  0  0  0
  187.9170  177.6780  148.1450 C   0  0  0  0  0  2  0  0  0  0  0  0
  189.2050  176.9470  147.8260 C   0  0  0  0  0  3  0  0  0  0  0  0
  189.2470  178.2760  148.5500 C   0  0  0  0  0  2  0  0  0  0  0  0
  1  3  1  0  0  0  0
  1 15  1  0  0  0  0
  2  1  2  0  0  0  0
  3 29  1  0  0  0  0
  4  5  1  0  0  0  0
  5  3  2  0  0  0  0
  6  4  2  0  0  0  0
  6  2  1  0  0  0  0
  7 10  1  6  0  0  0
  7  8  1  0  0  0  0
  7  9  1  0  0  0  0
  8  9  1  0  0  0  0
  9  6  1  1  0  0  0
 11 14  1  0  0  0  0
 11 10  1  0  0  0  0
 11 12  1  0  0  0  0
 13 11  1  0  0  0  0
 15 17  1  0  0  0  0
 15 16  2  0  0  0  0
 18 20  1  0  0  0  0
 19 20  1  0  0  0  0
 21 23  1  6  0  0  0
 21 22  1  0  0  0  0
 21 28  1  0  0  0  0
 22 17  1  6  0  0  0
 22 19  1  0  0  0  0
 24 26  1  0  0  0  0
 25 28  1  0  0  0  0
 26 25  2  0  0  0  0
 27 23  2  0  0  0  0
 27 26  1  0  0  0  0
 28 18  2  0  0  0  0
 29 30  1  0  0  0  0
 30 31  1  0  0  0  0
 31 32  1  0  0  0  0
 32 34  1  0  0  0  0
 33 35  1  0  0  0  0
 34 33  1  0  0  0  0
 34 35  1  0  0  0  0
M  END
>  <MODEL>
2

>  <REMARK>
 VINA RESULT:      -7.7      2.692      2.949
  Name = 
  10 active torsions:
  status: ('A' for Active; 'I' for Inactive)
    1  A    between atoms: C_1  and  O_34
    2  A    between atoms: C_5  and  C_15
    3  A    between atoms: C_9  and  N_31
    4  A    between atoms: O_10  and  C_11
    5  A    between atoms: O_10  and  C_30
    6  A    between atoms: C_14  and  O_34
    7  A    between atoms: S_16  and  C_17
    8  A    between atoms: S_16  and  C_30
    9  A    between atoms: C_17  and  C_22
   10  A    between atoms: C_25  and  C_35
                            x       y       z     vdW  Elec       q    Type
                         _______ _______ _______ _____ _____    ______ ____

>  <TORSDO>
F 10

$$$$
=
 OpenBabel10222418053D

 35 39  0  0  1  0  0  0  0  0999 V2000
  189.8480  176.8670  138.4360 C   0  0  0  0  0  0  0  0  0  0  0  0
  191.2320  176.8260  138.2140 C   0  0  0  0  0  3  0  0  0  0  0  0
  189.0120  176.0130  137.6830 C   0  0  0  0  0  0  0  0  0  0  0  0
  190.9410  175.1440  136.5490 N   0  0  0  0  0  0  0  0  0  0  0  0
  189.5960  175.1550  136.7370 C   0  0  0  0  0  3  0  0  0  0  0  0
  191.7680  175.9480  137.2690 C   0  0  0  0  0  0  0  0  0  0  0  0
  193.8970  174.8960  137.8420 C   0  0  2  0  0  3  0  0  0  0  0  0
  193.6210  174.6900  136.4790 O   0  0  0  0  0  0  0  0  0  0  0  0
  193.2400  175.9350  137.0150 C   0  0  1  0  0  3  0  0  0  0  0  0
  195.2550  175.2110  137.9960 O   0  0  0  0  0  0  0  0  0  0  0  0
  195.8040  174.3150  138.9350 C   0  0  0  0  0  0  0  0  0  0  0  0
  195.8330  174.8800  140.2030 F   0  0  0  0  0  0  0  0  0  0  0  0
  195.0820  173.1300  138.9640 F   0  0  0  0  0  0  0  0  0  0  0  0
  197.1010  174.0240  138.5600 F   0  0  0  0  0  0  0  0  0  0  0  0
  189.3210  177.8110  139.4500 C   0  0  0  0  0  0  0  0  0  0  0  0
  189.0610  179.0060  139.1430 O   0  0  0  0  0  0  0  0  0  0  0  0
  189.0960  177.3580  140.7890 N   0  0  0  0  0  2  0  0  0  0  0  0
  186.3870  177.7940  143.6030 N   0  0  0  0  0  0  0  0  0  0  0  0
  187.2640  178.7730  141.5570 C   0  0  0  0  0  2  0  0  0  0  0  0
  186.1940  177.8680  142.1590 C   0  0  0  0  0  2  0  0  0  0  0  0
  188.7850  177.5050  143.2160 C   0  0  1  0  0  3  0  0  0  0  0  0
  188.6730  178.2440  141.8650 C   0  0  1  0  0  3  0  0  0  0  0  0
  190.0550  177.8590  143.9390 C   0  0  0  0  0  3  0  0  0  0  0  0
  189.0480  177.5860  147.8320 Cl  0  0  0  0  0  0  0  0  0  0  0  0
  187.7330  177.5810  145.5350 N   0  0  0  0  0  0  0  0  0  0  0  0
  188.9070  177.6610  146.0890 C   0  0  0  0  0  0  0  0  0  0  0  0
  190.1160  177.8910  145.2720 C   0  0  0  0  0  3  0  0  0  0  0  0
  187.5720  177.6440  144.1130 C   0  0  0  0  0  0  0  0  0  0  0  0
  187.6250  176.0190  137.8800 O   0  0  0  0  0  0  0  0  0  0  0  0
  186.6870  176.2900  136.8440 C   0  0  0  0  0  2  0  0  0  0  0  0
  186.3930  178.0810  136.7200 S   0  0  0  0  0  0  0  0  0  0  0  0
  185.6830  178.1660  138.3890 C   0  0  0  0  0  2  0  0  0  0  0  0
  183.8060  179.6000  139.1050 C   0  0  0  0  0  2  0  0  0  0  0  0
  184.1830  178.3720  138.3020 C   0  0  0  0  0  3  0  0  0  0  0  0
  183.5800  178.2190  139.6820 C   0  0  0  0  0  2  0  0  0  0  0  0
  1 15  1  0  0  0  0
  2  1  1  0  0  0  0
  3 29  1  0  0  0  0
  3  1  2  0  0  0  0
  4  5  2  0  0  0  0
  4  6  1  0  0  0  0
  5  3  1  0  0  0  0
  6  2  2  0  0  0  0
  7 10  1  6  0  0  0
  8  9  1  0  0  0  0
  8  7  1  0  0  0  0
  9  6  1  1  0  0  0
  9  7  1  0  0  0  0
 10 11  1  0  0  0  0
 11 13  1  0  0  0  0
 11 12  1  0  0  0  0
 14 11  1  0  0  0  0
 15 17  1  0  0  0  0
 16 15  2  0  0  0  0
 18 28  2  0  0  0  0
 19 22  1  0  0  0  0
 19 20  1  0  0  0  0
 20 18  1  0  0  0  0
 21 23  1  1  0  0  0
 21 28  1  0  0  0  0
 22 17  1  6  0  0  0
 22 21  1  0  0  0  0
 23 27  2  0  0  0  0
 25 26  2  0  0  0  0
 26 24  1  0  0  0  0
 27 26  1  0  0  0  0
 28 25  1  0  0  0  0
 30 29  1  0  0  0  0
 31 30  1  0  0  0  0
 31 32  1  0  0  0  0
 33 35  1  0  0  0  0
 34 32  1  0  0  0  0
 34 33  1  0  0  0  0
 34 35  1  0  0  0  0
M  END
>  <MODEL>
3

>  <REMARK>
 VINA RESULT:      -7.4      3.668      6.282
  Name = 
  10 active torsions:
  status: ('A' for Active; 'I' for Inactive)
    1  A    between atoms: C_1  and  O_34
    2  A    between atoms: C_5  and  C_15
    3  A    between atoms: C_9  and  N_31
    4  A    between atoms: O_10  and  C_11
    5  A    between atoms: O_10  and  C_30
    6  A    between atoms: C_14  and  O_34
    7  A    between atoms: S_16  and  C_17
    8  A    between atoms: S_16  and  C_30
    9  A    between atoms: C_17  and  C_22
   10  A    between atoms: C_25  and  C_35
                            x       y       z     vdW  Elec       q    Type
                         _______ _______ _______ _____ _____    ______ ____

>  <TORSDO>
F 10

$$$$
=
 OpenBabel10222418053D

 35 39  0  0  1  0  0  0  0  0999 V2000
  189.5520  176.9830  138.3160 C   0  0  0  0  0  0  0  0  0  0  0  0
  190.9320  176.8820  138.0900 C   0  0  0  0  0  3  0  0  0  0  0  0
  188.6770  176.1830  137.5490 C   0  0  0  0  0  0  0  0  0  0  0  0
  190.5610  175.2450  136.3950 N   0  0  0  0  0  0  0  0  0  0  0  0
  189.2180  175.3160  136.5860 C   0  0  0  0  0  3  0  0  0  0  0  0
  191.4260  175.9970  137.1280 C   0  0  0  0  0  0  0  0  0  0  0  0
  193.5330  174.9650  137.8070 C   0  0  2  0  0  3  0  0  0  0  0  0
  193.2430  174.6130  136.4780 O   0  0  0  0  0  0  0  0  0  0  0  0
  192.8950  175.9190  136.8710 C   0  0  1  0  0  3  0  0  0  0  0  0
  194.9000  175.2620  137.9190 O   0  0  0  0  0  0  0  0  0  0  0  0
  195.5080  174.2300  138.6610 C   0  0  0  0  0  0  0  0  0  0  0  0
  195.7830  174.6460  139.9570 F   0  0  0  0  0  0  0  0  0  0  0  0
  194.7000  173.1030  138.6900 F   0  0  0  0  0  0  0  0  0  0  0  0
  196.7010  173.8940  138.0510 F   0  0  0  0  0  0  0  0  0  0  0  0
  189.0720  177.9320  139.3480 C   0  0  0  0  0  0  0  0  0  0  0  0
  188.9870  179.1650  139.0990 O   0  0  0  0  0  0  0  0  0  0  0  0
  188.6910  177.4420  140.6370 N   0  0  0  0  0  2  0  0  0  0  0  0
  186.0450  177.8700  143.5120 N   0  0  0  0  0  0  0  0  0  0  0  0
  186.8940  178.8690  141.4640 C   0  0  0  0  0  2  0  0  0  0  0  0
  185.8240  177.9680  142.0730 C   0  0  0  0  0  2  0  0  0  0  0  0
  188.4310  177.5560  143.0730 C   0  0  1  0  0  3  0  0  0  0  0  0
  188.3020  178.3170  141.7350 C   0  0  1  0  0  3  0  0  0  0  0  0
  189.7200  177.8830  143.7750 C   0  0  0  0  0  3  0  0  0  0  0  0
  188.7870  177.5640  147.6830 Cl  0  0  0  0  0  0  0  0  0  0  0  0
  187.4270  177.6100  145.4130 N   0  0  0  0  0  0  0  0  0  0  0  0
  188.6120  177.6660  145.9450 C   0  0  0  0  0  0  0  0  0  0  0  0
  189.8070  177.8940  145.1070 C   0  0  0  0  0  3  0  0  0  0  0  0
  187.2380  177.6970  143.9960 C   0  0  0  0  0  0  0  0  0  0  0  0
  187.2920  176.2510  137.7490 O   0  0  0  0  0  0  0  0  0  0  0  0
  186.4160  177.0100  136.9230 C   0  0  0  0  0  2  0  0  0  0  0  0
  184.6910  176.5070  137.2120 S   0  0  0  0  0  0  0  0  0  0  0  0
  184.9680  174.8530  136.5140 C   0  0  0  0  0  2  0  0  0  0  0  0
  185.9500  172.8660  137.6000 C   0  0  0  0  0  2  0  0  0  0  0  0
  184.7570  173.8000  137.5840 C   0  0  0  0  0  3  0  0  0  0  0  0
  184.6630  172.4390  136.9280 C   0  0  0  0  0  2  0  0  0  0  0  0
  1 15  1  0  0  0  0
  2  1  1  0  0  0  0
  3 29  1  0  0  0  0
  3  1  2  0  0  0  0
  4  5  2  0  0  0  0
  4  6  1  0  0  0  0
  5  3  1  0  0  0  0
  6  2  2  0  0  0  0
  7 10  1  6  0  0  0
  8  9  1  0  0  0  0
  8  7  1  0  0  0  0
  9  6  1  1  0  0  0
  9  7  1  0  0  0  0
 10 11  1  0  0  0  0
 11 13  1  0  0  0  0
 11 12  1  0  0  0  0
 14 11  1  0  0  0  0
 15 17  1  0  0  0  0
 16 15  2  0  0  0  0
 18 28  2  0  0  0  0
 19 22  1  0  0  0  0
 19 20  1  0  0  0  0
 20 18  1  0  0  0  0
 21 23  1  1  0  0  0
 21 28  1  0  0  0  0
 22 17  1  6  0  0  0
 22 21  1  0  0  0  0
 23 27  2  0  0  0  0
 25 26  2  0  0  0  0
 26 24  1  0  0  0  0
 27 26  1  0  0  0  0
 28 25  1  0  0  0  0
 30 31  1  0  0  0  0
 30 29  1  0  0  0  0
 32 31  1  0  0  0  0
 32 34  1  0  0  0  0
 34 33  1  0  0  0  0
 35 34  1  0  0  0  0
 35 33  1  0  0  0  0
M  END
>  <MODEL>
4

>  <REMARK>
 VINA RESULT:      -7.3      4.095      6.623
  Name = 
  10 active torsions:
  status: ('A' for Active; 'I' for Inactive)
    1  A    between atoms: C_1  and  O_34
    2  A    between atoms: C_5  and  C_15
    3  A    between atoms: C_9  and  N_31
    4  A    between atoms: O_10  and  C_11
    5  A    between atoms: O_10  and  C_30
    6  A    between atoms: C_14  and  O_34
    7  A    between atoms: S_16  and  C_17
    8  A    between atoms: S_16  and  C_30
    9  A    between atoms: C_17  and  C_22
   10  A    between atoms: C_25  and  C_35
                            x       y       z     vdW  Elec       q    Type
                         _______ _______ _______ _____ _____    ______ ____

>  <TORSDO>
F 10

$$$$
=
 OpenBabel10222418053D

 35 39  0  0  1  0  0  0  0  0999 V2000
  189.0920  177.8510  142.1920 C   0  0  0  0  0  0  0  0  0  0  0  0
  189.4500  178.0340  143.5350 C   0  0  0  0  0  3  0  0  0  0  0  0
  189.8590  176.9720  141.3960 C   0  0  0  0  0  0  0  0  0  0  0  0
  191.2720  176.5150  143.2830 N   0  0  0  0  0  0  0  0  0  0  0  0
  190.9550  176.3120  141.9770 C   0  0  0  0  0  3  0  0  0  0  0  0
  190.5420  177.3480  144.0720 C   0  0  0  0  0  0  0  0  0  0  0  0
  190.0780  176.7760  146.4010 C   0  0  2  0  0  3  0  0  0  0  0  0
  191.3790  176.3650  146.0660 O   0  0  0  0  0  0  0  0  0  0  0  0
  190.9370  177.5740  145.4950 C   0  0  1  0  0  3  0  0  0  0  0  0
  190.0910  177.3490  147.6820 O   0  0  0  0  0  0  0  0  0  0  0  0
  188.7540  177.5500  148.0800 C   0  0  0  0  0  0  0  0  0  0  0  0
  188.0980  176.3380  148.2480 F   0  0  0  0  0  0  0  0  0  0  0  0
  188.6960  178.2840  149.2560 F   0  0  0  0  0  0  0  0  0  0  0  0
  188.1030  178.2630  147.0910 F   0  0  0  0  0  0  0  0  0  0  0  0
  187.9250  178.5960  141.6630 C   0  0  0  0  0  0  0  0  0  0  0  0
  188.0720  179.4670  140.7630 O   0  0  0  0  0  0  0  0  0  0  0  0
  186.6180  178.3170  142.1720 N   0  0  0  0  0  2  0  0  0  0  0  0
  183.1490  177.9710  140.3580 N   0  0  0  0  0  0  0  0  0  0  0  0
  185.3200  179.0590  140.2450 C   0  0  0  0  0  2  0  0  0  0  0  0
  184.4780  177.8810  139.7650 C   0  0  0  0  0  2  0  0  0  0  0  0
  184.1950  178.5030  142.5030 C   0  0  1  0  0  3  0  0  0  0  0  0
  185.4350  179.0690  141.7770 C   0  0  1  0  0  3  0  0  0  0  0  0
  183.8410  179.3190  143.7150 C   0  0  0  0  0  3  0  0  0  0  0  0
  179.8340  178.9660  143.9680 Cl  0  0  0  0  0  0  0  0  0  0  0  0
  181.6750  178.3600  142.1650 N   0  0  0  0  0  0  0  0  0  0  0  0
  181.4650  178.8750  143.3410 C   0  0  0  0  0  0  0  0  0  0  0  0
  182.5760  179.4550  144.1210 C   0  0  0  0  0  3  0  0  0  0  0  0
  182.9930  178.2720  141.6110 C   0  0  0  0  0  0  0  0  0  0  0  0
  189.5300  176.7580  140.0520 O   0  0  0  0  0  0  0  0  0  0  0  0
  190.4920  176.4560  139.0460 C   0  0  0  0  0  2  0  0  0  0  0  0
  189.7040  176.4600  137.4060 S   0  0  0  0  0  0  0  0  0  0  0  0
  188.1090  177.0090  138.0800 C   0  0  0  0  0  2  0  0  0  0  0  0
  186.3000  177.8630  136.6360 C   0  0  0  0  0  2  0  0  0  0  0  0
  187.6110  178.2150  137.3080 C   0  0  0  0  0  3  0  0  0  0  0  0
  187.5820  177.8800  135.8310 C   0  0  0  0  0  2  0  0  0  0  0  0
  1  2  1  0  0  0  0
  2  6  2  0  0  0  0
  3  5  1  0  0  0  0
  3  1  2  0  0  0  0
  4  6  1  0  0  0  0
  5  4  2  0  0  0  0
  7 10  1  1  0  0  0
  8  7  1  0  0  0  0
  9  6  1  6  0  0  0
  9  8  1  0  0  0  0
  9  7  1  0  0  0  0
 10 11  1  0  0  0  0
 11 12  1  0  0  0  0
 11 13  1  0  0  0  0
 14 11  1  0  0  0  0
 15 17  1  0  0  0  0
 15  1  1  0  0  0  0
 16 15  2  0  0  0  0
 18 28  2  0  0  0  0
 19 22  1  0  0  0  0
 20 19  1  0  0  0  0
 20 18  1  0  0  0  0
 21 23  1  1  0  0  0
 22 17  1  6  0  0  0
 22 21  1  0  0  0  0
 23 27  2  0  0  0  0
 25 26  2  0  0  0  0
 26 24  1  0  0  0  0
 26 27  1  0  0  0  0
 28 25  1  0  0  0  0
 28 21  1  0  0  0  0
 29  3  1  0  0  0  0
 30 29  1  0  0  0  0
 31 32  1  0  0  0  0
 31 30  1  0  0  0  0
 33 34  1  0  0  0  0
 34 32  1  0  0  0  0
 35 33  1  0  0  0  0
 35 34  1  0  0  0  0
M  END
>  <MODEL>
5

>  <REMARK>
 VINA RESULT:      -7.2      4.312      7.071
  Name = 
  10 active torsions:
  status: ('A' for Active; 'I' for Inactive)
    1  A    between atoms: C_1  and  O_34
    2  A    between atoms: C_5  and  C_15
    3  A    between atoms: C_9  and  N_31
    4  A    between atoms: O_10  and  C_11
    5  A    between atoms: O_10  and  C_30
    6  A    between atoms: C_14  and  O_34
    7  A    between atoms: S_16  and  C_17
    8  A    between atoms: S_16  and  C_30
    9  A    between atoms: C_17  and  C_22
   10  A    between atoms: C_25  and  C_35
                            x       y       z     vdW  Elec       q    Type
                         _______ _______ _______ _____ _____    ______ ____

>  <TORSDO>
F 10

$$$$
=
 OpenBabel10222418053D

 35 39  0  0  1  0  0  0  0  0999 V2000
  188.4260  177.8810  139.9470 C   0  0  0  0  0  0  0  0  0  0  0  0
  189.3800  177.6040  138.9570 C   0  0  0  0  0  3  0  0  0  0  0  0
  187.1630  178.3750  139.5540 C   0  0  0  0  0  0  0  0  0  0  0  0
  187.8560  178.2940  137.2570 N   0  0  0  0  0  0  0  0  0  0  0  0
  186.9060  178.5730  138.1870 C   0  0  0  0  0  3  0  0  0  0  0  0
  189.0770  177.8070  137.6090 C   0  0  0  0  0  0  0  0  0  0  0  0
  190.5500  176.1280  136.6220 C   0  0  2  0  0  3  0  0  0  0  0  0
  189.6340  176.5770  135.6550 O   0  0  0  0  0  0  0  0  0  0  0  0
  190.1100  177.5410  136.5650 C   0  0  1  0  0  3  0  0  0  0  0  0
  191.8190  176.0080  136.0360 O   0  0  0  0  0  0  0  0  0  0  0  0
  192.7310  175.6420  137.0460 C   0  0  0  0  0  0  0  0  0  0  0  0
  193.4820  174.5400  136.6610 F   0  0  0  0  0  0  0  0  0  0  0  0
  193.5720  176.7010  137.3560 F   0  0  0  0  0  0  0  0  0  0  0  0
  192.0180  175.3070  138.1810 F   0  0  0  0  0  0  0  0  0  0  0  0
  188.7890  177.6500  141.3650 C   0  0  0  0  0  0  0  0  0  0  0  0
  189.0410  178.6180  142.1320 O   0  0  0  0  0  0  0  0  0  0  0  0
  188.8440  176.3120  141.8710 N   0  0  0  0  0  2  0  0  0  0  0  0
  191.1790  177.5550  144.7780 N   0  0  0  0  0  0  0  0  0  0  0  0
  190.7990  175.7350  143.2100 C   0  0  0  0  0  2  0  0  0  0  0  0
  191.5770  177.0200  143.4810 C   0  0  0  0  0  2  0  0  0  0  0  0
  188.8460  177.1160  144.1880 C   0  0  1  0  0  3  0  0  0  0  0  0
  189.2850  175.9930  143.2220 C   0  0  1  0  0  3  0  0  0  0  0  0
  187.5860  176.7550  144.9230 C   0  0  0  0  0  3  0  0  0  0  0  0
  187.9820  178.6230  148.4730 Cl  0  0  0  0  0  0  0  0  0  0  0  0
  189.5680  178.1190  146.4150 N   0  0  0  0  0  0  0  0  0  0  0  0
  188.3700  177.9680  146.8970 C   0  0  0  0  0  0  0  0  0  0  0  0
  187.3530  177.1850  146.1660 C   0  0  0  0  0  3  0  0  0  0  0  0
  189.9300  177.5940  145.1330 C   0  0  0  0  0  0  0  0  0  0  0  0
  186.1800  178.6580  140.5120 O   0  0  0  0  0  0  0  0  0  0  0  0
  184.8440  179.0230  140.1820 C   0  0  0  0  0  2  0  0  0  0  0  0
  183.6800  178.2600  141.3540 S   0  0  0  0  0  0  0  0  0  0  0  0
  184.8830  178.3130  142.7140 C   0  0  0  0  0  2  0  0  0  0  0  0
  184.3340  178.7320  145.0830 C   0  0  0  0  0  2  0  0  0  0  0  0
  184.4780  179.3740  143.7180 C   0  0  0  0  0  3  0  0  0  0  0  0
  183.1030  179.0440  144.2600 C   0  0  0  0  0  2  0  0  0  0  0  0
  1 15  1  0  0  0  0
  2  1  2  0  0  0  0
  3  1  1  0  0  0  0
  3 29  1  0  0  0  0
  4  6  2  0  0  0  0
  4  5  1  0  0  0  0
  5  3  2  0  0  0  0
  6  2  1  0  0  0  0
  7 10  1  6  0  0  0
  8  9  1  0  0  0  0
  8  7  1  0  0  0  0
  9  7  1  0  0  0  0
  9  6  1  1  0  0  0
 10 11  1  0  0  0  0
 11 13  1  0  0  0  0
 11 14  1  0  0  0  0
 12 11  1  0  0  0  0
 15 17  1  0  0  0  0
 15 16  2  0  0  0  0
 18 28  2  0  0  0  0
 19 22  1  0  0  0  0
 19 20  1  0  0  0  0
 20 18  1  0  0  0  0
 21 23  1  1  0  0  0
 21 28  1  0  0  0  0
 22 17  1  6  0  0  0
 22 21  1  0  0  0  0
 23 27  2  0  0  0  0
 25 26  2  0  0  0  0
 26 24  1  0  0  0  0
 27 26  1  0  0  0  0
 28 25  1  0  0  0  0
 30 29  1  0  0  0  0
 30 31  1  0  0  0  0
 31 32  1  0  0  0  0
 32 34  1  0  0  0  0
 34 35  1  0  0  0  0
 34 33  1  0  0  0  0
 35 33  1  0  0  0  0
M  END
>  <MODEL>
6

>  <REMARK>
 VINA RESULT:      -7.2      3.281      5.394
  Name = 
  10 active torsions:
  status: ('A' for Active; 'I' for Inactive)
    1  A    between atoms: C_1  and  O_34
    2  A    between atoms: C_5  and  C_15
    3  A    between atoms: C_9  and  N_31
    4  A    between atoms: O_10  and  C_11
    5  A    between atoms: O_10  and  C_30
    6  A    between atoms: C_14  and  O_34
    7  A    between atoms: S_16  and  C_17
    8  A    between atoms: S_16  and  C_30
    9  A    between atoms: C_17  and  C_22
   10  A    between atoms: C_25  and  C_35
                            x       y       z     vdW  Elec       q    Type
                         _______ _______ _______ _____ _____    ______ ____

>  <TORSDO>
F 10

$$$$
=
 OpenBabel10222418053D

 35 39  0  0  1  0  0  0  0  0999 V2000
  189.0720  177.6790  141.0650 C   0  0  0  0  0  0  0  0  0  0  0  0
  188.6190  178.1420  142.3090 C   0  0  0  0  0  3  0  0  0  0  0  0
  190.1370  176.7520  141.0310 C   0  0  0  0  0  0  0  0  0  0  0  0
  190.2410  176.8000  143.4290 N   0  0  0  0  0  0  0  0  0  0  0  0
  190.7060  176.3280  142.2430 C   0  0  0  0  0  3  0  0  0  0  0  0
  189.2090  177.6840  143.4890 C   0  0  0  0  0  0  0  0  0  0  0  0
  187.5090  177.5060  145.2340 C   0  0  2  0  0  3  0  0  0  0  0  0
  188.7670  177.1770  145.7670 O   0  0  0  0  0  0  0  0  0  0  0  0
  188.7420  178.2070  144.8070 C   0  0  1  0  0  3  0  0  0  0  0  0
  186.8110  178.3030  146.1540 O   0  0  0  0  0  0  0  0  0  0  0  0
  185.5120  178.5110  145.6490 C   0  0  0  0  0  0  0  0  0  0  0  0
  185.3280  177.8300  144.4540 F   0  0  0  0  0  0  0  0  0  0  0  0
  184.5560  178.1100  146.5720 F   0  0  0  0  0  0  0  0  0  0  0  0
  185.3440  179.8610  145.4100 F   0  0  0  0  0  0  0  0  0  0  0  0
  188.4160  178.1890  139.8380 C   0  0  0  0  0  0  0  0  0  0  0  0
  189.0040  179.0150  139.0890 O   0  0  0  0  0  0  0  0  0  0  0  0
  187.1040  177.7310  139.4950 N   0  0  0  0  0  2  0  0  0  0  0  0
  184.6050  176.6890  136.6460 N   0  0  0  0  0  0  0  0  0  0  0  0
  186.8330  177.5620  137.0770 C   0  0  0  0  0  2  0  0  0  0  0  0
  186.0070  176.3130  136.7840 C   0  0  0  0  0  2  0  0  0  0  0  0
  184.8400  178.1000  138.6300 C   0  0  1  0  0  3  0  0  0  0  0  0
  186.3530  178.2540  138.3620 C   0  0  1  0  0  3  0  0  0  0  0  0
  184.2330  179.3800  139.1340 C   0  0  0  0  0  3  0  0  0  0  0  0
  180.4580  179.2680  137.7250 Cl  0  0  0  0  0  0  0  0  0  0  0  0
  182.6720  177.8780  137.3110 N   0  0  0  0  0  0  0  0  0  0  0  0
  182.1450  178.8690  137.9670 C   0  0  0  0  0  0  0  0  0  0  0  0
  182.9700  179.7120  138.8560 C   0  0  0  0  0  3  0  0  0  0  0  0
  184.0500  177.5220  137.4730 C   0  0  0  0  0  0  0  0  0  0  0  0
  190.6150  176.2610  139.8090 O   0  0  0  0  0  0  0  0  0  0  0  0
  191.7880  176.7530  139.1700 C   0  0  0  0  0  2  0  0  0  0  0  0
  191.7340  176.3770  137.3900 S   0  0  0  0  0  0  0  0  0  0  0  0
  190.0930  175.6100  137.5160 C   0  0  0  0  0  2  0  0  0  0  0  0
  189.1700  174.3830  135.5840 C   0  0  0  0  0  2  0  0  0  0  0  0
  190.0880  174.2820  136.7850 C   0  0  0  0  0  3  0  0  0  0  0  0
  188.6960  173.6890  136.8430 C   0  0  0  0  0  2  0  0  0  0  0  0
  1  2  1  0  0  0  0
  2  6  2  0  0  0  0
  3  1  2  0  0  0  0
  3  5  1  0  0  0  0
  4  6  1  0  0  0  0
  5  4  2  0  0  0  0
  7  8  1  0  0  0  0
  7 10  1  1  0  0  0
  9  6  1  6  0  0  0
  9  7  1  0  0  0  0
  9  8  1  0  0  0  0
 11 10  1  0  0  0  0
 11 13  1  0  0  0  0
 12 11  1  0  0  0  0
 14 11  1  0  0  0  0
 15  1  1  0  0  0  0
 16 15  2  0  0  0  0
 17 15  1  0  0  0  0
 18 20  1  0  0  0  0
 18 28  2  0  0  0  0
 19 22  1  0  0  0  0
 20 19  1  0  0  0  0
 21 23  1  6  0  0  0
 22 21  1  0  0  0  0
 22 17  1  1  0  0  0
 24 26  1  0  0  0  0
 25 28  1  0  0  0  0
 25 26  2  0  0  0  0
 26 27  1  0  0  0  0
 27 23  2  0  0  0  0
 28 21  1  0  0  0  0
 29  3  1  0  0  0  0
 30 29  1  0  0  0  0
 31 32  1  0  0  0  0
 31 30  1  0  0  0  0
 33 34  1  0  0  0  0
 33 35  1  0  0  0  0
 34 35  1  0  0  0  0
 34 32  1  0  0  0  0
M  END
>  <MODEL>
7

>  <REMARK>
 VINA RESULT:      -7.1      4.902      7.744
  Name = 
  10 active torsions:
  status: ('A' for Active; 'I' for Inactive)
    1  A    between atoms: C_1  and  O_34
    2  A    between atoms: C_5  and  C_15
    3  A    between atoms: C_9  and  N_31
    4  A    between atoms: O_10  and  C_11
    5  A    between atoms: O_10  and  C_30
    6  A    between atoms: C_14  and  O_34
    7  A    between atoms: S_16  and  C_17
    8  A    between atoms: S_16  and  C_30
    9  A    between atoms: C_17  and  C_22
   10  A    between atoms: C_25  and  C_35
                            x       y       z     vdW  Elec       q    Type
                         _______ _______ _______ _____ _____    ______ ____

>  <TORSDO>
F 10

$$$$
=
 OpenBabel10222418053D

 35 39  0  0  1  0  0  0  0  0999 V2000
  185.0460  178.5590  142.7380 C   0  0  0  0  0  0  0  0  0  0  0  0
  186.2420  177.9560  143.1520 C   0  0  0  0  0  3  0  0  0  0  0  0
  184.0880  178.9110  143.7140 C   0  0  0  0  0  0  0  0  0  0  0  0
  185.5360  178.0590  145.4280 N   0  0  0  0  0  0  0  0  0  0  0  0
  184.3660  178.6450  145.0650 C   0  0  0  0  0  3  0  0  0  0  0  0
  186.4790  177.7200  144.5090 C   0  0  0  0  0  0  0  0  0  0  0  0
  188.9160  177.8780  144.5810 C   0  0  2  0  0  3  0  0  0  0  0  0
  188.4070  177.8430  145.8900 O   0  0  0  0  0  0  0  0  0  0  0  0
  187.7420  177.0480  144.9380 C   0  0  1  0  0  3  0  0  0  0  0  0
  190.0580  177.0660  144.5070 O   0  0  0  0  0  0  0  0  0  0  0  0
  191.1620  177.8960  144.2240 C   0  0  0  0  0  0  0  0  0  0  0  0
  190.7490  179.1890  143.9330 F   0  0  0  0  0  0  0  0  0  0  0  0
  192.0490  177.9130  145.2900 F   0  0  0  0  0  0  0  0  0  0  0  0
  191.8200  177.3910  143.1200 F   0  0  0  0  0  0  0  0  0  0  0  0
  184.8360  178.7930  141.2900 C   0  0  0  0  0  0  0  0  0  0  0  0
  185.4130  179.7470  140.7020 O   0  0  0  0  0  0  0  0  0  0  0  0
  183.9750  177.9220  140.5500 N   0  0  0  0  0  2  0  0  0  0  0  0
  181.3600  176.9740  137.7730 N   0  0  0  0  0  0  0  0  0  0  0  0
  183.7030  176.7990  138.4020 C   0  0  0  0  0  2  0  0  0  0  0  0
  182.3450  176.1040  138.4060 C   0  0  0  0  0  2  0  0  0  0  0  0
  182.2710  178.8500  139.0510 C   0  0  1  0  0  3  0  0  0  0  0  0
  183.6390  178.1400  139.1490 C   0  0  1  0  0  3  0  0  0  0  0  0
  182.4280  180.3310  138.8480 C   0  0  0  0  0  3  0  0  0  0  0  0
  179.2010  181.3440  136.6560 Cl  0  0  0  0  0  0  0  0  0  0  0  0
  180.3440  179.0760  137.4000 N   0  0  0  0  0  0  0  0  0  0  0  0
  180.4120  180.3730  137.4640 C   0  0  0  0  0  0  0  0  0  0  0  0
  181.5420  181.0390  138.1440 C   0  0  0  0  0  3  0  0  0  0  0  0
  181.3180  178.2440  138.0410 C   0  0  0  0  0  0  0  0  0  0  0  0
  182.8830  179.5210  143.3410 O   0  0  0  0  0  0  0  0  0  0  0  0
  181.7850  178.8100  142.7800 C   0  0  0  0  0  2  0  0  0  0  0  0
  180.4090  178.7440  143.9690 S   0  0  0  0  0  0  0  0  0  0  0  0
  179.4750  180.0290  143.0880 C   0  0  0  0  0  2  0  0  0  0  0  0
  178.9940  180.9870  140.8650 C   0  0  0  0  0  2  0  0  0  0  0  0
  179.9560  180.1230  141.6530 C   0  0  0  0  0  3  0  0  0  0  0  0
  178.9310  179.4800  140.7440 C   0  0  0  0  0  2  0  0  0  0  0  0
  1  2  2  0  0  0  0
  1  3  1  0  0  0  0
  2  6  1  0  0  0  0
  3  5  2  0  0  0  0
  5  4  1  0  0  0  0
  6  4  2  0  0  0  0
  7 10  1  1  0  0  0
  7  9  1  0  0  0  0
  7  8  1  0  0  0  0
  9  6  1  6  0  0  0
  9  8  1  0  0  0  0
 11 10  1  0  0  0  0
 11 13  1  0  0  0  0
 12 11  1  0  0  0  0
 14 11  1  0  0  0  0
 15  1  1  0  0  0  0
 16 15  2  0  0  0  0
 17 15  1  0  0  0  0
 18 28  2  0  0  0  0
 18 20  1  0  0  0  0
 19 20  1  0  0  0  0
 19 22  1  0  0  0  0
 21 23  1  6  0  0  0
 21 22  1  0  0  0  0
 22 17  1  1  0  0  0
 24 26  1  0  0  0  0
 25 26  2  0  0  0  0
 25 28  1  0  0  0  0
 26 27  1  0  0  0  0
 27 23  2  0  0  0  0
 28 21  1  0  0  0  0
 29  3  1  0  0  0  0
 30 29  1  0  0  0  0
 30 31  1  0  0  0  0
 32 31  1  0  0  0  0
 33 34  1  0  0  0  0
 34 32  1  0  0  0  0
 35 33  1  0  0  0  0
 35 34  1  0  0  0  0
M  END
>  <MODEL>
8

>  <REMARK>
 VINA RESULT:      -7.1      4.534      7.571
  Name = 
  10 active torsions:
  status: ('A' for Active; 'I' for Inactive)
    1  A    between atoms: C_1  and  O_34
    2  A    between atoms: C_5  and  C_15
    3  A    between atoms: C_9  and  N_31
    4  A    between atoms: O_10  and  C_11
    5  A    between atoms: O_10  and  C_30
    6  A    between atoms: C_14  and  O_34
    7  A    between atoms: S_16  and  C_17
    8  A    between atoms: S_16  and  C_30
    9  A    between atoms: C_17  and  C_22
   10  A    between atoms: C_25  and  C_35
                            x       y       z     vdW  Elec       q    Type
                         _______ _______ _______ _____ _____    ______ ____

>  <TORSDO>
F 10

$$$$
=
 OpenBabel10222418053D

 35 39  0  0  1  0  0  0  0  0999 V2000
  189.1070  177.7070  141.0850 C   0  0  0  0  0  0  0  0  0  0  0  0
  188.6960  178.1870  142.3370 C   0  0  0  0  0  3  0  0  0  0  0  0
  190.1420  176.7480  141.0310 C   0  0  0  0  0  0  0  0  0  0  0  0
  190.2990  176.7960  143.4260 N   0  0  0  0  0  0  0  0  0  0  0  0
  190.7240  176.3080  142.2310 C   0  0  0  0  0  3  0  0  0  0  0  0
  189.2970  177.7120  143.5050 C   0  0  0  0  0  0  0  0  0  0  0  0
  187.7380  177.4700  145.3700 C   0  0  2  0  0  3  0  0  0  0  0  0
  189.0520  177.2710  145.8260 O   0  0  0  0  0  0  0  0  0  0  0  0
  188.8750  178.2530  144.8320 C   0  0  1  0  0  3  0  0  0  0  0  0
  187.0370  178.2460  146.3060 O   0  0  0  0  0  0  0  0  0  0  0  0
  185.7290  178.4380  145.8170 C   0  0  0  0  0  0  0  0  0  0  0  0
  184.7850  178.0730  146.7670 F   0  0  0  0  0  0  0  0  0  0  0  0
  185.5330  179.7590  145.4420 F   0  0  0  0  0  0  0  0  0  0  0  0
  185.5540  177.6400  144.7030 F   0  0  0  0  0  0  0  0  0  0  0  0
  188.4420  178.2350  139.8710 C   0  0  0  0  0  0  0  0  0  0  0  0
  188.9940  179.1250  139.1690 O   0  0  0  0  0  0  0  0  0  0  0  0
  187.1620  177.7220  139.4860 N   0  0  0  0  0  2  0  0  0  0  0  0
  184.6290  176.7030  136.6610 N   0  0  0  0  0  0  0  0  0  0  0  0
  186.8630  177.5690  137.0710 C   0  0  0  0  0  2  0  0  0  0  0  0
  186.0320  176.3230  136.7800 C   0  0  0  0  0  2  0  0  0  0  0  0
  184.8890  178.1010  138.6500 C   0  0  1  0  0  3  0  0  0  0  0  0
  186.3990  178.2540  138.3650 C   0  0  1  0  0  3  0  0  0  0  0  0
  184.2900  179.3790  139.1690 C   0  0  0  0  0  3  0  0  0  0  0  0
  180.4990  179.2830  137.8030 Cl  0  0  0  0  0  0  0  0  0  0  0  0
  182.7060  177.8910  137.3540 N   0  0  0  0  0  0  0  0  0  0  0  0
  182.1880  178.8790  138.0230 C   0  0  0  0  0  0  0  0  0  0  0  0
  183.0250  179.7150  138.9070 C   0  0  0  0  0  3  0  0  0  0  0  0
  184.0850  177.5320  137.4990 C   0  0  0  0  0  0  0  0  0  0  0  0
  190.5780  176.2390  139.8000 O   0  0  0  0  0  0  0  0  0  0  0  0
  191.7040  176.7490  139.0950 C   0  0  0  0  0  2  0  0  0  0  0  0
  191.6050  176.2840  137.3380 S   0  0  0  0  0  0  0  0  0  0  0  0
  192.6650  174.8290  137.5770 C   0  0  0  0  0  2  0  0  0  0  0  0
  194.9770  174.3730  136.8430 C   0  0  0  0  0  2  0  0  0  0  0  0
  194.1120  175.2620  137.7130 C   0  0  0  0  0  3  0  0  0  0  0  0
  194.9100  174.1370  138.3370 C   0  0  0  0  0  2  0  0  0  0  0  0
  1  2  1  0  0  0  0
  2  6  2  0  0  0  0
  3  1  2  0  0  0  0
  3  5  1  0  0  0  0
  4  6  1  0  0  0  0
  5  4  2  0  0  0  0
  7  8  1  0  0  0  0
  7 10  1  1  0  0  0
  9  6  1  6  0  0  0
  9  7  1  0  0  0  0
  9  8  1  0  0  0  0
 11 10  1  0  0  0  0
 11 12  1  0  0  0  0
 13 11  1  0  0  0  0
 14 11  1  0  0  0  0
 15  1  1  0  0  0  0
 16 15  2  0  0  0  0
 17 15  1  0  0  0  0
 18 20  1  0  0  0  0
 18 28  2  0  0  0  0
 19 22  1  0  0  0  0
 20 19  1  0  0  0  0
 21 23  1  6  0  0  0
 22 21  1  0  0  0  0
 22 17  1  1  0  0  0
 24 26  1  0  0  0  0
 25 28  1  0  0  0  0
 25 26  2  0  0  0  0
 26 27  1  0  0  0  0
 27 23  2  0  0  0  0
 28 21  1  0  0  0  0
 29  3  1  0  0  0  0
 30 29  1  0  0  0  0
 31 32  1  0  0  0  0
 31 30  1  0  0  0  0
 32 34  1  0  0  0  0
 33 34  1  0  0  0  0
 33 35  1  0  0  0  0
 34 35  1  0  0  0  0
M  END
>  <MODEL>
9

>  <REMARK>
 VINA RESULT:      -7.1      4.801      7.794
  Name = 
  10 active torsions:
  status: ('A' for Active; 'I' for Inactive)
    1  A    between atoms: C_1  and  O_34
    2  A    between atoms: C_5  and  C_15
    3  A    between atoms: C_9  and  N_31
    4  A    between atoms: O_10  and  C_11
    5  A    between atoms: O_10  and  C_30
    6  A    between atoms: C_14  and  O_34
    7  A    between atoms: S_16  and  C_17
    8  A    between atoms: S_16  and  C_30
    9  A    between atoms: C_17  and  C_22
   10  A    between atoms: C_25  and  C_35
                            x       y       z     vdW  Elec       q    Type
                         _______ _______ _______ _____ _____    ______ ____

>  <TORSDO>
F 10

$$$$
