=
 OpenBabel10222416563D

 28 30  0  0  1  0  0  0  0  0999 V2000
  188.8100  177.0930  145.3020 C   0  0  0  0  0  0  0  0  0  0  0  0
  188.2650  177.9430  147.4920 C   0  0  0  0  0  3  0  0  0  0  0  0
  187.0920  177.1060  143.5010 N   0  0  0  0  0  0  0  0  0  0  0  0
  184.0170  178.7590  144.5300 C   0  0  0  0  0  0  0  0  0  0  0  0
  187.9150  177.7860  146.1430 C   0  0  0  0  0  0  0  0  0  0  0  0
  185.6890  178.9950  146.2490 C   0  0  0  0  0  0  0  0  0  0  0  0
  184.3950  179.2480  145.6720 N   0  0  0  0  0  0  0  0  0  0  0  0
  184.9110  177.9530  143.7630 N   0  0  0  0  0  2  0  0  0  0  0  0
  185.9630  179.6260  147.5730 C   0  0  0  0  0  1  0  0  0  0  0  0
  189.4680  177.4400  147.9800 C   0  0  0  0  0  3  0  0  0  0  0  0
  188.5100  176.9100  143.8280 C   0  0  1  0  0  3  0  0  0  0  0  0
  191.5510  176.2350  147.5910 N   0  0  0  0  0  1  0  0  0  0  0  0
  186.2290  177.7180  144.2550 C   0  0  0  0  0  0  0  0  0  0  0  0
  190.3190  176.7610  147.1120 C   0  0  0  0  0  0  0  0  0  0  0  0
  189.9740  176.6030  145.8090 N   0  0  0  0  0  0  0  0  0  0  0  0
  182.7150  179.0430  144.0320 N   0  0  0  0  0  1  0  0  0  0  0  0
  186.5980  178.2250  145.5950 C   0  0  0  0  0  0  0  0  0  0  0  0
  190.4810  176.7550  142.3170 C   0  0  0  0  0  1  0  0  0  0  0  0
  189.4430  177.7140  142.8820 C   0  0  2  0  0  0  0  0  0  0  0  0
  192.0200  178.3360  143.6440 C   0  0  0  0  0  1  0  0  0  0  0  0
  190.3500  179.0450  143.7860 S   0  0  0  0  0  0  0  0  0  0  0  0
  188.6240  178.2740  141.7030 C   0  0  0  0  0  2  0  0  0  0  0  0
  189.0380  177.7300  140.3380 C   0  0  0  0  0  2  0  0  0  0  0  0
  188.8050  179.6330  137.1770 N   0  0  0  0  0  2  0  0  0  0  0  0
  189.1040  178.6360  137.9400 C   0  0  0  0  0  0  0  0  0  0  0  0
  188.6040  178.6330  139.2850 N   0  0  0  0  0  2  0  0  0  0  0  0
  189.4080  176.5440  136.6170 C   0  0  0  0  0  1  0  0  0  0  0  0
  189.9000  177.6100  137.4150 O   0  0  0  0  0  0  0  0  0  0  0  0
  1 15  2  0  0  0  0
  1  5  1  0  0  0  0
  2 10  1  0  0  0  0
  3 11  1  0  0  0  0
  3 13  2  0  0  0  0
  4  7  2  0  0  0  0
  5  2  2  0  0  0  0
  6  9  1  0  0  0  0
  7  6  1  0  0  0  0
  8 13  1  0  0  0  0
  8  4  1  0  0  0  0
 11 19  1  6  0  0  0
 11  1  1  0  0  0  0
 13 17  1  0  0  0  0
 14 12  1  0  0  0  0
 14 10  2  0  0  0  0
 15 14  1  0  0  0  0
 16  4  1  0  0  0  0
 17  5  1  0  0  0  0
 17  6  2  0  0  0  0
 19 18  1  6  0  0  0
 19 21  1  0  0  0  0
 20 21  1  0  0  0  0
 22 19  1  0  0  0  0
 23 22  1  0  0  0  0
 24 25  2  0  0  0  0
 25 26  1  0  0  0  0
 26 23  1  0  0  0  0
 27 28  1  0  0  0  0
 28 25  1  0  0  0  0
M  END
>  <MODEL>
1

>  <REMARK>
 VINA RESULT:      -8.7      0.000      0.000
  Name = 
  6 active torsions:
  status: ('A' for Active; 'I' for Inactive)
    1  A    between atoms: C_5  and  C_12
    2  A    between atoms: C_5  and  C_26
    3  A    between atoms: C_12  and  N_22
    4  A    between atoms: S_13  and  C_26
    5  A    between atoms: C_17  and  C_26
    6  A    between atoms: C_21  and  O_28
                            x       y       z     vdW  Elec       q    Type
                         _______ _______ _______ _____ _____    ______ ____

>  <TORSDO>
F 6

$$$$
=
 OpenBabel10222416563D

 28 30  0  0  1  0  0  0  0  0999 V2000
  188.9550  177.0960  144.7880 C   0  0  0  0  0  0  0  0  0  0  0  0
  188.6120  177.8180  147.0630 C   0  0  0  0  0  3  0  0  0  0  0  0
  187.0630  177.1370  143.1720 N   0  0  0  0  0  0  0  0  0  0  0  0
  184.0610  178.6270  144.5910 C   0  0  0  0  0  0  0  0  0  0  0  0
  188.1310  177.7150  145.7500 C   0  0  0  0  0  0  0  0  0  0  0  0
  185.8920  178.8380  146.1430 C   0  0  0  0  0  0  0  0  0  0  0  0
  184.5390  179.0720  145.7140 N   0  0  0  0  0  0  0  0  0  0  0  0
  184.8960  177.8920  143.6970 N   0  0  0  0  0  2  0  0  0  0  0  0
  186.2820  179.4130  147.4640 C   0  0  0  0  0  1  0  0  0  0  0  0
  189.8740  177.3350  147.4000 C   0  0  0  0  0  3  0  0  0  0  0  0
  188.5120  176.9750  143.3440 C   0  0  1  0  0  3  0  0  0  0  0  0
  191.9410  176.2240  146.7410 N   0  0  0  0  0  1  0  0  0  0  0  0
  186.2640  177.6800  144.0400 C   0  0  0  0  0  0  0  0  0  0  0  0
  190.6520  176.7290  146.4170 C   0  0  0  0  0  0  0  0  0  0  0  0
  190.1800  176.6230  145.1490 N   0  0  0  0  0  0  0  0  0  0  0  0
  182.7070  178.8880  144.2420 N   0  0  0  0  0  1  0  0  0  0  0  0
  186.7520  178.1330  145.3620 C   0  0  0  0  0  0  0  0  0  0  0  0
  190.1950  178.7980  143.1660 C   0  0  0  0  0  1  0  0  0  0  0  0
  189.3180  177.8560  142.3530 C   0  0  2  0  0  0  0  0  0  0  0  0
  188.6830  178.2010  139.6910 C   0  0  0  0  0  1  0  0  0  0  0  0
  188.2090  178.8970  141.3040 S   0  0  0  0  0  0  0  0  0  0  0  0
  190.2430  176.9630  141.5030 C   0  0  0  0  0  2  0  0  0  0  0  0
  191.7320  177.1810  141.7590 C   0  0  0  0  0  2  0  0  0  0  0  0
  193.1130  177.0270  138.3330 N   0  0  0  0  0  2  0  0  0  0  0  0
  192.2800  176.7780  139.2870 C   0  0  0  0  0  0  0  0  0  0  0  0
  192.4150  177.5030  140.5170 N   0  0  0  0  0  2  0  0  0  0  0  0
  191.2150  174.9850  137.9190 C   0  0  0  0  0  1  0  0  0  0  0  0
  191.2880  175.8120  139.0690 O   0  0  0  0  0  0  0  0  0  0  0  0
  1 15  2  0  0  0  0
  1  5  1  0  0  0  0
  2 10  1  0  0  0  0
  3 11  1  0  0  0  0
  3 13  2  0  0  0  0
  4  7  2  0  0  0  0
  5  2  2  0  0  0  0
  6  9  1  0  0  0  0
  7  6  1  0  0  0  0
  8 13  1  0  0  0  0
  8  4  1  0  0  0  0
 11 19  1  6  0  0  0
 11  1  1  0  0  0  0
 13 17  1  0  0  0  0
 14 12  1  0  0  0  0
 14 10  2  0  0  0  0
 15 14  1  0  0  0  0
 16  4  1  0  0  0  0
 17  5  1  0  0  0  0
 17  6  2  0  0  0  0
 19 18  1  1  0  0  0
 20 21  1  0  0  0  0
 21 19  1  0  0  0  0
 22 23  1  0  0  0  0
 22 19  1  0  0  0  0
 24 25  2  0  0  0  0
 25 26  1  0  0  0  0
 26 23  1  0  0  0  0
 27 28  1  0  0  0  0
 28 25  1  0  0  0  0
M  END
>  <MODEL>
2

>  <REMARK>
 VINA RESULT:      -7.9      1.788      2.201
  Name = 
  6 active torsions:
  status: ('A' for Active; 'I' for Inactive)
    1  A    between atoms: C_5  and  C_12
    2  A    between atoms: C_5  and  C_26
    3  A    between atoms: C_12  and  N_22
    4  A    between atoms: S_13  and  C_26
    5  A    between atoms: C_17  and  C_26
    6  A    between atoms: C_21  and  O_28
                            x       y       z     vdW  Elec       q    Type
                         _______ _______ _______ _____ _____    ______ ____

>  <TORSDO>
F 6

$$$$
=
 OpenBabel10222416563D

 28 30  0  0  1  0  0  0  0  0999 V2000
  190.4590  177.7210  140.4440 C   0  0  0  0  0  0  0  0  0  0  0  0
  190.8320  176.6110  138.3370 C   0  0  0  0  0  3  0  0  0  0  0  0
  188.2300  178.7060  140.9530 N   0  0  0  0  0  0  0  0  0  0  0  0
  185.7710  177.9780  138.3710 C   0  0  0  0  0  0  0  0  0  0  0  0
  189.9360  177.1880  139.2480 C   0  0  0  0  0  0  0  0  0  0  0  0
  187.8220  176.8000  137.9050 C   0  0  0  0  0  0  0  0  0  0  0  0
  186.4460  177.1370  137.6470 N   0  0  0  0  0  0  0  0  0  0  0  0
  186.3780  178.5960  139.5050 N   0  0  0  0  0  2  0  0  0  0  0  0
  188.4540  175.8210  136.9730 C   0  0  0  0  0  1  0  0  0  0  0  0
  192.1960  176.5540  138.6150 C   0  0  0  0  0  3  0  0  0  0  0  0
  189.5480  178.3360  141.4870 C   0  0  1  0  0  3  0  0  0  0  0  0
  194.0550  177.0530  140.1090 N   0  0  0  0  0  1  0  0  0  0  0  0
  187.7200  178.2560  139.8460 C   0  0  0  0  0  0  0  0  0  0  0  0
  192.6660  177.0960  139.8080 C   0  0  0  0  0  0  0  0  0  0  0  0
  191.7980  177.6620  140.6850 N   0  0  0  0  0  0  0  0  0  0  0  0
  184.4180  178.2700  138.0440 N   0  0  0  0  0  1  0  0  0  0  0  0
  188.4830  177.3560  138.9540 C   0  0  0  0  0  0  0  0  0  0  0  0
  190.1660  178.2740  143.8960 C   0  0  0  0  0  1  0  0  0  0  0  0
  189.4340  177.5140  142.7990 C   0  0  2  0  0  0  0  0  0  0  0  0
  191.5160  176.0880  143.9150 C   0  0  0  0  0  1  0  0  0  0  0  0
  190.2370  175.8570  142.6410 S   0  0  0  0  0  0  0  0  0  0  0  0
  187.9530  177.3990  143.2100 C   0  0  0  0  0  2  0  0  0  0  0  0
  187.7340  177.1320  144.6970 C   0  0  0  0  0  2  0  0  0  0  0  0
  185.5270  179.0180  146.9860 N   0  0  0  0  0  2  0  0  0  0  0  0
  186.5240  178.2710  146.6500 C   0  0  0  0  0  0  0  0  0  0  0  0
  186.8200  178.1150  145.2550 N   0  0  0  0  0  2  0  0  0  0  0  0
  188.2600  178.3020  148.4400 C   0  0  0  0  0  1  0  0  0  0  0  0
  187.2650  177.6520  147.6660 O   0  0  0  0  0  0  0  0  0  0  0  0
  1 15  1  0  0  0  0
  1 11  1  0  0  0  0
  2 10  2  0  0  0  0
  2  5  1  0  0  0  0
  3 11  1  0  0  0  0
  4  8  1  0  0  0  0
  5  1  2  0  0  0  0
  6 17  2  0  0  0  0
  7  6  1  0  0  0  0
  7  4  2  0  0  0  0
  8 13  1  0  0  0  0
  9  6  1  0  0  0  0
 10 14  1  0  0  0  0
 11 19  1  1  0  0  0
 13  3  2  0  0  0  0
 14 12  1  0  0  0  0
 14 15  2  0  0  0  0
 16  4  1  0  0  0  0
 17  5  1  0  0  0  0
 17 13  1  0  0  0  0
 19 22  1  0  0  0  0
 19 18  1  1  0  0  0
 21 19  1  0  0  0  0
 21 20  1  0  0  0  0
 22 23  1  0  0  0  0
 23 26  1  0  0  0  0
 25 24  2  0  0  0  0
 25 28  1  0  0  0  0
 26 25  1  0  0  0  0
 28 27  1  0  0  0  0
M  END
>  <MODEL>
3

>  <REMARK>
 VINA RESULT:      -7.4      3.158      7.139
  Name = 
  6 active torsions:
  status: ('A' for Active; 'I' for Inactive)
    1  A    between atoms: C_5  and  C_12
    2  A    between atoms: C_5  and  C_26
    3  A    between atoms: C_12  and  N_22
    4  A    between atoms: S_13  and  C_26
    5  A    between atoms: C_17  and  C_26
    6  A    between atoms: C_21  and  O_28
                            x       y       z     vdW  Elec       q    Type
                         _______ _______ _______ _____ _____    ______ ____

>  <TORSDO>
F 6

$$$$
=
 OpenBabel10222416563D

 28 30  0  0  1  0  0  0  0  0999 V2000
  189.1950  178.2520  142.2970 C   0  0  0  0  0  0  0  0  0  0  0  0
  191.0760  177.2150  141.2000 C   0  0  0  0  0  3  0  0  0  0  0  0
  187.1650  178.8460  140.9860 N   0  0  0  0  0  0  0  0  0  0  0  0
  187.3590  177.7050  137.5350 C   0  0  0  0  0  0  0  0  0  0  0  0
  189.7390  177.6350  141.1510 C   0  0  0  0  0  0  0  0  0  0  0  0
  189.2580  176.8900  138.7760 C   0  0  0  0  0  0  0  0  0  0  0  0
  188.4410  176.9880  137.5950 N   0  0  0  0  0  0  0  0  0  0  0  0
  186.9080  178.4210  138.6850 N   0  0  0  0  0  2  0  0  0  0  0  0
  190.4730  176.0300  138.6760 C   0  0  0  0  0  1  0  0  0  0  0  0
  191.8380  177.3910  142.3530 C   0  0  0  0  0  3  0  0  0  0  0  0
  187.7500  178.7060  142.3260 C   0  0  1  0  0  3  0  0  0  0  0  0
  192.0200  178.2010  144.6440 N   0  0  0  0  0  1  0  0  0  0  0  0
  187.6440  178.3140  139.9020 C   0  0  0  0  0  0  0  0  0  0  0  0
  191.2590  178.0070  143.4580 C   0  0  0  0  0  0  0  0  0  0  0  0
  189.9670  178.4210  143.4060 N   0  0  0  0  0  0  0  0  0  0  0  0
  186.6110  177.7630  136.3270 N   0  0  0  0  0  1  0  0  0  0  0  0
  188.9130  177.5530  139.9110 C   0  0  0  0  0  0  0  0  0  0  0  0
  187.3520  176.4470  143.2880 C   0  0  0  0  0  1  0  0  0  0  0  0
  186.8410  177.8810  143.2750 C   0  0  2  0  0  0  0  0  0  0  0  0
  184.5340  179.3780  143.4870 C   0  0  0  0  0  1  0  0  0  0  0  0
  185.0910  177.8420  142.6850 S   0  0  0  0  0  0  0  0  0  0  0  0
  186.9530  178.4360  144.7090 C   0  0  0  0  0  2  0  0  0  0  0  0
  186.6790  177.4070  145.8030 C   0  0  0  0  0  2  0  0  0  0  0  0
  188.5660  178.1490  148.8940 N   0  0  0  0  0  2  0  0  0  0  0  0
  188.4020  177.8550  147.6480 C   0  0  0  0  0  0  0  0  0  0  0  0
  187.0790  177.9320  147.0980 N   0  0  0  0  0  2  0  0  0  0  0  0
  190.5550  176.6260  147.3770 C   0  0  0  0  0  1  0  0  0  0  0  0
  189.5240  177.4770  146.8990 O   0  0  0  0  0  0  0  0  0  0  0  0
  1 11  1  0  0  0  0
  1 15  1  0  0  0  0
  2 10  2  0  0  0  0
  3 11  1  0  0  0  0
  4  7  2  0  0  0  0
  4  8  1  0  0  0  0
  5  2  1  0  0  0  0
  5  1  2  0  0  0  0
  6 17  2  0  0  0  0
  7  6  1  0  0  0  0
  8 13  1  0  0  0  0
  9  6  1  0  0  0  0
 10 14  1  0  0  0  0
 11 19  1  1  0  0  0
 13 17  1  0  0  0  0
 13  3  2  0  0  0  0
 14 12  1  0  0  0  0
 15 14  2  0  0  0  0
 16  4  1  0  0  0  0
 17  5  1  0  0  0  0
 19 18  1  1  0  0  0
 19 22  1  0  0  0  0
 21 19  1  0  0  0  0
 21 20  1  0  0  0  0
 22 23  1  0  0  0  0
 23 26  1  0  0  0  0
 25 24  2  0  0  0  0
 26 25  1  0  0  0  0
 28 27  1  0  0  0  0
 28 25  1  0  0  0  0
M  END
>  <MODEL>
4

>  <REMARK>
 VINA RESULT:      -7.2      3.010      6.904
  Name = 
  6 active torsions:
  status: ('A' for Active; 'I' for Inactive)
    1  A    between atoms: C_5  and  C_12
    2  A    between atoms: C_5  and  C_26
    3  A    between atoms: C_12  and  N_22
    4  A    between atoms: S_13  and  C_26
    5  A    between atoms: C_17  and  C_26
    6  A    between atoms: C_21  and  O_28
                            x       y       z     vdW  Elec       q    Type
                         _______ _______ _______ _____ _____    ______ ____

>  <TORSDO>
F 6

$$$$
=
 OpenBabel10222416563D

 28 30  0  0  1  0  0  0  0  0999 V2000
  190.4340  177.6760  140.2140 C   0  0  0  0  0  0  0  0  0  0  0  0
  190.8380  176.3620  138.2320 C   0  0  0  0  0  3  0  0  0  0  0  0
  188.2010  178.7100  140.5860 N   0  0  0  0  0  0  0  0  0  0  0  0
  185.7820  177.7360  138.0470 C   0  0  0  0  0  0  0  0  0  0  0  0
  189.9290  177.0290  139.0670 C   0  0  0  0  0  0  0  0  0  0  0  0
  187.8360  176.5140  137.7340 C   0  0  0  0  0  0  0  0  0  0  0  0
  186.4660  176.8270  137.4210 N   0  0  0  0  0  0  0  0  0  0  0  0
  186.3720  178.4630  139.1250 N   0  0  0  0  0  2  0  0  0  0  0  0
  188.4800  175.4470  136.9140 C   0  0  0  0  0  1  0  0  0  0  0  0
  192.1970  176.3300  138.5370 C   0  0  0  0  0  3  0  0  0  0  0  0
  189.5080  178.3920  141.1760 C   0  0  1  0  0  3  0  0  0  0  0  0
  194.0330  176.9700  140.0070 N   0  0  0  0  0  1  0  0  0  0  0  0
  187.7080  178.1550  139.5200 C   0  0  0  0  0  0  0  0  0  0  0  0
  192.6490  176.9860  139.6790 C   0  0  0  0  0  0  0  0  0  0  0  0
  191.7690  177.6380  140.4810 N   0  0  0  0  0  0  0  0  0  0  0  0
  184.4360  177.9980  137.6700 N   0  0  0  0  0  1  0  0  0  0  0  0
  188.4820  177.1690  138.7340 C   0  0  0  0  0  0  0  0  0  0  0  0
  190.1860  178.5020  143.5670 C   0  0  0  0  0  1  0  0  0  0  0  0
  189.3700  177.7040  142.5600 C   0  0  2  0  0  0  0  0  0  0  0  0
  191.3980  176.2410  143.7260 C   0  0  0  0  0  1  0  0  0  0  0  0
  190.0430  175.9830  142.5390 S   0  0  0  0  0  0  0  0  0  0  0  0
  187.8960  177.7400  143.0100 C   0  0  0  0  0  2  0  0  0  0  0  0
  187.5940  176.8830  144.2370 C   0  0  0  0  0  2  0  0  0  0  0  0
  185.5400  179.2740  146.1680 N   0  0  0  0  0  2  0  0  0  0  0  0
  185.7940  178.3980  145.2550 C   0  0  0  0  0  0  0  0  0  0  0  0
  187.0490  177.7060  145.3040 N   0  0  0  0  0  2  0  0  0  0  0  0
  184.2210  179.1890  143.4890 C   0  0  0  0  0  1  0  0  0  0  0  0
  184.8280  178.1690  144.2660 O   0  0  0  0  0  0  0  0  0  0  0  0
  1 15  1  0  0  0  0
  1 11  1  0  0  0  0
  2 10  2  0  0  0  0
  2  5  1  0  0  0  0
  3 11  1  0  0  0  0
  4  8  1  0  0  0  0
  5  1  2  0  0  0  0
  6 17  2  0  0  0  0
  7  6  1  0  0  0  0
  7  4  2  0  0  0  0
  8 13  1  0  0  0  0
  9  6  1  0  0  0  0
 10 14  1  0  0  0  0
 11 19  1  1  0  0  0
 13  3  2  0  0  0  0
 14 12  1  0  0  0  0
 14 15  2  0  0  0  0
 16  4  1  0  0  0  0
 17  5  1  0  0  0  0
 17 13  1  0  0  0  0
 19 22  1  0  0  0  0
 19 18  1  1  0  0  0
 21 19  1  0  0  0  0
 21 20  1  0  0  0  0
 22 23  1  0  0  0  0
 23 26  1  0  0  0  0
 25 26  1  0  0  0  0
 25 24  2  0  0  0  0
 27 28  1  0  0  0  0
 28 25  1  0  0  0  0
M  END
>  <MODEL>
5

>  <REMARK>
 VINA RESULT:      -7.0      2.928      6.911
  Name = 
  6 active torsions:
  status: ('A' for Active; 'I' for Inactive)
    1  A    between atoms: C_5  and  C_12
    2  A    between atoms: C_5  and  C_26
    3  A    between atoms: C_12  and  N_22
    4  A    between atoms: S_13  and  C_26
    5  A    between atoms: C_17  and  C_26
    6  A    between atoms: C_21  and  O_28
                            x       y       z     vdW  Elec       q    Type
                         _______ _______ _______ _____ _____    ______ ____

>  <TORSDO>
F 6

$$$$
=
 OpenBabel10222416563D

 28 30  0  0  1  0  0  0  0  0999 V2000
  190.4400  177.6590  140.6780 C   0  0  0  0  0  0  0  0  0  0  0  0
  190.7580  176.8730  138.4200 C   0  0  0  0  0  3  0  0  0  0  0  0
  188.2360  178.5810  141.3740 N   0  0  0  0  0  0  0  0  0  0  0  0
  185.7180  178.2780  138.7630 C   0  0  0  0  0  0  0  0  0  0  0  0
  189.8870  177.3170  139.4260 C   0  0  0  0  0  0  0  0  0  0  0  0
  187.7430  177.1600  138.0830 C   0  0  0  0  0  0  0  0  0  0  0  0
  186.3680  177.5480  137.9070 N   0  0  0  0  0  0  0  0  0  0  0  0
  186.3550  178.7120  139.9640 N   0  0  0  0  0  2  0  0  0  0  0  0
  188.3430  176.3240  137.0030 C   0  0  0  0  0  1  0  0  0  0  0  0
  192.1250  176.7590  138.6580 C   0  0  0  0  0  3  0  0  0  0  0  0
  189.5570  178.1200  141.8190 C   0  0  1  0  0  3  0  0  0  0  0  0
  194.0190  177.0060  140.1720 N   0  0  0  0  0  1  0  0  0  0  0  0
  187.6990  178.3090  140.2230 C   0  0  0  0  0  0  0  0  0  0  0  0
  192.6250  177.1100  139.9090 C   0  0  0  0  0  0  0  0  0  0  0  0
  191.7820  177.5480  140.8790 N   0  0  0  0  0  0  0  0  0  0  0  0
  184.3640  178.6320  138.5110 N   0  0  0  0  0  1  0  0  0  0  0  0
  188.4310  177.5440  139.1900 C   0  0  0  0  0  0  0  0  0  0  0  0
  190.2460  175.8670  142.6180 C   0  0  0  0  0  1  0  0  0  0  0  0
  189.4560  177.1120  142.9950 C   0  0  2  0  0  0  0  0  0  0  0  0
  187.4020  177.6340  144.7610 C   0  0  0  0  0  1  0  0  0  0  0  0
  187.7110  176.5910  143.3020 S   0  0  0  0  0  0  0  0  0  0  0  0
  190.1050  177.7210  144.2540 C   0  0  0  0  0  2  0  0  0  0  0  0
  191.5870  177.3920  144.4170 C   0  0  0  0  0  2  0  0  0  0  0  0
  191.9230  175.5250  147.5900 N   0  0  0  0  0  2  0  0  0  0  0  0
  191.5060  176.4600  146.8040 C   0  0  0  0  0  0  0  0  0  0  0  0
  191.7620  176.3340  145.3980 N   0  0  0  0  0  2  0  0  0  0  0  0
  189.4830  177.5040  147.8240 C   0  0  0  0  0  1  0  0  0  0  0  0
  190.8260  177.5490  147.3660 O   0  0  0  0  0  0  0  0  0  0  0  0
  1 15  1  0  0  0  0
  1 11  1  0  0  0  0
  2 10  2  0  0  0  0
  2  5  1  0  0  0  0
  3 11  1  0  0  0  0
  4  8  1  0  0  0  0
  5  1  2  0  0  0  0
  6 17  2  0  0  0  0
  7  6  1  0  0  0  0
  7  4  2  0  0  0  0
  8 13  1  0  0  0  0
  9  6  1  0  0  0  0
 10 14  1  0  0  0  0
 11 19  1  1  0  0  0
 13  3  2  0  0  0  0
 14 12  1  0  0  0  0
 14 15  2  0  0  0  0
 16  4  1  0  0  0  0
 17  5  1  0  0  0  0
 17 13  1  0  0  0  0
 19 18  1  6  0  0  0
 19 21  1  0  0  0  0
 19 22  1  0  0  0  0
 21 20  1  0  0  0  0
 22 23  1  0  0  0  0
 23 26  1  0  0  0  0
 25 28  1  0  0  0  0
 25 24  2  0  0  0  0
 26 25  1  0  0  0  0
 28 27  1  0  0  0  0
M  END
>  <MODEL>
6

>  <REMARK>
 VINA RESULT:      -7.0      3.152      7.104
  Name = 
  6 active torsions:
  status: ('A' for Active; 'I' for Inactive)
    1  A    between atoms: C_5  and  C_12
    2  A    between atoms: C_5  and  C_26
    3  A    between atoms: C_12  and  N_22
    4  A    between atoms: S_13  and  C_26
    5  A    between atoms: C_17  and  C_26
    6  A    between atoms: C_21  and  O_28
                            x       y       z     vdW  Elec       q    Type
                         _______ _______ _______ _____ _____    ______ ____

>  <TORSDO>
F 6

$$$$
=
 OpenBabel10222416563D

 28 30  0  0  1  0  0  0  0  0999 V2000
  187.7160  178.3090  142.5600 C   0  0  0  0  0  0  0  0  0  0  0  0
  185.4170  178.3650  143.2830 C   0  0  0  0  0  3  0  0  0  0  0  0
  189.5490  178.2720  144.2440 N   0  0  0  0  0  0  0  0  0  0  0  0
  188.2950  178.0140  147.6510 C   0  0  0  0  0  0  0  0  0  0  0  0
  186.7730  178.2060  143.6030 C   0  0  0  0  0  0  0  0  0  0  0  0
  186.4700  177.8150  146.0890 C   0  0  0  0  0  0  0  0  0  0  0  0
  187.0360  177.8030  147.4130 N   0  0  0  0  0  0  0  0  0  0  0  0
  189.2010  178.2420  146.5720 N   0  0  0  0  0  2  0  0  0  0  0  0
  185.0030  177.5610  145.9890 C   0  0  0  0  0  1  0  0  0  0  0  0
  185.0160  178.6040  141.9710 C   0  0  0  0  0  3  0  0  0  0  0  0
  189.1960  178.1200  142.8260 C   0  0  1  0  0  3  0  0  0  0  0  0
  185.5960  178.9490  139.6290 N   0  0  0  0  0  1  0  0  0  0  0  0
  188.7100  178.2060  145.2330 C   0  0  0  0  0  0  0  0  0  0  0  0
  185.9840  178.7000  140.9750 C   0  0  0  0  0  0  0  0  0  0  0  0
  187.2970  178.5540  141.2880 N   0  0  0  0  0  0  0  0  0  0  0  0
  188.7770  178.0000  148.9890 N   0  0  0  0  0  1  0  0  0  0  0  0
  187.2570  178.0410  145.0050 C   0  0  0  0  0  0  0  0  0  0  0  0
  189.2160  175.6360  142.9620 C   0  0  0  0  0  1  0  0  0  0  0  0
  189.7950  176.8270  142.2120 C   0  0  2  0  0  0  0  0  0  0  0  0
  191.6840  175.6600  143.8490 C   0  0  0  0  0  1  0  0  0  0  0  0
  191.6310  176.7650  142.4040 S   0  0  0  0  0  0  0  0  0  0  0  0
  189.3660  176.7100  140.7360 C   0  0  0  0  0  2  0  0  0  0  0  0
  190.3330  177.3610  139.7500 C   0  0  0  0  0  2  0  0  0  0  0  0
  188.6790  179.4830  137.2140 N   0  0  0  0  0  2  0  0  0  0  0  0
  189.0020  178.3860  137.8120 C   0  0  0  0  0  0  0  0  0  0  0  0
  189.6860  178.4720  139.0700 N   0  0  0  0  0  2  0  0  0  0  0  0
  187.4690  176.4530  137.4500 C   0  0  0  0  0  1  0  0  0  0  0  0
  188.6680  177.1710  137.2010 O   0  0  0  0  0  0  0  0  0  0  0  0
  1 11  1  0  0  0  0
  1  5  1  0  0  0  0
  2  5  2  0  0  0  0
  3 13  2  0  0  0  0
  4 16  1  0  0  0  0
  5 17  1  0  0  0  0
  6  7  1  0  0  0  0
  7  4  2  0  0  0  0
  8  4  1  0  0  0  0
  9  6  1  0  0  0  0
 10  2  1  0  0  0  0
 11 19  1  1  0  0  0
 11  3  1  0  0  0  0
 12 14  1  0  0  0  0
 13  8  1  0  0  0  0
 14 15  1  0  0  0  0
 14 10  2  0  0  0  0
 15  1  2  0  0  0  0
 17 13  1  0  0  0  0
 17  6  2  0  0  0  0
 19 21  1  0  0  0  0
 19 18  1  1  0  0  0
 21 20  1  0  0  0  0
 22 19  1  0  0  0  0
 23 22  1  0  0  0  0
 24 25  2  0  0  0  0
 25 26  1  0  0  0  0
 26 23  1  0  0  0  0
 28 27  1  0  0  0  0
 28 25  1  0  0  0  0
M  END
>  <MODEL>
7

>  <REMARK>
 VINA RESULT:      -7.0      2.130      4.191
  Name = 
  6 active torsions:
  status: ('A' for Active; 'I' for Inactive)
    1  A    between atoms: C_5  and  C_12
    2  A    between atoms: C_5  and  C_26
    3  A    between atoms: C_12  and  N_22
    4  A    between atoms: S_13  and  C_26
    5  A    between atoms: C_17  and  C_26
    6  A    between atoms: C_21  and  O_28
                            x       y       z     vdW  Elec       q    Type
                         _______ _______ _______ _____ _____    ______ ____

>  <TORSDO>
F 6

$$$$
=
 OpenBabel10222416563D

 28 30  0  0  1  0  0  0  0  0999 V2000
  188.7570  177.1130  144.9450 C   0  0  0  0  0  0  0  0  0  0  0  0
  188.4240  177.8960  147.2010 C   0  0  0  0  0  3  0  0  0  0  0  0
  186.8580  177.1140  143.3360 N   0  0  0  0  0  0  0  0  0  0  0  0
  183.8640  178.6460  144.7270 C   0  0  0  0  0  0  0  0  0  0  0  0
  187.9370  177.7590  145.8930 C   0  0  0  0  0  0  0  0  0  0  0  0
  185.7020  178.8950  146.2650 C   0  0  0  0  0  0  0  0  0  0  0  0
  184.3470  179.1200  145.8360 N   0  0  0  0  0  0  0  0  0  0  0  0
  184.6940  177.8860  143.8490 N   0  0  0  0  0  2  0  0  0  0  0  0
  186.0970  179.5040  147.5690 C   0  0  0  0  0  1  0  0  0  0  0  0
  189.6870  177.4200  147.5460 C   0  0  0  0  0  3  0  0  0  0  0  0
  188.3080  176.9540  143.5060 C   0  0  1  0  0  3  0  0  0  0  0  0
  191.7500  176.2890  146.9090 N   0  0  0  0  0  1  0  0  0  0  0  0
  186.0630  177.6810  144.1930 C   0  0  0  0  0  0  0  0  0  0  0  0
  190.4590  176.7870  146.5760 C   0  0  0  0  0  0  0  0  0  0  0  0
  189.9830  176.6480  145.3130 N   0  0  0  0  0  0  0  0  0  0  0  0
  182.5090  178.9000  144.3770 N   0  0  0  0  0  1  0  0  0  0  0  0
  186.5570  178.1680  145.5000 C   0  0  0  0  0  0  0  0  0  0  0  0
  189.5970  176.8860  141.3800 C   0  0  0  0  0  1  0  0  0  0  0  0
  189.1120  177.8080  142.4890 C   0  0  2  0  0  0  0  0  0  0  0  0
  191.8560  177.5360  142.4570 C   0  0  0  0  0  1  0  0  0  0  0  0
  190.6010  178.5760  143.2660 S   0  0  0  0  0  0  0  0  0  0  0  0
  188.1840  178.8630  141.8550 C   0  0  0  0  0  2  0  0  0  0  0  0
  186.9640  178.2800  141.1470 C   0  0  0  0  0  2  0  0  0  0  0  0
  184.5110  180.1590  139.1170 N   0  0  0  0  0  2  0  0  0  0  0  0
  184.9810  179.1540  139.7760 C   0  0  0  0  0  0  0  0  0  0  0  0
  186.1720  179.3450  140.5530 N   0  0  0  0  0  2  0  0  0  0  0  0
  183.3480  177.4820  140.6470 C   0  0  0  0  0  1  0  0  0  0  0  0
  184.3030  177.9300  139.6970 O   0  0  0  0  0  0  0  0  0  0  0  0
  1 15  2  0  0  0  0
  1  5  1  0  0  0  0
  2 10  1  0  0  0  0
  3 11  1  0  0  0  0
  3 13  2  0  0  0  0
  4  7  2  0  0  0  0
  5  2  2  0  0  0  0
  6  9  1  0  0  0  0
  7  6  1  0  0  0  0
  8 13  1  0  0  0  0
  8  4  1  0  0  0  0
 11 19  1  6  0  0  0
 11  1  1  0  0  0  0
 13 17  1  0  0  0  0
 14 12  1  0  0  0  0
 14 10  2  0  0  0  0
 15 14  1  0  0  0  0
 16  4  1  0  0  0  0
 17  5  1  0  0  0  0
 17  6  2  0  0  0  0
 19 18  1  6  0  0  0
 19 21  1  0  0  0  0
 20 21  1  0  0  0  0
 22 19  1  0  0  0  0
 23 22  1  0  0  0  0
 24 25  2  0  0  0  0
 25 26  1  0  0  0  0
 26 23  1  0  0  0  0
 28 25  1  0  0  0  0
 28 27  1  0  0  0  0
M  END
>  <MODEL>
8

>  <REMARK>
 VINA RESULT:      -6.8      1.986      2.348
  Name = 
  6 active torsions:
  status: ('A' for Active; 'I' for Inactive)
    1  A    between atoms: C_5  and  C_12
    2  A    between atoms: C_5  and  C_26
    3  A    between atoms: C_12  and  N_22
    4  A    between atoms: S_13  and  C_26
    5  A    between atoms: C_17  and  C_26
    6  A    between atoms: C_21  and  O_28
                            x       y       z     vdW  Elec       q    Type
                         _______ _______ _______ _____ _____    ______ ____

>  <TORSDO>
F 6

$$$$
=
 OpenBabel10222416563D

 28 30  0  0  1  0  0  0  0  0999 V2000
  190.3420  177.5300  139.7460 C   0  0  0  0  0  0  0  0  0  0  0  0
  190.7380  176.0030  137.9220 C   0  0  0  0  0  3  0  0  0  0  0  0
  188.1220  178.6290  139.9870 N   0  0  0  0  0  0  0  0  0  0  0  0
  185.7030  177.4170  137.5520 C   0  0  0  0  0  0  0  0  0  0  0  0
  189.8340  176.7690  138.6730 C   0  0  0  0  0  0  0  0  0  0  0  0
  187.7410  176.1410  137.3880 C   0  0  0  0  0  0  0  0  0  0  0  0
  186.3780  176.4360  137.0330 N   0  0  0  0  0  0  0  0  0  0  0  0
  186.2980  178.2490  138.5490 N   0  0  0  0  0  2  0  0  0  0  0  0
  188.3750  174.9810  136.6940 C   0  0  0  0  0  1  0  0  0  0  0  0
  192.0940  175.9860  138.2390 C   0  0  0  0  0  3  0  0  0  0  0  0
  189.4210  178.3590  140.6180 C   0  0  1  0  0  3  0  0  0  0  0  0
  193.9310  176.7570  139.6430 N   0  0  0  0  0  1  0  0  0  0  0  0
  187.6260  177.9680  138.9850 C   0  0  0  0  0  0  0  0  0  0  0  0
  192.5490  176.7560  139.3050 C   0  0  0  0  0  0  0  0  0  0  0  0
  191.6740  177.5030  140.0260 N   0  0  0  0  0  0  0  0  0  0  0  0
  184.3630  177.6540  137.1390 N   0  0  0  0  0  1  0  0  0  0  0  0
  188.3910  176.8920  138.3160 C   0  0  0  0  0  0  0  0  0  0  0  0
  189.7110  176.3730  142.0870 C   0  0  0  0  0  1  0  0  0  0  0  0
  189.2650  177.8270  142.0680 C   0  0  2  0  0  0  0  0  0  0  0  0
  187.5430  176.3810  143.6650 C   0  0  0  0  0  1  0  0  0  0  0  0
  187.5060  177.8770  142.6300 S   0  0  0  0  0  0  0  0  0  0  0  0
  190.1930  178.6200  143.0100 C   0  0  0  0  0  2  0  0  0  0  0  0
  190.9400  177.7570  144.0240 C   0  0  0  0  0  2  0  0  0  0  0  0
  189.9150  177.0390  147.5020 N   0  0  0  0  0  2  0  0  0  0  0  0
  190.7300  177.1690  146.5110 C   0  0  0  0  0  0  0  0  0  0  0  0
  190.2420  177.7600  145.2980 N   0  0  0  0  0  2  0  0  0  0  0  0
  192.4320  175.6270  147.4830 C   0  0  0  0  0  1  0  0  0  0  0  0
  192.0500  176.7260  146.6710 O   0  0  0  0  0  0  0  0  0  0  0  0
  1 15  1  0  0  0  0
  1 11  1  0  0  0  0
  2 10  2  0  0  0  0
  2  5  1  0  0  0  0
  3 11  1  0  0  0  0
  4  8  1  0  0  0  0
  5  1  2  0  0  0  0
  6 17  2  0  0  0  0
  7  6  1  0  0  0  0
  7  4  2  0  0  0  0
  8 13  1  0  0  0  0
  9  6  1  0  0  0  0
 10 14  1  0  0  0  0
 11 19  1  1  0  0  0
 13  3  2  0  0  0  0
 14 12  1  0  0  0  0
 14 15  2  0  0  0  0
 16  4  1  0  0  0  0
 17  5  1  0  0  0  0
 17 13  1  0  0  0  0
 19 18  1  1  0  0  0
 19 21  1  0  0  0  0
 19 22  1  0  0  0  0
 21 20  1  0  0  0  0
 22 23  1  0  0  0  0
 23 26  1  0  0  0  0
 25 28  1  0  0  0  0
 25 24  2  0  0  0  0
 26 25  1  0  0  0  0
 28 27  1  0  0  0  0
M  END
>  <MODEL>
9

>  <REMARK>
 VINA RESULT:      -6.8      3.534      7.453
  Name = 
  6 active torsions:
  status: ('A' for Active; 'I' for Inactive)
    1  A    between atoms: C_5  and  C_12
    2  A    between atoms: C_5  and  C_26
    3  A    between atoms: C_12  and  N_22
    4  A    between atoms: S_13  and  C_26
    5  A    between atoms: C_17  and  C_26
    6  A    between atoms: C_21  and  O_28
                            x       y       z     vdW  Elec       q    Type
                         _______ _______ _______ _____ _____    ______ ____

>  <TORSDO>
F 6

$$$$
