=
 OpenBabel10222416573D

 28 31  0  0  1  0  0  0  0  0999 V2000
  185.5090  178.5070  143.1420 C   0  0  0  0  0  0  0  0  0  0  0  0
  183.2390  179.0010  143.8820 C   0  0  0  0  0  3  0  0  0  0  0  0
  184.1000  178.8370  142.8730 C   0  0  0  0  0  3  0  0  0  0  0  0
  185.9530  178.3620  144.5490 C   0  0  0  0  0  0  0  0  0  0  0  0
  187.1990  178.0710  144.8110 N   0  0  0  0  0  0  0  0  0  0  0  0
  183.6690  178.8590  145.2890 C   0  0  0  0  0  3  0  0  0  0  0  0
  186.3370  178.3480  142.1430 C   0  0  0  0  0  0  0  0  0  0  0  0
  184.9340  178.5610  145.6040 C   0  0  0  0  0  3  0  0  0  0  0  0
  187.1760  178.1860  141.1560 C   0  0  0  0  0  3  0  0  0  0  0  0
  189.2100  177.5710  146.0860 C   0  0  0  0  0  3  0  0  0  0  0  0
  187.8740  177.8070  148.4990 C   0  0  0  0  0  3  0  0  0  0  0  0
  187.1760  177.9990  147.3060 C   0  0  0  0  0  3  0  0  0  0  0  0
  187.8480  177.8820  146.0810 C   0  0  0  0  0  0  0  0  0  0  0  0
  189.8770  177.3690  147.3000 C   0  0  0  0  0  0  0  0  0  0  0  0
  189.1980  177.5050  148.4730 N   0  0  0  0  0  0  0  0  0  0  0  0
  191.7400  176.3460  146.0370 C   0  0  0  0  0  2  0  0  0  0  0  0
  191.5840  175.5770  147.3280 C   0  0  0  0  0  2  0  0  0  0  0  0
  191.3450  177.0760  147.3080 C   0  0  0  0  0  3  0  0  0  0  0  0
  188.6150  177.8340  141.3980 C   0  0  0  0  0  0  0  0  0  0  0  0
  189.2070  178.8030  142.2140 O   0  0  0  0  0  1  0  0  0  0  0  0
  188.6740  176.5940  142.0430 O   0  0  0  0  0  1  0  0  0  0  0  0
  188.3940  177.5750  138.8700 C   0  0  0  0  0  2  0  0  0  0  0  0
  189.3650  177.7510  140.0610 C   0  0  2  0  0  3  0  0  0  0  0  0
  188.9440  176.7240  137.7150 C   0  0  0  0  0  2  0  0  0  0  0  0
  192.4050  176.6160  138.6480 O   0  0  0  0  0  0  0  0  0  0  0  0
  191.1540  176.7100  138.7470 C   0  0  0  0  0  0  0  0  0  0  0  0
  190.4970  176.7130  140.0850 C   0  0  0  0  0  2  0  0  0  0  0  0
  190.3610  176.8300  137.6080 O   0  0  0  0  0  0  0  0  0  0  0  0
  1  4  1  0  0  0  0
  2  6  1  0  0  0  0
  3  1  1  0  0  0  0
  3  2  2  0  0  0  0
  4  5  2  0  0  0  0
  4  8  1  0  0  0  0
  5 13  1  0  0  0  0
  6  8  2  0  0  0  0
  7  1  2  0  0  0  0
  9 19  1  0  0  0  0
  9  7  2  0  0  0  0
 10 14  1  0  0  0  0
 12 11  2  0  0  0  0
 13 10  2  0  0  0  0
 13 12  1  0  0  0  0
 14 18  1  0  0  0  0
 14 15  2  0  0  0  0
 15 11  1  0  0  0  0
 16 18  1  0  0  0  0
 16 17  1  0  0  0  0
 18 17  1  0  0  0  0
 19 21  1  0  0  0  0
 19 20  1  0  0  0  0
 22 23  1  0  0  0  0
 23 27  1  0  0  0  0
 23 19  1  1  0  0  0
 24 22  1  0  0  0  0
 25 26  2  0  0  0  0
 26 27  1  0  0  0  0
 28 24  1  0  0  0  0
 28 26  1  0  0  0  0
M  END
>  <MODEL>
1

>  <REMARK>
 VINA RESULT:      -9.9      0.000      0.000
  Name = 
  4 active torsions:
  status: ('A' for Active; 'I' for Inactive)
    1  A    between atoms: C_8  and  C_11
    2  A    between atoms: C_8  and  C_28
    3  A    between atoms: C_13  and  N_16
    4  A    between atoms: C_21  and  C_22
                            x       y       z     vdW  Elec       q    Type
                         _______ _______ _______ _____ _____    ______ ____

>  <TORSDO>
F 4

$$$$
=
 OpenBabel10222416573D

 28 31  0  0  1  0  0  0  0  0999 V2000
  190.3690  177.0150  144.5970 C   0  0  0  0  0  0  0  0  0  0  0  0
  191.5910  176.5190  146.6480 C   0  0  0  0  0  3  0  0  0  0  0  0
  191.5850  176.5980  145.3130 C   0  0  0  0  0  3  0  0  0  0  0  0
  189.1550  177.3450  145.3820 C   0  0  0  0  0  0  0  0  0  0  0  0
  188.0640  177.7160  144.7660 N   0  0  0  0  0  0  0  0  0  0  0  0
  190.3880  176.8460  147.4410 C   0  0  0  0  0  3  0  0  0  0  0  0
  190.3820  177.0880  143.2930 C   0  0  0  0  0  0  0  0  0  0  0  0
  189.2500  177.2300  146.8540 C   0  0  0  0  0  3  0  0  0  0  0  0
  190.3790  177.1660  141.9880 C   0  0  0  0  0  3  0  0  0  0  0  0
  185.8420  178.6560  144.4550 C   0  0  0  0  0  3  0  0  0  0  0  0
  185.1790  178.2570  147.1140 C   0  0  0  0  0  3  0  0  0  0  0  0
  186.4430  177.8820  146.6570 C   0  0  0  0  0  3  0  0  0  0  0  0
  186.7840  178.0800  145.3120 C   0  0  0  0  0  0  0  0  0  0  0  0
  184.5880  179.0350  144.9480 C   0  0  0  0  0  0  0  0  0  0  0  0
  184.2830  178.8150  146.2580 N   0  0  0  0  0  0  0  0  0  0  0  0
  182.2960  178.7780  144.0590 C   0  0  0  0  0  2  0  0  0  0  0  0
  183.2550  178.6400  142.9000 C   0  0  0  0  0  2  0  0  0  0  0  0
  183.5640  179.6140  144.0240 C   0  0  0  0  0  3  0  0  0  0  0  0
  189.1590  177.6030  141.2310 C   0  0  0  0  0  0  0  0  0  0  0  0
  188.0310  176.9500  141.7360 O   0  0  0  0  0  1  0  0  0  0  0  0
  188.9990  178.9830  141.3910 O   0  0  0  0  0  1  0  0  0  0  0  0
  190.6170  176.4690  139.4710 C   0  0  0  0  0  2  0  0  0  0  0  0
  189.3250  177.2770  139.7400 C   0  0  2  0  0  3  0  0  0  0  0  0
  191.2890  176.7650  138.1210 C   0  0  0  0  0  2  0  0  0  0  0  0
  188.6400  178.5760  136.5200 O   0  0  0  0  0  0  0  0  0  0  0  0
  189.3650  178.0950  137.4300 C   0  0  0  0  0  0  0  0  0  0  0  0
  189.1840  178.5190  138.8470 C   0  0  0  0  0  2  0  0  0  0  0  0
  190.3380  177.1460  137.1300 O   0  0  0  0  0  0  0  0  0  0  0  0
  1  3  1  0  0  0  0
  1  4  1  0  0  0  0
  2  6  1  0  0  0  0
  3  2  2  0  0  0  0
  4  8  1  0  0  0  0
  5 13  1  0  0  0  0
  5  4  2  0  0  0  0
  7  1  2  0  0  0  0
  8  6  2  0  0  0  0
  9  7  2  0  0  0  0
 10 14  2  0  0  0  0
 10 13  1  0  0  0  0
 12 11  1  0  0  0  0
 13 12  2  0  0  0  0
 14 15  1  0  0  0  0
 15 11  2  0  0  0  0
 17 18  1  0  0  0  0
 17 16  1  0  0  0  0
 18 16  1  0  0  0  0
 18 14  1  0  0  0  0
 19 21  1  0  0  0  0
 19 20  1  0  0  0  0
 19  9  1  0  0  0  0
 22 23  1  0  0  0  0
 23 19  1  1  0  0  0
 24 22  1  0  0  0  0
 25 26  2  0  0  0  0
 26 27  1  0  0  0  0
 27 23  1  0  0  0  0
 28 26  1  0  0  0  0
 28 24  1  0  0  0  0
M  END
>  <MODEL>
2

>  <REMARK>
 VINA RESULT:      -9.7      1.415      5.100
  Name = 
  4 active torsions:
  status: ('A' for Active; 'I' for Inactive)
    1  A    between atoms: C_8  and  C_11
    2  A    between atoms: C_8  and  C_28
    3  A    between atoms: C_13  and  N_16
    4  A    between atoms: C_21  and  C_22
                            x       y       z     vdW  Elec       q    Type
                         _______ _______ _______ _____ _____    ______ ____

>  <TORSDO>
F 4

$$$$
=
 OpenBabel10222416573D

 28 31  0  0  1  0  0  0  0  0999 V2000
  186.3500  178.2230  145.3510 C   0  0  0  0  0  0  0  0  0  0  0  0
  184.1080  178.6780  146.1930 C   0  0  0  0  0  3  0  0  0  0  0  0
  185.3840  178.3760  146.4510 C   0  0  0  0  0  3  0  0  0  0  0  0
  185.8800  178.4090  143.9570 C   0  0  0  0  0  0  0  0  0  0  0  0
  186.7200  178.2760  142.9650 N   0  0  0  0  0  0  0  0  0  0  0  0
  183.6270  178.8670  144.8090 C   0  0  0  0  0  3  0  0  0  0  0  0
  187.5940  177.9290  145.6210 C   0  0  0  0  0  0  0  0  0  0  0  0
  184.4510  178.7410  143.7630 C   0  0  0  0  0  3  0  0  0  0  0  0
  188.8410  177.6350  145.8750 C   0  0  0  0  0  3  0  0  0  0  0  0
  187.5120  178.0090  140.6800 C   0  0  0  0  0  3  0  0  0  0  0  0
  185.1560  179.0120  139.6280 C   0  0  0  0  0  3  0  0  0  0  0  0
  185.3040  178.9180  141.0120 C   0  0  0  0  0  3  0  0  0  0  0  0
  186.4940  178.4090  141.5510 C   0  0  0  0  0  0  0  0  0  0  0  0
  187.3370  178.1320  139.2970 C   0  0  0  0  0  0  0  0  0  0  0  0
  186.1620  178.6160  138.8060 N   0  0  0  0  0  0  0  0  0  0  0  0
  189.7620  178.1860  138.8170 C   0  0  0  0  0  2  0  0  0  0  0  0
  189.0510  178.8510  137.6620 C   0  0  0  0  0  2  0  0  0  0  0  0
  188.4090  177.6660  138.3630 C   0  0  0  0  0  3  0  0  0  0  0  0
  189.8520  177.4870  144.7750 C   0  0  0  0  0  0  0  0  0  0  0  0
  189.3210  176.7010  143.7490 O   0  0  0  0  0  1  0  0  0  0  0  0
  190.1570  178.7560  144.2700 O   0  0  0  0  0  1  0  0  0  0  0  0
  191.5960  175.6560  144.4370 C   0  0  0  0  0  2  0  0  0  0  0  0
  191.1290  176.8350  145.3240 C   0  0  2  0  0  3  0  0  0  0  0  0
  192.2670  174.5050  145.2020 C   0  0  0  0  0  2  0  0  0  0  0  0
  192.7960  176.1160  148.3620 O   0  0  0  0  0  0  0  0  0  0  0  0
  192.2940  175.8450  147.2400 C   0  0  0  0  0  0  0  0  0  0  0  0
  191.0110  176.4710  146.8110 C   0  0  0  0  0  2  0  0  0  0  0  0
  192.9380  174.9670  146.3710 O   0  0  0  0  0  0  0  0  0  0  0  0
  1  7  2  0  0  0  0
  1  3  1  0  0  0  0
  2  3  2  0  0  0  0
  4  1  1  0  0  0  0
  5  4  2  0  0  0  0
  6  2  1  0  0  0  0
  7  9  2  0  0  0  0
  8  4  1  0  0  0  0
  8  6  2  0  0  0  0
 10 13  1  0  0  0  0
 11 12  1  0  0  0  0
 12 13  2  0  0  0  0
 13  5  1  0  0  0  0
 14 10  2  0  0  0  0
 15 14  1  0  0  0  0
 15 11  2  0  0  0  0
 17 18  1  0  0  0  0
 17 16  1  0  0  0  0
 18 16  1  0  0  0  0
 18 14  1  0  0  0  0
 19  9  1  0  0  0  0
 20 19  1  0  0  0  0
 21 19  1  0  0  0  0
 22 24  1  0  0  0  0
 22 23  1  0  0  0  0
 23 19  1  6  0  0  0
 23 27  1  0  0  0  0
 24 28  1  0  0  0  0
 26 25  2  0  0  0  0
 27 26  1  0  0  0  0
 28 26  1  0  0  0  0
M  END
>  <MODEL>
3

>  <REMARK>
 VINA RESULT:      -9.5      2.542      6.480
  Name = 
  4 active torsions:
  status: ('A' for Active; 'I' for Inactive)
    1  A    between atoms: C_8  and  C_11
    2  A    between atoms: C_8  and  C_28
    3  A    between atoms: C_13  and  N_16
    4  A    between atoms: C_21  and  C_22
                            x       y       z     vdW  Elec       q    Type
                         _______ _______ _______ _____ _____    ______ ____

>  <TORSDO>
F 4

$$$$
=
 OpenBabel10222416573D

 28 31  0  0  1  0  0  0  0  0999 V2000
  187.0800  177.9970  146.1800 C   0  0  0  0  0  0  0  0  0  0  0  0
  188.3420  177.6100  148.2300 C   0  0  0  0  0  3  0  0  0  0  0  0
  187.1760  177.9040  147.6460 C   0  0  0  0  0  3  0  0  0  0  0  0
  188.2980  177.7590  145.3680 C   0  0  0  0  0  0  0  0  0  0  0  0
  188.2360  177.8380  144.0650 N   0  0  0  0  0  0  0  0  0  0  0  0
  189.5620  177.3700  147.4320 C   0  0  0  0  0  3  0  0  0  0  0  0
  185.9330  178.2850  145.6250 C   0  0  0  0  0  0  0  0  0  0  0  0
  189.5450  177.4400  146.0970 C   0  0  0  0  0  3  0  0  0  0  0  0
  184.7930  178.5710  145.0560 C   0  0  0  0  0  3  0  0  0  0  0  0
  188.8950  177.3330  141.7790 C   0  0  0  0  0  3  0  0  0  0  0  0
  191.5860  177.5750  142.3820 C   0  0  0  0  0  3  0  0  0  0  0  0
  190.6370  177.7680  143.3860 C   0  0  0  0  0  3  0  0  0  0  0  0
  189.2730  177.6490  143.0870 C   0  0  0  0  0  0  0  0  0  0  0  0
  189.8730  177.1290  140.7980 C   0  0  0  0  0  0  0  0  0  0  0  0
  191.1890  177.2680  141.1190 N   0  0  0  0  0  0  0  0  0  0  0  0
  190.6190  177.1270  138.4410 C   0  0  0  0  0  2  0  0  0  0  0  0
  189.4730  178.1030  138.5580 C   0  0  0  0  0  2  0  0  0  0  0  0
  189.4690  176.8310  139.3880 C   0  0  0  0  0  3  0  0  0  0  0  0
  184.6600  178.6580  143.5630 C   0  0  0  0  0  0  0  0  0  0  0  0
  185.0110  179.9410  143.1320 O   0  0  0  0  0  1  0  0  0  0  0  0
  185.5250  177.7260  142.9790 O   0  0  0  0  0  1  0  0  0  0  0  0
  183.0100  178.5090  141.6230 C   0  0  0  0  0  2  0  0  0  0  0  0
  183.2150  178.3450  143.1480 C   0  0  2  0  0  3  0  0  0  0  0  0
  181.6160  179.0090  141.2140 C   0  0  0  0  0  2  0  0  0  0  0  0
  179.8830  178.5510  144.3200 O   0  0  0  0  0  0  0  0  0  0  0  0
  180.8230  178.7400  143.5060 C   0  0  0  0  0  0  0  0  0  0  0  0
  182.1830  179.1100  143.9890 C   0  0  0  0  0  2  0  0  0  0  0  0
  180.6130  178.5910  142.1370 O   0  0  0  0  0  0  0  0  0  0  0  0
  1  3  1  0  0  0  0
  3  2  2  0  0  0  0
  4  8  1  0  0  0  0
  4  1  1  0  0  0  0
  5  4  2  0  0  0  0
  6  2  1  0  0  0  0
  7  1  2  0  0  0  0
  8  6  2  0  0  0  0
  9  7  2  0  0  0  0
 10 13  1  0  0  0  0
 11 12  1  0  0  0  0
 13 12  2  0  0  0  0
 13  5  1  0  0  0  0
 14 15  1  0  0  0  0
 14 10  2  0  0  0  0
 15 11  2  0  0  0  0
 16 17  1  0  0  0  0
 16 18  1  0  0  0  0
 17 18  1  0  0  0  0
 18 14  1  0  0  0  0
 19  9  1  0  0  0  0
 20 19  1  0  0  0  0
 21 19  1  0  0  0  0
 22 23  1  0  0  0  0
 23 19  1  1  0  0  0
 23 27  1  0  0  0  0
 24 22  1  0  0  0  0
 24 28  1  0  0  0  0
 26 27  1  0  0  0  0
 26 25  2  0  0  0  0
 28 26  1  0  0  0  0
M  END
>  <MODEL>
4

>  <REMARK>
 VINA RESULT:      -9.4      3.086      6.980
  Name = 
  4 active torsions:
  status: ('A' for Active; 'I' for Inactive)
    1  A    between atoms: C_8  and  C_11
    2  A    between atoms: C_8  and  C_28
    3  A    between atoms: C_13  and  N_16
    4  A    between atoms: C_21  and  C_22
                            x       y       z     vdW  Elec       q    Type
                         _______ _______ _______ _____ _____    ______ ____

>  <TORSDO>
F 4

$$$$
=
 OpenBabel10222416573D

 28 31  0  0  1  0  0  0  0  0999 V2000
  188.7190  177.6250  145.7350 C   0  0  0  0  0  0  0  0  0  0  0  0
  188.6380  177.8090  148.1650 C   0  0  0  0  0  3  0  0  0  0  0  0
  189.3500  177.5520  147.0630 C   0  0  0  0  0  3  0  0  0  0  0  0
  187.2840  177.9870  145.6450 C   0  0  0  0  0  0  0  0  0  0  0  0
  186.7040  178.0560  144.4770 N   0  0  0  0  0  0  0  0  0  0  0  0
  187.2080  178.1710  148.0890 C   0  0  0  0  0  3  0  0  0  0  0  0
  189.4300  177.3720  144.6690 C   0  0  0  0  0  0  0  0  0  0  0  0
  186.5730  178.2540  146.9150 C   0  0  0  0  0  3  0  0  0  0  0  0
  190.1270  177.1230  143.5930 C   0  0  0  0  0  3  0  0  0  0  0  0
  184.9700  178.3850  142.8020 C   0  0  0  0  0  3  0  0  0  0  0  0
  183.0740  179.0010  144.7240 C   0  0  0  0  0  3  0  0  0  0  0  0
  184.3780  178.6980  145.1180 C   0  0  0  0  0  3  0  0  0  0  0  0
  185.3420  178.3840  144.1490 C   0  0  0  0  0  0  0  0  0  0  0  0
  183.6580  178.7100  142.4400 C   0  0  0  0  0  0  0  0  0  0  0  0
  182.7410  178.9950  143.4070 N   0  0  0  0  0  0  0  0  0  0  0  0
  181.7900  178.2580  140.8840 C   0  0  0  0  0  2  0  0  0  0  0  0
  182.8810  177.2550  140.5930 C   0  0  0  0  0  2  0  0  0  0  0  0
  183.2470  178.6710  141.0010 C   0  0  0  0  0  3  0  0  0  0  0  0
  189.5160  177.2040  142.2240 C   0  0  0  0  0  0  0  0  0  0  0  0
  188.3770  176.3960  142.1680 O   0  0  0  0  0  1  0  0  0  0  0  0
  189.1500  178.5300  141.9720 O   0  0  0  0  0  1  0  0  0  0  0  0
  191.9640  177.2290  141.5040 C   0  0  0  0  0  2  0  0  0  0  0  0
  190.5330  176.7450  141.1700 C   0  0  2  0  0  3  0  0  0  0  0  0
  192.8340  177.5520  140.2800 C   0  0  0  0  0  2  0  0  0  0  0  0
  190.8280  176.0580  137.7100 O   0  0  0  0  0  0  0  0  0  0  0  0
  191.1430  176.6030  138.8000 C   0  0  0  0  0  0  0  0  0  0  0  0
  190.0910  177.0860  139.7390 C   0  0  0  0  0  2  0  0  0  0  0  0
  192.4810  176.7510  139.1550 O   0  0  0  0  0  0  0  0  0  0  0  0
  1  3  1  0  0  0  0
  3  2  2  0  0  0  0
  4  1  1  0  0  0  0
  4  8  1  0  0  0  0
  5  4  2  0  0  0  0
  6  2  1  0  0  0  0
  7  1  2  0  0  0  0
  8  6  2  0  0  0  0
  9  7  2  0  0  0  0
 10 13  1  0  0  0  0
 11 12  1  0  0  0  0
 13  5  1  0  0  0  0
 13 12  2  0  0  0  0
 14 10  2  0  0  0  0
 14 15  1  0  0  0  0
 15 11  2  0  0  0  0
 16 18  1  0  0  0  0
 17 16  1  0  0  0  0
 17 18  1  0  0  0  0
 18 14  1  0  0  0  0
 19  9  1  0  0  0  0
 20 19  1  0  0  0  0
 21 19  1  0  0  0  0
 23 22  1  0  0  0  0
 23 19  1  1  0  0  0
 24 22  1  0  0  0  0
 25 26  2  0  0  0  0
 26 28  1  0  0  0  0
 26 27  1  0  0  0  0
 27 23  1  0  0  0  0
 28 24  1  0  0  0  0
M  END
>  <MODEL>
5

>  <REMARK>
 VINA RESULT:      -9.3      1.653      5.446
  Name = 
  4 active torsions:
  status: ('A' for Active; 'I' for Inactive)
    1  A    between atoms: C_8  and  C_11
    2  A    between atoms: C_8  and  C_28
    3  A    between atoms: C_13  and  N_16
    4  A    between atoms: C_21  and  C_22
                            x       y       z     vdW  Elec       q    Type
                         _______ _______ _______ _____ _____    ______ ____

>  <TORSDO>
F 4

$$$$
=
 OpenBabel10222416573D

 28 31  0  0  1  0  0  0  0  0999 V2000
  184.9400  178.5230  144.5750 C   0  0  0  0  0  0  0  0  0  0  0  0
  185.4270  178.5890  146.9630 C   0  0  0  0  0  3  0  0  0  0  0  0
  184.5540  178.7880  145.9700 C   0  0  0  0  0  3  0  0  0  0  0  0
  186.3120  178.0340  144.2940 C   0  0  0  0  0  0  0  0  0  0  0  0
  186.6770  177.7940  143.0630 N   0  0  0  0  0  0  0  0  0  0  0  0
  186.7960  178.1020  146.6970 C   0  0  0  0  0  3  0  0  0  0  0  0
  184.0750  178.7210  143.6170 C   0  0  0  0  0  0  0  0  0  0  0  0
  187.2120  177.8430  145.4530 C   0  0  0  0  0  3  0  0  0  0  0  0
  183.2200  178.9140  142.6470 C   0  0  0  0  0  3  0  0  0  0  0  0
  188.3670  177.7870  141.3130 C   0  0  0  0  0  3  0  0  0  0  0  0
  189.9630  176.0050  142.7060 C   0  0  0  0  0  3  0  0  0  0  0  0
  188.7490  176.4160  143.2580 C   0  0  0  0  0  3  0  0  0  0  0  0
  187.9380  177.3200  142.5580 C   0  0  0  0  0  0  0  0  0  0  0  0
  189.5820  177.3430  140.7810 C   0  0  0  0  0  0  0  0  0  0  0  0
  190.3550  176.4760  141.4930 N   0  0  0  0  0  0  0  0  0  0  0  0
  188.9190  178.5360  138.7190 C   0  0  0  0  0  2  0  0  0  0  0  0
  189.3760  177.1520  138.3210 C   0  0  0  0  0  2  0  0  0  0  0  0
  190.0640  177.8740  139.4670 C   0  0  0  0  0  3  0  0  0  0  0  0
  183.5800  178.6380  141.2170 C   0  0  0  0  0  0  0  0  0  0  0  0
  184.7130  179.3780  140.8640 O   0  0  0  0  0  1  0  0  0  0  0  0
  183.8620  177.2750  141.0780 O   0  0  0  0  0  1  0  0  0  0  0  0
  181.4870  177.8020  140.0220 C   0  0  0  0  0  2  0  0  0  0  0  0
  182.4070  179.0140  140.3010 C   0  0  2  0  0  3  0  0  0  0  0  0
  180.8450  177.7920  138.6260 C   0  0  0  0  0  2  0  0  0  0  0  0
  181.5550  181.1590  137.6180 O   0  0  0  0  0  0  0  0  0  0  0  0
  181.6570  180.0540  138.2120 C   0  0  0  0  0  0  0  0  0  0  0  0
  182.8640  179.7390  139.0270 C   0  0  0  0  0  2  0  0  0  0  0  0
  180.6350  179.1110  138.1310 O   0  0  0  0  0  0  0  0  0  0  0  0
  1  3  1  0  0  0  0
  3  2  2  0  0  0  0
  4  1  1  0  0  0  0
  4  8  1  0  0  0  0
  5  4  2  0  0  0  0
  6  2  1  0  0  0  0
  7  1  2  0  0  0  0
  8  6  2  0  0  0  0
  9  7  2  0  0  0  0
 10 13  1  0  0  0  0
 11 12  1  0  0  0  0
 13  5  1  0  0  0  0
 13 12  2  0  0  0  0
 14 10  2  0  0  0  0
 14 15  1  0  0  0  0
 15 11  2  0  0  0  0
 16 18  1  0  0  0  0
 17 16  1  0  0  0  0
 17 18  1  0  0  0  0
 18 14  1  0  0  0  0
 19  9  1  0  0  0  0
 20 19  1  0  0  0  0
 21 19  1  0  0  0  0
 22 23  1  0  0  0  0
 23 19  1  6  0  0  0
 24 22  1  0  0  0  0
 25 26  2  0  0  0  0
 26 27  1  0  0  0  0
 27 23  1  0  0  0  0
 28 26  1  0  0  0  0
 28 24  1  0  0  0  0
M  END
>  <MODEL>
6

>  <REMARK>
 VINA RESULT:      -9.2      3.657      6.366
  Name = 
  4 active torsions:
  status: ('A' for Active; 'I' for Inactive)
    1  A    between atoms: C_8  and  C_11
    2  A    between atoms: C_8  and  C_28
    3  A    between atoms: C_13  and  N_16
    4  A    between atoms: C_21  and  C_22
                            x       y       z     vdW  Elec       q    Type
                         _______ _______ _______ _____ _____    ______ ____

>  <TORSDO>
F 4

$$$$
=
 OpenBabel10222416573D

 28 31  0  0  1  0  0  0  0  0999 V2000
  186.3840  178.2090  144.9270 C   0  0  0  0  0  0  0  0  0  0  0  0
  184.1120  178.7230  145.6470 C   0  0  0  0  0  3  0  0  0  0  0  0
  185.3660  178.3960  145.9740 C   0  0  0  0  0  3  0  0  0  0  0  0
  185.9910  178.3890  143.5090 C   0  0  0  0  0  0  0  0  0  0  0  0
  186.8770  178.2270  142.5630 N   0  0  0  0  0  0  0  0  0  0  0  0
  183.7080  178.9050  144.2380 C   0  0  0  0  0  3  0  0  0  0  0  0
  187.6050  177.8910  145.2640 C   0  0  0  0  0  0  0  0  0  0  0  0
  184.5810  178.7500  143.2380 C   0  0  0  0  0  3  0  0  0  0  0  0
  188.8310  177.5740  145.5850 C   0  0  0  0  0  3  0  0  0  0  0  0
  185.4710  178.6950  140.6340 C   0  0  0  0  0  3  0  0  0  0  0  0
  187.5630  178.2800  138.8680 C   0  0  0  0  0  3  0  0  0  0  0  0
  187.7830  178.1380  140.2390 C   0  0  0  0  0  3  0  0  0  0  0  0
  186.7280  178.3480  141.1380 C   0  0  0  0  0  0  0  0  0  0  0  0
  185.2800  178.8130  139.2530 C   0  0  0  0  0  0  0  0  0  0  0  0
  186.3300  178.6170  138.4070 N   0  0  0  0  0  0  0  0  0  0  0  0
  182.8350  178.6670  139.5870 C   0  0  0  0  0  2  0  0  0  0  0  0
  183.1570  178.0040  138.2680 C   0  0  0  0  0  2  0  0  0  0  0  0
  183.9460  179.2240  138.7140 C   0  0  0  0  0  3  0  0  0  0  0  0
  189.8940  177.3920  144.5410 C   0  0  0  0  0  0  0  0  0  0  0  0
  189.4170  176.5610  143.5230 O   0  0  0  0  0  1  0  0  0  0  0  0
  190.2140  178.6420  144.0010 O   0  0  0  0  0  1  0  0  0  0  0  0
  191.7260  175.6320  144.3030 C   0  0  0  0  0  2  0  0  0  0  0  0
  191.1480  176.7720  145.1750 C   0  0  2  0  0  3  0  0  0  0  0  0
  192.3780  174.4880  145.0950 C   0  0  0  0  0  2  0  0  0  0  0  0
  192.5990  176.0420  148.3190 O   0  0  0  0  0  0  0  0  0  0  0  0
  192.1970  175.7800  147.1550 C   0  0  0  0  0  0  0  0  0  0  0  0
  190.9290  176.3700  146.6400 C   0  0  0  0  0  2  0  0  0  0  0  0
  192.9380  174.9460  146.3220 O   0  0  0  0  0  0  0  0  0  0  0  0
  1  7  2  0  0  0  0
  1  3  1  0  0  0  0
  2  3  2  0  0  0  0
  4  1  1  0  0  0  0
  5  4  2  0  0  0  0
  6  2  1  0  0  0  0
  7  9  2  0  0  0  0
  8  4  1  0  0  0  0
  8  6  2  0  0  0  0
 10 13  1  0  0  0  0
 11 12  1  0  0  0  0
 12 13  2  0  0  0  0
 13  5  1  0  0  0  0
 14 10  2  0  0  0  0
 15 11  2  0  0  0  0
 15 14  1  0  0  0  0
 17 18  1  0  0  0  0
 17 16  1  0  0  0  0
 18 14  1  0  0  0  0
 18 16  1  0  0  0  0
 19  9  1  0  0  0  0
 20 19  1  0  0  0  0
 21 19  1  0  0  0  0
 22 24  1  0  0  0  0
 22 23  1  0  0  0  0
 23 19  1  6  0  0  0
 23 27  1  0  0  0  0
 24 28  1  0  0  0  0
 26 25  2  0  0  0  0
 27 26  1  0  0  0  0
 28 26  1  0  0  0  0
M  END
>  <MODEL>
7

>  <REMARK>
 VINA RESULT:      -9.1      2.877      6.993
  Name = 
  4 active torsions:
  status: ('A' for Active; 'I' for Inactive)
    1  A    between atoms: C_8  and  C_11
    2  A    between atoms: C_8  and  C_28
    3  A    between atoms: C_13  and  N_16
    4  A    between atoms: C_21  and  C_22
                            x       y       z     vdW  Elec       q    Type
                         _______ _______ _______ _____ _____    ______ ____

>  <TORSDO>
F 4

$$$$
=
 OpenBabel10222416573D

 28 31  0  0  1  0  0  0  0  0999 V2000
  188.2480  178.1740  140.7290 C   0  0  0  0  0  0  0  0  0  0  0  0
  190.0790  177.8770  139.1480 C   0  0  0  0  0  3  0  0  0  0  0  0
  188.7990  178.1950  139.3650 C   0  0  0  0  0  3  0  0  0  0  0  0
  189.1370  177.7940  141.8530 C   0  0  0  0  0  0  0  0  0  0  0  0
  188.6680  177.7670  143.0730 N   0  0  0  0  0  0  0  0  0  0  0  0
  190.9760  177.4970  140.2590 C   0  0  0  0  0  3  0  0  0  0  0  0
  186.9950  178.4890  140.9240 C   0  0  0  0  0  0  0  0  0  0  0  0
  190.5390  177.4570  141.5220 C   0  0  0  0  0  3  0  0  0  0  0  0
  185.7440  178.8010  141.1350 C   0  0  0  0  0  3  0  0  0  0  0  0
  188.5820  177.4230  145.4790 C   0  0  0  0  0  3  0  0  0  0  0  0
  191.2780  176.8030  145.6000 C   0  0  0  0  0  3  0  0  0  0  0  0
  190.7000  177.1220  144.3700 C   0  0  0  0  0  3  0  0  0  0  0  0
  189.3360  177.4340  144.3020 C   0  0  0  0  0  0  0  0  0  0  0  0
  189.1950  177.1160  146.6990 C   0  0  0  0  0  0  0  0  0  0  0  0
  190.5200  176.8010  146.7280 N   0  0  0  0  0  0  0  0  0  0  0  0
  187.4350  178.2490  148.0140 C   0  0  0  0  0  2  0  0  0  0  0  0
  188.6990  178.2540  148.8410 C   0  0  0  0  0  2  0  0  0  0  0  0
  188.3810  177.0630  147.9540 C   0  0  0  0  0  3  0  0  0  0  0  0
  185.1580  178.8040  142.5170 C   0  0  0  0  0  0  0  0  0  0  0  0
  185.8330  177.8780  143.3170 O   0  0  0  0  0  1  0  0  0  0  0  0
  185.3070  180.0810  143.0670 O   0  0  0  0  0  1  0  0  0  0  0  0
  183.1150  178.5460  141.0090 C   0  0  0  0  0  2  0  0  0  0  0  0
  183.6660  178.4460  142.4520 C   0  0  2  0  0  3  0  0  0  0  0  0
  181.6510  179.0010  140.9120 C   0  0  0  0  0  2  0  0  0  0  0  0
  180.6820  178.6290  144.3450 O   0  0  0  0  0  0  0  0  0  0  0  0
  181.4070  178.8050  143.3310 C   0  0  0  0  0  0  0  0  0  0  0  0
  182.8300  179.2220  143.4800 C   0  0  0  0  0  2  0  0  0  0  0  0
  180.8960  178.5990  142.0520 O   0  0  0  0  0  0  0  0  0  0  0  0
  1  7  2  0  0  0  0
  1  4  1  0  0  0  0
  2  3  2  0  0  0  0
  2  6  1  0  0  0  0
  3  1  1  0  0  0  0
  4  5  2  0  0  0  0
  5 13  1  0  0  0  0
  6  8  2  0  0  0  0
  7  9  2  0  0  0  0
  8  4  1  0  0  0  0
  9 19  1  0  0  0  0
 10 14  1  0  0  0  0
 11 15  1  0  0  0  0
 12 11  2  0  0  0  0
 13 12  1  0  0  0  0
 13 10  2  0  0  0  0
 14 15  2  0  0  0  0
 14 18  1  0  0  0  0
 16 17  1  0  0  0  0
 18 16  1  0  0  0  0
 18 17  1  0  0  0  0
 19 21  1  0  0  0  0
 19 20  1  0  0  0  0
 22 23  1  0  0  0  0
 23 19  1  6  0  0  0
 23 27  1  0  0  0  0
 24 22  1  0  0  0  0
 24 28  1  0  0  0  0
 26 27  1  0  0  0  0
 26 25  2  0  0  0  0
 28 26  1  0  0  0  0
M  END
>  <MODEL>
8

>  <REMARK>
 VINA RESULT:      -9.0      2.789      6.154
  Name = 
  4 active torsions:
  status: ('A' for Active; 'I' for Inactive)
    1  A    between atoms: C_8  and  C_11
    2  A    between atoms: C_8  and  C_28
    3  A    between atoms: C_13  and  N_16
    4  A    between atoms: C_21  and  C_22
                            x       y       z     vdW  Elec       q    Type
                         _______ _______ _______ _____ _____    ______ ____

>  <TORSDO>
F 4

$$$$
=
 OpenBabel10222416573D

 28 31  0  0  1  0  0  0  0  0999 V2000
  184.9370  178.5980  143.7580 C   0  0  0  0  0  0  0  0  0  0  0  0
  184.8180  178.4910  146.1910 C   0  0  0  0  0  3  0  0  0  0  0  0
  184.2460  178.8410  145.0350 C   0  0  0  0  0  3  0  0  0  0  0  0
  186.2740  177.9590  143.7800 C   0  0  0  0  0  0  0  0  0  0  0  0
  186.9060  177.7340  142.6590 N   0  0  0  0  0  0  0  0  0  0  0  0
  186.1510  177.8530  146.2270 C   0  0  0  0  0  3  0  0  0  0  0  0
  184.3620  178.9450  142.6380 C   0  0  0  0  0  0  0  0  0  0  0  0
  186.8330  177.6040  145.1040 C   0  0  0  0  0  3  0  0  0  0  0  0
  183.8010  179.2870  141.5080 C   0  0  0  0  0  3  0  0  0  0  0  0
  188.8910  177.4770  141.2770 C   0  0  0  0  0  3  0  0  0  0  0  0
  190.0350  175.6900  143.0560 C   0  0  0  0  0  3  0  0  0  0  0  0
  188.7780  176.2280  143.3350 C   0  0  0  0  0  3  0  0  0  0  0  0
  188.1940  177.1340  142.4390 C   0  0  0  0  0  0  0  0  0  0  0  0
  190.1430  176.9070  141.0190 C   0  0  0  0  0  0  0  0  0  0  0  0
  190.6890  176.0410  141.9180 N   0  0  0  0  0  0  0  0  0  0  0  0
  189.9540  177.5880  138.6500 C   0  0  0  0  0  2  0  0  0  0  0  0
  190.7080  176.2800  138.6910 C   0  0  0  0  0  2  0  0  0  0  0  0
  190.9090  177.3040  139.7960 C   0  0  0  0  0  3  0  0  0  0  0  0
  184.4740  179.0370  140.1900 C   0  0  0  0  0  0  0  0  0  0  0  0
  184.1950  180.0880  139.3120 O   0  0  0  0  0  1  0  0  0  0  0  0
  185.8550  178.9650  140.3950 O   0  0  0  0  0  1  0  0  0  0  0  0
  184.3850  177.5650  138.1080 C   0  0  0  0  0  2  0  0  0  0  0  0
  183.9760  177.7130  139.5920 C   0  0  2  0  0  3  0  0  0  0  0  0
  183.3720  176.8080  137.2360 C   0  0  0  0  0  2  0  0  0  0  0  0
  181.3070  175.3990  139.8060 O   0  0  0  0  0  0  0  0  0  0  0  0
  182.0990  176.1810  139.2200 C   0  0  0  0  0  0  0  0  0  0  0  0
  182.4780  177.4830  139.8390 C   0  0  0  0  0  2  0  0  0  0  0  0
  182.6500  175.8370  137.9870 O   0  0  0  0  0  0  0  0  0  0  0  0
  1  4  1  0  0  0  0
  1  3  1  0  0  0  0
  2  6  1  0  0  0  0
  3  2  2  0  0  0  0
  4  8  1  0  0  0  0
  5  4  2  0  0  0  0
  7  1  2  0  0  0  0
  8  6  2  0  0  0  0
  9  7  2  0  0  0  0
 10 13  1  0  0  0  0
 11 12  1  0  0  0  0
 13  5  1  0  0  0  0
 13 12  2  0  0  0  0
 14 10  2  0  0  0  0
 14 15  1  0  0  0  0
 15 11  2  0  0  0  0
 16 17  1  0  0  0  0
 16 18  1  0  0  0  0
 17 18  1  0  0  0  0
 18 14  1  0  0  0  0
 19 21  1  0  0  0  0
 19  9  1  0  0  0  0
 20 19  1  0  0  0  0
 22 23  1  0  0  0  0
 23 27  1  0  0  0  0
 23 19  1  6  0  0  0
 24 28  1  0  0  0  0
 24 22  1  0  0  0  0
 26 25  2  0  0  0  0
 26 27  1  0  0  0  0
 28 26  1  0  0  0  0
M  END
>  <MODEL>
9

>  <REMARK>
 VINA RESULT:      -9.0      3.414      5.696
  Name = 
  4 active torsions:
  status: ('A' for Active; 'I' for Inactive)
    1  A    between atoms: C_8  and  C_11
    2  A    between atoms: C_8  and  C_28
    3  A    between atoms: C_13  and  N_16
    4  A    between atoms: C_21  and  C_22
                            x       y       z     vdW  Elec       q    Type
                         _______ _______ _______ _____ _____    ______ ____

>  <TORSDO>
F 4

$$$$
