=
 OpenBabel10222416403D

 30 34  0  0  1  0  0  0  0  0999 V2000
  184.4380  172.5960  135.9480 C   0  0  2  0  0  3  0  0  0  0  0  0
  185.9400  172.7700  136.1360 C   0  0  0  0  0  2  0  0  0  0  0  0
  182.8220  174.4440  136.2120 C   0  0  2  0  0  3  0  0  0  0  0  0
  188.1420  177.9250  137.9480 C   0  0  1  0  0  3  0  0  0  0  0  0
  184.8530  177.3830  137.4850 N   0  0  0  0  0  0  0  0  0  0  0  0
  182.5920  179.0860  137.5650 C   0  0  1  0  0  3  0  0  0  0  0  0
  181.8030  175.1660  135.3280 C   0  0  0  0  0  2  0  0  0  0  0  0
  183.4580  175.3890  137.1930 C   0  0  0  0  0  0  0  0  0  0  0  0
  183.6750  176.8260  136.8100 C   0  0  1  0  0  3  0  0  0  0  0  0
  187.2360  176.7310  137.7030 C   0  0  1  0  0  3  0  0  0  0  0  0
  183.8330  173.8080  135.3640 N   0  0  0  0  0  2  0  0  0  0  0  0
  186.1550  177.2920  136.8050 C   0  0  2  0  0  3  0  0  0  0  0  0
  183.5360  179.1440  138.7520 C   0  0  2  0  0  3  0  0  0  0  0  0
  182.4210  177.6640  137.0390 C   0  0  0  0  0  0  0  0  0  0  0  0
  187.5010  179.0930  137.5060 O   0  0  0  0  0  0  0  0  0  0  0  0
  184.6640  178.1590  138.6800 C   0  0  0  0  0  0  0  0  0  0  0  0
  181.2970  179.3330  139.6010 N   0  0  0  0  0  2  0  0  0  0  0  0
  183.6780  175.0160  138.3340 O   0  0  0  0  0  0  0  0  0  0  0  0
  186.2580  173.9830  136.9900 C   0  0  0  0  0  2  0  0  0  0  0  0
  187.6260  174.4690  136.6680 C   0  0  0  0  0  3  0  0  0  0  0  0
  180.7630  175.8720  136.1900 C   0  0  0  0  0  2  0  0  0  0  0  0
  186.6660  178.6740  136.4610 C   0  0  0  0  0  2  0  0  0  0  0  0
  188.0550  175.6930  136.9860 C   0  0  0  0  0  3  0  0  0  0  0  0
  182.6530  178.9290  139.9610 C   0  0  0  0  0  2  0  0  0  0  0  0
  183.7580  172.0210  137.1930 C   0  0  0  0  0  1  0  0  0  0  0  0
  181.3050  179.6350  138.1690 C   0  0  0  0  0  2  0  0  0  0  0  0
  185.4630  178.0500  139.6480 O   0  0  0  0  0  0  0  0  0  0  0  0
  181.1870  177.2460  136.6560 C   0  0  0  0  0  3  0  0  0  0  0  0
  188.7750  178.1100  140.5360 C   0  0  0  0  0  3  0  0  0  0  0  0
  188.4850  178.0350  139.3690 C   0  0  0  0  0  0  0  0  0  0  0  0
  1  2  1  0  0  0  0
  1 25  1  1  0  0  0
  2 19  1  0  0  0  0
  3  7  1  6  0  0  0
  3  8  1  0  0  0  0
  4 30  1  1  0  0  0
  5 16  1  0  0  0  0
  6 26  1  1  0  0  0
  6 13  1  0  0  0  0
  7 21  1  0  0  0  0
  8 18  2  0  0  0  0
  9 14  1  1  0  0  0
  9  8  1  0  0  0  0
  9  5  1  0  0  0  0
 10 23  1  6  0  0  0
 10  4  1  0  0  0  0
 11  1  1  0  0  0  0
 11  3  1  0  0  0  0
 12 22  1  1  0  0  0
 12  5  1  0  0  0  0
 12 10  1  0  0  0  0
 13 24  1  1  0  0  0
 14  6  1  0  0  0  0
 15  4  1  0  0  0  0
 16 13  1  0  0  0  0
 16 27  2  0  0  0  0
 17 24  1  0  0  0  0
 20 23  2  0  0  0  0
 20 19  1  0  0  0  0
 21 28  1  0  0  0  0
 22 15  1  0  0  0  0
 26 17  1  0  0  0  0
 28 14  2  0  0  0  0
 30 29  3  0  0  0  0
M  END
>  <MODEL>
1

>  <REMARK>
 VINA RESULT:      -5.2      0.000      0.000
  Name = 
  1 active torsions:
  status: ('A' for Active; 'I' for Inactive)
    1  A    between atoms: C_4  and  C_30
                            x       y       z     vdW  Elec       q    Type
                         _______ _______ _______ _____ _____    ______ ____

>  <TORSDO>
F 1

$$$$
=
 OpenBabel10222416403D

 30 34  0  0  1  0  0  0  0  0999 V2000
  190.6130  177.6610  142.6130 C   0  0  2  0  0  3  0  0  0  0  0  0
  189.1620  178.1270  142.6260 C   0  0  0  0  0  2  0  0  0  0  0  0
  191.8090  177.0300  140.5480 C   0  0  2  0  0  3  0  0  0  0  0  0
  185.9850  178.1250  137.6650 C   0  0  1  0  0  3  0  0  0  0  0  0
  189.1970  177.1280  137.8000 N   0  0  0  0  0  0  0  0  0  0  0  0
  191.0660  176.3800  135.8090 C   0  0  1  0  0  3  0  0  0  0  0  0
  193.0420  177.5170  139.7830 C   0  0  0  0  0  2  0  0  0  0  0  0
  190.7440  176.5390  139.6070 C   0  0  0  0  0  0  0  0  0  0  0  0
  190.5900  177.1780  138.2560 C   0  0  1  0  0  3  0  0  0  0  0  0
  187.0050  177.8070  138.7440 C   0  0  1  0  0  3  0  0  0  0  0  0
  191.3040  178.1150  141.3920 N   0  0  0  0  0  2  0  0  0  0  0  0
  188.3130  178.2570  138.1300 C   0  0  2  0  0  3  0  0  0  0  0  0
  189.7090  175.7010  135.7650 C   0  0  2  0  0  3  0  0  0  0  0  0
  191.5590  176.5820  137.2390 C   0  0  0  0  0  0  0  0  0  0  0  0
  186.6540  178.4300  136.4680 O   0  0  0  0  0  0  0  0  0  0  0  0
  188.8010  176.0830  136.8960 C   0  0  0  0  0  0  0  0  0  0  0  0
  191.3590  174.0520  135.1960 N   0  0  0  0  0  2  0  0  0  0  0  0
  190.0970  175.5460  139.8950 O   0  0  0  0  0  0  0  0  0  0  0  0
  188.4150  177.6590  141.3900 C   0  0  0  0  0  2  0  0  0  0  0  0
  187.2740  178.5760  141.1260 C   0  0  0  0  0  3  0  0  0  0  0  0
  193.5610  176.4180  138.8640 C   0  0  0  0  0  2  0  0  0  0  0  0
  187.8820  178.9740  136.8690 C   0  0  0  0  0  2  0  0  0  0  0  0
  186.6520  178.6390  139.9460 C   0  0  0  0  0  3  0  0  0  0  0  0
  190.0160  174.2200  135.7430 C   0  0  0  0  0  2  0  0  0  0  0  0
  190.7510  176.1790  142.9690 C   0  0  0  0  0  1  0  0  0  0  0  0
  191.9290  175.3910  135.0360 C   0  0  0  0  0  2  0  0  0  0  0  0
  187.6810  175.5190  137.0180 O   0  0  0  0  0  0  0  0  0  0  0  0
  192.8690  176.3660  137.5220 C   0  0  0  0  0  3  0  0  0  0  0  0
  184.3020  176.0830  137.3030 C   0  0  0  0  0  3  0  0  0  0  0  0
  185.0690  176.9980  137.4660 C   0  0  0  0  0  0  0  0  0  0  0  0
  1  2  1  0  0  0  0
  1 25  1  6  0  0  0
  3  7  1  6  0  0  0
  3 11  1  0  0  0  0
  4 30  1  6  0  0  0
  4 10  1  0  0  0  0
  5 12  1  0  0  0  0
  5  9  1  0  0  0  0
  6 26  1  6  0  0  0
  6 14  1  0  0  0  0
  8 18  2  0  0  0  0
  8  3  1  0  0  0  0
  9 14  1  6  0  0  0
  9  8  1  0  0  0  0
 10 23  1  1  0  0  0
 11  1  1  0  0  0  0
 12 22  1  6  0  0  0
 12 10  1  0  0  0  0
 13 24  1  1  0  0  0
 13  6  1  0  0  0  0
 13 16  1  0  0  0  0
 14 28  2  0  0  0  0
 15 22  1  0  0  0  0
 15  4  1  0  0  0  0
 16 27  2  0  0  0  0
 16  5  1  0  0  0  0
 17 24  1  0  0  0  0
 19  2  1  0  0  0  0
 20 19  1  0  0  0  0
 21  7  1  0  0  0  0
 23 20  2  0  0  0  0
 26 17  1  0  0  0  0
 28 21  1  0  0  0  0
 29 30  3  0  0  0  0
M  END
>  <MODEL>
2

>  <REMARK>
 VINA RESULT:      -5.2      3.491      8.073
  Name = 
  1 active torsions:
  status: ('A' for Active; 'I' for Inactive)
    1  A    between atoms: C_4  and  C_30
                            x       y       z     vdW  Elec       q    Type
                         _______ _______ _______ _____ _____    ______ ____

>  <TORSDO>
F 1

$$$$
=
 OpenBabel10222416403D

 30 34  0  0  1  0  0  0  0  0999 V2000
  186.3040  174.1860  135.2930 C   0  0  2  0  0  3  0  0  0  0  0  0
  187.0710  175.3630  135.8810 C   0  0  0  0  0  2  0  0  0  0  0  0
  183.8770  173.8630  135.6090 C   0  0  2  0  0  3  0  0  0  0  0  0
  184.3620  179.2240  139.4110 C   0  0  1  0  0  3  0  0  0  0  0  0
  182.8080  176.5740  138.0360 N   0  0  0  0  0  0  0  0  0  0  0  0
  180.1020  175.7430  137.9850 C   0  0  1  0  0  3  0  0  0  0  0  0
  182.6390  173.7820  134.7130 C   0  0  0  0  0  2  0  0  0  0  0  0
  183.5570  174.5240  136.9210 C   0  0  0  0  0  0  0  0  0  0  0  0
  182.5130  175.6040  136.9760 C   0  0  1  0  0  3  0  0  0  0  0  0
  184.7640  177.9670  138.6600 C   0  0  1  0  0  3  0  0  0  0  0  0
  184.9390  174.5840  134.9030 N   0  0  0  0  0  2  0  0  0  0  0  0
  183.6170  177.7550  137.6960 C   0  0  2  0  0  3  0  0  0  0  0  0
  180.6880  176.0860  139.3430 C   0  0  2  0  0  3  0  0  0  0  0  0
  181.1080  175.0210  137.0940 C   0  0  0  0  0  0  0  0  0  0  0  0
  183.0190  179.5220  139.1340 O   0  0  0  0  0  0  0  0  0  0  0  0
  182.1450  176.4380  139.3040 C   0  0  0  0  0  0  0  0  0  0  0  0
  179.2520  174.1840  139.6370 N   0  0  0  0  0  2  0  0  0  0  0  0
  184.0530  174.0950  137.9490 O   0  0  0  0  0  0  0  0  0  0  0  0
  186.3400  175.9710  137.0630 C   0  0  0  0  0  2  0  0  0  0  0  0
  186.7470  177.3930  137.2190 C   0  0  0  0  0  3  0  0  0  0  0  0
  181.5050  173.0730  135.4430 C   0  0  0  0  0  2  0  0  0  0  0  0
  182.7950  179.0170  137.8450 C   0  0  0  0  0  2  0  0  0  0  0  0
  186.0410  178.2770  137.9290 C   0  0  0  0  0  3  0  0  0  0  0  0
  180.4060  174.8760  140.2050 C   0  0  0  0  0  2  0  0  0  0  0  0
  186.4320  172.9220  136.1490 C   0  0  0  0  0  1  0  0  0  0  0  0
  178.9310  174.8490  138.3740 C   0  0  0  0  0  2  0  0  0  0  0  0
  182.7660  176.6550  140.3790 O   0  0  0  0  0  0  0  0  0  0  0  0
  180.6850  173.9830  136.3290 C   0  0  0  0  0  3  0  0  0  0  0  0
  184.7430  178.9130  142.0360 C   0  0  0  0  0  3  0  0  0  0  0  0
  184.5620  179.0550  140.8540 C   0  0  0  0  0  0  0  0  0  0  0  0
  1  2  1  0  0  0  0
  1 25  1  1  0  0  0
  2 19  1  0  0  0  0
  3  7  1  6  0  0  0
  3  8  1  0  0  0  0
  4 30  1  1  0  0  0
  5 16  1  0  0  0  0
  6 26  1  1  0  0  0
  6 13  1  0  0  0  0
  7 21  1  0  0  0  0
  8 18  2  0  0  0  0
  9  8  1  1  0  0  0
  9 14  1  0  0  0  0
  9  5  1  0  0  0  0
 10 23  1  6  0  0  0
 10  4  1  0  0  0  0
 11  1  1  0  0  0  0
 11  3  1  0  0  0  0
 12 22  1  1  0  0  0
 12  5  1  0  0  0  0
 12 10  1  0  0  0  0
 13 24  1  1  0  0  0
 14  6  1  0  0  0  0
 15  4  1  0  0  0  0
 16 13  1  0  0  0  0
 16 27  2  0  0  0  0
 17 24  1  0  0  0  0
 19 20  1  0  0  0  0
 20 23  2  0  0  0  0
 21 28  1  0  0  0  0
 22 15  1  0  0  0  0
 26 17  1  0  0  0  0
 28 14  2  0  0  0  0
 30 29  3  0  0  0  0
M  END
>  <MODEL>
3

>  <REMARK>
 VINA RESULT:      -5.2      2.176      3.375
  Name = 
  1 active torsions:
  status: ('A' for Active; 'I' for Inactive)
    1  A    between atoms: C_4  and  C_30
                            x       y       z     vdW  Elec       q    Type
                         _______ _______ _______ _____ _____    ______ ____

>  <TORSDO>
F 1

$$$$
=
 OpenBabel10222416403D

 30 34  0  0  1  0  0  0  0  0999 V2000
  183.5690  179.0120  144.3150 C   0  0  2  0  0  3  0  0  0  0  0  0
  184.5480  178.6850  145.4350 C   0  0  0  0  0  2  0  0  0  0  0  0
  184.1010  178.7050  141.9240 C   0  0  2  0  0  3  0  0  0  0  0  0
  190.0400  176.9580  144.1840 C   0  0  1  0  0  3  0  0  0  0  0  0
  187.7600  177.7140  141.8260 N   0  0  0  0  0  0  0  0  0  0  0  0
  187.7670  177.4990  139.0030 C   0  0  1  0  0  3  0  0  0  0  0  0
  183.5530  177.8780  140.7590 C   0  0  0  0  0  2  0  0  0  0  0  0
  185.5930  178.8590  141.8280 C   0  0  0  0  0  0  0  0  0  0  0  0
  186.4200  177.7540  141.2320 C   0  0  1  0  0  3  0  0  0  0  0  0
  188.6670  177.6040  144.1330 C   0  0  1  0  0  3  0  0  0  0  0  0
  183.7190  178.0720  143.1890 N   0  0  0  0  0  2  0  0  0  0  0  0
  187.9750  176.8640  143.0080 C   0  0  2  0  0  3  0  0  0  0  0  0
  188.9560  178.1950  139.6400 C   0  0  2  0  0  3  0  0  0  0  0  0
  186.4580  177.8400  139.7090 C   0  0  0  0  0  0  0  0  0  0  0  0
  190.2240  176.1660  143.0390 O   0  0  0  0  0  0  0  0  0  0  0  0
  188.8460  178.3460  141.1280 C   0  0  0  0  0  0  0  0  0  0  0  0
  188.4280  179.3780  137.6180 N   0  0  0  0  0  2  0  0  0  0  0  0
  186.1090  179.9260  142.1160 O   0  0  0  0  0  0  0  0  0  0  0  0
  185.9820  178.6810  144.9380 C   0  0  0  0  0  2  0  0  0  0  0  0
  186.8080  177.8120  145.8190 C   0  0  0  0  0  3  0  0  0  0  0  0
  183.9740  178.4940  139.4310 C   0  0  0  0  0  2  0  0  0  0  0  0
  188.9360  175.7420  142.6820 C   0  0  0  0  0  2  0  0  0  0  0  0
  188.0000  177.3340  145.4540 C   0  0  0  0  0  3  0  0  0  0  0  0
  189.0550  179.5260  138.9280 C   0  0  0  0  0  2  0  0  0  0  0  0
  183.5570  180.5030  143.9690 C   0  0  0  0  0  1  0  0  0  0  0  0
  187.8150  178.0490  137.5820 C   0  0  0  0  0  2  0  0  0  0  0  0
  189.7290  178.9850  141.7600 O   0  0  0  0  0  0  0  0  0  0  0  0
  185.3460  178.0630  138.9650 C   0  0  0  0  0  3  0  0  0  0  0  0
  191.9460  178.8220  144.3430 C   0  0  0  0  0  3  0  0  0  0  0  0
  191.0910  177.9750  144.2770 C   0  0  0  0  0  0  0  0  0  0  0  0
  1 25  1  6  0  0  0
  1  2  1  0  0  0  0
  3  7  1  6  0  0  0
  3 11  1  0  0  0  0
  4 30  1  6  0  0  0
  5 12  1  0  0  0  0
  6 26  1  6  0  0  0
  6 13  1  0  0  0  0
  6 14  1  0  0  0  0
  8  3  1  0  0  0  0
  8 18  2  0  0  0  0
  9 14  1  6  0  0  0
  9  5  1  0  0  0  0
  9  8  1  0  0  0  0
 10  4  1  0  0  0  0
 10 23  1  1  0  0  0
 11  1  1  0  0  0  0
 12 22  1  6  0  0  0
 12 10  1  0  0  0  0
 13 24  1  6  0  0  0
 13 16  1  0  0  0  0
 15  4  1  0  0  0  0
 16 27  2  0  0  0  0
 16  5  1  0  0  0  0
 17 24  1  0  0  0  0
 19  2  1  0  0  0  0
 19 20  1  0  0  0  0
 21  7  1  0  0  0  0
 22 15  1  0  0  0  0
 23 20  2  0  0  0  0
 26 17  1  0  0  0  0
 28 21  1  0  0  0  0
 28 14  2  0  0  0  0
 30 29  3  0  0  0  0
M  END
>  <MODEL>
4

>  <REMARK>
 VINA RESULT:      -5.0      4.046      7.139
  Name = 
  1 active torsions:
  status: ('A' for Active; 'I' for Inactive)
    1  A    between atoms: C_4  and  C_30
                            x       y       z     vdW  Elec       q    Type
                         _______ _______ _______ _____ _____    ______ ____

>  <TORSDO>
F 1

$$$$
=
 OpenBabel10222416403D

 30 34  0  0  1  0  0  0  0  0999 V2000
  187.8390  178.0910  143.5960 C   0  0  2  0  0  3  0  0  0  0  0  0
  186.5620  178.3910  142.8210 C   0  0  0  0  0  2  0  0  0  0  0  0
  190.0020  177.6220  142.5040 C   0  0  2  0  0  3  0  0  0  0  0  0
  186.5050  178.0910  136.9380 C   0  0  1  0  0  3  0  0  0  0  0  0
  189.2410  177.4590  138.7920 N   0  0  0  0  0  0  0  0  0  0  0  0
  191.9440  176.9480  138.1220 C   0  0  1  0  0  3  0  0  0  0  0  0
  191.3960  178.2530  142.4790 C   0  0  0  0  0  2  0  0  0  0  0  0
  189.6510  177.0250  141.1690 C   0  0  0  0  0  0  0  0  0  0  0  0
  190.1700  177.6600  139.9090 C   0  0  1  0  0  3  0  0  0  0  0  0
  186.8270  177.8770  138.4060 C   0  0  1  0  0  3  0  0  0  0  0  0
  189.0210  178.6340  142.9020 N   0  0  0  0  0  2  0  0  0  0  0  0
  188.2080  178.4780  138.5510 C   0  0  2  0  0  3  0  0  0  0  0  0
  190.8930  176.1210  137.4040 C   0  0  2  0  0  3  0  0  0  0  0  0
  191.5840  177.1870  139.5850 C   0  0  0  0  0  0  0  0  0  0  0  0
  187.6700  178.4830  136.2590 O   0  0  0  0  0  0  0  0  0  0  0  0
  189.4920  176.3870  137.8670 C   0  0  0  0  0  0  0  0  0  0  0  0
  192.7520  174.6740  137.8700 N   0  0  0  0  0  2  0  0  0  0  0  0
  189.0540  175.9630  141.1220 O   0  0  0  0  0  0  0  0  0  0  0  0
  186.6320  177.8580  141.4020 C   0  0  0  0  0  2  0  0  0  0  0  0
  185.7170  178.6440  140.5330 C   0  0  0  0  0  3  0  0  0  0  0  0
  192.4310  177.2290  142.0270 C   0  0  0  0  0  2  0  0  0  0  0  0
  188.4380  179.1570  137.2180 C   0  0  0  0  0  2  0  0  0  0  0  0
  185.8100  178.6500  139.2000 C   0  0  0  0  0  3  0  0  0  0  0  0
  191.3130  174.6850  137.6200 C   0  0  0  0  0  2  0  0  0  0  0  0
  187.9170  176.6300  144.0450 C   0  0  0  0  0  1  0  0  0  0  0  0
  193.1810  176.0700  137.9690 C   0  0  0  0  0  2  0  0  0  0  0  0
  188.5400  175.7000  137.4100 O   0  0  0  0  0  0  0  0  0  0  0  0
  192.5610  177.1160  140.5250 C   0  0  0  0  0  3  0  0  0  0  0  0
  185.4800  175.8760  135.8530 C   0  0  0  0  0  3  0  0  0  0  0  0
  185.9510  176.8710  136.3430 C   0  0  0  0  0  0  0  0  0  0  0  0
  1 25  1  6  0  0  0
  2  1  1  0  0  0  0
  3  7  1  6  0  0  0
  3 11  1  0  0  0  0
  4 30  1  6  0  0  0
  4 10  1  0  0  0  0
  5  9  1  0  0  0  0
  6 26  1  1  0  0  0
  6 14  1  0  0  0  0
  8  3  1  0  0  0  0
  9 14  1  6  0  0  0
  9  8  1  0  0  0  0
 10 12  1  0  0  0  0
 10 23  1  1  0  0  0
 11  1  1  0  0  0  0
 12 22  1  6  0  0  0
 12  5  1  0  0  0  0
 13 24  1  1  0  0  0
 13 16  1  0  0  0  0
 13  6  1  0  0  0  0
 14 28  2  0  0  0  0
 15  4  1  0  0  0  0
 15 22  1  0  0  0  0
 16  5  1  0  0  0  0
 17 26  1  0  0  0  0
 18  8  2  0  0  0  0
 19  2  1  0  0  0  0
 20 19  1  0  0  0  0
 21  7  1  0  0  0  0
 23 20  2  0  0  0  0
 24 17  1  0  0  0  0
 27 16  2  0  0  0  0
 28 21  1  0  0  0  0
 29 30  3  0  0  0  0
M  END
>  <MODEL>
5

>  <REMARK>
 VINA RESULT:      -4.9      3.628      8.114
  Name = 
  1 active torsions:
  status: ('A' for Active; 'I' for Inactive)
    1  A    between atoms: C_4  and  C_30
                            x       y       z     vdW  Elec       q    Type
                         _______ _______ _______ _____ _____    ______ ____

>  <TORSDO>
F 1

$$$$
=
 OpenBabel10222416403D

 30 34  0  0  1  0  0  0  0  0999 V2000
  186.2510  177.0220  136.5330 C   0  0  2  0  0  3  0  0  0  0  0  0
  186.1640  178.1980  137.4970 C   0  0  0  0  0  2  0  0  0  0  0  0
  184.2980  175.6540  135.8940 C   0  0  2  0  0  3  0  0  0  0  0  0
  181.0940  179.4560  140.2180 C   0  0  1  0  0  3  0  0  0  0  0  0
  181.4460  176.8950  138.0640 N   0  0  0  0  0  0  0  0  0  0  0  0
  179.6040  175.0720  136.9240 C   0  0  1  0  0  3  0  0  0  0  0  0
  183.5470  175.3210  134.6040 C   0  0  0  0  0  2  0  0  0  0  0  0
  183.3590  175.7330  137.0660 C   0  0  0  0  0  0  0  0  0  0  0  0
  181.9530  176.2250  136.8620 C   0  0  1  0  0  3  0  0  0  0  0  0
  182.2370  178.7390  139.5240 C   0  0  1  0  0  3  0  0  0  0  0  0
  185.0270  176.9120  135.7190 N   0  0  0  0  0  2  0  0  0  0  0  0
  181.6430  178.3490  138.1880 C   0  0  2  0  0  3  0  0  0  0  0  0
  179.5610  175.2360  138.4320 C   0  0  2  0  0  3  0  0  0  0  0  0
  181.0310  175.1070  136.3840 C   0  0  0  0  0  0  0  0  0  0  0  0
  179.9050  179.2370  139.5050 O   0  0  0  0  0  0  0  0  0  0  0  0
  180.6170  176.1530  138.9740 C   0  0  0  0  0  0  0  0  0  0  0  0
  179.2020  172.9110  137.9500 N   0  0  0  0  0  2  0  0  0  0  0  0
  183.7020  175.2810  138.1450 O   0  0  0  0  0  0  0  0  0  0  0  0
  184.9430  178.0980  138.3910 C   0  0  0  0  0  2  0  0  0  0  0  0
  184.5550  179.4570  138.8540 C   0  0  0  0  0  3  0  0  0  0  0  0
  182.7470  174.0350  134.7750 C   0  0  0  0  0  2  0  0  0  0  0  0
  180.3090  179.0630  138.1740 C   0  0  0  0  0  2  0  0  0  0  0  0
  183.3490  179.7370  139.3550 C   0  0  0  0  0  3  0  0  0  0  0  0
  179.6770  173.8310  138.9800 C   0  0  0  0  0  2  0  0  0  0  0  0
  186.7360  175.7420  137.2180 C   0  0  0  0  0  1  0  0  0  0  0  0
  178.9540  173.7050  136.7450 C   0  0  0  0  0  2  0  0  0  0  0  0
  180.7400  176.3010  140.2190 O   0  0  0  0  0  0  0  0  0  0  0  0
  181.3850  174.2420  135.4000 C   0  0  0  0  0  3  0  0  0  0  0  0
  180.8450  178.6280  142.7450 C   0  0  0  0  0  3  0  0  0  0  0  0
  180.9520  178.9940  141.6030 C   0  0  0  0  0  0  0  0  0  0  0  0
  1 25  1  1  0  0  0
  1  2  1  0  0  0  0
  2 19  1  0  0  0  0
  3  7  1  6  0  0  0
  3  8  1  0  0  0  0
  4 30  1  1  0  0  0
  5 12  1  0  0  0  0
  5 16  1  0  0  0  0
  6 26  1  1  0  0  0
  6 13  1  0  0  0  0
  7 21  1  0  0  0  0
  8 18  2  0  0  0  0
  9 14  1  1  0  0  0
  9  8  1  0  0  0  0
  9  5  1  0  0  0  0
 10 23  1  6  0  0  0
 10  4  1  0  0  0  0
 11  3  1  0  0  0  0
 11  1  1  0  0  0  0
 12 22  1  1  0  0  0
 12 10  1  0  0  0  0
 13 16  1  0  0  0  0
 13 24  1  1  0  0  0
 14  6  1  0  0  0  0
 15  4  1  0  0  0  0
 16 27  2  0  0  0  0
 17 24  1  0  0  0  0
 19 20  1  0  0  0  0
 20 23  2  0  0  0  0
 21 28  1  0  0  0  0
 22 15  1  0  0  0  0
 26 17  1  0  0  0  0
 28 14  2  0  0  0  0
 30 29  3  0  0  0  0
M  END
>  <MODEL>
6

>  <REMARK>
 VINA RESULT:      -4.9      2.341      5.237
  Name = 
  1 active torsions:
  status: ('A' for Active; 'I' for Inactive)
    1  A    between atoms: C_4  and  C_30
                            x       y       z     vdW  Elec       q    Type
                         _______ _______ _______ _____ _____    ______ ____

>  <TORSDO>
F 1

$$$$
=
 OpenBabel10222416403D

 30 34  0  0  1  0  0  0  0  0999 V2000
  188.1760  178.2030  140.7810 C   0  0  2  0  0  3  0  0  0  0  0  0
  188.2280  177.6200  139.3750 C   0  0  0  0  0  2  0  0  0  0  0  0
  186.0690  178.5650  142.0150 C   0  0  2  0  0  3  0  0  0  0  0  0
  183.2530  176.4650  136.4390 C   0  0  1  0  0  3  0  0  0  0  0  0
  183.3050  177.7530  139.5480 N   0  0  0  0  0  0  0  0  0  0  0  0
  181.2700  178.3020  141.4380 C   0  0  1  0  0  3  0  0  0  0  0  0
  185.4410  178.0630  143.3170 C   0  0  0  0  0  2  0  0  0  0  0  0
  185.0240  178.7860  140.9570 C   0  0  0  0  0  0  0  0  0  0  0  0
  183.8050  177.9080  140.9190 C   0  0  1  0  0  3  0  0  0  0  0  0
  184.2880  177.0580  137.3790 C   0  0  1  0  0  3  0  0  0  0  0  0
  187.0780  177.6050  141.5630 N   0  0  0  0  0  2  0  0  0  0  0  0
  183.8060  176.6250  138.7460 C   0  0  2  0  0  3  0  0  0  0  0  0
  181.0640  178.8390  140.0340 C   0  0  2  0  0  3  0  0  0  0  0  0
  182.7270  178.4000  141.8800 C   0  0  0  0  0  0  0  0  0  0  0  0
  182.1520  176.0150  137.1840 O   0  0  0  0  0  0  0  0  0  0  0  0
  182.2170  178.5820  139.1100 C   0  0  0  0  0  0  0  0  0  0  0  0
  180.2580  180.5030  141.5670 N   0  0  0  0  0  2  0  0  0  0  0  0
  185.1090  179.7530  140.2190 O   0  0  0  0  0  0  0  0  0  0  0  0
  186.9070  177.7940  138.6500 C   0  0  0  0  0  2  0  0  0  0  0  0
  186.7770  176.7470  137.6010 C   0  0  0  0  0  3  0  0  0  0  0  0
  184.3570  179.0250  143.7860 C   0  0  0  0  0  2  0  0  0  0  0  0
  182.6810  175.6620  138.4330 C   0  0  0  0  0  2  0  0  0  0  0  0
  185.6090  176.4230  137.0410 C   0  0  0  0  0  3  0  0  0  0  0  0
  180.7860  180.3140  140.2180 C   0  0  0  0  0  2  0  0  0  0  0  0
  188.2650  179.7310  140.7810 C   0  0  0  0  0  1  0  0  0  0  0  0
  180.3590  179.2130  142.2520 C   0  0  0  0  0  2  0  0  0  0  0  0
  182.2020  179.0570  137.9430 O   0  0  0  0  0  0  0  0  0  0  0  0
  183.0060  178.7780  143.1540 C   0  0  0  0  0  3  0  0  0  0  0  0
  182.4700  178.2530  134.6160 C   0  0  0  0  0  3  0  0  0  0  0  0
  182.8280  177.4540  135.4430 C   0  0  0  0  0  0  0  0  0  0  0  0
  1 25  1  6  0  0  0
  1 11  1  0  0  0  0
  2  1  1  0  0  0  0
  3  7  1  1  0  0  0
  4 30  1  6  0  0  0
  4 15  1  0  0  0  0
  4 10  1  0  0  0  0
  5  9  1  0  0  0  0
  6 14  1  0  0  0  0
  6 26  1  1  0  0  0
  7 21  1  0  0  0  0
  8  3  1  0  0  0  0
  9  8  1  6  0  0  0
  9 14  1  0  0  0  0
 10 23  1  6  0  0  0
 10 12  1  0  0  0  0
 11  3  1  0  0  0  0
 12 22  1  6  0  0  0
 12  5  1  0  0  0  0
 13 24  1  1  0  0  0
 13  6  1  0  0  0  0
 14 28  2  0  0  0  0
 15 22  1  0  0  0  0
 16  5  1  0  0  0  0
 16 13  1  0  0  0  0
 17 26  1  0  0  0  0
 18  8  2  0  0  0  0
 19  2  1  0  0  0  0
 20 19  1  0  0  0  0
 23 20  2  0  0  0  0
 24 17  1  0  0  0  0
 27 16  2  0  0  0  0
 28 21  1  0  0  0  0
 29 30  3  0  0  0  0
M  END
>  <MODEL>
7

>  <REMARK>
 VINA RESULT:      -4.8      2.428      5.737
  Name = 
  1 active torsions:
  status: ('A' for Active; 'I' for Inactive)
    1  A    between atoms: C_4  and  C_30
                            x       y       z     vdW  Elec       q    Type
                         _______ _______ _______ _____ _____    ______ ____

>  <TORSDO>
F 1

$$$$
=
 OpenBabel10222416403D

 30 34  0  0  1  0  0  0  0  0999 V2000
  187.9260  172.9910  136.3250 C   0  0  2  0  0  3  0  0  0  0  0  0
  188.0330  174.4740  136.6590 C   0  0  0  0  0  2  0  0  0  0  0  0
  185.7880  171.8800  135.7880 C   0  0  2  0  0  3  0  0  0  0  0  0
  183.1830  177.7880  137.1070 C   0  0  1  0  0  3  0  0  0  0  0  0
  183.1140  174.5030  136.3770 N   0  0  0  0  0  0  0  0  0  0  0  0
  181.0280  172.7440  135.6200 C   0  0  1  0  0  3  0  0  0  0  0  0
  185.1920  171.1320  134.5940 C   0  0  0  0  0  2  0  0  0  0  0  0
  184.7370  172.6720  136.5140 C   0  0  0  0  0  0  0  0  0  0  0  0
  183.5900  173.2670  135.7470 C   0  0  1  0  0  3  0  0  0  0  0  0
  184.1630  176.6280  137.1130 C   0  0  1  0  0  3  0  0  0  0  0  0
  186.8720  172.7480  135.3230 N   0  0  0  0  0  2  0  0  0  0  0  0
  183.7050  175.7800  135.9460 C   0  0  2  0  0  3  0  0  0  0  0  0
  180.7910  173.5970  136.8530 C   0  0  2  0  0  3  0  0  0  0  0  0
  182.4700  172.2520  135.5330 C   0  0  0  0  0  0  0  0  0  0  0  0
  182.1150  177.4900  136.2460 O   0  0  0  0  0  0  0  0  0  0  0  0
  181.9670  174.4420  137.2420 C   0  0  0  0  0  0  0  0  0  0  0  0
  179.8490  171.4300  137.2840 N   0  0  0  0  0  2  0  0  0  0  0  0
  184.7520  172.7200  137.7330 O   0  0  0  0  0  0  0  0  0  0  0  0
  186.7080  175.0340  137.1390 C   0  0  0  0  0  2  0  0  0  0  0  0
  186.6670  176.4980  136.8790 C   0  0  0  0  0  3  0  0  0  0  0  0
  184.0330  170.2520  135.0460 C   0  0  0  0  0  2  0  0  0  0  0  0
  182.6610  176.6430  135.2720 C   0  0  0  0  0  2  0  0  0  0  0  0
  185.5310  177.2010  136.8660 C   0  0  0  0  0  3  0  0  0  0  0  0
  180.3990  172.6160  137.9360 C   0  0  0  0  0  2  0  0  0  0  0  0
  187.8960  172.1130  137.5790 C   0  0  0  0  0  1  0  0  0  0  0  0
  180.0440  171.6020  135.8440 C   0  0  0  0  0  2  0  0  0  0  0  0
  181.9240  175.1270  138.2980 O   0  0  0  0  0  0  0  0  0  0  0  0
  182.7100  170.9790  135.1280 C   0  0  0  0  0  3  0  0  0  0  0  0
  182.2880  178.3010  139.5700 C   0  0  0  0  0  3  0  0  0  0  0  0
  182.6900  178.0600  138.4610 C   0  0  0  0  0  0  0  0  0  0  0  0
  1  2  1  0  0  0  0
  1 25  1  1  0  0  0
  2 19  1  0  0  0  0
  3  7  1  6  0  0  0
  3  8  1  0  0  0  0
  4 10  1  0  0  0  0
  4 30  1  1  0  0  0
  5 16  1  0  0  0  0
  6 26  1  1  0  0  0
  6 13  1  0  0  0  0
  7 21  1  0  0  0  0
  8 18  2  0  0  0  0
  9 14  1  1  0  0  0
  9  5  1  0  0  0  0
  9  8  1  0  0  0  0
 10 23  1  6  0  0  0
 11  3  1  0  0  0  0
 11  1  1  0  0  0  0
 12 22  1  1  0  0  0
 12  5  1  0  0  0  0
 12 10  1  0  0  0  0
 13 16  1  0  0  0  0
 13 24  1  1  0  0  0
 14  6  1  0  0  0  0
 15  4  1  0  0  0  0
 16 27  2  0  0  0  0
 17 24  1  0  0  0  0
 20 19  1  0  0  0  0
 21 28  1  0  0  0  0
 22 15  1  0  0  0  0
 23 20  2  0  0  0  0
 26 17  1  0  0  0  0
 28 14  2  0  0  0  0
 30 29  3  0  0  0  0
M  END
>  <MODEL>
8

>  <REMARK>
 VINA RESULT:      -4.4      2.511      5.065
  Name = 
  1 active torsions:
  status: ('A' for Active; 'I' for Inactive)
    1  A    between atoms: C_4  and  C_30
                            x       y       z     vdW  Elec       q    Type
                         _______ _______ _______ _____ _____    ______ ____

>  <TORSDO>
F 1

$$$$
=
 OpenBabel10222416403D

 30 34  0  0  1  0  0  0  0  0999 V2000
  184.4250  171.7490  135.4180 C   0  0  2  0  0  3  0  0  0  0  0  0
  185.7960  171.2870  134.9380 C   0  0  0  0  0  2  0  0  0  0  0  0
  183.9840  174.0330  136.2430 C   0  0  2  0  0  3  0  0  0  0  0  0
  190.4600  174.8610  135.3490 C   0  0  1  0  0  3  0  0  0  0  0  0
  187.3720  175.7330  136.3640 N   0  0  0  0  0  0  0  0  0  0  0  0
  186.2700  178.1650  137.3060 C   0  0  1  0  0  3  0  0  0  0  0  0
  183.0920  175.2090  135.8400 C   0  0  0  0  0  2  0  0  0  0  0  0
  185.2940  174.5110  136.8060 C   0  0  0  0  0  0  0  0  0  0  0  0
  185.9080  175.7810  136.2870 C   0  0  1  0  0  3  0  0  0  0  0  0
  189.1300  174.1670  135.5800 C   0  0  1  0  0  3  0  0  0  0  0  0
  184.1960  173.1660  135.0820 N   0  0  0  0  0  2  0  0  0  0  0  0
  188.1150  175.2240  135.2000 C   0  0  2  0  0  3  0  0  0  0  0  0
  187.5480  177.6880  137.9720 C   0  0  2  0  0  3  0  0  0  0  0  0
  185.3270  177.0100  136.9820 C   0  0  0  0  0  0  0  0  0  0  0  0
  190.2410  176.2350  135.1590 O   0  0  0  0  0  0  0  0  0  0  0  0
  188.0280  176.3550  137.4810 C   0  0  0  0  0  0  0  0  0  0  0  0
  186.1530  178.6350  139.6830 N   0  0  0  0  0  2  0  0  0  0  0  0
  185.7850  173.9360  137.7620 O   0  0  0  0  0  0  0  0  0  0  0  0
  186.9060  172.1510  135.5060 C   0  0  0  0  0  2  0  0  0  0  0  0
  188.0880  172.0930  134.6050 C   0  0  0  0  0  3  0  0  0  0  0  0
  182.8910  176.1490  137.0220 C   0  0  0  0  0  2  0  0  0  0  0  0
  188.9610  176.3220  134.5940 C   0  0  0  0  0  2  0  0  0  0  0  0
  189.0730  172.9940  134.6410 C   0  0  0  0  0  3  0  0  0  0  0  0
  187.2360  177.6830  139.4520 C   0  0  0  0  0  2  0  0  0  0  0  0
  184.1450  171.3320  136.8640 C   0  0  0  0  0  1  0  0  0  0  0  0
  185.6980  179.0950  138.3690 C   0  0  0  0  0  2  0  0  0  0  0  0
  189.0290  175.8130  138.0200 O   0  0  0  0  0  0  0  0  0  0  0  0
  183.9950  177.1680  137.1860 C   0  0  0  0  0  3  0  0  0  0  0  0
  192.1210  174.4710  137.4040 C   0  0  0  0  0  3  0  0  0  0  0  0
  191.3670  174.6390  136.4800 C   0  0  0  0  0  0  0  0  0  0  0  0
  1 25  1  1  0  0  0
  2  1  1  0  0  0  0
  2 19  1  0  0  0  0
  3  7  1  6  0  0  0
  3  8  1  0  0  0  0
  4 10  1  0  0  0  0
  4 30  1  1  0  0  0
  5 16  1  0  0  0  0
  6 13  1  0  0  0  0
  6 26  1  1  0  0  0
  7 21  1  0  0  0  0
  8 18  2  0  0  0  0
  9  5  1  0  0  0  0
  9  8  1  1  0  0  0
  9 14  1  0  0  0  0
 10 23  1  6  0  0  0
 11  1  1  0  0  0  0
 11  3  1  0  0  0  0
 12 22  1  1  0  0  0
 12 10  1  0  0  0  0
 12  5  1  0  0  0  0
 13 24  1  1  0  0  0
 14 28  2  0  0  0  0
 14  6  1  0  0  0  0
 15  4  1  0  0  0  0
 16 13  1  0  0  0  0
 16 27  2  0  0  0  0
 20 23  2  0  0  0  0
 20 19  1  0  0  0  0
 21 28  1  0  0  0  0
 22 15  1  0  0  0  0
 24 17  1  0  0  0  0
 26 17  1  0  0  0  0
 30 29  3  0  0  0  0
M  END
>  <MODEL>
9

>  <REMARK>
 VINA RESULT:      -4.1      2.233      3.510
  Name = 
  1 active torsions:
  status: ('A' for Active; 'I' for Inactive)
    1  A    between atoms: C_4  and  C_30
                            x       y       z     vdW  Elec       q    Type
                         _______ _______ _______ _____ _____    ______ ____

>  <TORSDO>
F 1

$$$$
