=
 OpenBabel10222418303D

 49 55  0  0  1  0  0  0  0  0999 V2000
  185.7430  178.7500  139.3840 O   0  0  0  0  0  0  0  0  0  0  0  0
  187.1100  178.1400  137.6170 N   0  0  0  0  0  0  0  0  0  0  0  0
  185.8540  178.1210  138.2960 C   0  0  0  0  0  0  0  0  0  0  0  0
  187.6290  178.5640  135.2180 C   0  0  0  0  0  1  0  0  0  0  0  0
  188.5480  178.5510  137.5140 C   0  0  0  0  0  2  0  0  0  0  0  0
  184.7300  177.4040  137.7430 N   0  0  0  0  0  0  0  0  0  0  0  0
  188.0140  177.8160  136.4800 C   0  0  1  0  0  0  0  0  0  0  0  0
  183.3880  177.5070  138.3400 C   0  0  1  0  0  3  0  0  0  0  0  0
  182.2660  179.3620  141.3640 N   0  0  0  0  0  2  0  0  0  0  0  0
  182.6900  178.4250  140.3710 C   0  0  0  0  0  0  0  0  0  0  0  0
  182.6630  177.1510  140.5640 N   0  0  0  0  0  0  0  0  0  0  0  0
  183.1500  176.4330  139.4030 C   0  0  0  0  0  2  0  0  0  0  0  0
  183.1740  178.8440  139.0380 C   0  0  0  0  0  2  0  0  0  0  0  0
  181.7960  178.9620  142.6840 C   0  0  0  0  0  2  0  0  0  0  0  0
  182.9100  179.0080  143.6780 C   0  0  0  0  0  0  0  0  0  0  0  0
  182.6590  178.9000  144.9100 O   0  0  0  0  0  0  0  0  0  0  0  0
  185.2950  178.4100  143.7800 C   0  0  0  0  0  1  0  0  0  0  0  0
  184.2220  179.1570  143.2260 O   0  0  0  0  0  0  0  0  0  0  0  0
  183.7990  175.5750  136.4060 C   0  0  0  0  0  2  0  0  0  0  0  0
  184.5780  177.2060  135.2500 C   0  0  0  0  0  2  0  0  0  0  0  0
  184.9570  176.5450  136.5710 C   0  0  1  0  0  3  0  0  0  0  0  0
  183.4210  176.2360  135.0920 C   0  0  2  0  0  3  0  0  0  0  0  0
  182.1510  176.9510  135.2430 C   0  0  0  0  0  0  0  0  0  0  0  0
  181.1000  177.5300  135.3720 C   0  0  0  0  0  0  0  0  0  0  0  0
  179.8210  178.2240  135.5290 C   0  0  0  0  0  2  0  0  0  0  0  0
  179.9840  179.3470  136.3850 O   0  0  0  0  0  0  0  0  0  0  0  0
  180.9980  181.8630  138.1140 S   0  0  0  0  0  0  0  0  0  0  0  0
  179.9440  182.3210  134.5980 C   0  0  0  0  0  3  0  0  0  0  0  0
  180.3810  182.8480  135.7660 N   0  0  0  0  0  0  0  0  0  0  0  0
  179.7410  180.9900  134.6960 N   0  0  0  0  0  2  0  0  0  0  0  0
  180.0430  180.6560  135.9350 N   0  0  0  0  0  0  0  0  0  0  0  0
  180.4330  181.7770  136.5790 C   0  0  0  0  0  0  0  0  0  0  0  0
  188.3580  176.3370  136.4210 C   0  0  0  0  0  2  0  0  0  0  0  0
  188.9240  175.9110  137.6890 N   0  0  0  0  0  2  0  0  0  0  0  0
  190.3650  175.8450  137.5090 C   0  0  0  0  0  2  0  0  0  0  0  0
  190.8900  177.3200  140.9660 C   0  0  0  0  0  0  0  0  0  0  0  0
  190.2800  176.7510  139.8350 C   0  0  0  0  0  3  0  0  0  0  0  0
  192.4220  176.5840  138.7230 C   0  0  0  0  0  3  0  0  0  0  0  0
  191.0390  176.3850  138.7190 C   0  0  0  0  0  0  0  0  0  0  0  0
  192.2870  177.4930  140.9610 C   0  0  0  0  0  3  0  0  0  0  0  0
  193.0480  177.1310  139.8460 C   0  0  0  0  0  3  0  0  0  0  0  0
  191.2260  178.4440  144.2000 C   0  0  0  0  0  2  0  0  0  0  0  0
  190.0240  176.5780  143.2250 C   0  0  2  0  0  0  0  0  0  0  0  0
  190.6660  178.9030  142.8600 C   0  0  0  0  0  2  0  0  0  0  0  0
  189.3910  176.7930  144.5840 C   0  0  0  0  0  2  0  0  0  0  0  0
  190.8940  176.9720  144.3930 C   0  0  2  0  0  3  0  0  0  0  0  0
  188.6080  178.0350  141.7930 C   0  0  0  0  0  1  0  0  0  0  0  0
  190.0450  177.6940  142.1760 C   0  0  1  0  0  0  0  0  0  0  0  0
  190.1940  175.2470  142.8390 O   0  0  0  0  0  1  0  0  0  0  0  0
  2  3  1  0  0  0  0
  3  1  2  0  0  0  0
  5  2  1  0  0  0  0
  6  3  1  0  0  0  0
  7  4  1  6  0  0  0
  7  5  1  0  0  0  0
  7  2  1  0  0  0  0
  8  6  1  1  0  0  0
  8 13  1  0  0  0  0
  8 12  1  0  0  0  0
  9 14  1  0  0  0  0
 10 11  2  0  0  0  0
 10  9  1  0  0  0  0
 12 11  1  0  0  0  0
 13 10  1  0  0  0  0
 14 15  1  0  0  0  0
 15 16  2  0  0  0  0
 18 15  1  0  0  0  0
 18 17  1  0  0  0  0
 19 21  1  0  0  0  0
 20 21  1  0  0  0  0
 21  6  1  1  0  0  0
 22 23  1  1  0  0  0
 22 20  1  0  0  0  0
 22 19  1  0  0  0  0
 23 24  3  0  0  0  0
 24 25  1  0  0  0  0
 25 26  1  0  0  0  0
 28 30  1  0  0  0  0
 28 29  2  0  0  0  0
 29 32  1  0  0  0  0
 30 31  1  0  0  0  0
 31 26  1  0  0  0  0
 31 32  1  0  0  0  0
 32 27  2  0  0  0  0
 33  7  1  0  0  0  0
 33 34  1  0  0  0  0
 35 34  1  0  0  0  0
 35 39  1  0  0  0  0
 36 48  1  0  0  0  0
 37 36  2  0  0  0  0
 38 41  1  0  0  0  0
 39 38  2  0  0  0  0
 39 37  1  0  0  0  0
 40 36  1  0  0  0  0
 41 40  2  0  0  0  0
 43 49  1  6  0  0  0
 43 46  1  0  0  0  0
 43 45  1  0  0  0  0
 44 42  1  0  0  0  0
 46 42  1  6  0  0  0
 46 45  1  0  0  0  0
 48 47  1  6  0  0  0
 48 44  1  0  0  0  0
 48 43  1  0  0  0  0
M  END
>  <MODEL>
1

>  <REMARK>
 VINA RESULT:      -6.6      0.000      0.000
  Name = 
  14 active torsions:
  status: ('A' for Active; 'I' for Inactive)
    1  A    between atoms: C_1  and  N_36
    2  A    between atoms: N_3  and  C_44
    3  A    between atoms: C_4  and  O_15
    4  A    between atoms: C_4  and  C_26
    5  A    between atoms: C_5  and  C_32
    6  A    between atoms: C_7  and  C_35
    7  A    between atoms: O_15  and  N_45
    8  A    between atoms: C_24  and  N_36
    9  A    between atoms: C_27  and  C_43
   10  A    between atoms: C_37  and  O_39
   11  A    between atoms: C_37  and  C_44
   12  A    between atoms: C_38  and  C_41
   13  A    between atoms: C_38  and  N_49
   14  A    between atoms: C_43  and  N_49
                            x       y       z     vdW  Elec       q    Type
                         _______ _______ _______ _____ _____    ______ ____

>  <TORSDO>
F 14

$$$$
=
 OpenBabel10222418303D

 49 55  0  0  1  0  0  0  0  0999 V2000
  189.3240  174.3290  136.2680 O   0  0  0  0  0  0  0  0  0  0  0  0
  187.3380  175.4710  135.9270 N   0  0  0  0  0  0  0  0  0  0  0  0
  188.6680  175.3920  136.4410 C   0  0  0  0  0  0  0  0  0  0  0  0
  186.2370  177.2650  134.5950 C   0  0  0  0  0  1  0  0  0  0  0  0
  186.1620  174.8730  135.2160 C   0  0  0  0  0  2  0  0  0  0  0  0
  189.2550  176.5130  137.1370 N   0  0  0  0  0  0  0  0  0  0  0  0
  186.0620  176.1790  135.6390 C   0  0  1  0  0  0  0  0  0  0  0  0
  190.6730  176.5130  137.5290 C   0  0  1  0  0  3  0  0  0  0  0  0
  193.5810  174.8230  135.9360 N   0  0  0  0  0  2  0  0  0  0  0  0
  192.4750  175.2590  136.7310 C   0  0  0  0  0  0  0  0  0  0  0  0
  192.1770  174.7160  137.8610 N   0  0  0  0  0  0  0  0  0  0  0  0
  191.0120  175.3430  138.4540 C   0  0  0  0  0  2  0  0  0  0  0  0
  191.5980  176.3800  136.3260 C   0  0  0  0  0  2  0  0  0  0  0  0
  194.4460  173.7150  136.3200 C   0  0  0  0  0  2  0  0  0  0  0  0
  195.8570  174.1770  136.4750 C   0  0  0  0  0  0  0  0  0  0  0  0
  196.6490  174.1240  135.4940 O   0  0  0  0  0  0  0  0  0  0  0  0
  195.8290  174.1250  138.9350 C   0  0  0  0  0  1  0  0  0  0  0  0
  196.2800  174.6770  137.7070 O   0  0  0  0  0  0  0  0  0  0  0  0
  187.5780  177.3530  138.7130 C   0  0  0  0  0  2  0  0  0  0  0  0
  189.1180  178.7660  138.2250 C   0  0  0  0  0  2  0  0  0  0  0  0
  188.3930  177.6590  137.4670 C   0  0  1  0  0  3  0  0  0  0  0  0
  188.3020  178.4550  139.4670 C   0  0  2  0  0  3  0  0  0  0  0  0
  189.1680  177.8670  140.4940 C   0  0  0  0  0  0  0  0  0  0  0  0
  189.8710  177.3830  141.3460 C   0  0  0  0  0  0  0  0  0  0  0  0
  190.7190  176.7990  142.3870 C   0  0  0  0  0  2  0  0  0  0  0  0
  189.9230  176.0310  143.2810 O   0  0  0  0  0  0  0  0  0  0  0  0
  190.1830  177.4300  146.1650 S   0  0  0  0  0  0  0  0  0  0  0  0
  186.8870  177.1820  144.5050 C   0  0  0  0  0  3  0  0  0  0  0  0
  187.6330  177.5470  145.5730 N   0  0  0  0  0  0  0  0  0  0  0  0
  187.6350  176.5800  143.5550 N   0  0  0  0  0  2  0  0  0  0  0  0
  188.8700  176.5510  144.0160 N   0  0  0  0  0  0  0  0  0  0  0  0
  188.8690  177.1380  145.2310 C   0  0  0  0  0  0  0  0  0  0  0  0
  185.2560  176.4480  136.8990 C   0  0  0  0  0  2  0  0  0  0  0  0
  184.2020  177.4070  136.6150 N   0  0  0  0  0  2  0  0  0  0  0  0
  182.9640  176.8370  137.1190 C   0  0  0  0  0  2  0  0  0  0  0  0
  181.2730  179.5490  139.1660 C   0  0  0  0  0  0  0  0  0  0  0  0
  181.6780  178.7490  138.0840 C   0  0  0  0  0  3  0  0  0  0  0  0
  182.9150  177.3000  139.5760 C   0  0  0  0  0  3  0  0  0  0  0  0
  182.4940  177.6320  138.2850 C   0  0  0  0  0  0  0  0  0  0  0  0
  181.6880  179.1890  140.4620 C   0  0  0  0  0  3  0  0  0  0  0  0
  182.5060  178.0740  140.6660 C   0  0  0  0  0  3  0  0  0  0  0  0
  179.6190  181.1640  136.6180 C   0  0  0  0  0  2  0  0  0  0  0  0
  181.1400  181.9370  138.3400 C   0  0  2  0  0  0  0  0  0  0  0  0
  179.3170  180.3790  137.8890 C   0  0  0  0  0  2  0  0  0  0  0  0
  180.4190  183.1790  137.8590 C   0  0  0  0  0  2  0  0  0  0  0  0
  180.8070  182.0790  136.8750 C   0  0  2  0  0  3  0  0  0  0  0  0
  179.6600  181.2040  140.1980 C   0  0  0  0  0  1  0  0  0  0  0  0
  180.3690  180.7500  138.9250 C   0  0  1  0  0  0  0  0  0  0  0  0
  182.5020  182.0930  138.6100 O   0  0  0  0  0  1  0  0  0  0  0  0
  1  3  2  0  0  0  0
  2  3  1  0  0  0  0
  3  6  1  0  0  0  0
  5  7  1  0  0  0  0
  5  2  1  0  0  0  0
  7  4  1  6  0  0  0
  7  2  1  0  0  0  0
  7 33  1  0  0  0  0
  8  6  1  6  0  0  0
  8 12  1  0  0  0  0
  9 14  1  0  0  0  0
  9 10  1  0  0  0  0
 10 11  2  0  0  0  0
 11 12  1  0  0  0  0
 13 10  1  0  0  0  0
 13  8  1  0  0  0  0
 14 15  1  0  0  0  0
 15 18  1  0  0  0  0
 16 15  2  0  0  0  0
 18 17  1  0  0  0  0
 19 22  1  0  0  0  0
 20 22  1  0  0  0  0
 21  6  1  1  0  0  0
 21 20  1  0  0  0  0
 21 19  1  0  0  0  0
 22 23  1  1  0  0  0
 23 24  3  0  0  0  0
 24 25  1  0  0  0  0
 25 26  1  0  0  0  0
 26 31  1  0  0  0  0
 28 29  2  0  0  0  0
 30 31  1  0  0  0  0
 30 28  1  0  0  0  0
 31 32  1  0  0  0  0
 32 29  1  0  0  0  0
 32 27  2  0  0  0  0
 34 33  1  0  0  0  0
 34 35  1  0  0  0  0
 35 39  1  0  0  0  0
 36 40  1  0  0  0  0
 37 39  1  0  0  0  0
 37 36  2  0  0  0  0
 38 41  1  0  0  0  0
 39 38  2  0  0  0  0
 40 41  2  0  0  0  0
 42 44  1  0  0  0  0
 43 49  1  1  0  0  0
 43 48  1  0  0  0  0
 44 48  1  0  0  0  0
 45 43  1  0  0  0  0
 46 42  1  1  0  0  0
 46 45  1  0  0  0  0
 46 43  1  0  0  0  0
 48 36  1  0  0  0  0
 48 47  1  1  0  0  0
M  END
>  <MODEL>
2

>  <REMARK>
 VINA RESULT:      -6.6      3.803     10.432
  Name = 
  14 active torsions:
  status: ('A' for Active; 'I' for Inactive)
    1  A    between atoms: C_1  and  N_36
    2  A    between atoms: N_3  and  C_44
    3  A    between atoms: C_4  and  O_15
    4  A    between atoms: C_4  and  C_26
    5  A    between atoms: C_5  and  C_32
    6  A    between atoms: C_7  and  C_35
    7  A    between atoms: O_15  and  N_45
    8  A    between atoms: C_24  and  N_36
    9  A    between atoms: C_27  and  C_43
   10  A    between atoms: C_37  and  O_39
   11  A    between atoms: C_37  and  C_44
   12  A    between atoms: C_38  and  C_41
   13  A    between atoms: C_38  and  N_49
   14  A    between atoms: C_43  and  N_49
                            x       y       z     vdW  Elec       q    Type
                         _______ _______ _______ _____ _____    ______ ____

>  <TORSDO>
F 14

$$$$
=
 OpenBabel10222418303D

 49 55  0  0  1  0  0  0  0  0999 V2000
  185.7600  178.9800  137.7590 O   0  0  0  0  0  0  0  0  0  0  0  0
  187.7190  178.1140  136.8790 N   0  0  0  0  0  0  0  0  0  0  0  0
  186.3480  177.9850  137.2540 C   0  0  0  0  0  0  0  0  0  0  0  0
  188.8760  177.4550  134.7740 C   0  0  0  0  0  1  0  0  0  0  0  0
  188.9890  178.9050  136.7740 C   0  0  0  0  0  2  0  0  0  0  0  0
  185.6430  176.7420  137.0480 N   0  0  0  0  0  0  0  0  0  0  0  0
  188.9880  177.6200  136.2770 C   0  0  1  0  0  0  0  0  0  0  0  0
  184.1930  176.6370  137.2740 C   0  0  1  0  0  3  0  0  0  0  0  0
  181.5100  179.1500  136.6960 N   0  0  0  0  0  2  0  0  0  0  0  0
  182.5160  178.2610  137.1870 C   0  0  0  0  0  0  0  0  0  0  0  0
  182.7120  178.0630  138.4450 N   0  0  0  0  0  0  0  0  0  0  0  0
  183.7930  177.1230  138.6680 C   0  0  0  0  0  2  0  0  0  0  0  0
  183.3990  177.4860  136.2880 C   0  0  0  0  0  2  0  0  0  0  0  0
  180.6400  179.9250  137.5720 C   0  0  0  0  0  2  0  0  0  0  0  0
  181.1120  181.3390  137.6660 C   0  0  0  0  0  0  0  0  0  0  0  0
  182.0200  181.6460  138.4880 O   0  0  0  0  0  0  0  0  0  0  0  0
  181.0130  183.6460  136.8150 C   0  0  0  0  0  1  0  0  0  0  0  0
  180.5500  182.3040  136.8290 O   0  0  0  0  0  0  0  0  0  0  0  0
  185.8150  174.3050  137.2260 C   0  0  0  0  0  2  0  0  0  0  0  0
  186.0420  175.0620  135.2310 C   0  0  0  0  0  2  0  0  0  0  0  0
  186.4150  175.5640  136.6220 C   0  0  1  0  0  3  0  0  0  0  0  0
  185.4420  173.8080  135.8400 C   0  0  2  0  0  3  0  0  0  0  0  0
  183.9850  173.8280  135.6810 C   0  0  0  0  0  0  0  0  0  0  0  0
  182.7850  173.8350  135.5590 C   0  0  0  0  0  0  0  0  0  0  0  0
  181.3280  173.8360  135.4130 C   0  0  0  0  0  2  0  0  0  0  0  0
  180.7590  174.8160  136.2720 O   0  0  0  0  0  0  0  0  0  0  0  0
  178.9310  176.8420  137.9730 S   0  0  0  0  0  0  0  0  0  0  0  0
  179.4660  173.3780  139.1530 C   0  0  0  0  0  3  0  0  0  0  0  0
  178.9330  174.6080  139.3410 N   0  0  0  0  0  0  0  0  0  0  0  0
  180.1990  173.3190  138.0210 N   0  0  0  0  0  2  0  0  0  0  0  0
  180.1430  174.5190  137.4770 N   0  0  0  0  0  0  0  0  0  0  0  0
  179.3760  175.2950  138.2720 C   0  0  0  0  0  0  0  0  0  0  0  0
  189.6440  176.5410  137.1220 C   0  0  0  0  0  2  0  0  0  0  0  0
  190.5740  177.1470  138.0590 N   0  0  0  0  0  2  0  0  0  0  0  0
  190.5350  176.3440  139.2710 C   0  0  0  0  0  2  0  0  0  0  0  0
  189.7980  177.9650  142.6230 C   0  0  0  0  0  0  0  0  0  0  0  0
  190.4630  177.3020  141.5760 C   0  0  0  0  0  3  0  0  0  0  0  0
  188.5340  177.5670  140.1400 C   0  0  0  0  0  3  0  0  0  0  0  0
  189.8370  177.1030  140.3430 C   0  0  0  0  0  0  0  0  0  0  0  0
  188.4940  178.4440  142.3950 C   0  0  0  0  0  3  0  0  0  0  0  0
  187.8650  178.2440  141.1630 C   0  0  0  0  0  3  0  0  0  0  0  0
  191.3790  176.2030  145.1190 C   0  0  0  0  0  2  0  0  0  0  0  0
  189.6030  177.8530  145.1430 C   0  0  2  0  0  0  0  0  0  0  0  0
  191.6930  177.2380  144.0450 C   0  0  0  0  0  2  0  0  0  0  0  0
  190.1470  177.8330  146.5570 C   0  0  0  0  0  2  0  0  0  0  0  0
  190.0370  176.5420  145.7510 C   0  0  2  0  0  3  0  0  0  0  0  0
  191.0130  179.6170  144.1050 C   0  0  0  0  0  1  0  0  0  0  0  0
  190.5060  178.1860  143.9520 C   0  0  1  0  0  0  0  0  0  0  0  0
  188.2160  177.9720  145.0290 O   0  0  0  0  0  1  0  0  0  0  0  0
  2  3  1  0  0  0  0
  3  1  2  0  0  0  0
  5  2  1  0  0  0  0
  6  3  1  0  0  0  0
  7  4  1  6  0  0  0
  7  5  1  0  0  0  0
  7  2  1  0  0  0  0
  7 33  1  0  0  0  0
  8  6  1  6  0  0  0
  8 12  1  0  0  0  0
  9 10  1  0  0  0  0
  9 14  1  0  0  0  0
 10 11  2  0  0  0  0
 11 12  1  0  0  0  0
 13 10  1  0  0  0  0
 13  8  1  0  0  0  0
 14 15  1  0  0  0  0
 15 16  2  0  0  0  0
 17 18  1  0  0  0  0
 18 15  1  0  0  0  0
 20 22  1  0  0  0  0
 20 21  1  0  0  0  0
 21  6  1  1  0  0  0
 21 19  1  0  0  0  0
 22 23  1  1  0  0  0
 22 19  1  0  0  0  0
 24 23  3  0  0  0  0
 25 24  1  0  0  0  0
 25 26  1  0  0  0  0
 26 31  1  0  0  0  0
 27 32  2  0  0  0  0
 28 29  2  0  0  0  0
 30 28  1  0  0  0  0
 31 30  1  0  0  0  0
 31 32  1  0  0  0  0
 32 29  1  0  0  0  0
 33 34  1  0  0  0  0
 34 35  1  0  0  0  0
 35 39  1  0  0  0  0
 36 48  1  0  0  0  0
 37 36  2  0  0  0  0
 38 39  2  0  0  0  0
 38 41  1  0  0  0  0
 39 37  1  0  0  0  0
 40 36  1  0  0  0  0
 41 40  2  0  0  0  0
 43 49  1  6  0  0  0
 43 46  1  0  0  0  0
 43 45  1  0  0  0  0
 44 42  1  0  0  0  0
 46 42  1  6  0  0  0
 46 45  1  0  0  0  0
 48 44  1  0  0  0  0
 48 47  1  1  0  0  0
 48 43  1  0  0  0  0
M  END
>  <MODEL>
3

>  <REMARK>
 VINA RESULT:      -6.5      2.511      4.423
  Name = 
  14 active torsions:
  status: ('A' for Active; 'I' for Inactive)
    1  A    between atoms: C_1  and  N_36
    2  A    between atoms: N_3  and  C_44
    3  A    between atoms: C_4  and  O_15
    4  A    between atoms: C_4  and  C_26
    5  A    between atoms: C_5  and  C_32
    6  A    between atoms: C_7  and  C_35
    7  A    between atoms: O_15  and  N_45
    8  A    between atoms: C_24  and  N_36
    9  A    between atoms: C_27  and  C_43
   10  A    between atoms: C_37  and  O_39
   11  A    between atoms: C_37  and  C_44
   12  A    between atoms: C_38  and  C_41
   13  A    between atoms: C_38  and  N_49
   14  A    between atoms: C_43  and  N_49
                            x       y       z     vdW  Elec       q    Type
                         _______ _______ _______ _____ _____    ______ ____

>  <TORSDO>
F 14

$$$$
=
 OpenBabel10222418303D

 49 55  0  0  1  0  0  0  0  0999 V2000
  189.3860  174.1360  136.2580 O   0  0  0  0  0  0  0  0  0  0  0  0
  187.2870  175.1010  136.0990 N   0  0  0  0  0  0  0  0  0  0  0  0
  188.6650  175.1500  136.4680 C   0  0  0  0  0  0  0  0  0  0  0  0
  185.9050  176.7460  134.8390 C   0  0  0  0  0  1  0  0  0  0  0  0
  186.0960  174.3830  135.5400 C   0  0  0  0  0  2  0  0  0  0  0  0
  189.2260  176.3410  137.0600 N   0  0  0  0  0  0  0  0  0  0  0  0
  185.9320  175.6930  135.9300 C   0  0  1  0  0  0  0  0  0  0  0  0
  190.6730  176.4700  137.2950 C   0  0  1  0  0  3  0  0  0  0  0  0
  193.5270  174.9570  135.4470 N   0  0  0  0  0  2  0  0  0  0  0  0
  192.4790  175.3340  136.3440 C   0  0  0  0  0  0  0  0  0  0  0  0
  192.3490  174.8140  137.5160 N   0  0  0  0  0  0  0  0  0  0  0  0
  191.2050  175.3680  138.2130 C   0  0  0  0  0  2  0  0  0  0  0  0
  191.4740  176.3640  136.0030 C   0  0  0  0  0  2  0  0  0  0  0  0
  194.5180  173.9380  135.7680 C   0  0  0  0  0  2  0  0  0  0  0  0
  195.6390  174.5230  136.5620 C   0  0  0  0  0  0  0  0  0  0  0  0
  196.0460  175.6910  136.3110 O   0  0  0  0  0  0  0  0  0  0  0  0
  195.4480  172.8810  138.3850 C   0  0  0  0  0  1  0  0  0  0  0  0
  196.2140  173.7720  137.5880 O   0  0  0  0  0  0  0  0  0  0  0  0
  187.6950  177.1280  138.8010 C   0  0  0  0  0  2  0  0  0  0  0  0
  189.0220  178.6350  138.0460 C   0  0  0  0  0  2  0  0  0  0  0  0
  188.3120  177.4270  137.4450 C   0  0  1  0  0  3  0  0  0  0  0  0
  188.4040  178.3310  139.3990 C   0  0  2  0  0  3  0  0  0  0  0  0
  189.4450  177.8820  140.3280 C   0  0  0  0  0  0  0  0  0  0  0  0
  190.3080  177.5100  141.0840 C   0  0  0  0  0  0  0  0  0  0  0  0
  191.3610  177.0550  141.9940 C   0  0  0  0  0  2  0  0  0  0  0  0
  190.8040  176.1980  142.9830 O   0  0  0  0  0  0  0  0  0  0  0  0
  188.1550  177.3630  144.3870 S   0  0  0  0  0  0  0  0  0  0  0  0
  191.2090  176.7530  146.3840 C   0  0  0  0  0  3  0  0  0  0  0  0
  189.9320  177.1970  146.3060 N   0  0  0  0  0  0  0  0  0  0  0  0
  191.6720  176.3500  145.1820 N   0  0  0  0  0  2  0  0  0  0  0  0
  190.6910  176.5390  144.3210 N   0  0  0  0  0  0  0  0  0  0  0  0
  189.6410  177.0470  145.0000 C   0  0  0  0  0  0  0  0  0  0  0  0
  185.2440  175.9480  137.2600 C   0  0  0  0  0  2  0  0  0  0  0  0
  183.8040  175.9660  137.0750 N   0  0  0  0  0  2  0  0  0  0  0  0
  183.2500  174.9640  137.9700 C   0  0  0  0  0  2  0  0  0  0  0  0
  181.1600  177.2750  140.1380 C   0  0  0  0  0  0  0  0  0  0  0  0
  182.2290  176.7430  139.3960 C   0  0  0  0  0  3  0  0  0  0  0  0
  180.8700  174.8540  138.7320 C   0  0  0  0  0  3  0  0  0  0  0  0
  182.0870  175.5410  138.6970 C   0  0  0  0  0  0  0  0  0  0  0  0
  179.9350  176.5820  140.1460 C   0  0  0  0  0  3  0  0  0  0  0  0
  179.7910  175.3780  139.4510 C   0  0  0  0  0  3  0  0  0  0  0  0
  182.9240  178.6500  142.7520 C   0  0  0  0  0  2  0  0  0  0  0  0
  180.5640  178.6140  142.2010 C   0  0  2  0  0  0  0  0  0  0  0  0
  182.8000  178.7730  141.2380 C   0  0  0  0  0  2  0  0  0  0  0  0
  180.7260  179.7550  143.1840 C   0  0  0  0  0  2  0  0  0  0  0  0
  181.5360  178.4720  143.3470 C   0  0  2  0  0  3  0  0  0  0  0  0
  180.8900  179.7890  140.0350 C   0  0  0  0  0  1  0  0  0  0  0  0
  181.3330  178.5950  140.8770 C   0  0  1  0  0  0  0  0  0  0  0  0
  179.4140  177.8370  142.3580 O   0  0  0  0  0  1  0  0  0  0  0  0
  1  3  2  0  0  0  0
  2  3  1  0  0  0  0
  3  6  1  0  0  0  0
  5  7  1  0  0  0  0
  5  2  1  0  0  0  0
  7  4  1  6  0  0  0
  7  2  1  0  0  0  0
  7 33  1  0  0  0  0
  8  6  1  6  0  0  0
  8 12  1  0  0  0  0
  9 14  1  0  0  0  0
  9 10  1  0  0  0  0
 10 11  2  0  0  0  0
 11 12  1  0  0  0  0
 13 10  1  0  0  0  0
 13  8  1  0  0  0  0
 14 15  1  0  0  0  0
 15 18  1  0  0  0  0
 16 15  2  0  0  0  0
 18 17  1  0  0  0  0
 19 22  1  0  0  0  0
 20 22  1  0  0  0  0
 21  6  1  1  0  0  0
 21 20  1  0  0  0  0
 21 19  1  0  0  0  0
 22 23  1  1  0  0  0
 23 24  3  0  0  0  0
 24 25  1  0  0  0  0
 25 26  1  0  0  0  0
 26 31  1  0  0  0  0
 27 32  2  0  0  0  0
 29 28  2  0  0  0  0
 30 28  1  0  0  0  0
 31 32  1  0  0  0  0
 31 30  1  0  0  0  0
 32 29  1  0  0  0  0
 34 33  1  0  0  0  0
 34 35  1  0  0  0  0
 35 39  1  0  0  0  0
 36 40  1  0  0  0  0
 36 48  1  0  0  0  0
 37 36  2  0  0  0  0
 38 41  1  0  0  0  0
 39 38  2  0  0  0  0
 39 37  1  0  0  0  0
 41 40  2  0  0  0  0
 43 49  1  1  0  0  0
 43 45  1  0  0  0  0
 43 46  1  0  0  0  0
 44 42  1  0  0  0  0
 45 46  1  0  0  0  0
 46 42  1  6  0  0  0
 48 47  1  6  0  0  0
 48 44  1  0  0  0  0
 48 43  1  0  0  0  0
M  END
>  <MODEL>
4

>  <REMARK>
 VINA RESULT:      -6.4      3.826     10.384
  Name = 
  14 active torsions:
  status: ('A' for Active; 'I' for Inactive)
    1  A    between atoms: C_1  and  N_36
    2  A    between atoms: N_3  and  C_44
    3  A    between atoms: C_4  and  O_15
    4  A    between atoms: C_4  and  C_26
    5  A    between atoms: C_5  and  C_32
    6  A    between atoms: C_7  and  C_35
    7  A    between atoms: O_15  and  N_45
    8  A    between atoms: C_24  and  N_36
    9  A    between atoms: C_27  and  C_43
   10  A    between atoms: C_37  and  O_39
   11  A    between atoms: C_37  and  C_44
   12  A    between atoms: C_38  and  C_41
   13  A    between atoms: C_38  and  N_49
   14  A    between atoms: C_43  and  N_49
                            x       y       z     vdW  Elec       q    Type
                         _______ _______ _______ _____ _____    ______ ____

>  <TORSDO>
F 14

$$$$
=
 OpenBabel10222418303D

 49 55  0  0  1  0  0  0  0  0999 V2000
  182.2240  178.9950  144.0670 O   0  0  0  0  0  0  0  0  0  0  0  0
  180.9740  178.4500  142.1940 N   0  0  0  0  0  0  0  0  0  0  0  0
  182.2130  178.7800  142.8230 C   0  0  0  0  0  0  0  0  0  0  0  0
  180.4280  176.6310  140.5830 C   0  0  0  0  0  1  0  0  0  0  0  0
  179.4950  178.2130  142.2380 C   0  0  0  0  0  2  0  0  0  0  0  0
  183.4320  178.8540  142.0540 N   0  0  0  0  0  0  0  0  0  0  0  0
  180.1370  178.0500  141.0310 C   0  0  1  0  0  0  0  0  0  0  0  0
  184.7400  179.0300  142.7060 C   0  0  1  0  0  3  0  0  0  0  0  0
  185.9570  177.7390  145.9770 N   0  0  0  0  0  2  0  0  0  0  0  0
  185.4550  178.4760  144.8600 C   0  0  0  0  0  0  0  0  0  0  0  0
  185.2820  179.7530  144.8930 N   0  0  0  0  0  0  0  0  0  0  0  0
  184.7580  180.2460  143.6340 C   0  0  0  0  0  2  0  0  0  0  0  0
  185.1100  177.8330  143.5730 C   0  0  0  0  0  2  0  0  0  0  0  0
  186.2910  178.3590  147.2520 C   0  0  0  0  0  2  0  0  0  0  0  0
  187.6830  178.0050  147.6630 C   0  0  0  0  0  0  0  0  0  0  0  0
  187.9600  177.8580  148.8860 O   0  0  0  0  0  0  0  0  0  0  0  0
  189.7000  176.8710  146.8270 C   0  0  0  0  0  1  0  0  0  0  0  0
  188.6590  177.8260  146.6830 O   0  0  0  0  0  0  0  0  0  0  0  0
  184.3020  179.7570  139.9500 C   0  0  0  0  0  2  0  0  0  0  0  0
  184.1410  177.6180  139.9930 C   0  0  0  0  0  2  0  0  0  0  0  0
  183.3380  178.7700  140.5880 C   0  0  1  0  0  3  0  0  0  0  0  0
  185.1010  178.6080  139.3600 C   0  0  2  0  0  3  0  0  0  0  0  0
  186.4080  178.5210  140.0190 C   0  0  0  0  0  0  0  0  0  0  0  0
  187.4860  178.4610  140.5570 C   0  0  0  0  0  0  0  0  0  0  0  0
  188.7980  178.3930  141.2030 C   0  0  0  0  0  2  0  0  0  0  0  0
  188.7630  177.4490  142.2660 O   0  0  0  0  0  0  0  0  0  0  0  0
  190.9120  179.1350  143.9640 S   0  0  0  0  0  0  0  0  0  0  0  0
  191.3110  175.4800  143.5570 C   0  0  0  0  0  3  0  0  0  0  0  0
  191.7730  176.6610  144.0310 N   0  0  0  0  0  0  0  0  0  0  0  0
  190.1700  175.6360  142.8530 N   0  0  0  0  0  2  0  0  0  0  0  0
  189.8960  176.9260  142.8670 N   0  0  0  0  0  0  0  0  0  0  0  0
  190.8610  177.5430  143.5810 C   0  0  0  0  0  0  0  0  0  0  0  0
  180.0010  179.1650  140.0080 C   0  0  0  0  0  2  0  0  0  0  0  0
  181.0020  179.0050  138.9680 N   0  0  0  0  0  2  0  0  0  0  0  0
  180.2910  178.6780  137.7430 C   0  0  0  0  0  2  0  0  0  0  0  0
  182.9680  176.4220  136.2760 C   0  0  0  0  0  0  0  0  0  0  0  0
  182.0240  176.9770  137.1590 C   0  0  0  0  0  3  0  0  0  0  0  0
  181.3840  178.6130  135.4940 C   0  0  0  0  0  3  0  0  0  0  0  0
  181.2370  178.0650  136.7720 C   0  0  0  0  0  0  0  0  0  0  0  0
  183.0880  176.9710  134.9860 C   0  0  0  0  0  3  0  0  0  0  0  0
  182.3040  178.0620  134.5980 C   0  0  0  0  0  3  0  0  0  0  0  0
  185.9650  174.8780  135.5940 C   0  0  0  0  0  2  0  0  0  0  0  0
  183.6870  174.0590  135.7270 C   0  0  2  0  0  0  0  0  0  0  0  0
  185.2710  175.6230  136.7270 C   0  0  0  0  0  2  0  0  0  0  0  0
  184.5610  172.8290  135.8640 C   0  0  0  0  0  2  0  0  0  0  0  0
  184.9580  173.9600  134.9180 C   0  0  2  0  0  3  0  0  0  0  0  0
  183.4180  174.7320  138.1040 C   0  0  0  0  0  1  0  0  0  0  0  0
  183.8020  175.2260  136.7130 C   0  0  1  0  0  0  0  0  0  0  0  0
  182.5340  173.9000  134.9560 O   0  0  0  0  0  1  0  0  0  0  0  0
  2  5  1  0  0  0  0
  2  3  1  0  0  0  0
  3  1  2  0  0  0  0
  6  3  1  0  0  0  0
  7  4  1  6  0  0  0
  7  2  1  0  0  0  0
  7  5  1  0  0  0  0
  8  6  1  1  0  0  0
  8 13  1  0  0  0  0
  8 12  1  0  0  0  0
  9 14  1  0  0  0  0
 10 11  2  0  0  0  0
 10  9  1  0  0  0  0
 12 11  1  0  0  0  0
 13 10  1  0  0  0  0
 14 15  1  0  0  0  0
 15 16  2  0  0  0  0
 18 17  1  0  0  0  0
 18 15  1  0  0  0  0
 19 21  1  0  0  0  0
 20 21  1  0  0  0  0
 21  6  1  1  0  0  0
 22 19  1  0  0  0  0
 22 20  1  0  0  0  0
 22 23  1  1  0  0  0
 23 24  3  0  0  0  0
 24 25  1  0  0  0  0
 25 26  1  0  0  0  0
 26 31  1  0  0  0  0
 28 29  2  0  0  0  0
 30 31  1  0  0  0  0
 30 28  1  0  0  0  0
 31 32  1  0  0  0  0
 32 27  2  0  0  0  0
 32 29  1  0  0  0  0
 33  7  1  0  0  0  0
 34 33  1  0  0  0  0
 35 34  1  0  0  0  0
 36 48  1  0  0  0  0
 36 37  1  0  0  0  0
 38 39  1  0  0  0  0
 39 37  2  0  0  0  0
 39 35  1  0  0  0  0
 40 36  2  0  0  0  0
 41 40  1  0  0  0  0
 41 38  2  0  0  0  0
 42 44  1  0  0  0  0
 43 49  1  6  0  0  0
 43 45  1  0  0  0  0
 43 48  1  0  0  0  0
 46 42  1  1  0  0  0
 46 43  1  0  0  0  0
 46 45  1  0  0  0  0
 48 44  1  0  0  0  0
 48 47  1  1  0  0  0
M  END
>  <MODEL>
5

>  <REMARK>
 VINA RESULT:      -6.4      3.414      9.191
  Name = 
  14 active torsions:
  status: ('A' for Active; 'I' for Inactive)
    1  A    between atoms: C_1  and  N_36
    2  A    between atoms: N_3  and  C_44
    3  A    between atoms: C_4  and  O_15
    4  A    between atoms: C_4  and  C_26
    5  A    between atoms: C_5  and  C_32
    6  A    between atoms: C_7  and  C_35
    7  A    between atoms: O_15  and  N_45
    8  A    between atoms: C_24  and  N_36
    9  A    between atoms: C_27  and  C_43
   10  A    between atoms: C_37  and  O_39
   11  A    between atoms: C_37  and  C_44
   12  A    between atoms: C_38  and  C_41
   13  A    between atoms: C_38  and  N_49
   14  A    between atoms: C_43  and  N_49
                            x       y       z     vdW  Elec       q    Type
                         _______ _______ _______ _____ _____    ______ ____

>  <TORSDO>
F 14

$$$$
=
 OpenBabel10222418303D

 49 55  0  0  1  0  0  0  0  0999 V2000
  186.4140  178.2740  138.9630 O   0  0  0  0  0  0  0  0  0  0  0  0
  188.0120  177.8760  140.5920 N   0  0  0  0  0  0  0  0  0  0  0  0
  186.6970  178.2640  140.1930 C   0  0  0  0  0  0  0  0  0  0  0  0
  188.7480  176.2860  142.3620 C   0  0  0  0  0  1  0  0  0  0  0  0
  189.4110  177.4380  140.2760 C   0  0  0  0  0  2  0  0  0  0  0  0
  185.7070  178.6270  141.1780 N   0  0  0  0  0  0  0  0  0  0  0  0
  189.0580  177.5610  141.6020 C   0  0  1  0  0  0  0  0  0  0  0  0
  184.3050  178.8700  140.8020 C   0  0  1  0  0  3  0  0  0  0  0  0
  182.1010  176.9630  138.4880 N   0  0  0  0  0  2  0  0  0  0  0  0
  182.9740  177.8730  139.1610 C   0  0  0  0  0  0  0  0  0  0  0  0
  183.2900  179.0220  138.6700 N   0  0  0  0  0  0  0  0  0  0  0  0
  184.1900  179.7410  139.5490 C   0  0  0  0  0  2  0  0  0  0  0  0
  183.5670  177.5750  140.4830 C   0  0  0  0  0  2  0  0  0  0  0  0
  181.5170  177.2420  137.1820 C   0  0  0  0  0  2  0  0  0  0  0  0
  181.1290  175.9730  136.4960 C   0  0  0  0  0  0  0  0  0  0  0  0
  181.7590  175.5930  135.4700 O   0  0  0  0  0  0  0  0  0  0  0  0
  180.1460  173.7990  137.0960 C   0  0  0  0  0  1  0  0  0  0  0  0
  180.0770  175.2140  137.0100 O   0  0  0  0  0  0  0  0  0  0  0  0
  185.4390  179.9620  143.2140 C   0  0  0  0  0  2  0  0  0  0  0  0
  185.3970  177.8420  143.5380 C   0  0  0  0  0  2  0  0  0  0  0  0
  186.1350  178.7700  142.5780 C   0  0  1  0  0  3  0  0  0  0  0  0
  184.7030  179.0360  144.1670 C   0  0  2  0  0  3  0  0  0  0  0  0
  183.2760  179.0120  143.8330 C   0  0  0  0  0  0  0  0  0  0  0  0
  182.1020  179.0040  143.5550 C   0  0  0  0  0  0  0  0  0  0  0  0
  180.6780  179.0040  143.2160 C   0  0  0  0  0  2  0  0  0  0  0  0
  180.4710  179.7190  142.0050 O   0  0  0  0  0  0  0  0  0  0  0  0
  180.0620  181.2300  139.1950 S   0  0  0  0  0  0  0  0  0  0  0  0
  178.9380  177.7310  139.6100 C   0  0  0  0  0  3  0  0  0  0  0  0
  179.0420  178.8430  138.8450 N   0  0  0  0  0  2  0  0  0  0  0  0
  179.4370  177.9280  140.8490 N   0  0  0  0  0  0  0  0  0  0  0  0
  179.8610  179.1770  140.8860 N   0  0  0  0  0  0  0  0  0  0  0  0
  179.6260  179.7260  139.6750 C   0  0  0  0  0  0  0  0  0  0  0  0
  189.5370  178.7990  142.3420 C   0  0  0  0  0  2  0  0  0  0  0  0
  190.9640  178.7020  142.5940 N   0  0  0  0  0  2  0  0  0  0  0  0
  191.1890  179.1860  143.9460 C   0  0  0  0  0  2  0  0  0  0  0  0
  189.7200  176.9790  146.6620 C   0  0  0  0  0  0  0  0  0  0  0  0
  189.8730  177.9980  145.7060 C   0  0  0  0  0  3  0  0  0  0  0  0
  192.0260  177.1050  145.0530 C   0  0  0  0  0  3  0  0  0  0  0  0
  191.0180  178.0630  144.9060 C   0  0  0  0  0  0  0  0  0  0  0  0
  190.7340  176.0110  146.7820 C   0  0  0  0  0  3  0  0  0  0  0  0
  191.8810  176.0750  145.9860 C   0  0  0  0  0  3  0  0  0  0  0  0
  186.6300  178.4660  146.9400 C   0  0  0  0  0  2  0  0  0  0  0  0
  188.4040  178.0510  148.5390 C   0  0  2  0  0  0  0  0  0  0  0  0
  187.2450  177.1110  146.6090 C   0  0  0  0  0  2  0  0  0  0  0  0
  187.1640  178.2940  149.3740 C   0  0  0  0  0  2  0  0  0  0  0  0
  187.4020  179.0880  148.0930 C   0  0  2  0  0  3  0  0  0  0  0  0
  188.3140  175.5860  148.2380 C   0  0  0  0  0  1  0  0  0  0  0  0
  188.4560  176.9190  147.5090 C   0  0  1  0  0  0  0  0  0  0  0  0
  189.5860  178.6080  149.0330 O   0  0  0  0  0  1  0  0  0  0  0  0
  1  3  2  0  0  0  0
  2  7  1  0  0  0  0
  3  2  1  0  0  0  0
  3  6  1  0  0  0  0
  5  2  1  0  0  0  0
  5  7  1  0  0  0  0
  7 33  1  0  0  0  0
  7  4  1  1  0  0  0
  8  6  1  6  0  0  0
  9 10  1  0  0  0  0
 10 13  1  0  0  0  0
 11 10  2  0  0  0  0
 11 12  1  0  0  0  0
 12  8  1  0  0  0  0
 13  8  1  0  0  0  0
 14  9  1  0  0  0  0
 15 18  1  0  0  0  0
 15 14  1  0  0  0  0
 16 15  2  0  0  0  0
 18 17  1  0  0  0  0
 19 22  1  0  0  0  0
 20 22  1  0  0  0  0
 21  6  1  6  0  0  0
 21 19  1  0  0  0  0
 21 20  1  0  0  0  0
 22 23  1  6  0  0  0
 24 23  3  0  0  0  0
 25 24  1  0  0  0  0
 26 25  1  0  0  0  0
 27 32  2  0  0  0  0
 28 30  2  0  0  0  0
 29 28  1  0  0  0  0
 29 32  1  0  0  0  0
 30 31  1  0  0  0  0
 31 26  1  0  0  0  0
 32 31  1  0  0  0  0
 33 34  1  0  0  0  0
 34 35  1  0  0  0  0
 35 39  1  0  0  0  0
 36 40  1  0  0  0  0
 36 48  1  0  0  0  0
 37 36  2  0  0  0  0
 38 41  1  0  0  0  0
 39 38  2  0  0  0  0
 39 37  1  0  0  0  0
 41 40  2  0  0  0  0
 43 49  1  1  0  0  0
 43 45  1  0  0  0  0
 44 42  1  0  0  0  0
 44 48  1  0  0  0  0
 46 42  1  6  0  0  0
 46 43  1  0  0  0  0
 46 45  1  0  0  0  0
 48 47  1  1  0  0  0
 48 43  1  0  0  0  0
M  END
>  <MODEL>
6

>  <REMARK>
 VINA RESULT:      -6.4      2.988      6.154
  Name = 
  14 active torsions:
  status: ('A' for Active; 'I' for Inactive)
    1  A    between atoms: C_1  and  N_36
    2  A    between atoms: N_3  and  C_44
    3  A    between atoms: C_4  and  O_15
    4  A    between atoms: C_4  and  C_26
    5  A    between atoms: C_5  and  C_32
    6  A    between atoms: C_7  and  C_35
    7  A    between atoms: O_15  and  N_45
    8  A    between atoms: C_24  and  N_36
    9  A    between atoms: C_27  and  C_43
   10  A    between atoms: C_37  and  O_39
   11  A    between atoms: C_37  and  C_44
   12  A    between atoms: C_38  and  C_41
   13  A    between atoms: C_38  and  N_49
   14  A    between atoms: C_43  and  N_49
                            x       y       z     vdW  Elec       q    Type
                         _______ _______ _______ _____ _____    ______ ____

>  <TORSDO>
F 14

$$$$
=
 OpenBabel10222418303D

 49 55  0  0  1  0  0  0  0  0999 V2000
  190.8030  176.0160  140.4840 O   0  0  0  0  0  0  0  0  0  0  0  0
  190.8790  175.5470  138.2170 N   0  0  0  0  0  0  0  0  0  0  0  0
  190.3130  176.2240  139.3390 C   0  0  0  0  0  0  0  0  0  0  0  0
  191.5570  176.4270  135.9880 C   0  0  0  0  0  1  0  0  0  0  0  0
  191.8580  174.5870  137.6120 C   0  0  0  0  0  2  0  0  0  0  0  0
  189.2090  177.1380  139.1680 N   0  0  0  0  0  0  0  0  0  0  0  0
  190.9990  175.2490  136.7640 C   0  0  1  0  0  0  0  0  0  0  0  0
  188.7210  177.9670  140.2810 C   0  0  1  0  0  3  0  0  0  0  0  0
  190.3110  178.7190  143.5610 N   0  0  0  0  0  2  0  0  0  0  0  0
  189.5470  178.2470  142.4480 C   0  0  0  0  0  0  0  0  0  0  0  0
  188.5210  177.4800  142.5880 N   0  0  0  0  0  0  0  0  0  0  0  0
  187.9350  177.1460  141.3050 C   0  0  0  0  0  2  0  0  0  0  0  0
  189.8630  178.6180  141.0520 C   0  0  0  0  0  2  0  0  0  0  0  0
  190.0150  178.3530  144.9400 C   0  0  0  0  0  2  0  0  0  0  0  0
  190.7140  177.0860  145.3110 C   0  0  0  0  0  0  0  0  0  0  0  0
  191.4360  176.4930  144.4630 O   0  0  0  0  0  0  0  0  0  0  0  0
  191.6850  176.3820  147.4600 C   0  0  0  0  0  1  0  0  0  0  0  0
  190.5700  176.5810  146.6040 O   0  0  0  0  0  0  0  0  0  0  0  0
  187.2040  176.5310  137.8990 C   0  0  0  0  0  2  0  0  0  0  0  0
  187.8720  178.5450  137.5830 C   0  0  0  0  0  2  0  0  0  0  0  0
  188.5620  177.2110  137.8490 C   0  0  1  0  0  3  0  0  0  0  0  0
  186.5180  177.8600  137.6370 C   0  0  2  0  0  3  0  0  0  0  0  0
  185.7930  178.2900  138.8360 C   0  0  0  0  0  0  0  0  0  0  0  0
  185.1990  178.6330  139.8280 C   0  0  0  0  0  0  0  0  0  0  0  0
  184.4770  179.0400  141.0350 C   0  0  0  0  0  2  0  0  0  0  0  0
  184.7070  178.0970  142.0740 O   0  0  0  0  0  0  0  0  0  0  0  0
  182.0580  179.0320  143.6410 S   0  0  0  0  0  0  0  0  0  0  0  0
  185.2540  178.6270  145.4590 C   0  0  0  0  0  3  0  0  0  0  0  0
  183.9450  178.9730  145.4580 N   0  0  0  0  0  0  0  0  0  0  0  0
  185.6800  178.2800  144.2260 N   0  0  0  0  0  2  0  0  0  0  0  0
  184.6420  178.4070  143.4220 N   0  0  0  0  0  0  0  0  0  0  0  0
  183.5950  178.8210  144.1670 C   0  0  0  0  0  0  0  0  0  0  0  0
  189.8040  174.4770  136.2320 C   0  0  0  0  0  2  0  0  0  0  0  0
  189.6690  174.6990  134.8030 N   0  0  0  0  0  2  0  0  0  0  0  0
  188.3910  175.3600  134.5970 C   0  0  0  0  0  2  0  0  0  0  0  0
  184.9640  173.8610  135.2430 C   0  0  0  0  0  0  0  0  0  0  0  0
  186.0020  174.7900  135.0530 C   0  0  0  0  0  3  0  0  0  0  0  0
  187.5640  172.9990  134.5950 C   0  0  0  0  0  3  0  0  0  0  0  0
  187.2940  174.3640  134.7310 C   0  0  0  0  0  0  0  0  0  0  0  0
  185.2480  172.4920  135.0810 C   0  0  0  0  0  3  0  0  0  0  0  0
  186.5400  172.0630  134.7630 C   0  0  0  0  0  3  0  0  0  0  0  0
  183.2680  176.7510  136.0220 C   0  0  0  0  0  2  0  0  0  0  0  0
  183.3740  174.5720  137.0790 C   0  0  2  0  0  0  0  0  0  0  0  0
  183.3380  175.7030  134.9180 C   0  0  0  0  0  2  0  0  0  0  0  0
  182.1180  175.2190  137.6250 C   0  0  0  0  0  2  0  0  0  0  0  0
  183.3700  176.0530  137.3700 C   0  0  2  0  0  3  0  0  0  0  0  0
  182.4840  173.3870  135.0840 C   0  0  0  0  0  1  0  0  0  0  0  0
  183.5610  174.3490  135.5750 C   0  0  1  0  0  0  0  0  0  0  0  0
  184.1250  173.8350  137.9980 O   0  0  0  0  0  1  0  0  0  0  0  0
  2  3  1  0  0  0  0
  3  1  2  0  0  0  0
  5  2  1  0  0  0  0
  6  3  1  0  0  0  0
  7  4  1  6  0  0  0
  7  5  1  0  0  0  0
  7  2  1  0  0  0  0
  8  6  1  6  0  0  0
  8 13  1  0  0  0  0
  8 12  1  0  0  0  0
  9 14  1  0  0  0  0
 10 11  2  0  0  0  0
 10  9  1  0  0  0  0
 12 11  1  0  0  0  0
 13 10  1  0  0  0  0
 14 15  1  0  0  0  0
 15 18  1  0  0  0  0
 16 15  2  0  0  0  0
 18 17  1  0  0  0  0
 20 22  1  0  0  0  0
 20 21  1  0  0  0  0
 21 19  1  0  0  0  0
 21  6  1  1  0  0  0
 22 19  1  0  0  0  0
 22 23  1  1  0  0  0
 23 24  3  0  0  0  0
 24 25  1  0  0  0  0
 25 26  1  0  0  0  0
 26 31  1  0  0  0  0
 27 32  2  0  0  0  0
 29 28  2  0  0  0  0
 30 28  1  0  0  0  0
 31 32  1  0  0  0  0
 31 30  1  0  0  0  0
 32 29  1  0  0  0  0
 33  7  1  0  0  0  0
 34 33  1  0  0  0  0
 35 39  1  0  0  0  0
 35 34  1  0  0  0  0
 36 48  1  0  0  0  0
 37 36  2  0  0  0  0
 38 39  2  0  0  0  0
 38 41  1  0  0  0  0
 39 37  1  0  0  0  0
 40 36  1  0  0  0  0
 41 40  2  0  0  0  0
 43 46  1  0  0  0  0
 43 45  1  0  0  0  0
 43 49  1  1  0  0  0
 44 48  1  0  0  0  0
 44 42  1  0  0  0  0
 46 42  1  6  0  0  0
 46 45  1  0  0  0  0
 48 47  1  6  0  0  0
 48 43  1  0  0  0  0
M  END
>  <MODEL>
7

>  <REMARK>
 VINA RESULT:      -6.3      3.631      7.682
  Name = 
  14 active torsions:
  status: ('A' for Active; 'I' for Inactive)
    1  A    between atoms: C_1  and  N_36
    2  A    between atoms: N_3  and  C_44
    3  A    between atoms: C_4  and  O_15
    4  A    between atoms: C_4  and  C_26
    5  A    between atoms: C_5  and  C_32
    6  A    between atoms: C_7  and  C_35
    7  A    between atoms: O_15  and  N_45
    8  A    between atoms: C_24  and  N_36
    9  A    between atoms: C_27  and  C_43
   10  A    between atoms: C_37  and  O_39
   11  A    between atoms: C_37  and  C_44
   12  A    between atoms: C_38  and  C_41
   13  A    between atoms: C_38  and  N_49
   14  A    between atoms: C_43  and  N_49
                            x       y       z     vdW  Elec       q    Type
                         _______ _______ _______ _____ _____    ______ ____

>  <TORSDO>
F 14

$$$$
=
 OpenBabel10222418303D

 49 55  0  0  1  0  0  0  0  0999 V2000
  192.4400  176.7590  141.7860 O   0  0  0  0  0  0  0  0  0  0  0  0
  190.4060  176.8580  142.8900 N   0  0  0  0  0  0  0  0  0  0  0  0
  191.2020  176.9910  141.7120 C   0  0  0  0  0  0  0  0  0  0  0  0
  188.2290  175.6980  143.2310 C   0  0  0  0  0  1  0  0  0  0  0  0
  190.2530  176.5680  144.3530 C   0  0  0  0  0  2  0  0  0  0  0  0
  190.6000  177.3730  140.4570 N   0  0  0  0  0  0  0  0  0  0  0  0
  189.1170  176.8600  143.6320 C   0  0  1  0  0  0  0  0  0  0  0  0
  191.3680  177.3560  139.2020 C   0  0  1  0  0  3  0  0  0  0  0  0
  193.4630  174.6530  137.7330 N   0  0  0  0  0  2  0  0  0  0  0  0
  192.9040  175.8010  138.3770 C   0  0  0  0  0  0  0  0  0  0  0  0
  193.6270  176.7850  138.7900 N   0  0  0  0  0  0  0  0  0  0  0  0
  192.8140  177.8120  139.4090 C   0  0  0  0  0  2  0  0  0  0  0  0
  191.4510  175.9580  138.6010 C   0  0  0  0  0  2  0  0  0  0  0  0
  194.8930  174.4830  137.5150 C   0  0  0  0  0  2  0  0  0  0  0  0
  195.5040  173.6820  138.6170 C   0  0  0  0  0  0  0  0  0  0  0  0
  195.0310  172.5480  138.9070 O   0  0  0  0  0  0  0  0  0  0  0  0
  196.4740  175.2450  140.2500 C   0  0  0  0  0  1  0  0  0  0  0  0
  196.6040  174.1940  139.3050 O   0  0  0  0  0  0  0  0  0  0  0  0
  189.0010  178.9550  139.4870 C   0  0  0  0  0  2  0  0  0  0  0  0
  188.2900  176.9340  139.5910 C   0  0  0  0  0  2  0  0  0  0  0  0
  189.1930  177.8030  140.4590 C   0  0  1  0  0  3  0  0  0  0  0  0
  188.1030  178.0870  138.6220 C   0  0  2  0  0  3  0  0  0  0  0  0
  188.7770  177.7840  137.3560 C   0  0  0  0  0  0  0  0  0  0  0  0
  189.3270  177.5240  136.3140 C   0  0  0  0  0  0  0  0  0  0  0  0
  189.9930  177.1990  135.0520 C   0  0  0  0  0  2  0  0  0  0  0  0
  189.5780  175.9140  134.6060 O   0  0  0  0  0  0  0  0  0  0  0  0
  186.9700  174.5650  135.9190 S   0  0  0  0  0  0  0  0  0  0  0  0
  190.3070  173.0530  136.4290 C   0  0  0  0  0  3  0  0  0  0  0  0
  188.9760  173.0560  136.6720 N   0  0  0  0  0  0  0  0  0  0  0  0
  190.6770  174.0980  135.6590 N   0  0  0  0  0  2  0  0  0  0  0  0
  189.5790  174.7840  135.4070 N   0  0  0  0  0  0  0  0  0  0  0  0
  188.5530  174.1520  136.0160 C   0  0  0  0  0  0  0  0  0  0  0  0
  188.5350  178.2570  143.7750 C   0  0  0  0  0  2  0  0  0  0  0  0
  187.2620  178.3340  143.0810 N   0  0  0  0  0  2  0  0  0  0  0  0
  186.2230  178.1860  144.0860 C   0  0  0  0  0  2  0  0  0  0  0  0
  183.5340  178.6290  141.4440 C   0  0  0  0  0  0  0  0  0  0  0  0
  184.7700  178.3710  142.0620 C   0  0  0  0  0  3  0  0  0  0  0  0
  183.7760  178.6820  144.2470 C   0  0  0  0  0  3  0  0  0  0  0  0
  184.8920  178.3980  143.4540 C   0  0  0  0  0  0  0  0  0  0  0  0
  182.4160  178.8920  142.2560 C   0  0  0  0  0  3  0  0  0  0  0  0
  182.5360  178.9220  143.6480 C   0  0  0  0  0  3  0  0  0  0  0  0
  181.2840  179.2670  138.9200 C   0  0  0  0  0  2  0  0  0  0  0  0
  182.6530  177.3390  139.4530 C   0  0  2  0  0  0  0  0  0  0  0  0
  182.6200  179.7780  139.4470 C   0  0  0  0  0  2  0  0  0  0  0  0
  182.2680  177.1650  137.9980 C   0  0  0  0  0  2  0  0  0  0  0  0
  181.2740  177.7480  138.9980 C   0  0  2  0  0  3  0  0  0  0  0  0
  184.7860  178.5980  139.2450 C   0  0  0  0  0  1  0  0  0  0  0  0
  183.4210  178.5760  139.9260 C   0  0  1  0  0  0  0  0  0  0  0  0
  182.6530  176.1740  140.2230 O   0  0  0  0  0  1  0  0  0  0  0  0
  2  7  1  0  0  0  0
  2  5  1  0  0  0  0
  3  1  2  0  0  0  0
  3  2  1  0  0  0  0
  6  3  1  0  0  0  0
  7  4  1  6  0  0  0
  7 33  1  0  0  0  0
  7  5  1  0  0  0  0
  8 12  1  0  0  0  0
  8  6  1  1  0  0  0
  9 10  1  0  0  0  0
 10 13  1  0  0  0  0
 10 11  2  0  0  0  0
 11 12  1  0  0  0  0
 13  8  1  0  0  0  0
 14  9  1  0  0  0  0
 14 15  1  0  0  0  0
 15 16  2  0  0  0  0
 15 18  1  0  0  0  0
 18 17  1  0  0  0  0
 19 21  1  0  0  0  0
 20 21  1  0  0  0  0
 21  6  1  6  0  0  0
 22 23  1  6  0  0  0
 22 19  1  0  0  0  0
 22 20  1  0  0  0  0
 24 23  3  0  0  0  0
 25 24  1  0  0  0  0
 26 25  1  0  0  0  0
 26 31  1  0  0  0  0
 27 32  2  0  0  0  0
 28 29  2  0  0  0  0
 30 28  1  0  0  0  0
 31 30  1  0  0  0  0
 31 32  1  0  0  0  0
 32 29  1  0  0  0  0
 34 33  1  0  0  0  0
 34 35  1  0  0  0  0
 36 37  2  0  0  0  0
 36 40  1  0  0  0  0
 37 39  1  0  0  0  0
 39 35  1  0  0  0  0
 39 38  2  0  0  0  0
 40 41  2  0  0  0  0
 41 38  1  0  0  0  0
 42 46  1  0  0  0  0
 42 44  1  0  0  0  0
 43 48  1  0  0  0  0
 43 49  1  1  0  0  0
 44 48  1  0  0  0  0
 45 43  1  0  0  0  0
 46 45  1  6  0  0  0
 46 43  1  0  0  0  0
 48 47  1  6  0  0  0
 48 36  1  0  0  0  0
M  END
>  <MODEL>
8

>  <REMARK>
 VINA RESULT:      -6.3      4.142      9.732
  Name = 
  14 active torsions:
  status: ('A' for Active; 'I' for Inactive)
    1  A    between atoms: C_1  and  N_36
    2  A    between atoms: N_3  and  C_44
    3  A    between atoms: C_4  and  O_15
    4  A    between atoms: C_4  and  C_26
    5  A    between atoms: C_5  and  C_32
    6  A    between atoms: C_7  and  C_35
    7  A    between atoms: O_15  and  N_45
    8  A    between atoms: C_24  and  N_36
    9  A    between atoms: C_27  and  C_43
   10  A    between atoms: C_37  and  O_39
   11  A    between atoms: C_37  and  C_44
   12  A    between atoms: C_38  and  C_41
   13  A    between atoms: C_38  and  N_49
   14  A    between atoms: C_43  and  N_49
                            x       y       z     vdW  Elec       q    Type
                         _______ _______ _______ _____ _____    ______ ____

>  <TORSDO>
F 14

$$$$
=
 OpenBabel10222418303D

 49 55  0  0  1  0  0  0  0  0999 V2000
  182.4030  178.2930  141.4520 O   0  0  0  0  0  0  0  0  0  0  0  0
  183.7160  178.6800  143.3200 N   0  0  0  0  0  0  0  0  0  0  0  0
  183.5520  178.5430  141.9080 C   0  0  0  0  0  0  0  0  0  0  0  0
  184.9010  180.4330  144.6340 C   0  0  0  0  0  1  0  0  0  0  0  0
  183.1750  178.6630  144.7180 C   0  0  0  0  0  2  0  0  0  0  0  0
  184.6780  178.6990  141.0190 N   0  0  0  0  0  0  0  0  0  0  0  0
  184.5060  178.9710  144.5460 C   0  0  1  0  0  0  0  0  0  0  0  0
  184.5020  178.7250  139.5570 C   0  0  1  0  0  3  0  0  0  0  0  0
  181.6480  179.9860  137.5290 N   0  0  0  0  0  2  0  0  0  0  0  0
  182.6340  179.2480  138.2570 C   0  0  0  0  0  0  0  0  0  0  0  0
  182.7120  177.9630  138.2110 N   0  0  0  0  0  0  0  0  0  0  0  0
  183.7920  177.4710  139.0440 C   0  0  0  0  0  2  0  0  0  0  0  0
  183.6510  179.9050  139.1060 C   0  0  0  0  0  2  0  0  0  0  0  0
  180.6350  179.3490  136.6970 C   0  0  0  0  0  2  0  0  0  0  0  0
  181.0030  179.4440  135.2520 C   0  0  0  0  0  0  0  0  0  0  0  0
  180.8740  180.5410  134.6410 O   0  0  0  0  0  0  0  0  0  0  0  0
  180.9480  177.0250  134.8060 C   0  0  0  0  0  1  0  0  0  0  0  0
  181.5000  178.3160  134.5990 O   0  0  0  0  0  0  0  0  0  0  0  0
  186.8010  177.5300  141.3720 C   0  0  0  0  0  2  0  0  0  0  0  0
  187.0110  179.5630  140.7210 C   0  0  0  0  0  2  0  0  0  0  0  0
  186.0220  178.8130  141.6060 C   0  0  1  0  0  3  0  0  0  0  0  0
  187.7840  178.2770  140.4890 C   0  0  2  0  0  3  0  0  0  0  0  0
  187.6250  177.8490  139.0960 C   0  0  0  0  0  0  0  0  0  0  0  0
  187.4860  177.5040  137.9480 C   0  0  0  0  0  0  0  0  0  0  0  0
  187.3080  177.0900  136.5560 C   0  0  0  0  0  2  0  0  0  0  0  0
  188.5400  176.6060  136.0360 O   0  0  0  0  0  0  0  0  0  0  0  0
  191.3150  176.3790  137.6460 S   0  0  0  0  0  0  0  0  0  0  0  0
  189.3940  173.3320  136.8050 C   0  0  0  0  0  3  0  0  0  0  0  0
  190.4930  173.9100  137.3470 N   0  0  0  0  0  0  0  0  0  0  0  0
  188.5660  174.2480  136.2590 N   0  0  0  0  0  2  0  0  0  0  0  0
  189.1350  175.4230  136.4430 N   0  0  0  0  0  0  0  0  0  0  0  0
  190.2950  175.2190  137.1030 C   0  0  0  0  0  0  0  0  0  0  0  0
  185.5220  177.8820  144.8490 C   0  0  0  0  0  2  0  0  0  0  0  0
  185.5080  177.5760  146.2690 N   0  0  0  0  0  2  0  0  0  0  0  0
  186.1760  178.6750  146.9450 C   0  0  0  0  0  2  0  0  0  0  0  0
  189.7610  177.5580  146.3900 C   0  0  0  0  0  0  0  0  0  0  0  0
  188.4390  177.9720  146.1530 C   0  0  0  0  0  3  0  0  0  0  0  0
  188.0570  178.2190  148.5300 C   0  0  0  0  0  3  0  0  0  0  0  0
  187.5910  178.3000  147.2150 C   0  0  0  0  0  0  0  0  0  0  0  0
  190.2210  177.5020  147.7180 C   0  0  0  0  0  3  0  0  0  0  0  0
  189.3750  177.8260  148.7820 C   0  0  0  0  0  3  0  0  0  0  0  0
  191.0450  178.9740  143.5290 C   0  0  0  0  0  2  0  0  0  0  0  0
  189.8760  176.8930  143.9510 C   0  0  2  0  0  0  0  0  0  0  0  0
  191.5150  178.4430  144.8780 C   0  0  0  0  0  2  0  0  0  0  0  0
  190.5680  176.6970  142.6180 C   0  0  0  0  0  2  0  0  0  0  0  0
  189.9650  178.0500  142.9860 C   0  0  2  0  0  3  0  0  0  0  0  0
  191.6070  176.0570  145.5270 C   0  0  0  0  0  1  0  0  0  0  0  0
  190.6720  177.2230  145.2170 C   0  0  1  0  0  0  0  0  0  0  0  0
  188.5880  176.3600  144.0490 O   0  0  0  0  0  1  0  0  0  0  0  0
  1  3  2  0  0  0  0
  2  7  1  0  0  0  0
  2  5  1  0  0  0  0
  3  2  1  0  0  0  0
  6  3  1  0  0  0  0
  7  4  1  1  0  0  0
  7  5  1  0  0  0  0
  7 33  1  0  0  0  0
  8  6  1  1  0  0  0
  9 10  1  0  0  0  0
 10 13  1  0  0  0  0
 11 10  2  0  0  0  0
 11 12  1  0  0  0  0
 12  8  1  0  0  0  0
 13  8  1  0  0  0  0
 14  9  1  0  0  0  0
 15 14  1  0  0  0  0
 16 15  2  0  0  0  0
 18 17  1  0  0  0  0
 18 15  1  0  0  0  0
 19 21  1  0  0  0  0
 20 21  1  0  0  0  0
 21  6  1  6  0  0  0
 22 23  1  6  0  0  0
 22 20  1  0  0  0  0
 22 19  1  0  0  0  0
 24 23  3  0  0  0  0
 25 24  1  0  0  0  0
 26 31  1  0  0  0  0
 26 25  1  0  0  0  0
 28 29  2  0  0  0  0
 30 31  1  0  0  0  0
 30 28  1  0  0  0  0
 31 32  1  0  0  0  0
 32 29  1  0  0  0  0
 32 27  2  0  0  0  0
 33 34  1  0  0  0  0
 34 35  1  0  0  0  0
 35 39  1  0  0  0  0
 36 40  1  0  0  0  0
 37 36  2  0  0  0  0
 37 39  1  0  0  0  0
 38 41  1  0  0  0  0
 39 38  2  0  0  0  0
 40 41  2  0  0  0  0
 42 44  1  0  0  0  0
 43 49  1  1  0  0  0
 43 48  1  0  0  0  0
 44 48  1  0  0  0  0
 45 43  1  0  0  0  0
 46 45  1  6  0  0  0
 46 42  1  0  0  0  0
 46 43  1  0  0  0  0
 48 47  1  1  0  0  0
 48 36  1  0  0  0  0
M  END
>  <MODEL>
9

>  <REMARK>
 VINA RESULT:      -6.2      2.872      7.595
  Name = 
  14 active torsions:
  status: ('A' for Active; 'I' for Inactive)
    1  A    between atoms: C_1  and  N_36
    2  A    between atoms: N_3  and  C_44
    3  A    between atoms: C_4  and  O_15
    4  A    between atoms: C_4  and  C_26
    5  A    between atoms: C_5  and  C_32
    6  A    between atoms: C_7  and  C_35
    7  A    between atoms: O_15  and  N_45
    8  A    between atoms: C_24  and  N_36
    9  A    between atoms: C_27  and  C_43
   10  A    between atoms: C_37  and  O_39
   11  A    between atoms: C_37  and  C_44
   12  A    between atoms: C_38  and  C_41
   13  A    between atoms: C_38  and  N_49
   14  A    between atoms: C_43  and  N_49
                            x       y       z     vdW  Elec       q    Type
                         _______ _______ _______ _____ _____    ______ ____

>  <TORSDO>
F 14

$$$$
