=
 OpenBabel10222416363D

 32 36  0  0  1  0  0  0  0  0999 V2000
  183.6120  178.8280  141.0970 C   0  0  0  0  0  0  0  0  0  0  0  0
  184.3270  178.5240  143.4130 C   0  0  0  0  0  0  0  0  0  0  0  0
  184.6230  178.6070  142.0440 C   0  0  0  0  0  3  0  0  0  0  0  0
  182.2910  178.9850  141.5380 C   0  0  0  0  0  3  0  0  0  0  0  0
  182.9970  178.6760  143.8320 C   0  0  0  0  0  3  0  0  0  0  0  0
  181.9830  178.9060  142.8990 C   0  0  0  0  0  0  0  0  0  0  0  0
  186.6150  177.8110  144.0710 C   0  0  0  0  0  3  0  0  0  0  0  0
  187.2950  177.7340  145.2620 C   0  0  0  0  0  0  0  0  0  0  0  0
  188.5530  177.3500  145.6950 C   0  0  0  0  0  0  0  0  0  0  0  0
  189.6240  176.8700  144.9480 C   0  0  0  0  0  3  0  0  0  0  0  0
  186.4810  178.1550  146.2460 C   0  0  0  0  0  0  0  0  0  0  0  0
  187.2200  178.1010  147.7630 S   0  0  0  0  0  0  0  0  0  0  0  0
  189.8050  177.1870  147.7350 N   0  0  0  0  0  0  0  0  0  0  0  0
  185.2690  178.5080  145.7120 C   0  0  0  0  0  3  0  0  0  0  0  0
  190.8050  176.5480  145.6360 C   0  0  0  0  0  3  0  0  0  0  0  0
  190.8780  176.7140  147.0340 C   0  0  0  0  0  0  0  0  0  0  0  0
  185.3720  178.2880  144.3710 N   0  0  0  0  0  0  0  0  0  0  0  0
  188.6610  177.5000  147.0760 C   0  0  0  0  0  0  0  0  0  0  0  0
  192.0900  176.3810  147.7280 C   0  0  0  0  0  0  0  0  0  0  0  0
  193.0660  176.1130  148.2870 N   0  0  0  0  0  0  0  0  0  0  0  0
  184.4470  177.9100  137.5260 O   0  0  0  0  0  0  0  0  0  0  0  0
  183.4640  177.2840  136.7400 C   0  0  2  0  0  3  0  0  0  0  0  0
  182.8320  176.1860  137.5780 C   0  0  0  0  0  2  0  0  0  0  0  0
  183.9720  177.7880  138.7920 N   0  0  0  0  0  0  0  0  0  0  0  0
  184.1820  180.0730  139.1680 O   0  0  0  0  0  0  0  0  0  0  0  0
  183.9250  178.9380  139.6530 C   0  0  0  0  0  0  0  0  0  0  0  0
  183.0820  176.6620  138.9780 C   0  0  0  0  0  2  0  0  0  0  0  0
  183.9850  175.3140  135.4600 O   0  0  0  0  0  1  0  0  0  0  0  0
  185.5140  177.1340  135.3260 C   0  0  0  0  0  1  0  0  0  0  0  0
  184.0650  176.7090  135.4620 C   0  0  2  0  0  3  0  0  0  0  0  0
  179.4860  179.1960  143.7070 C   0  0  0  0  0  3  0  0  0  0  0  0
  180.6250  179.0640  143.3380 C   0  0  0  0  0  0  0  0  0  0  0  0
  1  4  2  0  0  0  0
  1  3  1  0  0  0  0
  2  5  1  0  0  0  0
  2 17  1  0  0  0  0
  3  2  2  0  0  0  0
  4  6  1  0  0  0  0
  6 32  1  0  0  0  0
  6  5  2  0  0  0  0
  7 17  1  0  0  0  0
  7  8  2  0  0  0  0
  8  9  1  0  0  0  0
  8 11  1  0  0  0  0
  9 18  1  0  0  0  0
 10 15  1  0  0  0  0
 10  9  2  0  0  0  0
 11 12  1  0  0  0  0
 14 11  2  0  0  0  0
 15 16  2  0  0  0  0
 16 19  1  0  0  0  0
 16 13  1  0  0  0  0
 17 14  1  0  0  0  0
 18 13  2  0  0  0  0
 18 12  1  0  0  0  0
 19 20  3  0  0  0  0
 21 24  1  0  0  0  0
 22 30  1  6  0  0  0
 22 21  1  0  0  0  0
 22 23  1  0  0  0  0
 23 27  1  0  0  0  0
 24 27  1  0  0  0  0
 24 26  1  0  0  0  0
 25 26  2  0  0  0  0
 26  1  1  0  0  0  0
 28 30  1  0  0  0  0
 30 29  1  1  0  0  0
 32 31  3  0  0  0  0
M  END
>  <MODEL>
1

>  <REMARK>
 VINA RESULT:      -9.4      0.000      0.000
  Name = 
  5 active torsions:
  status: ('A' for Active; 'I' for Inactive)
    1  A    between atoms: C_2  and  C_29
    2  A    between atoms: C_10  and  C_11
    3  A    between atoms: C_17  and  N_31
    4  A    between atoms: C_22  and  C_30
    5  A    between atoms: C_27  and  C_28
                            x       y       z     vdW  Elec       q    Type
                         _______ _______ _______ _____ _____    ______ ____

>  <TORSDO>
F 5

$$$$
=
 OpenBabel10222416363D

 32 36  0  0  1  0  0  0  0  0999 V2000
  185.6410  178.4400  144.6430 C   0  0  0  0  0  0  0  0  0  0  0  0
  187.6810  177.8510  143.4370 C   0  0  0  0  0  0  0  0  0  0  0  0
  186.3320  178.2340  143.4410 C   0  0  0  0  0  3  0  0  0  0  0  0
  186.3250  178.2760  145.8560 C   0  0  0  0  0  3  0  0  0  0  0  0
  188.3440  177.6850  144.6620 C   0  0  0  0  0  3  0  0  0  0  0  0
  187.6700  177.8970  145.8670 C   0  0  0  0  0  0  0  0  0  0  0  0
  189.7260  177.4970  142.0700 C   0  0  0  0  0  3  0  0  0  0  0  0
  189.9690  177.3080  140.7320 C   0  0  0  0  0  0  0  0  0  0  0  0
  191.0680  177.1090  139.9130 C   0  0  0  0  0  0  0  0  0  0  0  0
  192.4130  177.0330  140.2600 C   0  0  0  0  0  3  0  0  0  0  0  0
  188.7950  177.3300  140.0770 C   0  0  0  0  0  0  0  0  0  0  0  0
  188.9770  177.1060  138.4130 S   0  0  0  0  0  0  0  0  0  0  0  0
  191.5720  176.7740  137.5910 N   0  0  0  0  0  0  0  0  0  0  0  0
  187.7790  177.5330  140.9750 C   0  0  0  0  0  3  0  0  0  0  0  0
  193.3410  176.8230  139.2280 C   0  0  0  0  0  3  0  0  0  0  0  0
  192.9010  176.6940  137.8950 C   0  0  0  0  0  0  0  0  0  0  0  0
  188.3740  177.6340  142.1970 N   0  0  0  0  0  0  0  0  0  0  0  0
  190.6710  176.9780  138.5840 C   0  0  0  0  0  0  0  0  0  0  0  0
  193.8580  176.4790  136.8470 C   0  0  0  0  0  0  0  0  0  0  0  0
  194.6300  176.3060  136.0020 N   0  0  0  0  0  0  0  0  0  0  0  0
  182.2760  179.7300  143.5000 O   0  0  0  0  0  0  0  0  0  0  0  0
  181.4980  178.9290  142.6450 C   0  0  2  0  0  3  0  0  0  0  0  0
  182.4110  178.3960  141.5540 C   0  0  0  0  0  2  0  0  0  0  0  0
  183.5080  179.1640  143.4370 N   0  0  0  0  0  0  0  0  0  0  0  0
  183.6250  178.9900  145.7530 O   0  0  0  0  0  0  0  0  0  0  0  0
  184.2210  178.8650  144.6490 C   0  0  0  0  0  0  0  0  0  0  0  0
  183.7600  178.4420  142.2080 C   0  0  0  0  0  2  0  0  0  0  0  0
  180.0320  180.8260  142.8430 O   0  0  0  0  0  1  0  0  0  0  0  0
  179.1220  178.8440  141.8890 C   0  0  0  0  0  1  0  0  0  0  0  0
  180.3460  179.7260  142.0420 C   0  0  2  0  0  3  0  0  0  0  0  0
  188.9360  177.5860  148.1630 C   0  0  0  0  0  3  0  0  0  0  0  0
  188.3580  177.7280  147.1150 C   0  0  0  0  0  0  0  0  0  0  0  0
  1 26  1  0  0  0  0
  1  4  1  0  0  0  0
  2  3  1  0  0  0  0
  2  5  2  0  0  0  0
  3  1  2  0  0  0  0
  4  6  2  0  0  0  0
  5  6  1  0  0  0  0
  6 32  1  0  0  0  0
  7 17  1  0  0  0  0
  8  7  2  0  0  0  0
  9 10  1  0  0  0  0
  9  8  1  0  0  0  0
 11  8  1  0  0  0  0
 11 14  2  0  0  0  0
 12 18  1  0  0  0  0
 12 11  1  0  0  0  0
 13 16  2  0  0  0  0
 13 18  1  0  0  0  0
 14 17  1  0  0  0  0
 15 10  2  0  0  0  0
 16 15  1  0  0  0  0
 17  2  1  0  0  0  0
 18  9  2  0  0  0  0
 19 16  1  0  0  0  0
 20 19  3  0  0  0  0
 22 30  1  6  0  0  0
 22 21  1  0  0  0  0
 23 27  1  0  0  0  0
 23 22  1  0  0  0  0
 24 21  1  0  0  0  0
 24 26  1  0  0  0  0
 26 25  2  0  0  0  0
 27 24  1  0  0  0  0
 30 29  1  1  0  0  0
 30 28  1  0  0  0  0
 32 31  3  0  0  0  0
M  END
>  <MODEL>
2

>  <REMARK>
 VINA RESULT:      -8.7      4.814      7.245
  Name = 
  5 active torsions:
  status: ('A' for Active; 'I' for Inactive)
    1  A    between atoms: C_2  and  C_29
    2  A    between atoms: C_10  and  C_11
    3  A    between atoms: C_17  and  N_31
    4  A    between atoms: C_22  and  C_30
    5  A    between atoms: C_27  and  C_28
                            x       y       z     vdW  Elec       q    Type
                         _______ _______ _______ _____ _____    ______ ____

>  <TORSDO>
F 5

$$$$
=
 OpenBabel10222416363D

 32 36  0  0  1  0  0  0  0  0999 V2000
  187.0510  177.9300  144.9580 C   0  0  0  0  0  0  0  0  0  0  0  0
  186.9430  177.9710  142.5180 C   0  0  0  0  0  0  0  0  0  0  0  0
  187.6660  177.7840  143.7060 C   0  0  0  0  0  3  0  0  0  0  0  0
  185.6880  178.2530  145.0110 C   0  0  0  0  0  3  0  0  0  0  0  0
  185.5820  178.3010  142.5940 C   0  0  0  0  0  3  0  0  0  0  0  0
  184.9560  178.4400  143.8350 C   0  0  0  0  0  0  0  0  0  0  0  0
  188.8050  177.2390  141.0430 C   0  0  0  0  0  3  0  0  0  0  0  0
  189.0490  177.3080  139.6940 C   0  0  0  0  0  0  0  0  0  0  0  0
  190.0520  176.9270  138.8180 C   0  0  0  0  0  0  0  0  0  0  0  0
  191.2530  176.2810  139.0940 C   0  0  0  0  0  3  0  0  0  0  0  0
  188.0070  177.9190  139.1020 C   0  0  0  0  0  0  0  0  0  0  0  0
  188.2030  178.0580  137.4310 S   0  0  0  0  0  0  0  0  0  0  0  0
  190.5490  177.0110  136.4720 N   0  0  0  0  0  0  0  0  0  0  0  0
  187.0780  178.2530  140.0530 C   0  0  0  0  0  3  0  0  0  0  0  0
  192.1060  176.0050  138.0140 C   0  0  0  0  0  3  0  0  0  0  0  0
  191.7370  176.3780  136.7050 C   0  0  0  0  0  0  0  0  0  0  0  0
  187.5890  177.8260  141.2420 N   0  0  0  0  0  0  0  0  0  0  0  0
  189.7200  177.2810  137.5110 C   0  0  0  0  0  0  0  0  0  0  0  0
  192.6170  176.0900  135.6080 C   0  0  0  0  0  0  0  0  0  0  0  0
  193.3260  175.8590  134.7240 N   0  0  0  0  0  0  0  0  0  0  0  0
  189.6250  176.6750  147.4260 O   0  0  0  0  0  0  0  0  0  0  0  0
  190.9510  177.1280  147.3100 C   0  0  2  0  0  3  0  0  0  0  0  0
  191.3420  177.0480  145.8450 C   0  0  0  0  0  2  0  0  0  0  0  0
  189.0640  177.0180  146.2370 N   0  0  0  0  0  0  0  0  0  0  0  0
  187.3200  178.1290  147.2990 O   0  0  0  0  0  0  0  0  0  0  0  0
  187.8070  177.7120  146.2130 C   0  0  0  0  0  0  0  0  0  0  0  0
  190.0140  177.1260  145.1500 C   0  0  0  0  0  2  0  0  0  0  0  0
  192.8050  177.1050  148.8430 O   0  0  0  0  0  1  0  0  0  0  0  0
  192.6460  175.2970  147.3020 C   0  0  0  0  0  1  0  0  0  0  0  0
  191.8950  176.2900  148.1670 C   0  0  2  0  0  3  0  0  0  0  0  0
  182.3910  179.0550  143.9590 C   0  0  0  0  0  3  0  0  0  0  0  0
  183.5620  178.7740  143.9030 C   0  0  0  0  0  0  0  0  0  0  0  0
  1  4  1  0  0  0  0
  1 26  1  0  0  0  0
  2  5  2  0  0  0  0
  2  3  1  0  0  0  0
  3  1  2  0  0  0  0
  5  6  1  0  0  0  0
  6 32  1  0  0  0  0
  6  4  2  0  0  0  0
  7 17  1  0  0  0  0
  8  7  2  0  0  0  0
  9 10  1  0  0  0  0
  9  8  1  0  0  0  0
 11  8  1  0  0  0  0
 11 14  2  0  0  0  0
 12 18  1  0  0  0  0
 12 11  1  0  0  0  0
 13 16  2  0  0  0  0
 13 18  1  0  0  0  0
 14 17  1  0  0  0  0
 15 10  2  0  0  0  0
 16 15  1  0  0  0  0
 17  2  1  0  0  0  0
 18  9  2  0  0  0  0
 19 16  1  0  0  0  0
 20 19  3  0  0  0  0
 22 21  1  0  0  0  0
 22 30  1  1  0  0  0
 23 22  1  0  0  0  0
 24 21  1  0  0  0  0
 26 24  1  0  0  0  0
 26 25  2  0  0  0  0
 27 23  1  0  0  0  0
 27 24  1  0  0  0  0
 30 29  1  6  0  0  0
 30 28  1  0  0  0  0
 32 31  3  0  0  0  0
M  END
>  <MODEL>
3

>  <REMARK>
 VINA RESULT:      -8.6      5.491      9.011
  Name = 
  5 active torsions:
  status: ('A' for Active; 'I' for Inactive)
    1  A    between atoms: C_2  and  C_29
    2  A    between atoms: C_10  and  C_11
    3  A    between atoms: C_17  and  N_31
    4  A    between atoms: C_22  and  C_30
    5  A    between atoms: C_27  and  C_28
                            x       y       z     vdW  Elec       q    Type
                         _______ _______ _______ _____ _____    ______ ____

>  <TORSDO>
F 5

$$$$
=
 OpenBabel10222416363D

 32 36  0  0  1  0  0  0  0  0999 V2000
  182.1820  178.9540  140.3940 C   0  0  0  0  0  0  0  0  0  0  0  0
  183.7120  178.5510  142.2550 C   0  0  0  0  0  0  0  0  0  0  0  0
  183.4740  178.7110  140.8810 C   0  0  0  0  0  3  0  0  0  0  0  0
  181.1210  179.0520  141.3040 C   0  0  0  0  0  3  0  0  0  0  0  0
  182.6340  178.6460  143.1470 C   0  0  0  0  0  3  0  0  0  0  0  0
  181.3440  178.8970  142.6740 C   0  0  0  0  0  0  0  0  0  0  0  0
  185.3690  178.0820  144.0470 C   0  0  0  0  0  3  0  0  0  0  0  0
  186.7260  177.8780  144.0750 C   0  0  0  0  0  0  0  0  0  0  0  0
  187.6990  177.6180  145.0250 C   0  0  0  0  0  0  0  0  0  0  0  0
  187.5580  177.4680  146.4010 C   0  0  0  0  0  3  0  0  0  0  0  0
  187.1960  177.9640  142.8180 C   0  0  0  0  0  0  0  0  0  0  0  0
  188.8660  177.7290  142.7340 S   0  0  0  0  0  0  0  0  0  0  0  0
  190.0670  177.2520  145.1530 N   0  0  0  0  0  0  0  0  0  0  0  0
  186.1570  178.2240  141.9620 C   0  0  0  0  0  3  0  0  0  0  0  0
  188.7160  177.2050  147.1490 C   0  0  0  0  0  3  0  0  0  0  0  0
  189.9670  177.0990  146.5060 C   0  0  0  0  0  0  0  0  0  0  0  0
  185.0400  178.2940  142.7390 N   0  0  0  0  0  0  0  0  0  0  0  0
  188.9520  177.5070  144.4240 C   0  0  0  0  0  0  0  0  0  0  0  0
  191.1440  176.8300  147.2810 C   0  0  0  0  0  0  0  0  0  0  0  0
  192.0940  176.6130  147.9050 N   0  0  0  0  0  0  0  0  0  0  0  0
  180.6680  180.1370  137.1370 O   0  0  0  0  0  0  0  0  0  0  0  0
  180.8370  181.4810  136.7610 C   0  0  2  0  0  3  0  0  0  0  0  0
  180.5490  182.3420  137.9790 C   0  0  0  0  0  2  0  0  0  0  0  0
  181.0070  180.1270  138.4530 N   0  0  0  0  0  0  0  0  0  0  0  0
  182.5330  178.4050  138.1200 O   0  0  0  0  0  0  0  0  0  0  0  0
  181.9320  179.1440  138.9460 C   0  0  0  0  0  0  0  0  0  0  0  0
  180.8260  181.4010  139.1140 C   0  0  0  0  0  2  0  0  0  0  0  0
  179.8860  180.8370  134.6470 O   0  0  0  0  0  1  0  0  0  0  0  0
  180.3580  183.1490  134.9680 C   0  0  0  0  0  1  0  0  0  0  0  0
  179.9090  181.8500  135.6080 C   0  0  2  0  0  3  0  0  0  0  0  0
  179.3270  179.0800  144.3700 C   0  0  0  0  0  3  0  0  0  0  0  0
  180.2480  178.9960  143.5960 C   0  0  0  0  0  0  0  0  0  0  0  0
  1  3  2  0  0  0  0
  1  4  1  0  0  0  0
  2 17  1  0  0  0  0
  2  5  2  0  0  0  0
  3  2  1  0  0  0  0
  4  6  2  0  0  0  0
  6  5  1  0  0  0  0
  6 32  1  0  0  0  0
  7  8  2  0  0  0  0
  8  9  1  0  0  0  0
  9 10  1  0  0  0  0
 10 15  2  0  0  0  0
 11  8  1  0  0  0  0
 12 11  1  0  0  0  0
 12 18  1  0  0  0  0
 13 16  2  0  0  0  0
 14 17  1  0  0  0  0
 14 11  2  0  0  0  0
 16 15  1  0  0  0  0
 16 19  1  0  0  0  0
 17  7  1  0  0  0  0
 18  9  2  0  0  0  0
 18 13  1  0  0  0  0
 19 20  3  0  0  0  0
 21 24  1  0  0  0  0
 22 30  1  6  0  0  0
 22 21  1  0  0  0  0
 22 23  1  0  0  0  0
 23 27  1  0  0  0  0
 24 26  1  0  0  0  0
 24 27  1  0  0  0  0
 25 26  2  0  0  0  0
 26  1  1  0  0  0  0
 28 30  1  0  0  0  0
 30 29  1  6  0  0  0
 32 31  3  0  0  0  0
M  END
>  <MODEL>
4

>  <REMARK>
 VINA RESULT:      -8.6      2.948      3.533
  Name = 
  5 active torsions:
  status: ('A' for Active; 'I' for Inactive)
    1  A    between atoms: C_2  and  C_29
    2  A    between atoms: C_10  and  C_11
    3  A    between atoms: C_17  and  N_31
    4  A    between atoms: C_22  and  C_30
    5  A    between atoms: C_27  and  C_28
                            x       y       z     vdW  Elec       q    Type
                         _______ _______ _______ _____ _____    ______ ____

>  <TORSDO>
F 5

$$$$
=
 OpenBabel10222416363D

 32 36  0  0  1  0  0  0  0  0999 V2000
  189.1080  177.3880  143.9960 C   0  0  0  0  0  0  0  0  0  0  0  0
  186.7400  177.9600  144.1800 C   0  0  0  0  0  0  0  0  0  0  0  0
  187.8620  177.6380  143.4020 C   0  0  0  0  0  3  0  0  0  0  0  0
  189.2180  177.4470  145.3920 C   0  0  0  0  0  3  0  0  0  0  0  0
  186.8750  178.0210  145.5750 C   0  0  0  0  0  3  0  0  0  0  0  0
  188.1080  177.7650  146.1790 C   0  0  0  0  0  0  0  0  0  0  0  0
  185.2570  178.2680  142.2100 C   0  0  0  0  0  3  0  0  0  0  0  0
  183.9220  178.5440  142.0420 C   0  0  0  0  0  0  0  0  0  0  0  0
  183.0440  178.7280  140.9880 C   0  0  0  0  0  0  0  0  0  0  0  0
  183.2980  178.6790  139.6210 C   0  0  0  0  0  3  0  0  0  0  0  0
  183.3540  178.6580  143.2560 C   0  0  0  0  0  0  0  0  0  0  0  0
  181.7030  178.9990  143.1680 S   0  0  0  0  0  0  0  0  0  0  0  0
  180.7220  179.2070  140.6160 N   0  0  0  0  0  0  0  0  0  0  0  0
  184.3070  178.4600  144.2220 C   0  0  0  0  0  3  0  0  0  0  0  0
  182.2200  178.9040  138.7500 C   0  0  0  0  0  3  0  0  0  0  0  0
  180.9340  179.1670  139.2670 C   0  0  0  0  0  0  0  0  0  0  0  0
  185.4720  178.2220  143.5570 N   0  0  0  0  0  0  0  0  0  0  0  0
  181.7600  178.9910  141.4620 C   0  0  0  0  0  0  0  0  0  0  0  0
  179.8390  179.3950  138.3680 C   0  0  0  0  0  0  0  0  0  0  0  0
  178.9560  179.5790  137.6430 N   0  0  0  0  0  0  0  0  0  0  0  0
  191.2580  176.2720  141.0930 O   0  0  0  0  0  0  0  0  0  0  0  0
  191.3890  177.1220  139.9810 C   0  0  2  0  0  3  0  0  0  0  0  0
  190.0040  177.6340  139.6240 C   0  0  0  0  0  2  0  0  0  0  0  0
  190.1930  176.7830  141.7640 N   0  0  0  0  0  0  0  0  0  0  0  0
  191.4100  176.9080  143.7420 O   0  0  0  0  0  0  0  0  0  0  0  0
  190.2890  177.0270  143.1770 C   0  0  0  0  0  0  0  0  0  0  0  0
  189.2690  177.5160  140.9260 C   0  0  0  0  0  2  0  0  0  0  0  0
  193.3580  176.7430  138.6510 O   0  0  0  0  0  1  0  0  0  0  0  0
  191.2620  176.7110  137.5240 C   0  0  0  0  0  1  0  0  0  0  0  0
  192.0150  176.3890  138.7990 C   0  0  2  0  0  3  0  0  0  0  0  0
  188.3410  177.8780  148.8070 C   0  0  0  0  0  3  0  0  0  0  0  0
  188.2340  177.8260  147.6070 C   0  0  0  0  0  0  0  0  0  0  0  0
  1  4  1  0  0  0  0
  2  5  2  0  0  0  0
  3  1  2  0  0  0  0
  3  2  1  0  0  0  0
  4  6  2  0  0  0  0
  5  6  1  0  0  0  0
  6 32  1  0  0  0  0
  7 17  1  0  0  0  0
  8  7  2  0  0  0  0
  8 11  1  0  0  0  0
  9 18  1  0  0  0  0
  9  8  1  0  0  0  0
 10  9  2  0  0  0  0
 11 14  2  0  0  0  0
 12 11  1  0  0  0  0
 13 18  2  0  0  0  0
 15 16  2  0  0  0  0
 15 10  1  0  0  0  0
 16 13  1  0  0  0  0
 17  2  1  0  0  0  0
 17 14  1  0  0  0  0
 18 12  1  0  0  0  0
 19 16  1  0  0  0  0
 20 19  3  0  0  0  0
 21 24  1  0  0  0  0
 22 30  1  6  0  0  0
 22 21  1  0  0  0  0
 23 22  1  0  0  0  0
 23 27  1  0  0  0  0
 24 26  1  0  0  0  0
 26 25  2  0  0  0  0
 26  1  1  0  0  0  0
 27 24  1  0  0  0  0
 28 30  1  0  0  0  0
 30 29  1  6  0  0  0
 32 31  3  0  0  0  0
M  END
>  <MODEL>
5

>  <REMARK>
 VINA RESULT:      -8.5      4.169      8.524
  Name = 
  5 active torsions:
  status: ('A' for Active; 'I' for Inactive)
    1  A    between atoms: C_2  and  C_29
    2  A    between atoms: C_10  and  C_11
    3  A    between atoms: C_17  and  N_31
    4  A    between atoms: C_22  and  C_30
    5  A    between atoms: C_27  and  C_28
                            x       y       z     vdW  Elec       q    Type
                         _______ _______ _______ _____ _____    ______ ____

>  <TORSDO>
F 5

$$$$
=
 OpenBabel10222416363D

 32 36  0  0  1  0  0  0  0  0999 V2000
  190.8610  177.1380  142.4330 C   0  0  0  0  0  0  0  0  0  0  0  0
  188.8650  177.4750  143.7980 C   0  0  0  0  0  0  0  0  0  0  0  0
  189.5070  177.4830  142.5510 C   0  0  0  0  0  3  0  0  0  0  0  0
  191.5700  176.7650  143.5830 C   0  0  0  0  0  3  0  0  0  0  0  0
  189.5950  177.1060  144.9380 C   0  0  0  0  0  3  0  0  0  0  0  0
  190.9420  176.7520  144.8310 C   0  0  0  0  0  0  0  0  0  0  0  0
  186.5900  177.8520  142.8700 C   0  0  0  0  0  3  0  0  0  0  0  0
  185.3890  178.2550  143.3980 C   0  0  0  0  0  0  0  0  0  0  0  0
  184.1010  178.4850  142.9440 C   0  0  0  0  0  0  0  0  0  0  0  0
  183.5940  178.3540  141.6550 C   0  0  0  0  0  3  0  0  0  0  0  0
  185.5530  178.4760  144.7140 C   0  0  0  0  0  0  0  0  0  0  0  0
  184.1290  178.9800  145.4680 S   0  0  0  0  0  0  0  0  0  0  0  0
  181.9680  179.1820  143.7930 N   0  0  0  0  0  0  0  0  0  0  0  0
  186.8560  178.2220  145.0570 C   0  0  0  0  0  3  0  0  0  0  0  0
  182.2360  178.6520  141.4560 C   0  0  0  0  0  3  0  0  0  0  0  0
  181.4350  179.0660  142.5410 C   0  0  0  0  0  0  0  0  0  0  0  0
  187.4780  177.8390  143.9060 N   0  0  0  0  0  0  0  0  0  0  0  0
  183.2790  178.8970  143.9910 C   0  0  0  0  0  0  0  0  0  0  0  0
  180.0490  179.3670  142.3270 C   0  0  0  0  0  0  0  0  0  0  0  0
  178.9310  179.6100  142.1550 N   0  0  0  0  0  0  0  0  0  0  0  0
  191.6230  176.4340  138.7970 O   0  0  0  0  0  0  0  0  0  0  0  0
  190.8270  177.0400  137.8080 C   0  0  2  0  0  3  0  0  0  0  0  0
  189.3750  176.8860  138.2250 C   0  0  0  0  0  2  0  0  0  0  0  0
  190.9020  176.6010  139.9360 N   0  0  0  0  0  0  0  0  0  0  0  0
  192.7140  177.5670  141.0260 O   0  0  0  0  0  0  0  0  0  0  0  0
  191.5360  177.1250  141.1140 C   0  0  0  0  0  0  0  0  0  0  0  0
  189.4780  176.7360  139.7140 C   0  0  0  0  0  2  0  0  0  0  0  0
  190.0630  176.7690  135.5430 O   0  0  0  0  0  1  0  0  0  0  0  0
  191.1150  174.8950  136.5680 C   0  0  0  0  0  1  0  0  0  0  0  0
  191.0670  176.4040  136.4430 C   0  0  2  0  0  3  0  0  0  0  0  0
  192.2990  176.0530  146.9860 C   0  0  0  0  0  3  0  0  0  0  0  0
  191.6790  176.3720  146.0020 C   0  0  0  0  0  0  0  0  0  0  0  0
  1  3  2  0  0  0  0
  1  4  1  0  0  0  0
  2 17  1  0  0  0  0
  2  5  2  0  0  0  0
  3  2  1  0  0  0  0
  4  6  2  0  0  0  0
  6  5  1  0  0  0  0
  6 32  1  0  0  0  0
  7  8  2  0  0  0  0
  7 17  1  0  0  0  0
  8 11  1  0  0  0  0
  9  8  1  0  0  0  0
  9 18  1  0  0  0  0
 10  9  2  0  0  0  0
 11 14  2  0  0  0  0
 11 12  1  0  0  0  0
 13 18  2  0  0  0  0
 15 10  1  0  0  0  0
 15 16  2  0  0  0  0
 16 13  1  0  0  0  0
 17 14  1  0  0  0  0
 18 12  1  0  0  0  0
 19 16  1  0  0  0  0
 20 19  3  0  0  0  0
 21 24  1  0  0  0  0
 22 30  1  6  0  0  0
 22 23  1  0  0  0  0
 22 21  1  0  0  0  0
 23 27  1  0  0  0  0
 24 26  1  0  0  0  0
 25 26  2  0  0  0  0
 26  1  1  0  0  0  0
 27 24  1  0  0  0  0
 28 30  1  0  0  0  0
 30 29  1  1  0  0  0
 32 31  3  0  0  0  0
M  END
>  <MODEL>
6

>  <REMARK>
 VINA RESULT:      -8.4      3.959      8.012
  Name = 
  5 active torsions:
  status: ('A' for Active; 'I' for Inactive)
    1  A    between atoms: C_2  and  C_29
    2  A    between atoms: C_10  and  C_11
    3  A    between atoms: C_17  and  N_31
    4  A    between atoms: C_22  and  C_30
    5  A    between atoms: C_27  and  C_28
                            x       y       z     vdW  Elec       q    Type
                         _______ _______ _______ _____ _____    ______ ____

>  <TORSDO>
F 5

$$$$
=
 OpenBabel10222416363D

 32 36  0  0  1  0  0  0  0  0999 V2000
  182.2470  178.7860  140.6040 C   0  0  0  0  0  0  0  0  0  0  0  0
  183.8000  178.4860  142.4660 C   0  0  0  0  0  0  0  0  0  0  0  0
  183.5450  178.5670  141.0880 C   0  0  0  0  0  3  0  0  0  0  0  0
  181.1980  178.9440  141.5210 C   0  0  0  0  0  3  0  0  0  0  0  0
  182.7340  178.6390  143.3650 C   0  0  0  0  0  3  0  0  0  0  0  0
  181.4390  178.8680  142.8950 C   0  0  0  0  0  0  0  0  0  0  0  0
  185.4670  178.0350  144.2520 C   0  0  0  0  0  3  0  0  0  0  0  0
  186.8290  177.8580  144.2770 C   0  0  0  0  0  0  0  0  0  0  0  0
  187.8070  177.6080  145.2240 C   0  0  0  0  0  0  0  0  0  0  0  0
  187.6700  177.4430  146.5990 C   0  0  0  0  0  3  0  0  0  0  0  0
  187.2960  177.9650  143.0210 C   0  0  0  0  0  0  0  0  0  0  0  0
  188.9700  177.7630  142.9340 S   0  0  0  0  0  0  0  0  0  0  0  0
  190.1820  177.2890  145.3470 N   0  0  0  0  0  0  0  0  0  0  0  0
  186.2510  178.2120  142.1680 C   0  0  0  0  0  3  0  0  0  0  0  0
  188.8340  177.1960  147.3440 C   0  0  0  0  0  3  0  0  0  0  0  0
  190.0860  177.1220  146.7000 C   0  0  0  0  0  0  0  0  0  0  0  0
  185.1340  178.2520  142.9470 N   0  0  0  0  0  0  0  0  0  0  0  0
  189.0610  177.5280  144.6220 C   0  0  0  0  0  0  0  0  0  0  0  0
  191.2700  176.8690  147.4710 C   0  0  0  0  0  0  0  0  0  0  0  0
  192.2240  176.6660  148.0930 N   0  0  0  0  0  0  0  0  0  0  0  0
  182.3400  178.1400  136.8800 O   0  0  0  0  0  0  0  0  0  0  0  0
  181.7470  176.9660  136.3810 C   0  0  2  0  0  3  0  0  0  0  0  0
  182.1880  175.8130  137.2670 C   0  0  0  0  0  2  0  0  0  0  0  0
  182.4410  177.9060  138.2140 N   0  0  0  0  0  0  0  0  0  0  0  0
  181.3440  179.8930  138.7190 O   0  0  0  0  0  0  0  0  0  0  0  0
  181.9790  178.8930  139.1510 C   0  0  0  0  0  0  0  0  0  0  0  0
  182.5110  176.5030  138.5600 C   0  0  0  0  0  2  0  0  0  0  0  0
  181.9860  175.3740  134.5940 O   0  0  0  0  0  1  0  0  0  0  0  0
  183.5980  177.1220  134.7160 C   0  0  0  0  0  1  0  0  0  0  0  0
  182.1530  176.7190  134.9320 C   0  0  2  0  0  3  0  0  0  0  0  0
  179.4460  179.1600  144.6030 C   0  0  0  0  0  3  0  0  0  0  0  0
  180.3560  179.0270  143.8240 C   0  0  0  0  0  0  0  0  0  0  0  0
  1  3  2  0  0  0  0
  1  4  1  0  0  0  0
  2 17  1  0  0  0  0
  2  5  2  0  0  0  0
  3  2  1  0  0  0  0
  4  6  2  0  0  0  0
  6  5  1  0  0  0  0
  6 32  1  0  0  0  0
  7  8  2  0  0  0  0
  8  9  1  0  0  0  0
  9 10  1  0  0  0  0
 10 15  2  0  0  0  0
 11  8  1  0  0  0  0
 12 11  1  0  0  0  0
 12 18  1  0  0  0  0
 13 16  2  0  0  0  0
 14 17  1  0  0  0  0
 14 11  2  0  0  0  0
 16 15  1  0  0  0  0
 16 19  1  0  0  0  0
 17  7  1  0  0  0  0
 18  9  2  0  0  0  0
 18 13  1  0  0  0  0
 19 20  3  0  0  0  0
 21 24  1  0  0  0  0
 22 30  1  6  0  0  0
 22 21  1  0  0  0  0
 22 23  1  0  0  0  0
 23 27  1  0  0  0  0
 24 27  1  0  0  0  0
 24 26  1  0  0  0  0
 25 26  2  0  0  0  0
 26  1  1  0  0  0  0
 28 30  1  0  0  0  0
 30 29  1  1  0  0  0
 32 31  3  0  0  0  0
M  END
>  <MODEL>
7

>  <REMARK>
 VINA RESULT:      -8.1      1.619      2.024
  Name = 
  5 active torsions:
  status: ('A' for Active; 'I' for Inactive)
    1  A    between atoms: C_2  and  C_29
    2  A    between atoms: C_10  and  C_11
    3  A    between atoms: C_17  and  N_31
    4  A    between atoms: C_22  and  C_30
    5  A    between atoms: C_27  and  C_28
                            x       y       z     vdW  Elec       q    Type
                         _______ _______ _______ _____ _____    ______ ____

>  <TORSDO>
F 5

$$$$
=
 OpenBabel10222416363D

 32 36  0  0  1  0  0  0  0  0999 V2000
  191.8280  176.2090  136.9670 C   0  0  0  0  0  0  0  0  0  0  0  0
  190.5480  176.6320  139.0040 C   0  0  0  0  0  0  0  0  0  0  0  0
  191.7760  176.4930  138.3400 C   0  0  0  0  0  3  0  0  0  0  0  0
  190.6280  176.0810  136.2550 C   0  0  0  0  0  3  0  0  0  0  0  0
  189.3590  176.4920  138.2730 C   0  0  0  0  0  3  0  0  0  0  0  0
  189.3990  176.2180  136.9040 C   0  0  0  0  0  0  0  0  0  0  0  0
  189.4130  176.7640  141.2110 C   0  0  0  0  0  3  0  0  0  0  0  0
  189.8010  177.1400  142.4730 C   0  0  0  0  0  0  0  0  0  0  0  0
  189.2280  177.2380  143.7300 C   0  0  0  0  0  0  0  0  0  0  0  0
  187.9250  176.9450  144.1200 C   0  0  0  0  0  3  0  0  0  0  0  0
  191.0950  177.5030  142.4310 C   0  0  0  0  0  0  0  0  0  0  0  0
  191.6800  177.9870  143.9390 S   0  0  0  0  0  0  0  0  0  0  0  0
  189.8330  177.8780  145.9620 N   0  0  0  0  0  0  0  0  0  0  0  0
  191.5620  177.3700  141.1490 C   0  0  0  0  0  3  0  0  0  0  0  0
  187.5930  177.1320  145.4710 C   0  0  0  0  0  3  0  0  0  0  0  0
  188.5630  177.6000  146.3820 C   0  0  0  0  0  0  0  0  0  0  0  0
  190.5090  176.9140  140.4130 N   0  0  0  0  0  0  0  0  0  0  0  0
  190.1590  177.6990  144.6580 C   0  0  0  0  0  0  0  0  0  0  0  0
  188.2120  177.7880  147.7610 C   0  0  0  0  0  0  0  0  0  0  0  0
  187.9300  177.9400  148.8720 N   0  0  0  0  0  0  0  0  0  0  0  0
  195.5190  175.7450  136.2920 O   0  0  0  0  0  0  0  0  0  0  0  0
  196.0890  174.4740  136.4890 C   0  0  2  0  0  3  0  0  0  0  0  0
  195.5850  173.9420  137.8200 C   0  0  0  0  0  2  0  0  0  0  0  0
  194.3230  175.6620  136.9300 N   0  0  0  0  0  0  0  0  0  0  0  0
  193.1820  176.3780  135.0350 O   0  0  0  0  0  0  0  0  0  0  0  0
  193.1240  176.0830  136.2600 C   0  0  0  0  0  0  0  0  0  0  0  0
  194.2950  174.6860  137.9990 C   0  0  0  0  0  2  0  0  0  0  0  0
  198.0820  175.2530  137.5900 O   0  0  0  0  0  1  0  0  0  0  0  0
  198.0970  175.2180  135.2100 C   0  0  0  0  0  1  0  0  0  0  0  0
  197.6120  174.5480  136.4800 C   0  0  2  0  0  3  0  0  0  0  0  0
  187.1500  175.9640  135.5420 C   0  0  0  0  0  3  0  0  0  0  0  0
  188.1770  176.0800  136.1630 C   0  0  0  0  0  0  0  0  0  0  0  0
  1  3  1  0  0  0  0
  2 17  1  0  0  0  0
  3  2  2  0  0  0  0
  4  6  1  0  0  0  0
  4  1  2  0  0  0  0
  5  2  1  0  0  0  0
  6  5  2  0  0  0  0
  7  8  2  0  0  0  0
  8  9  1  0  0  0  0
  9 10  2  0  0  0  0
  9 18  1  0  0  0  0
 10 15  1  0  0  0  0
 11  8  1  0  0  0  0
 11 12  1  0  0  0  0
 12 18  1  0  0  0  0
 13 16  1  0  0  0  0
 14 11  2  0  0  0  0
 15 16  2  0  0  0  0
 16 19  1  0  0  0  0
 17 14  1  0  0  0  0
 17  7  1  0  0  0  0
 18 13  2  0  0  0  0
 19 20  3  0  0  0  0
 21 22  1  0  0  0  0
 21 24  1  0  0  0  0
 22 30  1  1  0  0  0
 22 23  1  0  0  0  0
 23 27  1  0  0  0  0
 24 27  1  0  0  0  0
 25 26  2  0  0  0  0
 26 24  1  0  0  0  0
 26  1  1  0  0  0  0
 30 29  1  6  0  0  0
 30 28  1  0  0  0  0
 31 32  3  0  0  0  0
 32  6  1  0  0  0  0
M  END
>  <MODEL>
8

>  <REMARK>
 VINA RESULT:      -8.1      6.874      8.888
  Name = 
  5 active torsions:
  status: ('A' for Active; 'I' for Inactive)
    1  A    between atoms: C_2  and  C_29
    2  A    between atoms: C_10  and  C_11
    3  A    between atoms: C_17  and  N_31
    4  A    between atoms: C_22  and  C_30
    5  A    between atoms: C_27  and  C_28
                            x       y       z     vdW  Elec       q    Type
                         _______ _______ _______ _____ _____    ______ ____

>  <TORSDO>
F 5

$$$$
=
 OpenBabel10222416363D

 32 36  0  0  1  0  0  0  0  0999 V2000
  188.7570  177.5760  137.4300 C   0  0  0  0  0  0  0  0  0  0  0  0
  189.9380  177.1980  139.5350 C   0  0  0  0  0  0  0  0  0  0  0  0
  188.8050  177.6340  138.8310 C   0  0  0  0  0  3  0  0  0  0  0  0
  189.8560  177.0550  136.7340 C   0  0  0  0  0  3  0  0  0  0  0  0
  191.0300  176.6880  138.8170 C   0  0  0  0  0  3  0  0  0  0  0  0
  190.9900  176.6160  137.4230 C   0  0  0  0  0  0  0  0  0  0  0  0
  188.8820  177.3590  141.7790 C   0  0  0  0  0  3  0  0  0  0  0  0
  189.3570  177.4090  143.0660 C   0  0  0  0  0  0  0  0  0  0  0  0
  188.8320  177.4990  144.3440 C   0  0  0  0  0  0  0  0  0  0  0  0
  187.4990  177.5750  144.7370 C   0  0  0  0  0  3  0  0  0  0  0  0
  190.7000  177.3520  143.0280 C   0  0  0  0  0  0  0  0  0  0  0  0
  191.3930  177.4070  144.5660 S   0  0  0  0  0  0  0  0  0  0  0  0
  189.5860  177.5900  146.6190 N   0  0  0  0  0  0  0  0  0  0  0  0
  191.1130  177.2660  141.7230 C   0  0  0  0  0  3  0  0  0  0  0  0
  187.2300  177.6600  146.1120 C   0  0  0  0  0  3  0  0  0  0  0  0
  188.2900  177.6660  147.0430 C   0  0  0  0  0  0  0  0  0  0  0  0
  189.9770  177.2730  140.9700 N   0  0  0  0  0  0  0  0  0  0  0  0
  189.8530  177.5080  145.2920 C   0  0  0  0  0  0  0  0  0  0  0  0
  188.0030  177.7530  148.4460 C   0  0  0  0  0  0  0  0  0  0  0  0
  187.7720  177.8230  149.5780 N   0  0  0  0  0  0  0  0  0  0  0  0
  185.6590  177.5270  135.2630 O   0  0  0  0  0  0  0  0  0  0  0  0
  184.4970  176.9080  135.7570 C   0  0  2  0  0  3  0  0  0  0  0  0
  184.9040  175.5770  136.3640 C   0  0  0  0  0  2  0  0  0  0  0  0
  186.6370  177.0810  136.0940 N   0  0  0  0  0  0  0  0  0  0  0  0
  187.3380  179.2510  136.5480 O   0  0  0  0  0  0  0  0  0  0  0  0
  187.5540  178.0160  136.6860 C   0  0  0  0  0  0  0  0  0  0  0  0
  186.3450  175.8060  136.7120 C   0  0  0  0  0  2  0  0  0  0  0  0
  182.3740  177.5520  134.8250 O   0  0  0  0  0  1  0  0  0  0  0  0
  182.9990  175.2630  134.6280 C   0  0  0  0  0  1  0  0  0  0  0  0
  183.4700  176.7040  134.6480 C   0  0  2  0  0  3  0  0  0  0  0  0
  193.0530  175.6460  136.0900 C   0  0  0  0  0  3  0  0  0  0  0  0
  192.1110  176.0890  136.6990 C   0  0  0  0  0  0  0  0  0  0  0  0
  1  3  1  0  0  0  0
  2 17  1  0  0  0  0
  3  2  2  0  0  0  0
  4  6  1  0  0  0  0
  4  1  2  0  0  0  0
  5  2  1  0  0  0  0
  6  5  2  0  0  0  0
  7  8  2  0  0  0  0
  8  9  1  0  0  0  0
  9 10  2  0  0  0  0
  9 18  1  0  0  0  0
 10 15  1  0  0  0  0
 11  8  1  0  0  0  0
 11 12  1  0  0  0  0
 12 18  1  0  0  0  0
 13 16  1  0  0  0  0
 14 11  2  0  0  0  0
 15 16  2  0  0  0  0
 16 19  1  0  0  0  0
 17 14  1  0  0  0  0
 17  7  1  0  0  0  0
 18 13  2  0  0  0  0
 19 20  3  0  0  0  0
 21 22  1  0  0  0  0
 21 24  1  0  0  0  0
 22 30  1  6  0  0  0
 22 23  1  0  0  0  0
 23 27  1  0  0  0  0
 24 26  1  0  0  0  0
 24 27  1  0  0  0  0
 25 26  2  0  0  0  0
 26  1  1  0  0  0  0
 30 29  1  1  0  0  0
 30 28  1  0  0  0  0
 31 32  3  0  0  0  0
 32  6  1  0  0  0  0
M  END
>  <MODEL>
9

>  <REMARK>
 VINA RESULT:      -7.8      3.800      6.141
  Name = 
  5 active torsions:
  status: ('A' for Active; 'I' for Inactive)
    1  A    between atoms: C_2  and  C_29
    2  A    between atoms: C_10  and  C_11
    3  A    between atoms: C_17  and  N_31
    4  A    between atoms: C_22  and  C_30
    5  A    between atoms: C_27  and  C_28
                            x       y       z     vdW  Elec       q    Type
                         _______ _______ _______ _____ _____    ______ ____

>  <TORSDO>
F 5

$$$$
