=
 OpenBabel10222420333D

 61 68  0  0  1  0  0  0  0  0999 V2000
  192.7020  176.5480  139.1460 O   0  0  0  0  0  0  0  0  0  0  0  0
  189.1020  176.8370  139.1380 C   0  0  2  0  0  3  0  0  0  0  0  0
  188.8380  177.2800  140.6260 C   0  0  1  0  0  3  0  0  0  0  0  0
  190.4480  177.1230  138.4490 C   0  0  1  0  0  0  0  0  0  0  0  0
  191.6410  177.4100  139.4900 C   0  0  1  0  0  3  0  0  0  0  0  0
  190.9330  176.0870  137.4000 C   0  0  0  0  0  2  0  0  0  0  0  0
  190.8420  176.5330  144.7510 C   0  0  0  0  0  1  0  0  0  0  0  0
  191.1900  177.5450  143.6210 C   0  0  2  0  0  0  0  0  0  0  0  0
  192.4530  176.0680  137.7640 C   0  0  2  0  0  3  0  0  0  0  0  0
  189.8310  177.7260  142.8570 C   0  0  1  0  0  3  0  0  0  0  0  0
  190.0110  177.9700  141.3560 C   0  0  1  0  0  3  0  0  0  0  0  0
  187.5310  178.0950  140.9770 C   0  0  0  0  0  1  0  0  0  0  0  0
  191.4020  177.3940  141.0500 C   0  0  2  0  0  3  0  0  0  0  0  0
  192.1870  177.0430  142.4380 C   0  0  0  0  0  2  0  0  0  0  0  0
  189.2220  178.1770  138.5170 C   0  0  1  0  0  3  0  0  0  0  0  0
  186.6910  178.6910  137.3780 C   0  0  0  0  0  2  0  0  0  0  0  0
  187.8180  178.1900  136.3560 C   0  0  1  0  0  3  0  0  0  0  0  0
  187.9470  177.9630  137.9100 C   0  0  1  0  0  3  0  0  0  0  0  0
  187.6890  176.8980  135.6040 C   0  0  0  0  0  2  0  0  0  0  0  0
  186.3000  175.0410  137.2860 O   0  0  0  0  0  1  0  0  0  0  0  0
  186.9310  175.0590  134.8170 N   0  0  0  0  0  2  0  0  0  0  0  0
  187.0710  174.6920  136.2980 C   0  0  2  0  0  0  0  0  0  0  0  0
  186.5830  176.0120  135.7700 C   0  0  1  0  0  3  0  0  0  0  0  0
  186.3650  173.4190  136.0810 C   0  0  1  0  0  3  0  0  0  0  0  0
  186.9640  172.2180  136.4590 O   0  0  0  0  0  1  0  0  0  0  0  0
  184.8190  173.2330  136.1630 C   0  0  0  0  0  2  0  0  0  0  0  0
  182.9340  171.7050  136.9270 C   0  0  0  0  0  1  0  0  0  0  0  0
  184.4360  172.0390  137.0290 C   0  0  0  0  0  2  0  0  0  0  0  0
  188.4330  175.4730  142.7700 O   0  0  0  0  0  0  0  0  0  0  0  0
  188.6100  176.6600  143.1770 C   0  0  0  0  0  0  0  0  0  0  0  0
  187.5150  177.4050  143.4440 O   0  0  0  0  0  0  0  0  0  0  0  0
  187.4840  177.5470  146.0750 C   0  0  0  0  0  1  0  0  0  0  0  0
  186.7870  177.3730  144.7370 C   0  0  1  0  0  3  0  0  0  0  0  0
  185.6020  178.2360  144.6430 C   0  0  0  0  0  2  0  0  0  0  0  0
  185.0920  178.0440  143.3370 O   0  0  0  0  0  0  0  0  0  0  0  0
  184.0450  178.9160  143.0540 C   0  0  2  0  0  3  0  0  0  0  0  0
  183.3600  179.5770  144.2740 C   0  0  0  0  0  1  0  0  0  0  0  0
  183.1030  178.3190  142.0320 C   0  0  0  0  0  2  0  0  0  0  0  0
  183.1820  177.0740  140.0850 C   0  0  0  0  0  2  0  0  0  0  0  0
  182.8470  179.5040  139.9600 O   0  0  0  0  0  0  0  0  0  0  0  0
  182.3770  179.0130  138.8050 N   0  0  0  0  0  0  0  0  0  0  0  0
  183.6460  178.4640  140.5880 C   0  0  1  0  0  3  0  0  0  0  0  0
  182.1240  177.5690  139.0700 C   0  0  0  0  0  2  0  0  0  0  0  0
  181.5910  181.6690  138.3770 C   0  0  0  0  0  1  0  0  0  0  0  0
  181.1290  179.4650  136.8130 C   0  0  0  0  0  1  0  0  0  0  0  0
  181.3150  180.0530  138.3100 C   0  0  0  0  0  0  0  0  0  0  0  0
  179.8590  180.2260  140.4750 C   0  0  1  0  0  3  0  0  0  0  0  0
  179.9190  179.7140  138.9870 C   0  0  1  0  0  3  0  0  0  0  0  0
  178.9750  180.8610  139.3870 C   0  0  0  0  0  2  0  0  0  0  0  0
  179.4200  179.0210  141.3730 C   0  0  0  0  0  2  0  0  0  0  0  0
  179.7910  179.0280  142.7210 O   0  0  0  0  0  1  0  0  0  0  0  0
  191.7790  178.8550  144.2170 C   0  0  0  0  0  3  0  0  0  0  0  0
  191.1310  180.0680  144.1400 C   0  0  0  0  0  2  0  0  0  0  0  0
  193.1810  174.7050  137.3750 C   0  0  0  0  0  2  0  0  0  0  0  0
  194.8870  174.5620  136.5080 S   0  0  0  0  0  0  0  0  0  0  0  0
  196.0070  174.4780  137.6680 N   0  0  0  0  0  2  0  0  0  0  0  0
  199.1470  173.4820  135.9990 O   0  0  0  0  0  0  0  0  0  0  0  0
  197.9330  173.6070  136.2410 C   0  0  0  0  0  3  0  0  0  0  0  0
  197.4570  174.1830  137.4590 N   0  0  0  0  0  0  0  0  0  0  0  0
  198.4030  174.5640  138.5970 C   0  0  0  0  0  2  0  0  0  0  0  0
  198.4240  175.9370  139.0270 O   0  0  0  0  0  1  0  0  0  0  0  0
  1  5  1  0  0  0  0
  2  3  1  0  0  0  0
  3 12  1  0  0  0  0
  3 11  1  0  0  0  0
  4 15  1  0  0  0  0
  4  2  1  0  0  0  0
  4  5  1  0  0  0  0
  5 13  1  0  0  0  0
  6  9  1  0  0  0  0
  6  4  1  0  0  0  0
  8 52  1  0  0  0  0
  8  7  1  0  0  0  0
  9  1  1  0  0  0  0
 10 30  1  0  0  0  0
 10  8  1  0  0  0  0
 11 10  1  0  0  0  0
 13 11  1  0  0  0  0
 13 14  1  0  0  0  0
 14  8  1  0  0  0  0
 15  2  1  0  0  0  0
 16 18  1  0  0  0  0
 17 16  1  0  0  0  0
 17 18  1  0  0  0  0
 18 15  1  0  0  0  0
 19 23  1  0  0  0  0
 19 17  1  0  0  0  0
 21 23  1  0  0  0  0
 21 22  1  0  0  0  0
 22 20  1  0  0  0  0
 23 22  1  0  0  0  0
 24 26  1  0  0  0  0
 24 22  1  0  0  0  0
 24 25  1  0  0  0  0
 26 28  1  0  0  0  0
 27 28  1  0  0  0  0
 29 30  2  0  0  0  0
 30 31  1  0  0  0  0
 31 33  1  0  0  0  0
 33 32  1  0  0  0  0
 34 33  1  0  0  0  0
 35 34  1  0  0  0  0
 36 35  1  0  0  0  0
 36 37  1  0  0  0  0
 38 36  1  0  0  0  0
 39 42  1  0  0  0  0
 40 42  1  0  0  0  0
 41 43  1  0  0  0  0
 41 40  1  0  0  0  0
 42 38  1  0  0  0  0
 43 39  1  0  0  0  0
 45 46  1  0  0  0  0
 46 44  1  0  0  0  0
 46 41  1  0  0  0  0
 46 48  1  0  0  0  0
 47 50  1  0  0  0  0
 48 49  1  0  0  0  0
 48 47  1  0  0  0  0
 49 47  1  0  0  0  0
 50 51  1  0  0  0  0
 53 52  2  0  0  0  0
 54  9  1  0  0  0  0
 55 54  1  0  0  0  0
 55 56  1  0  0  0  0
 57 58  2  0  0  0  0
 58 59  1  0  0  0  0
 59 56  1  0  0  0  0
 59 60  1  0  0  0  0
 60 61  1  0  0  0  0
M  END
>  <MODEL>
1

>  <REMARK>
 VINA RESULT:      -7.1      0.000      0.000
  Name = 
  22 active torsions:
  status: ('A' for Active; 'I' for Inactive)
    1  A    between atoms: O_5  and  C_10
    2  A    between atoms: O_5  and  C_22
    3  A    between atoms: C_8  and  C_48
    4  A    between atoms: C_8  and  C_58
    5  A    between atoms: C_9  and  C_18
    6  A    between atoms: C_10  and  C_26
    7  A    between atoms: C_11  and  C_25
    8  A    between atoms: C_11  and  C_59
    9  A    between atoms: C_13  and  C_33
   10  A    between atoms: C_13  and  S_46
   11  A    between atoms: O_14  and  C_35
   12  A    between atoms: O_14  and  C_50
   13  A    between atoms: C_19  and  C_60
   14  A    between atoms: C_22  and  C_50
   15  A    between atoms: C_26  and  C_34
   16  A    between atoms: C_27  and  C_32
   17  A    between atoms: N_30  and  C_60
   18  A    between atoms: C_31  and  N_45
   19  A    between atoms: C_35  and  C_37
   20  A    between atoms: N_45  and  N_54
   21  A    between atoms: C_51  and  C_57
   22  A    between atoms: C_55  and  C_58
                            x       y       z     vdW  Elec       q    Type
                         _______ _______ _______ _____ _____    ______ ____

>  <TORSDO>
F 22

$$$$
=
 OpenBabel10222420333D

 61 68  0  0  1  0  0  0  0  0999 V2000
  192.4860  176.4030  139.2260 O   0  0  0  0  0  0  0  0  0  0  0  0
  188.9110  176.9050  139.2860 C   0  0  2  0  0  3  0  0  0  0  0  0
  188.7080  177.4050  140.7660 C   0  0  1  0  0  3  0  0  0  0  0  0
  190.2550  177.0910  138.5600 C   0  0  1  0  0  0  0  0  0  0  0  0
  191.4870  177.3370  139.5670 C   0  0  1  0  0  3  0  0  0  0  0  0
  190.6530  175.9990  137.5320 C   0  0  0  0  0  2  0  0  0  0  0  0
  190.7590  176.6580  144.8680 C   0  0  0  0  0  1  0  0  0  0  0  0
  191.1400  177.6150  143.7010 C   0  0  2  0  0  0  0  0  0  0  0  0
  192.1780  175.9000  137.8650 C   0  0  2  0  0  3  0  0  0  0  0  0
  189.7770  177.8550  142.9610 C   0  0  1  0  0  3  0  0  0  0  0  0
  189.9360  178.0450  141.4500 C   0  0  1  0  0  3  0  0  0  0  0  0
  187.4600  178.3070  141.1210 C   0  0  0  0  0  1  0  0  0  0  0  0
  191.2830  177.3780  141.1320 C   0  0  2  0  0  3  0  0  0  0  0  0
  192.0780  177.0210  142.5120 C   0  0  0  0  0  2  0  0  0  0  0  0
  189.0950  178.2180  138.6230 C   0  0  1  0  0  3  0  0  0  0  0  0
  186.6650  178.8260  137.3240 C   0  0  0  0  0  2  0  0  0  0  0  0
  187.6890  177.9230  136.4850 C   0  0  1  0  0  3  0  0  0  0  0  0
  187.7960  178.0630  138.0500 C   0  0  1  0  0  3  0  0  0  0  0  0
  187.3500  176.5230  136.0640 C   0  0  0  0  0  2  0  0  0  0  0  0
  187.7240  173.9150  137.1870 O   0  0  0  0  0  1  0  0  0  0  0  0
  185.6880  175.2120  136.3710 N   0  0  0  0  0  2  0  0  0  0  0  0
  186.8330  174.1960  136.2840 C   0  0  2  0  0  0  0  0  0  0  0  0
  186.9000  175.5260  136.9800 C   0  0  1  0  0  3  0  0  0  0  0  0
  185.9370  173.1050  136.7000 C   0  0  1  0  0  3  0  0  0  0  0  0
  185.8800  172.7230  138.0390 O   0  0  0  0  0  1  0  0  0  0  0  0
  184.5540  172.7930  136.0510 C   0  0  0  0  0  2  0  0  0  0  0  0
  183.4180  170.5220  136.2040 C   0  0  0  0  0  1  0  0  0  0  0  0
  184.4920  171.3730  135.4990 C   0  0  0  0  0  2  0  0  0  0  0  0
  188.1760  175.7410  142.8720 O   0  0  0  0  0  0  0  0  0  0  0  0
  188.5020  176.8730  143.3380 C   0  0  0  0  0  0  0  0  0  0  0  0
  187.5150  177.6840  143.7750 O   0  0  0  0  0  0  0  0  0  0  0  0
  187.5810  177.7260  146.4090 C   0  0  0  0  0  1  0  0  0  0  0  0
  186.8460  177.5400  145.0930 C   0  0  1  0  0  3  0  0  0  0  0  0
  185.5880  178.2980  145.0800 C   0  0  0  0  0  2  0  0  0  0  0  0
  185.4940  178.8580  143.7840 O   0  0  0  0  0  0  0  0  0  0  0  0
  184.1730  178.9720  143.3610 C   0  0  2  0  0  3  0  0  0  0  0  0
  183.0920  178.8740  144.4660 C   0  0  0  0  0  1  0  0  0  0  0  0
  183.9190  178.1190  142.1370 C   0  0  0  0  0  2  0  0  0  0  0  0
  183.9180  178.5500  139.8660 C   0  0  0  0  0  2  0  0  0  0  0  0
  181.7990  178.0750  141.0120 O   0  0  0  0  0  0  0  0  0  0  0  0
  181.5800  177.8040  139.7180 N   0  0  0  0  0  0  0  0  0  0  0  0
  183.0290  178.8470  141.0980 C   0  0  1  0  0  3  0  0  0  0  0  0
  182.9330  177.6130  139.1260 C   0  0  0  0  0  2  0  0  0  0  0  0
  180.7110  175.1390  139.7280 C   0  0  0  0  0  1  0  0  0  0  0  0
  179.6160  177.3110  140.9940 C   0  0  0  0  0  1  0  0  0  0  0  0
  180.4170  176.7530  139.7030 C   0  0  0  0  0  0  0  0  0  0  0  0
  180.1050  176.8530  137.1090 C   0  0  1  0  0  3  0  0  0  0  0  0
  179.4310  177.1050  138.5100 C   0  0  1  0  0  3  0  0  0  0  0  0
  178.9310  175.9810  137.5860 C   0  0  0  0  0  2  0  0  0  0  0  0
  179.9430  178.1600  136.2630 C   0  0  0  0  0  2  0  0  0  0  0  0
  179.8680  178.0460  134.8710 O   0  0  0  0  0  1  0  0  0  0  0  0
  191.8180  178.9040  144.2450 C   0  0  0  0  0  3  0  0  0  0  0  0
  191.2090  180.1390  144.2140 C   0  0  0  0  0  2  0  0  0  0  0  0
  192.8150  174.4860  137.5010 C   0  0  0  0  0  2  0  0  0  0  0  0
  194.6920  174.1150  137.3530 S   0  0  0  0  0  0  0  0  0  0  0  0
  195.3260  175.2440  136.3860 N   0  0  0  0  0  2  0  0  0  0  0  0
  198.9740  174.6640  136.3840 O   0  0  0  0  0  0  0  0  0  0  0  0
  197.7720  174.5870  136.6960 C   0  0  0  0  0  3  0  0  0  0  0  0
  196.7840  175.4520  136.1300 N   0  0  0  0  0  0  0  0  0  0  0  0
  197.1570  176.6090  135.2050 C   0  0  0  0  0  2  0  0  0  0  0  0
  196.3730  177.8140  135.2810 O   0  0  0  0  0  1  0  0  0  0  0  0
  1  5  1  0  0  0  0
  2  3  1  0  0  0  0
  3 12  1  0  0  0  0
  3 11  1  0  0  0  0
  4 15  1  0  0  0  0
  4  2  1  0  0  0  0
  4  5  1  0  0  0  0
  5 13  1  0  0  0  0
  6  9  1  0  0  0  0
  6  4  1  0  0  0  0
  8 52  1  0  0  0  0
  8  7  1  0  0  0  0
  9  1  1  0  0  0  0
 10 30  1  0  0  0  0
 10  8  1  0  0  0  0
 11 10  1  0  0  0  0
 13 11  1  0  0  0  0
 13 14  1  0  0  0  0
 14  8  1  0  0  0  0
 15  2  1  0  0  0  0
 16 18  1  0  0  0  0
 17 16  1  0  0  0  0
 17 18  1  0  0  0  0
 18 15  1  0  0  0  0
 19 17  1  0  0  0  0
 19 23  1  0  0  0  0
 21 23  1  0  0  0  0
 22 21  1  0  0  0  0
 22 24  1  0  0  0  0
 22 23  1  0  0  0  0
 22 20  1  0  0  0  0
 24 25  1  0  0  0  0
 26 24  1  0  0  0  0
 28 26  1  0  0  0  0
 28 27  1  0  0  0  0
 29 30  2  0  0  0  0
 30 31  1  0  0  0  0
 31 33  1  0  0  0  0
 33 32  1  0  0  0  0
 34 33  1  0  0  0  0
 35 34  1  0  0  0  0
 36 35  1  0  0  0  0
 36 37  1  0  0  0  0
 38 36  1  0  0  0  0
 39 42  1  0  0  0  0
 40 42  1  0  0  0  0
 41 40  1  0  0  0  0
 42 38  1  0  0  0  0
 43 41  1  0  0  0  0
 43 39  1  0  0  0  0
 46 41  1  0  0  0  0
 46 44  1  0  0  0  0
 46 45  1  0  0  0  0
 47 49  1  0  0  0  0
 47 48  1  0  0  0  0
 48 46  1  0  0  0  0
 49 48  1  0  0  0  0
 50 47  1  0  0  0  0
 51 50  1  0  0  0  0
 53 52  2  0  0  0  0
 54  9  1  0  0  0  0
 55 54  1  0  0  0  0
 56 55  1  0  0  0  0
 57 58  2  0  0  0  0
 59 56  1  0  0  0  0
 59 58  1  0  0  0  0
 60 61  1  0  0  0  0
 60 59  1  0  0  0  0
M  END
>  <MODEL>
2

>  <REMARK>
 VINA RESULT:      -6.9      1.627      2.272
  Name = 
  22 active torsions:
  status: ('A' for Active; 'I' for Inactive)
    1  A    between atoms: O_5  and  C_10
    2  A    between atoms: O_5  and  C_22
    3  A    between atoms: C_8  and  C_48
    4  A    between atoms: C_8  and  C_58
    5  A    between atoms: C_9  and  C_18
    6  A    between atoms: C_10  and  C_26
    7  A    between atoms: C_11  and  C_25
    8  A    between atoms: C_11  and  C_59
    9  A    between atoms: C_13  and  C_33
   10  A    between atoms: C_13  and  S_46
   11  A    between atoms: O_14  and  C_35
   12  A    between atoms: O_14  and  C_50
   13  A    between atoms: C_19  and  C_60
   14  A    between atoms: C_22  and  C_50
   15  A    between atoms: C_26  and  C_34
   16  A    between atoms: C_27  and  C_32
   17  A    between atoms: N_30  and  C_60
   18  A    between atoms: C_31  and  N_45
   19  A    between atoms: C_35  and  C_37
   20  A    between atoms: N_45  and  N_54
   21  A    between atoms: C_51  and  C_57
   22  A    between atoms: C_55  and  C_58
                            x       y       z     vdW  Elec       q    Type
                         _______ _______ _______ _____ _____    ______ ____

>  <TORSDO>
F 22

$$$$
=
 OpenBabel10222420333D

 61 68  0  0  1  0  0  0  0  0999 V2000
  186.3260  178.4820  140.2100 O   0  0  0  0  0  0  0  0  0  0  0  0
  189.4430  176.6870  139.8920 C   0  0  2  0  0  3  0  0  0  0  0  0
  189.4640  176.4050  138.3430 C   0  0  1  0  0  3  0  0  0  0  0  0
  188.6630  177.8790  140.4740 C   0  0  1  0  0  0  0  0  0  0  0  0
  187.5290  178.4370  139.4770 C   0  0  1  0  0  3  0  0  0  0  0  0
  188.0470  177.6930  141.8850 C   0  0  0  0  0  2  0  0  0  0  0  0
  186.2960  175.6460  135.0300 C   0  0  0  0  0  1  0  0  0  0  0  0
  186.8190  176.9750  135.6510 C   0  0  2  0  0  0  0  0  0  0  0  0
  186.6800  178.4140  141.6490 C   0  0  2  0  0  3  0  0  0  0  0  0
  188.2420  176.5940  136.1900 C   0  0  1  0  0  3  0  0  0  0  0  0
  188.6310  177.3580  137.4580 C   0  0  1  0  0  3  0  0  0  0  0  0
  190.8460  176.1850  137.6080 C   0  0  0  0  0  1  0  0  0  0  0  0
  187.2840  177.7950  138.0560 C   0  0  2  0  0  3  0  0  0  0  0  0
  186.0780  177.5250  136.9900 C   0  0  0  0  0  2  0  0  0  0  0  0
  190.1740  177.9760  139.9010 C   0  0  1  0  0  3  0  0  0  0  0  0
  192.8310  177.3280  140.5970 C   0  0  0  0  0  2  0  0  0  0  0  0
  191.9150  177.8640  141.7970 C   0  0  1  0  0  3  0  0  0  0  0  0
  191.2910  177.2910  140.4690 C   0  0  1  0  0  3  0  0  0  0  0  0
  191.5900  177.0100  142.9880 C   0  0  0  0  0  2  0  0  0  0  0  0
  191.6900  178.0650  145.6500 O   0  0  0  0  0  1  0  0  0  0  0  0
  190.2340  176.3230  144.4930 N   0  0  0  0  0  2  0  0  0  0  0  0
  191.3850  176.8340  145.3670 C   0  0  2  0  0  0  0  0  0  0  0  0
  190.8750  177.5020  144.1210 C   0  0  1  0  0  3  0  0  0  0  0  0
  190.5780  176.6600  146.5850 C   0  0  1  0  0  3  0  0  0  0  0  0
  190.9990  175.7760  147.5790 O   0  0  0  0  0  1  0  0  0  0  0  0
  189.7390  177.7850  147.2650 C   0  0  0  0  0  2  0  0  0  0  0  0
  187.2900  177.5470  146.6180 C   0  0  0  0  0  1  0  0  0  0  0  0
  188.3640  177.2870  147.6940 C   0  0  0  0  0  2  0  0  0  0  0  0
  189.4910  174.3250  135.6170 O   0  0  0  0  0  0  0  0  0  0  0  0
  188.6400  174.9920  136.2770 C   0  0  0  0  0  0  0  0  0  0  0  0
  187.5360  174.3500  136.7150 O   0  0  0  0  0  0  0  0  0  0  0  0
  187.7600  171.9560  137.7930 C   0  0  0  0  0  1  0  0  0  0  0  0
  187.3560  172.8780  136.6560 C   0  0  1  0  0  3  0  0  0  0  0  0
  185.9950  172.5780  136.1910 C   0  0  0  0  0  2  0  0  0  0  0  0
  185.1440  172.8820  137.2800 O   0  0  0  0  0  0  0  0  0  0  0  0
  183.9270  172.2140  137.1910 C   0  0  2  0  0  3  0  0  0  0  0  0
  183.8170  171.1410  136.0810 C   0  0  0  0  0  1  0  0  0  0  0  0
  182.7680  173.1840  137.2630 C   0  0  0  0  0  2  0  0  0  0  0  0
  181.7760  174.5280  135.6650 C   0  0  0  0  0  2  0  0  0  0  0  0
  183.0160  175.5580  137.5170 O   0  0  0  0  0  0  0  0  0  0  0  0
  182.1850  176.5070  137.0650 N   0  0  0  0  0  0  0  0  0  0  0  0
  183.0710  174.5070  136.5140 C   0  0  1  0  0  3  0  0  0  0  0  0
  181.1280  175.7730  136.3140 C   0  0  0  0  0  2  0  0  0  0  0  0
  180.4750  177.6090  138.9940 C   0  0  0  0  0  1  0  0  0  0  0  0
  183.1050  176.8760  139.2430 C   0  0  0  0  0  1  0  0  0  0  0  0
  181.9460  177.4670  138.2800 C   0  0  0  0  0  0  0  0  0  0  0  0
  181.6730  180.0480  138.6010 C   0  0  1  0  0  3  0  0  0  0  0  0
  182.5080  178.9050  137.9100 C   0  0  1  0  0  3  0  0  0  0  0  0
  183.1320  179.7800  139.0110 C   0  0  0  0  0  2  0  0  0  0  0  0
  181.2460  181.0610  137.4860 C   0  0  0  0  0  2  0  0  0  0  0  0
  180.4560  180.5940  136.4310 O   0  0  0  0  0  1  0  0  0  0  0  0
  186.8090  178.1170  134.5960 C   0  0  0  0  0  3  0  0  0  0  0  0
  186.4750  179.4170  134.9050 C   0  0  0  0  0  2  0  0  0  0  0  0
  185.5190  177.9040  142.6140 C   0  0  0  0  0  2  0  0  0  0  0  0
  184.0820  178.9790  143.2930 S   0  0  0  0  0  0  0  0  0  0  0  0
  182.7570  178.5880  142.4580 N   0  0  0  0  0  2  0  0  0  0  0  0
  179.4130  180.0890  142.0080 O   0  0  0  0  0  0  0  0  0  0  0  0
  180.6130  179.8170  141.8250 C   0  0  0  0  0  3  0  0  0  0  0  0
  181.3670  179.0470  142.7630 N   0  0  0  0  0  0  0  0  0  0  0  0
  180.7880  178.6190  144.1110 C   0  0  0  0  0  2  0  0  0  0  0  0
  179.7730  177.5980  144.1170 O   0  0  0  0  0  1  0  0  0  0  0  0
  1  9  1  0  0  0  0
  2 15  1  0  0  0  0
  2  4  1  0  0  0  0
  3  2  1  0  0  0  0
  4  6  1  0  0  0  0
  5  1  1  0  0  0  0
  5  4  1  0  0  0  0
  7  8  1  0  0  0  0
  8 10  1  0  0  0  0
  8 14  1  0  0  0  0
  9  6  1  0  0  0  0
  9 54  1  0  0  0  0
 10 30  1  0  0  0  0
 10 11  1  0  0  0  0
 11 13  1  0  0  0  0
 11  3  1  0  0  0  0
 12  3  1  0  0  0  0
 13  5  1  0  0  0  0
 14 13  1  0  0  0  0
 15 18  1  0  0  0  0
 15  4  1  0  0  0  0
 16 17  1  0  0  0  0
 17 19  1  0  0  0  0
 18 16  1  0  0  0  0
 18 17  1  0  0  0  0
 19 23  1  0  0  0  0
 21 22  1  0  0  0  0
 22 20  1  0  0  0  0
 22 24  1  0  0  0  0
 23 21  1  0  0  0  0
 23 22  1  0  0  0  0
 24 26  1  0  0  0  0
 24 25  1  0  0  0  0
 26 28  1  0  0  0  0
 27 28  1  0  0  0  0
 29 30  2  0  0  0  0
 30 31  1  0  0  0  0
 33 31  1  0  0  0  0
 33 32  1  0  0  0  0
 34 33  1  0  0  0  0
 34 35  1  0  0  0  0
 36 38  1  0  0  0  0
 36 35  1  0  0  0  0
 37 36  1  0  0  0  0
 39 43  1  0  0  0  0
 39 42  1  0  0  0  0
 41 40  1  0  0  0  0
 41 46  1  0  0  0  0
 42 38  1  0  0  0  0
 42 40  1  0  0  0  0
 43 41  1  0  0  0  0
 46 44  1  0  0  0  0
 46 45  1  0  0  0  0
 47 49  1  0  0  0  0
 48 46  1  0  0  0  0
 48 47  1  0  0  0  0
 48 49  1  0  0  0  0
 50 47  1  0  0  0  0
 51 50  1  0  0  0  0
 52 53  2  0  0  0  0
 52  8  1  0  0  0  0
 54 55  1  0  0  0  0
 56 59  1  0  0  0  0
 56 55  1  0  0  0  0
 58 57  2  0  0  0  0
 58 59  1  0  0  0  0
 59 60  1  0  0  0  0
 60 61  1  0  0  0  0
M  END
>  <MODEL>
3

>  <REMARK>
 VINA RESULT:      -6.1      3.834      9.524
  Name = 
  22 active torsions:
  status: ('A' for Active; 'I' for Inactive)
    1  A    between atoms: O_5  and  C_10
    2  A    between atoms: O_5  and  C_22
    3  A    between atoms: C_8  and  C_48
    4  A    between atoms: C_8  and  C_58
    5  A    between atoms: C_9  and  C_18
    6  A    between atoms: C_10  and  C_26
    7  A    between atoms: C_11  and  C_25
    8  A    between atoms: C_11  and  C_59
    9  A    between atoms: C_13  and  C_33
   10  A    between atoms: C_13  and  S_46
   11  A    between atoms: O_14  and  C_35
   12  A    between atoms: O_14  and  C_50
   13  A    between atoms: C_19  and  C_60
   14  A    between atoms: C_22  and  C_50
   15  A    between atoms: C_26  and  C_34
   16  A    between atoms: C_27  and  C_32
   17  A    between atoms: N_30  and  C_60
   18  A    between atoms: C_31  and  N_45
   19  A    between atoms: C_35  and  C_37
   20  A    between atoms: N_45  and  N_54
   21  A    between atoms: C_51  and  C_57
   22  A    between atoms: C_55  and  C_58
                            x       y       z     vdW  Elec       q    Type
                         _______ _______ _______ _____ _____    ______ ____

>  <TORSDO>
F 22

$$$$
=
 OpenBabel10222420333D

 61 68  0  0  1  0  0  0  0  0999 V2000
  183.0560  177.8550  136.8920 O   0  0  0  0  0  0  0  0  0  0  0  0
  184.7770  174.9620  135.5840 C   0  0  2  0  0  3  0  0  0  0  0  0
  186.2040  175.1550  136.2220 C   0  0  1  0  0  3  0  0  0  0  0  0
  183.5230  175.5630  136.2440 C   0  0  1  0  0  0  0  0  0  0  0  0
  183.8600  176.7590  137.2670 C   0  0  1  0  0  3  0  0  0  0  0  0
  182.3810  176.0150  135.2970 C   0  0  0  0  0  2  0  0  0  0  0  0
  188.8650  178.7580  137.4590 C   0  0  0  0  0  1  0  0  0  0  0  0
  187.6960  178.0530  138.2080 C   0  0  2  0  0  0  0  0  0  0  0  0
  181.9690  177.3340  136.0270 C   0  0  2  0  0  3  0  0  0  0  0  0
  187.6780  176.6110  137.5890 C   0  0  1  0  0  3  0  0  0  0  0  0
  186.2740  176.0080  137.5070 C   0  0  1  0  0  3  0  0  0  0  0  0
  187.1330  173.8970  136.4510 C   0  0  0  0  0  1  0  0  0  0  0  0
  185.3430  177.2290  137.5340 C   0  0  2  0  0  3  0  0  0  0  0  0
  186.1850  178.5750  137.9110 C   0  0  0  0  0  2  0  0  0  0  0  0
  184.1620  174.1310  136.6450 C   0  0  1  0  0  3  0  0  0  0  0  0
  184.8910  171.6210  135.5790 C   0  0  0  0  0  2  0  0  0  0  0  0
  183.3760  171.7410  136.0860 C   0  0  1  0  0  3  0  0  0  0  0  0
  184.2450  173.0140  135.7580 C   0  0  1  0  0  3  0  0  0  0  0  0
  182.2120  171.5940  135.1510 C   0  0  0  0  0  2  0  0  0  0  0  0
  180.0340  173.4320  135.4450 O   0  0  0  0  0  1  0  0  0  0  0  0
  181.0130  171.6000  136.9220 N   0  0  0  0  0  2  0  0  0  0  0  0
  180.7870  173.0340  136.4280 C   0  0  2  0  0  0  0  0  0  0  0  0
  180.8610  171.8120  135.5550 C   0  0  1  0  0  3  0  0  0  0  0  0
  179.7380  173.2490  137.4370 C   0  0  1  0  0  3  0  0  0  0  0  0
  179.8350  172.6350  138.6850 O   0  0  0  0  0  1  0  0  0  0  0  0
  178.9310  174.5720  137.6130 C   0  0  0  0  0  2  0  0  0  0  0  0
  179.5360  176.0370  139.6030 C   0  0  0  0  0  1  0  0  0  0  0  0
  179.8100  175.7100  138.1210 C   0  0  0  0  0  2  0  0  0  0  0  0
  188.3280  176.6870  135.0180 O   0  0  0  0  0  0  0  0  0  0  0  0
  188.5570  176.3420  136.2150 C   0  0  0  0  0  0  0  0  0  0  0  0
  189.2450  175.1980  136.4220 O   0  0  0  0  0  0  0  0  0  0  0  0
  191.6000  174.1640  136.9950 C   0  0  0  0  0  1  0  0  0  0  0  0
  190.4400  175.0970  137.2970 C   0  0  1  0  0  3  0  0  0  0  0  0
  190.9180  176.4480  137.6170 C   0  0  0  0  0  2  0  0  0  0  0  0
  190.9370  176.5210  139.0310 O   0  0  0  0  0  0  0  0  0  0  0  0
  191.9720  177.3260  139.4950 C   0  0  2  0  0  3  0  0  0  0  0  0
  193.3410  177.1500  138.7940 C   0  0  0  0  0  1  0  0  0  0  0  0
  192.0210  177.3300  141.0080 C   0  0  0  0  0  2  0  0  0  0  0  0
  190.3400  175.8910  141.6780 C   0  0  0  0  0  2  0  0  0  0  0  0
  190.7920  177.9220  142.9840 O   0  0  0  0  0  0  0  0  0  0  0  0
  190.1620  177.0850  143.8200 N   0  0  0  0  0  0  0  0  0  0  0  0
  190.6050  177.4170  141.6330 C   0  0  1  0  0  3  0  0  0  0  0  0
  190.3290  175.7330  143.2170 C   0  0  0  0  0  2  0  0  0  0  0  0
  191.2930  176.4370  146.3020 C   0  0  0  0  0  1  0  0  0  0  0  0
  191.5990  178.7200  144.8150 C   0  0  0  0  0  1  0  0  0  0  0  0
  190.6200  177.5090  145.2570 C   0  0  0  0  0  0  0  0  0  0  0  0
  188.2080  177.3170  146.2470 C   0  0  1  0  0  3  0  0  0  0  0  0
  189.4240  178.2770  145.9650 C   0  0  1  0  0  3  0  0  0  0  0  0
  189.0330  177.9030  147.4060 C   0  0  0  0  0  2  0  0  0  0  0  0
  186.9250  177.9910  145.6520 C   0  0  0  0  0  2  0  0  0  0  0  0
  185.7650  178.0150  146.4320 O   0  0  0  0  0  1  0  0  0  0  0  0
  187.9230  178.0960  139.7460 C   0  0  0  0  0  3  0  0  0  0  0  0
  186.9390  178.4630  140.6370 C   0  0  0  0  0  2  0  0  0  0  0  0
  181.2920  178.4080  135.0640 C   0  0  0  0  0  2  0  0  0  0  0  0
  180.0400  179.7570  135.6060 S   0  0  0  0  0  0  0  0  0  0  0  0
  180.8960  180.9950  136.1920 N   0  0  0  0  0  2  0  0  0  0  0  0
  180.2180  184.6240  136.1060 O   0  0  0  0  0  0  0  0  0  0  0  0
  180.7640  183.5260  135.8990 C   0  0  0  0  0  3  0  0  0  0  0  0
  180.3460  182.3330  136.5670 N   0  0  0  0  0  0  0  0  0  0  0  0
  179.2910  182.3520  137.6730 C   0  0  0  0  0  2  0  0  0  0  0  0
  179.7240  182.6370  139.0150 O   0  0  0  0  0  1  0  0  0  0  0  0
  1  5  1  0  0  0  0
  2  3  1  0  0  0  0
  2  4  1  0  0  0  0
  2 15  1  0  0  0  0
  3 12  1  0  0  0  0
  3 11  1  0  0  0  0
  4 15  1  0  0  0  0
  4  5  1  0  0  0  0
  5 13  1  0  0  0  0
  6  9  1  0  0  0  0
  6  4  1  0  0  0  0
  7  8  1  0  0  0  0
  8 52  1  0  0  0  0
  9  1  1  0  0  0  0
 10  8  1  0  0  0  0
 11 13  1  0  0  0  0
 11 10  1  0  0  0  0
 13 14  1  0  0  0  0
 14  8  1  0  0  0  0
 16 18  1  0  0  0  0
 16 17  1  0  0  0  0
 18 17  1  0  0  0  0
 18 15  1  0  0  0  0
 19 23  1  0  0  0  0
 19 17  1  0  0  0  0
 20 22  1  0  0  0  0
 22 21  1  0  0  0  0
 22 24  1  0  0  0  0
 23 22  1  0  0  0  0
 23 21  1  0  0  0  0
 24 26  1  0  0  0  0
 24 25  1  0  0  0  0
 26 28  1  0  0  0  0
 28 27  1  0  0  0  0
 29 30  2  0  0  0  0
 30 31  1  0  0  0  0
 30 10  1  0  0  0  0
 31 33  1  0  0  0  0
 32 33  1  0  0  0  0
 33 34  1  0  0  0  0
 34 35  1  0  0  0  0
 35 36  1  0  0  0  0
 36 38  1  0  0  0  0
 37 36  1  0  0  0  0
 38 42  1  0  0  0  0
 39 43  1  0  0  0  0
 40 41  1  0  0  0  0
 41 46  1  0  0  0  0
 42 39  1  0  0  0  0
 42 40  1  0  0  0  0
 43 41  1  0  0  0  0
 45 46  1  0  0  0  0
 46 48  1  0  0  0  0
 46 44  1  0  0  0  0
 47 49  1  0  0  0  0
 48 47  1  0  0  0  0
 48 49  1  0  0  0  0
 50 47  1  0  0  0  0
 50 51  1  0  0  0  0
 52 53  2  0  0  0  0
 54 55  1  0  0  0  0
 54  9  1  0  0  0  0
 55 56  1  0  0  0  0
 56 59  1  0  0  0  0
 58 57  2  0  0  0  0
 58 59  1  0  0  0  0
 59 60  1  0  0  0  0
 60 61  1  0  0  0  0
M  END
>  <MODEL>
4

>  <REMARK>
 VINA RESULT:      -4.8      4.024     10.293
  Name = 
  22 active torsions:
  status: ('A' for Active; 'I' for Inactive)
    1  A    between atoms: O_5  and  C_10
    2  A    between atoms: O_5  and  C_22
    3  A    between atoms: C_8  and  C_48
    4  A    between atoms: C_8  and  C_58
    5  A    between atoms: C_9  and  C_18
    6  A    between atoms: C_10  and  C_26
    7  A    between atoms: C_11  and  C_25
    8  A    between atoms: C_11  and  C_59
    9  A    between atoms: C_13  and  C_33
   10  A    between atoms: C_13  and  S_46
   11  A    between atoms: O_14  and  C_35
   12  A    between atoms: O_14  and  C_50
   13  A    between atoms: C_19  and  C_60
   14  A    between atoms: C_22  and  C_50
   15  A    between atoms: C_26  and  C_34
   16  A    between atoms: C_27  and  C_32
   17  A    between atoms: N_30  and  C_60
   18  A    between atoms: C_31  and  N_45
   19  A    between atoms: C_35  and  C_37
   20  A    between atoms: N_45  and  N_54
   21  A    between atoms: C_51  and  C_57
   22  A    between atoms: C_55  and  C_58
                            x       y       z     vdW  Elec       q    Type
                         _______ _______ _______ _____ _____    ______ ____

>  <TORSDO>
F 22

$$$$
=
 OpenBabel10222420333D

 61 68  0  0  1  0  0  0  0  0999 V2000
  191.9680  175.1220  136.8400 O   0  0  0  0  0  0  0  0  0  0  0  0
  190.1310  177.5400  138.7950 C   0  0  2  0  0  3  0  0  0  0  0  0
  188.6520  177.1870  138.3850 C   0  0  1  0  0  3  0  0  0  0  0  0
  191.2510  176.4870  138.7150 C   0  0  1  0  0  0  0  0  0  0  0  0
  190.8930  175.2570  137.7410 C   0  0  1  0  0  3  0  0  0  0  0  0
  192.6750  177.0030  138.3750 C   0  0  0  0  0  2  0  0  0  0  0  0
  186.5230  175.5490  134.5940 C   0  0  0  0  0  1  0  0  0  0  0  0
  187.2800  174.8080  135.7350 C   0  0  2  0  0  0  0  0  0  0  0  0
  193.1240  175.8530  137.4150 C   0  0  2  0  0  3  0  0  0  0  0  0
  187.1800  175.7990  136.9470 C   0  0  1  0  0  3  0  0  0  0  0  0
  188.4050  175.7550  137.8640 C   0  0  1  0  0  3  0  0  0  0  0  0
  187.4660  177.5310  139.3720 C   0  0  0  0  0  1  0  0  0  0  0  0
  189.5170  175.1830  136.9720 C   0  0  2  0  0  3  0  0  0  0  0  0
  188.8870  174.6180  135.5760 C   0  0  0  0  0  2  0  0  0  0  0  0
  190.2570  176.6600  139.9800 C   0  0  1  0  0  3  0  0  0  0  0  0
  189.2300  178.7510  141.5750 C   0  0  0  0  0  2  0  0  0  0  0  0
  190.0700  177.6340  142.3580 C   0  0  1  0  0  3  0  0  0  0  0  0
  190.2000  177.8280  140.8000 C   0  0  1  0  0  3  0  0  0  0  0  0
  191.3470  177.9610  143.0770 C   0  0  0  0  0  2  0  0  0  0  0  0
  192.1640  176.8450  145.5850 O   0  0  0  0  0  1  0  0  0  0  0  0
  190.0630  178.0450  144.7870 N   0  0  0  0  0  2  0  0  0  0  0  0
  190.9380  176.8410  145.1530 C   0  0  2  0  0  0  0  0  0  0  0  0
  191.4230  178.1020  144.4950 C   0  0  1  0  0  3  0  0  0  0  0  0
  190.3660  176.7990  146.5090 C   0  0  1  0  0  3  0  0  0  0  0  0
  191.1240  176.3060  147.5700 O   0  0  0  0  0  1  0  0  0  0  0  0
  189.3570  177.8410  147.0810 C   0  0  0  0  0  2  0  0  0  0  0  0
  187.3610  178.1930  148.6200 C   0  0  0  0  0  1  0  0  0  0  0  0
  188.2250  177.1720  147.8520 C   0  0  0  0  0  2  0  0  0  0  0  0
  187.3420  178.3870  136.3880 O   0  0  0  0  0  0  0  0  0  0  0  0
  186.6730  177.3440  136.6520 C   0  0  0  0  0  0  0  0  0  0  0  0
  185.5050  177.4940  137.3120 O   0  0  0  0  0  0  0  0  0  0  0  0
  183.8320  175.9920  135.9380 C   0  0  0  0  0  1  0  0  0  0  0  0
  184.1720  177.2600  136.7020 C   0  0  1  0  0  3  0  0  0  0  0  0
  183.1300  177.5790  137.6860 C   0  0  0  0  0  2  0  0  0  0  0  0
  181.9090  177.1720  137.0960 O   0  0  0  0  0  0  0  0  0  0  0  0
  180.8240  177.8730  137.6120 C   0  0  2  0  0  3  0  0  0  0  0  0
  179.4860  177.0970  137.6900 C   0  0  0  0  0  1  0  0  0  0  0  0
  180.7300  179.2550  137.0030 C   0  0  0  0  0  2  0  0  0  0  0  0
  179.4710  180.6150  138.3840 C   0  0  0  0  0  2  0  0  0  0  0  0
  181.6150  179.7240  139.1850 O   0  0  0  0  0  0  0  0  0  0  0  0
  180.9180  180.0350  140.2860 N   0  0  0  0  0  0  0  0  0  0  0  0
  180.9640  180.3690  138.0550 C   0  0  1  0  0  3  0  0  0  0  0  0
  179.4970  180.0980  139.8430 C   0  0  0  0  0  2  0  0  0  0  0  0
  181.1060  179.3380  142.9950 C   0  0  0  0  0  1  0  0  0  0  0  0
  180.9760  177.6980  140.8010 C   0  0  0  0  0  1  0  0  0  0  0  0
  181.4850  179.1070  141.4150 C   0  0  0  0  0  0  0  0  0  0  0  0
  183.7170  178.1950  142.4240 C   0  0  1  0  0  3  0  0  0  0  0  0
  183.0600  179.0060  141.2450 C   0  0  1  0  0  3  0  0  0  0  0  0
  183.7070  177.6330  140.9920 C   0  0  0  0  0  2  0  0  0  0  0  0
  184.8720  179.0720  143.0160 C   0  0  0  0  0  2  0  0  0  0  0  0
  184.5320  180.1630  143.8220 O   0  0  0  0  0  1  0  0  0  0  0  0
  186.6560  173.4070  135.9890 C   0  0  0  0  0  2  0  0  0  0  0  0
  187.4140  172.2630  136.1170 C   0  0  0  0  0  1  0  0  0  0  0  0
  194.2370  176.3010  136.3660 C   0  0  0  0  0  2  0  0  0  0  0  0
  195.6530  175.1890  135.7030 S   0  0  0  0  0  0  0  0  0  0  0  0
  195.6790  173.8560  136.6130 N   0  0  0  0  0  2  0  0  0  0  0  0
  197.8780  171.4560  134.8670 O   0  0  0  0  0  0  0  0  0  0  0  0
  197.0810  172.3910  135.0650 C   0  0  0  0  0  3  0  0  0  0  0  0
  196.5040  172.6370  136.3490 N   0  0  0  0  0  0  0  0  0  0  0  0
  196.7260  171.6930  137.5300 C   0  0  0  0  0  2  0  0  0  0  0  0
  195.9010  170.5180  137.6210 O   0  0  0  0  0  1  0  0  0  0  0  0
  1  9  1  0  0  0  0
  1  5  1  0  0  0  0
  2 15  1  0  0  0  0
  3  2  1  0  0  0  0
  3 12  1  0  0  0  0
  4  2  1  0  0  0  0
  4 15  1  0  0  0  0
  5  4  1  0  0  0  0
  6  4  1  0  0  0  0
  7  8  1  0  0  0  0
  8 52  1  0  0  0  0
  8 10  1  0  0  0  0
  9  6  1  0  0  0  0
 10 11  1  0  0  0  0
 11  3  1  0  0  0  0
 13  5  1  0  0  0  0
 13 11  1  0  0  0  0
 14  8  1  0  0  0  0
 14 13  1  0  0  0  0
 15 18  1  0  0  0  0
 16 17  1  0  0  0  0
 17 19  1  0  0  0  0
 18 16  1  0  0  0  0
 18 17  1  0  0  0  0
 19 23  1  0  0  0  0
 21 22  1  0  0  0  0
 22 20  1  0  0  0  0
 22 24  1  0  0  0  0
 23 21  1  0  0  0  0
 23 22  1  0  0  0  0
 24 26  1  0  0  0  0
 24 25  1  0  0  0  0
 26 28  1  0  0  0  0
 28 27  1  0  0  0  0
 29 30  2  0  0  0  0
 30 10  1  0  0  0  0
 30 31  1  0  0  0  0
 32 33  1  0  0  0  0
 33 31  1  0  0  0  0
 33 34  1  0  0  0  0
 35 36  1  0  0  0  0
 35 34  1  0  0  0  0
 36 37  1  0  0  0  0
 38 36  1  0  0  0  0
 38 42  1  0  0  0  0
 39 43  1  0  0  0  0
 40 41  1  0  0  0  0
 41 46  1  0  0  0  0
 42 39  1  0  0  0  0
 42 40  1  0  0  0  0
 43 41  1  0  0  0  0
 45 46  1  0  0  0  0
 46 44  1  0  0  0  0
 47 50  1  0  0  0  0
 48 46  1  0  0  0  0
 48 47  1  0  0  0  0
 49 48  1  0  0  0  0
 49 47  1  0  0  0  0
 50 51  1  0  0  0  0
 52 53  1  0  0  0  0
 54  9  1  0  0  0  0
 55 54  1  0  0  0  0
 55 56  1  0  0  0  0
 57 58  2  0  0  0  0
 58 59  1  0  0  0  0
 59 56  1  0  0  0  0
 59 60  1  0  0  0  0
 60 61  1  0  0  0  0
M  END
>  <MODEL>
5

>  <REMARK>
 VINA RESULT:      -4.6      2.446      6.953
  Name = 
  22 active torsions:
  status: ('A' for Active; 'I' for Inactive)
    1  A    between atoms: O_5  and  C_10
    2  A    between atoms: O_5  and  C_22
    3  A    between atoms: C_8  and  C_48
    4  A    between atoms: C_8  and  C_58
    5  A    between atoms: C_9  and  C_18
    6  A    between atoms: C_10  and  C_26
    7  A    between atoms: C_11  and  C_25
    8  A    between atoms: C_11  and  C_59
    9  A    between atoms: C_13  and  C_33
   10  A    between atoms: C_13  and  S_46
   11  A    between atoms: O_14  and  C_35
   12  A    between atoms: O_14  and  C_50
   13  A    between atoms: C_19  and  C_60
   14  A    between atoms: C_22  and  C_50
   15  A    between atoms: C_26  and  C_34
   16  A    between atoms: C_27  and  C_32
   17  A    between atoms: N_30  and  C_60
   18  A    between atoms: C_31  and  N_45
   19  A    between atoms: C_35  and  C_37
   20  A    between atoms: N_45  and  N_54
   21  A    between atoms: C_51  and  C_57
   22  A    between atoms: C_55  and  C_58
                            x       y       z     vdW  Elec       q    Type
                         _______ _______ _______ _____ _____    ______ ____

>  <TORSDO>
F 22

$$$$
=
 OpenBabel10222420333D

 61 68  0  0  1  0  0  0  0  0999 V2000
  191.8310  175.2400  137.0240 O   0  0  0  0  0  0  0  0  0  0  0  0
  190.1640  177.5790  139.2120 C   0  0  2  0  0  3  0  0  0  0  0  0
  188.6750  177.4370  138.7170 C   0  0  1  0  0  3  0  0  0  0  0  0
  191.1750  176.4330  139.0340 C   0  0  1  0  0  0  0  0  0  0  0  0
  190.7370  175.3760  137.9020 C   0  0  1  0  0  3  0  0  0  0  0  0
  192.6560  176.8340  138.8040 C   0  0  0  0  0  2  0  0  0  0  0  0
  186.5580  176.5090  134.6860 C   0  0  0  0  0  1  0  0  0  0  0  0
  187.1860  175.5570  135.7470 C   0  0  2  0  0  0  0  0  0  0  0  0
  193.0280  175.7690  137.7210 C   0  0  2  0  0  3  0  0  0  0  0  0
  187.1350  176.3970  137.0710 C   0  0  1  0  0  3  0  0  0  0  0  0
  188.3080  176.1130  138.0120 C   0  0  1  0  0  3  0  0  0  0  0  0
  187.4890  177.7800  139.7020 C   0  0  0  0  0  1  0  0  0  0  0  0
  189.3950  175.5410  137.0880 C   0  0  2  0  0  3  0  0  0  0  0  0
  188.7720  175.2210  135.6140 C   0  0  0  0  0  2  0  0  0  0  0  0
  190.1490  176.5530  140.2800 C   0  0  1  0  0  3  0  0  0  0  0  0
  189.5520  178.9840  141.5840 C   0  0  0  0  0  2  0  0  0  0  0  0
  189.0270  177.6600  142.3180 C   0  0  1  0  0  3  0  0  0  0  0  0
  190.1740  177.6110  141.2390 C   0  0  1  0  0  3  0  0  0  0  0  0
  189.5150  177.2620  143.6800 C   0  0  0  0  0  2  0  0  0  0  0  0
  186.8470  177.0110  144.6930 O   0  0  0  0  0  1  0  0  0  0  0  0
  189.1020  177.5200  145.7640 N   0  0  0  0  0  2  0  0  0  0  0  0
  187.7280  177.8420  145.1660 C   0  0  2  0  0  0  0  0  0  0  0  0
  188.6500  176.7520  144.6950 C   0  0  1  0  0  3  0  0  0  0  0  0
  187.1180  177.8680  146.5050 C   0  0  1  0  0  3  0  0  0  0  0  0
  187.9210  177.7520  147.6390 O   0  0  0  0  0  1  0  0  0  0  0  0
  185.8560  178.6980  146.8910 C   0  0  0  0  0  2  0  0  0  0  0  0
  183.8340  178.8200  145.3510 C   0  0  0  0  0  1  0  0  0  0  0  0
  185.2320  179.3810  145.6790 C   0  0  0  0  0  2  0  0  0  0  0  0
  187.5690  178.9930  136.7350 O   0  0  0  0  0  0  0  0  0  0  0  0
  186.7990  178.0120  136.9580 C   0  0  0  0  0  0  0  0  0  0  0  0
  185.7070  178.2270  137.7230 O   0  0  0  0  0  0  0  0  0  0  0  0
  183.8720  177.2550  136.1010 C   0  0  0  0  0  1  0  0  0  0  0  0
  184.3150  178.1950  137.2080 C   0  0  1  0  0  3  0  0  0  0  0  0
  183.3830  178.1510  138.3420 C   0  0  0  0  0  2  0  0  0  0  0  0
  182.1580  177.6810  137.8120 O   0  0  0  0  0  0  0  0  0  0  0  0
  181.1310  177.7360  138.7490 C   0  0  2  0  0  3  0  0  0  0  0  0
  180.4300  179.1060  138.9140 C   0  0  0  0  0  1  0  0  0  0  0  0
  181.5390  177.0620  140.0420 C   0  0  0  0  0  2  0  0  0  0  0  0
  179.4000  176.2070  140.2360 C   0  0  0  0  0  2  0  0  0  0  0  0
  181.0990  174.9550  138.9800 O   0  0  0  0  0  0  0  0  0  0  0  0
  179.9170  174.5100  138.5330 N   0  0  0  0  0  0  0  0  0  0  0  0
  180.8570  175.6820  140.2160 C   0  0  1  0  0  3  0  0  0  0  0  0
  178.9370  175.5690  138.9050 C   0  0  0  0  0  2  0  0  0  0  0  0
  179.1800  172.9220  136.3440 C   0  0  0  0  0  1  0  0  0  0  0  0
  180.2970  175.4260  136.3550 C   0  0  0  0  0  1  0  0  0  0  0  0
  180.1900  173.9840  137.0830 C   0  0  0  0  0  0  0  0  0  0  0  0
  181.8260  172.2710  135.9760 C   0  0  1  0  0  3  0  0  0  0  0  0
  181.6840  173.4520  137.0090 C   0  0  1  0  0  3  0  0  0  0  0  0
  182.4880  173.6350  135.7090 C   0  0  0  0  0  2  0  0  0  0  0  0
  182.5300  171.0810  136.7120 C   0  0  0  0  0  2  0  0  0  0  0  0
  183.9270  171.0310  136.7080 O   0  0  0  0  0  1  0  0  0  0  0  0
  186.4150  174.2090  135.8020 C   0  0  0  0  0  2  0  0  0  0  0  0
  185.7830  173.7560  136.9400 C   0  0  0  0  0  1  0  0  0  0  0  0
  194.2250  176.2240  136.7720 C   0  0  0  0  0  2  0  0  0  0  0  0
  195.6380  175.0890  136.1410 S   0  0  0  0  0  0  0  0  0  0  0  0
  195.5080  173.6840  136.9270 N   0  0  0  0  0  2  0  0  0  0  0  0
  198.3120  171.2820  136.8180 O   0  0  0  0  0  0  0  0  0  0  0  0
  197.6820  172.3490  136.9340 C   0  0  0  0  0  3  0  0  0  0  0  0
  196.2890  172.4440  136.6290 N   0  0  0  0  0  0  0  0  0  0  0  0
  195.5120  171.2770  136.0210 C   0  0  0  0  0  2  0  0  0  0  0  0
  194.1560  171.0680  136.4550 O   0  0  0  0  0  1  0  0  0  0  0  0
  1  9  1  0  0  0  0
  1  5  1  0  0  0  0
  2 15  1  0  0  0  0
  3  2  1  0  0  0  0
  3 12  1  0  0  0  0
  4  2  1  0  0  0  0
  4 15  1  0  0  0  0
  5  4  1  0  0  0  0
  6  4  1  0  0  0  0
  7  8  1  0  0  0  0
  8 52  1  0  0  0  0
  8 10  1  0  0  0  0
  9  6  1  0  0  0  0
 10 11  1  0  0  0  0
 11  3  1  0  0  0  0
 13  5  1  0  0  0  0
 13 11  1  0  0  0  0
 14  8  1  0  0  0  0
 14 13  1  0  0  0  0
 15 18  1  0  0  0  0
 16 17  1  0  0  0  0
 17 19  1  0  0  0  0
 18 16  1  0  0  0  0
 18 17  1  0  0  0  0
 19 23  1  0  0  0  0
 20 22  1  0  0  0  0
 22 21  1  0  0  0  0
 22 24  1  0  0  0  0
 23 22  1  0  0  0  0
 23 21  1  0  0  0  0
 24 26  1  0  0  0  0
 24 25  1  0  0  0  0
 27 28  1  0  0  0  0
 28 26  1  0  0  0  0
 29 30  2  0  0  0  0
 30 10  1  0  0  0  0
 30 31  1  0  0  0  0
 32 33  1  0  0  0  0
 33 31  1  0  0  0  0
 33 34  1  0  0  0  0
 35 34  1  0  0  0  0
 35 36  1  0  0  0  0
 36 37  1  0  0  0  0
 36 38  1  0  0  0  0
 38 42  1  0  0  0  0
 40 42  1  0  0  0  0
 41 43  1  0  0  0  0
 41 40  1  0  0  0  0
 42 39  1  0  0  0  0
 43 39  1  0  0  0  0
 44 46  1  0  0  0  0
 45 46  1  0  0  0  0
 46 41  1  0  0  0  0
 47 50  1  0  0  0  0
 47 48  1  0  0  0  0
 48 46  1  0  0  0  0
 49 47  1  0  0  0  0
 49 48  1  0  0  0  0
 51 50  1  0  0  0  0
 52 53  1  0  0  0  0
 54  9  1  0  0  0  0
 55 54  1  0  0  0  0
 55 56  1  0  0  0  0
 57 58  2  0  0  0  0
 59 56  1  0  0  0  0
 59 58  1  0  0  0  0
 60 61  1  0  0  0  0
 60 59  1  0  0  0  0
M  END
>  <MODEL>
6

>  <REMARK>
 VINA RESULT:      -4.1      2.663      7.058
  Name = 
  22 active torsions:
  status: ('A' for Active; 'I' for Inactive)
    1  A    between atoms: O_5  and  C_10
    2  A    between atoms: O_5  and  C_22
    3  A    between atoms: C_8  and  C_48
    4  A    between atoms: C_8  and  C_58
    5  A    between atoms: C_9  and  C_18
    6  A    between atoms: C_10  and  C_26
    7  A    between atoms: C_11  and  C_25
    8  A    between atoms: C_11  and  C_59
    9  A    between atoms: C_13  and  C_33
   10  A    between atoms: C_13  and  S_46
   11  A    between atoms: O_14  and  C_35
   12  A    between atoms: O_14  and  C_50
   13  A    between atoms: C_19  and  C_60
   14  A    between atoms: C_22  and  C_50
   15  A    between atoms: C_26  and  C_34
   16  A    between atoms: C_27  and  C_32
   17  A    between atoms: N_30  and  C_60
   18  A    between atoms: C_31  and  N_45
   19  A    between atoms: C_35  and  C_37
   20  A    between atoms: N_45  and  N_54
   21  A    between atoms: C_51  and  C_57
   22  A    between atoms: C_55  and  C_58
                            x       y       z     vdW  Elec       q    Type
                         _______ _______ _______ _____ _____    ______ ____

>  <TORSDO>
F 22

$$$$
