=
 OpenBabel10222416153D

 44 49  0  0  1  0  0  0  0  0999 V2000
  190.3100  177.0190  140.3970 C   0  0  0  0  0  0  0  0  0  0  0  0
  191.0450  176.9560  138.0840 C   0  0  0  0  0  0  0  0  0  0  0  0
  189.0240  177.6110  145.0920 C   0  0  1  0  0  3  0  0  0  0  0  0
  190.5710  176.7810  141.6880 C   0  0  0  0  0  3  0  0  0  0  0  0
  188.8770  177.8130  138.6510 N   0  0  0  0  0  0  0  0  0  0  0  0
  186.6830  178.2770  145.6210 C   0  0  0  0  0  3  0  0  0  0  0  0
  186.9280  178.2220  146.9350 C   0  0  0  0  0  3  0  0  0  0  0  0
  187.5520  177.5120  144.6490 C   0  0  1  0  0  3  0  0  0  0  0  0
  191.2750  176.7160  139.4400 C   0  0  0  0  0  3  0  0  0  0  0  0
  188.0840  177.5270  147.4290 N   0  0  0  0  0  2  0  0  0  0  0  0
  189.1260  177.1430  146.5250 C   0  0  0  0  0  0  0  0  0  0  0  0
  191.0030  176.3930  144.4410 O   0  0  0  0  0  0  0  0  0  0  0  0
  190.1190  176.4990  146.9530 O   0  0  0  0  0  0  0  0  0  0  0  0
  184.6030  179.1750  140.7460 C   0  0  0  0  0  1  0  0  0  0  0  0
  189.8040  177.5190  137.6990 C   0  0  0  0  0  0  0  0  0  0  0  0
  187.3310  177.8570  143.1780 C   0  0  0  0  0  0  0  0  0  0  0  0
  189.0820  177.5840  139.9770 C   0  0  0  0  0  0  0  0  0  0  0  0
  189.6050  177.0940  142.7020 N   0  0  0  0  0  0  0  0  0  0  0  0
  188.1130  177.8820  140.8630 C   0  0  0  0  0  0  0  0  0  0  0  0
  189.9280  176.9530  144.0900 C   0  0  0  0  0  0  0  0  0  0  0  0
  186.0300  178.2470  142.6580 N   0  0  0  0  0  0  0  0  0  0  0  0
  188.3310  177.6290  142.2990 C   0  0  0  0  0  0  0  0  0  0  0  0
  186.8620  178.4290  140.4340 N   0  0  0  0  0  0  0  0  0  0  0  0
  185.8850  178.6140  141.2660 C   0  0  0  0  0  0  0  0  0  0  0  0
  188.8560  176.7610  135.6750 O   0  0  0  0  0  1  0  0  0  0  0  0
  189.4710  177.8550  136.2850 C   0  0  0  0  0  2  0  0  0  0  0  0
  184.8120  178.0690  143.4450 C   0  0  0  0  0  2  0  0  0  0  0  0
  184.2100  179.4170  143.7880 C   0  0  0  0  0  2  0  0  0  0  0  0
  183.0400  179.2130  144.7270 C   0  0  0  0  0  2  0  0  0  0  0  0
  181.8800  178.6010  143.9650 C   0  0  0  0  0  2  0  0  0  0  0  0
  181.4550  177.8240  141.4990 O   0  0  0  0  0  1  0  0  0  0  0  0
  178.9850  178.1130  141.6570 O   0  0  0  0  0  1  0  0  0  0  0  0
  181.1540  179.1480  141.5940 N   0  0  0  0  0  0  0  0  0  0  0  0
  179.7000  179.3150  141.7500 C   0  0  2  0  0  0  0  0  0  0  0  0
  181.3080  179.6250  142.9820 C   0  0  1  0  0  3  0  0  0  0  0  0
  179.8140  179.7840  143.1860 C   0  0  0  0  0  2  0  0  0  0  0  0
  178.9380  181.5330  141.2530 O   0  0  0  0  0  1  0  0  0  0  0  0
  179.1480  180.3630  140.8310 C   0  0  0  0  0  0  0  0  0  0  0  0
  178.9310  180.0700  139.4890 O   0  0  0  0  0  0  0  0  0  0  0  0
  192.0980  176.6170  137.1670 N   0  0  0  0  0  2  0  0  0  0  0  0
  193.0400  175.5160  137.3030 C   0  0  0  0  0  2  0  0  0  0  0  0
  194.2200  175.7530  136.4240 C   0  0  0  0  0  0  0  0  0  0  0  0
  194.0260  176.2490  135.0330 C   0  0  0  0  0  1  0  0  0  0  0  0
  195.3460  175.5770  136.8550 O   0  0  0  0  0  0  0  0  0  0  0  0
  1  4  2  0  0  0  0
  2  9  2  0  0  0  0
  3 20  1  6  0  0  0
  3 11  1  0  0  0  0
  4 18  1  0  0  0  0
  5 17  1  0  0  0  0
  6  7  2  0  0  0  0
  7 10  1  0  0  0  0
  8  3  1  0  0  0  0
  8  6  1  1  0  0  0
  9  1  1  0  0  0  0
 11 13  2  0  0  0  0
 11 10  1  0  0  0  0
 14 24  1  0  0  0  0
 15  2  1  0  0  0  0
 15  5  2  0  0  0  0
 16  8  1  0  0  0  0
 17  1  1  0  0  0  0
 17 19  2  0  0  0  0
 18 20  1  0  0  0  0
 19 22  1  0  0  0  0
 20 12  2  0  0  0  0
 21 16  1  0  0  0  0
 21 27  1  0  0  0  0
 22 18  1  0  0  0  0
 22 16  2  0  0  0  0
 23 19  1  0  0  0  0
 23 24  2  0  0  0  0
 24 21  1  0  0  0  0
 25 26  1  0  0  0  0
 26 15  1  0  0  0  0
 27 28  1  0  0  0  0
 28 29  1  0  0  0  0
 30 29  1  0  0  0  0
 31 33  1  0  0  0  0
 33 34  1  0  0  0  0
 33 35  1  0  0  0  0
 34 32  1  6  0  0  0
 34 36  1  0  0  0  0
 35 36  1  0  0  0  0
 35 30  1  1  0  0  0
 38 37  1  0  0  0  0
 38 34  1  0  0  0  0
 39 38  2  0  0  0  0
 40 41  1  0  0  0  0
 40  2  1  0  0  0  0
 42 44  2  0  0  0  0
 42 41  1  0  0  0  0
 43 42  1  0  0  0  0
M  END
>  <MODEL>
1

>  <REMARK>
 VINA RESULT:      -9.4      0.000      0.000
  Name = 
  10 active torsions:
  status: ('A' for Active; 'I' for Inactive)
    1  A    between atoms: C_2  and  N_32
    2  A    between atoms: C_5  and  C_11
    3  A    between atoms: C_5  and  N_36
    4  A    between atoms: C_6  and  C_15
    5  A    between atoms: C_6  and  N_32
    6  A    between atoms: C_11  and  C_24
    7  A    between atoms: C_24  and  C_40
    8  A    between atoms: CA_25  and  C_43
    9  A    between atoms: C_26  and  C_37
   10  A    between atoms: C_35  and  C_40
                            x       y       z     vdW  Elec       q    Type
                         _______ _______ _______ _____ _____    ______ ____

>  <TORSDO>
F 10

$$$$
=
 OpenBabel10222416153D

 44 49  0  0  1  0  0  0  0  0999 V2000
  187.3130  178.1080  143.6030 C   0  0  0  0  0  0  0  0  0  0  0  0
  189.6790  177.8470  144.0810 C   0  0  0  0  0  0  0  0  0  0  0  0
  182.6090  179.1320  142.6680 C   0  0  1  0  0  3  0  0  0  0  0  0
  186.0570  178.2110  144.0570 C   0  0  0  0  0  3  0  0  0  0  0  0
  188.9090  178.0640  141.8180 N   0  0  0  0  0  0  0  0  0  0  0  0
  181.8210  179.1080  140.3060 C   0  0  0  0  0  3  0  0  0  0  0  0
  180.5680  179.3810  140.6850 C   0  0  0  0  0  3  0  0  0  0  0  0
  182.7970  178.4900  141.2810 C   0  0  1  0  0  3  0  0  0  0  0  0
  188.3550  177.9520  144.5130 C   0  0  0  0  0  3  0  0  0  0  0  0
  180.1660  179.1940  142.0510 N   0  0  0  0  0  2  0  0  0  0  0  0
  181.1570  178.9970  143.0660 C   0  0  0  0  0  0  0  0  0  0  0  0
  183.3800  178.5040  144.8670 O   0  0  0  0  0  0  0  0  0  0  0  0
  180.8020  178.7930  144.2560 O   0  0  0  0  0  0  0  0  0  0  0  0
  186.3880  178.3690  137.5680 C   0  0  0  0  0  1  0  0  0  0  0  0
  189.9420  177.9050  142.6910 C   0  0  0  0  0  0  0  0  0  0  0  0
  184.2500  178.4640  140.8100 C   0  0  0  0  0  0  0  0  0  0  0  0
  187.6120  178.1640  142.2200 C   0  0  0  0  0  0  0  0  0  0  0  0
  184.9600  178.3870  143.1490 N   0  0  0  0  0  0  0  0  0  0  0  0
  186.6380  178.3010  141.3010 C   0  0  0  0  0  0  0  0  0  0  0  0
  183.6340  178.6180  143.6370 C   0  0  0  0  0  0  0  0  0  0  0  0
  184.6100  178.3160  139.4080 N   0  0  0  0  0  0  0  0  0  0  0  0
  185.2320  178.4040  141.7350 C   0  0  0  0  0  0  0  0  0  0  0  0
  186.9400  178.3330  139.9030 N   0  0  0  0  0  0  0  0  0  0  0  0
  186.0000  178.3510  139.0100 C   0  0  0  0  0  0  0  0  0  0  0  0
  191.2550  177.5390  140.7640 O   0  0  0  0  0  1  0  0  0  0  0  0
  191.3190  177.8470  142.1240 C   0  0  0  0  0  2  0  0  0  0  0  0
  183.6240  177.9130  138.4080 C   0  0  0  0  0  2  0  0  0  0  0  0
  183.4440  176.4090  138.4290 C   0  0  0  0  0  2  0  0  0  0  0  0
  182.8760  175.9590  137.1000 C   0  0  0  0  0  2  0  0  0  0  0  0
  183.6500  174.7560  136.5990 C   0  0  0  0  0  2  0  0  0  0  0  0
  184.8780  172.6260  137.5030 O   0  0  0  0  0  1  0  0  0  0  0  0
  186.4460  172.5050  135.5700 O   0  0  0  0  0  1  0  0  0  0  0  0
  185.7430  173.6760  137.5480 N   0  0  0  0  0  0  0  0  0  0  0  0
  186.6280  173.6390  136.3720 C   0  0  2  0  0  0  0  0  0  0  0  0
  185.1250  174.8920  136.9820 C   0  0  1  0  0  3  0  0  0  0  0  0
  186.0030  174.8680  135.7460 C   0  0  0  0  0  2  0  0  0  0  0  0
  188.8080  172.8390  136.9680 O   0  0  0  0  0  1  0  0  0  0  0  0
  188.0680  173.8350  136.7400 C   0  0  0  0  0  0  0  0  0  0  0  0
  188.6160  175.1130  136.7610 O   0  0  0  0  0  0  0  0  0  0  0  0
  190.6900  177.6940  145.0890 N   0  0  0  0  0  2  0  0  0  0  0  0
  191.3010  176.4440  145.5170 C   0  0  0  0  0  2  0  0  0  0  0  0
  191.4000  176.4160  147.0030 C   0  0  0  0  0  0  0  0  0  0  0  0
  192.4890  175.6450  147.6640 C   0  0  0  0  0  1  0  0  0  0  0  0
  190.6110  177.0530  147.6790 O   0  0  0  0  0  0  0  0  0  0  0  0
  1  4  2  0  0  0  0
  1  9  1  0  0  0  0
  2  9  2  0  0  0  0
  2 40  1  0  0  0  0
  3 11  1  1  0  0  0
  3 20  1  0  0  0  0
  5 17  1  0  0  0  0
  5 15  2  0  0  0  0
  6  7  2  0  0  0  0
  7 10  1  0  0  0  0
  8  6  1  6  0  0  0
  8  3  1  0  0  0  0
 10 11  1  0  0  0  0
 11 13  2  0  0  0  0
 14 24  1  0  0  0  0
 15  2  1  0  0  0  0
 16  8  1  0  0  0  0
 16 22  2  0  0  0  0
 17  1  1  0  0  0  0
 18 20  1  0  0  0  0
 18  4  1  0  0  0  0
 19 22  1  0  0  0  0
 19 17  2  0  0  0  0
 20 12  2  0  0  0  0
 21 16  1  0  0  0  0
 22 18  1  0  0  0  0
 23 19  1  0  0  0  0
 24 21  1  0  0  0  0
 24 23  2  0  0  0  0
 25 26  1  0  0  0  0
 26 15  1  0  0  0  0
 27 28  1  0  0  0  0
 27 21  1  0  0  0  0
 29 28  1  0  0  0  0
 30 29  1  0  0  0  0
 31 33  1  0  0  0  0
 34 32  1  6  0  0  0
 34 38  1  0  0  0  0
 34 33  1  0  0  0  0
 35 30  1  6  0  0  0
 35 33  1  0  0  0  0
 36 34  1  0  0  0  0
 36 35  1  0  0  0  0
 38 39  2  0  0  0  0
 38 37  1  0  0  0  0
 40 41  1  0  0  0  0
 41 42  1  0  0  0  0
 42 43  1  0  0  0  0
 42 44  2  0  0  0  0
M  END
>  <MODEL>
2

>  <REMARK>
 VINA RESULT:      -8.7      3.077      7.812
  Name = 
  10 active torsions:
  status: ('A' for Active; 'I' for Inactive)
    1  A    between atoms: C_2  and  N_32
    2  A    between atoms: C_5  and  C_11
    3  A    between atoms: C_5  and  N_36
    4  A    between atoms: C_6  and  C_15
    5  A    between atoms: C_6  and  N_32
    6  A    between atoms: C_11  and  C_24
    7  A    between atoms: C_24  and  C_40
    8  A    between atoms: CA_25  and  C_43
    9  A    between atoms: C_26  and  C_37
   10  A    between atoms: C_35  and  C_40
                            x       y       z     vdW  Elec       q    Type
                         _______ _______ _______ _____ _____    ______ ____

>  <TORSDO>
F 10

$$$$
=
 OpenBabel10222416153D

 44 49  0  0  1  0  0  0  0  0999 V2000
  188.3490  177.9160  143.2650 C   0  0  0  0  0  0  0  0  0  0  0  0
  188.5370  177.8740  145.6860 C   0  0  0  0  0  0  0  0  0  0  0  0
  187.9240  177.4970  138.3980 C   0  0  1  0  0  3  0  0  0  0  0  0
  188.9490  177.8690  142.0690 C   0  0  0  0  0  3  0  0  0  0  0  0
  186.3890  178.0650  144.6320 N   0  0  0  0  0  0  0  0  0  0  0  0
  185.7130  177.9400  137.3430 C   0  0  0  0  0  3  0  0  0  0  0  0
  186.2170  177.7370  136.1200 C   0  0  0  0  0  3  0  0  0  0  0  0
  186.6220  178.3130  138.4910 C   0  0  1  0  0  3  0  0  0  0  0  0
  189.1240  177.8360  144.4200 C   0  0  0  0  0  3  0  0  0  0  0  0
  187.6370  177.7610  135.9070 N   0  0  0  0  0  2  0  0  0  0  0  0
  188.5270  177.7110  137.0280 C   0  0  0  0  0  0  0  0  0  0  0  0
  190.0640  177.7200  139.4910 O   0  0  0  0  0  0  0  0  0  0  0  0
  189.7700  177.7730  136.8430 O   0  0  0  0  0  0  0  0  0  0  0  0
  182.5110  178.6270  141.6050 C   0  0  0  0  0  1  0  0  0  0  0  0
  187.1280  177.9940  145.7730 C   0  0  0  0  0  0  0  0  0  0  0  0
  185.9680  178.2660  139.8710 C   0  0  0  0  0  0  0  0  0  0  0  0
  186.9440  178.0320  143.3900 C   0  0  0  0  0  0  0  0  0  0  0  0
  188.1810  177.9340  140.8590 N   0  0  0  0  0  0  0  0  0  0  0  0
  186.1530  178.1260  142.3030 C   0  0  0  0  0  0  0  0  0  0  0  0
  188.8070  177.7630  139.5830 C   0  0  0  0  0  0  0  0  0  0  0  0
  184.5630  178.5820  140.0770 N   0  0  0  0  0  0  0  0  0  0  0  0
  186.7530  178.0970  140.9570 C   0  0  0  0  0  0  0  0  0  0  0  0
  184.7350  178.2690  142.4310 N   0  0  0  0  0  0  0  0  0  0  0  0
  183.9810  178.4710  141.3960 C   0  0  0  0  0  0  0  0  0  0  0  0
  185.1600  178.6310  146.9090 O   0  0  0  0  0  1  0  0  0  0  0  0
  186.3950  178.0010  147.0710 C   0  0  0  0  0  2  0  0  0  0  0  0
  183.7660  179.2190  139.0320 C   0  0  0  0  0  2  0  0  0  0  0  0
  182.6560  178.2910  138.5820 C   0  0  0  0  0  2  0  0  0  0  0  0
  181.7850  179.0120  137.5750 C   0  0  0  0  0  2  0  0  0  0  0  0
  180.4050  179.2320  138.1650 C   0  0  0  0  0  2  0  0  0  0  0  0
  180.4210  181.3000  139.7740 O   0  0  0  0  0  1  0  0  0  0  0  0
  181.9870  182.6110  138.3460 O   0  0  0  0  0  1  0  0  0  0  0  0
  179.7970  181.6560  138.6180 N   0  0  0  0  0  0  0  0  0  0  0  0
  180.7410  182.3750  137.7480 C   0  0  2  0  0  0  0  0  0  0  0  0
  179.8220  180.5470  137.6430 C   0  0  1  0  0  3  0  0  0  0  0  0
  180.8140  181.2500  136.7370 C   0  0  0  0  0  2  0  0  0  0  0  0
  179.6370  183.6350  136.0330 O   0  0  0  0  0  0  0  0  0  0  0  0
  180.1490  183.6330  137.1850 C   0  0  0  0  0  0  0  0  0  0  0  0
  180.0950  184.7860  137.9610 O   0  0  0  0  0  1  0  0  0  0  0  0
  189.4120  177.7810  146.8210 N   0  0  0  0  0  2  0  0  0  0  0  0
  190.0220  176.5680  147.3430 C   0  0  0  0  0  2  0  0  0  0  0  0
  191.4720  176.5460  146.9990 C   0  0  0  0  0  0  0  0  0  0  0  0
  192.3960  175.6270  147.7190 C   0  0  0  0  0  1  0  0  0  0  0  0
  191.8960  177.2540  146.1020 O   0  0  0  0  0  0  0  0  0  0  0  0
  1 17  1  0  0  0  0
  1  9  1  0  0  0  0
  2 15  1  0  0  0  0
  2 40  1  0  0  0  0
  3 11  1  6  0  0  0
  3  8  1  0  0  0  0
  3 20  1  0  0  0  0
  4  1  2  0  0  0  0
  5 15  2  0  0  0  0
  7  6  2  0  0  0  0
  8  6  1  6  0  0  0
  8 16  1  0  0  0  0
  9  2  2  0  0  0  0
 10  7  1  0  0  0  0
 10 11  1  0  0  0  0
 12 20  2  0  0  0  0
 13 11  2  0  0  0  0
 15 26  1  0  0  0  0
 16 21  1  0  0  0  0
 16 22  2  0  0  0  0
 17  5  1  0  0  0  0
 18 22  1  0  0  0  0
 18  4  1  0  0  0  0
 19 23  1  0  0  0  0
 19 17  2  0  0  0  0
 20 18  1  0  0  0  0
 21 24  1  0  0  0  0
 22 19  1  0  0  0  0
 24 14  1  0  0  0  0
 24 23  2  0  0  0  0
 25 26  1  0  0  0  0
 27 21  1  0  0  0  0
 28 27  1  0  0  0  0
 29 30  1  0  0  0  0
 29 28  1  0  0  0  0
 33 31  1  0  0  0  0
 34 32  1  1  0  0  0
 34 33  1  0  0  0  0
 35 30  1  1  0  0  0
 35 33  1  0  0  0  0
 36 35  1  0  0  0  0
 36 34  1  0  0  0  0
 37 38  2  0  0  0  0
 38 34  1  0  0  0  0
 38 39  1  0  0  0  0
 40 41  1  0  0  0  0
 42 41  1  0  0  0  0
 42 43  1  0  0  0  0
 44 42  2  0  0  0  0
M  END
>  <MODEL>
3

>  <REMARK>
 VINA RESULT:      -8.7      2.827      7.098
  Name = 
  10 active torsions:
  status: ('A' for Active; 'I' for Inactive)
    1  A    between atoms: C_2  and  N_32
    2  A    between atoms: C_5  and  C_11
    3  A    between atoms: C_5  and  N_36
    4  A    between atoms: C_6  and  C_15
    5  A    between atoms: C_6  and  N_32
    6  A    between atoms: C_11  and  C_24
    7  A    between atoms: C_24  and  C_40
    8  A    between atoms: CA_25  and  C_43
    9  A    between atoms: C_26  and  C_37
   10  A    between atoms: C_35  and  C_40
                            x       y       z     vdW  Elec       q    Type
                         _______ _______ _______ _____ _____    ______ ____

>  <TORSDO>
F 10

$$$$
=
 OpenBabel10222416153D

 44 49  0  0  1  0  0  0  0  0999 V2000
  187.4600  177.8590  143.5510 C   0  0  0  0  0  0  0  0  0  0  0  0
  189.4870  177.5340  144.8470 C   0  0  0  0  0  0  0  0  0  0  0  0
  183.4210  179.0090  141.0180 C   0  0  1  0  0  3  0  0  0  0  0  0
  186.1250  177.9540  143.5180 C   0  0  0  0  0  3  0  0  0  0  0  0
  189.6010  177.8980  142.4780 N   0  0  0  0  0  0  0  0  0  0  0  0
  183.5570  179.1390  138.5360 C   0  0  0  0  0  3  0  0  0  0  0  0
  182.2500  179.4090  138.4440 C   0  0  0  0  0  3  0  0  0  0  0  0
  184.1110  178.4490  139.7600 C   0  0  1  0  0  3  0  0  0  0  0  0
  188.0970  177.6330  144.7690 C   0  0  0  0  0  3  0  0  0  0  0  0
  181.3760  179.1460  139.5520 N   0  0  0  0  0  2  0  0  0  0  0  0
  181.9260  178.8730  140.8460 C   0  0  0  0  0  0  0  0  0  0  0  0
  183.3350  178.2390  143.3040 O   0  0  0  0  0  0  0  0  0  0  0  0
  181.1600  178.6040  141.8070 O   0  0  0  0  0  0  0  0  0  0  0  0
  188.8160  178.4970  137.6260 C   0  0  0  0  0  1  0  0  0  0  0  0
  190.2420  177.6720  143.6570 C   0  0  0  0  0  0  0  0  0  0  0  0
  185.6350  178.4300  139.8550 C   0  0  0  0  0  0  0  0  0  0  0  0
  188.2470  177.9940  142.3810 C   0  0  0  0  0  0  0  0  0  0  0  0
  185.4370  178.2010  142.2820 N   0  0  0  0  0  0  0  0  0  0  0  0
  187.6770  178.2010  141.1780 C   0  0  0  0  0  0  0  0  0  0  0  0
  184.0230  178.4220  142.2620 C   0  0  0  0  0  0  0  0  0  0  0  0
  186.4870  178.3610  138.6780 N   0  0  0  0  0  0  0  0  0  0  0  0
  186.2100  178.2990  141.0710 C   0  0  0  0  0  0  0  0  0  0  0  0
  188.4710  178.3120  139.9930 N   0  0  0  0  0  0  0  0  0  0  0  0
  187.9260  178.3990  138.8210 C   0  0  0  0  0  0  0  0  0  0  0  0
  192.1660  177.0890  142.4210 O   0  0  0  0  0  1  0  0  0  0  0  0
  191.7320  177.6270  143.6340 C   0  0  0  0  0  2  0  0  0  0  0  0
  185.9410  178.0340  137.3630 C   0  0  0  0  0  2  0  0  0  0  0  0
  185.9000  176.5310  137.1730 C   0  0  0  0  0  2  0  0  0  0  0  0
  185.6950  176.2220  135.7050 C   0  0  0  0  0  2  0  0  0  0  0  0
  186.6190  175.0940  135.2910 C   0  0  0  0  0  2  0  0  0  0  0  0
  187.2820  172.9150  136.5850 O   0  0  0  0  0  1  0  0  0  0  0  0
  189.3810  172.5800  135.2850 O   0  0  0  0  0  1  0  0  0  0  0  0
  188.1750  173.8930  136.8980 N   0  0  0  0  0  0  0  0  0  0  0  0
  189.3910  173.7310  136.0840 C   0  0  2  0  0  0  0  0  0  0  0  0
  187.8920  175.1280  136.1400 C   0  0  1  0  0  3  0  0  0  0  0  0
  189.1220  174.9780  135.2670 C   0  0  0  0  0  2  0  0  0  0  0  0
  191.6860  173.2190  136.5480 O   0  0  0  0  0  0  0  0  0  0  0  0
  190.6410  173.8260  136.9070 C   0  0  0  0  0  0  0  0  0  0  0  0
  190.6760  174.6440  138.0310 O   0  0  0  0  0  1  0  0  0  0  0  0
  190.0580  177.3050  146.1450 N   0  0  0  0  0  2  0  0  0  0  0  0
  189.3680  176.7760  147.3120 C   0  0  0  0  0  2  0  0  0  0  0  0
  188.9540  177.8970  148.2020 C   0  0  0  0  0  0  0  0  0  0  0  0
  187.5160  178.2700  148.3110 C   0  0  0  0  0  1  0  0  0  0  0  0
  189.7870  178.4860  148.8680 O   0  0  0  0  0  0  0  0  0  0  0  0
  1  9  1  0  0  0  0
  2 40  1  0  0  0  0
  3 11  1  6  0  0  0
  3 20  1  0  0  0  0
  4  1  2  0  0  0  0
  5 15  2  0  0  0  0
  7  6  2  0  0  0  0
  7 10  1  0  0  0  0
  8  6  1  6  0  0  0
  8 16  1  0  0  0  0
  8  3  1  0  0  0  0
  9  2  2  0  0  0  0
 10 11  1  0  0  0  0
 11 13  2  0  0  0  0
 14 24  1  0  0  0  0
 15  2  1  0  0  0  0
 16 22  2  0  0  0  0
 17  5  1  0  0  0  0
 17  1  1  0  0  0  0
 18  4  1  0  0  0  0
 19 17  2  0  0  0  0
 20 18  1  0  0  0  0
 20 12  2  0  0  0  0
 21 24  1  0  0  0  0
 21 16  1  0  0  0  0
 22 19  1  0  0  0  0
 22 18  1  0  0  0  0
 23 19  1  0  0  0  0
 24 23  2  0  0  0  0
 25 26  1  0  0  0  0
 26 15  1  0  0  0  0
 27 21  1  0  0  0  0
 28 27  1  0  0  0  0
 29 28  1  0  0  0  0
 30 29  1  0  0  0  0
 31 33  1  0  0  0  0
 34 32  1  6  0  0  0
 34 33  1  0  0  0  0
 34 38  1  0  0  0  0
 35 30  1  6  0  0  0
 35 33  1  0  0  0  0
 36 34  1  0  0  0  0
 36 35  1  0  0  0  0
 37 38  2  0  0  0  0
 38 39  1  0  0  0  0
 40 41  1  0  0  0  0
 41 42  1  0  0  0  0
 42 43  1  0  0  0  0
 42 44  2  0  0  0  0
M  END
>  <MODEL>
4

>  <REMARK>
 VINA RESULT:      -8.7      2.535      8.980
  Name = 
  10 active torsions:
  status: ('A' for Active; 'I' for Inactive)
    1  A    between atoms: C_2  and  N_32
    2  A    between atoms: C_5  and  C_11
    3  A    between atoms: C_5  and  N_36
    4  A    between atoms: C_6  and  C_15
    5  A    between atoms: C_6  and  N_32
    6  A    between atoms: C_11  and  C_24
    7  A    between atoms: C_24  and  C_40
    8  A    between atoms: CA_25  and  C_43
    9  A    between atoms: C_26  and  C_37
   10  A    between atoms: C_35  and  C_40
                            x       y       z     vdW  Elec       q    Type
                         _______ _______ _______ _____ _____    ______ ____

>  <TORSDO>
F 10

$$$$
=
 OpenBabel10222416153D

 44 49  0  0  1  0  0  0  0  0999 V2000
  186.9310  178.1420  144.0360 C   0  0  0  0  0  0  0  0  0  0  0  0
  189.2660  177.8660  144.6390 C   0  0  0  0  0  0  0  0  0  0  0  0
  182.2890  179.1970  142.8580 C   0  0  1  0  0  3  0  0  0  0  0  0
  185.6530  178.2460  144.4230 C   0  0  0  0  0  3  0  0  0  0  0  0
  188.6210  178.1080  142.3410 N   0  0  0  0  0  0  0  0  0  0  0  0
  181.6310  179.2010  140.4560 C   0  0  0  0  0  3  0  0  0  0  0  0
  180.3590  179.4760  140.7690 C   0  0  0  0  0  3  0  0  0  0  0  0
  182.5490  178.5680  141.4760 C   0  0  1  0  0  3  0  0  0  0  0  0
  187.9210  177.9720  145.0000 C   0  0  0  0  0  3  0  0  0  0  0  0
  179.8830  179.2770  142.1090 N   0  0  0  0  0  2  0  0  0  0  0  0
  180.8170  179.0660  143.1750 C   0  0  0  0  0  0  0  0  0  0  0  0
  182.9360  178.5440  145.0890 O   0  0  0  0  0  0  0  0  0  0  0  0
  180.3960  178.8510  144.3410 O   0  0  0  0  0  0  0  0  0  0  0  0
  186.3360  178.4680  137.9630 C   0  0  0  0  0  1  0  0  0  0  0  0
  189.6040  177.9360  143.2660 C   0  0  0  0  0  0  0  0  0  0  0  0
  184.0250  178.5410  141.0850 C   0  0  0  0  0  0  0  0  0  0  0  0
  187.3050  178.2110  142.6720 C   0  0  0  0  0  0  0  0  0  0  0  0
  184.6080  178.4360  143.4580 N   0  0  0  0  0  0  0  0  0  0  0  0
  186.3820  178.3610  141.7030 C   0  0  0  0  0  0  0  0  0  0  0  0
  183.2580  178.6690  143.8750 C   0  0  0  0  0  0  0  0  0  0  0  0
  184.4610  178.4050  139.7030 N   0  0  0  0  0  0  0  0  0  0  0  0
  184.9560  178.4660  142.0610 C   0  0  0  0  0  0  0  0  0  0  0  0
  186.7600  178.4060  140.3240 N   0  0  0  0  0  0  0  0  0  0  0  0
  185.8710  178.4380  139.3810 C   0  0  0  0  0  0  0  0  0  0  0  0
  191.0660  177.1260  141.6000 O   0  0  0  0  0  1  0  0  0  0  0  0
  191.0110  177.8780  142.7740 C   0  0  0  0  0  2  0  0  0  0  0  0
  183.5290  178.0170  138.6470 C   0  0  0  0  0  2  0  0  0  0  0  0
  183.3120  176.5170  138.6680 C   0  0  0  0  0  2  0  0  0  0  0  0
  182.7170  176.0850  137.3440 C   0  0  0  0  0  2  0  0  0  0  0  0
  183.8280  175.8840  136.3310 C   0  0  0  0  0  2  0  0  0  0  0  0
  185.9570  174.3640  136.4660 O   0  0  0  0  0  1  0  0  0  0  0  0
  184.8750  172.6930  137.9650 O   0  0  0  0  0  1  0  0  0  0  0  0
  184.9900  173.6940  135.7820 N   0  0  0  0  0  0  0  0  0  0  0  0
  184.3090  172.7520  136.6840 C   0  0  2  0  0  0  0  0  0  0  0  0
  183.7390  174.4770  135.7370 C   0  0  1  0  0  3  0  0  0  0  0  0
  183.0160  173.5400  136.6850 C   0  0  0  0  0  2  0  0  0  0  0  0
  183.4720  170.5060  136.6520 O   0  0  0  0  0  1  0  0  0  0  0  0
  184.1660  171.3880  136.0770 C   0  0  0  0  0  0  0  0  0  0  0  0
  184.7370  171.1120  134.8400 O   0  0  0  0  0  0  0  0  0  0  0  0
  190.2210  177.6970  145.6990 N   0  0  0  0  0  2  0  0  0  0  0  0
  190.1300  176.7520  146.8020 C   0  0  0  0  0  2  0  0  0  0  0  0
  191.4960  176.4220  147.2960 C   0  0  0  0  0  0  0  0  0  0  0  0
  192.2420  175.2720  146.7140 C   0  0  0  0  0  1  0  0  0  0  0  0
  192.0190  177.1160  148.1500 O   0  0  0  0  0  0  0  0  0  0  0  0
  1  4  2  0  0  0  0
  1  9  1  0  0  0  0
  2  9  2  0  0  0  0
  2 40  1  0  0  0  0
  3 11  1  1  0  0  0
  3 20  1  0  0  0  0
  5 17  1  0  0  0  0
  5 15  2  0  0  0  0
  6  7  2  0  0  0  0
  7 10  1  0  0  0  0
  8  6  1  6  0  0  0
  8  3  1  0  0  0  0
 10 11  1  0  0  0  0
 11 13  2  0  0  0  0
 14 24  1  0  0  0  0
 15  2  1  0  0  0  0
 16  8  1  0  0  0  0
 16 22  2  0  0  0  0
 17  1  1  0  0  0  0
 18 20  1  0  0  0  0
 18  4  1  0  0  0  0
 19 22  1  0  0  0  0
 19 17  2  0  0  0  0
 20 12  2  0  0  0  0
 21 16  1  0  0  0  0
 22 18  1  0  0  0  0
 23 19  1  0  0  0  0
 24 21  1  0  0  0  0
 24 23  2  0  0  0  0
 25 26  1  0  0  0  0
 26 15  1  0  0  0  0
 27 28  1  0  0  0  0
 27 21  1  0  0  0  0
 29 28  1  0  0  0  0
 30 29  1  0  0  0  0
 33 31  1  0  0  0  0
 33 34  1  0  0  0  0
 34 36  1  0  0  0  0
 34 32  1  1  0  0  0
 35 33  1  0  0  0  0
 35 30  1  1  0  0  0
 35 36  1  0  0  0  0
 38 37  1  0  0  0  0
 38 34  1  0  0  0  0
 39 38  2  0  0  0  0
 40 41  1  0  0  0  0
 41 42  1  0  0  0  0
 42 44  2  0  0  0  0
 43 42  1  0  0  0  0
M  END
>  <MODEL>
5

>  <REMARK>
 VINA RESULT:      -8.5      3.774      7.826
  Name = 
  10 active torsions:
  status: ('A' for Active; 'I' for Inactive)
    1  A    between atoms: C_2  and  N_32
    2  A    between atoms: C_5  and  C_11
    3  A    between atoms: C_5  and  N_36
    4  A    between atoms: C_6  and  C_15
    5  A    between atoms: C_6  and  N_32
    6  A    between atoms: C_11  and  C_24
    7  A    between atoms: C_24  and  C_40
    8  A    between atoms: CA_25  and  C_43
    9  A    between atoms: C_26  and  C_37
   10  A    between atoms: C_35  and  C_40
                            x       y       z     vdW  Elec       q    Type
                         _______ _______ _______ _____ _____    ______ ____

>  <TORSDO>
F 10

$$$$
=
 OpenBabel10222416153D

 44 49  0  0  1  0  0  0  0  0999 V2000
  187.2830  178.0260  143.6810 C   0  0  0  0  0  0  0  0  0  0  0  0
  189.2660  177.7920  145.0630 C   0  0  0  0  0  0  0  0  0  0  0  0
  183.3260  178.9980  140.9530 C   0  0  1  0  0  3  0  0  0  0  0  0
  185.9490  178.1020  143.5960 C   0  0  0  0  0  3  0  0  0  0  0  0
  189.4600  178.0410  142.6840 N   0  0  0  0  0  0  0  0  0  0  0  0
  183.5490  179.0090  138.4730 C   0  0  0  0  0  3  0  0  0  0  0  0
  182.2430  179.2560  138.3220 C   0  0  0  0  0  3  0  0  0  0  0  0
  184.0660  178.3860  139.7500 C   0  0  1  0  0  3  0  0  0  0  0  0
  187.8780  177.8680  144.9300 C   0  0  0  0  0  3  0  0  0  0  0  0
  181.3320  179.0360  139.4110 N   0  0  0  0  0  2  0  0  0  0  0  0
  181.8390  178.8340  140.7350 C   0  0  0  0  0  0  0  0  0  0  0  0
  183.1650  178.3390  143.2690 O   0  0  0  0  0  0  0  0  0  0  0  0
  181.0420  178.6020  141.6800 O   0  0  0  0  0  0  0  0  0  0  0  0
  188.8450  178.3920  137.7840 C   0  0  0  0  0  1  0  0  0  0  0  0
  190.0610  177.8810  143.8950 C   0  0  0  0  0  0  0  0  0  0  0  0
  185.5870  178.3920  139.8990 C   0  0  0  0  0  0  0  0  0  0  0  0
  188.1100  178.1140  142.5340 C   0  0  0  0  0  0  0  0  0  0  0  0
  185.3040  178.2790  142.3260 N   0  0  0  0  0  0  0  0  0  0  0  0
  187.5810  178.2550  141.3040 C   0  0  0  0  0  0  0  0  0  0  0  0
  183.8880  178.4800  142.2450 C   0  0  0  0  0  0  0  0  0  0  0  0
  186.4810  178.2770  138.7580 N   0  0  0  0  0  0  0  0  0  0  0  0
  186.1180  178.3280  141.1400 C   0  0  0  0  0  0  0  0  0  0  0  0
  188.4170  178.3180  140.1440 N   0  0  0  0  0  0  0  0  0  0  0  0
  187.9130  178.3410  138.9490 C   0  0  0  0  0  0  0  0  0  0  0  0
  192.0410  177.4820  142.6730 O   0  0  0  0  0  1  0  0  0  0  0  0
  191.5520  177.8550  143.9260 C   0  0  0  0  0  2  0  0  0  0  0  0
  185.9860  177.8790  137.4420 C   0  0  0  0  0  2  0  0  0  0  0  0
  186.2150  176.3970  137.2240 C   0  0  0  0  0  2  0  0  0  0  0  0
  185.6650  176.0050  135.8690 C   0  0  0  0  0  2  0  0  0  0  0  0
  185.4810  174.5010  135.8130 C   0  0  0  0  0  2  0  0  0  0  0  0
  184.5600  173.3270  137.9670 O   0  0  0  0  0  1  0  0  0  0  0  0
  183.0950  175.2450  138.5890 O   0  0  0  0  0  1  0  0  0  0  0  0
  183.5450  173.4390  137.0670 N   0  0  0  0  0  0  0  0  0  0  0  0
  182.7170  174.6090  137.3990 C   0  0  2  0  0  0  0  0  0  0  0  0
  183.9900  174.1590  135.8570 C   0  0  1  0  0  3  0  0  0  0  0  0
  183.1680  175.3910  136.1830 C   0  0  0  0  0  2  0  0  0  0  0  0
  180.4600  174.8930  138.1570 O   0  0  0  0  0  1  0  0  0  0  0  0
  181.2510  174.2900  137.3810 C   0  0  0  0  0  0  0  0  0  0  0  0
  180.7460  173.3810  136.4590 O   0  0  0  0  0  0  0  0  0  0  0  0
  189.7920  177.6330  146.3900 N   0  0  0  0  0  2  0  0  0  0  0  0
  190.1080  176.3760  147.0490 C   0  0  0  0  0  2  0  0  0  0  0  0
  191.5670  176.3170  147.3480 C   0  0  0  0  0  0  0  0  0  0  0  0
  192.4300  175.3200  146.6550 C   0  0  0  0  0  1  0  0  0  0  0  0
  192.0610  177.1070  148.1320 O   0  0  0  0  0  0  0  0  0  0  0  0
  1  9  1  0  0  0  0
  2 40  1  0  0  0  0
  3 11  1  6  0  0  0
  3 20  1  0  0  0  0
  4  1  2  0  0  0  0
  5 15  2  0  0  0  0
  7  6  2  0  0  0  0
  7 10  1  0  0  0  0
  8  6  1  6  0  0  0
  8 16  1  0  0  0  0
  8  3  1  0  0  0  0
  9  2  2  0  0  0  0
 10 11  1  0  0  0  0
 11 13  2  0  0  0  0
 14 24  1  0  0  0  0
 15 26  1  0  0  0  0
 15  2  1  0  0  0  0
 16 22  2  0  0  0  0
 17  5  1  0  0  0  0
 17  1  1  0  0  0  0
 18  4  1  0  0  0  0
 19 17  2  0  0  0  0
 20 18  1  0  0  0  0
 20 12  2  0  0  0  0
 21 24  1  0  0  0  0
 21 16  1  0  0  0  0
 22 19  1  0  0  0  0
 22 18  1  0  0  0  0
 23 19  1  0  0  0  0
 24 23  2  0  0  0  0
 25 26  1  0  0  0  0
 27 21  1  0  0  0  0
 28 27  1  0  0  0  0
 29 28  1  0  0  0  0
 30 29  1  0  0  0  0
 33 34  1  0  0  0  0
 33 31  1  0  0  0  0
 34 32  1  1  0  0  0
 35 30  1  1  0  0  0
 35 36  1  0  0  0  0
 35 33  1  0  0  0  0
 36 34  1  0  0  0  0
 38 34  1  0  0  0  0
 38 37  1  0  0  0  0
 39 38  2  0  0  0  0
 40 41  1  0  0  0  0
 41 42  1  0  0  0  0
 42 44  2  0  0  0  0
 43 42  1  0  0  0  0
M  END
>  <MODEL>
6

>  <REMARK>
 VINA RESULT:      -8.5      3.384      7.543
  Name = 
  10 active torsions:
  status: ('A' for Active; 'I' for Inactive)
    1  A    between atoms: C_2  and  N_32
    2  A    between atoms: C_5  and  C_11
    3  A    between atoms: C_5  and  N_36
    4  A    between atoms: C_6  and  C_15
    5  A    between atoms: C_6  and  N_32
    6  A    between atoms: C_11  and  C_24
    7  A    between atoms: C_24  and  C_40
    8  A    between atoms: CA_25  and  C_43
    9  A    between atoms: C_26  and  C_37
   10  A    between atoms: C_35  and  C_40
                            x       y       z     vdW  Elec       q    Type
                         _______ _______ _______ _____ _____    ______ ____

>  <TORSDO>
F 10

$$$$
=
 OpenBabel10222416153D

 44 49  0  0  1  0  0  0  0  0999 V2000
  189.6640  177.0510  140.6490 C   0  0  0  0  0  0  0  0  0  0  0  0
  190.9530  176.7420  138.6150 C   0  0  0  0  0  0  0  0  0  0  0  0
  187.2800  178.1270  144.7970 C   0  0  1  0  0  3  0  0  0  0  0  0
  189.5710  176.9140  141.9780 C   0  0  0  0  0  3  0  0  0  0  0  0
  188.7820  177.7620  138.5390 N   0  0  0  0  0  0  0  0  0  0  0  0
  184.9390  178.9620  144.6550 C   0  0  0  0  0  3  0  0  0  0  0  0
  184.8390  179.0110  145.9880 C   0  0  0  0  0  3  0  0  0  0  0  0
  185.9650  178.0680  143.9980 C   0  0  1  0  0  3  0  0  0  0  0  0
  190.8140  176.6120  139.9980 C   0  0  0  0  0  3  0  0  0  0  0  0
  185.7760  178.3020  146.8130 N   0  0  0  0  0  2  0  0  0  0  0  0
  186.9810  177.7830  146.2390 C   0  0  0  0  0  0  0  0  0  0  0  0
  189.2620  176.7510  144.7690 O   0  0  0  0  0  0  0  0  0  0  0  0
  187.7820  177.1270  146.9530 O   0  0  0  0  0  0  0  0  0  0  0  0
  184.2310  179.5340  139.3570 C   0  0  0  0  0  1  0  0  0  0  0  0
  189.8950  177.3350  137.8830 C   0  0  0  0  0  0  0  0  0  0  0  0
  186.1490  178.2920  142.4980 C   0  0  0  0  0  0  0  0  0  0  0  0
  188.6270  177.6410  139.8860 C   0  0  0  0  0  0  0  0  0  0  0  0
  188.4070  177.3690  142.6830 N   0  0  0  0  0  0  0  0  0  0  0  0
  187.4910  178.0690  140.4680 C   0  0  0  0  0  0  0  0  0  0  0  0
  188.3560  177.3340  144.1130 C   0  0  0  0  0  0  0  0  0  0  0  0
  185.0550  178.7040  141.6330 N   0  0  0  0  0  0  0  0  0  0  0  0
  187.3190  177.9330  141.9260 C   0  0  0  0  0  0  0  0  0  0  0  0
  186.4330  178.6430  139.6930 N   0  0  0  0  0  0  0  0  0  0  0  0
  185.2950  178.9530  140.2290 C   0  0  0  0  0  0  0  0  0  0  0  0
  188.7670  178.1490  135.9760 O   0  0  0  0  0  1  0  0  0  0  0  0
  189.9570  177.5620  136.4110 C   0  0  0  0  0  2  0  0  0  0  0  0
  183.6680  178.6630  142.0910 C   0  0  0  0  0  2  0  0  0  0  0  0
  182.9040  177.5840  141.3480 C   0  0  0  0  0  2  0  0  0  0  0  0
  181.4730  178.0380  141.1510 C   0  0  0  0  0  2  0  0  0  0  0  0
  180.9950  177.6200  139.7740 C   0  0  0  0  0  2  0  0  0  0  0  0
  180.2240  175.1310  139.5010 O   0  0  0  0  0  1  0  0  0  0  0  0
  180.3180  175.1990  137.0120 O   0  0  0  0  0  1  0  0  0  0  0  0
  181.5190  175.2300  139.0940 N   0  0  0  0  0  0  0  0  0  0  0  0
  181.5700  175.3340  137.6270 C   0  0  2  0  0  0  0  0  0  0  0  0
  181.9860  176.6290  139.1590 C   0  0  1  0  0  3  0  0  0  0  0  0
  182.0250  176.7780  137.6510 C   0  0  0  0  0  2  0  0  0  0  0  0
  182.3840  173.8880  135.8960 O   0  0  0  0  0  0  0  0  0  0  0  0
  182.5860  174.4080  137.0280 C   0  0  0  0  0  0  0  0  0  0  0  0
  183.7890  174.1730  137.6840 O   0  0  0  0  0  1  0  0  0  0  0  0
  192.1750  176.2670  138.0280 N   0  0  0  0  0  2  0  0  0  0  0  0
  192.4800  174.8910  137.6650 C   0  0  0  0  0  2  0  0  0  0  0  0
  193.9440  174.7490  137.4230 C   0  0  0  0  0  0  0  0  0  0  0  0
  194.8890  174.7030  138.5730 C   0  0  0  0  0  1  0  0  0  0  0  0
  194.3650  174.6330  136.2860 O   0  0  0  0  0  0  0  0  0  0  0  0
  1  4  2  0  0  0  0
  2  9  2  0  0  0  0
  3 20  1  6  0  0  0
  3 11  1  0  0  0  0
  4 18  1  0  0  0  0
  5 17  1  0  0  0  0
  6  7  2  0  0  0  0
  7 10  1  0  0  0  0
  8  6  1  1  0  0  0
  8  3  1  0  0  0  0
  9  1  1  0  0  0  0
 11 10  1  0  0  0  0
 11 13  2  0  0  0  0
 14 24  1  0  0  0  0
 15  5  2  0  0  0  0
 15  2  1  0  0  0  0
 16  8  1  0  0  0  0
 17 19  2  0  0  0  0
 17  1  1  0  0  0  0
 18 20  1  0  0  0  0
 19 22  1  0  0  0  0
 20 12  2  0  0  0  0
 21 27  1  0  0  0  0
 21 16  1  0  0  0  0
 22 16  2  0  0  0  0
 22 18  1  0  0  0  0
 23 24  2  0  0  0  0
 23 19  1  0  0  0  0
 24 21  1  0  0  0  0
 25 26  1  0  0  0  0
 26 15  1  0  0  0  0
 28 27  1  0  0  0  0
 29 28  1  0  0  0  0
 30 29  1  0  0  0  0
 33 35  1  0  0  0  0
 33 31  1  0  0  0  0
 34 32  1  6  0  0  0
 34 36  1  0  0  0  0
 34 33  1  0  0  0  0
 35 30  1  1  0  0  0
 36 35  1  0  0  0  0
 37 38  2  0  0  0  0
 38 34  1  0  0  0  0
 38 39  1  0  0  0  0
 40  2  1  0  0  0  0
 41 40  1  0  0  0  0
 42 41  1  0  0  0  0
 42 43  1  0  0  0  0
 44 42  2  0  0  0  0
M  END
>  <MODEL>
7

>  <REMARK>
 VINA RESULT:      -8.4      2.740      3.448
  Name = 
  10 active torsions:
  status: ('A' for Active; 'I' for Inactive)
    1  A    between atoms: C_2  and  N_32
    2  A    between atoms: C_5  and  C_11
    3  A    between atoms: C_5  and  N_36
    4  A    between atoms: C_6  and  C_15
    5  A    between atoms: C_6  and  N_32
    6  A    between atoms: C_11  and  C_24
    7  A    between atoms: C_24  and  C_40
    8  A    between atoms: CA_25  and  C_43
    9  A    between atoms: C_26  and  C_37
   10  A    between atoms: C_35  and  C_40
                            x       y       z     vdW  Elec       q    Type
                         _______ _______ _______ _____ _____    ______ ____

>  <TORSDO>
F 10

$$$$
=
 OpenBabel10222416153D

 44 49  0  0  1  0  0  0  0  0999 V2000
  189.7380  177.1480  140.4120 C   0  0  0  0  0  0  0  0  0  0  0  0
  190.7970  176.9070  138.2410 C   0  0  0  0  0  0  0  0  0  0  0  0
  187.8170  178.0890  144.8250 C   0  0  1  0  0  3  0  0  0  0  0  0
  189.7940  176.9770  141.7390 C   0  0  0  0  0  3  0  0  0  0  0  0
  188.6210  177.9000  138.4330 N   0  0  0  0  0  0  0  0  0  0  0  0
  185.4650  178.8970  144.9640 C   0  0  0  0  0  3  0  0  0  0  0  0
  185.5130  178.9120  146.3010 C   0  0  0  0  0  3  0  0  0  0  0  0
  186.4220  178.0330  144.1750 C   0  0  1  0  0  3  0  0  0  0  0  0
  190.8130  176.7410  139.6270 C   0  0  0  0  0  3  0  0  0  0  0  0
  186.5430  178.1940  146.9980 N   0  0  0  0  0  2  0  0  0  0  0  0
  187.6830  177.7050  146.2810 C   0  0  0  0  0  0  0  0  0  0  0  0
  189.7980  176.7400  144.5420 O   0  0  0  0  0  0  0  0  0  0  0  0
  188.5650  177.0420  146.8860 O   0  0  0  0  0  0  0  0  0  0  0  0
  184.1700  179.5920  139.7930 C   0  0  0  0  0  1  0  0  0  0  0  0
  189.6590  177.5040  137.6460 C   0  0  0  0  0  0  0  0  0  0  0  0
  186.4370  178.2970  142.6700 C   0  0  0  0  0  0  0  0  0  0  0  0
  188.6170  177.7440  139.7850 C   0  0  0  0  0  0  0  0  0  0  0  0
  188.7100  177.3990  142.5800 N   0  0  0  0  0  0  0  0  0  0  0  0
  187.5480  178.1420  140.5000 C   0  0  0  0  0  0  0  0  0  0  0  0
  188.8180  177.3270  144.0060 C   0  0  0  0  0  0  0  0  0  0  0  0
  185.2490  178.7150  141.9430 N   0  0  0  0  0  0  0  0  0  0  0  0
  187.5400  177.9670  141.9630 C   0  0  0  0  0  0  0  0  0  0  0  0
  186.4050  178.7210  139.8600 N   0  0  0  0  0  0  0  0  0  0  0  0
  185.3300  179.0030  140.5270 C   0  0  0  0  0  0  0  0  0  0  0  0
  188.2390  178.1000  135.8580 O   0  0  0  0  0  1  0  0  0  0  0  0
  189.5550  177.7680  136.1830 C   0  0  0  0  0  2  0  0  0  0  0  0
  183.9220  178.6450  142.5490 C   0  0  0  0  0  2  0  0  0  0  0  0
  182.9140  178.1270  141.5420 C   0  0  0  0  0  2  0  0  0  0  0  0
  181.5300  178.5850  141.9460 C   0  0  0  0  0  2  0  0  0  0  0  0
  180.5810  178.4290  140.7740 C   0  0  0  0  0  2  0  0  0  0  0  0
  181.2280  178.3800  138.2350 O   0  0  0  0  0  1  0  0  0  0  0  0
  178.9320  178.9690  137.4670 O   0  0  0  0  0  1  0  0  0  0  0  0
  180.9430  179.6640  138.5850 N   0  0  0  0  0  0  0  0  0  0  0  0
  179.5650  179.9910  138.1870 C   0  0  2  0  0  0  0  0  0  0  0  0
  180.5020  179.7420  139.9920 C   0  0  1  0  0  3  0  0  0  0  0  0
  179.0670  180.0550  139.6160 C   0  0  0  0  0  2  0  0  0  0  0  0
  179.8450  182.3680  138.0510 O   0  0  0  0  0  1  0  0  0  0  0  0
  179.4770  181.3080  137.4750 C   0  0  0  0  0  0  0  0  0  0  0  0
  179.0580  181.3590  136.1500 O   0  0  0  0  0  0  0  0  0  0  0  0
  191.9510  176.4620  137.5110 N   0  0  0  0  0  2  0  0  0  0  0  0
  193.3150  176.3880  138.0130 C   0  0  0  0  0  2  0  0  0  0  0  0
  194.0800  175.3690  137.2410 C   0  0  0  0  0  0  0  0  0  0  0  0
  193.4600  174.0520  136.9260 C   0  0  0  0  0  1  0  0  0  0  0  0
  195.2000  175.6260  136.8350 O   0  0  0  0  0  0  0  0  0  0  0  0
  1  4  2  0  0  0  0
  2  9  2  0  0  0  0
  3 20  1  6  0  0  0
  3 11  1  0  0  0  0
  4 18  1  0  0  0  0
  5 17  1  0  0  0  0
  6  7  2  0  0  0  0
  7 10  1  0  0  0  0
  8  3  1  0  0  0  0
  8  6  1  1  0  0  0
  9  1  1  0  0  0  0
 11 13  2  0  0  0  0
 11 10  1  0  0  0  0
 14 24  1  0  0  0  0
 15  2  1  0  0  0  0
 15  5  2  0  0  0  0
 16  8  1  0  0  0  0
 17  1  1  0  0  0  0
 17 19  2  0  0  0  0
 18 20  1  0  0  0  0
 19 22  1  0  0  0  0
 20 12  2  0  0  0  0
 21 27  1  0  0  0  0
 21 16  1  0  0  0  0
 22 18  1  0  0  0  0
 22 16  2  0  0  0  0
 23 19  1  0  0  0  0
 23 24  2  0  0  0  0
 24 21  1  0  0  0  0
 25 26  1  0  0  0  0
 26 15  1  0  0  0  0
 28 29  1  0  0  0  0
 28 27  1  0  0  0  0
 30 29  1  0  0  0  0
 31 33  1  0  0  0  0
 33 35  1  0  0  0  0
 34 32  1  6  0  0  0
 34 33  1  0  0  0  0
 34 36  1  0  0  0  0
 35 30  1  6  0  0  0
 36 35  1  0  0  0  0
 38 37  1  0  0  0  0
 38 34  1  0  0  0  0
 39 38  2  0  0  0  0
 40 41  1  0  0  0  0
 40  2  1  0  0  0  0
 42 41  1  0  0  0  0
 43 42  1  0  0  0  0
 44 42  2  0  0  0  0
M  END
>  <MODEL>
8

>  <REMARK>
 VINA RESULT:      -8.1      1.620      2.062
  Name = 
  10 active torsions:
  status: ('A' for Active; 'I' for Inactive)
    1  A    between atoms: C_2  and  N_32
    2  A    between atoms: C_5  and  C_11
    3  A    between atoms: C_5  and  N_36
    4  A    between atoms: C_6  and  C_15
    5  A    between atoms: C_6  and  N_32
    6  A    between atoms: C_11  and  C_24
    7  A    between atoms: C_24  and  C_40
    8  A    between atoms: CA_25  and  C_43
    9  A    between atoms: C_26  and  C_37
   10  A    between atoms: C_35  and  C_40
                            x       y       z     vdW  Elec       q    Type
                         _______ _______ _______ _____ _____    ______ ____

>  <TORSDO>
F 10

$$$$
=
 OpenBabel10222416153D

 44 49  0  0  1  0  0  0  0  0999 V2000
  190.2750  177.3600  144.0420 C   0  0  0  0  0  0  0  0  0  0  0  0
  190.8660  177.1540  146.3880 C   0  0  0  0  0  0  0  0  0  0  0  0
  188.9970  177.2780  139.3090 C   0  0  1  0  0  3  0  0  0  0  0  0
  190.6580  177.3390  142.7590 C   0  0  0  0  0  3  0  0  0  0  0  0
  188.5960  177.5800  145.7350 N   0  0  0  0  0  0  0  0  0  0  0  0
  186.6870  177.9610  138.6770 C   0  0  0  0  0  3  0  0  0  0  0  0
  186.9560  177.7940  137.3770 C   0  0  0  0  0  3  0  0  0  0  0  0
  187.8070  178.1880  139.6660 C   0  0  1  0  0  3  0  0  0  0  0  0
  191.2240  177.1470  145.0390 C   0  0  0  0  0  3  0  0  0  0  0  0
  188.3160  177.7180  136.9220 N   0  0  0  0  0  2  0  0  0  0  0  0
  189.3750  177.5280  137.8660 C   0  0  0  0  0  0  0  0  0  0  0  0
  191.3020  177.2620  140.0220 O   0  0  0  0  0  0  0  0  0  0  0  0
  190.5690  177.5020  137.4710 O   0  0  0  0  0  0  0  0  0  0  0  0
  184.3270  178.6350  143.4590 C   0  0  0  0  0  1  0  0  0  0  0  0
  189.5090  177.3800  146.7250 C   0  0  0  0  0  0  0  0  0  0  0  0
  187.3950  178.1080  141.1350 C   0  0  0  0  0  0  0  0  0  0  0  0
  188.9270  177.5800  144.4150 C   0  0  0  0  0  0  0  0  0  0  0  0
  189.7040  177.5400  141.7060 N   0  0  0  0  0  0  0  0  0  0  0  0
  187.9760  177.8030  143.4880 C   0  0  0  0  0  0  0  0  0  0  0  0
  190.0870  177.3990  140.3330 C   0  0  0  0  0  0  0  0  0  0  0  0
  186.0790  178.5210  141.5960 N   0  0  0  0  0  0  0  0  0  0  0  0
  188.3340  177.8100  142.0580 C   0  0  0  0  0  0  0  0  0  0  0  0
  186.6180  178.0510  143.8680 N   0  0  0  0  0  0  0  0  0  0  0  0
  185.7210  178.3760  142.9900 C   0  0  0  0  0  0  0  0  0  0  0  0
  187.6280  177.5640  148.1390 O   0  0  0  0  0  1  0  0  0  0  0  0
  189.0100  177.3650  148.1290 C   0  0  0  0  0  2  0  0  0  0  0  0
  185.1760  179.2840  140.7370 C   0  0  0  0  0  2  0  0  0  0  0  0
  183.9240  178.4790  140.4500 C   0  0  0  0  0  2  0  0  0  0  0  0
  183.1230  179.1780  139.3720 C   0  0  0  0  0  2  0  0  0  0  0  0
  182.4130  178.1450  138.5180 C   0  0  0  0  0  2  0  0  0  0  0  0
  181.3830  175.7720  138.9350 O   0  0  0  0  0  1  0  0  0  0  0  0
  181.6230  175.0660  136.5570 O   0  0  0  0  0  1  0  0  0  0  0  0
  182.7020  175.6240  138.6320 N   0  0  0  0  0  0  0  0  0  0  0  0
  182.8460  175.2690  137.2110 C   0  0  2  0  0  0  0  0  0  0  0  0
  183.3190  176.9280  138.3160 C   0  0  1  0  0  3  0  0  0  0  0  0
  183.4590  176.6040  136.8420 C   0  0  0  0  0  2  0  0  0  0  0  0
  184.9900  174.3220  136.7090 O   0  0  0  0  0  0  0  0  0  0  0  0
  183.7820  174.1160  137.0070 C   0  0  0  0  0  0  0  0  0  0  0  0
  183.3420  172.8140  137.2170 O   0  0  0  0  0  1  0  0  0  0  0  0
  191.9090  176.9210  147.3480 N   0  0  0  0  0  2  0  0  0  0  0  0
  192.4500  175.6280  147.7390 C   0  0  0  0  0  2  0  0  0  0  0  0
  193.0790  175.7330  149.0860 C   0  0  0  0  0  0  0  0  0  0  0  0
  193.5460  177.0550  149.5890 C   0  0  0  0  0  1  0  0  0  0  0  0
  193.1790  174.7450  149.7910 O   0  0  0  0  0  0  0  0  0  0  0  0
  1 17  1  0  0  0  0
  1  9  1  0  0  0  0
  2 15  1  0  0  0  0
  2 40  1  0  0  0  0
  3 11  1  6  0  0  0
  3  8  1  0  0  0  0
  3 20  1  0  0  0  0
  4  1  2  0  0  0  0
  5 15  2  0  0  0  0
  7  6  2  0  0  0  0
  8  6  1  6  0  0  0
  8 16  1  0  0  0  0
  9  2  2  0  0  0  0
 10  7  1  0  0  0  0
 10 11  1  0  0  0  0
 12 20  2  0  0  0  0
 13 11  2  0  0  0  0
 15 26  1  0  0  0  0
 16 21  1  0  0  0  0
 16 22  2  0  0  0  0
 17  5  1  0  0  0  0
 18 22  1  0  0  0  0
 18  4  1  0  0  0  0
 19 23  1  0  0  0  0
 19 17  2  0  0  0  0
 20 18  1  0  0  0  0
 21 24  1  0  0  0  0
 22 19  1  0  0  0  0
 24 14  1  0  0  0  0
 24 23  2  0  0  0  0
 26 25  1  0  0  0  0
 27 21  1  0  0  0  0
 28 27  1  0  0  0  0
 29 28  1  0  0  0  0
 30 29  1  0  0  0  0
 33 31  1  0  0  0  0
 34 32  1  6  0  0  0
 34 33  1  0  0  0  0
 35 30  1  6  0  0  0
 35 33  1  0  0  0  0
 36 34  1  0  0  0  0
 36 35  1  0  0  0  0
 37 38  2  0  0  0  0
 38 34  1  0  0  0  0
 38 39  1  0  0  0  0
 40 41  1  0  0  0  0
 41 42  1  0  0  0  0
 42 43  1  0  0  0  0
 42 44  2  0  0  0  0
M  END
>  <MODEL>
9

>  <REMARK>
 VINA RESULT:      -7.9      3.159      7.438
  Name = 
  10 active torsions:
  status: ('A' for Active; 'I' for Inactive)
    1  A    between atoms: C_2  and  N_32
    2  A    between atoms: C_5  and  C_11
    3  A    between atoms: C_5  and  N_36
    4  A    between atoms: C_6  and  C_15
    5  A    between atoms: C_6  and  N_32
    6  A    between atoms: C_11  and  C_24
    7  A    between atoms: C_24  and  C_40
    8  A    between atoms: CA_25  and  C_43
    9  A    between atoms: C_26  and  C_37
   10  A    between atoms: C_35  and  C_40
                            x       y       z     vdW  Elec       q    Type
                         _______ _______ _______ _____ _____    ______ ____

>  <TORSDO>
F 10

$$$$
