=
 OpenBabel10222417253D

 28 30  0  0  1  0  0  0  0  0999 V2000
  190.5430  176.9360  144.3000 N   0  0  0  0  0  0  0  0  0  0  0  0
  190.3430  177.3250  142.1460 C   0  0  1  0  0  3  0  0  0  0  0  0
  186.1400  177.9830  143.9090 C   0  0  0  0  0  0  0  0  0  0  0  0
  189.0090  177.4990  142.7920 C   0  0  0  0  0  0  0  0  0  0  0  0
  191.2020  176.7640  143.1210 O   0  0  0  0  0  0  0  0  0  0  0  0
  187.8860  177.9010  142.1020 C   0  0  0  0  0  3  0  0  0  0  0  0
  188.2290  177.2810  145.1600 C   0  0  0  0  0  0  0  0  0  0  0  0
  186.6200  178.1020  142.6120 C   0  0  0  0  0  3  0  0  0  0  0  0
  184.7740  178.2080  144.0260 O   0  0  0  0  0  1  0  0  0  0  0  0
  188.6490  176.9450  146.3030 O   0  0  0  0  0  0  0  0  0  0  0  0
  186.8670  177.6440  145.0790 C   0  0  0  0  0  0  0  0  0  0  0  0
  189.1680  177.2520  144.1150 C   0  0  0  0  0  0  0  0  0  0  0  0
  186.1930  177.6270  146.3150 O   0  0  0  0  0  0  0  0  0  0  0  0
  185.9250  178.7810  147.1030 C   0  0  0  0  0  1  0  0  0  0  0  0
  191.9060  176.2170  146.1950 C   0  0  0  0  0  1  0  0  0  0  0  0
  191.2910  177.3960  145.4660 C   0  0  0  0  0  2  0  0  0  0  0  0
  190.2410  176.4150  141.0150 N   0  0  0  0  0  2  0  0  0  0  0  0
  189.3170  177.5760  137.8740 C   0  0  2  0  0  3  0  0  0  0  0  0
  190.6940  177.1380  139.8360 C   0  0  2  0  0  3  0  0  0  0  0  0
  189.5700  178.0080  139.3040 C   0  0  0  0  0  2  0  0  0  0  0  0
  190.5330  176.7780  137.4580 C   0  0  0  0  0  2  0  0  0  0  0  0
  191.0490  176.1580  138.7350 C   0  0  0  0  0  2  0  0  0  0  0  0
  189.1400  178.7950  136.9840 C   0  0  0  0  0  2  0  0  0  0  0  0
  187.7640  179.2640  137.0370 N   0  0  0  0  0  2  0  0  0  0  0  0
  186.9080  178.0920  136.9460 C   0  0  0  0  0  2  0  0  0  0  0  0
  186.0590  178.5880  139.1080 O   0  0  0  0  0  1  0  0  0  0  0  0
  185.6730  178.2870  137.8030 C   0  0  0  0  0  3  0  0  0  0  0  0
  184.9090  177.1200  137.8040 O   0  0  0  0  0  1  0  0  0  0  0  0
  1 16  1  0  0  0  0
  2 17  1  6  0  0  0
  2  4  1  0  0  0  0
  2  5  1  0  0  0  0
  3  9  1  0  0  0  0
  3 11  2  0  0  0  0
  4 12  2  0  0  0  0
  5  1  1  0  0  0  0
  6  8  2  0  0  0  0
  6  4  1  0  0  0  0
  7 10  2  0  0  0  0
  8  3  1  0  0  0  0
 11  7  1  0  0  0  0
 11 13  1  0  0  0  0
 12  1  1  0  0  0  0
 12  7  1  0  0  0  0
 13 14  1  0  0  0  0
 16 15  1  0  0  0  0
 18 23  1  6  0  0  0
 18 20  1  0  0  0  0
 19 17  1  1  0  0  0
 20 19  1  0  0  0  0
 21 18  1  0  0  0  0
 21 22  1  0  0  0  0
 22 19  1  0  0  0  0
 23 24  1  0  0  0  0
 25 24  1  0  0  0  0
 25 27  1  0  0  0  0
 27 28  1  0  0  0  0
 27 26  1  0  0  0  0
M  END
>  <MODEL>
1

>  <REMARK>
 VINA RESULT:      -7.7      0.000      0.000
  Name = 
  8 active torsions:
  status: ('A' for Active; 'I' for Inactive)
    1  A    between atoms: N_1  and  C_18
    2  A    between atoms: C_2  and  N_19
    3  A    between atoms: C_4  and  N_20
    4  A    between atoms: C_4  and  C_25
    5  A    between atoms: C_6  and  C_23
    6  A    between atoms: C_8  and  N_19
    7  A    between atoms: O_11  and  C_17
    8  A    between atoms: N_20  and  C_23
                            x       y       z     vdW  Elec       q    Type
                         _______ _______ _______ _____ _____    ______ ____

>  <TORSDO>
F 8

$$$$
=
 OpenBabel10222417253D

 28 30  0  0  1  0  0  0  0  0999 V2000
  187.8600  177.7850  146.8040 N   0  0  0  0  0  0  0  0  0  0  0  0
  186.1220  177.7510  145.4590 C   0  0  1  0  0  3  0  0  0  0  0  0
  189.6920  176.3900  142.8870 C   0  0  0  0  0  0  0  0  0  0  0  0
  187.3330  177.3380  144.6900 C   0  0  0  0  0  0  0  0  0  0  0  0
  186.5730  178.2200  146.7160 O   0  0  0  0  0  0  0  0  0  0  0  0
  187.2890  176.9510  143.3690 C   0  0  0  0  0  3  0  0  0  0  0  0
  189.7380  177.0720  145.3270 C   0  0  0  0  0  0  0  0  0  0  0  0
  188.3460  176.5420  142.5830 C   0  0  0  0  0  3  0  0  0  0  0  0
  190.4750  176.0140  141.8030 O   0  0  0  0  0  1  0  0  0  0  0  0
  190.5180  177.2470  146.3050 O   0  0  0  0  0  0  0  0  0  0  0  0
  190.3290  176.5940  144.1380 C   0  0  0  0  0  0  0  0  0  0  0  0
  188.3830  177.3710  145.5470 C   0  0  0  0  0  0  0  0  0  0  0  0
  191.7090  176.3340  144.2450 O   0  0  0  0  0  0  0  0  0  0  0  0
  192.2730  175.0420  144.4420 C   0  0  0  0  0  1  0  0  0  0  0  0
  188.6300  178.3080  149.0620 C   0  0  0  0  0  1  0  0  0  0  0  0
  188.3270  177.2090  148.0610 C   0  0  0  0  0  2  0  0  0  0  0  0
  185.4270  178.8260  144.7670 N   0  0  0  0  0  2  0  0  0  0  0  0
  183.0480  179.1570  142.2570 C   0  0  2  0  0  3  0  0  0  0  0  0
  184.2100  178.2610  144.2030 C   0  0  2  0  0  3  0  0  0  0  0  0
  184.2570  178.3510  142.6880 C   0  0  0  0  0  2  0  0  0  0  0  0
  182.1100  179.1700  143.4440 C   0  0  0  0  0  2  0  0  0  0  0  0
  183.0090  179.0700  144.6540 C   0  0  0  0  0  2  0  0  0  0  0  0
  182.3880  178.5040  141.0540 C   0  0  0  0  0  2  0  0  0  0  0  0
  183.3580  177.7140  140.3120 N   0  0  0  0  0  2  0  0  0  0  0  0
  183.3460  178.1970  138.9410 C   0  0  0  0  0  2  0  0  0  0  0  0
  185.6280  178.6000  139.4640 O   0  0  0  0  0  1  0  0  0  0  0  0
  184.5660  179.0610  138.6870 C   0  0  0  0  0  3  0  0  0  0  0  0
  184.2860  180.3850  139.0250 O   0  0  0  0  0  1  0  0  0  0  0  0
  1 16  1  0  0  0  0
  2 17  1  6  0  0  0
  2  5  1  0  0  0  0
  3 11  2  0  0  0  0
  4  2  1  0  0  0  0
  4 12  2  0  0  0  0
  5  1  1  0  0  0  0
  6  4  1  0  0  0  0
  7 12  1  0  0  0  0
  7 10  2  0  0  0  0
  8  3  1  0  0  0  0
  8  6  2  0  0  0  0
  9  3  1  0  0  0  0
 11 13  1  0  0  0  0
 11  7  1  0  0  0  0
 12  1  1  0  0  0  0
 13 14  1  0  0  0  0
 16 15  1  0  0  0  0
 18 23  1  6  0  0  0
 18 20  1  0  0  0  0
 18 21  1  0  0  0  0
 19 22  1  0  0  0  0
 19 17  1  1  0  0  0
 20 19  1  0  0  0  0
 21 22  1  0  0  0  0
 24 23  1  0  0  0  0
 25 24  1  0  0  0  0
 27 25  1  0  0  0  0
 27 28  1  0  0  0  0
 27 26  1  0  0  0  0
M  END
>  <MODEL>
2

>  <REMARK>
 VINA RESULT:      -7.7      3.097      5.561
  Name = 
  8 active torsions:
  status: ('A' for Active; 'I' for Inactive)
    1  A    between atoms: N_1  and  C_18
    2  A    between atoms: C_2  and  N_19
    3  A    between atoms: C_4  and  N_20
    4  A    between atoms: C_4  and  C_25
    5  A    between atoms: C_6  and  C_23
    6  A    between atoms: C_8  and  N_19
    7  A    between atoms: O_11  and  C_17
    8  A    between atoms: N_20  and  C_23
                            x       y       z     vdW  Elec       q    Type
                         _______ _______ _______ _____ _____    ______ ____

>  <TORSDO>
F 8

$$$$
=
 OpenBabel10222417253D

 28 30  0  0  1  0  0  0  0  0999 V2000
  182.2220  178.7350  143.3110 N   0  0  0  0  0  0  0  0  0  0  0  0
  184.2110  178.8780  144.2360 C   0  0  1  0  0  3  0  0  0  0  0  0
  184.9700  178.8110  139.6940 C   0  0  0  0  0  0  0  0  0  0  0  0
  184.3720  178.8310  142.7530 C   0  0  0  0  0  0  0  0  0  0  0  0
  182.8510  178.5970  144.5110 O   0  0  0  0  0  0  0  0  0  0  0  0
  185.5950  178.9280  142.1260 C   0  0  0  0  0  3  0  0  0  0  0  0
  182.7300  178.6710  140.8710 C   0  0  0  0  0  0  0  0  0  0  0  0
  185.8420  178.9090  140.7700 C   0  0  0  0  0  3  0  0  0  0  0  0
  185.6030  178.7590  138.4590 O   0  0  0  0  0  1  0  0  0  0  0  0
  181.4920  178.5340  140.6600 O   0  0  0  0  0  0  0  0  0  0  0  0
  183.5540  178.7370  139.7270 C   0  0  0  0  0  0  0  0  0  0  0  0
  183.1300  178.7420  142.2160 C   0  0  0  0  0  0  0  0  0  0  0  0
  182.8490  178.6930  138.5080 O   0  0  0  0  0  0  0  0  0  0  0  0
  182.6370  177.5140  137.7410 C   0  0  0  0  0  1  0  0  0  0  0  0
  179.8500  178.5980  143.8810 C   0  0  0  0  0  1  0  0  0  0  0  0
  180.9470  179.4430  143.2600 C   0  0  0  0  0  2  0  0  0  0  0  0
  185.0470  177.8680  144.8670 N   0  0  0  0  0  2  0  0  0  0  0  0
  187.9170  177.4650  146.7830 C   0  0  2  0  0  3  0  0  0  0  0  0
  186.1110  178.5660  145.5720 C   0  0  2  0  0  3  0  0  0  0  0  0
  187.4200  177.8190  145.3950 C   0  0  0  0  0  2  0  0  0  0  0  0
  187.1430  178.3450  147.7400 C   0  0  0  0  0  2  0  0  0  0  0  0
  185.8160  178.5900  147.0600 C   0  0  0  0  0  2  0  0  0  0  0  0
  189.4090  177.7340  146.8880 C   0  0  0  0  0  2  0  0  0  0  0  0
  190.0020  177.8160  145.5620 N   0  0  0  0  0  2  0  0  0  0  0  0
  191.0610  176.8210  145.5040 C   0  0  0  0  0  2  0  0  0  0  0  0
  190.0750  176.1650  143.4450 O   0  0  0  0  0  1  0  0  0  0  0  0
  191.3000  176.4040  144.0660 C   0  0  0  0  0  3  0  0  0  0  0  0
  192.0710  175.2430  144.0320 O   0  0  0  0  0  1  0  0  0  0  0  0
  1  5  1  0  0  0  0
  2  5  1  0  0  0  0
  2 17  1  1  0  0  0
  3 11  2  0  0  0  0
  3  8  1  0  0  0  0
  4  2  1  0  0  0  0
  6  4  1  0  0  0  0
  7 12  1  0  0  0  0
  8  6  2  0  0  0  0
  9  3  1  0  0  0  0
 10  7  2  0  0  0  0
 11  7  1  0  0  0  0
 12  4  2  0  0  0  0
 12  1  1  0  0  0  0
 13 11  1  0  0  0  0
 14 13  1  0  0  0  0
 16  1  1  0  0  0  0
 16 15  1  0  0  0  0
 18 23  1  6  0  0  0
 18 21  1  0  0  0  0
 19 17  1  6  0  0  0
 19 22  1  0  0  0  0
 20 19  1  0  0  0  0
 20 18  1  0  0  0  0
 22 21  1  0  0  0  0
 24 23  1  0  0  0  0
 25 24  1  0  0  0  0
 26 27  1  0  0  0  0
 27 25  1  0  0  0  0
 28 27  1  0  0  0  0
M  END
>  <MODEL>
3

>  <REMARK>
 VINA RESULT:      -7.5      3.434      8.170
  Name = 
  8 active torsions:
  status: ('A' for Active; 'I' for Inactive)
    1  A    between atoms: N_1  and  C_18
    2  A    between atoms: C_2  and  N_19
    3  A    between atoms: C_4  and  N_20
    4  A    between atoms: C_4  and  C_25
    5  A    between atoms: C_6  and  C_23
    6  A    between atoms: C_8  and  N_19
    7  A    between atoms: O_11  and  C_17
    8  A    between atoms: N_20  and  C_23
                            x       y       z     vdW  Elec       q    Type
                         _______ _______ _______ _____ _____    ______ ____

>  <TORSDO>
F 8

$$$$
=
 OpenBabel10222417253D

 28 30  0  0  1  0  0  0  0  0999 V2000
  184.3100  178.8850  140.0430 N   0  0  0  0  0  0  0  0  0  0  0  0
  185.1650  178.9750  142.0660 C   0  0  1  0  0  3  0  0  0  0  0  0
  188.6870  177.9320  139.2890 C   0  0  0  0  0  0  0  0  0  0  0  0
  186.2470  178.6200  141.1020 C   0  0  0  0  0  0  0  0  0  0  0  0
  183.9430  178.9130  141.3540 O   0  0  0  0  0  0  0  0  0  0  0  0
  187.5620  178.4510  141.4770 C   0  0  0  0  0  3  0  0  0  0  0  0
  186.2680  178.2860  138.6220 C   0  0  0  0  0  0  0  0  0  0  0  0
  188.6290  178.1370  140.6610 C   0  0  0  0  0  3  0  0  0  0  0  0
  189.9460  177.5660  138.8280 O   0  0  0  0  0  1  0  0  0  0  0  0
  185.4860  178.2540  137.6310 O   0  0  0  0  0  0  0  0  0  0  0  0
  187.6300  178.0300  138.3490 C   0  0  0  0  0  0  0  0  0  0  0  0
  185.6870  178.5720  139.8690 C   0  0  0  0  0  0  0  0  0  0  0  0
  187.9150  177.8300  136.9850 O   0  0  0  0  0  0  0  0  0  0  0  0
  188.0290  176.5550  136.3640 C   0  0  0  0  0  1  0  0  0  0  0  0
  182.2660  179.0490  138.7150 C   0  0  0  0  0  1  0  0  0  0  0  0
  183.5790  179.7110  139.0880 C   0  0  0  0  0  2  0  0  0  0  0  0
  185.1310  178.0200  143.1630 N   0  0  0  0  0  2  0  0  0  0  0  0
  186.3120  177.6020  146.4030 C   0  0  2  0  0  3  0  0  0  0  0  0
  185.5950  178.7130  144.3550 C   0  0  2  0  0  3  0  0  0  0  0  0
  186.7370  177.9370  144.9870 C   0  0  0  0  0  2  0  0  0  0  0  0
  185.1470  178.5160  146.7160 C   0  0  0  0  0  2  0  0  0  0  0  0
  184.4820  178.7720  145.3840 C   0  0  0  0  0  2  0  0  0  0  0  0
  187.4630  177.8460  147.3650 C   0  0  0  0  0  2  0  0  0  0  0  0
  188.7360  177.7320  146.6700 N   0  0  0  0  0  2  0  0  0  0  0  0
  189.7490  177.4530  147.6740 C   0  0  0  0  0  2  0  0  0  0  0  0
  192.0440  176.8540  147.8190 O   0  0  0  0  0  1  0  0  0  0  0  0
  190.8940  176.6770  147.0510 C   0  0  0  0  0  3  0  0  0  0  0  0
  191.1270  177.1370  145.7550 O   0  0  0  0  0  1  0  0  0  0  0  0
  1  5  1  0  0  0  0
  2 17  1  1  0  0  0
  3  8  1  0  0  0  0
  4  6  1  0  0  0  0
  4  2  1  0  0  0  0
  5  2  1  0  0  0  0
  7 12  1  0  0  0  0
  8  6  2  0  0  0  0
  9  3  1  0  0  0  0
 10  7  2  0  0  0  0
 11  7  1  0  0  0  0
 11  3  2  0  0  0  0
 12  1  1  0  0  0  0
 12  4  2  0  0  0  0
 13 11  1  0  0  0  0
 14 13  1  0  0  0  0
 15 16  1  0  0  0  0
 16  1  1  0  0  0  0
 18 21  1  0  0  0  0
 18 23  1  1  0  0  0
 19 17  1  6  0  0  0
 19 20  1  0  0  0  0
 19 22  1  0  0  0  0
 20 18  1  0  0  0  0
 22 21  1  0  0  0  0
 24 23  1  0  0  0  0
 24 25  1  0  0  0  0
 27 25  1  0  0  0  0
 27 26  1  0  0  0  0
 28 27  1  0  0  0  0
M  END
>  <MODEL>
4

>  <REMARK>
 VINA RESULT:      -7.5      2.550      8.498
  Name = 
  8 active torsions:
  status: ('A' for Active; 'I' for Inactive)
    1  A    between atoms: N_1  and  C_18
    2  A    between atoms: C_2  and  N_19
    3  A    between atoms: C_4  and  N_20
    4  A    between atoms: C_4  and  C_25
    5  A    between atoms: C_6  and  C_23
    6  A    between atoms: C_8  and  N_19
    7  A    between atoms: O_11  and  C_17
    8  A    between atoms: N_20  and  C_23
                            x       y       z     vdW  Elec       q    Type
                         _______ _______ _______ _____ _____    ______ ____

>  <TORSDO>
F 8

$$$$
=
 OpenBabel10222417253D

 28 30  0  0  1  0  0  0  0  0999 V2000
  190.5830  176.8800  144.4550 N   0  0  0  0  0  0  0  0  0  0  0  0
  188.4020  177.1450  144.5080 C   0  0  1  0  0  3  0  0  0  0  0  0
  189.6070  177.7720  140.1080 C   0  0  0  0  0  0  0  0  0  0  0  0
  188.8770  177.3530  143.1090 C   0  0  0  0  0  0  0  0  0  0  0  0
  189.5540  177.0660  145.3270 O   0  0  0  0  0  0  0  0  0  0  0  0
  188.0260  177.6070  142.0550 C   0  0  0  0  0  3  0  0  0  0  0  0
  191.1460  177.2690  142.0570 C   0  0  0  0  0  0  0  0  0  0  0  0
  188.3680  177.7980  140.7330 C   0  0  0  0  0  3  0  0  0  0  0  0
  189.5610  178.0790  138.7540 O   0  0  0  0  0  1  0  0  0  0  0  0
  192.3630  177.1200  142.3630 O   0  0  0  0  0  0  0  0  0  0  0  0
  190.8710  177.4990  140.6920 C   0  0  0  0  0  0  0  0  0  0  0  0
  190.2220  177.1840  143.1120 C   0  0  0  0  0  0  0  0  0  0  0  0
  192.0090  177.4730  139.8630 O   0  0  0  0  0  0  0  0  0  0  0  0
  192.2390  176.5140  138.8380 C   0  0  0  0  0  1  0  0  0  0  0  0
  191.9600  175.9550  146.2470 C   0  0  0  0  0  1  0  0  0  0  0  0
  191.6090  175.8930  144.7730 C   0  0  0  0  0  2  0  0  0  0  0  0
  187.5840  178.2700  144.9370 N   0  0  0  0  0  2  0  0  0  0  0  0
  184.2180  179.1200  144.8410 C   0  0  2  0  0  3  0  0  0  0  0  0
  186.2300  177.7740  145.1250 C   0  0  2  0  0  3  0  0  0  0  0  0
  185.3090  178.3890  144.0850 C   0  0  0  0  0  2  0  0  0  0  0  0
  184.2640  178.5910  146.2580 C   0  0  0  0  0  2  0  0  0  0  0  0
  185.7070  178.2040  146.4820 C   0  0  0  0  0  2  0  0  0  0  0  0
  182.8660  178.8400  144.2040 C   0  0  0  0  0  2  0  0  0  0  0  0
  183.0220  178.5770  142.7820 N   0  0  0  0  0  2  0  0  0  0  0  0
  181.7610  178.9160  142.1430 C   0  0  0  0  0  2  0  0  0  0  0  0
  179.7140  178.2280  143.1340 O   0  0  0  0  0  1  0  0  0  0  0  0
  180.7080  179.2030  143.1970 C   0  0  0  0  0  3  0  0  0  0  0  0
  180.1420  180.4570  142.9710 O   0  0  0  0  0  1  0  0  0  0  0  0
  1 16  1  0  0  0  0
  1  5  1  0  0  0  0
  2 17  1  1  0  0  0
  2  5  1  0  0  0  0
  3 11  2  0  0  0  0
  3  8  1  0  0  0  0
  4 12  2  0  0  0  0
  4  2  1  0  0  0  0
  6  4  1  0  0  0  0
  7 10  2  0  0  0  0
  7 12  1  0  0  0  0
  8  6  2  0  0  0  0
  9  3  1  0  0  0  0
 11  7  1  0  0  0  0
 12  1  1  0  0  0  0
 13 11  1  0  0  0  0
 14 13  1  0  0  0  0
 16 15  1  0  0  0  0
 18 23  1  6  0  0  0
 18 21  1  0  0  0  0
 19 17  1  6  0  0  0
 19 22  1  0  0  0  0
 20 18  1  0  0  0  0
 20 19  1  0  0  0  0
 21 22  1  0  0  0  0
 24 23  1  0  0  0  0
 25 24  1  0  0  0  0
 25 27  1  0  0  0  0
 26 27  1  0  0  0  0
 28 27  1  0  0  0  0
M  END
>  <MODEL>
5

>  <REMARK>
 VINA RESULT:      -7.3      2.908      6.426
  Name = 
  8 active torsions:
  status: ('A' for Active; 'I' for Inactive)
    1  A    between atoms: N_1  and  C_18
    2  A    between atoms: C_2  and  N_19
    3  A    between atoms: C_4  and  N_20
    4  A    between atoms: C_4  and  C_25
    5  A    between atoms: C_6  and  C_23
    6  A    between atoms: C_8  and  N_19
    7  A    between atoms: O_11  and  C_17
    8  A    between atoms: N_20  and  C_23
                            x       y       z     vdW  Elec       q    Type
                         _______ _______ _______ _____ _____    ______ ____

>  <TORSDO>
F 8

$$$$
=
 OpenBabel10222417253D

 28 30  0  0  1  0  0  0  0  0999 V2000
  190.3250  177.0700  144.2670 N   0  0  0  0  0  0  0  0  0  0  0  0
  190.2260  177.4390  142.1030 C   0  0  1  0  0  3  0  0  0  0  0  0
  185.9540  178.1530  143.6680 C   0  0  0  0  0  0  0  0  0  0  0  0
  188.8660  177.6320  142.6860 C   0  0  0  0  0  0  0  0  0  0  0  0
  191.0350  176.8800  143.1210 O   0  0  0  0  0  0  0  0  0  0  0  0
  187.7790  178.0370  141.9430 C   0  0  0  0  0  3  0  0  0  0  0  0
  187.9780  177.4440  145.0180 C   0  0  0  0  0  0  0  0  0  0  0  0
  186.4940  178.2550  142.3930 C   0  0  0  0  0  3  0  0  0  0  0  0
  184.5860  178.3920  143.7200 O   0  0  0  0  0  1  0  0  0  0  0  0
  188.3420  177.1150  146.1820 O   0  0  0  0  0  0  0  0  0  0  0  0
  186.6250  177.8190  144.8720 C   0  0  0  0  0  0  0  0  0  0  0  0
  188.9630  177.3960  144.0180 C   0  0  0  0  0  0  0  0  0  0  0  0
  185.8950  177.8200  146.0770 O   0  0  0  0  0  0  0  0  0  0  0  0
  185.7360  178.9530  146.9220 C   0  0  0  0  0  1  0  0  0  0  0  0
  191.6810  176.3660  146.1730 C   0  0  0  0  0  1  0  0  0  0  0  0
  191.0230  177.5330  145.4610 C   0  0  0  0  0  2  0  0  0  0  0  0
  190.1670  176.5200  140.9760 N   0  0  0  0  0  2  0  0  0  0  0  0
  192.4970  175.9830  138.4570 C   0  0  2  0  0  3  0  0  0  0  0  0
  190.8860  177.1390  139.8740 C   0  0  2  0  0  3  0  0  0  0  0  0
  191.0150  176.1530  138.7270 C   0  0  0  0  0  2  0  0  0  0  0  0
  193.1820  177.1490  139.1370 C   0  0  0  0  0  2  0  0  0  0  0  0
  192.2950  177.4920  140.3110 C   0  0  0  0  0  2  0  0  0  0  0  0
  192.7600  176.0010  136.9600 C   0  0  0  0  0  2  0  0  0  0  0  0
  194.0380  176.6360  136.6790 N   0  0  0  0  0  2  0  0  0  0  0  0
  194.6760  175.8670  135.6230 C   0  0  0  0  0  2  0  0  0  0  0  0
  195.9400  174.9920  137.4350 O   0  0  0  0  0  1  0  0  0  0  0  0
  196.0280  175.3660  136.0950 C   0  0  0  0  0  3  0  0  0  0  0  0
  196.9810  176.3760  135.9580 O   0  0  0  0  0  1  0  0  0  0  0  0
  1 16  1  0  0  0  0
  2 17  1  6  0  0  0
  2  4  1  0  0  0  0
  2  5  1  0  0  0  0
  3  9  1  0  0  0  0
  3 11  2  0  0  0  0
  4 12  2  0  0  0  0
  5  1  1  0  0  0  0
  6  8  2  0  0  0  0
  6  4  1  0  0  0  0
  7 10  2  0  0  0  0
  8  3  1  0  0  0  0
 11  7  1  0  0  0  0
 11 13  1  0  0  0  0
 12  1  1  0  0  0  0
 12  7  1  0  0  0  0
 13 14  1  0  0  0  0
 16 15  1  0  0  0  0
 18 23  1  6  0  0  0
 18 20  1  0  0  0  0
 18 21  1  0  0  0  0
 19 22  1  0  0  0  0
 19 17  1  1  0  0  0
 20 19  1  0  0  0  0
 21 22  1  0  0  0  0
 24 23  1  0  0  0  0
 25 27  1  0  0  0  0
 25 24  1  0  0  0  0
 27 26  1  0  0  0  0
 28 27  1  0  0  0  0
M  END
>  <MODEL>
6

>  <REMARK>
 VINA RESULT:      -7.1      2.976      4.441
  Name = 
  8 active torsions:
  status: ('A' for Active; 'I' for Inactive)
    1  A    between atoms: N_1  and  C_18
    2  A    between atoms: C_2  and  N_19
    3  A    between atoms: C_4  and  N_20
    4  A    between atoms: C_4  and  C_25
    5  A    between atoms: C_6  and  C_23
    6  A    between atoms: C_8  and  N_19
    7  A    between atoms: O_11  and  C_17
    8  A    between atoms: N_20  and  C_23
                            x       y       z     vdW  Elec       q    Type
                         _______ _______ _______ _____ _____    ______ ____

>  <TORSDO>
F 8

$$$$
=
 OpenBabel10222417253D

 28 30  0  0  1  0  0  0  0  0999 V2000
  188.4520  177.4110  138.4490 N   0  0  0  0  0  0  0  0  0  0  0  0
  189.1680  177.7320  140.5020 C   0  0  1  0  0  3  0  0  0  0  0  0
  192.8660  176.3920  138.1060 C   0  0  0  0  0  0  0  0  0  0  0  0
  190.3120  177.2740  139.6600 C   0  0  0  0  0  0  0  0  0  0  0  0
  187.9970  177.5850  139.7210 O   0  0  0  0  0  0  0  0  0  0  0  0
  191.5980  177.1520  140.1400 C   0  0  0  0  0  3  0  0  0  0  0  0
  190.4990  176.6600  137.2410 C   0  0  0  0  0  0  0  0  0  0  0  0
  192.7160  176.7520  139.4390 C   0  0  0  0  0  3  0  0  0  0  0  0
  194.1510  175.9810  137.7760 O   0  0  0  0  0  1  0  0  0  0  0  0
  189.7860  176.5140  136.2090 O   0  0  0  0  0  0  0  0  0  0  0  0
  191.8750  176.3800  137.0910 C   0  0  0  0  0  0  0  0  0  0  0  0
  189.8360  177.0840  138.4050 C   0  0  0  0  0  0  0  0  0  0  0  0
  192.2510  176.0270  135.7810 O   0  0  0  0  0  0  0  0  0  0  0  0
  192.0740  174.7360  135.2110 C   0  0  0  0  0  1  0  0  0  0  0  0
  186.2840  178.0260  137.5060 C   0  0  0  0  0  1  0  0  0  0  0  0
  187.7910  178.1210  137.3590 C   0  0  0  0  0  2  0  0  0  0  0  0
  189.0560  176.9070  141.6950 N   0  0  0  0  0  2  0  0  0  0  0  0
  188.6270  177.1360  145.1340 C   0  0  2  0  0  3  0  0  0  0  0  0
  188.6270  177.7730  142.7820 C   0  0  2  0  0  3  0  0  0  0  0  0
  189.5230  177.5640  143.9890 C   0  0  0  0  0  2  0  0  0  0  0  0
  187.2170  177.4960  144.7180 C   0  0  0  0  0  2  0  0  0  0  0  0
  187.2200  177.4040  143.2110 C   0  0  0  0  0  2  0  0  0  0  0  0
  189.0190  177.8700  146.4060 C   0  0  0  0  0  2  0  0  0  0  0  0
  189.4350  176.9220  147.4280 N   0  0  0  0  0  2  0  0  0  0  0  0
  190.8340  177.1920  147.7190 C   0  0  0  0  0  2  0  0  0  0  0  0
  192.8360  175.9790  148.1210 O   0  0  0  0  0  1  0  0  0  0  0  0
  191.6800  175.9920  147.3420 C   0  0  0  0  0  3  0  0  0  0  0  0
  192.0320  176.0650  145.9940 O   0  0  0  0  0  1  0  0  0  0  0  0
  1  5  1  0  0  0  0
  2 17  1  1  0  0  0
  3  8  1  0  0  0  0
  4  6  1  0  0  0  0
  4  2  1  0  0  0  0
  5  2  1  0  0  0  0
  7 12  1  0  0  0  0
  8  6  2  0  0  0  0
  9  3  1  0  0  0  0
 10  7  2  0  0  0  0
 11  7  1  0  0  0  0
 11  3  2  0  0  0  0
 12  1  1  0  0  0  0
 12  4  2  0  0  0  0
 13 11  1  0  0  0  0
 14 13  1  0  0  0  0
 16 15  1  0  0  0  0
 16  1  1  0  0  0  0
 18 23  1  1  0  0  0
 19 17  1  6  0  0  0
 19 22  1  0  0  0  0
 19 20  1  0  0  0  0
 20 18  1  0  0  0  0
 21 18  1  0  0  0  0
 22 21  1  0  0  0  0
 23 24  1  0  0  0  0
 24 25  1  0  0  0  0
 27 25  1  0  0  0  0
 27 26  1  0  0  0  0
 28 27  1  0  0  0  0
M  END
>  <MODEL>
7

>  <REMARK>
 VINA RESULT:      -7.0      2.752      8.666
  Name = 
  8 active torsions:
  status: ('A' for Active; 'I' for Inactive)
    1  A    between atoms: N_1  and  C_18
    2  A    between atoms: C_2  and  N_19
    3  A    between atoms: C_4  and  N_20
    4  A    between atoms: C_4  and  C_25
    5  A    between atoms: C_6  and  C_23
    6  A    between atoms: C_8  and  N_19
    7  A    between atoms: O_11  and  C_17
    8  A    between atoms: N_20  and  C_23
                            x       y       z     vdW  Elec       q    Type
                         _______ _______ _______ _____ _____    ______ ____

>  <TORSDO>
F 8

$$$$
=
 OpenBabel10222417253D

 28 30  0  0  1  0  0  0  0  0999 V2000
  189.4750  177.4520  139.8810 N   0  0  0  0  0  0  0  0  0  0  0  0
  189.7470  176.8830  141.9870 C   0  0  1  0  0  3  0  0  0  0  0  0
  185.4650  178.5520  141.7100 C   0  0  0  0  0  0  0  0  0  0  0  0
  188.3800  177.4560  141.8170 C   0  0  0  0  0  0  0  0  0  0  0  0
  190.4440  177.1140  140.7760 O   0  0  0  0  0  0  0  0  0  0  0  0
  187.4630  177.5300  142.8420 C   0  0  0  0  0  3  0  0  0  0  0  0
  187.1580  178.3700  139.8340 C   0  0  0  0  0  0  0  0  0  0  0  0
  186.1780  178.0270  142.7790 C   0  0  0  0  0  3  0  0  0  0  0  0
  184.2000  179.0160  142.0520 O   0  0  0  0  0  1  0  0  0  0  0  0
  187.3340  178.6380  138.6120 O   0  0  0  0  0  0  0  0  0  0  0  0
  185.8860  178.6820  140.3620 C   0  0  0  0  0  0  0  0  0  0  0  0
  188.2470  177.7960  140.5110 C   0  0  0  0  0  0  0  0  0  0  0  0
  184.9810  179.2000  139.4160 O   0  0  0  0  0  0  0  0  0  0  0  0
  183.8630  178.4910  138.8960 C   0  0  0  0  0  1  0  0  0  0  0  0
  190.8090  176.1020  138.3440 C   0  0  0  0  0  1  0  0  0  0  0  0
  189.5200  176.8780  138.5410 C   0  0  0  0  0  2  0  0  0  0  0  0
  190.4430  177.5510  143.0760 N   0  0  0  0  0  2  0  0  0  0  0  0
  190.2010  177.5100  146.5410 C   0  0  2  0  0  3  0  0  0  0  0  0
  190.3340  176.6950  144.2480 C   0  0  2  0  0  3  0  0  0  0  0  0
  189.4040  177.3340  145.2640 C   0  0  0  0  0  2  0  0  0  0  0  0
  191.4160  176.6190  146.4020 C   0  0  0  0  0  2  0  0  0  0  0  0
  191.6890  176.5610  144.9170 C   0  0  0  0  0  2  0  0  0  0  0  0
  189.3640  177.0970  147.7410 C   0  0  0  0  0  2  0  0  0  0  0  0
  188.5170  178.1990  148.1700 N   0  0  0  0  0  2  0  0  0  0  0  0
  187.1390  177.7890  147.9570 C   0  0  0  0  0  2  0  0  0  0  0  0
  186.0310  179.8070  147.3680 O   0  0  0  0  0  1  0  0  0  0  0  0
  186.5210  178.6120  146.8420 C   0  0  0  0  0  3  0  0  0  0  0  0
  185.4760  177.9020  146.2530 O   0  0  0  0  0  1  0  0  0  0  0  0
  1 12  1  0  0  0  0
  1  5  1  0  0  0  0
  2 17  1  1  0  0  0
  3  9  1  0  0  0  0
  3  8  1  0  0  0  0
  4  2  1  0  0  0  0
  4  6  1  0  0  0  0
  5  2  1  0  0  0  0
  7 11  1  0  0  0  0
  7 12  1  0  0  0  0
  8  6  2  0  0  0  0
 10  7  2  0  0  0  0
 11  3  2  0  0  0  0
 12  4  2  0  0  0  0
 13 11  1  0  0  0  0
 14 13  1  0  0  0  0
 15 16  1  0  0  0  0
 16  1  1  0  0  0  0
 18 23  1  1  0  0  0
 19 17  1  6  0  0  0
 19 22  1  0  0  0  0
 19 20  1  0  0  0  0
 20 18  1  0  0  0  0
 21 18  1  0  0  0  0
 22 21  1  0  0  0  0
 23 24  1  0  0  0  0
 25 24  1  0  0  0  0
 27 26  1  0  0  0  0
 27 25  1  0  0  0  0
 28 27  1  0  0  0  0
M  END
>  <MODEL>
8

>  <REMARK>
 VINA RESULT:      -7.0      1.793      6.703
  Name = 
  8 active torsions:
  status: ('A' for Active; 'I' for Inactive)
    1  A    between atoms: N_1  and  C_18
    2  A    between atoms: C_2  and  N_19
    3  A    between atoms: C_4  and  N_20
    4  A    between atoms: C_4  and  C_25
    5  A    between atoms: C_6  and  C_23
    6  A    between atoms: C_8  and  N_19
    7  A    between atoms: O_11  and  C_17
    8  A    between atoms: N_20  and  C_23
                            x       y       z     vdW  Elec       q    Type
                         _______ _______ _______ _____ _____    ______ ____

>  <TORSDO>
F 8

$$$$
=
 OpenBabel10222417253D

 28 30  0  0  1  0  0  0  0  0999 V2000
  187.5830  178.3130  139.4860 N   0  0  0  0  0  0  0  0  0  0  0  0
  188.3480  177.7860  141.4780 C   0  0  1  0  0  3  0  0  0  0  0  0
  183.8890  178.7570  142.0930 C   0  0  0  0  0  0  0  0  0  0  0  0
  186.9030  178.1360  141.5950 C   0  0  0  0  0  0  0  0  0  0  0  0
  188.7490  178.1300  140.1640 O   0  0  0  0  0  0  0  0  0  0  0  0
  186.2050  178.0600  142.7810 C   0  0  0  0  0  3  0  0  0  0  0  0
  185.1880  178.8530  139.9190 C   0  0  0  0  0  0  0  0  0  0  0  0
  184.8710  178.3470  142.9850 C   0  0  0  0  0  3  0  0  0  0  0  0
  182.6610  179.0140  142.6880 O   0  0  0  0  0  1  0  0  0  0  0  0
  185.0770  179.1500  138.6960 O   0  0  0  0  0  0  0  0  0  0  0  0
  184.0130  178.9570  140.6940 C   0  0  0  0  0  0  0  0  0  0  0  0
  186.4640  178.4560  140.3530 C   0  0  0  0  0  0  0  0  0  0  0  0
  182.8710  179.3300  139.9590 O   0  0  0  0  0  0  0  0  0  0  0  0
  181.8820  178.4210  139.4900 C   0  0  0  0  0  1  0  0  0  0  0  0
  188.2510  178.5850  137.1520 C   0  0  0  0  0  1  0  0  0  0  0  0
  187.4520  177.7590  138.1430 C   0  0  0  0  0  2  0  0  0  0  0  0
  189.1330  178.5510  142.4350 N   0  0  0  0  0  2  0  0  0  0  0  0
  189.8960  177.8800  145.7570 C   0  0  2  0  0  3  0  0  0  0  0  0
  189.7600  177.6000  143.3390 C   0  0  2  0  0  3  0  0  0  0  0  0
  188.9580  177.5090  144.6250 C   0  0  0  0  0  2  0  0  0  0  0  0
  191.2950  177.7750  145.1900 C   0  0  0  0  0  2  0  0  0  0  0  0
  191.1460  178.0860  143.7190 C   0  0  0  0  0  2  0  0  0  0  0  0
  189.7120  176.9230  146.9220 C   0  0  0  0  0  2  0  0  0  0  0  0
  188.3010  176.7880  147.2480 N   0  0  0  0  0  2  0  0  0  0  0  0
  187.8460  178.0840  147.7270 C   0  0  0  0  0  2  0  0  0  0  0  0
  186.0450  177.5910  146.2590 O   0  0  0  0  0  1  0  0  0  0  0  0
  186.3650  178.2480  147.4460 C   0  0  0  0  0  3  0  0  0  0  0  0
  186.0540  179.6020  147.3250 O   0  0  0  0  0  1  0  0  0  0  0  0
  1  5  1  0  0  0  0
  1 12  1  0  0  0  0
  2  4  1  0  0  0  0
  2 17  1  1  0  0  0
  3  9  1  0  0  0  0
  3  8  1  0  0  0  0
  4  6  1  0  0  0  0
  5  2  1  0  0  0  0
  6  8  2  0  0  0  0
  7 12  1  0  0  0  0
  7 11  1  0  0  0  0
 10  7  2  0  0  0  0
 11  3  2  0  0  0  0
 12  4  2  0  0  0  0
 13 11  1  0  0  0  0
 14 13  1  0  0  0  0
 15 16  1  0  0  0  0
 16  1  1  0  0  0  0
 18 23  1  1  0  0  0
 19 17  1  6  0  0  0
 19 22  1  0  0  0  0
 19 20  1  0  0  0  0
 20 18  1  0  0  0  0
 21 18  1  0  0  0  0
 22 21  1  0  0  0  0
 23 24  1  0  0  0  0
 24 25  1  0  0  0  0
 26 27  1  0  0  0  0
 27 25  1  0  0  0  0
 28 27  1  0  0  0  0
M  END
>  <MODEL>
9

>  <REMARK>
 VINA RESULT:      -7.0      2.181      6.880
  Name = 
  8 active torsions:
  status: ('A' for Active; 'I' for Inactive)
    1  A    between atoms: N_1  and  C_18
    2  A    between atoms: C_2  and  N_19
    3  A    between atoms: C_4  and  N_20
    4  A    between atoms: C_4  and  C_25
    5  A    between atoms: C_6  and  C_23
    6  A    between atoms: C_8  and  N_19
    7  A    between atoms: O_11  and  C_17
    8  A    between atoms: N_20  and  C_23
                            x       y       z     vdW  Elec       q    Type
                         _______ _______ _______ _____ _____    ______ ____

>  <TORSDO>
F 8

$$$$
