=
 OpenBabel10222415423D

 44 48  0  0  1  0  0  0  0  0999 V2000
  190.0230  177.1110  141.5620 C   0  0  2  0  0  3  0  0  0  0  0  0
  192.0270  177.1320  140.1280 C   0  0  0  0  0  0  0  0  0  0  0  0
  189.0610  175.4600  135.6460 N   0  0  0  0  0  0  0  0  0  0  0  0
  188.5110  177.4260  137.4780 C   0  0  0  0  0  0  0  0  0  0  0  0
  188.3070  176.5320  135.2960 C   0  0  0  0  0  3  0  0  0  0  0  0
  193.4720  177.4380  139.9590 C   0  0  0  0  0  1  0  0  0  0  0  0
  188.0320  177.4990  136.2090 N   0  0  0  0  0  0  0  0  0  0  0  0
  191.3910  177.4490  141.3330 O   0  0  0  0  0  0  0  0  0  0  0  0
  189.3010  176.3210  137.8650 C   0  0  0  0  0  0  0  0  0  0  0  0
  191.3600  176.6160  139.1380 N   0  0  0  0  0  0  0  0  0  0  0  0
  188.1150  178.5000  138.4640 C   0  0  2  0  0  3  0  0  0  0  0  0
  189.0180  178.5400  139.6980 C   0  0  0  0  0  2  0  0  0  0  0  0
  189.9400  176.2600  139.2330 C   0  0  1  0  0  3  0  0  0  0  0  0
  189.5580  175.3280  136.9030 C   0  0  0  0  0  0  0  0  0  0  0  0
  189.2080  177.1320  140.2620 C   0  0  1  0  0  3  0  0  0  0  0  0
  184.3580  178.1160  138.1810 C   0  0  0  0  0  3  0  0  0  0  0  0
  185.7140  178.1720  137.8550 C   0  0  0  0  0  3  0  0  0  0  0  0
  186.6670  178.4080  138.8490 C   0  0  0  0  0  0  0  0  0  0  0  0
  186.2520  178.5960  140.1760 C   0  0  0  0  0  3  0  0  0  0  0  0
  183.9420  178.2800  139.5110 C   0  0  0  0  0  0  0  0  0  0  0  0
  184.8950  178.5410  140.5040 C   0  0  0  0  0  3  0  0  0  0  0  0
  182.6450  175.8890  139.7360 O   0  0  0  0  0  1  0  0  0  0  0  0
  181.6360  177.7740  138.7000 C   0  0  0  0  0  2  0  0  0  0  0  0
  182.4740  178.3270  139.8430 C   0  0  1  0  0  3  0  0  0  0  0  0
  181.7800  176.9620  139.9690 C   0  0  2  0  0  3  0  0  0  0  0  0
  189.4170  177.8110  142.7990 C   0  0  2  0  0  3  0  0  0  0  0  0
  190.4430  178.5930  143.6020 C   0  0  0  0  0  1  0  0  0  0  0  0
  188.5170  176.9740  143.7160 C   0  0  2  0  0  3  0  0  0  0  0  0
  188.2380  175.7200  143.1730 O   0  0  0  0  0  1  0  0  0  0  0  0
  187.2520  177.6960  144.0450 C   0  0  0  0  0  3  0  0  0  0  0  0
  186.7760  177.6840  145.2870 C   0  0  0  0  0  3  0  0  0  0  0  0
  185.5080  178.4020  145.6060 C   0  0  0  0  0  2  0  0  0  0  0  0
  184.8840  178.9530  144.3370 C   0  0  0  0  0  2  0  0  0  0  0  0
  183.4270  179.3040  144.5780 C   0  0  0  0  0  2  0  0  0  0  0  0
  182.5750  178.8560  143.4070 C   0  0  0  0  0  2  0  0  0  0  0  0
  181.2390  178.7510  143.8020 O   0  0  0  0  0  0  0  0  0  0  0  0
  180.5610  179.6600  142.9900 C   0  0  0  0  0  1  0  0  0  0  0  0
  190.3800  174.1220  137.2370 C   0  0  0  0  0  2  0  0  0  0  0  0
  191.4900  173.9180  136.2140 C   0  0  0  0  0  2  0  0  0  0  0  0
  192.6130  174.8000  136.5050 N   0  0  0  0  0  2  0  0  0  0  0  0
  194.7420  174.5260  137.7400 C   0  0  0  0  0  0  0  0  0  0  0  0
  195.3320  175.4120  137.0060 N   0  0  0  0  0  2  0  0  0  0  0  0
  195.4810  173.8850  138.8570 C   0  0  0  0  0  1  0  0  0  0  0  0
  193.3620  174.2110  137.5360 N   0  0  0  0  0  2  0  0  0  0  0  0
  1 26  1  1  0  0  0
  2  8  1  0  0  0  0
  3 14  1  0  0  0  0
  4  9  1  0  0  0  0
  4 11  1  0  0  0  0
  5  3  2  0  0  0  0
  5  7  1  0  0  0  0
  6  2  1  0  0  0  0
  7  4  2  0  0  0  0
  8  1  1  0  0  0  0
 10 13  1  0  0  0  0
 10  2  2  0  0  0  0
 11 18  1  1  0  0  0
 11 12  1  0  0  0  0
 13  9  1  6  0  0  0
 13 15  1  0  0  0  0
 14 38  1  0  0  0  0
 14  9  2  0  0  0  0
 15 12  1  6  0  0  0
 15  1  1  0  0  0  0
 16 20  1  0  0  0  0
 17 16  2  0  0  0  0
 17 18  1  0  0  0  0
 18 19  2  0  0  0  0
 19 21  1  0  0  0  0
 20 21  2  0  0  0  0
 23 24  1  0  0  0  0
 23 25  1  0  0  0  0
 24 20  1  6  0  0  0
 24 25  1  0  0  0  0
 25 22  1  6  0  0  0
 26 27  1  1  0  0  0
 26 28  1  0  0  0  0
 28 29  1  6  0  0  0
 28 30  1  0  0  0  0
 30 31  2  0  0  0  0
 31 32  1  0  0  0  0
 33 34  1  0  0  0  0
 33 32  1  0  0  0  0
 35 36  1  0  0  0  0
 35 34  1  0  0  0  0
 37 36  1  0  0  0  0
 39 40  1  0  0  0  0
 39 38  1  0  0  0  0
 40 44  1  0  0  0  0
 41 43  1  0  0  0  0
 42 41  2  0  0  0  0
 44 41  1  0  0  0  0
M  END
>  <MODEL>
1

>  <REMARK>
 VINA RESULT:      -7.8      0.000      0.000
  Name = 
  14 active torsions:
  status: ('A' for Active; 'I' for Inactive)
    1  A    between atoms: C_2  and  C_31
    2  A    between atoms: C_4  and  O_27
    3  A    between atoms: C_4  and  C_36
    4  A    between atoms: C_8  and  C_23
    5  A    between atoms: C_8  and  N_42
    6  A    between atoms: C_11  and  C_34
    7  A    between atoms: C_11  and  C_38
    8  A    between atoms: C_12  and  C_13
    9  A    between atoms: C_12  and  C_31
   10  A    between atoms: C_23  and  C_41
   11  A    between atoms: C_24  and  C_26
   12  A    between atoms: N_29  and  N_42
   13  A    between atoms: C_30  and  C_33
   14  A    between atoms: C_34  and  C_36
                            x       y       z     vdW  Elec       q    Type
                         _______ _______ _______ _____ _____    ______ ____

>  <TORSDO>
F 14

$$$$
=
 OpenBabel10222415423D

 44 48  0  0  1  0  0  0  0  0999 V2000
  189.7990  177.1580  141.1220 C   0  0  2  0  0  3  0  0  0  0  0  0
  191.9110  177.0960  139.8530 C   0  0  0  0  0  0  0  0  0  0  0  0
  189.3370  174.9730  135.3200 N   0  0  0  0  0  0  0  0  0  0  0  0
  188.6140  177.0790  136.9200 C   0  0  0  0  0  0  0  0  0  0  0  0
  188.5980  175.9930  134.8180 C   0  0  0  0  0  3  0  0  0  0  0  0
  193.3600  177.4170  139.7710 C   0  0  0  0  0  1  0  0  0  0  0  0
  188.2370  177.0300  135.6160 N   0  0  0  0  0  0  0  0  0  0  0  0
  191.1760  177.5040  140.9720 O   0  0  0  0  0  0  0  0  0  0  0  0
  189.3860  176.0310  137.4650 C   0  0  0  0  0  0  0  0  0  0  0  0
  191.3330  176.4800  138.8640 N   0  0  0  0  0  0  0  0  0  0  0  0
  188.1250  178.2270  137.7720 C   0  0  2  0  0  3  0  0  0  0  0  0
  188.9260  178.3950  139.0650 C   0  0  0  0  0  2  0  0  0  0  0  0
  189.9150  176.1030  138.8790 C   0  0  1  0  0  3  0  0  0  0  0  0
  189.7340  174.9620  136.6190 C   0  0  0  0  0  0  0  0  0  0  0  0
  189.0900  177.0470  139.7650 C   0  0  1  0  0  3  0  0  0  0  0  0
  184.4280  177.5710  137.2800 C   0  0  0  0  0  3  0  0  0  0  0  0
  185.8050  177.6320  137.0600 C   0  0  0  0  0  3  0  0  0  0  0  0
  186.6520  178.1380  138.0490 C   0  0  0  0  0  0  0  0  0  0  0  0
  186.1100  178.5920  139.2620 C   0  0  0  0  0  3  0  0  0  0  0  0
  183.8850  178.0010  138.5000 C   0  0  0  0  0  0  0  0  0  0  0  0
  184.7310  178.5320  139.4820 C   0  0  0  0  0  3  0  0  0  0  0  0
  182.7200  175.7660  139.5470 O   0  0  0  0  0  1  0  0  0  0  0  0
  181.7010  177.0140  137.8010 C   0  0  0  0  0  2  0  0  0  0  0  0
  182.3920  178.0340  138.6920 C   0  0  1  0  0  3  0  0  0  0  0  0
  181.7730  176.7620  139.2910 C   0  0  2  0  0  3  0  0  0  0  0  0
  189.0860  177.9510  142.2410 C   0  0  2  0  0  3  0  0  0  0  0  0
  190.0470  178.5170  143.2720 C   0  0  0  0  0  1  0  0  0  0  0  0
  187.8750  177.2930  142.9130 C   0  0  2  0  0  3  0  0  0  0  0  0
  186.7200  178.0640  142.7790 O   0  0  0  0  0  1  0  0  0  0  0  0
  188.1440  176.9980  144.3520 C   0  0  0  0  0  3  0  0  0  0  0  0
  187.4120  177.5710  145.3030 C   0  0  0  0  0  3  0  0  0  0  0  0
  187.6910  177.2760  146.7380 C   0  0  0  0  0  2  0  0  0  0  0  0
  189.0290  177.8660  147.1440 C   0  0  0  0  0  2  0  0  0  0  0  0
  190.0520  176.7610  147.3390 C   0  0  0  0  0  2  0  0  0  0  0  0
  191.2390  176.9730  146.4190 C   0  0  0  0  0  2  0  0  0  0  0  0
  192.0690  175.8500  146.4470 O   0  0  0  0  0  0  0  0  0  0  0  0
  192.4330  175.7160  147.7870 C   0  0  0  0  0  1  0  0  0  0  0  0
  190.5440  173.8080  137.1230 C   0  0  0  0  0  2  0  0  0  0  0  0
  191.7340  173.5380  136.2120 C   0  0  0  0  0  2  0  0  0  0  0  0
  192.7890  174.5140  136.4570 N   0  0  0  0  0  2  0  0  0  0  0  0
  194.8530  174.5460  137.8250 C   0  0  0  0  0  0  0  0  0  0  0  0
  195.3940  175.4430  137.0670 N   0  0  0  0  0  2  0  0  0  0  0  0
  195.5830  174.0580  139.0230 C   0  0  0  0  0  1  0  0  0  0  0  0
  193.5290  174.0730  137.5660 N   0  0  0  0  0  2  0  0  0  0  0  0
  1 26  1  1  0  0  0
  2  8  1  0  0  0  0
  3 14  1  0  0  0  0
  4  9  1  0  0  0  0
  4 11  1  0  0  0  0
  5  3  2  0  0  0  0
  5  7  1  0  0  0  0
  6  2  1  0  0  0  0
  7  4  2  0  0  0  0
  8  1  1  0  0  0  0
 10 13  1  0  0  0  0
 10  2  2  0  0  0  0
 11 18  1  1  0  0  0
 11 12  1  0  0  0  0
 13  9  1  6  0  0  0
 13 15  1  0  0  0  0
 14 38  1  0  0  0  0
 14  9  2  0  0  0  0
 15 12  1  6  0  0  0
 15  1  1  0  0  0  0
 16 20  1  0  0  0  0
 17 16  2  0  0  0  0
 17 18  1  0  0  0  0
 18 19  2  0  0  0  0
 19 21  1  0  0  0  0
 20 21  2  0  0  0  0
 23 24  1  0  0  0  0
 23 25  1  0  0  0  0
 24 20  1  6  0  0  0
 24 25  1  0  0  0  0
 25 22  1  6  0  0  0
 26 28  1  0  0  0  0
 26 27  1  1  0  0  0
 28 29  1  1  0  0  0
 28 30  1  0  0  0  0
 30 31  2  0  0  0  0
 31 32  1  0  0  0  0
 32 33  1  0  0  0  0
 33 34  1  0  0  0  0
 35 36  1  0  0  0  0
 35 34  1  0  0  0  0
 36 37  1  0  0  0  0
 39 40  1  0  0  0  0
 39 38  1  0  0  0  0
 40 44  1  0  0  0  0
 41 43  1  0  0  0  0
 42 41  2  0  0  0  0
 44 41  1  0  0  0  0
M  END
>  <MODEL>
2

>  <REMARK>
 VINA RESULT:      -7.8      1.714      3.429
  Name = 
  14 active torsions:
  status: ('A' for Active; 'I' for Inactive)
    1  A    between atoms: C_2  and  C_31
    2  A    between atoms: C_4  and  O_27
    3  A    between atoms: C_4  and  C_36
    4  A    between atoms: C_8  and  C_23
    5  A    between atoms: C_8  and  N_42
    6  A    between atoms: C_11  and  C_34
    7  A    between atoms: C_11  and  C_38
    8  A    between atoms: C_12  and  C_13
    9  A    between atoms: C_12  and  C_31
   10  A    between atoms: C_23  and  C_41
   11  A    between atoms: C_24  and  C_26
   12  A    between atoms: N_29  and  N_42
   13  A    between atoms: C_30  and  C_33
   14  A    between atoms: C_34  and  C_36
                            x       y       z     vdW  Elec       q    Type
                         _______ _______ _______ _____ _____    ______ ____

>  <TORSDO>
F 14

$$$$
=
 OpenBabel10222415423D

 44 48  0  0  1  0  0  0  0  0999 V2000
  190.0020  177.0910  141.1440 C   0  0  2  0  0  3  0  0  0  0  0  0
  192.1230  177.1260  139.8900 C   0  0  0  0  0  0  0  0  0  0  0  0
  189.6120  175.2000  135.2350 N   0  0  0  0  0  0  0  0  0  0  0  0
  188.8450  177.2100  136.9360 C   0  0  0  0  0  0  0  0  0  0  0  0
  188.8600  176.2330  134.7810 C   0  0  0  0  0  3  0  0  0  0  0  0
  193.5670  177.4720  139.8350 C   0  0  0  0  0  1  0  0  0  0  0  0
  188.4780  177.2220  135.6280 N   0  0  0  0  0  0  0  0  0  0  0  0
  191.3740  177.4650  141.0220 O   0  0  0  0  0  0  0  0  0  0  0  0
  189.6310  176.1470  137.4320 C   0  0  0  0  0  0  0  0  0  0  0  0
  191.5610  176.5530  138.8660 N   0  0  0  0  0  0  0  0  0  0  0  0
  188.3340  178.3060  137.8410 C   0  0  2  0  0  3  0  0  0  0  0  0
  189.1240  178.4190  139.1470 C   0  0  0  0  0  2  0  0  0  0  0  0
  190.1490  176.1550  138.8510 C   0  0  1  0  0  3  0  0  0  0  0  0
  190.0000  175.1280  136.5350 C   0  0  0  0  0  0  0  0  0  0  0  0
  189.3040  177.0400  139.7790 C   0  0  1  0  0  3  0  0  0  0  0  0
  184.9920  178.4560  139.6180 C   0  0  0  0  0  3  0  0  0  0  0  0
  186.3530  178.5940  139.3370 C   0  0  0  0  0  3  0  0  0  0  0  0
  186.8610  178.1810  138.1030 C   0  0  0  0  0  0  0  0  0  0  0  0
  185.9960  177.6200  137.1500 C   0  0  0  0  0  3  0  0  0  0  0  0
  184.1220  177.9190  138.6590 C   0  0  0  0  0  0  0  0  0  0  0  0
  184.6340  177.4810  137.4310 C   0  0  0  0  0  3  0  0  0  0  0  0
  182.3860  179.9900  138.2790 O   0  0  0  0  0  1  0  0  0  0  0  0
  182.2330  178.5510  140.1640 C   0  0  0  0  0  2  0  0  0  0  0  0
  182.6770  177.6720  139.0040 C   0  0  1  0  0  3  0  0  0  0  0  0
  181.7290  178.8570  138.7700 C   0  0  2  0  0  3  0  0  0  0  0  0
  189.2690  177.8150  142.2970 C   0  0  2  0  0  3  0  0  0  0  0  0
  190.2180  178.3960  143.3310 C   0  0  0  0  0  1  0  0  0  0  0  0
  188.1030  177.0800  142.9660 C   0  0  2  0  0  3  0  0  0  0  0  0
  186.8810  177.7120  142.7290 O   0  0  0  0  0  1  0  0  0  0  0  0
  188.3320  176.9150  144.4320 C   0  0  0  0  0  3  0  0  0  0  0  0
  187.8470  177.8060  145.2930 C   0  0  0  0  0  3  0  0  0  0  0  0
  188.0860  177.6370  146.7550 C   0  0  0  0  0  2  0  0  0  0  0  0
  186.9610  178.2800  147.5460 C   0  0  0  0  0  2  0  0  0  0  0  0
  186.0090  179.0040  146.6110 C   0  0  0  0  0  2  0  0  0  0  0  0
  184.6660  178.3010  146.5780 C   0  0  0  0  0  2  0  0  0  0  0  0
  183.7680  179.0260  145.7920 O   0  0  0  0  0  0  0  0  0  0  0  0
  184.4840  179.3350  144.6360 C   0  0  0  0  0  1  0  0  0  0  0  0
  190.8240  173.9620  136.9850 C   0  0  0  0  0  2  0  0  0  0  0  0
  192.1320  173.8860  136.2070 C   0  0  0  0  0  2  0  0  0  0  0  0
  193.2640  174.0850  137.1030 N   0  0  0  0  0  2  0  0  0  0  0  0
  194.8900  175.5820  135.9850 C   0  0  0  0  0  0  0  0  0  0  0  0
  194.3120  176.6360  136.4610 N   0  0  0  0  0  2  0  0  0  0  0  0
  196.1140  175.7230  135.1570 C   0  0  0  0  0  1  0  0  0  0  0  0
  194.4070  174.2750  136.3110 N   0  0  0  0  0  2  0  0  0  0  0  0
  1 26  1  1  0  0  0
  2  8  1  0  0  0  0
  3 14  1  0  0  0  0
  4  9  1  0  0  0  0
  4 11  1  0  0  0  0
  5  3  2  0  0  0  0
  5  7  1  0  0  0  0
  6  2  1  0  0  0  0
  7  4  2  0  0  0  0
  8  1  1  0  0  0  0
 10  2  2  0  0  0  0
 11 18  1  1  0  0  0
 11 12  1  0  0  0  0
 13  9  1  6  0  0  0
 13 10  1  0  0  0  0
 13 15  1  0  0  0  0
 14 38  1  0  0  0  0
 14  9  2  0  0  0  0
 15 12  1  6  0  0  0
 15  1  1  0  0  0  0
 17 16  1  0  0  0  0
 18 17  2  0  0  0  0
 19 21  2  0  0  0  0
 19 18  1  0  0  0  0
 20 16  2  0  0  0  0
 21 20  1  0  0  0  0
 24 20  1  6  0  0  0
 24 23  1  0  0  0  0
 25 22  1  6  0  0  0
 25 24  1  0  0  0  0
 25 23  1  0  0  0  0
 26 28  1  0  0  0  0
 26 27  1  1  0  0  0
 28 29  1  1  0  0  0
 28 30  1  0  0  0  0
 30 31  2  0  0  0  0
 31 32  1  0  0  0  0
 32 33  1  0  0  0  0
 34 33  1  0  0  0  0
 35 34  1  0  0  0  0
 36 35  1  0  0  0  0
 37 36  1  0  0  0  0
 39 38  1  0  0  0  0
 39 40  1  0  0  0  0
 41 44  1  0  0  0  0
 41 42  2  0  0  0  0
 43 41  1  0  0  0  0
 44 40  1  0  0  0  0
M  END
>  <MODEL>
3

>  <REMARK>
 VINA RESULT:      -7.3      1.453      2.011
  Name = 
  14 active torsions:
  status: ('A' for Active; 'I' for Inactive)
    1  A    between atoms: C_2  and  C_31
    2  A    between atoms: C_4  and  O_27
    3  A    between atoms: C_4  and  C_36
    4  A    between atoms: C_8  and  C_23
    5  A    between atoms: C_8  and  N_42
    6  A    between atoms: C_11  and  C_34
    7  A    between atoms: C_11  and  C_38
    8  A    between atoms: C_12  and  C_13
    9  A    between atoms: C_12  and  C_31
   10  A    between atoms: C_23  and  C_41
   11  A    between atoms: C_24  and  C_26
   12  A    between atoms: N_29  and  N_42
   13  A    between atoms: C_30  and  C_33
   14  A    between atoms: C_34  and  C_36
                            x       y       z     vdW  Elec       q    Type
                         _______ _______ _______ _____ _____    ______ ____

>  <TORSDO>
F 14

$$$$
=
 OpenBabel10222415423D

 44 48  0  0  1  0  0  0  0  0999 V2000
  183.1640  179.1930  142.7480 C   0  0  2  0  0  3  0  0  0  0  0  0
  180.8110  178.6940  143.2880 C   0  0  0  0  0  0  0  0  0  0  0  0
  179.2870  179.1370  137.8880 N   0  0  0  0  0  0  0  0  0  0  0  0
  181.3990  177.7920  139.0090 C   0  0  0  0  0  0  0  0  0  0  0  0
  179.8010  178.0390  137.2800 C   0  0  0  0  0  3  0  0  0  0  0  0
  179.7880  178.3000  144.2920 C   0  0  0  0  0  1  0  0  0  0  0  0
  180.8500  177.3810  137.8350 N   0  0  0  0  0  0  0  0  0  0  0  0
  182.1580  178.7540  143.6620 O   0  0  0  0  0  0  0  0  0  0  0  0
  180.8790  178.9310  139.6620 C   0  0  0  0  0  0  0  0  0  0  0  0
  180.4480  178.9330  142.0620 N   0  0  0  0  0  0  0  0  0  0  0  0
  182.6050  177.0560  139.5410 C   0  0  2  0  0  3  0  0  0  0  0  0
  182.8690  177.3340  141.0220 C   0  0  0  0  0  2  0  0  0  0  0  0
  181.3910  179.3530  141.0200 C   0  0  1  0  0  3  0  0  0  0  0  0
  179.8010  179.6020  139.0560 C   0  0  0  0  0  0  0  0  0  0  0  0
  182.8090  178.8350  141.2990 C   0  0  1  0  0  3  0  0  0  0  0  0
  185.3670  176.5490  136.9990 C   0  0  0  0  0  3  0  0  0  0  0  0
  184.2120  176.3560  137.7590 C   0  0  0  0  0  3  0  0  0  0  0  0
  183.8310  177.3060  138.7110 C   0  0  0  0  0  0  0  0  0  0  0  0
  184.6210  178.4500  138.9040 C   0  0  0  0  0  3  0  0  0  0  0  0
  186.1450  177.7030  137.1720 C   0  0  0  0  0  0  0  0  0  0  0  0
  185.7780  178.6430  138.1440 C   0  0  0  0  0  3  0  0  0  0  0  0
  188.3780  176.6740  138.3570 O   0  0  0  0  0  1  0  0  0  0  0  0
  188.4130  178.7460  137.1940 C   0  0  0  0  0  2  0  0  0  0  0  0
  187.4450  177.8560  136.4290 C   0  0  1  0  0  3  0  0  0  0  0  0
  188.6780  177.2580  137.1230 C   0  0  2  0  0  3  0  0  0  0  0  0
  184.6020  178.8950  143.2290 C   0  0  2  0  0  3  0  0  0  0  0  0
  185.4220  178.1270  142.2060 C   0  0  0  0  0  1  0  0  0  0  0  0
  184.7710  178.3030  144.6320 C   0  0  2  0  0  3  0  0  0  0  0  0
  184.3570  179.1890  145.6280 O   0  0  0  0  0  1  0  0  0  0  0  0
  186.1780  177.8640  144.8740 C   0  0  0  0  0  3  0  0  0  0  0  0
  186.7250  177.9950  146.0790 C   0  0  0  0  0  3  0  0  0  0  0  0
  188.1330  177.5600  146.3100 C   0  0  0  0  0  2  0  0  0  0  0  0
  188.8250  177.3000  144.9840 C   0  0  0  0  0  2  0  0  0  0  0  0
  190.0730  178.1560  144.8670 C   0  0  0  0  0  2  0  0  0  0  0  0
  191.2260  177.3360  144.3210 C   0  0  0  0  0  2  0  0  0  0  0  0
  191.8480  178.0250  143.2770 O   0  0  0  0  0  0  0  0  0  0  0  0
  191.3830  177.4020  142.1200 C   0  0  0  0  0  1  0  0  0  0  0  0
  179.2000  180.8220  139.6820 C   0  0  0  0  0  2  0  0  0  0  0  0
  179.1150  181.9640  138.6770 C   0  0  0  0  0  2  0  0  0  0  0  0
  180.4500  182.3470  138.2350 N   0  0  0  0  0  2  0  0  0  0  0  0
  181.0780  184.0890  136.5910 C   0  0  0  0  0  0  0  0  0  0  0  0
  181.9400  184.6080  137.4040 N   0  0  0  0  0  2  0  0  0  0  0  0
  180.9220  184.6540  135.2260 C   0  0  0  0  0  1  0  0  0  0  0  0
  180.3280  182.9300  136.9640 N   0  0  0  0  0  2  0  0  0  0  0  0
  1 26  1  1  0  0  0
  1  8  1  0  0  0  0
  2  8  1  0  0  0  0
  2  6  1  0  0  0  0
  3 14  1  0  0  0  0
  4 11  1  0  0  0  0
  4  9  1  0  0  0  0
  5  7  1  0  0  0  0
  5  3  2  0  0  0  0
  7  4  2  0  0  0  0
 10  2  2  0  0  0  0
 11 18  1  6  0  0  0
 11 12  1  0  0  0  0
 13  9  1  6  0  0  0
 13 15  1  0  0  0  0
 13 10  1  0  0  0  0
 14  9  2  0  0  0  0
 14 38  1  0  0  0  0
 15 12  1  1  0  0  0
 15  1  1  0  0  0  0
 16 20  2  0  0  0  0
 16 17  1  0  0  0  0
 17 18  2  0  0  0  0
 18 19  1  0  0  0  0
 20 21  1  0  0  0  0
 21 19  2  0  0  0  0
 24 25  1  0  0  0  0
 24 20  1  1  0  0  0
 24 23  1  0  0  0  0
 25 23  1  0  0  0  0
 25 22  1  1  0  0  0
 26 27  1  6  0  0  0
 26 28  1  0  0  0  0
 28 30  1  0  0  0  0
 28 29  1  1  0  0  0
 30 31  2  0  0  0  0
 31 32  1  0  0  0  0
 33 32  1  0  0  0  0
 34 33  1  0  0  0  0
 35 34  1  0  0  0  0
 36 35  1  0  0  0  0
 37 36  1  0  0  0  0
 39 38  1  0  0  0  0
 40 39  1  0  0  0  0
 41 44  1  0  0  0  0
 41 42  2  0  0  0  0
 43 41  1  0  0  0  0
 44 40  1  0  0  0  0
M  END
>  <MODEL>
4

>  <REMARK>
 VINA RESULT:      -7.1      4.789      9.263
  Name = 
  14 active torsions:
  status: ('A' for Active; 'I' for Inactive)
    1  A    between atoms: C_2  and  C_31
    2  A    between atoms: C_4  and  O_27
    3  A    between atoms: C_4  and  C_36
    4  A    between atoms: C_8  and  C_23
    5  A    between atoms: C_8  and  N_42
    6  A    between atoms: C_11  and  C_34
    7  A    between atoms: C_11  and  C_38
    8  A    between atoms: C_12  and  C_13
    9  A    between atoms: C_12  and  C_31
   10  A    between atoms: C_23  and  C_41
   11  A    between atoms: C_24  and  C_26
   12  A    between atoms: N_29  and  N_42
   13  A    between atoms: C_30  and  C_33
   14  A    between atoms: C_34  and  C_36
                            x       y       z     vdW  Elec       q    Type
                         _______ _______ _______ _____ _____    ______ ____

>  <TORSDO>
F 14

$$$$
=
 OpenBabel10222415423D

 44 48  0  0  1  0  0  0  0  0999 V2000
  182.9770  178.9230  141.5510 C   0  0  2  0  0  3  0  0  0  0  0  0
  180.5260  178.7130  141.4020 C   0  0  0  0  0  0  0  0  0  0  0  0
  180.6340  179.3050  135.8050 N   0  0  0  0  0  0  0  0  0  0  0  0
  182.1760  177.7220  137.4300 C   0  0  0  0  0  0  0  0  0  0  0  0
  181.1650  178.1500  135.3340 C   0  0  0  0  0  3  0  0  0  0  0  0
  179.2250  178.4520  142.0710 C   0  0  0  0  0  1  0  0  0  0  0  0
  181.9320  177.3730  136.1400 N   0  0  0  0  0  0  0  0  0  0  0  0
  181.7130  178.6130  142.1370 O   0  0  0  0  0  0  0  0  0  0  0  0
  181.6310  178.9190  137.9450 C   0  0  0  0  0  0  0  0  0  0  0  0
  180.5510  178.9870  140.1300 N   0  0  0  0  0  0  0  0  0  0  0  0
  183.0910  176.8490  138.2560 C   0  0  2  0  0  3  0  0  0  0  0  0
  182.9610  177.1020  139.7600 C   0  0  0  0  0  2  0  0  0  0  0  0
  181.7890  179.2850  139.4030 C   0  0  1  0  0  3  0  0  0  0  0  0
  180.8520  179.7110  137.0830 C   0  0  0  0  0  0  0  0  0  0  0  0
  183.0020  178.6010  140.0510 C   0  0  1  0  0  3  0  0  0  0  0  0
  186.5020  175.8520  136.9470 C   0  0  0  0  0  3  0  0  0  0  0  0
  185.1630  175.7970  137.3380 C   0  0  0  0  0  3  0  0  0  0  0  0
  184.5200  176.9450  137.8070 C   0  0  0  0  0  0  0  0  0  0  0  0
  185.2310  178.1530  137.8910 C   0  0  0  0  0  3  0  0  0  0  0  0
  187.2080  177.0630  137.0060 C   0  0  0  0  0  0  0  0  0  0  0  0
  186.5720  178.2080  137.5010 C   0  0  0  0  0  3  0  0  0  0  0  0
  188.9370  176.9590  139.1150 O   0  0  0  0  0  1  0  0  0  0  0  0
  189.3310  178.3560  137.2340 C   0  0  0  0  0  2  0  0  0  0  0  0
  188.6790  177.0950  136.6870 C   0  0  1  0  0  3  0  0  0  0  0  0
  189.6210  177.0270  137.8980 C   0  0  2  0  0  3  0  0  0  0  0  0
  184.1790  178.4570  142.4040 C   0  0  2  0  0  3  0  0  0  0  0  0
  183.9030  178.5070  143.8970 C   0  0  0  0  0  1  0  0  0  0  0  0
  185.5540  179.0490  142.0740 C   0  0  2  0  0  3  0  0  0  0  0  0
  185.5510  179.7330  140.8570 O   0  0  0  0  0  1  0  0  0  0  0  0
  186.6160  178.0000  142.0830 C   0  0  0  0  0  3  0  0  0  0  0  0
  187.0940  177.5380  143.2350 C   0  0  0  0  0  3  0  0  0  0  0  0
  188.1600  176.4940  143.2350 C   0  0  0  0  0  2  0  0  0  0  0  0
  189.2060  176.8140  144.2880 C   0  0  0  0  0  2  0  0  0  0  0  0
  188.6610  177.8290  145.2770 C   0  0  0  0  0  2  0  0  0  0  0  0
  189.0790  177.4680  146.6890 C   0  0  0  0  0  2  0  0  0  0  0  0
  187.9540  177.1410  147.4490 O   0  0  0  0  0  0  0  0  0  0  0  0
  186.9890  178.0740  147.0670 C   0  0  0  0  0  1  0  0  0  0  0  0
  180.2470  180.9990  137.5500 C   0  0  0  0  0  2  0  0  0  0  0  0
  179.2120  181.5070  136.5560 C   0  0  0  0  0  2  0  0  0  0  0  0
  179.1450  182.9630  136.5970 N   0  0  0  0  0  2  0  0  0  0  0  0
  181.2090  184.2880  136.9400 C   0  0  0  0  0  0  0  0  0  0  0  0
  181.1760  184.7340  135.7270 N   0  0  0  0  0  2  0  0  0  0  0  0
  182.2750  184.7480  137.8650 C   0  0  0  0  0  1  0  0  0  0  0  0
  180.1850  183.4150  137.4240 N   0  0  0  0  0  2  0  0  0  0  0  0
  1  8  1  0  0  0  0
  1 26  1  1  0  0  0
  2  6  1  0  0  0  0
  2  8  1  0  0  0  0
  3 14  1  0  0  0  0
  4  9  1  0  0  0  0
  4 11  1  0  0  0  0
  5  3  2  0  0  0  0
  5  7  1  0  0  0  0
  7  4  2  0  0  0  0
 10  2  2  0  0  0  0
 11 18  1  6  0  0  0
 11 12  1  0  0  0  0
 13  9  1  6  0  0  0
 13 15  1  0  0  0  0
 13 10  1  0  0  0  0
 14 38  1  0  0  0  0
 14  9  2  0  0  0  0
 15 12  1  1  0  0  0
 15  1  1  0  0  0  0
 16 20  2  0  0  0  0
 16 17  1  0  0  0  0
 17 18  2  0  0  0  0
 18 19  1  0  0  0  0
 20 21  1  0  0  0  0
 21 19  2  0  0  0  0
 23 25  1  0  0  0  0
 24 20  1  1  0  0  0
 24 23  1  0  0  0  0
 24 25  1  0  0  0  0
 25 22  1  1  0  0  0
 26 27  1  1  0  0  0
 28 29  1  6  0  0  0
 28 30  1  0  0  0  0
 28 26  1  0  0  0  0
 30 31  2  0  0  0  0
 32 31  1  0  0  0  0
 32 33  1  0  0  0  0
 33 34  1  0  0  0  0
 34 35  1  0  0  0  0
 35 36  1  0  0  0  0
 37 36  1  0  0  0  0
 39 40  1  0  0  0  0
 39 38  1  0  0  0  0
 40 44  1  0  0  0  0
 41 44  1  0  0  0  0
 41 43  1  0  0  0  0
 42 41  2  0  0  0  0
M  END
>  <MODEL>
5

>  <REMARK>
 VINA RESULT:      -7.1      4.498      8.988
  Name = 
  14 active torsions:
  status: ('A' for Active; 'I' for Inactive)
    1  A    between atoms: C_2  and  C_31
    2  A    between atoms: C_4  and  O_27
    3  A    between atoms: C_4  and  C_36
    4  A    between atoms: C_8  and  C_23
    5  A    between atoms: C_8  and  N_42
    6  A    between atoms: C_11  and  C_34
    7  A    between atoms: C_11  and  C_38
    8  A    between atoms: C_12  and  C_13
    9  A    between atoms: C_12  and  C_31
   10  A    between atoms: C_23  and  C_41
   11  A    between atoms: C_24  and  C_26
   12  A    between atoms: N_29  and  N_42
   13  A    between atoms: C_30  and  C_33
   14  A    between atoms: C_34  and  C_36
                            x       y       z     vdW  Elec       q    Type
                         _______ _______ _______ _____ _____    ______ ____

>  <TORSDO>
F 14

$$$$
=
 OpenBabel10222415423D

 44 48  0  0  1  0  0  0  0  0999 V2000
  190.1300  176.8740  141.0780 C   0  0  2  0  0  3  0  0  0  0  0  0
  192.1210  177.1300  139.6490 C   0  0  0  0  0  0  0  0  0  0  0  0
  189.1610  175.9680  135.0040 N   0  0  0  0  0  0  0  0  0  0  0  0
  188.5760  177.6680  137.0750 C   0  0  0  0  0  0  0  0  0  0  0  0
  188.3770  177.0550  134.7980 C   0  0  0  0  0  3  0  0  0  0  0  0
  193.5560  177.4920  139.5130 C   0  0  0  0  0  1  0  0  0  0  0  0
  188.0850  177.8900  135.8280 N   0  0  0  0  0  0  0  0  0  0  0  0
  191.4870  177.2740  140.8880 O   0  0  0  0  0  0  0  0  0  0  0  0
  189.3970  176.5440  137.3140 C   0  0  0  0  0  0  0  0  0  0  0  0
  191.4590  176.7270  138.6030 N   0  0  0  0  0  0  0  0  0  0  0  0
  188.1620  178.5970  138.1920 C   0  0  2  0  0  3  0  0  0  0  0  0
  189.0740  178.5020  139.4170 C   0  0  0  0  0  2  0  0  0  0  0  0
  190.0490  176.3250  138.6600 C   0  0  1  0  0  3  0  0  0  0  0  0
  189.6710  175.6890  136.2320 C   0  0  0  0  0  0  0  0  0  0  0  0
  189.3030  177.0400  139.7950 C   0  0  1  0  0  3  0  0  0  0  0  0
  184.9730  178.6110  140.2350 C   0  0  0  0  0  3  0  0  0  0  0  0
  186.3010  178.7980  139.8480 C   0  0  0  0  0  3  0  0  0  0  0  0
  186.7200  178.4190  138.5700 C   0  0  0  0  0  0  0  0  0  0  0  0
  185.8000  177.8430  137.6800 C   0  0  0  0  0  3  0  0  0  0  0  0
  184.0450  178.0580  139.3400 C   0  0  0  0  0  0  0  0  0  0  0  0
  184.4700  177.6550  138.0680 C   0  0  0  0  0  3  0  0  0  0  0  0
  182.2060  180.0590  139.0900 O   0  0  0  0  0  1  0  0  0  0  0  0
  182.2550  178.6260  140.9850 C   0  0  0  0  0  2  0  0  0  0  0  0
  182.6420  177.7580  139.7970 C   0  0  1  0  0  3  0  0  0  0  0  0
  181.6340  178.9050  139.6330 C   0  0  2  0  0  3  0  0  0  0  0  0
  189.5160  177.3940  142.3980 C   0  0  2  0  0  3  0  0  0  0  0  0
  190.2910  178.5560  142.9960 C   0  0  0  0  0  1  0  0  0  0  0  0
  189.1580  176.3580  143.4690 C   0  0  2  0  0  3  0  0  0  0  0  0
  187.9280  175.7480  143.2160 O   0  0  0  0  0  1  0  0  0  0  0  0
  189.1740  176.9580  144.8360 C   0  0  0  0  0  3  0  0  0  0  0  0
  188.0630  177.4710  145.3570 C   0  0  0  0  0  3  0  0  0  0  0  0
  188.0880  178.0750  146.7210 C   0  0  0  0  0  2  0  0  0  0  0  0
  186.6730  178.2960  147.2220 C   0  0  0  0  0  2  0  0  0  0  0  0
  185.6700  177.8060  146.1930 C   0  0  0  0  0  2  0  0  0  0  0  0
  184.6800  178.9040  145.8560 C   0  0  0  0  0  2  0  0  0  0  0  0
  184.1200  178.6720  144.5980 O   0  0  0  0  0  0  0  0  0  0  0  0
  184.5550  179.7420  143.8170 C   0  0  0  0  0  1  0  0  0  0  0  0
  190.5260  174.4720  136.4040 C   0  0  0  0  0  2  0  0  0  0  0  0
  189.7420  173.3440  137.0630 C   0  0  0  0  0  2  0  0  0  0  0  0
  188.6630  172.9020  136.1890 N   0  0  0  0  0  2  0  0  0  0  0  0
  186.4100  173.4050  137.0860 C   0  0  0  0  0  0  0  0  0  0  0  0
  186.3180  174.4790  136.3720 N   0  0  0  0  0  2  0  0  0  0  0  0
  185.2730  172.9940  137.9470 C   0  0  0  0  0  1  0  0  0  0  0  0
  187.5660  172.5680  136.9990 N   0  0  0  0  0  2  0  0  0  0  0  0
  1 26  1  1  0  0  0
  2  8  1  0  0  0  0
  3 14  1  0  0  0  0
  4  9  1  0  0  0  0
  4 11  1  0  0  0  0
  5  3  2  0  0  0  0
  5  7  1  0  0  0  0
  6  2  1  0  0  0  0
  7  4  2  0  0  0  0
  8  1  1  0  0  0  0
 10 13  1  0  0  0  0
 10  2  2  0  0  0  0
 11 18  1  1  0  0  0
 11 12  1  0  0  0  0
 13  9  1  6  0  0  0
 13 15  1  0  0  0  0
 14 38  1  0  0  0  0
 14  9  2  0  0  0  0
 15 12  1  6  0  0  0
 15  1  1  0  0  0  0
 17 16  1  0  0  0  0
 18 17  2  0  0  0  0
 19 21  2  0  0  0  0
 19 18  1  0  0  0  0
 20 16  2  0  0  0  0
 21 20  1  0  0  0  0
 24 20  1  6  0  0  0
 24 23  1  0  0  0  0
 25 22  1  6  0  0  0
 25 24  1  0  0  0  0
 25 23  1  0  0  0  0
 26 27  1  1  0  0  0
 26 28  1  0  0  0  0
 28 29  1  6  0  0  0
 28 30  1  0  0  0  0
 30 31  2  0  0  0  0
 31 32  1  0  0  0  0
 32 33  1  0  0  0  0
 34 33  1  0  0  0  0
 35 34  1  0  0  0  0
 36 35  1  0  0  0  0
 37 36  1  0  0  0  0
 38 39  1  0  0  0  0
 40 44  1  0  0  0  0
 40 39  1  0  0  0  0
 41 43  1  0  0  0  0
 42 41  2  0  0  0  0
 44 41  1  0  0  0  0
M  END
>  <MODEL>
6

>  <REMARK>
 VINA RESULT:      -7.1      1.727      3.203
  Name = 
  14 active torsions:
  status: ('A' for Active; 'I' for Inactive)
    1  A    between atoms: C_2  and  C_31
    2  A    between atoms: C_4  and  O_27
    3  A    between atoms: C_4  and  C_36
    4  A    between atoms: C_8  and  C_23
    5  A    between atoms: C_8  and  N_42
    6  A    between atoms: C_11  and  C_34
    7  A    between atoms: C_11  and  C_38
    8  A    between atoms: C_12  and  C_13
    9  A    between atoms: C_12  and  C_31
   10  A    between atoms: C_23  and  C_41
   11  A    between atoms: C_24  and  C_26
   12  A    between atoms: N_29  and  N_42
   13  A    between atoms: C_30  and  C_33
   14  A    between atoms: C_34  and  C_36
                            x       y       z     vdW  Elec       q    Type
                         _______ _______ _______ _____ _____    ______ ____

>  <TORSDO>
F 14

$$$$
=
 OpenBabel10222415423D

 44 48  0  0  1  0  0  0  0  0999 V2000
  189.7880  177.1030  141.2850 C   0  0  2  0  0  3  0  0  0  0  0  0
  191.8220  177.2020  139.8970 C   0  0  0  0  0  0  0  0  0  0  0  0
  188.9700  175.6760  135.2890 N   0  0  0  0  0  0  0  0  0  0  0  0
  188.3590  177.5620  137.1850 C   0  0  0  0  0  0  0  0  0  0  0  0
  188.2110  176.7530  134.9660 C   0  0  0  0  0  3  0  0  0  0  0  0
  193.2660  177.5280  139.7710 C   0  0  0  0  0  1  0  0  0  0  0  0
  187.9060  177.6800  135.9100 N   0  0  0  0  0  0  0  0  0  0  0  0
  191.1570  177.4640  141.0990 O   0  0  0  0  0  0  0  0  0  0  0  0
  189.1530  176.4520  137.5450 C   0  0  0  0  0  0  0  0  0  0  0  0
  191.1820  176.7170  138.8730 N   0  0  0  0  0  0  0  0  0  0  0  0
  187.9310  178.5930  138.2030 C   0  0  2  0  0  3  0  0  0  0  0  0
  188.8070  178.5930  139.4580 C   0  0  0  0  0  2  0  0  0  0  0  0
  189.7640  176.3430  138.9230 C   0  0  1  0  0  3  0  0  0  0  0  0
  189.4420  175.5000  136.5510 C   0  0  0  0  0  0  0  0  0  0  0  0
  189.0000  177.1670  139.9700 C   0  0  1  0  0  3  0  0  0  0  0  0
  184.2110  177.9680  137.8600 C   0  0  0  0  0  3  0  0  0  0  0  0
  185.5730  178.0570  137.5700 C   0  0  0  0  0  3  0  0  0  0  0  0
  186.4760  178.4700  138.5530 C   0  0  0  0  0  0  0  0  0  0  0  0
  186.0030  178.8030  139.8320 C   0  0  0  0  0  3  0  0  0  0  0  0
  183.7380  178.2770  139.1440 C   0  0  0  0  0  0  0  0  0  0  0  0
  184.6390  178.7150  140.1230 C   0  0  0  0  0  3  0  0  0  0  0  0
  182.5880  175.8900  139.7970 O   0  0  0  0  0  1  0  0  0  0  0  0
  181.5020  177.4650  138.3890 C   0  0  0  0  0  2  0  0  0  0  0  0
  182.2590  178.2840  139.4230 C   0  0  1  0  0  3  0  0  0  0  0  0
  181.6480  176.9250  139.7950 C   0  0  2  0  0  3  0  0  0  0  0  0
  189.1480  177.7470  142.5360 C   0  0  2  0  0  3  0  0  0  0  0  0
  190.1750  178.2930  143.5140 C   0  0  0  0  0  1  0  0  0  0  0  0
  188.0590  176.9520  143.2630 C   0  0  2  0  0  3  0  0  0  0  0  0
  186.7830  177.2500  142.7810 O   0  0  0  0  0  1  0  0  0  0  0  0
  188.1230  177.1630  144.7400 C   0  0  0  0  0  3  0  0  0  0  0  0
  187.0720  177.6470  145.3950 C   0  0  0  0  0  3  0  0  0  0  0  0
  187.1460  177.8610  146.8700 C   0  0  0  0  0  2  0  0  0  0  0  0
  188.5740  178.1650  147.2830 C   0  0  0  0  0  2  0  0  0  0  0  0
  189.2750  176.8930  147.7240 C   0  0  0  0  0  2  0  0  0  0  0  0
  190.7790  177.0640  147.6420 C   0  0  0  0  0  2  0  0  0  0  0  0
  191.2570  176.5160  146.4500 O   0  0  0  0  0  0  0  0  0  0  0  0
  192.2750  175.6490  146.8450 C   0  0  0  0  0  1  0  0  0  0  0  0
  190.2700  174.2900  136.8550 C   0  0  0  0  0  2  0  0  0  0  0  0
  189.5630  173.0180  136.4060 C   0  0  0  0  0  2  0  0  0  0  0  0
  188.3670  172.7950  137.2080 N   0  0  0  0  0  2  0  0  0  0  0  0
  185.9410  172.5880  136.7540 C   0  0  0  0  0  0  0  0  0  0  0  0
  185.6410  172.9380  137.9610 N   0  0  0  0  0  2  0  0  0  0  0  0
  184.8580  172.3170  135.7750 C   0  0  0  0  0  1  0  0  0  0  0  0
  187.3050  172.5320  136.3280 N   0  0  0  0  0  2  0  0  0  0  0  0
  1 26  1  1  0  0  0
  2  8  1  0  0  0  0
  3 14  1  0  0  0  0
  4  9  1  0  0  0  0
  4 11  1  0  0  0  0
  5  3  2  0  0  0  0
  5  7  1  0  0  0  0
  6  2  1  0  0  0  0
  7  4  2  0  0  0  0
  8  1  1  0  0  0  0
 10 13  1  0  0  0  0
 10  2  2  0  0  0  0
 11 18  1  1  0  0  0
 11 12  1  0  0  0  0
 13  9  1  6  0  0  0
 13 15  1  0  0  0  0
 14 38  1  0  0  0  0
 14  9  2  0  0  0  0
 15 12  1  6  0  0  0
 15  1  1  0  0  0  0
 16 20  1  0  0  0  0
 17 16  2  0  0  0  0
 17 18  1  0  0  0  0
 18 19  2  0  0  0  0
 19 21  1  0  0  0  0
 20 21  2  0  0  0  0
 23 24  1  0  0  0  0
 23 25  1  0  0  0  0
 24 20  1  6  0  0  0
 24 25  1  0  0  0  0
 25 22  1  6  0  0  0
 26 28  1  0  0  0  0
 26 27  1  1  0  0  0
 28 29  1  6  0  0  0
 28 30  1  0  0  0  0
 30 31  2  0  0  0  0
 31 32  1  0  0  0  0
 32 33  1  0  0  0  0
 33 34  1  0  0  0  0
 35 34  1  0  0  0  0
 36 37  1  0  0  0  0
 36 35  1  0  0  0  0
 39 38  1  0  0  0  0
 39 40  1  0  0  0  0
 41 42  2  0  0  0  0
 43 41  1  0  0  0  0
 44 41  1  0  0  0  0
 44 40  1  0  0  0  0
M  END
>  <MODEL>
7

>  <REMARK>
 VINA RESULT:      -7.0      2.098      4.351
  Name = 
  14 active torsions:
  status: ('A' for Active; 'I' for Inactive)
    1  A    between atoms: C_2  and  C_31
    2  A    between atoms: C_4  and  O_27
    3  A    between atoms: C_4  and  C_36
    4  A    between atoms: C_8  and  C_23
    5  A    between atoms: C_8  and  N_42
    6  A    between atoms: C_11  and  C_34
    7  A    between atoms: C_11  and  C_38
    8  A    between atoms: C_12  and  C_13
    9  A    between atoms: C_12  and  C_31
   10  A    between atoms: C_23  and  C_41
   11  A    between atoms: C_24  and  C_26
   12  A    between atoms: N_29  and  N_42
   13  A    between atoms: C_30  and  C_33
   14  A    between atoms: C_34  and  C_36
                            x       y       z     vdW  Elec       q    Type
                         _______ _______ _______ _____ _____    ______ ____

>  <TORSDO>
F 14

$$$$
=
 OpenBabel10222415423D

 44 48  0  0  1  0  0  0  0  0999 V2000
  185.5660  177.2670  137.5800 C   0  0  2  0  0  3  0  0  0  0  0  0
  183.6960  177.1500  135.9790 C   0  0  0  0  0  0  0  0  0  0  0  0
  180.0430  175.8500  140.0590 N   0  0  0  0  0  0  0  0  0  0  0  0
  181.9600  177.8110  139.9820 C   0  0  0  0  0  0  0  0  0  0  0  0
  179.8870  176.9910  140.7760 C   0  0  0  0  0  3  0  0  0  0  0  0
  183.1890  177.3340  134.5940 C   0  0  0  0  0  1  0  0  0  0  0  0
  180.8410  177.9560  140.7390 N   0  0  0  0  0  0  0  0  0  0  0  0
  185.0190  177.4920  136.2810 O   0  0  0  0  0  0  0  0  0  0  0  0
  182.1440  176.6330  139.2250 C   0  0  0  0  0  0  0  0  0  0  0  0
  182.8910  176.7180  136.9050 N   0  0  0  0  0  0  0  0  0  0  0  0
  183.0150  178.8910  140.0350 C   0  0  2  0  0  3  0  0  0  0  0  0
  183.9990  178.8220  138.8650 C   0  0  0  0  0  2  0  0  0  0  0  0
  183.3200  176.4830  138.2880 C   0  0  1  0  0  3  0  0  0  0  0  0
  181.1460  175.6450  139.2930 C   0  0  0  0  0  0  0  0  0  0  0  0
  184.4970  177.3910  138.6750 C   0  0  1  0  0  3  0  0  0  0  0  0
  183.6360  178.8120  143.7700 C   0  0  0  0  0  3  0  0  0  0  0  0
  182.9960  178.7590  142.5300 C   0  0  0  0  0  3  0  0  0  0  0  0
  183.7330  178.9150  141.3530 C   0  0  0  0  0  0  0  0  0  0  0  0
  185.1180  179.1320  141.4240 C   0  0  0  0  0  3  0  0  0  0  0  0
  185.0230  179.0050  143.8440 C   0  0  0  0  0  0  0  0  0  0  0  0
  185.7580  179.1870  142.6660 C   0  0  0  0  0  3  0  0  0  0  0  0
  186.4070  176.8610  144.8100 O   0  0  0  0  0  1  0  0  0  0  0  0
  185.0810  178.2390  146.2190 C   0  0  0  0  0  2  0  0  0  0  0  0
  185.6920  179.1700  145.1830 C   0  0  1  0  0  3  0  0  0  0  0  0
  186.4680  177.9450  145.6900 C   0  0  2  0  0  3  0  0  0  0  0  0
  186.9140  177.9870  137.8110 C   0  0  2  0  0  3  0  0  0  0  0  0
  187.1870  179.0780  136.7900 C   0  0  0  0  0  1  0  0  0  0  0  0
  188.1540  177.1130  138.0330 C   0  0  2  0  0  3  0  0  0  0  0  0
  187.8590  175.7520  137.9370 O   0  0  0  0  0  1  0  0  0  0  0  0
  188.8080  177.4170  139.3400 C   0  0  0  0  0  3  0  0  0  0  0  0
  189.9450  176.8140  139.6780 C   0  0  0  0  0  3  0  0  0  0  0  0
  190.5890  177.1180  140.9890 C   0  0  0  0  0  2  0  0  0  0  0  0
  189.8630  176.3970  142.1090 C   0  0  0  0  0  2  0  0  0  0  0  0
  189.3430  177.3970  143.1260 C   0  0  0  0  0  2  0  0  0  0  0  0
  190.4380  178.3710  143.5160 C   0  0  0  0  0  2  0  0  0  0  0  0
  190.4670  178.5240  144.9040 O   0  0  0  0  0  0  0  0  0  0  0  0
  191.2280  177.4480  145.3600 C   0  0  0  0  0  1  0  0  0  0  0  0
  181.2710  174.3650  138.5270 C   0  0  0  0  0  2  0  0  0  0  0  0
  180.2160  174.2790  137.4310 C   0  0  0  0  0  2  0  0  0  0  0  0
  180.8150  173.8030  136.1910 N   0  0  0  0  0  2  0  0  0  0  0  0
  182.4280  171.9260  136.2910 C   0  0  0  0  0  0  0  0  0  0  0  0
  181.5780  171.1090  135.7600 N   0  0  0  0  0  2  0  0  0  0  0  0
  183.7980  171.4540  136.6170 C   0  0  0  0  0  1  0  0  0  0  0  0
  182.0900  173.3000  136.4970 N   0  0  0  0  0  2  0  0  0  0  0  0
  1 26  1  1  0  0  0
  1 15  1  0  0  0  0
  2  8  1  0  0  0  0
  2 10  2  0  0  0  0
  3  5  1  0  0  0  0
  4 11  1  0  0  0  0
  4  7  1  0  0  0  0
  6  2  1  0  0  0  0
  7  5  2  0  0  0  0
  8  1  1  0  0  0  0
  9 14  1  0  0  0  0
  9  4  2  0  0  0  0
 11 18  1  1  0  0  0
 12 11  1  0  0  0  0
 13 10  1  6  0  0  0
 13 15  1  0  0  0  0
 13  9  1  0  0  0  0
 14  3  2  0  0  0  0
 15 12  1  6  0  0  0
 16 20  1  0  0  0  0
 17 16  2  0  0  0  0
 18 19  2  0  0  0  0
 18 17  1  0  0  0  0
 19 21  1  0  0  0  0
 21 20  2  0  0  0  0
 24 20  1  6  0  0  0
 24 25  1  0  0  0  0
 24 23  1  0  0  0  0
 25 22  1  6  0  0  0
 25 23  1  0  0  0  0
 26 27  1  6  0  0  0
 26 28  1  0  0  0  0
 28 29  1  1  0  0  0
 28 30  1  0  0  0  0
 30 31  2  0  0  0  0
 31 32  1  0  0  0  0
 32 33  1  0  0  0  0
 33 34  1  0  0  0  0
 34 35  1  0  0  0  0
 35 36  1  0  0  0  0
 36 37  1  0  0  0  0
 38 14  1  0  0  0  0
 39 38  1  0  0  0  0
 40 44  1  0  0  0  0
 40 39  1  0  0  0  0
 41 44  1  0  0  0  0
 41 43  1  0  0  0  0
 42 41  2  0  0  0  0
M  END
>  <MODEL>
8

>  <REMARK>
 VINA RESULT:      -6.7      4.151      8.122
  Name = 
  14 active torsions:
  status: ('A' for Active; 'I' for Inactive)
    1  A    between atoms: C_2  and  C_31
    2  A    between atoms: C_4  and  O_27
    3  A    between atoms: C_4  and  C_36
    4  A    between atoms: C_8  and  C_23
    5  A    between atoms: C_8  and  N_42
    6  A    between atoms: C_11  and  C_34
    7  A    between atoms: C_11  and  C_38
    8  A    between atoms: C_12  and  C_13
    9  A    between atoms: C_12  and  C_31
   10  A    between atoms: C_23  and  C_41
   11  A    between atoms: C_24  and  C_26
   12  A    between atoms: N_29  and  N_42
   13  A    between atoms: C_30  and  C_33
   14  A    between atoms: C_34  and  C_36
                            x       y       z     vdW  Elec       q    Type
                         _______ _______ _______ _____ _____    ______ ____

>  <TORSDO>
F 14

$$$$
=
 OpenBabel10222415423D

 44 48  0  0  1  0  0  0  0  0999 V2000
  186.1390  178.0700  139.6450 C   0  0  2  0  0  3  0  0  0  0  0  0
  186.9320  178.1790  137.3130 C   0  0  0  0  0  0  0  0  0  0  0  0
  181.9600  176.4180  135.3480 N   0  0  0  0  0  0  0  0  0  0  0  0
  182.5240  178.3490  137.2130 C   0  0  0  0  0  0  0  0  0  0  0  0
  181.1130  177.4610  135.5330 C   0  0  0  0  0  3  0  0  0  0  0  0
  187.9990  178.5430  136.3440 C   0  0  0  0  0  1  0  0  0  0  0  0
  181.3930  178.4100  136.4620 N   0  0  0  0  0  0  0  0  0  0  0  0
  187.1080  178.4640  138.6720 O   0  0  0  0  0  0  0  0  0  0  0  0
  183.4230  177.2740  137.0370 C   0  0  0  0  0  0  0  0  0  0  0  0
  185.8280  177.6430  136.8820 N   0  0  0  0  0  0  0  0  0  0  0  0
  182.7450  179.4010  138.2740 C   0  0  2  0  0  3  0  0  0  0  0  0
  184.1970  179.4690  138.7540 C   0  0  0  0  0  2  0  0  0  0  0  0
  184.7400  177.2300  137.7750 C   0  0  1  0  0  3  0  0  0  0  0  0
  183.1000  176.2980  136.0780 C   0  0  0  0  0  0  0  0  0  0  0  0
  184.7190  178.0670  139.0630 C   0  0  1  0  0  3  0  0  0  0  0  0
  181.0670  177.9890  141.3620 C   0  0  0  0  0  3  0  0  0  0  0  0
  181.9570  178.1720  140.3030 C   0  0  0  0  0  3  0  0  0  0  0  0
  181.7960  179.2490  139.4270 C   0  0  0  0  0  0  0  0  0  0  0  0
  180.7290  180.1420  139.6150 C   0  0  0  0  0  3  0  0  0  0  0  0
  180.0140  178.8930  141.5670 C   0  0  0  0  0  0  0  0  0  0  0  0
  179.8370  179.9590  140.6750 C   0  0  0  0  0  3  0  0  0  0  0  0
  180.0130  180.5850  143.7090 O   0  0  0  0  0  1  0  0  0  0  0  0
  179.6660  178.2480  143.9540 C   0  0  0  0  0  2  0  0  0  0  0  0
  178.9940  178.6330  142.6440 C   0  0  1  0  0  3  0  0  0  0  0  0
  179.0190  179.6100  143.8290 C   0  0  2  0  0  3  0  0  0  0  0  0
  186.3480  178.7380  141.0220 C   0  0  2  0  0  3  0  0  0  0  0  0
  187.7790  178.6380  141.5210 C   0  0  0  0  0  1  0  0  0  0  0  0
  185.3490  178.3950  142.1340 C   0  0  2  0  0  3  0  0  0  0  0  0
  184.3500  179.3620  142.2570 O   0  0  0  0  0  1  0  0  0  0  0  0
  186.0390  178.1850  143.4410 C   0  0  0  0  0  3  0  0  0  0  0  0
  185.3810  178.3590  144.5840 C   0  0  0  0  0  3  0  0  0  0  0  0
  186.0790  178.1540  145.8860 C   0  0  0  0  0  2  0  0  0  0  0  0
  187.2080  177.1520  145.7220 C   0  0  0  0  0  2  0  0  0  0  0  0
  188.5290  177.7800  146.1300 C   0  0  0  0  0  2  0  0  0  0  0  0
  189.6020  177.4600  145.1080 C   0  0  0  0  0  2  0  0  0  0  0  0
  190.4860  178.5350  144.9930 O   0  0  0  0  0  0  0  0  0  0  0  0
  190.7880  178.5980  143.6330 C   0  0  0  0  0  1  0  0  0  0  0  0
  183.9970  175.1230  135.8380 C   0  0  0  0  0  2  0  0  0  0  0  0
  183.5740  173.9320  136.6870 C   0  0  0  0  0  2  0  0  0  0  0  0
  184.5060  173.7440  137.7910 N   0  0  0  0  0  2  0  0  0  0  0  0
  186.8140  173.1780  137.0910 C   0  0  0  0  0  0  0  0  0  0  0  0
  187.2060  174.4000  137.2440 N   0  0  0  0  0  2  0  0  0  0  0  0
  187.7910  172.1370  136.6820 C   0  0  0  0  0  1  0  0  0  0  0  0
  185.4660  172.8020  137.3860 N   0  0  0  0  0  2  0  0  0  0  0  0
  1 26  1  1  0  0  0
  2  8  1  0  0  0  0
  3  5  2  0  0  0  0
  3 14  1  0  0  0  0
  4 11  1  0  0  0  0
  5  7  1  0  0  0  0
  6  2  1  0  0  0  0
  7  4  2  0  0  0  0
  8  1  1  0  0  0  0
  9  4  1  0  0  0  0
  9 13  1  0  0  0  0
 10  2  2  0  0  0  0
 11 12  1  0  0  0  0
 11 18  1  1  0  0  0
 13 10  1  6  0  0  0
 13 15  1  0  0  0  0
 14  9  2  0  0  0  0
 15 12  1  6  0  0  0
 15  1  1  0  0  0  0
 16 20  1  0  0  0  0
 17 16  2  0  0  0  0
 18 19  2  0  0  0  0
 18 17  1  0  0  0  0
 19 21  1  0  0  0  0
 21 20  2  0  0  0  0
 24 20  1  6  0  0  0
 24 25  1  0  0  0  0
 24 23  1  0  0  0  0
 25 22  1  6  0  0  0
 25 23  1  0  0  0  0
 26 27  1  1  0  0  0
 26 28  1  0  0  0  0
 28 29  1  1  0  0  0
 28 30  1  0  0  0  0
 30 31  2  0  0  0  0
 31 32  1  0  0  0  0
 33 32  1  0  0  0  0
 33 34  1  0  0  0  0
 35 34  1  0  0  0  0
 36 35  1  0  0  0  0
 37 36  1  0  0  0  0
 38 14  1  0  0  0  0
 38 39  1  0  0  0  0
 39 40  1  0  0  0  0
 41 42  2  0  0  0  0
 41 44  1  0  0  0  0
 43 41  1  0  0  0  0
 44 40  1  0  0  0  0
M  END
>  <MODEL>
9

>  <REMARK>
 VINA RESULT:      -6.4      3.445      6.047
  Name = 
  14 active torsions:
  status: ('A' for Active; 'I' for Inactive)
    1  A    between atoms: C_2  and  C_31
    2  A    between atoms: C_4  and  O_27
    3  A    between atoms: C_4  and  C_36
    4  A    between atoms: C_8  and  C_23
    5  A    between atoms: C_8  and  N_42
    6  A    between atoms: C_11  and  C_34
    7  A    between atoms: C_11  and  C_38
    8  A    between atoms: C_12  and  C_13
    9  A    between atoms: C_12  and  C_31
   10  A    between atoms: C_23  and  C_41
   11  A    between atoms: C_24  and  C_26
   12  A    between atoms: N_29  and  N_42
   13  A    between atoms: C_30  and  C_33
   14  A    between atoms: C_34  and  C_36
                            x       y       z     vdW  Elec       q    Type
                         _______ _______ _______ _____ _____    ______ ____

>  <TORSDO>
F 14

$$$$
