=
 OpenBabel10222420143D

 52 60  0  0  1  0  0  0  0  0999 V2000
  186.0760  176.1780  137.4350 C   0  0  0  0  0  2  0  0  0  0  0  0
  183.9530  179.1660  138.4660 C   0  0  0  0  0  0  0  0  0  0  0  0
  185.0780  178.3720  138.2060 C   0  0  0  0  0  0  0  0  0  0  0  0
  186.4010  178.8930  138.3890 N   0  0  0  0  0  2  0  0  0  0  0  0
  184.1020  180.5030  138.9350 N   0  0  0  0  0  1  0  0  0  0  0  0
  182.7050  178.6570  138.2760 N   0  0  0  0  0  0  0  0  0  0  0  0
  187.3390  177.0010  137.1650 C   0  0  1  0  0  3  0  0  0  0  0  0
  182.5110  177.3820  137.8430 C   0  0  0  0  0  0  0  0  0  0  0  0
  187.5820  178.0360  138.2780 C   0  0  2  0  0  3  0  0  0  0  0  0
  183.6050  176.5620  137.5580 C   0  0  0  0  0  3  0  0  0  0  0  0
  184.8960  177.0630  137.7230 C   0  0  0  0  0  0  0  0  0  0  0  0
  187.1230  178.0280  140.6990 N   0  0  0  0  0  2  0  0  0  0  0  0
  187.8870  177.3830  139.6360 C   0  0  2  0  0  3  0  0  0  0  0  0
  188.3660  178.5550  141.2470 C   0  0  1  0  0  3  0  0  0  0  0  0
  189.3080  177.4270  141.6210 C   0  0  1  0  0  3  0  0  0  0  0  0
  189.2010  177.8830  140.1860 C   0  0  1  0  0  3  0  0  0  0  0  0
  191.8080  178.4570  144.0810 O   0  0  0  0  0  0  0  0  0  0  0  0
  189.8770  177.1980  144.4780 N   0  0  0  0  0  2  0  0  0  0  0  0
  190.7770  177.9020  143.6140 C   0  0  0  0  0  0  0  0  0  0  0  0
  190.5160  177.9800  142.2130 N   0  0  0  0  0  2  0  0  0  0  0  0
  189.9610  177.2360  145.9330 C   0  0  1  0  0  0  0  0  0  0  0  0
  192.7200  175.5780  147.6830 C   0  0  0  0  0  1  0  0  0  0  0  0
  190.5720  175.9800  146.5130 C   0  0  1  0  0  3  0  0  0  0  0  0
  191.3450  177.2920  146.5460 C   0  0  2  0  0  3  0  0  0  0  0  0
  191.4110  176.3400  147.7250 C   0  0  2  0  0  3  0  0  0  0  0  0
  186.3980  178.4070  146.8370 C   0  0  0  0  0  3  0  0  0  0  0  0
  185.4690  178.3970  145.8830 C   0  0  0  0  0  3  0  0  0  0  0  0
  186.0180  177.9240  144.6500 N   0  0  0  0  0  0  0  0  0  0  0  0
  187.5780  177.9110  146.1530 C   0  0  0  0  0  0  0  0  0  0  0  0
  187.2450  177.6400  144.8040 N   0  0  0  0  0  0  0  0  0  0  0  0
  188.7830  177.7550  146.6970 C   0  0  0  0  0  3  0  0  0  0  0  0
  190.6850  175.3450  138.3290 O   0  0  0  0  0  0  0  0  0  0  0  0
  188.4820  176.1260  136.9700 N   0  0  0  0  0  0  0  0  0  0  0  0
  189.7780  175.4790  137.4660 C   0  0  0  0  0  0  0  0  0  0  0  0
  189.1630  175.1290  136.2700 C   0  0  1  0  0  3  0  0  0  0  0  0
  188.4060  173.8220  136.4050 C   0  0  0  0  0  2  0  0  0  0  0  0
  187.6600  173.4950  135.1210 C   0  0  0  0  0  2  0  0  0  0  0  0
  184.3310  170.7090  135.8940 C   0  0  0  0  0  2  0  0  0  0  0  0
  184.9200  172.6810  137.3940 C   0  0  0  0  0  2  0  0  0  0  0  0
  186.3620  172.6240  136.8780 C   0  0  0  0  0  2  0  0  0  0  0  0
  186.5050  171.4810  134.8480 C   0  0  0  0  0  2  0  0  0  0  0  0
  186.4120  172.8150  135.4330 N   0  0  0  0  0  0  0  0  0  0  0  0
  183.8850  172.0600  136.4480 C   0  0  2  0  0  3  0  0  0  0  0  0
  185.1130  170.9020  134.5950 C   0  0  0  0  0  2  0  0  0  0  0  0
  182.6170  171.9180  137.1450 N   0  0  0  0  0  2  0  0  0  0  0  0
  181.8120  173.0910  136.8200 C   0  0  1  0  0  3  0  0  0  0  0  0
  182.1820  173.6150  135.4410 C   0  0  0  0  0  1  0  0  0  0  0  0
  179.7430  173.0460  138.2880 C   0  0  0  0  0  1  0  0  0  0  0  0
  179.6200  173.5330  135.9560 O   0  0  0  0  0  1  0  0  0  0  0  0
  180.3160  172.7810  136.9030 C   0  0  1  0  0  3  0  0  0  0  0  0
  181.1770  176.8860  137.6540 C   0  0  0  0  0  0  0  0  0  0  0  0
  180.1030  176.4820  137.5040 N   0  0  0  0  0  0  0  0  0  0  0  0
  1 11  1  0  0  0  0
  2  5  1  0  0  0  0
  3  4  1  0  0  0  0
  3  2  2  0  0  0  0
  6  2  1  0  0  0  0
  7 33  1  1  0  0  0
  7  1  1  0  0  0  0
  7  9  1  0  0  0  0
  8  6  2  0  0  0  0
  9  4  1  1  0  0  0
  9 13  1  0  0  0  0
 10 11  2  0  0  0  0
 10  8  1  0  0  0  0
 11  3  1  0  0  0  0
 13 16  1  0  0  0  0
 13 12  1  1  0  0  0
 14 12  1  6  0  0  0
 14 15  1  0  0  0  0
 15 20  1  1  0  0  0
 16 14  1  0  0  0  0
 16 15  1  0  0  0  0
 18 21  1  0  0  0  0
 19 17  2  0  0  0  0
 19 18  1  0  0  0  0
 20 19  1  0  0  0  0
 21 23  1  0  0  0  0
 21 24  1  0  0  0  0
 21 31  1  0  0  0  0
 22 25  1  0  0  0  0
 23 24  1  0  0  0  0
 23 25  1  0  0  0  0
 24 25  1  0  0  0  0
 27 26  2  0  0  0  0
 28 30  2  0  0  0  0
 28 27  1  0  0  0  0
 29 31  2  0  0  0  0
 29 26  1  0  0  0  0
 30 29  1  0  0  0  0
 33 34  1  0  0  0  0
 34 32  2  0  0  0  0
 35 36  1  0  0  0  0
 35 33  1  0  0  0  0
 35 34  1  0  0  0  0
 37 42  1  0  0  0  0
 37 36  1  0  0  0  0
 38 43  1  0  0  0  0
 40 39  1  0  0  0  0
 41 42  1  0  0  0  0
 42 40  1  0  0  0  0
 43 45  1  0  0  0  0
 43 39  1  0  0  0  0
 44 41  1  0  0  0  0
 44 38  1  0  0  0  0
 46 50  1  0  0  0  0
 46 45  1  0  0  0  0
 47 46  1  0  0  0  0
 49 50  1  0  0  0  0
 50 48  1  0  0  0  0
 51  8  1  0  0  0  0
 52 51  3  0  0  0  0
M  END
>  <MODEL>
1

>  <REMARK>
 VINA RESULT:      -8.0      0.000      0.000
  Name = 
  12 active torsions:
  status: ('A' for Active; 'I' for Inactive)
    1  A    between atoms: C_2  and  N_19
    2  A    between atoms: C_2  and  C_52
    3  A    between atoms: N_6  and  C_29
    4  A    between atoms: N_9  and  C_13
    5  A    between atoms: N_9  and  C_43
    6  A    between atoms: C_10  and  C_30
    7  A    between atoms: C_12  and  C_32
    8  A    between atoms: C_13  and  C_41
    9  A    between atoms: C_26  and  C_33
   10  A    between atoms: C_26  and  N_37
   11  A    between atoms: C_33  and  CA_44
   12  A    between atoms: C_42  and  N_47
                            x       y       z     vdW  Elec       q    Type
                         _______ _______ _______ _____ _____    ______ ____

>  <TORSDO>
F 12

$$$$
=
 OpenBabel10222420143D

 52 60  0  0  1  0  0  0  0  0999 V2000
  186.6410  178.0300  142.8860 C   0  0  0  0  0  2  0  0  0  0  0  0
  190.1950  178.2050  144.2420 C   0  0  0  0  0  0  0  0  0  0  0  0
  189.1130  178.2960  143.3550 C   0  0  0  0  0  0  0  0  0  0  0  0
  189.3010  178.7730  142.0170 N   0  0  0  0  0  2  0  0  0  0  0  0
  191.5070  178.5690  143.8240 N   0  0  0  0  0  1  0  0  0  0  0  0
  189.9940  177.7600  145.5120 N   0  0  0  0  0  0  0  0  0  0  0  0
  186.8890  179.0170  141.7410 C   0  0  1  0  0  3  0  0  0  0  0  0
  188.7620  177.3870  145.9540 C   0  0  0  0  0  0  0  0  0  0  0  0
  188.2220  178.7260  141.0290 C   0  0  2  0  0  3  0  0  0  0  0  0
  187.6550  177.4770  145.1070 C   0  0  0  0  0  3  0  0  0  0  0  0
  187.8260  177.9500  143.8060 C   0  0  0  0  0  0  0  0  0  0  0  0
  189.5480  176.7540  140.3780 N   0  0  0  0  0  2  0  0  0  0  0  0
  188.2260  177.3670  140.3120 C   0  0  2  0  0  3  0  0  0  0  0  0
  189.6860  176.9410  138.9390 C   0  0  1  0  0  3  0  0  0  0  0  0
  188.5880  176.2040  138.1960 C   0  0  1  0  0  3  0  0  0  0  0  0
  188.3120  177.5520  138.8170 C   0  0  1  0  0  3  0  0  0  0  0  0
  187.9670  176.2290  134.5940 O   0  0  0  0  0  0  0  0  0  0  0  0
  186.4080  175.8210  136.2890 N   0  0  0  0  0  2  0  0  0  0  0  0
  187.7260  176.1400  135.8280 C   0  0  0  0  0  0  0  0  0  0  0  0
  188.7810  176.3640  136.7640 N   0  0  0  0  0  2  0  0  0  0  0  0
  185.3290  175.3870  135.4090 C   0  0  1  0  0  0  0  0  0  0  0  0
  182.4150  177.5330  134.8390 C   0  0  0  0  0  1  0  0  0  0  0  0
  183.9770  175.8980  135.8530 C   0  0  1  0  0  3  0  0  0  0  0  0
  184.6280  176.4550  134.5950 C   0  0  2  0  0  3  0  0  0  0  0  0
  183.1310  176.2150  134.6340 C   0  0  2  0  0  3  0  0  0  0  0  0
  184.6910  171.5870  135.2140 C   0  0  0  0  0  3  0  0  0  0  0  0
  184.0130  171.0090  136.2040 C   0  0  0  0  0  2  0  0  0  0  0  0
  183.6370  171.9750  137.1890 N   0  0  0  0  0  0  0  0  0  0  0  0
  184.7320  172.9820  135.6130 C   0  0  0  0  0  0  0  0  0  0  0  0
  184.0540  173.1250  136.8480 N   0  0  0  0  0  0  0  0  0  0  0  0
  185.3260  173.9650  134.9400 C   0  0  0  0  0  2  0  0  0  0  0  0
  185.2080  178.1870  138.3090 O   0  0  0  0  0  0  0  0  0  0  0  0
  185.7640  179.0180  140.8210 N   0  0  0  0  0  0  0  0  0  0  0  0
  185.1310  178.6580  139.4740 C   0  0  0  0  0  0  0  0  0  0  0  0
  184.4120  179.2030  140.5310 C   0  0  1  0  0  3  0  0  0  0  0  0
  183.6010  178.1390  141.2470 C   0  0  0  0  0  2  0  0  0  0  0  0
  182.2330  178.6760  141.6400 C   0  0  0  0  0  2  0  0  0  0  0  0
  179.4880  178.9470  138.2000 C   0  0  0  0  0  2  0  0  0  0  0  0
  180.0700  180.9060  139.7200 C   0  0  0  0  0  2  0  0  0  0  0  0
  180.4010  179.9180  140.8430 C   0  0  0  0  0  2  0  0  0  0  0  0
  180.8190  177.7770  140.0110 C   0  0  0  0  0  2  0  0  0  0  0  0
  181.4710  179.0080  140.4460 N   0  0  0  0  0  0  0  0  0  0  0  0
  180.1620  180.3130  138.3080 C   0  0  2  0  0  3  0  0  0  0  0  0
  180.4890  177.8360  138.5190 C   0  0  0  0  0  2  0  0  0  0  0  0
  179.5680  181.2370  137.3560 N   0  0  0  0  0  2  0  0  0  0  0  0
  180.6630  181.8870  136.6440 C   0  0  1  0  0  3  0  0  0  0  0  0
  180.8330  181.2680  135.2660 C   0  0  0  0  0  1  0  0  0  0  0  0
  181.5350  184.1950  137.2390 C   0  0  0  0  0  1  0  0  0  0  0  0
  180.3700  183.7780  135.2000 O   0  0  0  0  0  1  0  0  0  0  0  0
  180.4420  183.3980  136.5410 C   0  0  1  0  0  3  0  0  0  0  0  0
  188.5950  176.9250  147.3020 C   0  0  0  0  0  0  0  0  0  0  0  0
  188.4580  176.5540  148.3900 N   0  0  0  0  0  0  0  0  0  0  0  0
  1 11  1  0  0  0  0
  2  6  1  0  0  0  0
  3 11  1  0  0  0  0
  3  2  2  0  0  0  0
  4  3  1  0  0  0  0
  5  2  1  0  0  0  0
  6  8  2  0  0  0  0
  7 33  1  6  0  0  0
  7  1  1  0  0  0  0
  8 51  1  0  0  0  0
  9  7  1  0  0  0  0
  9  4  1  1  0  0  0
 10  8  1  0  0  0  0
 11 10  2  0  0  0  0
 13 12  1  1  0  0  0
 13  9  1  0  0  0  0
 14 12  1  1  0  0  0
 15 20  1  6  0  0  0
 15 16  1  0  0  0  0
 15 14  1  0  0  0  0
 16 14  1  0  0  0  0
 16 13  1  0  0  0  0
 17 19  2  0  0  0  0
 19 18  1  0  0  0  0
 19 20  1  0  0  0  0
 21 23  1  0  0  0  0
 21 18  1  0  0  0  0
 24 25  1  0  0  0  0
 24 21  1  0  0  0  0
 24 23  1  0  0  0  0
 25 22  1  0  0  0  0
 25 23  1  0  0  0  0
 26 29  2  0  0  0  0
 26 27  1  0  0  0  0
 27 28  1  0  0  0  0
 29 30  1  0  0  0  0
 30 28  2  0  0  0  0
 31 21  1  0  0  0  0
 31 29  1  0  0  0  0
 32 34  2  0  0  0  0
 34 35  1  0  0  0  0
 34 33  1  0  0  0  0
 35 33  1  0  0  0  0
 35 36  1  0  0  0  0
 36 37  1  0  0  0  0
 38 43  1  0  0  0  0
 38 44  1  0  0  0  0
 39 40  1  0  0  0  0
 41 42  1  0  0  0  0
 42 40  1  0  0  0  0
 42 37  1  0  0  0  0
 43 39  1  0  0  0  0
 44 41  1  0  0  0  0
 45 43  1  0  0  0  0
 46 45  1  0  0  0  0
 47 46  1  0  0  0  0
 49 50  1  0  0  0  0
 50 46  1  0  0  0  0
 50 48  1  0  0  0  0
 51 52  3  0  0  0  0
M  END
>  <MODEL>
2

>  <REMARK>
 VINA RESULT:      -7.7      3.149      9.489
  Name = 
  12 active torsions:
  status: ('A' for Active; 'I' for Inactive)
    1  A    between atoms: C_2  and  N_19
    2  A    between atoms: C_2  and  C_52
    3  A    between atoms: N_6  and  C_29
    4  A    between atoms: N_9  and  C_13
    5  A    between atoms: N_9  and  C_43
    6  A    between atoms: C_10  and  C_30
    7  A    between atoms: C_12  and  C_32
    8  A    between atoms: C_13  and  C_41
    9  A    between atoms: C_26  and  C_33
   10  A    between atoms: C_26  and  N_37
   11  A    between atoms: C_33  and  CA_44
   12  A    between atoms: C_42  and  N_47
                            x       y       z     vdW  Elec       q    Type
                         _______ _______ _______ _____ _____    ______ ____

>  <TORSDO>
F 12

$$$$
=
 OpenBabel10222420143D

 52 60  0  0  1  0  0  0  0  0999 V2000
  191.2950  176.2770  137.7500 C   0  0  0  0  0  2  0  0  0  0  0  0
  192.3920  173.2530  135.7130 C   0  0  0  0  0  0  0  0  0  0  0  0
  191.6260  174.3400  136.1550 C   0  0  0  0  0  0  0  0  0  0  0  0
  190.4080  174.6980  135.4900 N   0  0  0  0  0  2  0  0  0  0  0  0
  191.9640  172.4700  134.6020 N   0  0  0  0  0  1  0  0  0  0  0  0
  193.5500  172.9340  136.3520 N   0  0  0  0  0  0  0  0  0  0  0  0
  190.3690  176.8360  136.6660 C   0  0  1  0  0  3  0  0  0  0  0  0
  193.9930  173.6420  137.4260 C   0  0  0  0  0  0  0  0  0  0  0  0
  189.5160  175.7260  136.0290 C   0  0  2  0  0  3  0  0  0  0  0  0
  193.2680  174.7420  137.8900 C   0  0  0  0  0  3  0  0  0  0  0  0
  192.0870  175.1060  137.2430 C   0  0  0  0  0  0  0  0  0  0  0  0
  188.3260  173.6810  136.7210 N   0  0  0  0  0  2  0  0  0  0  0  0
  188.5290  175.0930  137.0250 C   0  0  2  0  0  3  0  0  0  0  0  0
  186.9540  173.9800  136.3330 C   0  0  1  0  0  3  0  0  0  0  0  0
  186.1880  174.5830  137.4950 C   0  0  1  0  0  3  0  0  0  0  0  0
  187.1070  175.4450  136.6630 C   0  0  1  0  0  3  0  0  0  0  0  0
  182.8900  176.1240  137.1670 O   0  0  0  0  0  0  0  0  0  0  0  0
  184.7680  177.0290  138.2270 N   0  0  0  0  0  2  0  0  0  0  0  0
  184.1030  176.0000  137.4850 C   0  0  0  0  0  0  0  0  0  0  0  0
  184.8110  174.8220  137.0970 N   0  0  0  0  0  2  0  0  0  0  0  0
  184.0760  178.1630  138.8300 C   0  0  1  0  0  0  0  0  0  0  0  0
  180.7910  179.2110  137.5940 C   0  0  0  0  0  1  0  0  0  0  0  0
  183.2420  178.9320  137.8310 C   0  0  1  0  0  3  0  0  0  0  0  0
  182.5650  178.0920  138.9050 C   0  0  2  0  0  3  0  0  0  0  0  0
  181.9790  179.4330  138.5060 C   0  0  2  0  0  3  0  0  0  0  0  0
  185.4900  179.6570  142.0940 C   0  0  0  0  0  3  0  0  0  0  0  0
  185.1030  179.1240  143.2510 C   0  0  0  0  0  2  0  0  0  0  0  0
  184.1940  178.0430  143.0300 N   0  0  0  0  0  0  0  0  0  0  0  0
  184.7810  178.8590  141.1110 C   0  0  0  0  0  0  0  0  0  0  0  0
  184.0050  177.8860  141.7850 N   0  0  0  0  0  0  0  0  0  0  0  0
  184.8340  179.0250  139.7910 C   0  0  0  0  0  2  0  0  0  0  0  0
  187.1380  179.0370  136.7510 O   0  0  0  0  0  0  0  0  0  0  0  0
  189.5560  177.9150  137.2020 N   0  0  0  0  0  0  0  0  0  0  0  0
  188.2670  178.7430  137.2210 C   0  0  0  0  0  0  0  0  0  0  0  0
  189.2750  178.8810  138.1690 C   0  0  1  0  0  3  0  0  0  0  0  0
  188.9040  178.1890  139.4670 C   0  0  0  0  0  2  0  0  0  0  0  0
  190.1500  177.8270  140.2610 C   0  0  0  0  0  2  0  0  0  0  0  0
  188.8190  176.7660  144.3290 C   0  0  0  0  0  2  0  0  0  0  0  0
  191.1040  177.7490  143.7860 C   0  0  0  0  0  2  0  0  0  0  0  0
  190.9910  177.1900  142.3630 C   0  0  0  0  0  2  0  0  0  0  0  0
  188.7750  176.7240  141.7960 C   0  0  0  0  0  2  0  0  0  0  0  0
  189.8240  177.7320  141.6760 N   0  0  0  0  0  0  0  0  0  0  0  0
  189.7590  177.9570  144.4920 C   0  0  2  0  0  3  0  0  0  0  0  0
  187.9630  176.9360  143.0730 C   0  0  0  0  0  2  0  0  0  0  0  0
  189.9900  178.2190  145.9040 N   0  0  0  0  0  2  0  0  0  0  0  0
  189.7980  176.9590  146.6140 C   0  0  1  0  0  3  0  0  0  0  0  0
  191.1420  176.3790  147.0260 C   0  0  0  0  0  1  0  0  0  0  0  0
  188.8900  178.5650  148.3560 C   0  0  0  0  0  1  0  0  0  0  0  0
  187.5800  176.7630  147.5020 O   0  0  0  0  0  1  0  0  0  0  0  0
  188.8850  177.1370  147.8280 C   0  0  1  0  0  3  0  0  0  0  0  0
  195.2220  173.2730  138.0690 C   0  0  0  0  0  0  0  0  0  0  0  0
  196.2150  172.9780  138.5860 N   0  0  0  0  0  0  0  0  0  0  0  0
  2  3  2  0  0  0  0
  2  6  1  0  0  0  0
  3 11  1  0  0  0  0
  4  3  1  0  0  0  0
  5  2  1  0  0  0  0
  6  8  2  0  0  0  0
  7 33  1  1  0  0  0
  7  1  1  0  0  0  0
  8 10  1  0  0  0  0
  8 51  1  0  0  0  0
  9  4  1  1  0  0  0
  9  7  1  0  0  0  0
  9 13  1  0  0  0  0
 11  1  1  0  0  0  0
 11 10  2  0  0  0  0
 13 12  1  6  0  0  0
 14 16  1  0  0  0  0
 14 12  1  1  0  0  0
 14 15  1  0  0  0  0
 15 20  1  6  0  0  0
 16 13  1  0  0  0  0
 16 15  1  0  0  0  0
 17 19  2  0  0  0  0
 18 21  1  0  0  0  0
 19 18  1  0  0  0  0
 20 19  1  0  0  0  0
 21 24  1  0  0  0  0
 21 31  1  0  0  0  0
 22 25  1  0  0  0  0
 23 25  1  0  0  0  0
 23 21  1  0  0  0  0
 23 24  1  0  0  0  0
 25 24  1  0  0  0  0
 26 27  1  0  0  0  0
 28 27  1  0  0  0  0
 29 30  1  0  0  0  0
 29 26  2  0  0  0  0
 30 28  2  0  0  0  0
 31 29  1  0  0  0  0
 32 34  2  0  0  0  0
 33 34  1  0  0  0  0
 33 35  1  0  0  0  0
 34 35  1  0  0  0  0
 35 36  1  0  0  0  0
 36 37  1  0  0  0  0
 37 42  1  0  0  0  0
 38 43  1  0  0  0  0
 39 43  1  0  0  0  0
 40 39  1  0  0  0  0
 41 44  1  0  0  0  0
 42 41  1  0  0  0  0
 42 40  1  0  0  0  0
 43 45  1  0  0  0  0
 44 38  1  0  0  0  0
 45 46  1  0  0  0  0
 46 47  1  0  0  0  0
 46 50  1  0  0  0  0
 49 50  1  0  0  0  0
 50 48  1  0  0  0  0
 51 52  3  0  0  0  0
M  END
>  <MODEL>
3

>  <REMARK>
 VINA RESULT:      -7.7      2.944      9.679
  Name = 
  12 active torsions:
  status: ('A' for Active; 'I' for Inactive)
    1  A    between atoms: C_2  and  N_19
    2  A    between atoms: C_2  and  C_52
    3  A    between atoms: N_6  and  C_29
    4  A    between atoms: N_9  and  C_13
    5  A    between atoms: N_9  and  C_43
    6  A    between atoms: C_10  and  C_30
    7  A    between atoms: C_12  and  C_32
    8  A    between atoms: C_13  and  C_41
    9  A    between atoms: C_26  and  C_33
   10  A    between atoms: C_26  and  N_37
   11  A    between atoms: C_33  and  CA_44
   12  A    between atoms: C_42  and  N_47
                            x       y       z     vdW  Elec       q    Type
                         _______ _______ _______ _____ _____    ______ ____

>  <TORSDO>
F 12

$$$$
=
 OpenBabel10222420143D

 52 60  0  0  1  0  0  0  0  0999 V2000
  180.8420  180.8650  139.4630 C   0  0  0  0  0  2  0  0  0  0  0  0
  180.0990  180.7340  135.7310 C   0  0  0  0  0  0  0  0  0  0  0  0
  180.2610  180.3220  137.0610 C   0  0  0  0  0  0  0  0  0  0  0  0
  179.9950  178.9680  137.4460 N   0  0  0  0  0  2  0  0  0  0  0  0
  179.6830  179.8080  134.7310 N   0  0  0  0  0  1  0  0  0  0  0  0
  180.3470  182.0270  135.3860 N   0  0  0  0  0  0  0  0  0  0  0  0
  180.0380  179.6070  139.8010 C   0  0  1  0  0  3  0  0  0  0  0  0
  180.7610  182.9450  136.3020 C   0  0  0  0  0  0  0  0  0  0  0  0
  180.3090  178.4790  138.7900 C   0  0  2  0  0  3  0  0  0  0  0  0
  180.9200  182.5790  137.6410 C   0  0  0  0  0  3  0  0  0  0  0  0
  180.6530  181.2670  138.0280 C   0  0  0  0  0  0  0  0  0  0  0  0
  182.4420  178.2470  137.5780 N   0  0  0  0  0  2  0  0  0  0  0  0
  181.7610  177.9770  138.8390 C   0  0  2  0  0  3  0  0  0  0  0  0
  182.4920  176.8140  137.3180 C   0  0  1  0  0  3  0  0  0  0  0  0
  183.2610  176.0980  138.4120 C   0  0  1  0  0  3  0  0  0  0  0  0
  181.8180  176.4840  138.6270 C   0  0  1  0  0  3  0  0  0  0  0  0
  184.5250  172.8600  137.2810 O   0  0  0  0  0  0  0  0  0  0  0  0
  185.7280  174.8580  137.4550 N   0  0  0  0  0  2  0  0  0  0  0  0
  184.5340  174.0800  137.5970 C   0  0  0  0  0  0  0  0  0  0  0  0
  183.3400  174.6800  138.1000 N   0  0  0  0  0  2  0  0  0  0  0  0
  186.9250  174.3820  136.7710 C   0  0  1  0  0  0  0  0  0  0  0  0
  187.0140  171.0290  135.2960 C   0  0  0  0  0  1  0  0  0  0  0  0
  187.1280  172.8920  136.9270 C   0  0  1  0  0  3  0  0  0  0  0  0
  186.7220  173.4700  135.5780 C   0  0  2  0  0  3  0  0  0  0  0  0
  187.7150  172.3250  135.6480 C   0  0  2  0  0  3  0  0  0  0  0  0
  189.3640  177.3030  137.4030 C   0  0  0  0  0  3  0  0  0  0  0  0
  188.8580  178.4790  137.7710 C   0  0  0  0  0  2  0  0  0  0  0  0
  187.4330  178.4080  137.8650 N   0  0  0  0  0  0  0  0  0  0  0  0
  188.1860  176.4670  137.2640 C   0  0  0  0  0  0  0  0  0  0  0  0
  187.0380  177.2390  137.5710 N   0  0  0  0  0  0  0  0  0  0  0  0
  188.1790  175.1890  136.8920 C   0  0  0  0  0  2  0  0  0  0  0  0
  179.6210  177.1680  142.8300 O   0  0  0  0  0  0  0  0  0  0  0  0
  180.2980  179.1910  141.1690 N   0  0  0  0  0  0  0  0  0  0  0  0
  180.1300  178.2030  142.3280 C   0  0  0  0  0  0  0  0  0  0  0  0
  180.9940  179.2910  142.3740 C   0  0  1  0  0  3  0  0  0  0  0  0
  182.4310  178.8590  142.1540 C   0  0  0  0  0  2  0  0  0  0  0  0
  183.1390  178.6390  143.4820 C   0  0  0  0  0  2  0  0  0  0  0  0
  187.4120  178.3500  142.4330 C   0  0  0  0  0  2  0  0  0  0  0  0
  186.4330  177.5890  144.6580 C   0  0  0  0  0  2  0  0  0  0  0  0
  185.2730  178.5720  144.4680 C   0  0  0  0  0  2  0  0  0  0  0  0
  185.0330  179.1970  142.2320 C   0  0  0  0  0  2  0  0  0  0  0  0
  184.5290  178.2780  143.2480 N   0  0  0  0  0  0  0  0  0  0  0  0
  187.1250  177.1670  143.3560 C   0  0  2  0  0  3  0  0  0  0  0  0
  186.2280  178.5900  141.4970 C   0  0  0  0  0  2  0  0  0  0  0  0
  188.3610  176.4690  143.6690 N   0  0  0  0  0  2  0  0  0  0  0  0
  189.4460  177.4390  143.5550 C   0  0  1  0  0  3  0  0  0  0  0  0
  189.8530  177.9350  144.9340 C   0  0  0  0  0  1  0  0  0  0  0  0
  191.5320  176.0030  143.7140 C   0  0  0  0  0  1  0  0  0  0  0  0
  190.2060  176.0800  141.7330 O   0  0  0  0  0  1  0  0  0  0  0  0
  190.6450  176.8490  142.8110 C   0  0  1  0  0  3  0  0  0  0  0  0
  181.0090  184.2990  135.8960 C   0  0  0  0  0  0  0  0  0  0  0  0
  181.2090  185.3900  135.5650 N   0  0  0  0  0  0  0  0  0  0  0  0
  2  3  1  0  0  0  0
  3  4  1  0  0  0  0
  3 11  2  0  0  0  0
  5  2  1  0  0  0  0
  6  2  2  0  0  0  0
  6  8  1  0  0  0  0
  7  1  1  6  0  0  0
  7 33  1  0  0  0  0
  8 10  2  0  0  0  0
  9  4  1  6  0  0  0
  9 13  1  0  0  0  0
  9  7  1  0  0  0  0
 10 11  1  0  0  0  0
 11  1  1  0  0  0  0
 13 12  1  6  0  0  0
 14 12  1  1  0  0  0
 14 15  1  0  0  0  0
 14 16  1  0  0  0  0
 15 20  1  6  0  0  0
 15 16  1  0  0  0  0
 16 13  1  0  0  0  0
 17 19  2  0  0  0  0
 18 19  1  0  0  0  0
 19 20  1  0  0  0  0
 21 31  1  0  0  0  0
 21 23  1  0  0  0  0
 21 18  1  0  0  0  0
 22 25  1  0  0  0  0
 24 25  1  0  0  0  0
 24 21  1  0  0  0  0
 24 23  1  0  0  0  0
 25 23  1  0  0  0  0
 26 27  1  0  0  0  0
 27 28  1  0  0  0  0
 29 26  2  0  0  0  0
 29 30  1  0  0  0  0
 30 28  2  0  0  0  0
 31 29  1  0  0  0  0
 33 34  1  0  0  0  0
 33 35  1  0  0  0  0
 34 35  1  0  0  0  0
 34 32  2  0  0  0  0
 36 35  1  0  0  0  0
 36 37  1  0  0  0  0
 38 43  1  0  0  0  0
 40 39  1  0  0  0  0
 41 42  1  0  0  0  0
 42 37  1  0  0  0  0
 42 40  1  0  0  0  0
 43 45  1  0  0  0  0
 43 39  1  0  0  0  0
 44 41  1  0  0  0  0
 44 38  1  0  0  0  0
 46 45  1  0  0  0  0
 46 47  1  0  0  0  0
 49 50  1  0  0  0  0
 50 46  1  0  0  0  0
 50 48  1  0  0  0  0
 51  8  1  0  0  0  0
 52 51  3  0  0  0  0
M  END
>  <MODEL>
4

>  <REMARK>
 VINA RESULT:      -7.5      3.255      9.471
  Name = 
  12 active torsions:
  status: ('A' for Active; 'I' for Inactive)
    1  A    between atoms: C_2  and  N_19
    2  A    between atoms: C_2  and  C_52
    3  A    between atoms: N_6  and  C_29
    4  A    between atoms: N_9  and  C_13
    5  A    between atoms: N_9  and  C_43
    6  A    between atoms: C_10  and  C_30
    7  A    between atoms: C_12  and  C_32
    8  A    between atoms: C_13  and  C_41
    9  A    between atoms: C_26  and  C_33
   10  A    between atoms: C_26  and  N_37
   11  A    between atoms: C_33  and  CA_44
   12  A    between atoms: C_42  and  N_47
                            x       y       z     vdW  Elec       q    Type
                         _______ _______ _______ _____ _____    ______ ____

>  <TORSDO>
F 12

$$$$
=
 OpenBabel10222420143D

 52 60  0  0  1  0  0  0  0  0999 V2000
  187.8500  177.1470  144.5730 C   0  0  0  0  0  2  0  0  0  0  0  0
  191.4960  178.2430  144.5240 C   0  0  0  0  0  0  0  0  0  0  0  0
  190.1430  178.1400  144.1740 C   0  0  0  0  0  0  0  0  0  0  0  0
  189.6030  178.9190  143.0990 N   0  0  0  0  0  2  0  0  0  0  0  0
  192.3660  179.1130  143.8050 N   0  0  0  0  0  1  0  0  0  0  0  0
  191.9890  177.5030  145.5540 N   0  0  0  0  0  0  0  0  0  0  0  0
  187.3340  178.3720  143.8150 C   0  0  1  0  0  3  0  0  0  0  0  0
  191.2010  176.6480  146.2620 C   0  0  0  0  0  0  0  0  0  0  0  0
  188.2370  178.7110  142.6150 C   0  0  2  0  0  3  0  0  0  0  0  0
  189.8440  176.5270  145.9550 C   0  0  0  0  0  3  0  0  0  0  0  0
  189.3050  177.2880  144.9180 C   0  0  0  0  0  0  0  0  0  0  0  0
  189.5590  177.0540  141.3580 N   0  0  0  0  0  2  0  0  0  0  0  0
  188.2240  177.6150  141.5370 C   0  0  2  0  0  3  0  0  0  0  0  0
  189.6110  177.6500  140.0290 C   0  0  1  0  0  3  0  0  0  0  0  0
  188.4860  177.1210  139.1600 C   0  0  1  0  0  3  0  0  0  0  0  0
  188.2220  178.2240  140.1560 C   0  0  1  0  0  3  0  0  0  0  0  0
  189.1560  177.4800  135.5850 O   0  0  0  0  0  0  0  0  0  0  0  0
  189.2760  175.5160  136.8490 N   0  0  0  0  0  2  0  0  0  0  0  0
  189.0160  176.9170  136.7040 C   0  0  0  0  0  0  0  0  0  0  0  0
  188.5940  177.6910  137.8270 N   0  0  0  0  0  2  0  0  0  0  0  0
  189.8950  174.6990  135.8120 C   0  0  1  0  0  0  0  0  0  0  0  0
  188.3780  171.5230  134.7940 C   0  0  0  0  0  1  0  0  0  0  0  0
  189.6880  173.2180  136.0400 C   0  0  1  0  0  3  0  0  0  0  0  0
  188.9690  173.9230  134.8990 C   0  0  2  0  0  3  0  0  0  0  0  0
  189.5140  172.5210  134.7040 C   0  0  2  0  0  3  0  0  0  0  0  0
  193.6890  175.3940  135.7690 C   0  0  0  0  0  3  0  0  0  0  0  0
  194.3700  175.2540  136.9050 C   0  0  0  0  0  2  0  0  0  0  0  0
  193.5020  174.8470  137.9660 N   0  0  0  0  0  0  0  0  0  0  0  0
  192.3320  175.0540  136.1540 C   0  0  0  0  0  0  0  0  0  0  0  0
  192.3150  174.7300  137.5320 N   0  0  0  0  0  0  0  0  0  0  0  0
  191.2710  175.0630  135.3500 C   0  0  0  0  0  2  0  0  0  0  0  0
  183.4810  178.6210  144.4330 O   0  0  0  0  0  0  0  0  0  0  0  0
  185.9490  178.1790  143.4210 N   0  0  0  0  0  0  0  0  0  0  0  0
  184.4460  178.3120  143.6870 C   0  0  0  0  0  0  0  0  0  0  0  0
  184.9690  177.8770  142.4750 C   0  0  1  0  0  3  0  0  0  0  0  0
  184.9280  178.9810  141.4350 C   0  0  0  0  0  2  0  0  0  0  0  0
  183.5210  179.1510  140.8820 C   0  0  0  0  0  2  0  0  0  0  0  0
  182.6750  177.7440  136.7900 C   0  0  0  0  0  2  0  0  0  0  0  0
  184.9780  177.6740  137.8760 C   0  0  0  0  0  2  0  0  0  0  0  0
  184.5620  178.8250  138.7980 C   0  0  0  0  0  2  0  0  0  0  0  0
  182.2400  179.0260  138.9320 C   0  0  0  0  0  2  0  0  0  0  0  0
  183.4040  178.4600  139.6070 N   0  0  0  0  0  0  0  0  0  0  0  0
  183.8060  176.8610  137.3120 C   0  0  2  0  0  3  0  0  0  0  0  0
  181.6760  178.0400  137.9080 C   0  0  0  0  0  2  0  0  0  0  0  0
  184.2880  175.9910  136.2520 N   0  0  0  0  0  2  0  0  0  0  0  0
  184.2560  174.6260  136.7660 C   0  0  1  0  0  3  0  0  0  0  0  0
  183.0480  173.8860  136.2130 C   0  0  0  0  0  1  0  0  0  0  0  0
  186.0220  173.0020  137.5930 C   0  0  0  0  0  1  0  0  0  0  0  0
  185.3750  173.0940  135.2990 O   0  0  0  0  0  1  0  0  0  0  0  0
  185.5510  173.8780  136.4410 C   0  0  1  0  0  3  0  0  0  0  0  0
  191.7610  175.8870  147.3420 C   0  0  0  0  0  0  0  0  0  0  0  0
  192.2100  175.2710  148.2130 N   0  0  0  0  0  0  0  0  0  0  0  0
  1 11  1  0  0  0  0
  2  6  1  0  0  0  0
  3  2  2  0  0  0  0
  3 11  1  0  0  0  0
  4  3  1  0  0  0  0
  5  2  1  0  0  0  0
  6  8  2  0  0  0  0
  7 33  1  6  0  0  0
  7  1  1  0  0  0  0
  8 51  1  0  0  0  0
  9  4  1  1  0  0  0
  9  7  1  0  0  0  0
 10  8  1  0  0  0  0
 11 10  2  0  0  0  0
 13 12  1  6  0  0  0
 13  9  1  0  0  0  0
 14 16  1  0  0  0  0
 14 12  1  1  0  0  0
 15 20  1  6  0  0  0
 15 14  1  0  0  0  0
 15 16  1  0  0  0  0
 16 13  1  0  0  0  0
 17 19  2  0  0  0  0
 19 18  1  0  0  0  0
 19 20  1  0  0  0  0
 21 23  1  0  0  0  0
 21 18  1  0  0  0  0
 24 21  1  0  0  0  0
 24 23  1  0  0  0  0
 25 22  1  0  0  0  0
 25 24  1  0  0  0  0
 25 23  1  0  0  0  0
 26 29  2  0  0  0  0
 26 27  1  0  0  0  0
 27 28  1  0  0  0  0
 29 30  1  0  0  0  0
 30 28  2  0  0  0  0
 31 21  1  0  0  0  0
 31 29  1  0  0  0  0
 33 34  1  0  0  0  0
 34 32  2  0  0  0  0
 35 33  1  0  0  0  0
 35 34  1  0  0  0  0
 36 35  1  0  0  0  0
 37 36  1  0  0  0  0
 38 43  1  0  0  0  0
 38 44  1  0  0  0  0
 39 40  1  0  0  0  0
 40 42  1  0  0  0  0
 41 42  1  0  0  0  0
 42 37  1  0  0  0  0
 43 39  1  0  0  0  0
 44 41  1  0  0  0  0
 45 46  1  0  0  0  0
 45 43  1  0  0  0  0
 47 46  1  0  0  0  0
 49 50  1  0  0  0  0
 50 46  1  0  0  0  0
 50 48  1  0  0  0  0
 51 52  3  0  0  0  0
M  END
>  <MODEL>
5

>  <REMARK>
 VINA RESULT:      -7.3      2.644      8.895
  Name = 
  12 active torsions:
  status: ('A' for Active; 'I' for Inactive)
    1  A    between atoms: C_2  and  N_19
    2  A    between atoms: C_2  and  C_52
    3  A    between atoms: N_6  and  C_29
    4  A    between atoms: N_9  and  C_13
    5  A    between atoms: N_9  and  C_43
    6  A    between atoms: C_10  and  C_30
    7  A    between atoms: C_12  and  C_32
    8  A    between atoms: C_13  and  C_41
    9  A    between atoms: C_26  and  C_33
   10  A    between atoms: C_26  and  N_37
   11  A    between atoms: C_33  and  CA_44
   12  A    between atoms: C_42  and  N_47
                            x       y       z     vdW  Elec       q    Type
                         _______ _______ _______ _____ _____    ______ ____

>  <TORSDO>
F 12

$$$$
=
 OpenBabel10222420143D

 52 60  0  0  1  0  0  0  0  0999 V2000
  183.0340  180.3840  139.1760 C   0  0  0  0  0  2  0  0  0  0  0  0
  179.8650  180.1770  137.0750 C   0  0  0  0  0  0  0  0  0  0  0  0
  180.9570  179.7840  137.8620 C   0  0  0  0  0  0  0  0  0  0  0  0
  181.1450  178.4090  138.2200 N   0  0  0  0  0  2  0  0  0  0  0  0
  178.9310  179.2120  136.6000 N   0  0  0  0  0  1  0  0  0  0  0  0
  179.6980  181.4880  136.7540 N   0  0  0  0  0  0  0  0  0  0  0  0
  182.8060  179.0490  139.8890 C   0  0  1  0  0  3  0  0  0  0  0  0
  180.5720  182.4450  137.1710 C   0  0  0  0  0  0  0  0  0  0  0  0
  182.3580  177.9560  138.9030 C   0  0  2  0  0  3  0  0  0  0  0  0
  181.6640  182.0980  137.9700 C   0  0  0  0  0  3  0  0  0  0  0  0
  181.8500  180.7640  138.3330 C   0  0  0  0  0  0  0  0  0  0  0  0
  182.8470  177.3560  136.5630 N   0  0  0  0  0  2  0  0  0  0  0  0
  183.4430  177.6080  137.8710 C   0  0  2  0  0  3  0  0  0  0  0  0
  183.2270  175.9550  136.6800 C   0  0  1  0  0  3  0  0  0  0  0  0
  184.7300  175.8180  136.8240 C   0  0  1  0  0  3  0  0  0  0  0  0
  183.8830  176.1720  138.0210 C   0  0  1  0  0  3  0  0  0  0  0  0
  186.6250  172.7030  136.5580 O   0  0  0  0  0  0  0  0  0  0  0  0
  187.4280  174.8730  136.2150 N   0  0  0  0  0  2  0  0  0  0  0  0
  186.3920  173.9420  136.5520 C   0  0  0  0  0  0  0  0  0  0  0  0
  185.0850  174.4090  136.8850 N   0  0  0  0  0  2  0  0  0  0  0  0
  188.7230  174.4780  135.6750 C   0  0  1  0  0  0  0  0  0  0  0  0
  189.3290  171.0180  134.6340 C   0  0  0  0  0  1  0  0  0  0  0  0
  189.0890  173.0530  136.0270 C   0  0  1  0  0  3  0  0  0  0  0  0
  188.7280  173.4170  134.5940 C   0  0  2  0  0  3  0  0  0  0  0  0
  189.8400  172.4240  134.8690 C   0  0  2  0  0  3  0  0  0  0  0  0
  191.5590  176.6740  137.0970 C   0  0  0  0  0  3  0  0  0  0  0  0
  191.7810  176.6450  138.4100 C   0  0  0  0  0  2  0  0  0  0  0  0
  190.8720  175.7510  139.0560 N   0  0  0  0  0  0  0  0  0  0  0  0
  190.4550  175.7470  136.9300 C   0  0  0  0  0  0  0  0  0  0  0  0
  190.0990  175.2260  138.1980 N   0  0  0  0  0  0  0  0  0  0  0  0
  189.8590  175.4470  135.7780 C   0  0  0  0  0  2  0  0  0  0  0  0
  186.6780  178.6980  140.3150 O   0  0  0  0  0  0  0  0  0  0  0  0
  183.9940  178.6630  140.6330 N   0  0  0  0  0  0  0  0  0  0  0  0
  185.5150  178.5610  140.7750 C   0  0  0  0  0  0  0  0  0  0  0  0
  184.6320  178.2490  141.8030 C   0  0  1  0  0  3  0  0  0  0  0  0
  184.5660  179.3660  142.8260 C   0  0  0  0  0  2  0  0  0  0  0  0
  184.3020  178.8100  144.2170 C   0  0  0  0  0  2  0  0  0  0  0  0
  187.6230  177.8870  146.9670 C   0  0  0  0  0  2  0  0  0  0  0  0
  187.4220  176.9520  144.6060 C   0  0  0  0  0  2  0  0  0  0  0  0
  185.9040  177.1490  144.6730 C   0  0  0  0  0  2  0  0  0  0  0  0
  185.3070  178.6880  146.3230 C   0  0  0  0  0  2  0  0  0  0  0  0
  185.5640  178.5510  144.8930 N   0  0  0  0  0  0  0  0  0  0  0  0
  188.2190  177.8490  145.5620 C   0  0  2  0  0  3  0  0  0  0  0  0
  186.5970  179.0150  147.0770 C   0  0  0  0  0  2  0  0  0  0  0  0
  189.5980  177.3920  145.6180 N   0  0  0  0  0  2  0  0  0  0  0  0
  190.2250  177.7530  144.3510 C   0  0  1  0  0  3  0  0  0  0  0  0
  191.1040  178.9800  144.5320 C   0  0  0  0  0  1  0  0  0  0  0  0
  190.2110  175.7360  142.8110 C   0  0  0  0  0  1  0  0  0  0  0  0
  192.1660  177.0660  143.1240 O   0  0  0  0  0  1  0  0  0  0  0  0
  191.0280  176.5860  143.7740 C   0  0  1  0  0  3  0  0  0  0  0  0
  180.3560  183.8170  136.8110 C   0  0  0  0  0  0  0  0  0  0  0  0
  180.1790  184.9230  136.5200 N   0  0  0  0  0  0  0  0  0  0  0  0
  2  3  1  0  0  0  0
  3  4  1  0  0  0  0
  3 11  2  0  0  0  0
  5  2  1  0  0  0  0
  6  2  2  0  0  0  0
  6  8  1  0  0  0  0
  7  1  1  6  0  0  0
  7 33  1  0  0  0  0
  8 10  2  0  0  0  0
  9  4  1  6  0  0  0
  9  7  1  0  0  0  0
 10 11  1  0  0  0  0
 11  1  1  0  0  0  0
 13 12  1  6  0  0  0
 13 16  1  0  0  0  0
 13  9  1  0  0  0  0
 14 12  1  6  0  0  0
 14 15  1  0  0  0  0
 14 16  1  0  0  0  0
 15 20  1  1  0  0  0
 15 16  1  0  0  0  0
 18 19  1  0  0  0  0
 19 17  2  0  0  0  0
 19 20  1  0  0  0  0
 21 31  1  0  0  0  0
 21 23  1  0  0  0  0
 21 18  1  0  0  0  0
 22 25  1  0  0  0  0
 24 25  1  0  0  0  0
 24 21  1  0  0  0  0
 24 23  1  0  0  0  0
 25 23  1  0  0  0  0
 26 27  1  0  0  0  0
 27 28  1  0  0  0  0
 29 26  2  0  0  0  0
 29 30  1  0  0  0  0
 30 28  2  0  0  0  0
 31 29  1  0  0  0  0
 32 34  2  0  0  0  0
 33 34  1  0  0  0  0
 33 35  1  0  0  0  0
 34 35  1  0  0  0  0
 35 36  1  0  0  0  0
 36 37  1  0  0  0  0
 37 42  1  0  0  0  0
 38 44  1  0  0  0  0
 39 40  1  0  0  0  0
 39 43  1  0  0  0  0
 40 42  1  0  0  0  0
 41 44  1  0  0  0  0
 42 41  1  0  0  0  0
 43 45  1  0  0  0  0
 43 38  1  0  0  0  0
 46 47  1  0  0  0  0
 46 45  1  0  0  0  0
 48 50  1  0  0  0  0
 49 50  1  0  0  0  0
 50 46  1  0  0  0  0
 51  8  1  0  0  0  0
 52 51  3  0  0  0  0
M  END
>  <MODEL>
6

>  <REMARK>
 VINA RESULT:      -7.0      2.760      9.539
  Name = 
  12 active torsions:
  status: ('A' for Active; 'I' for Inactive)
    1  A    between atoms: C_2  and  N_19
    2  A    between atoms: C_2  and  C_52
    3  A    between atoms: N_6  and  C_29
    4  A    between atoms: N_9  and  C_13
    5  A    between atoms: N_9  and  C_43
    6  A    between atoms: C_10  and  C_30
    7  A    between atoms: C_12  and  C_32
    8  A    between atoms: C_13  and  C_41
    9  A    between atoms: C_26  and  C_33
   10  A    between atoms: C_26  and  N_37
   11  A    between atoms: C_33  and  CA_44
   12  A    between atoms: C_42  and  N_47
                            x       y       z     vdW  Elec       q    Type
                         _______ _______ _______ _____ _____    ______ ____

>  <TORSDO>
F 12

$$$$
=
 OpenBabel10222420143D

 52 60  0  0  1  0  0  0  0  0999 V2000
  190.6450  175.8750  137.6510 C   0  0  0  0  0  2  0  0  0  0  0  0
  191.9460  172.8890  135.6780 C   0  0  0  0  0  0  0  0  0  0  0  0
  191.1050  173.9260  136.1030 C   0  0  0  0  0  0  0  0  0  0  0  0
  189.8530  174.1700  135.4490 N   0  0  0  0  0  2  0  0  0  0  0  0
  191.5660  172.0460  134.5950 N   0  0  0  0  0  1  0  0  0  0  0  0
  193.1350  172.6800  136.3060 N   0  0  0  0  0  0  0  0  0  0  0  0
  189.6630  176.3300  136.5680 C   0  0  1  0  0  3  0  0  0  0  0  0
  193.5360  173.4500  137.3540 C   0  0  0  0  0  0  0  0  0  0  0  0
  188.8900  175.1390  135.9740 C   0  0  2  0  0  3  0  0  0  0  0  0
  192.7340  174.5030  137.8000 C   0  0  0  0  0  3  0  0  0  0  0  0
  191.5190  174.7550  137.1620 C   0  0  0  0  0  0  0  0  0  0  0  0
  188.2240  173.0230  137.0490 N   0  0  0  0  0  2  0  0  0  0  0  0
  187.9700  174.4590  137.0020 C   0  0  2  0  0  3  0  0  0  0  0  0
  186.9060  172.7910  136.4720 C   0  0  1  0  0  3  0  0  0  0  0  0
  185.8220  173.3590  137.3670 C   0  0  1  0  0  3  0  0  0  0  0  0
  186.5860  174.2640  136.4320 C   0  0  1  0  0  3  0  0  0  0  0  0
  182.2450  173.5100  136.6290 O   0  0  0  0  0  0  0  0  0  0  0  0
  183.4770  175.0090  137.9340 N   0  0  0  0  0  2  0  0  0  0  0  0
  183.3630  173.8490  137.1010 C   0  0  0  0  0  0  0  0  0  0  0  0
  184.5170  173.0660  136.7950 N   0  0  0  0  0  2  0  0  0  0  0  0
  182.3300  175.7440  138.4540 C   0  0  1  0  0  0  0  0  0  0  0  0
  179.8640  174.0780  140.5900 C   0  0  0  0  0  1  0  0  0  0  0  0
  181.1000  174.8770  138.5960 C   0  0  1  0  0  3  0  0  0  0  0  0
  181.8350  175.3680  139.8350 C   0  0  2  0  0  3  0  0  0  0  0  0
  180.3200  175.3030  139.8250 C   0  0  2  0  0  3  0  0  0  0  0  0
  182.3640  179.5690  137.9480 C   0  0  0  0  0  3  0  0  0  0  0  0
  183.0750  180.3110  138.7940 C   0  0  0  0  0  2  0  0  0  0  0  0
  183.7200  179.4870  139.7690 N   0  0  0  0  0  0  0  0  0  0  0  0
  182.5850  178.2170  138.4290 C   0  0  0  0  0  0  0  0  0  0  0  0
  183.4370  178.2680  139.5590 N   0  0  0  0  0  0  0  0  0  0  0  0
  182.0590  177.1110  137.9080 C   0  0  0  0  0  2  0  0  0  0  0  0
  186.1630  177.6320  137.7280 O   0  0  0  0  0  0  0  0  0  0  0  0
  188.7750  177.3560  137.0880 N   0  0  0  0  0  0  0  0  0  0  0  0
  187.3940  177.8260  137.5550 C   0  0  0  0  0  0  0  0  0  0  0  0
  188.5430  178.5990  137.6790 C   0  0  1  0  0  3  0  0  0  0  0  0
  189.0670  178.5760  139.1020 C   0  0  0  0  0  2  0  0  0  0  0  0
  188.4090  177.4620  139.9020 C   0  0  0  0  0  2  0  0  0  0  0  0
  190.7870  177.2520  143.6090 C   0  0  0  0  0  2  0  0  0  0  0  0
  189.0440  179.0460  143.1310 C   0  0  0  0  0  2  0  0  0  0  0  0
  189.2460  178.8220  141.6290 C   0  0  0  0  0  2  0  0  0  0  0  0
  190.2230  176.7480  141.1920 C   0  0  0  0  0  2  0  0  0  0  0  0
  188.9420  177.4450  141.2560 N   0  0  0  0  0  0  0  0  0  0  0  0
  189.4410  177.8510  144.0080 C   0  0  2  0  0  3  0  0  0  0  0  0
  190.5900  176.1620  142.5550 C   0  0  0  0  0  2  0  0  0  0  0  0
  189.4720  178.2640  145.4010 N   0  0  0  0  0  2  0  0  0  0  0  0
  189.0440  177.1210  146.2000 C   0  0  1  0  0  3  0  0  0  0  0  0
  190.1330  176.7330  147.1870 C   0  0  0  0  0  1  0  0  0  0  0  0
  187.9420  177.8590  148.3630 C   0  0  0  0  0  1  0  0  0  0  0  0
  187.0050  178.3820  146.2330 O   0  0  0  0  0  1  0  0  0  0  0  0
  187.7280  177.4090  146.9250 C   0  0  1  0  0  3  0  0  0  0  0  0
  194.7990  173.1950  137.9870 C   0  0  0  0  0  0  0  0  0  0  0  0
  195.8190  172.9920  138.4950 N   0  0  0  0  0  0  0  0  0  0  0  0
  2  3  2  0  0  0  0
  2  6  1  0  0  0  0
  3 11  1  0  0  0  0
  4  3  1  0  0  0  0
  5  2  1  0  0  0  0
  6  8  2  0  0  0  0
  7 33  1  1  0  0  0
  7  1  1  0  0  0  0
  8 10  1  0  0  0  0
  8 51  1  0  0  0  0
  9  4  1  1  0  0  0
  9  7  1  0  0  0  0
  9 13  1  0  0  0  0
 11  1  1  0  0  0  0
 11 10  2  0  0  0  0
 13 12  1  6  0  0  0
 14 12  1  1  0  0  0
 14 15  1  0  0  0  0
 15 20  1  6  0  0  0
 16 14  1  0  0  0  0
 16 13  1  0  0  0  0
 16 15  1  0  0  0  0
 17 19  2  0  0  0  0
 18 21  1  0  0  0  0
 19 18  1  0  0  0  0
 20 19  1  0  0  0  0
 21 23  1  0  0  0  0
 21 24  1  0  0  0  0
 23 25  1  0  0  0  0
 23 24  1  0  0  0  0
 25 24  1  0  0  0  0
 25 22  1  0  0  0  0
 26 29  2  0  0  0  0
 26 27  1  0  0  0  0
 27 28  1  0  0  0  0
 29 30  1  0  0  0  0
 30 28  2  0  0  0  0
 31 29  1  0  0  0  0
 31 21  1  0  0  0  0
 33 34  1  0  0  0  0
 33 35  1  0  0  0  0
 34 35  1  0  0  0  0
 34 32  2  0  0  0  0
 35 36  1  0  0  0  0
 36 37  1  0  0  0  0
 37 42  1  0  0  0  0
 38 43  1  0  0  0  0
 39 43  1  0  0  0  0
 40 39  1  0  0  0  0
 41 42  1  0  0  0  0
 41 44  1  0  0  0  0
 42 40  1  0  0  0  0
 43 45  1  0  0  0  0
 44 38  1  0  0  0  0
 45 46  1  0  0  0  0
 46 50  1  0  0  0  0
 46 47  1  0  0  0  0
 49 50  1  0  0  0  0
 50 48  1  0  0  0  0
 51 52  3  0  0  0  0
M  END
>  <MODEL>
7

>  <REMARK>
 VINA RESULT:      -7.0      2.711      9.886
  Name = 
  12 active torsions:
  status: ('A' for Active; 'I' for Inactive)
    1  A    between atoms: C_2  and  N_19
    2  A    between atoms: C_2  and  C_52
    3  A    between atoms: N_6  and  C_29
    4  A    between atoms: N_9  and  C_13
    5  A    between atoms: N_9  and  C_43
    6  A    between atoms: C_10  and  C_30
    7  A    between atoms: C_12  and  C_32
    8  A    between atoms: C_13  and  C_41
    9  A    between atoms: C_26  and  C_33
   10  A    between atoms: C_26  and  N_37
   11  A    between atoms: C_33  and  CA_44
   12  A    between atoms: C_42  and  N_47
                            x       y       z     vdW  Elec       q    Type
                         _______ _______ _______ _____ _____    ______ ____

>  <TORSDO>
F 12

$$$$
=
 OpenBabel10222420143D

 52 60  0  0  1  0  0  0  0  0999 V2000
  187.9600  177.7620  138.6660 C   0  0  0  0  0  2  0  0  0  0  0  0
  190.3440  176.4460  136.0040 C   0  0  0  0  0  0  0  0  0  0  0  0
  189.1630  176.8790  136.6220 C   0  0  0  0  0  0  0  0  0  0  0  0
  187.9320  176.9360  135.8910 N   0  0  0  0  0  2  0  0  0  0  0  0
  190.3410  176.0380  134.6400 N   0  0  0  0  0  1  0  0  0  0  0  0
  191.5050  176.4090  136.7130 N   0  0  0  0  0  0  0  0  0  0  0  0
  186.9120  178.2620  137.6680 C   0  0  1  0  0  3  0  0  0  0  0  0
  191.5570  176.7740  138.0230 C   0  0  0  0  0  0  0  0  0  0  0  0
  186.6610  177.2300  136.5540 C   0  0  2  0  0  3  0  0  0  0  0  0
  190.4050  177.2260  138.6720 C   0  0  0  0  0  3  0  0  0  0  0  0
  189.2050  177.2950  137.9660 C   0  0  0  0  0  0  0  0  0  0  0  0
  186.9300  174.8000  136.8700 N   0  0  0  0  0  2  0  0  0  0  0  0
  186.0320  175.9300  137.0830 C   0  0  2  0  0  3  0  0  0  0  0  0
  185.9890  174.2600  135.8970 C   0  0  1  0  0  3  0  0  0  0  0  0
  184.6430  173.9960  136.5430 C   0  0  1  0  0  3  0  0  0  0  0  0
  185.0150  175.3930  136.1060 C   0  0  1  0  0  3  0  0  0  0  0  0
  181.6280  173.2360  134.6210 O   0  0  0  0  0  0  0  0  0  0  0  0
  181.8810  174.9030  136.2420 N   0  0  0  0  0  2  0  0  0  0  0  0
  182.3820  173.8250  135.4420 C   0  0  0  0  0  0  0  0  0  0  0  0
  183.7420  173.4100  135.5640 N   0  0  0  0  0  2  0  0  0  0  0  0
  180.4700  175.2580  136.3240 C   0  0  1  0  0  0  0  0  0  0  0  0
  179.2090  178.2690  134.6600 C   0  0  0  0  0  1  0  0  0  0  0  0
  180.2470  176.7540  136.3250 C   0  0  1  0  0  3  0  0  0  0  0  0
  179.8520  175.9230  135.1120 C   0  0  2  0  0  3  0  0  0  0  0  0
  178.9750  177.0750  135.5630 C   0  0  2  0  0  3  0  0  0  0  0  0
  178.9310  173.9130  139.5960 C   0  0  0  0  0  3  0  0  0  0  0  0
  179.4490  174.3220  140.7530 C   0  0  0  0  0  2  0  0  0  0  0  0
  180.5290  175.2320  140.5280 N   0  0  0  0  0  0  0  0  0  0  0  0
  179.7350  174.6100  138.6100 C   0  0  0  0  0  0  0  0  0  0  0  0
  180.6980  175.4020  139.2810 N   0  0  0  0  0  0  0  0  0  0  0  0
  179.6050  174.5080  137.2890 C   0  0  0  0  0  2  0  0  0  0  0  0
  183.0530  178.0370  138.2620 O   0  0  0  0  0  0  0  0  0  0  0  0
  185.6890  178.6320  138.3600 N   0  0  0  0  0  0  0  0  0  0  0  0
  184.1790  178.5030  138.5790 C   0  0  0  0  0  0  0  0  0  0  0  0
  185.0080  179.2470  139.4110 C   0  0  1  0  0  3  0  0  0  0  0  0
  185.3050  178.5010  140.6980 C   0  0  0  0  0  2  0  0  0  0  0  0
  185.0460  179.3860  141.9070 C   0  0  0  0  0  2  0  0  0  0  0  0
  186.1810  177.5000  145.7280 C   0  0  0  0  0  2  0  0  0  0  0  0
  187.3140  177.0080  143.5010 C   0  0  0  0  0  2  0  0  0  0  0  0
  186.0350  177.4350  142.7720 C   0  0  0  0  0  2  0  0  0  0  0  0
  184.6750  178.7610  144.1280 C   0  0  0  0  0  2  0  0  0  0  0  0
  185.6910  178.8190  143.0820 N   0  0  0  0  0  0  0  0  0  0  0  0
  187.4660  177.5960  144.9090 C   0  0  2  0  0  3  0  0  0  0  0  0
  185.3230  178.7470  145.5130 C   0  0  0  0  0  2  0  0  0  0  0  0
  188.5490  176.9170  145.6020 N   0  0  0  0  0  2  0  0  0  0  0  0
  189.7020  177.8120  145.5830 C   0  0  1  0  0  3  0  0  0  0  0  0
  190.7250  177.3710  146.6170 C   0  0  0  0  0  1  0  0  0  0  0  0
  191.0970  179.1790  143.9640 C   0  0  0  0  0  1  0  0  0  0  0  0
  191.1800  176.7950  143.9930 O   0  0  0  0  0  1  0  0  0  0  0  0
  190.3290  177.8840  144.1900 C   0  0  1  0  0  3  0  0  0  0  0  0
  192.8030  176.7210  138.7320 C   0  0  0  0  0  0  0  0  0  0  0  0
  193.8070  176.6800  139.3070 N   0  0  0  0  0  0  0  0  0  0  0  0
  2  3  2  0  0  0  0
  2  6  1  0  0  0  0
  3 11  1  0  0  0  0
  4  3  1  0  0  0  0
  5  2  1  0  0  0  0
  6  8  2  0  0  0  0
  7 33  1  1  0  0  0
  7  1  1  0  0  0  0
  8 10  1  0  0  0  0
  8 51  1  0  0  0  0
  9  4  1  1  0  0  0
  9 13  1  0  0  0  0
  9  7  1  0  0  0  0
 11  1  1  0  0  0  0
 11 10  2  0  0  0  0
 13 12  1  6  0  0  0
 14 16  1  0  0  0  0
 14 15  1  0  0  0  0
 14 12  1  1  0  0  0
 15 20  1  6  0  0  0
 16 15  1  0  0  0  0
 16 13  1  0  0  0  0
 17 19  2  0  0  0  0
 18 21  1  0  0  0  0
 19 20  1  0  0  0  0
 19 18  1  0  0  0  0
 21 23  1  0  0  0  0
 21 31  1  0  0  0  0
 22 25  1  0  0  0  0
 24 25  1  0  0  0  0
 24 21  1  0  0  0  0
 24 23  1  0  0  0  0
 25 23  1  0  0  0  0
 26 27  1  0  0  0  0
 28 27  1  0  0  0  0
 29 30  1  0  0  0  0
 29 26  2  0  0  0  0
 30 28  2  0  0  0  0
 31 29  1  0  0  0  0
 32 34  2  0  0  0  0
 33 34  1  0  0  0  0
 33 35  1  0  0  0  0
 34 35  1  0  0  0  0
 35 36  1  0  0  0  0
 36 37  1  0  0  0  0
 37 42  1  0  0  0  0
 39 43  1  0  0  0  0
 40 42  1  0  0  0  0
 40 39  1  0  0  0  0
 41 44  1  0  0  0  0
 42 41  1  0  0  0  0
 43 45  1  0  0  0  0
 43 38  1  0  0  0  0
 44 38  1  0  0  0  0
 46 45  1  0  0  0  0
 46 47  1  0  0  0  0
 48 50  1  0  0  0  0
 49 50  1  0  0  0  0
 50 46  1  0  0  0  0
 51 52  3  0  0  0  0
M  END
>  <MODEL>
8

>  <REMARK>
 VINA RESULT:      -6.9      2.305     10.494
  Name = 
  12 active torsions:
  status: ('A' for Active; 'I' for Inactive)
    1  A    between atoms: C_2  and  N_19
    2  A    between atoms: C_2  and  C_52
    3  A    between atoms: N_6  and  C_29
    4  A    between atoms: N_9  and  C_13
    5  A    between atoms: N_9  and  C_43
    6  A    between atoms: C_10  and  C_30
    7  A    between atoms: C_12  and  C_32
    8  A    between atoms: C_13  and  C_41
    9  A    between atoms: C_26  and  C_33
   10  A    between atoms: C_26  and  N_37
   11  A    between atoms: C_33  and  CA_44
   12  A    between atoms: C_42  and  N_47
                            x       y       z     vdW  Elec       q    Type
                         _______ _______ _______ _____ _____    ______ ____

>  <TORSDO>
F 12

$$$$
=
 OpenBabel10222420143D

 52 60  0  0  1  0  0  0  0  0999 V2000
  191.0830  176.2930  137.4080 C   0  0  0  0  0  2  0  0  0  0  0  0
  192.3560  173.0900  135.7880 C   0  0  0  0  0  0  0  0  0  0  0  0
  191.5330  174.1870  136.0790 C   0  0  0  0  0  0  0  0  0  0  0  0
  190.3110  174.3970  135.3590 N   0  0  0  0  0  2  0  0  0  0  0  0
  191.9850  172.1530  134.7810 N   0  0  0  0  0  1  0  0  0  0  0  0
  193.5170  172.9130  136.4750 N   0  0  0  0  0  0  0  0  0  0  0  0
  190.1510  176.6630  136.2510 C   0  0  1  0  0  3  0  0  0  0  0  0
  193.9070  173.7730  137.4550 C   0  0  0  0  0  0  0  0  0  0  0  0
  189.3620  175.4400  135.7520 C   0  0  2  0  0  3  0  0  0  0  0  0
  193.1230  174.8870  137.7660 C   0  0  0  0  0  3  0  0  0  0  0  0
  191.9380  175.1070  137.0640 C   0  0  0  0  0  0  0  0  0  0  0  0
  188.2990  173.4390  136.7210 N   0  0  0  0  0  2  0  0  0  0  0  0
  188.3890  174.8920  136.8090 C   0  0  2  0  0  3  0  0  0  0  0  0
  186.9230  173.5700  136.2590 C   0  0  1  0  0  3  0  0  0  0  0  0
  186.0760  174.2820  137.2960 C   0  0  1  0  0  3  0  0  0  0  0  0
  186.9580  175.0750  136.3630 C   0  0  1  0  0  3  0  0  0  0  0  0
  182.6300  175.4040  136.8160 O   0  0  0  0  0  0  0  0  0  0  0  0
  184.3290  176.5260  137.9670 N   0  0  0  0  0  2  0  0  0  0  0  0
  183.8330  175.4290  137.1910 C   0  0  0  0  0  0  0  0  0  0  0  0
  184.6990  174.3520  136.8330 N   0  0  0  0  0  2  0  0  0  0  0  0
  183.4740  177.5600  138.5400 C   0  0  1  0  0  0  0  0  0  0  0  0
  183.6220  178.3230  142.1200 C   0  0  0  0  0  1  0  0  0  0  0  0
  183.0580  177.2470  139.9600 C   0  0  1  0  0  3  0  0  0  0  0  0
  184.0450  178.3730  139.6840 C   0  0  2  0  0  3  0  0  0  0  0  0
  182.9890  178.5340  140.7610 C   0  0  2  0  0  3  0  0  0  0  0  0
  179.9910  178.3420  137.0780 C   0  0  0  0  0  3  0  0  0  0  0  0
  178.9310  177.7430  137.6180 C   0  0  0  0  0  3  0  0  0  0  0  0
  179.3280  176.8880  138.6930 N   0  0  0  0  0  0  0  0  0  0  0  0
  181.0960  177.8270  137.8650 C   0  0  0  0  0  0  0  0  0  0  0  0
  180.5870  176.9340  138.8400 N   0  0  0  0  0  0  0  0  0  0  0  0
  182.3810  178.1270  137.6890 C   0  0  0  0  0  3  0  0  0  0  0  0
  186.6300  178.2410  136.8870 O   0  0  0  0  0  0  0  0  0  0  0  0
  189.2780  177.7600  136.6350 N   0  0  0  0  0  0  0  0  0  0  0  0
  187.8850  178.3390  136.8950 C   0  0  0  0  0  0  0  0  0  0  0  0
  189.0590  179.0240  137.1840 C   0  0  1  0  0  3  0  0  0  0  0  0
  189.3680  178.9790  138.6690 C   0  0  0  0  0  2  0  0  0  0  0  0
  188.6520  177.8130  139.3340 C   0  0  0  0  0  2  0  0  0  0  0  0
  188.3730  177.5680  143.7280 C   0  0  0  0  0  2  0  0  0  0  0  0
  190.5540  177.3960  142.4230 C   0  0  0  0  0  2  0  0  0  0  0  0
  189.7670  176.9150  141.2000 C   0  0  0  0  0  2  0  0  0  0  0  0
  187.5100  177.4890  141.3470 C   0  0  0  0  0  2  0  0  0  0  0  0
  188.7870  177.9100  140.7800 N   0  0  0  0  0  0  0  0  0  0  0  0
  189.7270  178.2080  143.4280 C   0  0  2  0  0  3  0  0  0  0  0  0
  187.3180  178.0770  142.7460 C   0  0  0  0  0  2  0  0  0  0  0  0
  190.4840  178.3700  144.6580 N   0  0  0  0  0  2  0  0  0  0  0  0
  190.4040  177.1080  145.3850 C   0  0  1  0  0  3  0  0  0  0  0  0
  191.6730  176.2970  145.1700 C   0  0  0  0  0  1  0  0  0  0  0  0
  188.6880  177.1390  147.2540 C   0  0  0  0  0  1  0  0  0  0  0  0
  190.9480  176.4810  147.6340 O   0  0  0  0  0  1  0  0  0  0  0  0
  190.1490  177.3370  146.8760 C   0  0  1  0  0  3  0  0  0  0  0  0
  195.1400  173.5490  138.1540 C   0  0  0  0  0  0  0  0  0  0  0  0
  196.1360  173.3730  138.7170 N   0  0  0  0  0  0  0  0  0  0  0  0
  2  3  2  0  0  0  0
  2  6  1  0  0  0  0
  3 11  1  0  0  0  0
  4  3  1  0  0  0  0
  5  2  1  0  0  0  0
  6  8  2  0  0  0  0
  7 33  1  1  0  0  0
  7  1  1  0  0  0  0
  8 10  1  0  0  0  0
  8 51  1  0  0  0  0
  9  4  1  1  0  0  0
  9  7  1  0  0  0  0
  9 13  1  0  0  0  0
 11  1  1  0  0  0  0
 11 10  2  0  0  0  0
 13 12  1  6  0  0  0
 14 16  1  0  0  0  0
 14 12  1  1  0  0  0
 14 15  1  0  0  0  0
 15 20  1  6  0  0  0
 16 13  1  0  0  0  0
 16 15  1  0  0  0  0
 17 19  2  0  0  0  0
 18 21  1  0  0  0  0
 19 18  1  0  0  0  0
 20 19  1  0  0  0  0
 21 24  1  0  0  0  0
 21 23  1  0  0  0  0
 23 25  1  0  0  0  0
 24 23  1  0  0  0  0
 24 25  1  0  0  0  0
 25 22  1  0  0  0  0
 26 27  2  0  0  0  0
 26 29  1  0  0  0  0
 27 28  1  0  0  0  0
 28 30  2  0  0  0  0
 29 30  1  0  0  0  0
 31 29  2  0  0  0  0
 31 21  1  0  0  0  0
 32 34  2  0  0  0  0
 33 34  1  0  0  0  0
 33 35  1  0  0  0  0
 34 35  1  0  0  0  0
 35 36  1  0  0  0  0
 36 37  1  0  0  0  0
 37 42  1  0  0  0  0
 39 43  1  0  0  0  0
 40 39  1  0  0  0  0
 41 44  1  0  0  0  0
 42 40  1  0  0  0  0
 42 41  1  0  0  0  0
 43 38  1  0  0  0  0
 43 45  1  0  0  0  0
 44 38  1  0  0  0  0
 45 46  1  0  0  0  0
 46 50  1  0  0  0  0
 47 46  1  0  0  0  0
 50 48  1  0  0  0  0
 50 49  1  0  0  0  0
 51 52  3  0  0  0  0
M  END
>  <MODEL>
9

>  <REMARK>
 VINA RESULT:      -6.8      2.805      9.842
  Name = 
  12 active torsions:
  status: ('A' for Active; 'I' for Inactive)
    1  A    between atoms: C_2  and  N_19
    2  A    between atoms: C_2  and  C_52
    3  A    between atoms: N_6  and  C_29
    4  A    between atoms: N_9  and  C_13
    5  A    between atoms: N_9  and  C_43
    6  A    between atoms: C_10  and  C_30
    7  A    between atoms: C_12  and  C_32
    8  A    between atoms: C_13  and  C_41
    9  A    between atoms: C_26  and  C_33
   10  A    between atoms: C_26  and  N_37
   11  A    between atoms: C_33  and  CA_44
   12  A    between atoms: C_42  and  N_47
                            x       y       z     vdW  Elec       q    Type
                         _______ _______ _______ _____ _____    ______ ____

>  <TORSDO>
F 12

$$$$
