=
 OpenBabel10222417093D

 25 28  0  0  1  0  0  0  0  0999 V2000
  191.2210  176.3590  146.7870 C   0  0  0  0  0  0  0  0  0  0  0  0
  189.8990  176.4680  147.0190 N   0  0  0  0  0  0  0  0  0  0  0  0
  190.4190  177.7470  145.3390 C   0  0  0  0  0  0  0  0  0  0  0  0
  191.6110  177.1620  145.7300 C   0  0  0  0  0  3  0  0  0  0  0  0
  189.4080  177.3180  146.1320 N   0  0  0  0  0  0  0  0  0  0  0  0
  187.2910  177.4820  144.8150 C   0  0  0  0  0  3  0  0  0  0  0  0
  187.4660  178.1510  147.2080 C   0  0  0  0  0  3  0  0  0  0  0  0
  186.0340  177.7500  144.4760 C   0  0  0  0  0  3  0  0  0  0  0  0
  186.1200  178.5780  147.4250 N   0  0  0  0  0  0  0  0  0  0  0  0
  183.7750  178.5330  144.6230 F   0  0  0  0  0  0  0  0  0  0  0  0
  185.0020  178.6860  146.5450 C   0  0  0  0  0  3  0  0  0  0  0  0
  184.9530  178.3410  145.2640 C   0  0  0  0  0  0  0  0  0  0  0  0
  188.0150  177.6880  146.0810 C   0  0  1  0  0  3  0  0  0  0  0  0
  192.1250  175.5120  147.5650 C   0  0  0  0  0  3  0  0  0  0  0  0
  192.9580  176.0310  148.4040 N   0  0  0  0  0  2  0  0  0  0  0  0
  190.3180  178.8080  144.2890 C   0  0  0  0  0  2  0  0  0  0  0  0
  188.4910  177.4130  139.8450 O   0  0  0  0  0  0  0  0  0  0  0  0
  189.2690  178.1440  142.1050 C   0  0  0  0  0  3  0  0  0  0  0  0
  191.6460  177.7240  142.4440 C   0  0  0  0  0  3  0  0  0  0  0  0
  190.6290  177.1360  140.4140 C   0  0  0  0  0  0  0  0  0  0  0  0
  190.4080  178.2060  142.9280 C   0  0  0  0  0  0  0  0  0  0  0  0
  191.7400  177.1920  141.1890 N   0  0  0  0  0  0  0  0  0  0  0  0
  189.1350  176.8040  138.7160 C   0  0  0  0  0  3  0  0  0  0  0  0
  190.5460  176.6250  139.0990 N   0  0  0  0  0  0  0  0  0  0  0  0
  189.4290  177.5920  140.8390 C   0  0  0  0  0  0  0  0  0  0  0  0
  1  2  2  0  0  0  0
  1 14  1  0  0  0  0
  3  4  2  0  0  0  0
  3  5  1  0  0  0  0
  4  1  1  0  0  0  0
  5  2  1  0  0  0  0
  7  9  2  0  0  0  0
  8  6  2  0  0  0  0
  8 12  1  0  0  0  0
 10 12  1  0  0  0  0
 11  9  1  0  0  0  0
 12 11  2  0  0  0  0
 13  6  1  1  0  0  0
 13  5  1  0  0  0  0
 13  7  1  0  0  0  0
 14 15  2  0  0  0  0
 16  3  1  0  0  0  0
 17 25  1  0  0  0  0
 18 21  1  0  0  0  0
 19 21  2  0  0  0  0
 20 25  1  0  0  0  0
 20 22  2  0  0  0  0
 21 16  1  0  0  0  0
 22 19  1  0  0  0  0
 23 24  2  0  0  0  0
 23 17  1  0  0  0  0
 24 20  1  0  0  0  0
 25 18  2  0  0  0  0
M  END
>  <MODEL>
1

>  <REMARK>
 VINA RESULT:      -8.9      0.000      0.000
  Name = 
  4 active torsions:
  status: ('A' for Active; 'I' for Inactive)
    1  A    between atoms: C_1  and  C_4
    2  A    between atoms: C_7  and  C_14
    3  A    between atoms: C_7  and  C_15
    4  A    between atoms: N_19  and  C_24
                            x       y       z     vdW  Elec       q    Type
                         _______ _______ _______ _____ _____    ______ ____

>  <TORSDO>
F 4

$$$$
=
 OpenBabel10222417093D

 25 28  0  0  1  0  0  0  0  0999 V2000
  191.3840  176.3790  146.5820 C   0  0  0  0  0  0  0  0  0  0  0  0
  190.0900  176.5150  146.9270 N   0  0  0  0  0  0  0  0  0  0  0  0
  190.4580  177.6880  145.1340 C   0  0  0  0  0  0  0  0  0  0  0  0
  191.6780  177.1160  145.4480 C   0  0  0  0  0  3  0  0  0  0  0  0
  189.5220  177.3150  146.0400 N   0  0  0  0  0  0  0  0  0  0  0  0
  187.3210  177.5270  144.8770 C   0  0  0  0  0  3  0  0  0  0  0  0
  187.6660  178.1320  147.2690 C   0  0  0  0  0  3  0  0  0  0  0  0
  186.0460  177.8120  144.6330 C   0  0  0  0  0  3  0  0  0  0  0  0
  186.3420  178.5610  147.5900 N   0  0  0  0  0  0  0  0  0  0  0  0
  183.8080  178.6050  144.9560 F   0  0  0  0  0  0  0  0  0  0  0  0
  185.1670  178.7000  146.7920 C   0  0  0  0  0  3  0  0  0  0  0  0
  185.0260  178.3880  145.5090 C   0  0  0  0  0  0  0  0  0  0  0  0
  188.1320  177.6950  146.0950 C   0  0  1  0  0  3  0  0  0  0  0  0
  192.3530  175.5710  147.3220 C   0  0  0  0  0  3  0  0  0  0  0  0
  192.9190  176.0300  148.3880 N   0  0  0  0  0  2  0  0  0  0  0  0
  190.2650  178.6870  144.0360 C   0  0  0  0  0  2  0  0  0  0  0  0
  192.6150  177.1890  139.8800 O   0  0  0  0  0  0  0  0  0  0  0  0
  191.5610  178.0080  141.9930 C   0  0  0  0  0  3  0  0  0  0  0  0
  189.2130  177.3720  142.1640 C   0  0  0  0  0  3  0  0  0  0  0  0
  190.4660  176.7450  140.2810 C   0  0  0  0  0  0  0  0  0  0  0  0
  190.3470  178.0210  142.7040 C   0  0  0  0  0  0  0  0  0  0  0  0
  189.2880  176.7410  140.9530 N   0  0  0  0  0  0  0  0  0  0  0  0
  192.1400  176.4320  138.7560 C   0  0  0  0  0  3  0  0  0  0  0  0
  190.7210  176.1430  139.0280 N   0  0  0  0  0  0  0  0  0  0  0  0
  191.5730  177.3500  140.7690 C   0  0  0  0  0  0  0  0  0  0  0  0
  1  2  2  0  0  0  0
  1 14  1  0  0  0  0
  3  4  2  0  0  0  0
  3  5  1  0  0  0  0
  4  1  1  0  0  0  0
  5 13  1  0  0  0  0
  5  2  1  0  0  0  0
  7  9  2  0  0  0  0
  8  6  2  0  0  0  0
  8 12  1  0  0  0  0
 10 12  1  0  0  0  0
 11  9  1  0  0  0  0
 12 11  2  0  0  0  0
 13  6  1  1  0  0  0
 13  7  1  0  0  0  0
 14 15  2  0  0  0  0
 16  3  1  0  0  0  0
 17 25  1  0  0  0  0
 18 21  1  0  0  0  0
 19 21  2  0  0  0  0
 20 25  1  0  0  0  0
 20 22  2  0  0  0  0
 21 16  1  0  0  0  0
 22 19  1  0  0  0  0
 23 24  2  0  0  0  0
 23 17  1  0  0  0  0
 24 20  1  0  0  0  0
 25 18  2  0  0  0  0
M  END
>  <MODEL>
2

>  <REMARK>
 VINA RESULT:      -8.6      1.127      1.415
  Name = 
  4 active torsions:
  status: ('A' for Active; 'I' for Inactive)
    1  A    between atoms: C_1  and  C_4
    2  A    between atoms: C_7  and  C_14
    3  A    between atoms: C_7  and  C_15
    4  A    between atoms: N_19  and  C_24
                            x       y       z     vdW  Elec       q    Type
                         _______ _______ _______ _____ _____    ______ ____

>  <TORSDO>
F 4

$$$$
=
 OpenBabel10222417093D

 25 28  0  0  0  0  0  0  0  0999 V2000
  190.5910  176.8260  146.4500 C   0  0  0  0  0  0  0  0  0  0  0  0
  189.2470  176.8990  146.4660 N   0  0  0  0  0  0  0  0  0  0  0  0
  189.9820  177.9740  144.7250 C   0  0  0  0  0  0  0  0  0  0  0  0
  191.1160  177.5050  145.3650 C   0  0  0  0  0  3  0  0  0  0  0  0
  188.8740  177.6020  145.4090 N   0  0  0  0  0  0  0  0  0  0  0  0
  186.6580  178.4730  146.1660 C   0  0  0  0  0  3  0  0  0  0  0  0
  187.0860  177.6560  143.8520 C   0  0  0  0  0  3  0  0  0  0  0  0
  185.3730  178.8120  146.1770 C   0  0  0  0  0  2  0  0  0  0  0  0
  185.7860  177.8590  143.2940 N   0  0  0  0  0  0  0  0  0  0  0  0
  183.1100  179.1070  145.4470 F   0  0  0  0  0  0  0  0  0  0  0  0
  184.5620  178.3110  143.8710 C   0  0  0  0  0  3  0  0  0  0  0  0
  184.3660  178.7180  145.1200 C   0  0  0  0  0  0  0  0  0  0  0  0
  187.4950  177.8930  145.1020 C   0  0  0  0  0  0  0  0  0  0  0  0
  191.3890  176.1320  147.4610 C   0  0  0  0  0  3  0  0  0  0  0  0
  192.4030  175.4090  147.1200 N   0  0  0  0  0  2  0  0  0  0  0  0
  190.0140  178.8850  143.5380 C   0  0  0  0  0  2  0  0  0  0  0  0
  188.6560  176.9460  139.1300 O   0  0  0  0  0  0  0  0  0  0  0  0
  189.1970  177.9570  141.3510 C   0  0  0  0  0  3  0  0  0  0  0  0
  191.5050  177.5400  142.0190 C   0  0  0  0  0  3  0  0  0  0  0  0
  190.7050  176.7050  139.9780 C   0  0  0  0  0  0  0  0  0  0  0  0
  190.2370  178.1060  142.2870 C   0  0  0  0  0  0  0  0  0  0  0  0
  191.7220  176.8420  140.8640 N   0  0  0  0  0  0  0  0  0  0  0  0
  189.4040  176.1790  138.1740 C   0  0  0  0  0  3  0  0  0  0  0  0
  190.7550  176.0250  138.7400 N   0  0  0  0  0  0  0  0  0  0  0  0
  189.4810  177.2380  140.1950 C   0  0  0  0  0  0  0  0  0  0  0  0
  1  2  2  0  0  0  0
  1 14  1  0  0  0  0
  3  4  2  0  0  0  0
  3  5  1  0  0  0  0
  4  1  1  0  0  0  0
  5  2  1  0  0  0  0
  6  8  1  0  0  0  0
  7 13  1  0  0  0  0
  9  7  2  0  0  0  0
  9 11  1  0  0  0  0
 11 12  2  0  0  0  0
 12 10  1  0  0  0  0
 12  8  1  0  0  0  0
 13  5  1  0  0  0  0
 13  6  2  0  0  0  0
 15 14  2  0  0  0  0
 16  3  1  0  0  0  0
 17 25  1  0  0  0  0
 18 21  1  0  0  0  0
 19 21  2  0  0  0  0
 20 25  1  0  0  0  0
 20 22  2  0  0  0  0
 21 16  1  0  0  0  0
 22 19  1  0  0  0  0
 23 24  2  0  0  0  0
 23 17  1  0  0  0  0
 24 20  1  0  0  0  0
 25 18  2  0  0  0  0
M  END
>  <MODEL>
3

>  <REMARK>
 VINA RESULT:      -7.8      1.201      1.547
  Name = 
  4 active torsions:
  status: ('A' for Active; 'I' for Inactive)
    1  A    between atoms: C_1  and  C_4
    2  A    between atoms: C_7  and  C_14
    3  A    between atoms: C_7  and  C_15
    4  A    between atoms: N_19  and  C_24
                            x       y       z     vdW  Elec       q    Type
                         _______ _______ _______ _____ _____    ______ ____

>  <TORSDO>
F 4

$$$$
=
 OpenBabel10222417093D

 25 28  0  0  0  0  0  0  0  0999 V2000
  191.4430  177.4000  140.8400 C   0  0  0  0  0  0  0  0  0  0  0  0
  190.4130  177.9240  140.1480 N   0  0  0  0  0  0  0  0  0  0  0  0
  189.6280  176.9070  141.9020 C   0  0  0  0  0  0  0  0  0  0  0  0
  190.9990  176.7290  141.9660 C   0  0  0  0  0  3  0  0  0  0  0  0
  189.3020  177.6230  140.8000 N   0  0  0  0  0  0  0  0  0  0  0  0
  187.0590  178.5860  141.3360 C   0  0  0  0  0  3  0  0  0  0  0  0
  187.7300  177.8800  139.0430 C   0  0  0  0  0  3  0  0  0  0  0  0
  185.8040  179.0030  141.2120 C   0  0  0  0  0  2  0  0  0  0  0  0
  186.5240  178.1970  138.3450 N   0  0  0  0  0  0  0  0  0  0  0  0
  183.6710  179.4810  140.2320 F   0  0  0  0  0  0  0  0  0  0  0  0
  185.2640  178.6900  138.7960 C   0  0  0  0  0  3  0  0  0  0  0  0
  184.9340  179.0340  140.0360 C   0  0  0  0  0  0  0  0  0  0  0  0
  187.9910  178.0170  140.3460 C   0  0  0  0  0  0  0  0  0  0  0  0
  192.8450  177.5120  140.4400 C   0  0  0  0  0  3  0  0  0  0  0  0
  193.2360  177.1020  139.2790 N   0  0  0  0  0  2  0  0  0  0  0  0
  188.6610  176.2640  142.8460 C   0  0  0  0  0  2  0  0  0  0  0  0
  187.2540  177.9610  147.3380 O   0  0  0  0  0  0  0  0  0  0  0  0
  187.8200  177.1270  145.0500 C   0  0  0  0  0  3  0  0  0  0  0  0
  190.2120  176.7530  144.7680 C   0  0  0  0  0  3  0  0  0  0  0  0
  189.3820  177.5430  146.8150 C   0  0  0  0  0  0  0  0  0  0  0  0
  188.9010  176.7330  144.2410 C   0  0  0  0  0  0  0  0  0  0  0  0
  190.4370  177.1610  146.0530 N   0  0  0  0  0  0  0  0  0  0  0  0
  188.0270  178.2650  148.5090 C   0  0  0  0  0  3  0  0  0  0  0  0
  189.4300  177.9860  148.1560 N   0  0  0  0  0  0  0  0  0  0  0  0
  188.1120  177.5310  146.3480 C   0  0  0  0  0  0  0  0  0  0  0  0
  1  4  1  0  0  0  0
  2  5  1  0  0  0  0
  2  1  2  0  0  0  0
  3  4  2  0  0  0  0
  3 16  1  0  0  0  0
  5  3  1  0  0  0  0
  7 13  1  0  0  0  0
  8  6  1  0  0  0  0
  9 11  1  0  0  0  0
  9  7  2  0  0  0  0
 11 12  2  0  0  0  0
 12 10  1  0  0  0  0
 12  8  1  0  0  0  0
 13  5  1  0  0  0  0
 13  6  2  0  0  0  0
 14  1  1  0  0  0  0
 15 14  2  0  0  0  0
 16 21  1  0  0  0  0
 17 23  1  0  0  0  0
 18 25  2  0  0  0  0
 19 22  1  0  0  0  0
 20 24  1  0  0  0  0
 21 19  2  0  0  0  0
 21 18  1  0  0  0  0
 22 20  2  0  0  0  0
 24 23  2  0  0  0  0
 25 20  1  0  0  0  0
 25 17  1  0  0  0  0
M  END
>  <MODEL>
4

>  <REMARK>
 VINA RESULT:      -7.6      2.862      6.257
  Name = 
  4 active torsions:
  status: ('A' for Active; 'I' for Inactive)
    1  A    between atoms: C_1  and  C_4
    2  A    between atoms: C_7  and  C_14
    3  A    between atoms: C_7  and  C_15
    4  A    between atoms: N_19  and  C_24
                            x       y       z     vdW  Elec       q    Type
                         _______ _______ _______ _____ _____    ______ ____

>  <TORSDO>
F 4

$$$$
=
 OpenBabel10222417093D

 25 28  0  0  0  0  0  0  0  0999 V2000
  188.0910  178.4240  140.5160 C   0  0  0  0  0  0  0  0  0  0  0  0
  186.7750  178.7050  140.4680 N   0  0  0  0  0  0  0  0  0  0  0  0
  187.2450  177.9070  142.4350 C   0  0  0  0  0  0  0  0  0  0  0  0
  188.4460  177.9010  141.7470 C   0  0  0  0  0  3  0  0  0  0  0  0
  186.2580  178.3900  141.6440 N   0  0  0  0  0  0  0  0  0  0  0  0
  184.4930  178.8200  143.3590 C   0  0  0  0  0  3  0  0  0  0  0  0
  183.9950  178.4880  140.9410 C   0  0  0  0  0  3  0  0  0  0  0  0
  183.3060  178.9820  143.9340 C   0  0  0  0  0  2  0  0  0  0  0  0
  182.5720  178.6180  140.9810 N   0  0  0  0  0  0  0  0  0  0  0  0
  180.9290  179.1080  144.2090 F   0  0  0  0  0  0  0  0  0  0  0  0
  181.6630  178.7990  142.0660 C   0  0  0  0  0  3  0  0  0  0  0  0
  181.9650  178.9480  143.3500 C   0  0  0  0  0  0  0  0  0  0  0  0
  184.8600  178.5500  141.9580 C   0  0  0  0  0  0  0  0  0  0  0  0
  189.0180  178.6300  139.4020 C   0  0  0  0  0  3  0  0  0  0  0  0
  188.5900  179.0350  138.2530 N   0  0  0  0  0  2  0  0  0  0  0  0
  187.0660  177.3210  143.8000 C   0  0  0  0  0  2  0  0  0  0  0  0
  190.1930  177.2630  147.7050 O   0  0  0  0  0  0  0  0  0  0  0  0
  188.5300  177.3490  145.8410 C   0  0  0  0  0  3  0  0  0  0  0  0
  189.4960  176.6670  143.7090 C   0  0  0  0  0  3  0  0  0  0  0  0
  190.8230  176.6920  145.6430 C   0  0  0  0  0  0  0  0  0  0  0  0
  188.3880  177.1200  144.4600 C   0  0  0  0  0  0  0  0  0  0  0  0
  190.7050  176.4590  144.3130 N   0  0  0  0  0  0  0  0  0  0  0  0
  191.5800  176.9030  147.7900 C   0  0  0  0  0  3  0  0  0  0  0  0
  191.9890  176.5270  146.4250 N   0  0  0  0  0  0  0  0  0  0  0  0
  189.7840  177.1200  146.3970 C   0  0  0  0  0  0  0  0  0  0  0  0
  1  4  1  0  0  0  0
  2  1  2  0  0  0  0
  2  5  1  0  0  0  0
  3 16  1  0  0  0  0
  4  3  2  0  0  0  0
  5 13  1  0  0  0  0
  5  3  1  0  0  0  0
  6  8  1  0  0  0  0
  7  9  2  0  0  0  0
  7 13  1  0  0  0  0
  9 11  1  0  0  0  0
 11 12  2  0  0  0  0
 12  8  1  0  0  0  0
 12 10  1  0  0  0  0
 13  6  2  0  0  0  0
 14  1  1  0  0  0  0
 15 14  2  0  0  0  0
 16 21  1  0  0  0  0
 17 23  1  0  0  0  0
 18 25  2  0  0  0  0
 19 22  1  0  0  0  0
 19 21  2  0  0  0  0
 20 25  1  0  0  0  0
 20 24  1  0  0  0  0
 21 18  1  0  0  0  0
 22 20  2  0  0  0  0
 24 23  2  0  0  0  0
 25 17  1  0  0  0  0
M  END
>  <MODEL>
5

>  <REMARK>
 VINA RESULT:      -7.6      3.390      6.111
  Name = 
  4 active torsions:
  status: ('A' for Active; 'I' for Inactive)
    1  A    between atoms: C_1  and  C_4
    2  A    between atoms: C_7  and  C_14
    3  A    between atoms: C_7  and  C_15
    4  A    between atoms: N_19  and  C_24
                            x       y       z     vdW  Elec       q    Type
                         _______ _______ _______ _____ _____    ______ ____

>  <TORSDO>
F 4

$$$$
=
 OpenBabel10222417093D

 25 28  0  0  1  0  0  0  0  0999 V2000
  188.4000  178.4340  140.4010 C   0  0  0  0  0  0  0  0  0  0  0  0
  187.1990  178.9420  140.7330 N   0  0  0  0  0  0  0  0  0  0  0  0
  187.7150  177.3850  142.1600 C   0  0  0  0  0  0  0  0  0  0  0  0
  188.7760  177.4270  141.2730 C   0  0  0  0  0  3  0  0  0  0  0  0
  186.7790  178.3010  141.8120 N   0  0  0  0  0  0  0  0  0  0  0  0
  184.2830  178.2880  141.7010 C   0  0  0  0  0  3  0  0  0  0  0  0
  185.5570  179.0330  143.7070 C   0  0  0  0  0  3  0  0  0  0  0  0
  183.0060  178.4630  142.0210 C   0  0  0  0  0  3  0  0  0  0  0  0
  184.4620  179.3760  144.5590 N   0  0  0  0  0  0  0  0  0  0  0  0
  181.0570  179.0990  143.2620 F   0  0  0  0  0  0  0  0  0  0  0  0
  183.0530  179.3860  144.3390 C   0  0  0  0  0  3  0  0  0  0  0  0
  182.4080  179.0030  143.2430 C   0  0  0  0  0  0  0  0  0  0  0  0
  185.5170  178.5760  142.4520 C   0  0  1  0  0  3  0  0  0  0  0  0
  189.1940  178.8790  139.2560 C   0  0  0  0  0  3  0  0  0  0  0  0
  188.6570  179.0030  138.0880 N   0  0  0  0  0  2  0  0  0  0  0  0
  187.5790  176.3650  143.2480 C   0  0  0  0  0  2  0  0  0  0  0  0
  187.5050  177.8640  148.0210 O   0  0  0  0  0  0  0  0  0  0  0  0
  187.3980  177.1110  145.6390 C   0  0  0  0  0  3  0  0  0  0  0  0
  189.5970  177.0520  144.5880 C   0  0  0  0  0  3  0  0  0  0  0  0
  189.3830  177.7260  146.8250 C   0  0  0  0  0  0  0  0  0  0  0  0
  188.1980  176.8610  144.5100 C   0  0  0  0  0  0  0  0  0  0  0  0
  190.1730  177.4850  145.7500 N   0  0  0  0  0  0  0  0  0  0  0  0
  188.5720  178.2650  148.8930 C   0  0  0  0  0  3  0  0  0  0  0  0
  189.8080  178.1710  148.0980 N   0  0  0  0  0  0  0  0  0  0  0  0
  188.0430  177.5490  146.7910 C   0  0  0  0  0  0  0  0  0  0  0  0
  1  2  2  0  0  0  0
  1  4  1  0  0  0  0
  2  5  1  0  0  0  0
  3 16  1  0  0  0  0
  4  3  2  0  0  0  0
  5  3  1  0  0  0  0
  5 13  1  0  0  0  0
  6  8  2  0  0  0  0
  7  9  2  0  0  0  0
  8 12  1  0  0  0  0
 11  9  1  0  0  0  0
 12 10  1  0  0  0  0
 12 11  2  0  0  0  0
 13  6  1  1  0  0  0
 13  7  1  0  0  0  0
 14  1  1  0  0  0  0
 15 14  2  0  0  0  0
 16 21  1  0  0  0  0
 17 23  1  0  0  0  0
 18 25  2  0  0  0  0
 19 22  1  0  0  0  0
 20 24  1  0  0  0  0
 21 19  2  0  0  0  0
 21 18  1  0  0  0  0
 22 20  2  0  0  0  0
 24 23  2  0  0  0  0
 25 20  1  0  0  0  0
 25 17  1  0  0  0  0
M  END
>  <MODEL>
6

>  <REMARK>
 VINA RESULT:      -7.5      2.978      6.085
  Name = 
  4 active torsions:
  status: ('A' for Active; 'I' for Inactive)
    1  A    between atoms: C_1  and  C_4
    2  A    between atoms: C_7  and  C_14
    3  A    between atoms: C_7  and  C_15
    4  A    between atoms: N_19  and  C_24
                            x       y       z     vdW  Elec       q    Type
                         _______ _______ _______ _____ _____    ______ ____

>  <TORSDO>
F 4

$$$$
=
 OpenBabel10222417093D

 25 28  0  0  1  0  0  0  0  0999 V2000
  186.8410  178.5520  141.5440 C   0  0  0  0  0  0  0  0  0  0  0  0
  187.8570  178.5660  140.6610 N   0  0  0  0  0  0  0  0  0  0  0  0
  188.3250  177.1440  142.2360 C   0  0  0  0  0  0  0  0  0  0  0  0
  187.0910  177.6670  142.5780 C   0  0  0  0  0  3  0  0  0  0  0  0
  188.7660  177.7030  141.0840 N   0  0  0  0  0  0  0  0  0  0  0  0
  189.9320  177.0420  138.9760 C   0  0  0  0  0  3  0  0  0  0  0  0
  191.1370  177.6660  141.0650 C   0  0  0  0  0  3  0  0  0  0  0  0
  190.8890  176.7270  138.1100 C   0  0  0  0  0  3  0  0  0  0  0  0
  192.4820  177.5030  140.6110 N   0  0  0  0  0  0  0  0  0  0  0  0
  193.0680  176.2850  137.2150 F   0  0  0  0  0  0  0  0  0  0  0  0
  193.0190  177.0420  139.3720 C   0  0  0  0  0  3  0  0  0  0  0  0
  192.3420  176.6930  138.2840 C   0  0  0  0  0  0  0  0  0  0  0  0
  190.0040  177.4560  140.3880 C   0  0  1  0  0  3  0  0  0  0  0  0
  185.6390  179.3780  141.4290 C   0  0  0  0  0  3  0  0  0  0  0  0
  184.9440  179.3860  140.3410 N   0  0  0  0  0  2  0  0  0  0  0  0
  189.1030  176.2090  143.1090 C   0  0  0  0  0  2  0  0  0  0  0  0
  187.2640  177.8100  147.4780 O   0  0  0  0  0  0  0  0  0  0  0  0
  188.0470  177.0020  145.2460 C   0  0  0  0  0  3  0  0  0  0  0  0
  190.4790  176.9900  145.0680 C   0  0  0  0  0  3  0  0  0  0  0  0
  189.4500  177.7070  147.0520 C   0  0  0  0  0  0  0  0  0  0  0  0
  189.2090  176.7530  144.4930 C   0  0  0  0  0  0  0  0  0  0  0  0
  190.5830  177.4680  146.3450 N   0  0  0  0  0  0  0  0  0  0  0  0
  187.9310  178.2650  148.6650 C   0  0  0  0  0  3  0  0  0  0  0  0
  189.3730  178.1940  148.3760 N   0  0  0  0  0  0  0  0  0  0  0  0
  188.2190  177.4860  146.5380 C   0  0  0  0  0  0  0  0  0  0  0  0
  1  4  1  0  0  0  0
  2  5  1  0  0  0  0
  2  1  2  0  0  0  0
  3  4  2  0  0  0  0
  3 16  1  0  0  0  0
  5  3  1  0  0  0  0
  8 12  1  0  0  0  0
  8  6  2  0  0  0  0
  9  7  2  0  0  0  0
 10 12  1  0  0  0  0
 11  9  1  0  0  0  0
 12 11  2  0  0  0  0
 13  6  1  6  0  0  0
 13  7  1  0  0  0  0
 13  5  1  0  0  0  0
 14  1  1  0  0  0  0
 15 14  2  0  0  0  0
 16 21  1  0  0  0  0
 17 23  1  0  0  0  0
 18 25  2  0  0  0  0
 19 22  1  0  0  0  0
 20 24  1  0  0  0  0
 21 19  2  0  0  0  0
 21 18  1  0  0  0  0
 22 20  2  0  0  0  0
 24 23  2  0  0  0  0
 25 20  1  0  0  0  0
 25 17  1  0  0  0  0
M  END
>  <MODEL>
7

>  <REMARK>
 VINA RESULT:      -7.5      3.669      7.634
  Name = 
  4 active torsions:
  status: ('A' for Active; 'I' for Inactive)
    1  A    between atoms: C_1  and  C_4
    2  A    between atoms: C_7  and  C_14
    3  A    between atoms: C_7  and  C_15
    4  A    between atoms: N_19  and  C_24
                            x       y       z     vdW  Elec       q    Type
                         _______ _______ _______ _____ _____    ______ ____

>  <TORSDO>
F 4

$$$$
=
 OpenBabel10222417093D

 25 28  0  0  0  0  0  0  0  0999 V2000
  190.4940  176.7310  139.6140 C   0  0  0  0  0  0  0  0  0  0  0  0
  189.1990  176.8680  139.9550 N   0  0  0  0  0  0  0  0  0  0  0  0
  190.4210  177.8850  141.4380 C   0  0  0  0  0  0  0  0  0  0  0  0
  191.3210  177.3530  140.5330 C   0  0  0  0  0  3  0  0  0  0  0  0
  189.1540  177.5770  141.0720 N   0  0  0  0  0  0  0  0  0  0  0  0
  187.7180  177.4160  143.1100 C   0  0  0  0  0  3  0  0  0  0  0  0
  187.0700  178.7080  141.0810 C   0  0  0  0  0  3  0  0  0  0  0  0
  186.6900  177.5470  143.9420 C   0  0  0  0  0  2  0  0  0  0  0  0
  185.7980  179.1920  141.5160 N   0  0  0  0  0  0  0  0  0  0  0  0
  184.5360  178.1660  144.7880 F   0  0  0  0  0  0  0  0  0  0  0  0
  185.0480  178.9620  142.7070 C   0  0  0  0  0  3  0  0  0  0  0  0
  185.4170  178.2440  143.7620 C   0  0  0  0  0  0  0  0  0  0  0  0
  187.9230  177.9180  141.7400 C   0  0  0  0  0  0  0  0  0  0  0  0
  190.9610  176.0030  138.4340 C   0  0  0  0  0  3  0  0  0  0  0  0
  190.3400  174.9510  138.0180 N   0  0  0  0  0  2  0  0  0  0  0  0
  190.8230  178.5690  142.7070 C   0  0  0  0  0  2  0  0  0  0  0  0
  191.7750  176.9730  147.3530 O   0  0  0  0  0  0  0  0  0  0  0  0
  191.2730  177.9020  145.0870 C   0  0  0  0  0  3  0  0  0  0  0  0
  191.6640  176.2750  143.3140 C   0  0  0  0  0  3  0  0  0  0  0  0
  192.0550  175.6890  145.5520 C   0  0  0  0  0  0  0  0  0  0  0  0
  191.2710  177.5700  143.7200 C   0  0  0  0  0  0  0  0  0  0  0  0
  192.0550  175.3470  144.2390 N   0  0  0  0  0  0  0  0  0  0  0  0
  192.2400  175.7020  147.8300 C   0  0  0  0  0  3  0  0  0  0  0  0
  192.4220  174.8590  146.6360 N   0  0  0  0  0  0  0  0  0  0  0  0
  191.6800  176.9150  145.9790 C   0  0  0  0  0  0  0  0  0  0  0  0
  1  2  2  0  0  0  0
  1  4  1  0  0  0  0
  2  5  1  0  0  0  0
  3 16  1  0  0  0  0
  4  3  2  0  0  0  0
  5  3  1  0  0  0  0
  5 13  1  0  0  0  0
  6  8  1  0  0  0  0
  7  9  2  0  0  0  0
  7 13  1  0  0  0  0
  9 11  1  0  0  0  0
 11 12  2  0  0  0  0
 12  8  1  0  0  0  0
 12 10  1  0  0  0  0
 13  6  2  0  0  0  0
 14  1  1  0  0  0  0
 15 14  2  0  0  0  0
 16 21  1  0  0  0  0
 17 23  1  0  0  0  0
 18 25  2  0  0  0  0
 19 21  2  0  0  0  0
 19 22  1  0  0  0  0
 20 25  1  0  0  0  0
 20 24  1  0  0  0  0
 21 18  1  0  0  0  0
 22 20  2  0  0  0  0
 24 23  2  0  0  0  0
 25 17  1  0  0  0  0
M  END
>  <MODEL>
8

>  <REMARK>
 VINA RESULT:      -7.4      2.718      5.679
  Name = 
  4 active torsions:
  status: ('A' for Active; 'I' for Inactive)
    1  A    between atoms: C_1  and  C_4
    2  A    between atoms: C_7  and  C_14
    3  A    between atoms: C_7  and  C_15
    4  A    between atoms: N_19  and  C_24
                            x       y       z     vdW  Elec       q    Type
                         _______ _______ _______ _____ _____    ______ ____

>  <TORSDO>
F 4

$$$$
=
 OpenBabel10222417093D

 25 28  0  0  0  0  0  0  0  0999 V2000
  184.2710  178.1770  141.0520 C   0  0  0  0  0  0  0  0  0  0  0  0
  184.3050  177.9970  142.3860 N   0  0  0  0  0  0  0  0  0  0  0  0
  186.2090  178.8290  141.7470 C   0  0  0  0  0  0  0  0  0  0  0  0
  185.4670  178.6970  140.5870 C   0  0  0  0  0  3  0  0  0  0  0  0
  185.4920  178.3980  142.8120 N   0  0  0  0  0  0  0  0  0  0  0  0
  187.0770  177.5430  144.5440 C   0  0  0  0  0  3  0  0  0  0  0  0
  185.1800  179.0710  145.0640 C   0  0  0  0  0  3  0  0  0  0  0  0
  187.6490  177.2960  145.7170 C   0  0  0  0  0  2  0  0  0  0  0  0
  185.3670  179.1960  146.4750 N   0  0  0  0  0  0  0  0  0  0  0  0
  188.0410  177.2920  148.0800 F   0  0  0  0  0  0  0  0  0  0  0  0
  186.2940  178.5830  147.3700 C   0  0  0  0  0  3  0  0  0  0  0  0
  187.2810  177.7510  147.0580 C   0  0  0  0  0  0  0  0  0  0  0  0
  185.8910  178.3460  144.1960 C   0  0  0  0  0  0  0  0  0  0  0  0
  183.1240  177.8470  140.2060 C   0  0  0  0  0  3  0  0  0  0  0  0
  183.0620  176.7140  139.5890 N   0  0  0  0  0  2  0  0  0  0  0  0
  187.6460  179.2500  141.7720 C   0  0  0  0  0  2  0  0  0  0  0  0
  189.7750  177.4890  137.6000 O   0  0  0  0  0  0  0  0  0  0  0  0
  188.6410  178.4650  139.6030 C   0  0  0  0  0  3  0  0  0  0  0  0
  189.1500  177.2340  141.6450 C   0  0  0  0  0  3  0  0  0  0  0  0
  190.0710  176.5470  139.6000 C   0  0  0  0  0  0  0  0  0  0  0  0
  188.4830  178.2950  140.9900 C   0  0  0  0  0  0  0  0  0  0  0  0
  189.9370  176.3690  140.9380 N   0  0  0  0  0  0  0  0  0  0  0  0
  190.6520  176.3710  137.3960 C   0  0  0  0  0  3  0  0  0  0  0  0
  190.8430  175.7540  138.7200 N   0  0  0  0  0  0  0  0  0  0  0  0
  189.4540  177.5530  138.9400 C   0  0  0  0  0  0  0  0  0  0  0  0
  1  2  2  0  0  0  0
  2  5  1  0  0  0  0
  3 16  1  0  0  0  0
  3  5  1  0  0  0  0
  4  1  1  0  0  0  0
  4  3  2  0  0  0  0
  5 13  1  0  0  0  0
  6  8  1  0  0  0  0
  7  9  2  0  0  0  0
  8 12  1  0  0  0  0
  9 11  1  0  0  0  0
 12 11  2  0  0  0  0
 12 10  1  0  0  0  0
 13  6  2  0  0  0  0
 13  7  1  0  0  0  0
 14  1  1  0  0  0  0
 15 14  2  0  0  0  0
 17 25  1  0  0  0  0
 18 21  1  0  0  0  0
 20 22  2  0  0  0  0
 21 19  2  0  0  0  0
 21 16  1  0  0  0  0
 22 19  1  0  0  0  0
 23 17  1  0  0  0  0
 23 24  2  0  0  0  0
 24 20  1  0  0  0  0
 25 20  1  0  0  0  0
 25 18  2  0  0  0  0
M  END
>  <MODEL>
9

>  <REMARK>
 VINA RESULT:      -7.4      3.187      5.316
  Name = 
  4 active torsions:
  status: ('A' for Active; 'I' for Inactive)
    1  A    between atoms: C_1  and  C_4
    2  A    between atoms: C_7  and  C_14
    3  A    between atoms: C_7  and  C_15
    4  A    between atoms: N_19  and  C_24
                            x       y       z     vdW  Elec       q    Type
                         _______ _______ _______ _____ _____    ______ ____

>  <TORSDO>
F 4

$$$$
