=
 OpenBabel10222419113D

 64 69  0  0  1  0  0  0  0  0999 V2000
  185.9200  178.9990  146.4770 C   0  0  0  0  0  3  0  0  0  0  0  0
  187.8050  178.0120  147.8160 C   0  0  0  0  0  0  0  0  0  0  0  0
  182.4970  178.6380  143.5800 C   0  0  0  0  0  3  0  0  0  0  0  0
  187.2400  177.7630  144.8010 C   0  0  0  0  0  0  0  0  0  0  0  0
  184.1100  178.7270  141.1700 C   0  0  0  0  0  3  0  0  0  0  0  0
  182.7070  178.9120  141.1260 C   0  0  0  0  0  3  0  0  0  0  0  0
  185.0800  178.1890  144.3320 C   0  0  0  0  0  0  0  0  0  0  0  0
  187.1750  178.0260  143.3730 N   0  0  0  0  0  0  0  0  0  0  0  0
  186.7690  179.0300  147.5050 C   0  0  0  0  0  3  0  0  0  0  0  0
  183.8660  178.4630  143.5630 C   0  0  0  0  0  0  0  0  0  0  0  0
  188.3830  177.4990  145.4270 C   0  0  0  0  0  3  0  0  0  0  0  0
  185.7970  178.2490  143.2580 C   0  0  0  0  0  0  0  0  0  0  0  0
  184.6190  178.5050  142.4370 C   0  0  0  0  0  0  0  0  0  0  0  0
  181.9030  178.8680  142.3050 C   0  0  0  0  0  0  0  0  0  0  0  0
  188.5500  177.3450  146.8910 C   0  0  0  0  0  0  0  0  0  0  0  0
  188.0300  177.7900  149.1690 O   0  0  0  0  0  1  0  0  0  0  0  0
  185.8870  177.8600  145.5210 C   0  0  2  0  0  3  0  0  0  0  0  0
  188.0560  177.4780  142.3450 C   0  0  0  0  0  2  0  0  0  0  0  0
  188.6260  178.5920  141.4800 C   0  0  0  0  0  2  0  0  0  0  0  0
  188.0260  177.9860  139.1930 C   0  0  0  0  0  3  0  0  0  0  0  0
  188.9710  178.0710  140.1270 C   0  0  0  0  0  3  0  0  0  0  0  0
  188.3280  177.4610  137.8240 C   0  0  2  0  0  3  0  0  0  0  0  0
  187.3630  178.0550  136.8110 C   0  0  0  0  0  1  0  0  0  0  0  0
  188.1970  176.0680  137.8250 O   0  0  0  0  0  0  0  0  0  0  0  0
  188.4490  175.6700  136.5020 C   0  0  1  0  0  3  0  0  0  0  0  0
  190.8530  175.1200  137.4370 C   0  0  2  0  0  3  0  0  0  0  0  0
  190.3210  174.9040  135.0240 O   0  0  0  0  0  1  0  0  0  0  0  0
  189.9300  175.3470  136.2890 C   0  0  1  0  0  0  0  0  0  0  0  0
  190.7870  176.3580  136.7620 O   0  0  0  0  0  0  0  0  0  0  0  0
  192.1260  174.3890  137.0390 C   0  0  0  0  0  2  0  0  0  0  0  0
  193.1550  175.3210  136.8330 O   0  0  0  0  0  0  0  0  0  0  0  0
  194.0560  175.1200  137.8860 C   0  0  0  0  0  2  0  0  0  0  0  0
  194.4880  173.6610  137.9670 C   0  0  0  0  0  2  0  0  0  0  0  0
  195.5280  173.4910  138.9630 N   0  0  0  0  0  2  0  0  0  0  0  0
  196.7830  173.7320  138.2790 C   0  0  0  0  0  2  0  0  0  0  0  0
  196.5740  173.7290  136.7690 C   0  0  0  0  0  2  0  0  0  0  0  0
  197.3560  174.8210  136.1010 C   0  0  0  0  0  0  0  0  0  0  0  0
  197.8170  174.6670  134.7970 O   0  0  0  0  0  0  0  0  0  0  0  0
  197.6380  175.8680  136.7410 O   0  0  0  0  0  1  0  0  0  0  0  0
  187.5500  174.4960  136.1170 C   0  0  0  0  0  2  0  0  0  0  0  0
  185.6660  173.3540  137.0440 O   0  0  0  0  0  1  0  0  0  0  0  0
  186.1770  174.6210  136.7590 C   0  0  0  0  0  2  0  0  0  0  0  0
  189.5930  176.4760  147.2590 O   0  0  0  0  0  0  0  0  0  0  0  0
  190.9460  176.8580  147.4880 C   0  0  0  0  0  2  0  0  0  0  0  0
  192.8910  175.8170  148.3900 O   0  0  0  0  0  1  0  0  0  0  0  0
  191.8300  175.6230  147.5070 C   0  0  0  0  0  2  0  0  0  0  0  0
  180.4910  179.0670  142.1820 N   0  0  0  0  0  2  0  0  0  0  0  0
  179.7260  178.7120  140.9970 C   0  0  0  0  0  2  0  0  0  0  0  0
  179.3100  181.0580  140.2650 C   0  0  0  0  0  3  0  0  0  0  0  0
  179.8250  179.7920  139.9710 C   0  0  0  0  0  0  0  0  0  0  0  0
  179.9660  181.8670  138.1340 C   0  0  0  0  0  3  0  0  0  0  0  0
  180.4270  179.5640  138.7220 C   0  0  0  0  0  0  0  0  0  0  0  0
  180.4950  180.6180  137.8000 C   0  0  0  0  0  3  0  0  0  0  0  0
  179.3880  182.0580  139.3500 N   0  0  0  0  0  0  0  0  0  0  0  0
  180.1660  177.0940  138.0640 C   0  0  0  0  0  0  0  0  0  0  0  0
  178.9310  177.1870  137.8330 O   0  0  0  0  0  0  0  0  0  0  0  0
  180.9380  178.2600  138.4030 N   0  0  0  0  0  2  0  0  0  0  0  0
  182.1360  175.6440  138.5280 C   0  0  0  0  0  1  0  0  0  0  0  0
  180.8110  175.8210  137.9520 N   0  0  0  0  0  0  0  0  0  0  0  0
  180.0890  174.7220  137.5820 O   0  0  0  0  0  0  0  0  0  0  0  0
  180.0870  175.4480  135.2360 C   0  0  0  0  0  1  0  0  0  0  0  0
  179.6300  173.1300  135.8910 C   0  0  0  0  0  1  0  0  0  0  0  0
  180.4320  174.3620  136.2530 C   0  0  0  0  0  0  0  0  0  0  0  0
  181.9080  173.9960  136.1380 C   0  0  0  0  0  1  0  0  0  0  0  0
  1  9  2  0  0  0  0
  2 16  1  0  0  0  0
  4 11  2  0  0  0  0
  4 17  1  0  0  0  0
  5 13  1  0  0  0  0
  6  5  2  0  0  0  0
  6 14  1  0  0  0  0
  7 17  1  0  0  0  0
  8  4  1  0  0  0  0
  9  2  1  0  0  0  0
 10  3  1  0  0  0  0
 10  7  1  0  0  0  0
 11 15  1  0  0  0  0
 12  8  1  0  0  0  0
 12  7  2  0  0  0  0
 13 12  1  0  0  0  0
 13 10  2  0  0  0  0
 14  3  2  0  0  0  0
 15 43  1  0  0  0  0
 15  2  2  0  0  0  0
 17  1  1  1  0  0  0
 18  8  1  0  0  0  0
 19 18  1  0  0  0  0
 20 21  2  0  0  0  0
 21 19  1  0  0  0  0
 22 23  1  6  0  0  0
 22 24  1  0  0  0  0
 22 20  1  0  0  0  0
 25 40  1  1  0  0  0
 25 24  1  0  0  0  0
 26 30  1  6  0  0  0
 28 27  1  6  0  0  0
 28 25  1  0  0  0  0
 28 29  1  0  0  0  0
 28 26  1  0  0  0  0
 29 26  1  0  0  0  0
 31 30  1  0  0  0  0
 31 32  1  0  0  0  0
 32 33  1  0  0  0  0
 33 34  1  0  0  0  0
 35 34  1  0  0  0  0
 36 35  1  0  0  0  0
 37 39  1  0  0  0  0
 37 36  1  0  0  0  0
 38 37  2  0  0  0  0
 40 42  1  0  0  0  0
 42 41  1  0  0  0  0
 43 44  1  0  0  0  0
 44 46  1  0  0  0  0
 46 45  1  0  0  0  0
 47 14  1  0  0  0  0
 48 47  1  0  0  0  0
 50 49  1  0  0  0  0
 50 48  1  0  0  0  0
 51 54  1  0  0  0  0
 52 50  2  0  0  0  0
 53 51  2  0  0  0  0
 53 52  1  0  0  0  0
 54 49  2  0  0  0  0
 55 57  1  0  0  0  0
 56 55  2  0  0  0  0
 57 52  1  0  0  0  0
 59 55  1  0  0  0  0
 59 58  1  0  0  0  0
 60 59  1  0  0  0  0
 61 63  1  0  0  0  0
 62 63  1  0  0  0  0
 63 60  1  0  0  0  0
 64 63  1  0  0  0  0
M  END
>  <MODEL>
1

>  <REMARK>
 VINA RESULT:      -7.5      0.000      0.000
  Name = 
  26 active torsions:
  status: ('A' for Active; 'I' for Inactive)
    1  A    between atoms: O_2  and  C_5
    2  A    between atoms: O_2  and  C_12
    3  A    between atoms: C_5  and  C_23
    4  A    between atoms: C_9  and  C_31
    5  A    between atoms: C_12  and  C_36
    6  A    between atoms: C_12  and  C_51
    7  A    between atoms: N_16  and  C_18
    8  A    between atoms: N_16  and  C_44
    9  A    between atoms: O_17  and  C_45
   10  A    between atoms: O_17  and  C_57
   11  A    between atoms: C_18  and  C_34
   12  A    between atoms: O_20  and  C_48
   13  A    between atoms: O_20  and  C_54
   14  A    between atoms: N_21  and  C_50
   15  A    between atoms: N_22  and  C_41
   16  A    between atoms: C_24  and  C_48
   17  A    between atoms: C_26  and  C_61
   18  A    between atoms: C_27  and  C_36
   19  A    between atoms: C_31  and  C_38
   20  A    between atoms: C_38  and  N_53
   21  A    between atoms: C_41  and  C_61
   22  A    between atoms: C_45  and  C_49
   23  A    between atoms: C_46  and  O_55
   24  A    between atoms: C_52  and  N_53
   25  A    between atoms: C_52  and  C_54
   26  A    between atoms: O_55  and  N_58
                            x       y       z     vdW  Elec       q    Type
                         _______ _______ _______ _____ _____    ______ ____

>  <TORSDO>
F 26

$$$$
=
 OpenBabel10222419113D

 64 69  0  0  1  0  0  0  0  0999 V2000
  190.2220  176.2930  142.2020 C   0  0  0  0  0  3  0  0  0  0  0  0
  190.6990  176.6980  144.6360 C   0  0  0  0  0  0  0  0  0  0  0  0
  189.4420  177.7480  138.0160 C   0  0  0  0  0  3  0  0  0  0  0  0
  188.4480  177.8610  142.8900 C   0  0  0  0  0  0  0  0  0  0  0  0
  186.6070  178.2450  138.3770 C   0  0  0  0  0  3  0  0  0  0  0  0
  187.1880  178.1900  137.0860 C   0  0  0  0  0  3  0  0  0  0  0  0
  188.9690  177.7580  140.7030 C   0  0  0  0  0  0  0  0  0  0  0  0
  187.2010  178.0330  142.1630 N   0  0  0  0  0  0  0  0  0  0  0  0
  190.6930  175.8980  143.3840 C   0  0  0  0  0  3  0  0  0  0  0  0
  188.8230  177.8140  139.2480 C   0  0  0  0  0  0  0  0  0  0  0  0
  188.5040  177.8420  144.2180 C   0  0  0  0  0  3  0  0  0  0  0  0
  187.7020  177.9600  140.8570 C   0  0  0  0  0  0  0  0  0  0  0  0
  187.4980  178.0460  139.4150 C   0  0  0  0  0  0  0  0  0  0  0  0
  188.5830  177.9480  136.8970 C   0  0  0  0  0  0  0  0  0  0  0  0
  189.7090  177.5480  145.0280 C   0  0  0  0  0  0  0  0  0  0  0  0
  191.7970  176.4960  145.4620 O   0  0  0  0  0  1  0  0  0  0  0  0
  189.6780  177.6610  141.9910 C   0  0  2  0  0  3  0  0  0  0  0  0
  186.0320  178.7900  142.6050 C   0  0  0  0  0  2  0  0  0  0  0  0
  184.7530  178.1420  142.0960 C   0  0  0  0  0  2  0  0  0  0  0  0
  182.3840  178.7320  142.1380 C   0  0  0  0  0  3  0  0  0  0  0  0
  183.5650  178.7590  142.7520 C   0  0  0  0  0  3  0  0  0  0  0  0
  181.1690  179.3460  142.7590 C   0  0  2  0  0  3  0  0  0  0  0  0
  180.7450  178.5480  143.9820 C   0  0  0  0  0  1  0  0  0  0  0  0
  180.1260  179.3490  141.8270 O   0  0  0  0  0  0  0  0  0  0  0  0
  180.6550  178.7430  140.6760 C   0  0  1  0  0  3  0  0  0  0  0  0
  180.7880  176.2950  139.7030 C   0  0  2  0  0  3  0  0  0  0  0  0
  178.9770  176.9760  141.2560 O   0  0  0  0  0  1  0  0  0  0  0  0
  180.0510  177.3550  140.4480 C   0  0  1  0  0  0  0  0  0  0  0  0
  179.7900  177.0840  139.0920 O   0  0  0  0  0  0  0  0  0  0  0  0
  180.2450  174.8990  139.9650 C   0  0  0  0  0  2  0  0  0  0  0  0
  179.3850  174.5270  138.9200 O   0  0  0  0  0  0  0  0  0  0  0  0
  179.8860  173.3120  138.4400 C   0  0  0  0  0  2  0  0  0  0  0  0
  179.8300  173.2590  136.9180 C   0  0  0  0  0  2  0  0  0  0  0  0
  180.9880  173.9120  136.3400 N   0  0  0  0  0  2  0  0  0  0  0  0
  182.1450  173.3300  136.9920 C   0  0  0  0  0  2  0  0  0  0  0  0
  183.1180  172.7790  135.9560 C   0  0  0  0  0  2  0  0  0  0  0  0
  184.3550  172.2280  136.6000 C   0  0  0  0  0  0  0  0  0  0  0  0
  184.7980  172.7230  137.8220 O   0  0  0  0  0  1  0  0  0  0  0  0
  185.0250  171.3410  136.0090 O   0  0  0  0  0  0  0  0  0  0  0  0
  180.4670  179.6500  139.4600 C   0  0  0  0  0  2  0  0  0  0  0  0
  181.6230  181.2850  138.1540 O   0  0  0  0  0  1  0  0  0  0  0  0
  181.8050  180.1340  138.9220 C   0  0  0  0  0  2  0  0  0  0  0  0
  189.7270  178.1880  146.2800 O   0  0  0  0  0  0  0  0  0  0  0  0
  188.5830  178.4830  147.0750 C   0  0  0  0  0  2  0  0  0  0  0  0
  187.9610  176.7720  148.6140 O   0  0  0  0  0  1  0  0  0  0  0  0
  188.7640  177.9030  148.4670 C   0  0  0  0  0  2  0  0  0  0  0  0
  189.0970  177.9020  135.5630 N   0  0  0  0  0  2  0  0  0  0  0  0
  189.8370  176.7720  135.0220 C   0  0  0  0  0  2  0  0  0  0  0  0
  187.9470  175.1520  135.1590 C   0  0  0  0  0  3  0  0  0  0  0  0
  189.2570  175.4870  135.5140 C   0  0  0  0  0  0  0  0  0  0  0  0
  188.0930  173.1190  136.3730 C   0  0  0  0  0  3  0  0  0  0  0  0
  190.0010  174.6080  136.3200 C   0  0  0  0  0  0  0  0  0  0  0  0
  189.4050  173.4140  136.7490 C   0  0  0  0  0  3  0  0  0  0  0  0
  187.3960  173.9890  135.5930 N   0  0  0  0  0  0  0  0  0  0  0  0
  192.5020  174.1110  136.6380 C   0  0  0  0  0  0  0  0  0  0  0  0
  192.4590  173.0090  136.0270 O   0  0  0  0  0  0  0  0  0  0  0  0
  191.3390  174.9550  136.7080 N   0  0  0  0  0  2  0  0  0  0  0  0
  193.7080  175.6240  138.2040 C   0  0  0  0  0  1  0  0  0  0  0  0
  193.7310  174.5390  137.2350 N   0  0  0  0  0  0  0  0  0  0  0  0
  194.8480  173.7610  137.1260 O   0  0  0  0  0  0  0  0  0  0  0  0
  195.1360  175.5670  135.4870 C   0  0  0  0  0  1  0  0  0  0  0  0
  195.8380  173.2620  135.0330 C   0  0  0  0  0  1  0  0  0  0  0  0
  195.7000  174.3010  136.1260 C   0  0  0  0  0  0  0  0  0  0  0  0
  197.0960  174.5750  136.6740 C   0  0  0  0  0  1  0  0  0  0  0  0
  1  9  2  0  0  0  0
  2 15  2  0  0  0  0
  2 16  1  0  0  0  0
  3 10  1  0  0  0  0
  4 11  2  0  0  0  0
  5 13  1  0  0  0  0
  6  5  2  0  0  0  0
  7 12  2  0  0  0  0
  7 17  1  0  0  0  0
  8 18  1  0  0  0  0
  8  4  1  0  0  0  0
  9  2  1  0  0  0  0
 10 13  2  0  0  0  0
 10  7  1  0  0  0  0
 11 15  1  0  0  0  0
 12  8  1  0  0  0  0
 13 12  1  0  0  0  0
 14  6  1  0  0  0  0
 14  3  2  0  0  0  0
 15 43  1  0  0  0  0
 17  1  1  1  0  0  0
 17  4  1  0  0  0  0
 19 18  1  0  0  0  0
 19 21  1  0  0  0  0
 20 21  2  0  0  0  0
 20 22  1  0  0  0  0
 22 23  1  1  0  0  0
 24 22  1  0  0  0  0
 25 40  1  6  0  0  0
 25 24  1  0  0  0  0
 26 30  1  1  0  0  0
 26 28  1  0  0  0  0
 28 25  1  0  0  0  0
 28 27  1  1  0  0  0
 29 26  1  0  0  0  0
 29 28  1  0  0  0  0
 31 30  1  0  0  0  0
 32 31  1  0  0  0  0
 33 32  1  0  0  0  0
 34 33  1  0  0  0  0
 34 35  1  0  0  0  0
 36 37  1  0  0  0  0
 36 35  1  0  0  0  0
 37 38  1  0  0  0  0
 39 37  2  0  0  0  0
 41 42  1  0  0  0  0
 42 40  1  0  0  0  0
 43 44  1  0  0  0  0
 44 46  1  0  0  0  0
 46 45  1  0  0  0  0
 47 14  1  0  0  0  0
 48 50  1  0  0  0  0
 48 47  1  0  0  0  0
 49 50  2  0  0  0  0
 49 54  1  0  0  0  0
 50 52  1  0  0  0  0
 51 53  1  0  0  0  0
 52 57  1  0  0  0  0
 52 53  2  0  0  0  0
 54 51  2  0  0  0  0
 55 57  1  0  0  0  0
 55 59  1  0  0  0  0
 56 55  2  0  0  0  0
 59 58  1  0  0  0  0
 60 59  1  0  0  0  0
 61 63  1  0  0  0  0
 62 63  1  0  0  0  0
 63 64  1  0  0  0  0
 63 60  1  0  0  0  0
M  END
>  <MODEL>
2

>  <REMARK>
 VINA RESULT:      -7.2      2.437     10.223
  Name = 
  26 active torsions:
  status: ('A' for Active; 'I' for Inactive)
    1  A    between atoms: O_2  and  C_5
    2  A    between atoms: O_2  and  C_12
    3  A    between atoms: C_5  and  C_23
    4  A    between atoms: C_9  and  C_31
    5  A    between atoms: C_12  and  C_36
    6  A    between atoms: C_12  and  C_51
    7  A    between atoms: N_16  and  C_18
    8  A    between atoms: N_16  and  C_44
    9  A    between atoms: O_17  and  C_45
   10  A    between atoms: O_17  and  C_57
   11  A    between atoms: C_18  and  C_34
   12  A    between atoms: O_20  and  C_48
   13  A    between atoms: O_20  and  C_54
   14  A    between atoms: N_21  and  C_50
   15  A    between atoms: N_22  and  C_41
   16  A    between atoms: C_24  and  C_48
   17  A    between atoms: C_26  and  C_61
   18  A    between atoms: C_27  and  C_36
   19  A    between atoms: C_31  and  C_38
   20  A    between atoms: C_38  and  N_53
   21  A    between atoms: C_41  and  C_61
   22  A    between atoms: C_45  and  C_49
   23  A    between atoms: C_46  and  O_55
   24  A    between atoms: C_52  and  N_53
   25  A    between atoms: C_52  and  C_54
   26  A    between atoms: O_55  and  N_58
                            x       y       z     vdW  Elec       q    Type
                         _______ _______ _______ _____ _____    ______ ____

>  <TORSDO>
F 26

$$$$
=
 OpenBabel10222419113D

 64 69  0  0  1  0  0  0  0  0999 V2000
  186.2340  178.1670  145.1800 C   0  0  0  0  0  3  0  0  0  0  0  0
  188.2500  177.2190  146.3430 C   0  0  0  0  0  0  0  0  0  0  0  0
  183.1400  178.0990  141.9140 C   0  0  0  0  0  3  0  0  0  0  0  0
  187.8940  177.9360  143.3720 C   0  0  0  0  0  0  0  0  0  0  0  0
  184.7760  179.3970  139.9010 C   0  0  0  0  0  3  0  0  0  0  0  0
  183.3750  179.2660  139.7400 C   0  0  0  0  0  3  0  0  0  0  0  0
  185.7190  178.0040  142.7990 C   0  0  0  0  0  0  0  0  0  0  0  0
  187.8230  178.6670  142.1170 N   0  0  0  0  0  0  0  0  0  0  0  0
  187.0030  178.0210  146.2590 C   0  0  0  0  0  3  0  0  0  0  0  0
  184.5080  178.2540  142.0160 C   0  0  0  0  0  0  0  0  0  0  0  0
  189.0400  177.7300  144.0150 C   0  0  0  0  0  3  0  0  0  0  0  0
  186.4400  178.6010  141.9080 C   0  0  0  0  0  0  0  0  0  0  0  0
  185.2710  178.8600  141.0750 C   0  0  0  0  0  0  0  0  0  0  0  0
  182.5600  178.6260  140.7250 C   0  0  0  0  0  0  0  0  0  0  0  0
  189.1800  177.1090  145.3530 C   0  0  0  0  0  0  0  0  0  0  0  0
  188.4680  176.5880  147.5620 O   0  0  0  0  0  1  0  0  0  0  0  0
  186.5320  177.4650  143.9030 C   0  0  2  0  0  3  0  0  0  0  0  0
  188.8570  178.7310  141.0880 C   0  0  0  0  0  2  0  0  0  0  0  0
  188.8290  177.4790  140.2230 C   0  0  0  0  0  2  0  0  0  0  0  0
  188.8080  177.1290  137.8070 C   0  0  0  0  0  3  0  0  0  0  0  0
  189.3110  177.7900  138.8480 C   0  0  0  0  0  3  0  0  0  0  0  0
  189.2690  177.4060  136.4110 C   0  0  2  0  0  3  0  0  0  0  0  0
  188.1130  177.2480  135.4360 C   0  0  0  0  0  1  0  0  0  0  0  0
  190.2830  176.5040  136.0730 O   0  0  0  0  0  0  0  0  0  0  0  0
  190.0300  175.3550  136.8410 C   0  0  1  0  0  3  0  0  0  0  0  0
  188.4770  173.2650  136.4230 C   0  0  2  0  0  3  0  0  0  0  0  0
  189.8560  174.2380  134.6050 O   0  0  0  0  0  1  0  0  0  0  0  0
  189.5490  174.1940  135.9660 C   0  0  1  0  0  0  0  0  0  0  0  0
  189.8460  172.9330  136.5150 O   0  0  0  0  0  0  0  0  0  0  0  0
  187.8400  172.4880  135.2810 C   0  0  0  0  0  2  0  0  0  0  0  0
  186.5370  172.1100  135.6410 O   0  0  0  0  0  0  0  0  0  0  0  0
  186.0530  173.1550  136.4370 C   0  0  0  0  0  2  0  0  0  0  0  0
  184.7300  172.7790  137.0910 C   0  0  0  0  0  2  0  0  0  0  0  0
  184.2260  173.8760  137.8960 N   0  0  0  0  0  2  0  0  0  0  0  0
  182.9920  174.3020  137.2670 C   0  0  0  0  0  2  0  0  0  0  0  0
  183.0400  175.7940  136.9570 C   0  0  0  0  0  2  0  0  0  0  0  0
  183.4530  176.0500  135.5390 C   0  0  0  0  0  0  0  0  0  0  0  0
  183.6400  177.3510  135.0800 O   0  0  0  0  0  1  0  0  0  0  0  0
  183.5870  175.0840  134.7430 O   0  0  0  0  0  0  0  0  0  0  0  0
  191.2650  174.9770  137.6580 C   0  0  0  0  0  2  0  0  0  0  0  0
  193.6550  175.0030  137.6380 O   0  0  0  0  0  1  0  0  0  0  0  0
  192.5280  175.0570  136.8150 C   0  0  0  0  0  2  0  0  0  0  0  0
  190.3930  176.4230  145.5410 O   0  0  0  0  0  0  0  0  0  0  0  0
  191.6140  177.0090  145.9850 C   0  0  0  0  0  2  0  0  0  0  0  0
  192.1160  175.0790  147.2900 O   0  0  0  0  0  1  0  0  0  0  0  0
  191.9730  176.4640  147.3560 C   0  0  0  0  0  2  0  0  0  0  0  0
  181.1510  178.5350  140.4950 N   0  0  0  0  0  2  0  0  0  0  0  0
  180.3310  177.4190  140.9430 C   0  0  0  0  0  2  0  0  0  0  0  0
  180.1130  175.1510  139.9310 C   0  0  0  0  0  3  0  0  0  0  0  0
  179.9810  176.5360  139.7920 C   0  0  0  0  0  0  0  0  0  0  0  0
  179.3490  174.8110  137.7110 C   0  0  0  0  0  3  0  0  0  0  0  0
  179.5180  177.0670  138.5750 C   0  0  0  0  0  0  0  0  0  0  0  0
  179.2010  176.1880  137.5300 C   0  0  0  0  0  3  0  0  0  0  0  0
  179.8000  174.3260  138.8990 N   0  0  0  0  0  0  0  0  0  0  0  0
  180.2520  179.3370  137.6220 C   0  0  0  0  0  0  0  0  0  0  0  0
  181.0900  178.8390  136.8230 O   0  0  0  0  0  0  0  0  0  0  0  0
  179.4030  178.4890  138.4150 N   0  0  0  0  0  2  0  0  0  0  0  0
  179.4110  181.3380  138.8420 C   0  0  0  0  0  1  0  0  0  0  0  0
  180.1210  180.7600  137.7110 N   0  0  0  0  0  0  0  0  0  0  0  0
  180.8920  181.5650  136.9210 O   0  0  0  0  0  0  0  0  0  0  0  0
  179.6400  183.5080  137.7510 C   0  0  0  0  0  1  0  0  0  0  0  0
  178.9310  182.2380  135.7770 C   0  0  0  0  0  1  0  0  0  0  0  0
  180.1440  182.7120  136.5490 C   0  0  0  0  0  0  0  0  0  0  0  0
  180.9440  183.6240  135.6250 C   0  0  0  0  0  1  0  0  0  0  0  0
  1  9  2  0  0  0  0
  2 16  1  0  0  0  0
  3 10  1  0  0  0  0
  4 17  1  0  0  0  0
  4 11  2  0  0  0  0
  5 13  1  0  0  0  0
  6  5  2  0  0  0  0
  6 14  1  0  0  0  0
  7 17  1  0  0  0  0
  8  4  1  0  0  0  0
  9  2  1  0  0  0  0
 10  7  1  0  0  0  0
 11 15  1  0  0  0  0
 12  8  1  0  0  0  0
 12  7  2  0  0  0  0
 13 12  1  0  0  0  0
 13 10  2  0  0  0  0
 14  3  2  0  0  0  0
 15 43  1  0  0  0  0
 15  2  2  0  0  0  0
 17  1  1  1  0  0  0
 18  8  1  0  0  0  0
 19 18  1  0  0  0  0
 20 21  2  0  0  0  0
 21 19  1  0  0  0  0
 22 23  1  6  0  0  0
 22 20  1  0  0  0  0
 24 22  1  0  0  0  0
 24 25  1  0  0  0  0
 25 40  1  6  0  0  0
 26 30  1  6  0  0  0
 26 29  1  0  0  0  0
 28 27  1  6  0  0  0
 28 26  1  0  0  0  0
 28 29  1  0  0  0  0
 28 25  1  0  0  0  0
 30 31  1  0  0  0  0
 31 32  1  0  0  0  0
 32 33  1  0  0  0  0
 33 34  1  0  0  0  0
 35 34  1  0  0  0  0
 36 35  1  0  0  0  0
 37 36  1  0  0  0  0
 38 37  1  0  0  0  0
 39 37  2  0  0  0  0
 42 41  1  0  0  0  0
 42 40  1  0  0  0  0
 43 44  1  0  0  0  0
 44 46  1  0  0  0  0
 45 46  1  0  0  0  0
 47 14  1  0  0  0  0
 47 48  1  0  0  0  0
 50 49  1  0  0  0  0
 50 48  1  0  0  0  0
 51 54  1  0  0  0  0
 52 50  2  0  0  0  0
 53 51  2  0  0  0  0
 53 52  1  0  0  0  0
 54 49  2  0  0  0  0
 55 59  1  0  0  0  0
 55 57  1  0  0  0  0
 56 55  2  0  0  0  0
 57 52  1  0  0  0  0
 59 58  1  0  0  0  0
 60 59  1  0  0  0  0
 62 63  1  0  0  0  0
 63 60  1  0  0  0  0
 63 61  1  0  0  0  0
 64 63  1  0  0  0  0
M  END
>  <MODEL>
3

>  <REMARK>
 VINA RESULT:      -6.7      2.360      5.907
  Name = 
  26 active torsions:
  status: ('A' for Active; 'I' for Inactive)
    1  A    between atoms: O_2  and  C_5
    2  A    between atoms: O_2  and  C_12
    3  A    between atoms: C_5  and  C_23
    4  A    between atoms: C_9  and  C_31
    5  A    between atoms: C_12  and  C_36
    6  A    between atoms: C_12  and  C_51
    7  A    between atoms: N_16  and  C_18
    8  A    between atoms: N_16  and  C_44
    9  A    between atoms: O_17  and  C_45
   10  A    between atoms: O_17  and  C_57
   11  A    between atoms: C_18  and  C_34
   12  A    between atoms: O_20  and  C_48
   13  A    between atoms: O_20  and  C_54
   14  A    between atoms: N_21  and  C_50
   15  A    between atoms: N_22  and  C_41
   16  A    between atoms: C_24  and  C_48
   17  A    between atoms: C_26  and  C_61
   18  A    between atoms: C_27  and  C_36
   19  A    between atoms: C_31  and  C_38
   20  A    between atoms: C_38  and  N_53
   21  A    between atoms: C_41  and  C_61
   22  A    between atoms: C_45  and  C_49
   23  A    between atoms: C_46  and  O_55
   24  A    between atoms: C_52  and  N_53
   25  A    between atoms: C_52  and  C_54
   26  A    between atoms: O_55  and  N_58
                            x       y       z     vdW  Elec       q    Type
                         _______ _______ _______ _____ _____    ______ ____

>  <TORSDO>
F 26

$$$$
=
 OpenBabel10222419113D

 64 69  0  0  1  0  0  0  0  0999 V2000
  191.5510  175.7740  144.1520 C   0  0  0  0  0  3  0  0  0  0  0  0
  191.5490  176.2930  146.6110 C   0  0  0  0  0  0  0  0  0  0  0  0
  191.2750  177.0140  139.8350 C   0  0  0  0  0  3  0  0  0  0  0  0
  189.4740  177.0640  144.4730 C   0  0  0  0  0  0  0  0  0  0  0  0
  188.3780  177.0780  139.7080 C   0  0  0  0  0  3  0  0  0  0  0  0
  189.1680  177.0880  138.5330 C   0  0  0  0  0  3  0  0  0  0  0  0
  190.3630  177.0020  142.4060 C   0  0  0  0  0  0  0  0  0  0  0  0
  188.3560  177.0300  143.5460 N   0  0  0  0  0  0  0  0  0  0  0  0
  191.8710  175.4780  145.4110 C   0  0  0  0  0  3  0  0  0  0  0  0
  190.4560  177.0080  140.9460 C   0  0  0  0  0  0  0  0  0  0  0  0
  189.3100  177.0790  145.7930 C   0  0  0  0  0  3  0  0  0  0  0  0
  189.0730  177.0100  142.3430 C   0  0  0  0  0  0  0  0  0  0  0  0
  189.1020  177.0370  140.8850 C   0  0  0  0  0  0  0  0  0  0  0  0
  190.5950  177.0590  138.5840 C   0  0  0  0  0  0  0  0  0  0  0  0
  190.3930  176.9880  146.7990 C   0  0  0  0  0  0  0  0  0  0  0  0
  192.5120  176.2760  147.6130 O   0  0  0  0  0  1  0  0  0  0  0  0
  190.8530  177.0390  143.7950 C   0  0  2  0  0  3  0  0  0  0  0  0
  187.0310  177.6070  143.7600 C   0  0  0  0  0  2  0  0  0  0  0  0
  186.6850  178.5800  142.6420 C   0  0  0  0  0  2  0  0  0  0  0  0
  184.4460  178.3720  141.6910 C   0  0  0  0  0  3  0  0  0  0  0  0
  185.2240  178.8750  142.6470 C   0  0  0  0  0  3  0  0  0  0  0  0
  182.9760  178.6500  141.6550 C   0  0  2  0  0  3  0  0  0  0  0  0
  182.4390  178.8140  143.0680 C   0  0  0  0  0  1  0  0  0  0  0  0
  182.3200  177.5820  141.0340 O   0  0  0  0  0  0  0  0  0  0  0  0
  181.7220  178.1300  139.8870 C   0  0  1  0  0  3  0  0  0  0  0  0
  183.5250  178.2290  137.9640 C   0  0  2  0  0  3  0  0  0  0  0  0
  182.0590  176.2500  138.2660 O   0  0  0  0  0  1  0  0  0  0  0  0
  182.3530  177.5710  138.6080 C   0  0  1  0  0  0  0  0  0  0  0  0
  182.2060  178.4290  137.5030 O   0  0  0  0  0  0  0  0  0  0  0  0
  184.2660  177.3100  137.0040 C   0  0  0  0  0  2  0  0  0  0  0  0
  185.5760  177.1100  137.4650 O   0  0  0  0  0  0  0  0  0  0  0  0
  185.8790  175.7780  137.1610 C   0  0  0  0  0  2  0  0  0  0  0  0
  186.5680  175.6670  135.8070 C   0  0  0  0  0  2  0  0  0  0  0  0
  186.6090  174.2870  135.3650 N   0  0  0  0  0  2  0  0  0  0  0  0
  185.2520  173.7900  135.4720 C   0  0  0  0  0  2  0  0  0  0  0  0
  185.2490  172.3610  136.0040 C   0  0  0  0  0  2  0  0  0  0  0  0
  183.9950  172.0590  136.7680 C   0  0  0  0  0  0  0  0  0  0  0  0
  183.4640  170.7730  136.7780 O   0  0  0  0  0  0  0  0  0  0  0  0
  183.3910  172.9850  137.3700 O   0  0  0  0  0  1  0  0  0  0  0  0
  180.2100  177.9120  139.9170 C   0  0  0  0  0  2  0  0  0  0  0  0
  179.0100  179.1020  138.2280 O   0  0  0  0  0  1  0  0  0  0  0  0
  179.4630  179.1840  139.5450 C   0  0  0  0  0  2  0  0  0  0  0  0
  190.1070  177.6470  148.0080 O   0  0  0  0  0  0  0  0  0  0  0  0
  189.1330  178.6720  148.1810 C   0  0  0  0  0  2  0  0  0  0  0  0
  187.9570  176.6890  148.7860 O   0  0  0  0  0  1  0  0  0  0  0  0
  187.8690  178.0810  148.7790 C   0  0  0  0  0  2  0  0  0  0  0  0
  191.3260  177.0670  137.3540 N   0  0  0  0  0  2  0  0  0  0  0  0
  192.3820  176.1170  137.0370 C   0  0  0  0  0  2  0  0  0  0  0  0
  190.4390  174.6230  136.5820 C   0  0  0  0  0  3  0  0  0  0  0  0
  191.8040  174.8820  136.4290 C   0  0  0  0  0  0  0  0  0  0  0  0
  190.6360  172.6180  135.3310 C   0  0  0  0  0  3  0  0  0  0  0  0
  192.6020  173.9800  135.7030 C   0  0  0  0  0  0  0  0  0  0  0  0
  192.0030  172.8390  135.1520 C   0  0  0  0  0  3  0  0  0  0  0  0
  189.8880  173.5070  136.0380 N   0  0  0  0  0  0  0  0  0  0  0  0
  195.0570  173.7490  136.4230 C   0  0  0  0  0  0  0  0  0  0  0  0
  194.8170  172.8810  137.3050 O   0  0  0  0  0  0  0  0  0  0  0  0
  194.0090  174.2270  135.5610 N   0  0  0  0  0  2  0  0  0  0  0  0
  196.6180  175.4470  135.4850 C   0  0  0  0  0  1  0  0  0  0  0  0
  196.3940  174.2320  136.2550 N   0  0  0  0  0  0  0  0  0  0  0  0
  197.3990  173.7420  137.0390 O   0  0  0  0  0  0  0  0  0  0  0  0
  197.4760  171.9210  135.3930 C   0  0  0  0  0  1  0  0  0  0  0  0
  199.1190  172.1220  137.2010 C   0  0  0  0  0  1  0  0  0  0  0  0
  198.2480  172.9190  136.2530 C   0  0  0  0  0  0  0  0  0  0  0  0
  199.1740  173.7530  135.3740 C   0  0  0  0  0  1  0  0  0  0  0  0
  1  9  2  0  0  0  0
  2 15  2  0  0  0  0
  2 16  1  0  0  0  0
  3 10  1  0  0  0  0
  4 11  2  0  0  0  0
  5 13  1  0  0  0  0
  6 14  1  0  0  0  0
  6  5  2  0  0  0  0
  7 17  1  0  0  0  0
  8 18  1  0  0  0  0
  8  4  1  0  0  0  0
  9  2  1  0  0  0  0
 10  7  1  0  0  0  0
 11 15  1  0  0  0  0
 12  7  2  0  0  0  0
 12  8  1  0  0  0  0
 13 10  2  0  0  0  0
 13 12  1  0  0  0  0
 14  3  2  0  0  0  0
 15 43  1  0  0  0  0
 17  1  1  1  0  0  0
 17  4  1  0  0  0  0
 19 21  1  0  0  0  0
 19 18  1  0  0  0  0
 20 21  2  0  0  0  0
 22 20  1  0  0  0  0
 22 23  1  1  0  0  0
 24 22  1  0  0  0  0
 25 40  1  6  0  0  0
 25 24  1  0  0  0  0
 26 30  1  6  0  0  0
 26 28  1  0  0  0  0
 28 27  1  6  0  0  0
 28 25  1  0  0  0  0
 29 26  1  0  0  0  0
 29 28  1  0  0  0  0
 30 31  1  0  0  0  0
 32 31  1  0  0  0  0
 33 32  1  0  0  0  0
 34 35  1  0  0  0  0
 34 33  1  0  0  0  0
 35 36  1  0  0  0  0
 36 37  1  0  0  0  0
 37 38  2  0  0  0  0
 37 39  1  0  0  0  0
 41 42  1  0  0  0  0
 42 40  1  0  0  0  0
 43 44  1  0  0  0  0
 44 46  1  0  0  0  0
 46 45  1  0  0  0  0
 47 14  1  0  0  0  0
 48 47  1  0  0  0  0
 50 49  1  0  0  0  0
 50 48  1  0  0  0  0
 51 54  1  0  0  0  0
 52 50  2  0  0  0  0
 53 51  2  0  0  0  0
 53 52  1  0  0  0  0
 54 49  2  0  0  0  0
 55 56  2  0  0  0  0
 57 52  1  0  0  0  0
 57 55  1  0  0  0  0
 58 59  1  0  0  0  0
 59 55  1  0  0  0  0
 59 60  1  0  0  0  0
 61 63  1  0  0  0  0
 63 60  1  0  0  0  0
 63 62  1  0  0  0  0
 64 63  1  0  0  0  0
M  END
>  <MODEL>
4

>  <REMARK>
 VINA RESULT:      -6.7      3.029     10.404
  Name = 
  26 active torsions:
  status: ('A' for Active; 'I' for Inactive)
    1  A    between atoms: O_2  and  C_5
    2  A    between atoms: O_2  and  C_12
    3  A    between atoms: C_5  and  C_23
    4  A    between atoms: C_9  and  C_31
    5  A    between atoms: C_12  and  C_36
    6  A    between atoms: C_12  and  C_51
    7  A    between atoms: N_16  and  C_18
    8  A    between atoms: N_16  and  C_44
    9  A    between atoms: O_17  and  C_45
   10  A    between atoms: O_17  and  C_57
   11  A    between atoms: C_18  and  C_34
   12  A    between atoms: O_20  and  C_48
   13  A    between atoms: O_20  and  C_54
   14  A    between atoms: N_21  and  C_50
   15  A    between atoms: N_22  and  C_41
   16  A    between atoms: C_24  and  C_48
   17  A    between atoms: C_26  and  C_61
   18  A    between atoms: C_27  and  C_36
   19  A    between atoms: C_31  and  C_38
   20  A    between atoms: C_38  and  N_53
   21  A    between atoms: C_41  and  C_61
   22  A    between atoms: C_45  and  C_49
   23  A    between atoms: C_46  and  O_55
   24  A    between atoms: C_52  and  N_53
   25  A    between atoms: C_52  and  C_54
   26  A    between atoms: O_55  and  N_58
                            x       y       z     vdW  Elec       q    Type
                         _______ _______ _______ _____ _____    ______ ____

>  <TORSDO>
F 26

$$$$
=
 OpenBabel10222419113D

 64 69  0  0  1  0  0  0  0  0999 V2000
  186.0850  178.5340  145.4180 C   0  0  0  0  0  3  0  0  0  0  0  0
  187.9820  177.9400  146.9570 C   0  0  0  0  0  0  0  0  0  0  0  0
  183.4610  177.7150  141.8560 C   0  0  0  0  0  3  0  0  0  0  0  0
  187.9810  178.1580  143.8870 C   0  0  0  0  0  0  0  0  0  0  0  0
  185.2710  178.8100  139.8710 C   0  0  0  0  0  3  0  0  0  0  0  0
  183.9130  178.5450  139.5650 C   0  0  0  0  0  3  0  0  0  0  0  0
  185.9010  177.9630  143.0510 C   0  0  0  0  0  0  0  0  0  0  0  0
  188.0350  178.6770  142.5310 N   0  0  0  0  0  0  0  0  0  0  0  0
  186.7120  178.6190  146.5920 C   0  0  0  0  0  3  0  0  0  0  0  0
  184.7920  177.9920  142.0970 C   0  0  0  0  0  0  0  0  0  0  0  0
  189.0410  178.1450  144.6900 C   0  0  0  0  0  3  0  0  0  0  0  0
  186.6970  178.4700  142.1680 C   0  0  0  0  0  0  0  0  0  0  0  0
  185.6360  178.5030  141.1690 C   0  0  0  0  0  0  0  0  0  0  0  0
  183.0140  178.0040  140.5350 C   0  0  0  0  0  0  0  0  0  0  0  0
  189.0390  177.7520  146.1190 C   0  0  0  0  0  0  0  0  0  0  0  0
  188.0720  177.5260  148.2800 O   0  0  0  0  0  1  0  0  0  0  0  0
  186.5900  177.6680  144.3190 C   0  0  2  0  0  3  0  0  0  0  0  0
  189.1900  178.6620  141.6380 C   0  0  0  0  0  2  0  0  0  0  0  0
  190.0930  177.4780  141.9510 C   0  0  0  0  0  2  0  0  0  0  0  0
  191.0140  177.1490  139.7140 C   0  0  0  0  0  3  0  0  0  0  0  0
  190.3070  176.6540  140.7280 C   0  0  0  0  0  3  0  0  0  0  0  0
  191.2470  176.3580  138.4660 C   0  0  2  0  0  3  0  0  0  0  0  0
  192.7300  176.0760  138.2920 C   0  0  0  0  0  1  0  0  0  0  0  0
  190.7840  177.0870  137.3650 O   0  0  0  0  0  0  0  0  0  0  0  0
  189.7760  176.2950  136.7910 C   0  0  1  0  0  3  0  0  0  0  0  0
  191.3030  174.4820  135.6340 C   0  0  2  0  0  3  0  0  0  0  0  0
  189.9260  173.9370  137.6240 O   0  0  0  0  0  1  0  0  0  0  0  0
  190.2400  174.8460  136.6130 C   0  0  1  0  0  0  0  0  0  0  0  0
  189.9310  174.3230  135.3430 O   0  0  0  0  0  0  0  0  0  0  0  0
  191.9250  173.1220  135.9140 C   0  0  0  0  0  2  0  0  0  0  0  0
  193.3230  173.2440  135.9450 O   0  0  0  0  0  0  0  0  0  0  0  0
  193.7100  172.7720  137.2050 C   0  0  0  0  0  2  0  0  0  0  0  0
  195.2270  172.7090  137.3250 C   0  0  0  0  0  2  0  0  0  0  0  0
  195.6420  172.9340  138.6960 N   0  0  0  0  0  2  0  0  0  0  0  0
  195.9910  174.3380  138.7850 C   0  0  0  0  0  2  0  0  0  0  0  0
  197.5060  174.5120  138.7610 C   0  0  0  0  0  2  0  0  0  0  0  0
  198.0210  174.6690  137.3630 C   0  0  0  0  0  0  0  0  0  0  0  0
  197.8350  175.8610  136.6690 O   0  0  0  0  0  0  0  0  0  0  0  0
  198.5880  173.7000  136.7930 O   0  0  0  0  0  1  0  0  0  0  0  0
  188.4930  176.3830  137.6160 C   0  0  0  0  0  2  0  0  0  0  0  0
  186.4740  175.1100  137.4870 O   0  0  0  0  0  1  0  0  0  0  0  0
  187.2770  176.0080  136.7820 C   0  0  0  0  0  2  0  0  0  0  0  0
  190.2540  177.2020  146.5620 O   0  0  0  0  0  0  0  0  0  0  0  0
  190.4970  175.8200  146.8080 C   0  0  0  0  0  2  0  0  0  0  0  0
  192.5940  174.7870  146.3470 O   0  0  0  0  0  1  0  0  0  0  0  0
  191.9370  175.6230  147.2480 C   0  0  0  0  0  2  0  0  0  0  0  0
  181.6560  177.7670  140.1540 N   0  0  0  0  0  2  0  0  0  0  0  0
  180.5910  178.7460  140.3100 C   0  0  0  0  0  2  0  0  0  0  0  0
  180.6700  181.1160  139.5410 C   0  0  0  0  0  3  0  0  0  0  0  0
  180.6490  179.7570  139.2140 C   0  0  0  0  0  0  0  0  0  0  0  0
  180.7630  181.7110  137.2470 C   0  0  0  0  0  3  0  0  0  0  0  0
  180.6880  179.3710  137.8630 C   0  0  0  0  0  0  0  0  0  0  0  0
  180.7460  180.3650  136.8760 C   0  0  0  0  0  3  0  0  0  0  0  0
  180.7240  182.0560  138.5630 N   0  0  0  0  0  0  0  0  0  0  0  0
  181.3660  177.3310  136.4550 C   0  0  0  0  0  0  0  0  0  0  0  0
  182.2800  177.9420  135.8370 O   0  0  0  0  0  0  0  0  0  0  0  0
  180.6420  177.9780  137.5170 N   0  0  0  0  0  2  0  0  0  0  0  0
  179.8300  175.3770  136.5830 C   0  0  0  0  0  1  0  0  0  0  0  0
  181.0750  175.9710  136.1190 N   0  0  0  0  0  0  0  0  0  0  0  0
  181.7960  175.3400  135.1450 O   0  0  0  0  0  0  0  0  0  0  0  0
  184.0430  174.3660  134.9730 C   0  0  0  0  0  1  0  0  0  0  0  0
  182.1150  173.0790  135.7700 C   0  0  0  0  0  1  0  0  0  0  0  0
  182.7320  174.4610  135.7490 C   0  0  0  0  0  0  0  0  0  0  0  0
  183.0140  174.8570  137.1950 C   0  0  0  0  0  1  0  0  0  0  0  0
  1  9  2  0  0  0  0
  2 16  1  0  0  0  0
  3 10  1  0  0  0  0
  4 17  1  0  0  0  0
  4 11  2  0  0  0  0
  5 13  1  0  0  0  0
  6  5  2  0  0  0  0
  6 14  1  0  0  0  0
  7 17  1  0  0  0  0
  8  4  1  0  0  0  0
  9  2  1  0  0  0  0
 10  7  1  0  0  0  0
 11 15  1  0  0  0  0
 12  8  1  0  0  0  0
 12  7  2  0  0  0  0
 13 10  2  0  0  0  0
 13 12  1  0  0  0  0
 14  3  2  0  0  0  0
 15 43  1  0  0  0  0
 15  2  2  0  0  0  0
 17  1  1  1  0  0  0
 18 19  1  0  0  0  0
 18  8  1  0  0  0  0
 20 21  2  0  0  0  0
 21 19  1  0  0  0  0
 22 23  1  6  0  0  0
 22 20  1  0  0  0  0
 24 22  1  0  0  0  0
 25 24  1  0  0  0  0
 25 40  1  1  0  0  0
 26 30  1  1  0  0  0
 26 28  1  0  0  0  0
 28 25  1  0  0  0  0
 28 27  1  1  0  0  0
 29 26  1  0  0  0  0
 29 28  1  0  0  0  0
 30 31  1  0  0  0  0
 31 32  1  0  0  0  0
 32 33  1  0  0  0  0
 33 34  1  0  0  0  0
 34 35  1  0  0  0  0
 36 35  1  0  0  0  0
 37 36  1  0  0  0  0
 38 37  2  0  0  0  0
 39 37  1  0  0  0  0
 42 41  1  0  0  0  0
 42 40  1  0  0  0  0
 43 44  1  0  0  0  0
 44 46  1  0  0  0  0
 45 46  1  0  0  0  0
 47 48  1  0  0  0  0
 47 14  1  0  0  0  0
 50 49  1  0  0  0  0
 50 48  1  0  0  0  0
 51 54  1  0  0  0  0
 52 50  2  0  0  0  0
 53 51  2  0  0  0  0
 53 52  1  0  0  0  0
 54 49  2  0  0  0  0
 55 57  1  0  0  0  0
 56 55  2  0  0  0  0
 57 52  1  0  0  0  0
 59 55  1  0  0  0  0
 59 58  1  0  0  0  0
 60 63  1  0  0  0  0
 60 59  1  0  0  0  0
 61 63  1  0  0  0  0
 63 62  1  0  0  0  0
 63 64  1  0  0  0  0
M  END
>  <MODEL>
5

>  <REMARK>
 VINA RESULT:      -6.1      1.571      2.108
  Name = 
  26 active torsions:
  status: ('A' for Active; 'I' for Inactive)
    1  A    between atoms: O_2  and  C_5
    2  A    between atoms: O_2  and  C_12
    3  A    between atoms: C_5  and  C_23
    4  A    between atoms: C_9  and  C_31
    5  A    between atoms: C_12  and  C_36
    6  A    between atoms: C_12  and  C_51
    7  A    between atoms: N_16  and  C_18
    8  A    between atoms: N_16  and  C_44
    9  A    between atoms: O_17  and  C_45
   10  A    between atoms: O_17  and  C_57
   11  A    between atoms: C_18  and  C_34
   12  A    between atoms: O_20  and  C_48
   13  A    between atoms: O_20  and  C_54
   14  A    between atoms: N_21  and  C_50
   15  A    between atoms: N_22  and  C_41
   16  A    between atoms: C_24  and  C_48
   17  A    between atoms: C_26  and  C_61
   18  A    between atoms: C_27  and  C_36
   19  A    between atoms: C_31  and  C_38
   20  A    between atoms: C_38  and  N_53
   21  A    between atoms: C_41  and  C_61
   22  A    between atoms: C_45  and  C_49
   23  A    between atoms: C_46  and  O_55
   24  A    between atoms: C_52  and  N_53
   25  A    between atoms: C_52  and  C_54
   26  A    between atoms: O_55  and  N_58
                            x       y       z     vdW  Elec       q    Type
                         _______ _______ _______ _____ _____    ______ ____

>  <TORSDO>
F 26

$$$$
=
 OpenBabel10222419113D

 64 69  0  0  1  0  0  0  0  0999 V2000
  191.4030  176.2200  144.2710 C   0  0  0  0  0  3  0  0  0  0  0  0
  191.0980  176.8750  146.6780 C   0  0  0  0  0  0  0  0  0  0  0  0
  191.3860  177.1590  139.8710 C   0  0  0  0  0  3  0  0  0  0  0  0
  189.1560  177.2350  144.3180 C   0  0  0  0  0  0  0  0  0  0  0  0
  188.5300  176.8250  139.4860 C   0  0  0  0  0  3  0  0  0  0  0  0
  189.4220  176.8730  138.3870 C   0  0  0  0  0  3  0  0  0  0  0  0
  190.2410  177.1730  142.3460 C   0  0  0  0  0  0  0  0  0  0  0  0
  188.1450  176.9980  143.3010 N   0  0  0  0  0  0  0  0  0  0  0  0
  191.6350  176.0420  145.5720 C   0  0  0  0  0  3  0  0  0  0  0  0
  190.4710  177.1070  140.9030 C   0  0  0  0  0  0  0  0  0  0  0  0
  188.8650  177.3050  145.6140 C   0  0  0  0  0  3  0  0  0  0  0  0
  188.9720  177.0040  142.1700 C   0  0  0  0  0  0  0  0  0  0  0  0
  189.1380  176.9510  140.7220 C   0  0  0  0  0  0  0  0  0  0  0  0
  190.8300  177.0390  138.5650 C   0  0  0  0  0  0  0  0  0  0  0  0
  189.8490  177.4180  146.7160 C   0  0  0  0  0  0  0  0  0  0  0  0
  191.9530  177.0460  147.7590 O   0  0  0  0  0  1  0  0  0  0  0  0
  190.5860  177.3560  143.7670 C   0  0  2  0  0  3  0  0  0  0  0  0
  186.7430  177.4020  143.3560 C   0  0  0  0  0  2  0  0  0  0  0  0
  186.4500  178.4610  142.3030 C   0  0  0  0  0  2  0  0  0  0  0  0
  184.2250  178.3890  141.3020 C   0  0  0  0  0  3  0  0  0  0  0  0
  185.0000  178.8020  142.3030 C   0  0  0  0  0  3  0  0  0  0  0  0
  182.7650  178.7160  141.2590 C   0  0  2  0  0  3  0  0  0  0  0  0
  182.1840  178.7040  142.6640 C   0  0  0  0  0  1  0  0  0  0  0  0
  182.1020  177.7640  140.4780 O   0  0  0  0  0  0  0  0  0  0  0  0
  180.8720  178.3520  140.1400 C   0  0  1  0  0  3  0  0  0  0  0  0
  181.4990  178.3480  137.5780 C   0  0  2  0  0  3  0  0  0  0  0  0
  180.1400  180.1670  138.5760 O   0  0  0  0  0  1  0  0  0  0  0  0
  180.9390  179.0400  138.7730 C   0  0  1  0  0  0  0  0  0  0  0  0
  182.2570  179.2670  138.3360 O   0  0  0  0  0  0  0  0  0  0  0  0
  181.0780  178.9950  136.2670 C   0  0  0  0  0  2  0  0  0  0  0  0
  181.4410  178.1630  135.1970 O   0  0  0  0  0  0  0  0  0  0  0  0
  182.0470  177.0450  135.7820 C   0  0  0  0  0  2  0  0  0  0  0  0
  182.6210  176.1140  134.7220 C   0  0  0  0  0  2  0  0  0  0  0  0
  183.4870  175.1210  135.3280 N   0  0  0  0  0  2  0  0  0  0  0  0
  183.5940  175.4810  136.7280 C   0  0  0  0  0  2  0  0  0  0  0  0
  184.4790  174.4850  137.4680 C   0  0  0  0  0  2  0  0  0  0  0  0
  185.9290  174.6920  137.1500 C   0  0  0  0  0  0  0  0  0  0  0  0
  186.3630  175.8800  136.5700 O   0  0  0  0  0  0  0  0  0  0  0  0
  186.7550  173.7680  137.3680 O   0  0  0  0  0  1  0  0  0  0  0  0
  179.7510  177.3160  140.2000 C   0  0  0  0  0  2  0  0  0  0  0  0
  179.1420  175.2210  141.1760 O   0  0  0  0  0  1  0  0  0  0  0  0
  180.2340  176.0180  140.8300 C   0  0  0  0  0  2  0  0  0  0  0  0
  189.3650  178.1010  147.8450 O   0  0  0  0  0  0  0  0  0  0  0  0
  188.0220  178.0720  148.3180 C   0  0  0  0  0  2  0  0  0  0  0  0
  186.1780  179.1320  147.2430 O   0  0  0  0  0  1  0  0  0  0  0  0
  187.0650  178.0610  147.1400 C   0  0  0  0  0  2  0  0  0  0  0  0
  191.6690  177.0740  137.4060 N   0  0  0  0  0  2  0  0  0  0  0  0
  192.6060  176.0170  137.0570 C   0  0  0  0  0  2  0  0  0  0  0  0
  190.5070  174.8910  136.3210 C   0  0  0  0  0  3  0  0  0  0  0  0
  191.9050  174.9230  136.3220 C   0  0  0  0  0  0  0  0  0  0  0  0
  190.5110  172.9340  134.9800 C   0  0  0  0  0  3  0  0  0  0  0  0
  192.6200  173.9310  135.6290 C   0  0  0  0  0  0  0  0  0  0  0  0
  191.9080  172.9300  134.9530 C   0  0  0  0  0  3  0  0  0  0  0  0
  189.8460  173.9070  135.6600 N   0  0  0  0  0  0  0  0  0  0  0  0
  194.9110  173.2840  136.5950 C   0  0  0  0  0  0  0  0  0  0  0  0
  194.4380  172.4540  137.4170 O   0  0  0  0  0  0  0  0  0  0  0  0
  194.0560  173.9430  135.6440 N   0  0  0  0  0  2  0  0  0  0  0  0
  196.8210  174.7150  135.8850 C   0  0  0  0  0  1  0  0  0  0  0  0
  196.3190  173.5420  136.5850 N   0  0  0  0  0  0  0  0  0  0  0  0
  197.1390  172.8790  137.4530 O   0  0  0  0  0  0  0  0  0  0  0  0
  197.7930  171.9860  135.2610 C   0  0  0  0  0  1  0  0  0  0  0  0
  196.9610  170.5500  137.0660 C   0  0  0  0  0  1  0  0  0  0  0  0
  197.7650  171.8000  136.7760 C   0  0  0  0  0  0  0  0  0  0  0  0
  199.1800  171.5630  137.2950 C   0  0  0  0  0  1  0  0  0  0  0  0
  1  9  2  0  0  0  0
  2 15  2  0  0  0  0
  2 16  1  0  0  0  0
  3 10  1  0  0  0  0
  4 11  2  0  0  0  0
  5 13  1  0  0  0  0
  6 14  1  0  0  0  0
  6  5  2  0  0  0  0
  7 17  1  0  0  0  0
  8 18  1  0  0  0  0
  8  4  1  0  0  0  0
  9  2  1  0  0  0  0
 10  7  1  0  0  0  0
 11 15  1  0  0  0  0
 12  7  2  0  0  0  0
 12  8  1  0  0  0  0
 13 10  2  0  0  0  0
 13 12  1  0  0  0  0
 14  3  2  0  0  0  0
 15 43  1  0  0  0  0
 17  1  1  1  0  0  0
 17  4  1  0  0  0  0
 19 21  1  0  0  0  0
 19 18  1  0  0  0  0
 20 21  2  0  0  0  0
 22 20  1  0  0  0  0
 22 23  1  1  0  0  0
 24 22  1  0  0  0  0
 25 40  1  6  0  0  0
 25 24  1  0  0  0  0
 26 30  1  6  0  0  0
 26 29  1  0  0  0  0
 26 28  1  0  0  0  0
 28 27  1  6  0  0  0
 28 25  1  0  0  0  0
 29 28  1  0  0  0  0
 31 32  1  0  0  0  0
 31 30  1  0  0  0  0
 33 34  1  0  0  0  0
 33 32  1  0  0  0  0
 34 35  1  0  0  0  0
 35 36  1  0  0  0  0
 37 39  1  0  0  0  0
 37 36  1  0  0  0  0
 38 37  2  0  0  0  0
 40 42  1  0  0  0  0
 42 41  1  0  0  0  0
 43 44  1  0  0  0  0
 46 45  1  0  0  0  0
 46 44  1  0  0  0  0
 47 14  1  0  0  0  0
 48 47  1  0  0  0  0
 49 50  1  0  0  0  0
 50 48  1  0  0  0  0
 51 54  1  0  0  0  0
 52 57  1  0  0  0  0
 52 50  2  0  0  0  0
 53 51  2  0  0  0  0
 53 52  1  0  0  0  0
 54 49  2  0  0  0  0
 55 56  2  0  0  0  0
 57 55  1  0  0  0  0
 58 59  1  0  0  0  0
 59 55  1  0  0  0  0
 59 60  1  0  0  0  0
 61 63  1  0  0  0  0
 63 62  1  0  0  0  0
 63 64  1  0  0  0  0
 63 60  1  0  0  0  0
M  END
>  <MODEL>
6

>  <REMARK>
 VINA RESULT:      -5.9      2.659     10.619
  Name = 
  26 active torsions:
  status: ('A' for Active; 'I' for Inactive)
    1  A    between atoms: O_2  and  C_5
    2  A    between atoms: O_2  and  C_12
    3  A    between atoms: C_5  and  C_23
    4  A    between atoms: C_9  and  C_31
    5  A    between atoms: C_12  and  C_36
    6  A    between atoms: C_12  and  C_51
    7  A    between atoms: N_16  and  C_18
    8  A    between atoms: N_16  and  C_44
    9  A    between atoms: O_17  and  C_45
   10  A    between atoms: O_17  and  C_57
   11  A    between atoms: C_18  and  C_34
   12  A    between atoms: O_20  and  C_48
   13  A    between atoms: O_20  and  C_54
   14  A    between atoms: N_21  and  C_50
   15  A    between atoms: N_22  and  C_41
   16  A    between atoms: C_24  and  C_48
   17  A    between atoms: C_26  and  C_61
   18  A    between atoms: C_27  and  C_36
   19  A    between atoms: C_31  and  C_38
   20  A    between atoms: C_38  and  N_53
   21  A    between atoms: C_41  and  C_61
   22  A    between atoms: C_45  and  C_49
   23  A    between atoms: C_46  and  O_55
   24  A    between atoms: C_52  and  N_53
   25  A    between atoms: C_52  and  C_54
   26  A    between atoms: O_55  and  N_58
                            x       y       z     vdW  Elec       q    Type
                         _______ _______ _______ _____ _____    ______ ____

>  <TORSDO>
F 26

$$$$
=
 OpenBabel10222419113D

 64 69  0  0  1  0  0  0  0  0999 V2000
  188.0430  177.5530  136.1530 C   0  0  0  0  0  3  0  0  0  0  0  0
  185.5330  177.4670  136.0680 C   0  0  0  0  0  0  0  0  0  0  0  0
  192.0100  176.1540  137.7530 C   0  0  0  0  0  3  0  0  0  0  0  0
  187.3730  177.7890  138.5140 C   0  0  0  0  0  0  0  0  0  0  0  0
  191.9810  177.7920  140.1470 C   0  0  0  0  0  3  0  0  0  0  0  0
  193.1680  177.1630  139.6980 C   0  0  0  0  0  3  0  0  0  0  0  0
  189.4510  177.0420  138.0820 C   0  0  0  0  0  0  0  0  0  0  0  0
  188.2320  178.3520  139.5420 N   0  0  0  0  0  0  0  0  0  0  0  0
  186.8850  177.7690  135.5310 C   0  0  0  0  0  3  0  0  0  0  0  0
  190.8840  176.7890  138.2380 C   0  0  0  0  0  0  0  0  0  0  0  0
  186.0700  178.0490  138.4510 C   0  0  0  0  0  3  0  0  0  0  0  0
  189.4490  177.7860  139.1380 C   0  0  0  0  0  0  0  0  0  0  0  0
  190.8720  177.5540  139.3560 C   0  0  0  0  0  0  0  0  0  0  0  0
  193.1920  176.3530  138.5210 C   0  0  0  0  0  0  0  0  0  0  0  0
  185.1540  177.6180  137.3680 C   0  0  0  0  0  0  0  0  0  0  0  0
  184.6020  177.0460  135.1270 O   0  0  0  0  0  1  0  0  0  0  0  0
  188.1070  176.9080  137.4920 C   0  0  2  0  0  3  0  0  0  0  0  0
  187.8450  178.7000  140.9070 C   0  0  0  0  0  2  0  0  0  0  0  0
  187.4640  177.4510  141.6890 C   0  0  0  0  0  2  0  0  0  0  0  0
  189.2410  178.2230  143.1750 C   0  0  0  0  0  3  0  0  0  0  0  0
  188.4070  177.2450  142.8240 C   0  0  0  0  0  3  0  0  0  0  0  0
  190.2090  178.0540  144.3040 C   0  0  2  0  0  3  0  0  0  0  0  0
  191.6140  177.8470  143.7630 C   0  0  0  0  0  1  0  0  0  0  0  0
  189.8390  176.9420  145.0660 O   0  0  0  0  0  0  0  0  0  0  0  0
  189.3030  177.4660  146.2530 C   0  0  1  0  0  3  0  0  0  0  0  0
  186.8660  178.3040  146.8140 C   0  0  2  0  0  3  0  0  0  0  0  0
  187.2570  176.1760  145.6010 O   0  0  0  0  0  1  0  0  0  0  0  0
  187.7900  177.2400  146.3300 C   0  0  1  0  0  0  0  0  0  0  0  0
  187.2990  177.2520  147.6490 O   0  0  0  0  0  0  0  0  0  0  0  0
  185.4210  178.0660  146.4020 C   0  0  0  0  0  2  0  0  0  0  0  0
  184.7730  179.2990  146.2310 O   0  0  0  0  0  0  0  0  0  0  0  0
  183.9930  179.1530  145.0780 C   0  0  0  0  0  2  0  0  0  0  0  0
  184.8630  178.8740  143.8590 C   0  0  0  0  0  2  0  0  0  0  0  0
  184.0440  178.5040  142.7200 N   0  0  0  0  0  2  0  0  0  0  0  0
  182.8850  179.3740  142.7600 C   0  0  0  0  0  2  0  0  0  0  0  0
  181.6360  178.6140  142.3260 C   0  0  0  0  0  2  0  0  0  0  0  0
  180.4430  178.9990  143.1490 C   0  0  0  0  0  0  0  0  0  0  0  0
  179.5200  179.9230  142.6690 O   0  0  0  0  0  0  0  0  0  0  0  0
  180.2980  178.5160  144.3030 O   0  0  0  0  0  1  0  0  0  0  0  0
  190.0260  176.8850  147.4680 C   0  0  0  0  0  2  0  0  0  0  0  0
  192.1430  175.9380  148.0470 O   0  0  0  0  0  1  0  0  0  0  0  0
  191.5360  176.9370  147.2860 C   0  0  0  0  0  2  0  0  0  0  0  0
  183.8270  177.4210  137.7870 O   0  0  0  0  0  0  0  0  0  0  0  0
  183.3390  176.2760  138.4810 C   0  0  0  0  0  2  0  0  0  0  0  0
  182.7260  174.8240  136.6930 O   0  0  0  0  0  1  0  0  0  0  0  0
  183.6750  175.0210  137.6960 C   0  0  0  0  0  2  0  0  0  0  0  0
  194.4300  175.7530  138.1270 N   0  0  0  0  0  2  0  0  0  0  0  0
  194.9200  174.4900  138.6580 C   0  0  0  0  0  2  0  0  0  0  0  0
  197.2780  174.9830  139.3000 C   0  0  0  0  0  3  0  0  0  0  0  0
  196.3880  174.3610  138.4200 C   0  0  0  0  0  0  0  0  0  0  0  0
  199.1340  174.1730  138.0650 C   0  0  0  0  0  3  0  0  0  0  0  0
  196.8920  173.6230  137.3340 C   0  0  0  0  0  0  0  0  0  0  0  0
  198.2800  173.5330  137.1630 C   0  0  0  0  0  3  0  0  0  0  0  0
  198.6180  174.8800  139.1060 N   0  0  0  0  0  0  0  0  0  0  0  0
  194.6650  172.5070  136.7050 C   0  0  0  0  0  0  0  0  0  0  0  0
  194.1130  172.7660  137.8080 O   0  0  0  0  0  0  0  0  0  0  0  0
  195.9840  173.0010  136.4120 N   0  0  0  0  0  2  0  0  0  0  0  0
  194.6880  171.1700  134.6050 C   0  0  0  0  0  1  0  0  0  0  0  0
  193.9550  171.7460  135.7220 N   0  0  0  0  0  0  0  0  0  0  0  0
  192.6830  171.3200  135.9790 O   0  0  0  0  0  0  0  0  0  0  0  0
  190.9880  172.9820  136.6060 C   0  0  0  0  0  1  0  0  0  0  0  0
  190.7490  171.5470  134.6320 C   0  0  0  0  0  1  0  0  0  0  0  0
  191.7590  172.2790  135.4910 C   0  0  0  0  0  0  0  0  0  0  0  0
  192.4460  173.3140  134.6060 C   0  0  0  0  0  1  0  0  0  0  0  0
  2 15  2  0  0  0  0
  3 10  2  0  0  0  0
  3 14  1  0  0  0  0
  4  8  1  0  0  0  0
  6  5  1  0  0  0  0
  7 10  1  0  0  0  0
  7 12  2  0  0  0  0
  8 18  1  0  0  0  0
  9  2  1  0  0  0  0
  9  1  2  0  0  0  0
 10 13  1  0  0  0  0
 11  4  2  0  0  0  0
 12 13  1  0  0  0  0
 12  8  1  0  0  0  0
 13  5  2  0  0  0  0
 14  6  2  0  0  0  0
 15 43  1  0  0  0  0
 15 11  1  0  0  0  0
 16  2  1  0  0  0  0
 17  1  1  6  0  0  0
 17  7  1  0  0  0  0
 17  4  1  0  0  0  0
 18 19  1  0  0  0  0
 19 21  1  0  0  0  0
 20 22  1  0  0  0  0
 21 20  2  0  0  0  0
 22 23  1  6  0  0  0
 22 24  1  0  0  0  0
 24 25  1  0  0  0  0
 25 28  1  0  0  0  0
 25 40  1  1  0  0  0
 26 30  1  6  0  0  0
 26 29  1  0  0  0  0
 28 27  1  6  0  0  0
 28 26  1  0  0  0  0
 28 29  1  0  0  0  0
 31 30  1  0  0  0  0
 32 31  1  0  0  0  0
 33 32  1  0  0  0  0
 34 35  1  0  0  0  0
 34 33  1  0  0  0  0
 36 35  1  0  0  0  0
 36 37  1  0  0  0  0
 37 39  1  0  0  0  0
 38 37  2  0  0  0  0
 42 40  1  0  0  0  0
 42 41  1  0  0  0  0
 43 44  1  0  0  0  0
 45 46  1  0  0  0  0
 46 44  1  0  0  0  0
 47 14  1  0  0  0  0
 47 48  1  0  0  0  0
 50 48  1  0  0  0  0
 50 49  2  0  0  0  0
 51 54  2  0  0  0  0
 52 50  1  0  0  0  0
 53 52  2  0  0  0  0
 53 51  1  0  0  0  0
 54 49  1  0  0  0  0
 55 56  2  0  0  0  0
 57 55  1  0  0  0  0
 57 52  1  0  0  0  0
 58 59  1  0  0  0  0
 59 60  1  0  0  0  0
 59 55  1  0  0  0  0
 62 63  1  0  0  0  0
 63 60  1  0  0  0  0
 63 61  1  0  0  0  0
 64 63  1  0  0  0  0
M  END
>  <MODEL>
7

>  <REMARK>
 VINA RESULT:      -5.5      2.966     12.759
  Name = 
  26 active torsions:
  status: ('A' for Active; 'I' for Inactive)
    1  A    between atoms: O_2  and  C_5
    2  A    between atoms: O_2  and  C_12
    3  A    between atoms: C_5  and  C_23
    4  A    between atoms: C_9  and  C_31
    5  A    between atoms: C_12  and  C_36
    6  A    between atoms: C_12  and  C_51
    7  A    between atoms: N_16  and  C_18
    8  A    between atoms: N_16  and  C_44
    9  A    between atoms: O_17  and  C_45
   10  A    between atoms: O_17  and  C_57
   11  A    between atoms: C_18  and  C_34
   12  A    between atoms: O_20  and  C_48
   13  A    between atoms: O_20  and  C_54
   14  A    between atoms: N_21  and  C_50
   15  A    between atoms: N_22  and  C_41
   16  A    between atoms: C_24  and  C_48
   17  A    between atoms: C_26  and  C_61
   18  A    between atoms: C_27  and  C_36
   19  A    between atoms: C_31  and  C_38
   20  A    between atoms: C_38  and  N_53
   21  A    between atoms: C_41  and  C_61
   22  A    between atoms: C_45  and  C_49
   23  A    between atoms: C_46  and  O_55
   24  A    between atoms: C_52  and  N_53
   25  A    between atoms: C_52  and  C_54
   26  A    between atoms: O_55  and  N_58
                            x       y       z     vdW  Elec       q    Type
                         _______ _______ _______ _____ _____    ______ ____

>  <TORSDO>
F 26

$$$$
=
 OpenBabel10222419113D

 64 69  0  0  1  0  0  0  0  0999 V2000
  190.2680  176.1080  142.0000 C   0  0  0  0  0  3  0  0  0  0  0  0
  190.7310  176.4330  144.4490 C   0  0  0  0  0  0  0  0  0  0  0  0
  189.6220  177.6950  137.8390 C   0  0  0  0  0  3  0  0  0  0  0  0
  188.5680  177.7500  142.7010 C   0  0  0  0  0  0  0  0  0  0  0  0
  186.8120  178.3310  138.1760 C   0  0  0  0  0  3  0  0  0  0  0  0
  187.4070  178.2740  136.8910 C   0  0  0  0  0  3  0  0  0  0  0  0
  189.1130  177.6700  140.5190 C   0  0  0  0  0  0  0  0  0  0  0  0
  187.3420  178.0040  141.9630 N   0  0  0  0  0  0  0  0  0  0  0  0
  190.7010  175.6620  143.1790 C   0  0  0  0  0  3  0  0  0  0  0  0
  188.9900  177.7660  139.0650 C   0  0  0  0  0  0  0  0  0  0  0  0
  188.6040  177.6990  144.0300 C   0  0  0  0  0  3  0  0  0  0  0  0
  187.8560  177.9340  140.6620 C   0  0  0  0  0  0  0  0  0  0  0  0
  187.6770  178.0630  139.2200 C   0  0  0  0  0  0  0  0  0  0  0  0
  188.7900  177.9640  136.7150 C   0  0  0  0  0  0  0  0  0  0  0  0
  189.7810  177.3230  144.8480 C   0  0  0  0  0  0  0  0  0  0  0  0
  191.8060  176.1550  145.2840 O   0  0  0  0  0  1  0  0  0  0  0  0
  189.7980  177.5070  141.8140 C   0  0  2  0  0  3  0  0  0  0  0  0
  186.2080  178.8100  142.4080 C   0  0  0  0  0  2  0  0  0  0  0  0
  185.0180  177.9210  142.7410 C   0  0  0  0  0  2  0  0  0  0  0  0
  183.0170  178.2950  141.3930 C   0  0  0  0  0  3  0  0  0  0  0  0
  183.7430  178.6370  142.4560 C   0  0  0  0  0  3  0  0  0  0  0  0
  181.7340  178.9930  141.0680 C   0  0  2  0  0  3  0  0  0  0  0  0
  180.5700  178.2960  141.7510 C   0  0  0  0  0  1  0  0  0  0  0  0
  181.5370  178.9720  139.6830 O   0  0  0  0  0  0  0  0  0  0  0  0
  180.8390  177.7810  139.4260 C   0  0  1  0  0  3  0  0  0  0  0  0
  181.2590  177.7680  136.8220 C   0  0  2  0  0  3  0  0  0  0  0  0
  179.0190  177.2920  137.7750 O   0  0  0  0  0  1  0  0  0  0  0  0
  180.3260  177.7350  137.9830 C   0  0  1  0  0  0  0  0  0  0  0  0
  180.5820  178.9220  137.2710 O   0  0  0  0  0  0  0  0  0  0  0  0
  180.6200  177.2710  135.5340 C   0  0  0  0  0  2  0  0  0  0  0  0
  181.6230  176.9560  134.6040 O   0  0  0  0  0  0  0  0  0  0  0  0
  181.9020  175.5980  134.8040 C   0  0  0  0  0  2  0  0  0  0  0  0
  182.7710  175.3930  136.0370 C   0  0  0  0  0  2  0  0  0  0  0  0
  183.9070  174.5460  135.7280 N   0  0  0  0  0  2  0  0  0  0  0  0
  183.3750  173.4090  135.0030 C   0  0  0  0  0  2  0  0  0  0  0  0
  183.9430  172.1090  135.5620 C   0  0  0  0  0  2  0  0  0  0  0  0
  182.8720  171.2570  136.1750 C   0  0  0  0  0  0  0  0  0  0  0  0
  182.2720  171.6290  137.3740 O   0  0  0  0  0  1  0  0  0  0  0  0
  182.5440  170.1740  135.6250 O   0  0  0  0  0  0  0  0  0  0  0  0
  181.7090  176.5690  139.7580 C   0  0  0  0  0  2  0  0  0  0  0  0
  180.1450  174.9230  140.5010 O   0  0  0  0  0  1  0  0  0  0  0  0
  180.9860  175.2690  139.4420 C   0  0  0  0  0  2  0  0  0  0  0  0
  189.8150  177.9340  146.1140 O   0  0  0  0  0  0  0  0  0  0  0  0
  189.3400  177.3540  147.3260 C   0  0  0  0  0  2  0  0  0  0  0  0
  187.9960  178.0510  149.1650 O   0  0  0  0  0  1  0  0  0  0  0  0
  188.0780  178.0680  147.7740 C   0  0  0  0  0  2  0  0  0  0  0  0
  189.3200  177.9210  135.3860 N   0  0  0  0  0  2  0  0  0  0  0  0
  189.5670  176.6870  134.6560 C   0  0  0  0  0  2  0  0  0  0  0  0
  187.7670  175.1860  135.5050 C   0  0  0  0  0  3  0  0  0  0  0  0
  189.1260  175.5100  135.4610 C   0  0  0  0  0  0  0  0  0  0  0  0
  188.2100  173.3370  136.9230 C   0  0  0  0  0  3  0  0  0  0  0  0
  190.0490  174.7200  136.1690 C   0  0  0  0  0  0  0  0  0  0  0  0
  189.5770  173.6240  136.9050 C   0  0  0  0  0  3  0  0  0  0  0  0
  187.3410  174.1190  136.2290 N   0  0  0  0  0  0  0  0  0  0  0  0
  192.5340  174.1960  135.7820 C   0  0  0  0  0  0  0  0  0  0  0  0
  192.3140  173.0750  135.2500 O   0  0  0  0  0  0  0  0  0  0  0  0
  191.4430  175.0600  136.1480 N   0  0  0  0  0  2  0  0  0  0  0  0
  194.1430  175.7430  136.8840 C   0  0  0  0  0  1  0  0  0  0  0  0
  193.8840  174.6260  135.9890 N   0  0  0  0  0  0  0  0  0  0  0  0
  194.9200  173.8270  135.5960 O   0  0  0  0  0  0  0  0  0  0  0  0
  194.7160  173.4240  138.0100 C   0  0  0  0  0  1  0  0  0  0  0  0
  196.8380  174.0680  136.9640 C   0  0  0  0  0  1  0  0  0  0  0  0
  195.5590  173.2890  136.7440 C   0  0  0  0  0  0  0  0  0  0  0  0
  195.9440  171.8280  136.5330 C   0  0  0  0  0  1  0  0  0  0  0  0
  1  9  2  0  0  0  0
  2 15  2  0  0  0  0
  2 16  1  0  0  0  0
  3 10  1  0  0  0  0
  4 11  2  0  0  0  0
  5 13  1  0  0  0  0
  6  5  2  0  0  0  0
  7 12  2  0  0  0  0
  7 17  1  0  0  0  0
  8 18  1  0  0  0  0
  8  4  1  0  0  0  0
  9  2  1  0  0  0  0
 10 13  2  0  0  0  0
 10  7  1  0  0  0  0
 11 15  1  0  0  0  0
 12  8  1  0  0  0  0
 13 12  1  0  0  0  0
 14  6  1  0  0  0  0
 14  3  2  0  0  0  0
 15 43  1  0  0  0  0
 17  1  1  6  0  0  0
 17  4  1  0  0  0  0
 18 19  1  0  0  0  0
 20 21  2  0  0  0  0
 21 19  1  0  0  0  0
 22 20  1  0  0  0  0
 22 23  1  1  0  0  0
 24 22  1  0  0  0  0
 25 24  1  0  0  0  0
 25 40  1  6  0  0  0
 26 30  1  6  0  0  0
 26 29  1  0  0  0  0
 26 28  1  0  0  0  0
 28 27  1  6  0  0  0
 28 25  1  0  0  0  0
 29 28  1  0  0  0  0
 31 32  1  0  0  0  0
 31 30  1  0  0  0  0
 32 33  1  0  0  0  0
 34 33  1  0  0  0  0
 35 36  1  0  0  0  0
 35 34  1  0  0  0  0
 36 37  1  0  0  0  0
 37 38  1  0  0  0  0
 39 37  2  0  0  0  0
 42 40  1  0  0  0  0
 42 41  1  0  0  0  0
 43 44  1  0  0  0  0
 44 46  1  0  0  0  0
 46 45  1  0  0  0  0
 47 14  1  0  0  0  0
 48 47  1  0  0  0  0
 48 50  1  0  0  0  0
 49 54  1  0  0  0  0
 50 49  2  0  0  0  0
 50 52  1  0  0  0  0
 52 53  2  0  0  0  0
 53 51  1  0  0  0  0
 54 51  2  0  0  0  0
 55 59  1  0  0  0  0
 55 57  1  0  0  0  0
 56 55  2  0  0  0  0
 57 52  1  0  0  0  0
 59 58  1  0  0  0  0
 60 59  1  0  0  0  0
 60 63  1  0  0  0  0
 63 62  1  0  0  0  0
 63 61  1  0  0  0  0
 64 63  1  0  0  0  0
M  END
>  <MODEL>
8

>  <REMARK>
 VINA RESULT:      -5.3      2.681      9.983
  Name = 
  26 active torsions:
  status: ('A' for Active; 'I' for Inactive)
    1  A    between atoms: O_2  and  C_5
    2  A    between atoms: O_2  and  C_12
    3  A    between atoms: C_5  and  C_23
    4  A    between atoms: C_9  and  C_31
    5  A    between atoms: C_12  and  C_36
    6  A    between atoms: C_12  and  C_51
    7  A    between atoms: N_16  and  C_18
    8  A    between atoms: N_16  and  C_44
    9  A    between atoms: O_17  and  C_45
   10  A    between atoms: O_17  and  C_57
   11  A    between atoms: C_18  and  C_34
   12  A    between atoms: O_20  and  C_48
   13  A    between atoms: O_20  and  C_54
   14  A    between atoms: N_21  and  C_50
   15  A    between atoms: N_22  and  C_41
   16  A    between atoms: C_24  and  C_48
   17  A    between atoms: C_26  and  C_61
   18  A    between atoms: C_27  and  C_36
   19  A    between atoms: C_31  and  C_38
   20  A    between atoms: C_38  and  N_53
   21  A    between atoms: C_41  and  C_61
   22  A    between atoms: C_45  and  C_49
   23  A    between atoms: C_46  and  O_55
   24  A    between atoms: C_52  and  N_53
   25  A    between atoms: C_52  and  C_54
   26  A    between atoms: O_55  and  N_58
                            x       y       z     vdW  Elec       q    Type
                         _______ _______ _______ _____ _____    ______ ____

>  <TORSDO>
F 26

$$$$
=
 OpenBabel10222419113D

 64 69  0  0  1  0  0  0  0  0999 V2000
  190.9300  176.5290  145.4840 C   0  0  0  0  0  3  0  0  0  0  0  0
  189.8570  177.2030  147.6540 C   0  0  0  0  0  0  0  0  0  0  0  0
  192.2100  177.3830  141.2550 C   0  0  0  0  0  3  0  0  0  0  0  0
  188.7180  177.3770  144.8000 C   0  0  0  0  0  0  0  0  0  0  0  0
  189.6390  176.8340  140.0290 C   0  0  0  0  0  3  0  0  0  0  0  0
  190.8210  176.9260  139.2540 C   0  0  0  0  0  3  0  0  0  0  0  0
  190.3590  177.3590  143.2590 C   0  0  0  0  0  0  0  0  0  0  0  0
  188.0870  177.0470  143.5330 N   0  0  0  0  0  0  0  0  0  0  0  0
  190.7620  176.3920  146.7990 C   0  0  0  0  0  3  0  0  0  0  0  0
  191.0270  177.2830  141.9590 C   0  0  0  0  0  0  0  0  0  0  0  0
  188.0380  177.4480  145.9410 C   0  0  0  0  0  3  0  0  0  0  0  0
  189.2200  177.0940  142.7100 C   0  0  0  0  0  0  0  0  0  0  0  0
  189.8270  177.0260  141.3850 C   0  0  0  0  0  0  0  0  0  0  0  0
  192.0910  177.1990  139.8480 C   0  0  0  0  0  0  0  0  0  0  0  0
  188.6250  177.6540  147.2850 C   0  0  0  0  0  0  0  0  0  0  0  0
  190.3250  177.4570  148.9370 O   0  0  0  0  0  1  0  0  0  0  0  0
  190.2370  177.5920  144.7090 C   0  0  2  0  0  3  0  0  0  0  0  0
  186.7130  177.3490  143.1400 C   0  0  0  0  0  2  0  0  0  0  0  0
  186.6840  178.4850  142.1280 C   0  0  0  0  0  2  0  0  0  0  0  0
  184.2760  178.4130  142.5290 C   0  0  0  0  0  3  0  0  0  0  0  0
  185.3260  179.0970  142.0790 C   0  0  0  0  0  3  0  0  0  0  0  0
  182.8950  178.9880  142.4910 C   0  0  2  0  0  3  0  0  0  0  0  0
  182.4030  179.2640  143.9020 C   0  0  0  0  0  1  0  0  0  0  0  0
  182.0330  178.0760  141.8720 O   0  0  0  0  0  0  0  0  0  0  0  0
  181.6660  178.6780  140.6580 C   0  0  1  0  0  3  0  0  0  0  0  0
  181.7740  178.2160  138.0630 C   0  0  2  0  0  3  0  0  0  0  0  0
  183.2360  177.0010  139.6570 O   0  0  0  0  0  1  0  0  0  0  0  0
  182.1500  177.8560  139.4590 C   0  0  1  0  0  0  0  0  0  0  0  0
  181.1040  177.2030  138.7820 O   0  0  0  0  0  0  0  0  0  0  0  0
  182.6860  177.5840  137.0220 C   0  0  0  0  0  2  0  0  0  0  0  0
  181.9100  176.8990  136.0740 O   0  0  0  0  0  0  0  0  0  0  0  0
  182.6520  175.7600  135.7380 C   0  0  0  0  0  2  0  0  0  0  0  0
  184.0210  175.7820  136.4050 C   0  0  0  0  0  2  0  0  0  0  0  0
  185.0680  175.9590  135.4170 N   0  0  0  0  0  2  0  0  0  0  0  0
  186.2510  176.3600  136.1530 C   0  0  0  0  0  2  0  0  0  0  0  0
  186.5000  177.8550  135.9890 C   0  0  0  0  0  2  0  0  0  0  0  0
  187.2260  178.4270  137.1680 C   0  0  0  0  0  0  0  0  0  0  0  0
  188.5940  178.6740  137.1060 O   0  0  0  0  0  0  0  0  0  0  0  0
  186.6030  178.6430  138.2410 O   0  0  0  0  0  1  0  0  0  0  0  0
  180.1570  178.9120  140.6130 C   0  0  0  0  0  2  0  0  0  0  0  0
  179.8090  180.8990  141.8940 O   0  0  0  0  0  1  0  0  0  0  0  0
  179.8310  180.3980  140.5920 C   0  0  0  0  0  2  0  0  0  0  0  0
  187.7750  178.3210  148.1850 O   0  0  0  0  0  0  0  0  0  0  0  0
  186.5940  179.0360  147.8310 C   0  0  0  0  0  2  0  0  0  0  0  0
  185.4900  178.0290  145.9750 O   0  0  0  0  0  1  0  0  0  0  0  0
  185.5260  178.0620  147.3680 C   0  0  0  0  0  2  0  0  0  0  0  0
  193.2430  177.2740  139.0010 N   0  0  0  0  0  2  0  0  0  0  0  0
  193.7980  176.1320  138.2910 C   0  0  0  0  0  2  0  0  0  0  0  0
  191.7930  176.4230  136.8390 C   0  0  0  0  0  3  0  0  0  0  0  0
  193.0950  175.9370  136.9890 C   0  0  0  0  0  0  0  0  0  0  0  0
  191.7080  175.6300  134.6050 C   0  0  0  0  0  3  0  0  0  0  0  0
  193.7160  175.2810  135.9120 C   0  0  0  0  0  0  0  0  0  0  0  0
  193.0080  175.1310  134.7110 C   0  0  0  0  0  3  0  0  0  0  0  0
  191.1320  176.2600  135.6640 N   0  0  0  0  0  0  0  0  0  0  0  0
  195.5420  173.5090  135.5530 C   0  0  0  0  0  0  0  0  0  0  0  0
  194.8610  172.8350  134.7340 O   0  0  0  0  0  0  0  0  0  0  0  0
  195.0450  174.7580  136.0650 N   0  0  0  0  0  2  0  0  0  0  0  0
  197.4760  173.6260  137.1160 C   0  0  0  0  0  1  0  0  0  0  0  0
  196.8370  173.0420  135.9460 N   0  0  0  0  0  0  0  0  0  0  0  0
  197.3300  171.8810  135.4220 O   0  0  0  0  0  0  0  0  0  0  0  0
  196.0220  171.2080  137.3870 C   0  0  0  0  0  1  0  0  0  0  0  0
  198.2280  170.2590  136.8940 C   0  0  0  0  0  1  0  0  0  0  0  0
  196.9630  170.7950  136.2580 C   0  0  0  0  0  0  0  0  0  0  0  0
  196.3390  169.6600  135.4540 C   0  0  0  0  0  1  0  0  0  0  0  0
  1  9  2  0  0  0  0
  2 16  1  0  0  0  0
  3 10  1  0  0  0  0
  4 11  2  0  0  0  0
  5 13  1  0  0  0  0
  6 14  1  0  0  0  0
  6  5  2  0  0  0  0
  7 17  1  0  0  0  0
  8  4  1  0  0  0  0
  9  2  1  0  0  0  0
 10  7  1  0  0  0  0
 11 15  1  0  0  0  0
 12  7  2  0  0  0  0
 12  8  1  0  0  0  0
 13 10  2  0  0  0  0
 13 12  1  0  0  0  0
 14  3  2  0  0  0  0
 15  2  2  0  0  0  0
 15 43  1  0  0  0  0
 17  4  1  0  0  0  0
 17  1  1  1  0  0  0
 18  8  1  0  0  0  0
 19 18  1  0  0  0  0
 21 19  1  0  0  0  0
 21 20  2  0  0  0  0
 22 20  1  0  0  0  0
 22 23  1  1  0  0  0
 24 22  1  0  0  0  0
 25 40  1  1  0  0  0
 25 24  1  0  0  0  0
 26 30  1  6  0  0  0
 26 29  1  0  0  0  0
 26 28  1  0  0  0  0
 28 27  1  1  0  0  0
 28 25  1  0  0  0  0
 29 28  1  0  0  0  0
 31 30  1  0  0  0  0
 32 31  1  0  0  0  0
 32 33  1  0  0  0  0
 34 35  1  0  0  0  0
 34 33  1  0  0  0  0
 36 35  1  0  0  0  0
 36 37  1  0  0  0  0
 37 39  1  0  0  0  0
 38 37  2  0  0  0  0
 42 40  1  0  0  0  0
 42 41  1  0  0  0  0
 44 43  1  0  0  0  0
 45 46  1  0  0  0  0
 46 44  1  0  0  0  0
 47 14  1  0  0  0  0
 48 47  1  0  0  0  0
 49 50  1  0  0  0  0
 50 48  1  0  0  0  0
 51 53  2  0  0  0  0
 51 54  1  0  0  0  0
 52 57  1  0  0  0  0
 52 50  2  0  0  0  0
 53 52  1  0  0  0  0
 54 49  2  0  0  0  0
 55 59  1  0  0  0  0
 55 57  1  0  0  0  0
 56 55  2  0  0  0  0
 59 58  1  0  0  0  0
 60 59  1  0  0  0  0
 60 63  1  0  0  0  0
 63 62  1  0  0  0  0
 63 61  1  0  0  0  0
 64 63  1  0  0  0  0
M  END
>  <MODEL>
9

>  <REMARK>
 VINA RESULT:      -5.2      2.777     10.541
  Name = 
  26 active torsions:
  status: ('A' for Active; 'I' for Inactive)
    1  A    between atoms: O_2  and  C_5
    2  A    between atoms: O_2  and  C_12
    3  A    between atoms: C_5  and  C_23
    4  A    between atoms: C_9  and  C_31
    5  A    between atoms: C_12  and  C_36
    6  A    between atoms: C_12  and  C_51
    7  A    between atoms: N_16  and  C_18
    8  A    between atoms: N_16  and  C_44
    9  A    between atoms: O_17  and  C_45
   10  A    between atoms: O_17  and  C_57
   11  A    between atoms: C_18  and  C_34
   12  A    between atoms: O_20  and  C_48
   13  A    between atoms: O_20  and  C_54
   14  A    between atoms: N_21  and  C_50
   15  A    between atoms: N_22  and  C_41
   16  A    between atoms: C_24  and  C_48
   17  A    between atoms: C_26  and  C_61
   18  A    between atoms: C_27  and  C_36
   19  A    between atoms: C_31  and  C_38
   20  A    between atoms: C_38  and  N_53
   21  A    between atoms: C_41  and  C_61
   22  A    between atoms: C_45  and  C_49
   23  A    between atoms: C_46  and  O_55
   24  A    between atoms: C_52  and  N_53
   25  A    between atoms: C_52  and  C_54
   26  A    between atoms: O_55  and  N_58
                            x       y       z     vdW  Elec       q    Type
                         _______ _______ _______ _____ _____    ______ ____

>  <TORSDO>
F 26

$$$$
