=
 OpenBabel10222416353D

 32 36  0  0  1  0  0  0  0  0999 V2000
  189.4180  177.3240  140.5410 C   0  0  0  0  0  2  0  0  0  0  0  0
  182.1070  178.5870  141.2930 N   0  0  0  0  0  0  0  0  0  0  0  0
  185.6050  178.8140  142.3940 C   0  0  0  0  0  0  0  0  0  0  0  0
  187.1050  178.0240  138.0370 C   0  0  0  0  0  0  0  0  0  0  0  0
  184.5720  178.6550  141.4870 C   0  0  0  0  0  0  0  0  0  0  0  0
  183.0040  178.9360  143.2680 C   0  0  0  0  0  0  0  0  0  0  0  0
  186.7120  177.7740  136.8180 C   0  0  0  0  0  3  0  0  0  0  0  0
  186.9150  178.7010  141.7100 C   0  0  1  0  0  3  0  0  0  0  0  0
  185.3560  179.0440  143.7660 C   0  0  0  0  0  3  0  0  0  0  0  0
  187.4950  178.2720  139.2590 C   0  0  0  0  0  0  0  0  0  0  0  0
  183.2660  178.7190  141.9520 C   0  0  0  0  0  0  0  0  0  0  0  0
  181.1630  178.7270  142.2230 N   0  0  0  0  0  2  0  0  0  0  0  0
  187.6290  177.5350  142.2130 N   0  0  0  0  0  2  0  0  0  0  0  0
  184.0170  179.1070  144.2200 C   0  0  0  0  0  3  0  0  0  0  0  0
  189.0540  177.7370  141.9650 C   0  0  1  0  0  3  0  0  0  0  0  0
  185.0820  178.4300  140.1180 C   0  0  0  0  0  2  0  0  0  0  0  0
  188.9650  178.3730  139.5330 C   0  0  0  0  0  2  0  0  0  0  0  0
  186.5360  178.4740  140.3110 N   0  0  0  0  0  0  0  0  0  0  0  0
  181.6750  178.9400  143.4350 N   0  0  0  0  0  0  0  0  0  0  0  0
  187.1940  176.7510  134.7280 O   0  0  0  0  0  0  0  0  0  0  0  0
  187.3910  176.7860  135.9720 C   0  0  0  0  0  0  0  0  0  0  0  0
  188.3270  175.8140  136.5940 C   0  0  0  0  0  1  0  0  0  0  0  0
  190.0750  175.6330  142.5270 O   0  0  0  0  0  1  0  0  0  0  0  0
  189.8800  176.9450  142.9720 C   0  0  2  0  0  3  0  0  0  0  0  0
  189.8740  177.1490  145.5000 C   0  0  0  0  0  0  0  0  0  0  0  0
  189.1970  176.9300  144.2590 N   0  0  0  0  0  2  0  0  0  0  0  0
  191.1010  177.4350  145.5190 O   0  0  0  0  0  0  0  0  0  0  0  0
  187.4260  178.1300  147.9790 C   0  0  0  0  0  2  0  0  0  0  0  0
  188.7570  178.0960  148.7060 C   0  0  0  0  0  2  0  0  0  0  0  0
  187.7270  177.5440  146.6330 C   0  0  0  0  0  2  0  0  0  0  0  0
  189.1320  177.0170  146.7860 C   0  0  2  0  0  3  0  0  0  0  0  0
  189.7700  177.7500  147.7960 O   0  0  0  0  0  0  0  0  0  0  0  0
  1 15  1  0  0  0  0
  2 11  2  0  0  0  0
  2 12  1  0  0  0  0
  3  9  1  0  0  0  0
  4 10  2  0  0  0  0
  5 11  1  0  0  0  0
  5  3  2  0  0  0  0
  6 19  2  0  0  0  0
  6 14  1  0  0  0  0
  7  4  2  0  0  0  0
  8 13  1  1  0  0  0
  8  3  1  0  0  0  0
  9 14  2  0  0  0  0
 10 17  1  0  0  0  0
 10 18  1  0  0  0  0
 11  6  1  0  0  0  0
 12 19  1  0  0  0  0
 15 13  1  0  0  0  0
 15 24  1  1  0  0  0
 16 18  1  0  0  0  0
 16  5  1  0  0  0  0
 17  1  1  0  0  0  0
 18  8  1  0  0  0  0
 20 21  2  0  0  0  0
 21 22  1  0  0  0  0
 21  7  1  0  0  0  0
 24 23  1  6  0  0  0
 24 26  1  0  0  0  0
 25 27  2  0  0  0  0
 26 25  1  0  0  0  0
 28 29  1  0  0  0  0
 30 31  1  0  0  0  0
 30 28  1  0  0  0  0
 31 25  1  6  0  0  0
 31 32  1  0  0  0  0
 32 29  1  0  0  0  0
M  END
>  <MODEL>
1

>  <REMARK>
 VINA RESULT:      -9.6      0.000      0.000
  Name = 
  4 active torsions:
  status: ('A' for Active; 'I' for Inactive)
    1  A    between atoms: C_3  and  C_13
    2  A    between atoms: N_7  and  C_23
    3  A    between atoms: C_15  and  C_22
    4  A    between atoms: C_23  and  C_27
                            x       y       z     vdW  Elec       q    Type
                         _______ _______ _______ _____ _____    ______ ____

>  <TORSDO>
F 4

$$$$
=
 OpenBabel10222416353D

 32 36  0  0  1  0  0  0  0  0999 V2000
  190.5780  176.8120  140.7040 C   0  0  0  0  0  2  0  0  0  0  0  0
  183.6860  178.5170  138.4220 N   0  0  0  0  0  0  0  0  0  0  0  0
  186.4620  178.6120  140.8260 C   0  0  0  0  0  0  0  0  0  0  0  0
  189.5110  177.4970  137.4630 C   0  0  0  0  0  0  0  0  0  0  0  0
  185.8670  178.4600  139.5870 C   0  0  0  0  0  0  0  0  0  0  0  0
  183.7450  178.9270  140.5790 C   0  0  0  0  0  0  0  0  0  0  0  0
  189.6190  177.2000  136.1960 C   0  0  0  0  0  3  0  0  0  0  0  0
  187.9240  178.3890  140.7290 C   0  0  1  0  0  3  0  0  0  0  0  0
  185.7050  178.9330  141.9760 C   0  0  0  0  0  3  0  0  0  0  0  0
  189.3990  177.7910  138.7310 C   0  0  0  0  0  0  0  0  0  0  0  0
  184.4930  178.6220  139.4870 C   0  0  2  0  0  3  0  0  0  0  0  0
  182.4620  178.7610  138.8910 N   0  0  0  0  0  0  0  0  0  0  0  0
  188.2910  177.2150  141.5110 N   0  0  0  0  0  2  0  0  0  0  0  0
  184.3040  179.0950  141.8530 C   0  0  0  0  0  3  0  0  0  0  0  0
  189.7080  177.3240  141.8490 C   0  0  1  0  0  3  0  0  0  0  0  0
  186.8620  178.1300  138.5450 C   0  0  0  0  0  2  0  0  0  0  0  0
  190.6410  177.8270  139.5680 C   0  0  0  0  0  2  0  0  0  0  0  0
  188.1180  178.1040  139.3030 N   0  0  0  0  0  0  0  0  0  0  0  0
  182.4630  179.0130  140.2000 N   0  0  0  0  0  0  0  0  0  0  0  0
  190.2150  175.4490  134.7030 O   0  0  0  0  0  0  0  0  0  0  0  0
  190.5050  176.1300  135.7240 C   0  0  0  0  0  0  0  0  0  0  0  0
  191.7630  175.8470  136.4610 C   0  0  0  0  0  1  0  0  0  0  0  0
  190.3250  175.2170  142.8300 O   0  0  0  0  0  1  0  0  0  0  0  0
  190.0040  176.5460  143.1260 C   0  0  2  0  0  3  0  0  0  0  0  0
  188.7650  177.4340  145.1530 C   0  0  0  0  0  0  0  0  0  0  0  0
  188.8410  176.5870  144.0030 N   0  0  0  0  0  2  0  0  0  0  0  0
  189.6950  178.2430  145.4160 O   0  0  0  0  0  0  0  0  0  0  0  0
  185.4570  178.3310  146.3160 C   0  0  0  0  0  2  0  0  0  0  0  0
  186.3870  178.5820  147.4880 C   0  0  0  0  0  2  0  0  0  0  0  0
  186.3180  177.6400  145.3040 C   0  0  0  0  0  2  0  0  0  0  0  0
  187.5880  177.3480  146.0640 C   0  0  2  0  0  3  0  0  0  0  0  0
  187.7050  178.2840  147.1010 O   0  0  0  0  0  0  0  0  0  0  0  0
  1 15  1  0  0  0  0
  2 12  2  0  0  0  0
  3  9  1  0  0  0  0
  4 10  2  0  0  0  0
  5  3  2  0  0  0  0
  6 14  1  0  0  0  0
  7  4  2  0  0  0  0
  8  3  1  6  0  0  0
  8 13  1  0  0  0  0
 10 18  1  0  0  0  0
 10 17  1  0  0  0  0
 11  2  1  1  0  0  0
 11  5  1  0  0  0  0
 11  6  1  0  0  0  0
 12 19  1  0  0  0  0
 13 15  1  0  0  0  0
 14  9  2  0  0  0  0
 15 24  1  1  0  0  0
 16 18  1  0  0  0  0
 16  5  1  0  0  0  0
 17  1  1  0  0  0  0
 18  8  1  0  0  0  0
 19  6  2  0  0  0  0
 20 21  2  0  0  0  0
 21  7  1  0  0  0  0
 21 22  1  0  0  0  0
 24 23  1  6  0  0  0
 24 26  1  0  0  0  0
 25 27  2  0  0  0  0
 26 25  1  0  0  0  0
 28 29  1  0  0  0  0
 30 31  1  0  0  0  0
 30 28  1  0  0  0  0
 31 25  1  6  0  0  0
 31 32  1  0  0  0  0
 32 29  1  0  0  0  0
M  END
>  <MODEL>
2

>  <REMARK>
 VINA RESULT:      -8.7      1.720      2.296
  Name = 
  4 active torsions:
  status: ('A' for Active; 'I' for Inactive)
    1  A    between atoms: C_3  and  C_13
    2  A    between atoms: N_7  and  C_23
    3  A    between atoms: C_15  and  C_22
    4  A    between atoms: C_23  and  C_27
                            x       y       z     vdW  Elec       q    Type
                         _______ _______ _______ _____ _____    ______ ____

>  <TORSDO>
F 4

$$$$
=
 OpenBabel10222416353D

 32 36  0  0  1  0  0  0  0  0999 V2000
  188.9410  177.3450  139.1530 C   0  0  0  0  0  2  0  0  0  0  0  0
  188.3400  177.2620  146.5860 N   0  0  0  0  0  0  0  0  0  0  0  0
  190.2430  177.4900  143.4520 C   0  0  0  0  0  0  0  0  0  0  0  0
  186.3760  178.6600  141.1020 C   0  0  0  0  0  0  0  0  0  0  0  0
  189.1230  177.5650  144.2590 C   0  0  0  0  0  0  0  0  0  0  0  0
  190.4630  176.9260  146.1310 C   0  0  0  0  0  0  0  0  0  0  0  0
  185.0900  178.8560  141.2210 C   0  0  0  0  0  3  0  0  0  0  0  0
  189.8940  177.8220  142.0500 C   0  0  1  0  0  3  0  0  0  0  0  0
  191.5080  177.1340  143.9730 C   0  0  0  0  0  3  0  0  0  0  0  0
  187.6610  178.4610  140.9850 C   0  0  0  0  0  0  0  0  0  0  0  0
  189.2570  177.2750  145.6090 C   0  0  0  0  0  0  0  0  0  0  0  0
  189.0080  176.9050  147.6820 N   0  0  0  0  0  2  0  0  0  0  0  0
  190.1070  176.6550  141.2050 N   0  0  0  0  0  2  0  0  0  0  0  0
  191.6250  176.8420  145.3530 C   0  0  0  0  0  3  0  0  0  0  0  0
  190.2900  177.1200  139.8320 C   0  0  1  0  0  3  0  0  0  0  0  0
  187.9250  177.9590  143.4880 C   0  0  0  0  0  2  0  0  0  0  0  0
  188.2920  178.6360  139.6380 C   0  0  0  0  0  2  0  0  0  0  0  0
  188.4580  178.1120  142.1290 N   0  0  0  0  0  0  0  0  0  0  0  0
  190.3020  176.6930  147.4400 N   0  0  0  0  0  0  0  0  0  0  0  0
  183.1800  177.6170  140.5390 O   0  0  0  0  0  0  0  0  0  0  0  0
  184.1360  178.3720  140.2160 C   0  0  0  0  0  0  0  0  0  0  0  0
  184.3020  178.7820  138.7980 C   0  0  0  0  0  1  0  0  0  0  0  0
  192.1510  176.7540  138.3540 O   0  0  0  0  0  1  0  0  0  0  0  0
  191.1170  176.1110  139.0420 C   0  0  2  0  0  3  0  0  0  0  0  0
  190.6890  174.2630  137.3600 C   0  0  0  0  0  0  0  0  0  0  0  0
  190.2590  175.4100  138.0970 N   0  0  0  0  0  2  0  0  0  0  0  0
  191.8310  173.7660  137.5570 O   0  0  0  0  0  0  0  0  0  0  0  0
  187.8230  174.1970  135.1520 C   0  0  0  0  0  2  0  0  0  0  0  0
  187.6890  172.9720  136.0350 C   0  0  0  0  0  2  0  0  0  0  0  0
  189.1820  174.7380  135.4760 C   0  0  0  0  0  2  0  0  0  0  0  0
  189.7940  173.6580  136.3320 C   0  0  2  0  0  3  0  0  0  0  0  0
  188.7570  172.9440  136.9480 O   0  0  0  0  0  0  0  0  0  0  0  0
  1 17  1  0  0  0  0
  1 15  1  0  0  0  0
  2 12  1  0  0  0  0
  3  9  1  0  0  0  0
  3  5  2  0  0  0  0
  4  7  2  0  0  0  0
  5 11  1  0  0  0  0
  6 19  2  0  0  0  0
  8 13  1  6  0  0  0
  8 18  1  0  0  0  0
  8  3  1  0  0  0  0
  9 14  2  0  0  0  0
 10  4  2  0  0  0  0
 10 18  1  0  0  0  0
 11  6  1  0  0  0  0
 11  2  2  0  0  0  0
 14  6  1  0  0  0  0
 15 24  1  6  0  0  0
 15 13  1  0  0  0  0
 16  5  1  0  0  0  0
 17 10  1  0  0  0  0
 18 16  1  0  0  0  0
 19 12  1  0  0  0  0
 21 20  2  0  0  0  0
 21  7  1  0  0  0  0
 22 21  1  0  0  0  0
 24 23  1  6  0  0  0
 25 27  2  0  0  0  0
 25 26  1  0  0  0  0
 26 24  1  0  0  0  0
 28 30  1  0  0  0  0
 28 29  1  0  0  0  0
 29 32  1  0  0  0  0
 30 31  1  0  0  0  0
 31 32  1  0  0  0  0
 31 25  1  1  0  0  0
M  END
>  <MODEL>
3

>  <REMARK>
 VINA RESULT:      -8.4      3.706      7.373
  Name = 
  4 active torsions:
  status: ('A' for Active; 'I' for Inactive)
    1  A    between atoms: C_3  and  C_13
    2  A    between atoms: N_7  and  C_23
    3  A    between atoms: C_15  and  C_22
    4  A    between atoms: C_23  and  C_27
                            x       y       z     vdW  Elec       q    Type
                         _______ _______ _______ _____ _____    ______ ____

>  <TORSDO>
F 4

$$$$
=
 OpenBabel10222416353D

 32 36  0  0  1  0  0  0  0  0999 V2000
  189.6020  177.5450  142.5960 C   0  0  0  0  0  2  0  0  0  0  0  0
  182.5670  179.1860  144.4470 N   0  0  0  0  0  0  0  0  0  0  0  0
  185.1540  177.9840  142.1320 C   0  0  0  0  0  0  0  0  0  0  0  0
  188.0660  177.1630  145.6950 C   0  0  0  0  0  0  0  0  0  0  0  0
  184.6010  178.2890  143.3620 C   0  0  0  0  0  0  0  0  0  0  0  0
  182.6070  179.0030  142.2580 C   0  0  0  0  0  0  0  0  0  0  0  0
  188.1940  177.2500  146.9910 C   0  0  0  0  0  3  0  0  0  0  0  0
  186.5310  177.4610  142.2980 C   0  0  1  0  0  3  0  0  0  0  0  0
  184.4370  178.1790  140.9300 C   0  0  0  0  0  3  0  0  0  0  0  0
  187.9360  177.0790  144.3980 C   0  0  0  0  0  0  0  0  0  0  0  0
  183.3130  178.8040  143.4010 C   0  0  0  0  0  0  0  0  0  0  0  0
  181.4210  179.6100  143.9160 N   0  0  0  0  0  2  0  0  0  0  0  0
  187.4790  178.3770  141.6780 N   0  0  0  0  0  2  0  0  0  0  0  0
  183.1240  178.7050  140.9900 C   0  0  0  0  0  3  0  0  0  0  0  0
  188.6950  177.6280  141.3710 C   0  0  1  0  0  3  0  0  0  0  0  0
  185.5400  177.9960  144.4660 C   0  0  0  0  0  2  0  0  0  0  0  0
  189.0760  176.5250  143.5990 C   0  0  0  0  0  2  0  0  0  0  0  0
  186.7150  177.4810  143.7540 N   0  0  0  0  0  0  0  0  0  0  0  0
  181.4120  179.5130  142.5860 N   0  0  0  0  0  0  0  0  0  0  0  0
  189.4350  178.6300  148.4760 O   0  0  0  0  0  0  0  0  0  0  0  0
  189.4400  177.7070  147.6180 C   0  0  0  0  0  0  0  0  0  0  0  0
  190.7250  177.0700  147.2330 C   0  0  0  0  0  1  0  0  0  0  0  0
  188.5640  179.0740  139.4540 O   0  0  0  0  0  1  0  0  0  0  0  0
  189.4340  178.2810  140.2090 C   0  0  2  0  0  3  0  0  0  0  0  0
  191.4140  176.9330  139.3740 C   0  0  0  0  0  0  0  0  0  0  0  0
  190.0190  177.2500  139.3620 N   0  0  0  0  0  2  0  0  0  0  0  0
  192.1930  177.5020  140.1850 O   0  0  0  0  0  0  0  0  0  0  0  0
  191.7580  175.3850  136.1220 C   0  0  0  0  0  2  0  0  0  0  0  0
  191.3180  174.2770  137.0590 C   0  0  0  0  0  2  0  0  0  0  0  0
  192.0380  176.5450  137.0270 C   0  0  0  0  0  2  0  0  0  0  0  0
  191.9600  175.9390  138.4070 C   0  0  2  0  0  3  0  0  0  0  0  0
  191.1320  174.8100  138.3460 O   0  0  0  0  0  0  0  0  0  0  0  0
  1 17  1  0  0  0  0
  3  8  1  0  0  0  0
  3  5  2  0  0  0  0
  4  7  2  0  0  0  0
  5 11  1  0  0  0  0
  5 16  1  0  0  0  0
  6 19  2  0  0  0  0
  6 11  1  0  0  0  0
  7 21  1  0  0  0  0
  8 13  1  6  0  0  0
  8 18  1  0  0  0  0
  9 14  2  0  0  0  0
  9  3  1  0  0  0  0
 10  4  2  0  0  0  0
 11  2  2  0  0  0  0
 12  2  1  0  0  0  0
 14  6  1  0  0  0  0
 15 24  1  6  0  0  0
 15 13  1  0  0  0  0
 15  1  1  0  0  0  0
 17 10  1  0  0  0  0
 18 10  1  0  0  0  0
 18 16  1  0  0  0  0
 19 12  1  0  0  0  0
 21 20  2  0  0  0  0
 22 21  1  0  0  0  0
 24 23  1  6  0  0  0
 25 27  2  0  0  0  0
 26 25  1  0  0  0  0
 26 24  1  0  0  0  0
 28 30  1  0  0  0  0
 28 29  1  0  0  0  0
 29 32  1  0  0  0  0
 30 31  1  0  0  0  0
 31 25  1  1  0  0  0
 32 31  1  0  0  0  0
M  END
>  <MODEL>
4

>  <REMARK>
 VINA RESULT:      -8.1      2.227      6.846
  Name = 
  4 active torsions:
  status: ('A' for Active; 'I' for Inactive)
    1  A    between atoms: C_3  and  C_13
    2  A    between atoms: N_7  and  C_23
    3  A    between atoms: C_15  and  C_22
    4  A    between atoms: C_23  and  C_27
                            x       y       z     vdW  Elec       q    Type
                         _______ _______ _______ _____ _____    ______ ____

>  <TORSDO>
F 4

$$$$
=
 OpenBabel10222416353D

 32 36  0  0  1  0  0  0  0  0999 V2000
  188.2020  177.6510  143.3230 C   0  0  0  0  0  2  0  0  0  0  0  0
  181.5670  178.4240  140.0090 N   0  0  0  0  0  0  0  0  0  0  0  0
  183.9070  178.8680  142.8050 C   0  0  0  0  0  0  0  0  0  0  0  0
  187.5540  178.2240  139.9530 C   0  0  0  0  0  0  0  0  0  0  0  0
  183.5340  178.6510  141.4920 C   0  0  0  0  0  0  0  0  0  0  0  0
  181.2420  178.8100  142.1470 C   0  0  0  0  0  0  0  0  0  0  0  0
  187.8920  177.9610  138.7200 C   0  0  0  0  0  3  0  0  0  0  0  0
  185.3840  178.8480  142.9330 C   0  0  1  0  0  3  0  0  0  0  0  0
  182.9480  179.0680  143.8240 C   0  0  0  0  0  3  0  0  0  0  0  0
  187.2130  178.4840  141.1870 C   0  0  0  0  0  0  0  0  0  0  0  0
  182.1810  178.6250  141.1830 C   0  0  2  0  0  3  0  0  0  0  0  0
  180.2650  178.4920  140.2850 N   0  0  0  0  0  0  0  0  0  0  0  0
  185.7860  177.7270  143.7710 N   0  0  0  0  0  2  0  0  0  0  0  0
  181.5740  179.0380  143.4890 C   0  0  0  0  0  3  0  0  0  0  0  0
  187.1070  178.0240  144.3190 C   0  0  1  0  0  3  0  0  0  0  0  0
  184.7110  178.4750  140.6150 C   0  0  0  0  0  2  0  0  0  0  0  0
  188.2970  178.6790  142.2020 C   0  0  0  0  0  2  0  0  0  0  0  0
  185.8290  178.6120  141.5560 N   0  0  0  0  0  0  0  0  0  0  0  0
  180.0330  178.7250  141.5760 N   0  0  0  0  0  0  0  0  0  0  0  0
  188.9260  176.3030  137.3670 O   0  0  0  0  0  0  0  0  0  0  0  0
  188.9780  177.0290  138.3960 C   0  0  0  0  0  0  0  0  0  0  0  0
  190.1570  176.9430  139.2960 C   0  0  0  0  0  1  0  0  0  0  0  0
  186.9030  178.0650  146.7150 O   0  0  0  0  0  1  0  0  0  0  0  0
  187.3110  177.2780  145.6330 C   0  0  2  0  0  3  0  0  0  0  0  0
  189.5500  177.4770  146.8080 C   0  0  0  0  0  0  0  0  0  0  0  0
  188.7170  176.9290  145.7820 N   0  0  0  0  0  2  0  0  0  0  0  0
  189.0670  178.2490  147.6790 O   0  0  0  0  0  0  0  0  0  0  0  0
  192.4480  175.3830  146.2520 C   0  0  0  0  0  2  0  0  0  0  0  0
  192.4580  175.7140  147.7320 C   0  0  0  0  0  2  0  0  0  0  0  0
  191.3600  176.2450  145.6890 C   0  0  0  0  0  2  0  0  0  0  0  0
  191.0050  177.1560  146.8370 C   0  0  2  0  0  3  0  0  0  0  0  0
  191.3370  176.5060  148.0340 O   0  0  0  0  0  0  0  0  0  0  0  0
  1 15  1  0  0  0  0
  2 12  2  0  0  0  0
  3  9  1  0  0  0  0
  4 10  2  0  0  0  0
  5  3  2  0  0  0  0
  6 14  1  0  0  0  0
  7  4  2  0  0  0  0
  8  3  1  6  0  0  0
  8 13  1  0  0  0  0
 10 18  1  0  0  0  0
 10 17  1  0  0  0  0
 11  2  1  1  0  0  0
 11  5  1  0  0  0  0
 11  6  1  0  0  0  0
 12 19  1  0  0  0  0
 13 15  1  0  0  0  0
 14  9  2  0  0  0  0
 15 24  1  1  0  0  0
 16  5  1  0  0  0  0
 16 18  1  0  0  0  0
 17  1  1  0  0  0  0
 18  8  1  0  0  0  0
 19  6  2  0  0  0  0
 20 21  2  0  0  0  0
 21  7  1  0  0  0  0
 21 22  1  0  0  0  0
 24 26  1  0  0  0  0
 24 23  1  1  0  0  0
 25 27  2  0  0  0  0
 26 25  1  0  0  0  0
 28 29  1  0  0  0  0
 29 32  1  0  0  0  0
 30 28  1  0  0  0  0
 30 31  1  0  0  0  0
 31 25  1  1  0  0  0
 31 32  1  0  0  0  0
M  END
>  <MODEL>
5

>  <REMARK>
 VINA RESULT:      -7.8      1.890      2.839
  Name = 
  4 active torsions:
  status: ('A' for Active; 'I' for Inactive)
    1  A    between atoms: C_3  and  C_13
    2  A    between atoms: N_7  and  C_23
    3  A    between atoms: C_15  and  C_22
    4  A    between atoms: C_23  and  C_27
                            x       y       z     vdW  Elec       q    Type
                         _______ _______ _______ _____ _____    ______ ____

>  <TORSDO>
F 4

$$$$
=
 OpenBabel10222416353D

 32 36  0  0  1  0  0  0  0  0999 V2000
  183.8240  178.4680  138.4130 C   0  0  0  0  0  2  0  0  0  0  0  0
  186.4470  177.3960  145.3110 N   0  0  0  0  0  0  0  0  0  0  0  0
  186.7510  178.5060  141.8220 C   0  0  0  0  0  0  0  0  0  0  0  0
  182.1010  178.7680  141.4220 C   0  0  0  0  0  0  0  0  0  0  0  0
  186.0890  178.1670  142.9880 C   0  0  0  0  0  0  0  0  0  0  0  0
  188.1960  177.7370  144.0270 C   0  0  0  0  0  0  0  0  0  0  0  0
  180.9770  178.5720  142.0570 C   0  0  0  0  0  3  0  0  0  0  0  0
  185.7810  178.8770  140.7650 C   0  0  1  0  0  3  0  0  0  0  0  0
  188.1620  178.4730  141.7360 C   0  0  0  0  0  3  0  0  0  0  0  0
  183.2270  178.9600  140.7880 C   0  0  0  0  0  0  0  0  0  0  0  0
  186.8400  177.7800  144.0890 C   0  0  0  0  0  0  0  0  0  0  0  0
  187.5750  177.1280  145.9680 N   0  0  0  0  0  2  0  0  0  0  0  0
  185.8650  177.9200  139.6690 N   0  0  0  0  0  2  0  0  0  0  0  0
  188.9100  178.0760  142.8700 C   0  0  0  0  0  3  0  0  0  0  0  0
  185.3460  178.5660  138.4660 C   0  0  1  0  0  3  0  0  0  0  0  0
  184.6240  178.2830  142.8320 C   0  0  0  0  0  2  0  0  0  0  0  0
  183.1770  179.4570  139.3760 C   0  0  0  0  0  2  0  0  0  0  0  0
  184.4870  178.7310  141.4410 N   0  0  0  0  0  0  0  0  0  0  0  0
  188.6580  177.3240  145.2150 N   0  0  0  0  0  0  0  0  0  0  0  0
  179.2890  176.9090  141.8820 O   0  0  0  0  0  0  0  0  0  0  0  0
  179.8190  177.9490  141.4070 C   0  0  0  0  0  0  0  0  0  0  0  0
  179.2630  178.5560  140.1700 C   0  0  0  0  0  1  0  0  0  0  0  0
  185.1770  176.8620  136.7780 O   0  0  0  0  0  1  0  0  0  0  0  0
  185.9600  177.9320  137.2230 C   0  0  2  0  0  3  0  0  0  0  0  0
  188.4630  178.2940  137.4150 C   0  0  0  0  0  0  0  0  0  0  0  0
  187.3050  177.4620  137.5290 N   0  0  0  0  0  2  0  0  0  0  0  0
  188.3500  179.5090  137.1030 O   0  0  0  0  0  0  0  0  0  0  0  0
  190.8710  175.6050  137.6810 C   0  0  0  0  0  2  0  0  0  0  0  0
  190.9230  176.3360  139.0090 C   0  0  0  0  0  2  0  0  0  0  0  0
  189.9980  176.4660  136.8210 C   0  0  0  0  0  2  0  0  0  0  0  0
  189.8190  177.7180  137.6430 C   0  0  2  0  0  3  0  0  0  0  0  0
  189.9860  177.3830  138.9940 O   0  0  0  0  0  0  0  0  0  0  0  0
  1 15  1  0  0  0  0
  1 17  1  0  0  0  0
  2 12  1  0  0  0  0
  3  5  2  0  0  0  0
  4  7  2  0  0  0  0
  5 11  1  0  0  0  0
  6 11  1  0  0  0  0
  6 19  2  0  0  0  0
  8 13  1  6  0  0  0
  8 18  1  0  0  0  0
  8  3  1  0  0  0  0
  9  3  1  0  0  0  0
  9 14  2  0  0  0  0
 10  4  2  0  0  0  0
 10 18  1  0  0  0  0
 11  2  2  0  0  0  0
 14  6  1  0  0  0  0
 15 24  1  6  0  0  0
 15 13  1  0  0  0  0
 16  5  1  0  0  0  0
 17 10  1  0  0  0  0
 18 16  1  0  0  0  0
 19 12  1  0  0  0  0
 21 20  2  0  0  0  0
 21  7  1  0  0  0  0
 22 21  1  0  0  0  0
 24 23  1  1  0  0  0
 24 26  1  0  0  0  0
 25 26  1  0  0  0  0
 27 25  2  0  0  0  0
 28 29  1  0  0  0  0
 30 31  1  0  0  0  0
 30 28  1  0  0  0  0
 31 25  1  1  0  0  0
 31 32  1  0  0  0  0
 32 29  1  0  0  0  0
M  END
>  <MODEL>
6

>  <REMARK>
 VINA RESULT:      -7.8      2.997      7.044
  Name = 
  4 active torsions:
  status: ('A' for Active; 'I' for Inactive)
    1  A    between atoms: C_3  and  C_13
    2  A    between atoms: N_7  and  C_23
    3  A    between atoms: C_15  and  C_22
    4  A    between atoms: C_23  and  C_27
                            x       y       z     vdW  Elec       q    Type
                         _______ _______ _______ _____ _____    ______ ____

>  <TORSDO>
F 4

$$$$
=
 OpenBabel10222416353D

 32 36  0  0  1  0  0  0  0  0999 V2000
  185.0490  178.9990  142.2570 C   0  0  0  0  0  2  0  0  0  0  0  0
  191.4690  177.0790  145.5290 N   0  0  0  0  0  0  0  0  0  0  0  0
  187.8110  177.3990  145.4200 C   0  0  0  0  0  0  0  0  0  0  0  0
  187.9010  177.6880  140.7550 C   0  0  0  0  0  0  0  0  0  0  0  0
  189.0880  177.3080  144.8980 C   0  0  0  0  0  0  0  0  0  0  0  0
  189.9520  177.1280  147.1180 C   0  0  0  0  0  0  0  0  0  0  0  0
  188.6930  177.7100  139.7170 C   0  0  0  0  0  3  0  0  0  0  0  0
  186.8160  177.5500  144.3310 C   0  0  1  0  0  3  0  0  0  0  0  0
  187.5750  177.3500  146.8130 C   0  0  0  0  0  3  0  0  0  0  0  0
  187.1120  177.6690  141.7960 C   0  0  0  0  0  0  0  0  0  0  0  0
  190.1550  177.1730  145.7750 C   0  0  0  0  0  0  0  0  0  0  0  0
  192.0380  176.9780  146.7300 N   0  0  0  0  0  2  0  0  0  0  0  0
  186.1640  178.8480  144.4420 N   0  0  0  0  0  2  0  0  0  0  0  0
  188.6760  177.2110  147.6910 C   0  0  0  0  0  3  0  0  0  0  0  0
  184.8780  178.7670  143.7550 C   0  0  1  0  0  3  0  0  0  0  0  0
  189.0770  177.3800  143.4220 C   0  0  0  0  0  2  0  0  0  0  0  0
  185.6340  177.7690  141.5740 C   0  0  0  0  0  2  0  0  0  0  0  0
  187.6470  177.5230  143.1220 N   0  0  0  0  0  0  0  0  0  0  0  0
  191.1430  177.0050  147.7180 N   0  0  0  0  0  0  0  0  0  0  0  0
  189.1370  179.6930  138.4860 O   0  0  0  0  0  0  0  0  0  0  0  0
  188.4730  178.6280  138.5940 C   0  0  0  0  0  0  0  0  0  0  0  0
  187.4510  178.2930  137.5690 C   0  0  0  0  0  1  0  0  0  0  0  0
  183.4370  179.3580  145.5880 O   0  0  0  0  0  1  0  0  0  0  0  0
  183.9050  179.7850  144.3410 C   0  0  2  0  0  3  0  0  0  0  0  0
  181.6150  179.1390  143.4620 C   0  0  0  0  0  0  0  0  0  0  0  0
  182.7830  179.9650  143.4300 N   0  0  0  0  0  2  0  0  0  0  0  0
  181.4860  178.2480  144.3440 O   0  0  0  0  0  0  0  0  0  0  0  0
  180.3470  179.9940  140.1830 C   0  0  0  0  0  2  0  0  0  0  0  0
  179.5920  180.8780  141.1580 C   0  0  0  0  0  2  0  0  0  0  0  0
  181.1090  179.0470  141.0570 C   0  0  0  0  0  2  0  0  0  0  0  0
  180.5510  179.3130  142.4330 C   0  0  2  0  0  3  0  0  0  0  0  0
  180.0550  180.6240  142.4600 O   0  0  0  0  0  0  0  0  0  0  0  0
  1 15  1  0  0  0  0
  2 11  2  0  0  0  0
  2 12  1  0  0  0  0
  3  9  1  0  0  0  0
  4 10  2  0  0  0  0
  5  3  2  0  0  0  0
  5 11  1  0  0  0  0
  6 14  1  0  0  0  0
  6 19  2  0  0  0  0
  7  4  2  0  0  0  0
  8 13  1  1  0  0  0
  8  3  1  0  0  0  0
  9 14  2  0  0  0  0
 10 18  1  0  0  0  0
 11  6  1  0  0  0  0
 12 19  1  0  0  0  0
 15 24  1  1  0  0  0
 15 13  1  0  0  0  0
 16  5  1  0  0  0  0
 17 10  1  0  0  0  0
 17  1  1  0  0  0  0
 18 16  1  0  0  0  0
 18  8  1  0  0  0  0
 20 21  2  0  0  0  0
 21  7  1  0  0  0  0
 22 21  1  0  0  0  0
 24 23  1  1  0  0  0
 25 27  2  0  0  0  0
 26 25  1  0  0  0  0
 26 24  1  0  0  0  0
 28 30  1  0  0  0  0
 28 29  1  0  0  0  0
 29 32  1  0  0  0  0
 30 31  1  0  0  0  0
 31 32  1  0  0  0  0
 31 25  1  1  0  0  0
M  END
>  <MODEL>
7

>  <REMARK>
 VINA RESULT:      -7.8      3.511      7.269
  Name = 
  4 active torsions:
  status: ('A' for Active; 'I' for Inactive)
    1  A    between atoms: C_3  and  C_13
    2  A    between atoms: N_7  and  C_23
    3  A    between atoms: C_15  and  C_22
    4  A    between atoms: C_23  and  C_27
                            x       y       z     vdW  Elec       q    Type
                         _______ _______ _______ _____ _____    ______ ____

>  <TORSDO>
F 4

$$$$
=
 OpenBabel10222416353D

 32 36  0  0  1  0  0  0  0  0999 V2000
  187.1330  178.2600  142.2640 C   0  0  0  0  0  2  0  0  0  0  0  0
  183.1160  177.2940  136.0570 N   0  0  0  0  0  0  0  0  0  0  0  0
  183.7610  178.8010  139.3450 C   0  0  0  0  0  0  0  0  0  0  0  0
  188.2990  177.7270  139.0290 C   0  0  0  0  0  0  0  0  0  0  0  0
  184.0830  178.1630  138.1610 C   0  0  0  0  0  0  0  0  0  0  0  0
  181.7870  178.2650  137.5120 C   0  0  0  0  0  0  0  0  0  0  0  0
  189.1930  177.1450  138.2770 C   0  0  0  0  0  3  0  0  0  0  0  0
  184.9700  178.9780  140.1840 C   0  0  1  0  0  3  0  0  0  0  0  0
  182.4340  179.1930  139.6360 C   0  0  0  0  0  3  0  0  0  0  0  0
  187.4010  178.3060  139.7820 C   0  0  0  0  0  0  0  0  0  0  0  0
  183.0690  177.9010  137.2510 C   0  0  2  0  0  3  0  0  0  0  0  0
  181.8570  177.3020  135.6170 N   0  0  0  0  0  0  0  0  0  0  0  0
  184.8280  178.2080  141.4120 N   0  0  0  0  0  2  0  0  0  0  0  0
  181.4140  178.9170  138.6950 C   0  0  0  0  0  3  0  0  0  0  0  0
  185.7120  178.7950  142.4160 C   0  0  1  0  0  3  0  0  0  0  0  0
  185.5280  177.8590  138.0850 C   0  0  0  0  0  2  0  0  0  0  0  0
  187.8400  178.9100  141.0810 C   0  0  0  0  0  2  0  0  0  0  0  0
  186.0300  178.3890  139.3580 N   0  0  0  0  0  0  0  0  0  0  0  0
  181.0240  177.8850  136.4790 N   0  0  0  0  0  0  0  0  0  0  0  0
  190.5680  175.2060  138.2700 O   0  0  0  0  0  0  0  0  0  0  0  0
  190.2360  176.2800  138.8400 C   0  0  0  0  0  0  0  0  0  0  0  0
  190.9100  176.6800  140.1020 C   0  0  0  0  0  1  0  0  0  0  0  0
  184.6960  179.6680  144.4130 O   0  0  0  0  0  1  0  0  0  0  0  0
  185.1830  178.5010  143.8160 C   0  0  2  0  0  3  0  0  0  0  0  0
  186.1620  177.8230  146.0550 C   0  0  0  0  0  0  0  0  0  0  0  0
  186.2520  177.9410  144.6330 N   0  0  0  0  0  2  0  0  0  0  0  0
  185.1030  178.1450  146.6590 O   0  0  0  0  0  0  0  0  0  0  0  0
  189.0110  178.2060  148.2530 C   0  0  0  0  0  2  0  0  0  0  0  0
  189.5510  177.5670  146.9880 C   0  0  0  0  0  2  0  0  0  0  0  0
  187.5240  178.1860  148.0700 C   0  0  0  0  0  2  0  0  0  0  0  0
  187.3340  177.3370  146.8380 C   0  0  2  0  0  3  0  0  0  0  0  0
  188.5010  177.4140  146.0660 O   0  0  0  0  0  0  0  0  0  0  0  0
  1 15  1  0  0  0  0
  3  9  1  0  0  0  0
  4 10  2  0  0  0  0
  5  3  2  0  0  0  0
  6 14  1  0  0  0  0
  7 21  1  0  0  0  0
  7  4  2  0  0  0  0
  8  3  1  6  0  0  0
  8 13  1  0  0  0  0
 10 17  1  0  0  0  0
 11  2  1  1  0  0  0
 11  6  1  0  0  0  0
 11  5  1  0  0  0  0
 12  2  2  0  0  0  0
 12 19  1  0  0  0  0
 13 15  1  0  0  0  0
 14  9  2  0  0  0  0
 15 24  1  1  0  0  0
 16  5  1  0  0  0  0
 16 18  1  0  0  0  0
 17  1  1  0  0  0  0
 18 10  1  0  0  0  0
 18  8  1  0  0  0  0
 19  6  2  0  0  0  0
 20 21  2  0  0  0  0
 21 22  1  0  0  0  0
 24 23  1  1  0  0  0
 24 26  1  0  0  0  0
 25 27  2  0  0  0  0
 26 25  1  0  0  0  0
 29 28  1  0  0  0  0
 30 28  1  0  0  0  0
 31 25  1  6  0  0  0
 31 30  1  0  0  0  0
 32 31  1  0  0  0  0
 32 29  1  0  0  0  0
M  END
>  <MODEL>
8

>  <REMARK>
 VINA RESULT:      -7.7      2.896      4.127
  Name = 
  4 active torsions:
  status: ('A' for Active; 'I' for Inactive)
    1  A    between atoms: C_3  and  C_13
    2  A    between atoms: N_7  and  C_23
    3  A    between atoms: C_15  and  C_22
    4  A    between atoms: C_23  and  C_27
                            x       y       z     vdW  Elec       q    Type
                         _______ _______ _______ _____ _____    ______ ____

>  <TORSDO>
F 4

$$$$
=
 OpenBabel10222416353D

 32 36  0  0  1  0  0  0  0  0999 V2000
  187.6840  177.9820  146.0330 C   0  0  0  0  0  2  0  0  0  0  0  0
  191.0490  175.9160  139.7070 N   0  0  0  0  0  0  0  0  0  0  0  0
  188.6870  177.9480  141.6520 C   0  0  0  0  0  0  0  0  0  0  0  0
  190.9860  176.9730  145.6030 C   0  0  0  0  0  0  0  0  0  0  0  0
  189.7890  177.1380  141.4490 C   0  0  0  0  0  0  0  0  0  0  0  0
  189.2730  177.0670  139.1180 C   0  0  0  0  0  0  0  0  0  0  0  0
  191.9930  176.3050  146.0980 C   0  0  0  0  0  3  0  0  0  0  0  0
  188.5550  178.2930  143.0880 C   0  0  1  0  0  3  0  0  0  0  0  0
  187.8500  178.3410  140.5830 C   0  0  0  0  0  3  0  0  0  0  0  0
  189.9780  177.6370  145.1060 C   0  0  0  0  0  0  0  0  0  0  0  0
  190.0650  176.7040  140.1610 C   0  0  0  0  0  0  0  0  0  0  0  0
  190.8340  175.8160  138.3950 N   0  0  0  0  0  0  0  0  0  0  0  0
  187.3210  177.7250  143.6150 N   0  0  0  0  0  2  0  0  0  0  0  0
  188.1490  177.8890  139.2750 C   0  0  0  0  0  2  0  0  0  0  0  0
  186.9420  178.4910  144.8000 C   0  0  1  0  0  3  0  0  0  0  0  0
  190.5050  176.8700  142.7150 C   0  0  0  0  0  2  0  0  0  0  0  0
  189.1330  178.4540  146.0350 C   0  0  0  0  0  2  0  0  0  0  0  0
  189.7040  177.6110  143.6950 N   0  0  0  0  0  0  0  0  0  0  0  0
  189.7610  176.5040  138.0050 N   0  0  0  0  0  0  0  0  0  0  0  0
  190.8920  174.8450  147.6160 O   0  0  0  0  0  0  0  0  0  0  0  0
  191.8900  175.5720  147.3650 C   0  0  0  0  0  0  0  0  0  0  0  0
  192.9810  175.6920  148.3660 C   0  0  0  0  0  1  0  0  0  0  0  0
  185.1260  177.4170  145.9540 O   0  0  0  0  0  1  0  0  0  0  0  0
  185.4360  178.4100  145.0180 C   0  0  2  0  0  3  0  0  0  0  0  0
  183.6060  178.8090  143.3080 C   0  0  0  0  0  0  0  0  0  0  0  0
  184.7750  178.1160  143.7530 N   0  0  0  0  0  2  0  0  0  0  0  0
  183.1350  179.7660  143.9780 O   0  0  0  0  0  0  0  0  0  0  0  0
  182.8050  179.0300  139.7860 C   0  0  0  0  0  2  0  0  0  0  0  0
  181.4780  179.1230  140.5150 C   0  0  0  0  0  2  0  0  0  0  0  0
  183.7920  178.6860  140.8580 C   0  0  0  0  0  2  0  0  0  0  0  0
  182.9220  178.3860  142.0530 C   0  0  2  0  0  3  0  0  0  0  0  0
  181.7110  179.0760  141.9000 O   0  0  0  0  0  0  0  0  0  0  0  0
  1 17  1  0  0  0  0
  2 11  1  0  0  0  0
  4  7  2  0  0  0  0
  5  3  1  0  0  0  0
  5 16  1  0  0  0  0
  6 14  1  0  0  0  0
  6 11  1  0  0  0  0
  7 21  1  0  0  0  0
  8  3  1  6  0  0  0
  8 13  1  0  0  0  0
  8 18  1  0  0  0  0
  9  3  2  0  0  0  0
 10  4  2  0  0  0  0
 10 17  1  0  0  0  0
 11  5  2  0  0  0  0
 12  2  2  0  0  0  0
 13 15  1  0  0  0  0
 14  9  1  0  0  0  0
 15 24  1  1  0  0  0
 15  1  1  0  0  0  0
 16 18  1  0  0  0  0
 18 10  1  0  0  0  0
 19 12  1  0  0  0  0
 19  6  2  0  0  0  0
 21 20  2  0  0  0  0
 21 22  1  0  0  0  0
 24 23  1  1  0  0  0
 25 26  1  0  0  0  0
 25 27  2  0  0  0  0
 26 24  1  0  0  0  0
 28 29  1  0  0  0  0
 28 30  1  0  0  0  0
 29 32  1  0  0  0  0
 30 31  1  0  0  0  0
 31 25  1  1  0  0  0
 32 31  1  0  0  0  0
M  END
>  <MODEL>
9

>  <REMARK>
 VINA RESULT:      -7.7      3.199      7.970
  Name = 
  4 active torsions:
  status: ('A' for Active; 'I' for Inactive)
    1  A    between atoms: C_3  and  C_13
    2  A    between atoms: N_7  and  C_23
    3  A    between atoms: C_15  and  C_22
    4  A    between atoms: C_23  and  C_27
                            x       y       z     vdW  Elec       q    Type
                         _______ _______ _______ _____ _____    ______ ____

>  <TORSDO>
F 4

$$$$
