=
 OpenBabel10222416453D

 45 49  0  0  1  0  0  0  0  0999 V2000
  191.1480  176.9970  139.7940 C   0  0  0  0  0  0  0  0  0  0  0  0
  188.4660  175.8900  137.5310 C   0  0  0  0  0  0  0  0  0  0  0  0
  192.5240  177.0950  140.0140 C   0  0  0  0  0  3  0  0  0  0  0  0
  187.8650  175.2080  136.3930 C   0  0  2  0  0  3  0  0  0  0  0  0
  193.0310  176.5310  137.7480 C   0  0  0  0  0  0  0  0  0  0  0  0
  190.7170  176.6480  138.4970 C   0  0  0  0  0  0  0  0  0  0  0  0
  193.4100  176.8640  139.0130 N   0  0  0  0  0  0  0  0  0  0  0  0
  190.3930  174.8530  135.7940 C   0  0  0  0  0  2  0  0  0  0  0  0
  191.6510  176.4150  137.4500 C   0  0  0  0  0  0  0  0  0  0  0  0
  189.3590  176.3370  138.1810 C   0  0  0  0  0  0  0  0  0  0  0  0
  188.9480  175.1150  135.2860 C   0  0  0  0  0  2  0  0  0  0  0  0
  191.1650  176.1720  136.0170 C   0  0  0  0  0  2  0  0  0  0  0  0
  190.2280  177.2590  140.9330 C   0  0  0  0  0  0  0  0  0  0  0  0
  187.7450  177.2210  142.7190 C   0  0  0  0  0  2  0  0  0  0  0  0
  190.1890  177.5080  143.4700 C   0  0  0  0  0  2  0  0  0  0  0  0
  188.0540  178.3390  141.7340 C   0  0  0  0  0  2  0  0  0  0  0  0
  188.7470  177.1980  143.8810 C   0  0  1  0  0  3  0  0  0  0  0  0
  190.6010  176.6630  142.2730 C   0  0  0  0  0  2  0  0  0  0  0  0
  189.0850  177.9390  140.7170 C   0  0  0  0  0  3  0  0  0  0  0  0
  188.2870  178.0530  145.0640 C   0  0  0  0  0  2  0  0  0  0  0  0
  187.0810  177.8780  147.2440 C   0  0  0  0  0  2  0  0  0  0  0  0
  189.4100  177.4380  147.1690 C   0  0  0  0  0  2  0  0  0  0  0  0
  188.1550  177.2710  146.3670 C   0  0  2  0  0  3  0  0  0  0  0  0
  187.6950  178.6480  148.2430 O   0  0  0  0  0  0  0  0  0  0  0  0
  188.9310  178.0270  148.4730 C   0  0  0  0  0  2  0  0  0  0  0  0
  194.7120  177.3130  136.0950 N   0  0  0  0  0  0  0  0  0  0  0  0
  194.6720  175.0920  136.3870 C   0  0  0  0  0  3  0  0  0  0  0  0
  195.6310  175.4700  135.4700 C   0  0  0  0  0  0  0  0  0  0  0  0
  194.1120  176.3050  136.7570 C   0  0  1  0  0  3  0  0  0  0  0  0
  195.6380  176.8030  135.3020 N   0  0  0  0  0  0  0  0  0  0  0  0
  196.5150  174.5380  134.7190 C   0  0  0  0  0  2  0  0  0  0  0  0
  196.2990  173.1170  135.2030 C   0  0  0  0  0  1  0  0  0  0  0  0
  186.9570  176.9650  134.9830 O   0  0  0  0  0  1  0  0  0  0  0  0
  186.6250  175.9300  135.8650 C   0  0  2  0  0  3  0  0  0  0  0  0
  185.6850  176.3690  137.0020 C   0  0  0  0  0  2  0  0  0  0  0  0
  184.2180  175.9200  136.9180 C   0  0  1  0  0  3  0  0  0  0  0  0
  183.9780  174.5980  137.6220 C   0  0  0  0  0  1  0  0  0  0  0  0
  183.3160  176.9390  137.4340 N   0  0  0  0  0  2  0  0  0  0  0  0
  184.1000  177.8280  138.2800 C   0  0  0  0  0  2  0  0  0  0  0  0
  182.9030  176.8460  140.1120 O   0  0  0  0  0  1  0  0  0  0  0  0
  183.4010  178.0550  139.6150 C   0  0  1  0  0  3  0  0  0  0  0  0
  185.0580  179.6170  140.2270 O   0  0  0  0  0  0  0  0  0  0  0  0
  184.3150  178.7250  140.6050 C   0  0  0  0  0  0  0  0  0  0  0  0
  184.7850  179.3990  142.8250 O   0  0  0  0  0  1  0  0  0  0  0  0
  184.3120  178.3400  142.0510 C   0  0  0  0  0  2  0  0  0  0  0  0
  1  3  1  0  0  0  0
  1 13  1  0  0  0  0
  2 10  3  0  0  0  0
  4 34  1  6  0  0  0
  4  2  1  0  0  0  0
  5  7  1  0  0  0  0
  6  1  2  0  0  0  0
  7  3  2  0  0  0  0
  8 12  1  0  0  0  0
  9  5  2  0  0  0  0
  9  6  1  0  0  0  0
 10  6  1  0  0  0  0
 11  8  1  0  0  0  0
 11  4  1  0  0  0  0
 12  9  1  0  0  0  0
 13 18  1  0  0  0  0
 14 17  1  0  0  0  0
 15 17  1  0  0  0  0
 16 14  1  0  0  0  0
 17 20  1  1  0  0  0
 18 15  1  0  0  0  0
 19 13  2  0  0  0  0
 19 16  1  0  0  0  0
 21 24  1  0  0  0  0
 22 25  1  0  0  0  0
 23 20  1  6  0  0  0
 23 22  1  0  0  0  0
 23 21  1  0  0  0  0
 24 25  1  0  0  0  0
 26 29  1  0  0  0  0
 27 29  1  0  0  0  0
 28 27  2  0  0  0  0
 29  5  1  1  0  0  0
 30 28  1  0  0  0  0
 30 26  2  0  0  0  0
 31 32  1  0  0  0  0
 31 28  1  0  0  0  0
 34 33  1  1  0  0  0
 34 35  1  0  0  0  0
 36 35  1  0  0  0  0
 36 38  1  0  0  0  0
 36 37  1  1  0  0  0
 38 39  1  0  0  0  0
 39 41  1  0  0  0  0
 41 40  1  1  0  0  0
 41 43  1  0  0  0  0
 42 43  2  0  0  0  0
 43 45  1  0  0  0  0
 45 44  1  0  0  0  0
M  END
>  <MODEL>
1

>  <REMARK>
 VINA RESULT:      -8.1      0.000      0.000
  Name = 
  13 active torsions:
  status: ('A' for Active; 'I' for Inactive)
    1  A    between atoms: C_1  and  C_14
    2  A    between atoms: C_4  and  C_21
    3  A    between atoms: C_4  and  N_33
    4  A    between atoms: C_8  and  C_28
    5  A    between atoms: C_8  and  C_45
    6  A    between atoms: C_9  and  C_18
    7  A    between atoms: C_12  and  C_38
    8  A    between atoms: C_13  and  C_26
    9  A    between atoms: C_17  and  C_34
   10  A    between atoms: C_17  and  C_35
   11  A    between atoms: C_21  and  C_38
   12  A    between atoms: C_28  and  C_41
   13  A    between atoms: N_33  and  C_41
                            x       y       z     vdW  Elec       q    Type
                         _______ _______ _______ _____ _____    ______ ____

>  <TORSDO>
F 13

$$$$
=
 OpenBabel10222416453D

 45 49  0  0  1  0  0  0  0  0999 V2000
  188.9580  176.6300  137.9030 C   0  0  0  0  0  0  0  0  0  0  0  0
  189.9450  177.0970  141.4180 C   0  0  0  0  0  0  0  0  0  0  0  0
  187.9290  176.6910  136.9620 C   0  0  0  0  0  3  0  0  0  0  0  0
  189.7620  177.3180  142.8460 C   0  0  2  0  0  3  0  0  0  0  0  0
  186.4920  177.8790  138.4560 C   0  0  0  0  0  0  0  0  0  0  0  0
  188.7260  177.2170  139.1650 C   0  0  0  0  0  0  0  0  0  0  0  0
  186.7500  177.2970  137.2530 N   0  0  0  0  0  0  0  0  0  0  0  0
  187.2980  177.7270  142.0510 C   0  0  0  0  0  2  0  0  0  0  0  0
  187.4920  177.8580  139.4600 C   0  0  0  0  0  0  0  0  0  0  0  0
  189.6150  177.0690  140.2730 C   0  0  0  0  0  0  0  0  0  0  0  0
  188.4440  178.1160  143.0250 C   0  0  0  0  0  2  0  0  0  0  0  0
  187.3060  178.6090  140.7830 C   0  0  0  0  0  2  0  0  0  0  0  0
  190.2260  175.9480  137.5250 C   0  0  0  0  0  0  0  0  0  0  0  0
  192.3270  174.4340  135.8970 C   0  0  0  0  0  2  0  0  0  0  0  0
  192.7540  176.1070  137.8050 C   0  0  0  0  0  2  0  0  0  0  0  0
  191.3780  173.7600  136.8780 C   0  0  0  0  0  2  0  0  0  0  0  0
  193.3380  175.3350  136.6180 C   0  0  1  0  0  3  0  0  0  0  0  0
  191.4640  176.8100  137.4080 C   0  0  0  0  0  2  0  0  0  0  0  0
  190.2080  174.6330  137.2350 C   0  0  0  0  0  3  0  0  0  0  0  0
  194.6220  174.5890  136.9890 C   0  0  0  0  0  2  0  0  0  0  0  0
  197.0620  174.6890  136.4640 C   0  0  0  0  0  2  0  0  0  0  0  0
  195.5280  175.8400  135.0700 C   0  0  0  0  0  2  0  0  0  0  0  0
  195.6690  174.5880  135.8790 C   0  0  2  0  0  3  0  0  0  0  0  0
  197.5130  176.0100  136.3300 O   0  0  0  0  0  0  0  0  0  0  0  0
  196.8840  176.4950  135.1750 C   0  0  0  0  0  2  0  0  0  0  0  0
  184.9770  179.6520  139.3120 N   0  0  0  0  0  0  0  0  0  0  0  0
  183.9460  178.0480  138.1340 C   0  0  0  0  0  3  0  0  0  0  0  0
  183.0600  179.0110  138.5720 C   0  0  0  0  0  0  0  0  0  0  0  0
  185.1580  178.5020  138.6330 C   0  0  0  0  0  0  0  0  0  0  0  0
  183.6930  179.9600  139.2810 N   0  0  0  0  0  2  0  0  0  0  0  0
  181.5890  178.9920  138.3440 C   0  0  0  0  0  2  0  0  0  0  0  0
  181.2950  179.1080  136.8600 C   0  0  0  0  0  1  0  0  0  0  0  0
  192.1660  177.6410  142.9760 O   0  0  0  0  0  1  0  0  0  0  0  0
  190.9320  178.0740  143.4750 C   0  0  2  0  0  3  0  0  0  0  0  0
  190.8590  178.0770  145.0120 C   0  0  0  0  0  2  0  0  0  0  0  0
  190.6500  176.7240  145.7110 C   0  0  1  0  0  3  0  0  0  0  0  0
  191.9610  176.0560  146.0800 C   0  0  0  0  0  1  0  0  0  0  0  0
  189.8010  176.8540  146.8860 N   0  0  0  0  0  2  0  0  0  0  0  0
  188.9570  178.0250  146.6880 C   0  0  0  0  0  2  0  0  0  0  0  0
  187.3440  178.6550  148.3470 O   0  0  0  0  0  1  0  0  0  0  0  0
  187.5680  177.7910  147.2710 C   0  0  1  0  0  3  0  0  0  0  0  0
  186.3210  177.0210  145.4230 O   0  0  0  0  0  0  0  0  0  0  0  0
  186.5020  177.9300  146.2180 C   0  0  0  0  0  0  0  0  0  0  0  0
  184.3090  178.8050  146.3880 O   0  0  0  0  0  1  0  0  0  0  0  0
  185.6390  179.1500  146.1420 C   0  0  0  0  0  2  0  0  0  0  0  0
  1  6  1  0  0  0  0
  2  4  1  0  0  0  0
  3  7  1  0  0  0  0
  3  1  2  0  0  0  0
  4 11  1  0  0  0  0
  4 34  1  6  0  0  0
  5 29  1  0  0  0  0
  5  9  1  0  0  0  0
  6  9  2  0  0  0  0
  6 10  1  0  0  0  0
  7  5  2  0  0  0  0
  8 11  1  0  0  0  0
  9 12  1  0  0  0  0
 10  2  3  0  0  0  0
 12  8  1  0  0  0  0
 13  1  1  0  0  0  0
 14 17  1  0  0  0  0
 14 16  1  0  0  0  0
 16 19  1  0  0  0  0
 17 20  1  1  0  0  0
 17 15  1  0  0  0  0
 18 13  1  0  0  0  0
 18 15  1  0  0  0  0
 19 13  2  0  0  0  0
 22 25  1  0  0  0  0
 22 23  1  0  0  0  0
 23 21  1  0  0  0  0
 23 20  1  1  0  0  0
 24 21  1  0  0  0  0
 25 24  1  0  0  0  0
 27 28  2  0  0  0  0
 27 29  1  0  0  0  0
 28 30  1  0  0  0  0
 29 26  2  0  0  0  0
 30 26  1  0  0  0  0
 31 28  1  0  0  0  0
 32 31  1  0  0  0  0
 34 33  1  1  0  0  0
 34 35  1  0  0  0  0
 35 36  1  0  0  0  0
 36 37  1  1  0  0  0
 36 38  1  0  0  0  0
 39 38  1  0  0  0  0
 39 41  1  0  0  0  0
 41 40  1  1  0  0  0
 42 43  2  0  0  0  0
 43 41  1  0  0  0  0
 45 43  1  0  0  0  0
 45 44  1  0  0  0  0
M  END
>  <MODEL>
2

>  <REMARK>
 VINA RESULT:      -8.0      3.261      9.568
  Name = 
  13 active torsions:
  status: ('A' for Active; 'I' for Inactive)
    1  A    between atoms: C_1  and  C_14
    2  A    between atoms: C_4  and  C_21
    3  A    between atoms: C_4  and  N_33
    4  A    between atoms: C_8  and  C_28
    5  A    between atoms: C_8  and  C_45
    6  A    between atoms: C_9  and  C_18
    7  A    between atoms: C_12  and  C_38
    8  A    between atoms: C_13  and  C_26
    9  A    between atoms: C_17  and  C_34
   10  A    between atoms: C_17  and  C_35
   11  A    between atoms: C_21  and  C_38
   12  A    between atoms: C_28  and  C_41
   13  A    between atoms: N_33  and  C_41
                            x       y       z     vdW  Elec       q    Type
                         _______ _______ _______ _____ _____    ______ ____

>  <TORSDO>
F 13

$$$$
=
 OpenBabel10222416453D

 45 49  0  0  1  0  0  0  0  0999 V2000
  185.2960  178.3060  144.8780 C   0  0  0  0  0  0  0  0  0  0  0  0
  187.2910  178.2220  141.7860 C   0  0  0  0  0  0  0  0  0  0  0  0
  184.0630  178.5980  145.4630 C   0  0  0  0  0  3  0  0  0  0  0  0
  187.6180  178.4830  140.3910 C   0  0  2  0  0  3  0  0  0  0  0  0
  182.9820  178.7850  143.3400 C   0  0  0  0  0  0  0  0  0  0  0  0
  185.3560  178.2600  143.4690 C   0  0  0  0  0  0  0  0  0  0  0  0
  182.9630  178.8270  144.7010 N   0  0  0  0  0  0  0  0  0  0  0  0
  185.1320  179.3170  140.3920 C   0  0  0  0  0  2  0  0  0  0  0  0
  184.1990  178.4930  142.6760 C   0  0  0  0  0  0  0  0  0  0  0  0
  186.5810  178.1540  142.7410 C   0  0  0  0  0  0  0  0  0  0  0  0
  186.2780  178.6080  139.6190 C   0  0  0  0  0  2  0  0  0  0  0  0
  184.2500  178.3050  141.1560 C   0  0  0  0  0  2  0  0  0  0  0  0
  186.4650  178.0680  145.7670 C   0  0  0  0  0  0  0  0  0  0  0  0
  188.2150  176.9590  148.0170 C   0  0  0  0  0  2  0  0  0  0  0  0
  189.0040  177.8420  145.7340 C   0  0  0  0  0  2  0  0  0  0  0  0
  187.4540  178.2730  148.1150 C   0  0  0  0  0  2  0  0  0  0  0  0
  189.3510  177.0390  146.9900 C   0  0  1  0  0  3  0  0  0  0  0  0
  187.6710  177.3880  145.1560 C   0  0  0  0  0  2  0  0  0  0  0  0
  186.3800  178.3930  147.0720 C   0  0  0  0  0  3  0  0  0  0  0  0
  190.6730  177.4890  147.6170 C   0  0  0  0  0  2  0  0  0  0  0  0
  191.6870  177.1030  145.3670 C   0  0  0  0  0  2  0  0  0  0  0  0
  192.0700  175.5270  147.0980 C   0  0  0  0  0  2  0  0  0  0  0  0
  191.9040  176.9980  146.8620 C   0  0  2  0  0  3  0  0  0  0  0  0
  191.3750  175.8310  144.8650 O   0  0  0  0  0  0  0  0  0  0  0  0
  192.0390  174.9320  145.7110 C   0  0  0  0  0  2  0  0  0  0  0  0
  180.8440  180.0150  143.0430 N   0  0  0  0  0  0  0  0  0  0  0  0
  181.2200  178.4340  141.4990 C   0  0  0  0  0  3  0  0  0  0  0  0
  180.0280  179.0930  141.2770 C   0  0  0  0  0  0  0  0  0  0  0  0
  181.7040  179.0590  142.6390 C   0  0  1  0  0  3  0  0  0  0  0  0
  179.8150  180.0310  142.2140 N   0  0  0  0  0  0  0  0  0  0  0  0
  179.0680  178.7850  140.1820 C   0  0  0  0  0  2  0  0  0  0  0  0
  179.7230  179.0330  138.8360 C   0  0  0  0  0  1  0  0  0  0  0  0
  189.3800  176.8420  140.7070 O   0  0  0  0  0  1  0  0  0  0  0  0
  188.4850  177.3840  139.7770 C   0  0  2  0  0  3  0  0  0  0  0  0
  189.1580  177.8410  138.4710 C   0  0  0  0  0  2  0  0  0  0  0  0
  188.9350  176.9750  137.2220 C   0  0  1  0  0  3  0  0  0  0  0  0
  188.7750  177.8070  135.9630 C   0  0  0  0  0  1  0  0  0  0  0  0
  190.0000  175.9980  137.0500 N   0  0  0  0  0  2  0  0  0  0  0  0
  191.2500  176.6450  137.4250 C   0  0  0  0  0  2  0  0  0  0  0  0
  191.7280  174.3290  137.8260 O   0  0  0  0  0  1  0  0  0  0  0  0
  192.2950  175.6060  137.8200 C   0  0  1  0  0  3  0  0  0  0  0  0
  194.1890  176.6810  136.9160 O   0  0  0  0  0  0  0  0  0  0  0  0
  193.5000  175.6740  136.9210 C   0  0  0  0  0  0  0  0  0  0  0  0
  194.8600  173.7510  136.6900 O   0  0  0  0  0  1  0  0  0  0  0  0
  193.8860  174.5190  136.0520 C   0  0  0  0  0  2  0  0  0  0  0  0
  1  3  1  0  0  0  0
  1 13  1  0  0  0  0
  2 10  3  0  0  0  0
  4 34  1  6  0  0  0
  4  2  1  0  0  0  0
  5  7  1  0  0  0  0
  6  1  2  0  0  0  0
  7  3  2  0  0  0  0
  8 12  1  0  0  0  0
  9  5  2  0  0  0  0
  9  6  1  0  0  0  0
 10  6  1  0  0  0  0
 11  4  1  0  0  0  0
 11  8  1  0  0  0  0
 12  9  1  0  0  0  0
 13 19  2  0  0  0  0
 14 16  1  0  0  0  0
 15 17  1  0  0  0  0
 17 20  1  1  0  0  0
 17 14  1  0  0  0  0
 18 15  1  0  0  0  0
 18 13  1  0  0  0  0
 19 16  1  0  0  0  0
 21 23  1  0  0  0  0
 23 22  1  0  0  0  0
 23 20  1  1  0  0  0
 24 21  1  0  0  0  0
 24 25  1  0  0  0  0
 25 22  1  0  0  0  0
 27 29  1  0  0  0  0
 28 27  2  0  0  0  0
 28 30  1  0  0  0  0
 29 26  1  0  0  0  0
 29  5  1  6  0  0  0
 30 26  2  0  0  0  0
 31 28  1  0  0  0  0
 32 31  1  0  0  0  0
 34 33  1  1  0  0  0
 35 34  1  0  0  0  0
 36 37  1  6  0  0  0
 36 35  1  0  0  0  0
 38 36  1  0  0  0  0
 38 39  1  0  0  0  0
 39 41  1  0  0  0  0
 41 40  1  6  0  0  0
 42 43  2  0  0  0  0
 43 41  1  0  0  0  0
 45 44  1  0  0  0  0
 45 43  1  0  0  0  0
M  END
>  <MODEL>
3

>  <REMARK>
 VINA RESULT:      -7.6      3.534      9.481
  Name = 
  13 active torsions:
  status: ('A' for Active; 'I' for Inactive)
    1  A    between atoms: C_1  and  C_14
    2  A    between atoms: C_4  and  C_21
    3  A    between atoms: C_4  and  N_33
    4  A    between atoms: C_8  and  C_28
    5  A    between atoms: C_8  and  C_45
    6  A    between atoms: C_9  and  C_18
    7  A    between atoms: C_12  and  C_38
    8  A    between atoms: C_13  and  C_26
    9  A    between atoms: C_17  and  C_34
   10  A    between atoms: C_17  and  C_35
   11  A    between atoms: C_21  and  C_38
   12  A    between atoms: C_28  and  C_41
   13  A    between atoms: N_33  and  C_41
                            x       y       z     vdW  Elec       q    Type
                         _______ _______ _______ _____ _____    ______ ____

>  <TORSDO>
F 13

$$$$
=
 OpenBabel10222416453D

 45 49  0  0  1  0  0  0  0  0999 V2000
  189.2780  177.3580  140.6860 C   0  0  0  0  0  0  0  0  0  0  0  0
  186.0810  178.3170  142.2380 C   0  0  0  0  0  0  0  0  0  0  0  0
  190.6170  177.0190  140.8870 C   0  0  0  0  0  3  0  0  0  0  0  0
  185.1770  178.7440  143.2970 C   0  0  2  0  0  3  0  0  0  0  0  0
  190.3030  176.7440  143.2390 C   0  0  0  0  0  0  0  0  0  0  0  0
  188.4350  177.3900  141.8170 C   0  0  0  0  0  0  0  0  0  0  0  0
  191.0870  176.7290  142.1260 N   0  0  0  0  0  0  0  0  0  0  0  0
  187.3230  178.3140  144.7400 C   0  0  0  0  0  2  0  0  0  0  0  0
  188.9320  177.0770  143.1120 C   0  0  0  0  0  0  0  0  0  0  0  0
  187.0990  177.8940  141.7830 C   0  0  0  0  0  0  0  0  0  0  0  0
  185.7740  178.2500  144.6400 C   0  0  0  0  0  2  0  0  0  0  0  0
  187.9770  176.9830  144.3060 C   0  0  0  0  0  2  0  0  0  0  0  0
  188.8250  177.6690  139.3030 C   0  0  0  0  0  0  0  0  0  0  0  0
  188.8640  178.1790  136.2880 C   0  0  0  0  0  2  0  0  0  0  0  0
  186.9030  177.2640  137.6790 C   0  0  0  0  0  2  0  0  0  0  0  0
  188.9110  179.2890  137.3280 C   0  0  0  0  0  2  0  0  0  0  0  0
  187.5060  177.4640  136.2860 C   0  0  1  0  0  3  0  0  0  0  0  0
  187.9270  176.6560  138.6270 C   0  0  0  0  0  2  0  0  0  0  0  0
  189.2800  178.7810  138.6920 C   0  0  0  0  0  3  0  0  0  0  0  0
  186.5130  178.1020  135.3120 C   0  0  0  0  0  2  0  0  0  0  0  0
  184.2070  177.1630  135.1140 C   0  0  0  0  0  2  0  0  0  0  0  0
  186.0700  175.7040  134.9570 C   0  0  0  0  0  2  0  0  0  0  0  0
  185.6270  177.0890  134.5940 C   0  0  2  0  0  3  0  0  0  0  0  0
  183.9960  176.1030  136.0070 O   0  0  0  0  0  0  0  0  0  0  0  0
  184.8360  175.0750  135.5560 C   0  0  0  0  0  2  0  0  0  0  0  0
  191.8130  175.3770  144.6620 N   0  0  0  0  0  0  0  0  0  0  0  0
  190.8200  177.0740  145.7370 C   0  0  0  0  0  3  0  0  0  0  0  0
  191.6560  176.3600  146.5700 C   0  0  0  0  0  0  0  0  0  0  0  0
  190.9550  176.4080  144.5290 C   0  0  0  0  0  0  0  0  0  0  0  0
  192.2380  175.3440  145.9120 N   0  0  0  0  0  2  0  0  0  0  0  0
  191.8600  176.6310  148.0200 C   0  0  0  0  0  2  0  0  0  0  0  0
  192.9010  175.6820  148.5810 C   0  0  0  0  0  1  0  0  0  0  0  0
  183.5280  177.7810  141.7960 O   0  0  0  0  0  1  0  0  0  0  0  0
  183.7600  178.2000  143.1110 C   0  0  2  0  0  3  0  0  0  0  0  0
  182.6940  179.1730  143.6440 C   0  0  0  0  0  2  0  0  0  0  0  0
  181.2610  179.0080  143.1160 C   0  0  1  0  0  3  0  0  0  0  0  0
  180.2570  178.7770  144.2300 C   0  0  0  0  0  1  0  0  0  0  0  0
  180.8570  180.1430  142.2990 N   0  0  0  0  0  2  0  0  0  0  0  0
  179.8960  179.6550  141.3190 C   0  0  0  0  0  2  0  0  0  0  0  0
  179.6820  178.0980  139.5080 O   0  0  0  0  0  1  0  0  0  0  0  0
  180.6020  178.8760  140.2150 C   0  0  1  0  0  3  0  0  0  0  0  0
  180.8850  180.8680  138.9860 O   0  0  0  0  0  0  0  0  0  0  0  0
  181.3700  179.7930  139.3020 C   0  0  0  0  0  0  0  0  0  0  0  0
  183.6990  180.1890  139.4450 O   0  0  0  0  0  1  0  0  0  0  0  0
  182.7290  179.4270  138.7950 C   0  0  0  0  0  2  0  0  0  0  0  0
  1  3  2  0  0  0  0
  1  6  1  0  0  0  0
  2  4  1  0  0  0  0
  3  7  1  0  0  0  0
  4 34  1  6  0  0  0
  4 11  1  0  0  0  0
  5 29  1  0  0  0  0
  6  9  2  0  0  0  0
  7  5  2  0  0  0  0
  9  5  1  0  0  0  0
  9 12  1  0  0  0  0
 10  6  1  0  0  0  0
 10  2  3  0  0  0  0
 11  8  1  0  0  0  0
 12  8  1  0  0  0  0
 13  1  1  0  0  0  0
 14 16  1  0  0  0  0
 15 18  1  0  0  0  0
 16 19  1  0  0  0  0
 17 20  1  6  0  0  0
 17 14  1  0  0  0  0
 17 15  1  0  0  0  0
 18 13  1  0  0  0  0
 19 13  2  0  0  0  0
 21 24  1  0  0  0  0
 22 25  1  0  0  0  0
 23 22  1  0  0  0  0
 23 21  1  0  0  0  0
 23 20  1  1  0  0  0
 25 24  1  0  0  0  0
 26 30  1  0  0  0  0
 27 28  2  0  0  0  0
 28 31  1  0  0  0  0
 29 26  2  0  0  0  0
 29 27  1  0  0  0  0
 30 28  1  0  0  0  0
 31 32  1  0  0  0  0
 34 33  1  6  0  0  0
 34 35  1  0  0  0  0
 36 35  1  0  0  0  0
 36 37  1  1  0  0  0
 38 36  1  0  0  0  0
 39 38  1  0  0  0  0
 41 40  1  6  0  0  0
 41 39  1  0  0  0  0
 42 43  2  0  0  0  0
 43 41  1  0  0  0  0
 45 43  1  0  0  0  0
 45 44  1  0  0  0  0
M  END
>  <MODEL>
4

>  <REMARK>
 VINA RESULT:      -7.5      3.866      8.230
  Name = 
  13 active torsions:
  status: ('A' for Active; 'I' for Inactive)
    1  A    between atoms: C_1  and  C_14
    2  A    between atoms: C_4  and  C_21
    3  A    between atoms: C_4  and  N_33
    4  A    between atoms: C_8  and  C_28
    5  A    between atoms: C_8  and  C_45
    6  A    between atoms: C_9  and  C_18
    7  A    between atoms: C_12  and  C_38
    8  A    between atoms: C_13  and  C_26
    9  A    between atoms: C_17  and  C_34
   10  A    between atoms: C_17  and  C_35
   11  A    between atoms: C_21  and  C_38
   12  A    between atoms: C_28  and  C_41
   13  A    between atoms: N_33  and  C_41
                            x       y       z     vdW  Elec       q    Type
                         _______ _______ _______ _____ _____    ______ ____

>  <TORSDO>
F 13

$$$$
=
 OpenBabel10222416453D

 45 49  0  0  1  0  0  0  0  0999 V2000
  185.2870  178.3070  144.9130 C   0  0  0  0  0  0  0  0  0  0  0  0
  187.3320  178.2520  141.8540 C   0  0  0  0  0  0  0  0  0  0  0  0
  184.0410  178.5840  145.4790 C   0  0  0  0  0  3  0  0  0  0  0  0
  187.6780  178.5190  140.4650 C   0  0  2  0  0  3  0  0  0  0  0  0
  182.9930  178.7630  143.3400 C   0  0  0  0  0  0  0  0  0  0  0  0
  185.3700  178.2650  143.5050 C   0  0  0  0  0  0  0  0  0  0  0  0
  182.9520  178.8020  144.7000 N   0  0  0  0  0  0  0  0  0  0  0  0
  185.1830  179.3240  140.4270 C   0  0  0  0  0  2  0  0  0  0  0  0
  184.2240  178.4850  142.6950 C   0  0  0  0  0  0  0  0  0  0  0  0
  186.6080  178.1740  142.7970 C   0  0  0  0  0  0  0  0  0  0  0  0
  186.3500  178.6290  139.6710 C   0  0  0  0  0  2  0  0  0  0  0  0
  184.3010  178.3000  141.1760 C   0  0  0  0  0  2  0  0  0  0  0  0
  186.4440  178.0810  145.8210 C   0  0  0  0  0  0  0  0  0  0  0  0
  188.1700  176.9900  148.0980 C   0  0  0  0  0  2  0  0  0  0  0  0
  188.9850  177.8830  145.8280 C   0  0  0  0  0  2  0  0  0  0  0  0
  187.3940  178.2960  148.1850 C   0  0  0  0  0  2  0  0  0  0  0  0
  189.3220  177.0830  147.0890 C   0  0  1  0  0  3  0  0  0  0  0  0
  187.6670  177.4150  145.2280 C   0  0  0  0  0  2  0  0  0  0  0  0
  186.3350  178.4050  147.1240 C   0  0  0  0  0  3  0  0  0  0  0  0
  190.6280  177.5470  147.7370 C   0  0  0  0  0  2  0  0  0  0  0  0
  191.6800  177.1390  145.5080 C   0  0  0  0  0  2  0  0  0  0  0  0
  192.0590  175.5970  147.2690 C   0  0  0  0  0  2  0  0  0  0  0  0
  191.8770  177.0610  147.0080 C   0  0  2  0  0  3  0  0  0  0  0  0
  191.3920  175.8550  145.0220 O   0  0  0  0  0  0  0  0  0  0  0  0
  192.0560  174.9790  145.8920 C   0  0  0  0  0  2  0  0  0  0  0  0
  180.9450  180.0930  142.8790 N   0  0  0  0  0  0  0  0  0  0  0  0
  181.1680  178.2690  141.5950 C   0  0  0  0  0  3  0  0  0  0  0  0
  180.0240  178.9750  141.2860 C   0  0  0  0  0  0  0  0  0  0  0  0
  181.7230  179.0230  142.6180 C   0  0  1  0  0  3  0  0  0  0  0  0
  179.9020  180.0610  142.0690 N   0  0  0  0  0  0  0  0  0  0  0  0
  179.0190  178.5780  140.2630 C   0  0  0  0  0  2  0  0  0  0  0  0
  179.7120  177.9060  139.0920 C   0  0  0  0  0  1  0  0  0  0  0  0
  189.3760  176.8200  140.8300 O   0  0  0  0  0  1  0  0  0  0  0  0
  188.5680  177.4300  139.8640 C   0  0  2  0  0  3  0  0  0  0  0  0
  189.3510  177.9360  138.6390 C   0  0  0  0  0  2  0  0  0  0  0  0
  189.5060  176.9710  137.4530 C   0  0  1  0  0  3  0  0  0  0  0  0
  190.9230  176.4450  137.3180 C   0  0  0  0  0  1  0  0  0  0  0  0
  188.5630  175.8650  137.5360 N   0  0  0  0  0  2  0  0  0  0  0  0
  187.7550  175.8890  136.3240 C   0  0  0  0  0  2  0  0  0  0  0  0
  186.6260  177.7390  135.2970 O   0  0  0  0  0  1  0  0  0  0  0  0
  186.6480  176.9320  136.4380 C   0  0  1  0  0  3  0  0  0  0  0  0
  185.2130  175.0710  136.6290 O   0  0  0  0  0  0  0  0  0  0  0  0
  185.3120  176.2860  136.6860 C   0  0  0  0  0  0  0  0  0  0  0  0
  183.4510  176.5440  138.1250 O   0  0  0  0  0  1  0  0  0  0  0  0
  184.1050  177.1030  137.0280 C   0  0  0  0  0  2  0  0  0  0  0  0
  1  3  1  0  0  0  0
  1 13  1  0  0  0  0
  2 10  3  0  0  0  0
  4 34  1  6  0  0  0
  4  2  1  0  0  0  0
  5  7  1  0  0  0  0
  6  1  2  0  0  0  0
  7  3  2  0  0  0  0
  8 12  1  0  0  0  0
  9  5  2  0  0  0  0
  9  6  1  0  0  0  0
 10  6  1  0  0  0  0
 11  8  1  0  0  0  0
 11  4  1  0  0  0  0
 12  9  1  0  0  0  0
 13 19  2  0  0  0  0
 14 16  1  0  0  0  0
 15 17  1  0  0  0  0
 17 20  1  1  0  0  0
 17 14  1  0  0  0  0
 18 13  1  0  0  0  0
 18 15  1  0  0  0  0
 19 16  1  0  0  0  0
 21 23  1  0  0  0  0
 23 22  1  0  0  0  0
 23 20  1  1  0  0  0
 24 21  1  0  0  0  0
 24 25  1  0  0  0  0
 25 22  1  0  0  0  0
 27 29  1  0  0  0  0
 28 27  2  0  0  0  0
 28 30  1  0  0  0  0
 29 26  1  0  0  0  0
 29  5  1  6  0  0  0
 30 26  2  0  0  0  0
 31 28  1  0  0  0  0
 32 31  1  0  0  0  0
 34 33  1  1  0  0  0
 35 34  1  0  0  0  0
 36 37  1  1  0  0  0
 36 38  1  0  0  0  0
 36 35  1  0  0  0  0
 39 41  1  0  0  0  0
 39 38  1  0  0  0  0
 41 40  1  6  0  0  0
 41 43  1  0  0  0  0
 42 43  2  0  0  0  0
 43 45  1  0  0  0  0
 45 44  1  0  0  0  0
M  END
>  <MODEL>
5

>  <REMARK>
 VINA RESULT:      -7.5      3.203      8.795
  Name = 
  13 active torsions:
  status: ('A' for Active; 'I' for Inactive)
    1  A    between atoms: C_1  and  C_14
    2  A    between atoms: C_4  and  C_21
    3  A    between atoms: C_4  and  N_33
    4  A    between atoms: C_8  and  C_28
    5  A    between atoms: C_8  and  C_45
    6  A    between atoms: C_9  and  C_18
    7  A    between atoms: C_12  and  C_38
    8  A    between atoms: C_13  and  C_26
    9  A    between atoms: C_17  and  C_34
   10  A    between atoms: C_17  and  C_35
   11  A    between atoms: C_21  and  C_38
   12  A    between atoms: C_28  and  C_41
   13  A    between atoms: N_33  and  C_41
                            x       y       z     vdW  Elec       q    Type
                         _______ _______ _______ _____ _____    ______ ____

>  <TORSDO>
F 13

$$$$
=
 OpenBabel10222416453D

 45 49  0  0  1  0  0  0  0  0999 V2000
  187.4850  177.9990  139.1000 C   0  0  0  0  0  0  0  0  0  0  0  0
  187.7520  177.6500  142.7540 C   0  0  0  0  0  0  0  0  0  0  0  0
  186.6450  178.2180  138.0070 C   0  0  0  0  0  3  0  0  0  0  0  0
  187.2880  177.4960  144.1260 C   0  0  2  0  0  3  0  0  0  0  0  0
  184.8290  178.8930  139.4060 C   0  0  0  0  0  0  0  0  0  0  0  0
  186.9590  178.2370  140.3870 C   0  0  0  0  0  0  0  0  0  0  0  0
  185.3690  178.6470  138.1800 N   0  0  0  0  0  0  0  0  0  0  0  0
  184.9790  177.9130  142.9570 C   0  0  0  0  0  2  0  0  0  0  0  0
  185.6240  178.6950  140.5620 C   0  0  0  0  0  0  0  0  0  0  0  0
  187.6430  177.8830  141.5900 C   0  0  0  0  0  0  0  0  0  0  0  0
  185.8740  178.1290  144.2090 C   0  0  0  0  0  2  0  0  0  0  0  0
  185.1130  179.0800  141.9540 C   0  0  0  0  0  2  0  0  0  0  0  0
  188.8720  177.5240  138.8440 C   0  0  0  0  0  0  0  0  0  0  0  0
  191.5230  176.0280  139.1410 C   0  0  0  0  0  2  0  0  0  0  0  0
  190.4590  176.8760  136.9580 C   0  0  0  0  0  2  0  0  0  0  0  0
  191.2980  177.4450  139.6470 C   0  0  0  0  0  2  0  0  0  0  0  0
  191.5040  175.9650  137.6080 C   0  0  1  0  0  3  0  0  0  0  0  0
  189.0960  176.6820  137.6070 C   0  0  0  0  0  2  0  0  0  0  0  0
  189.8400  177.7950  139.7420 C   0  0  0  0  0  3  0  0  0  0  0  0
  192.8950  176.1560  137.0000 C   0  0  0  0  0  2  0  0  0  0  0  0
  193.9530  173.9020  137.2060 C   0  0  0  0  0  2  0  0  0  0  0  0
  194.5900  175.3220  135.4170 C   0  0  0  0  0  2  0  0  0  0  0  0
  193.4020  174.9320  136.2420 C   0  0  2  0  0  3  0  0  0  0  0  0
  195.3530  173.9810  137.1990 O   0  0  0  0  0  0  0  0  0  0  0  0
  195.6880  174.4100  135.9080 C   0  0  0  0  0  2  0  0  0  0  0  0
  183.0180  180.5060  138.8670 N   0  0  0  0  0  0  0  0  0  0  0  0
  182.3380  178.7080  140.0170 C   0  0  0  0  0  3  0  0  0  0  0  0
  181.2910  179.5600  139.7340 C   0  0  0  0  0  0  0  0  0  0  0  0
  183.4200  179.3560  139.4430 C   0  0  1  0  0  3  0  0  0  0  0  0
  181.7170  180.6350  139.0500 N   0  0  0  0  0  0  0  0  0  0  0  0
  179.8800  179.3590  140.1640 C   0  0  0  0  0  2  0  0  0  0  0  0
  179.1500  180.6890  140.1800 C   0  0  0  0  0  1  0  0  0  0  0  0
  189.4070  178.6090  144.5410 O   0  0  0  0  0  1  0  0  0  0  0  0
  188.2260  178.1540  145.1380 C   0  0  2  0  0  3  0  0  0  0  0  0
  188.4640  177.2630  146.3700 C   0  0  0  0  0  2  0  0  0  0  0  0
  189.1690  177.9010  147.5770 C   0  0  1  0  0  3  0  0  0  0  0  0
  188.3080  177.8810  148.8260 C   0  0  0  0  0  1  0  0  0  0  0  0
  190.4550  177.2710  147.8400 N   0  0  0  0  0  2  0  0  0  0  0  0
  190.5780  176.1360  146.9360 C   0  0  0  0  0  2  0  0  0  0  0  0
  192.7870  175.2550  147.2500 O   0  0  0  0  0  1  0  0  0  0  0  0
  192.0000  176.0310  146.3950 C   0  0  1  0  0  3  0  0  0  0  0  0
  192.4280  174.3640  144.7830 O   0  0  0  0  0  0  0  0  0  0  0  0
  192.0120  175.4930  144.9900 C   0  0  0  0  0  0  0  0  0  0  0  0
  190.4610  175.6240  143.2070 O   0  0  0  0  0  1  0  0  0  0  0  0
  191.4990  176.3050  143.8420 C   0  0  0  0  0  2  0  0  0  0  0  0
  1  6  1  0  0  0  0
  2  4  1  0  0  0  0
  3  7  1  0  0  0  0
  3  1  2  0  0  0  0
  4 11  1  0  0  0  0
  4 34  1  1  0  0  0
  5  9  1  0  0  0  0
  6  9  2  0  0  0  0
  6 10  1  0  0  0  0
  7  5  2  0  0  0  0
  8 11  1  0  0  0  0
  9 12  1  0  0  0  0
 10  2  3  0  0  0  0
 12  8  1  0  0  0  0
 13  1  1  0  0  0  0
 13 19  2  0  0  0  0
 14 16  1  0  0  0  0
 15 18  1  0  0  0  0
 15 17  1  0  0  0  0
 16 19  1  0  0  0  0
 17 20  1  6  0  0  0
 17 14  1  0  0  0  0
 18 13  1  0  0  0  0
 22 25  1  0  0  0  0
 22 23  1  0  0  0  0
 23 20  1  1  0  0  0
 23 21  1  0  0  0  0
 24 21  1  0  0  0  0
 25 24  1  0  0  0  0
 26 30  2  0  0  0  0
 26 29  1  0  0  0  0
 28 27  2  0  0  0  0
 28 31  1  0  0  0  0
 29  5  1  6  0  0  0
 29 27  1  0  0  0  0
 30 28  1  0  0  0  0
 31 32  1  0  0  0  0
 34 33  1  6  0  0  0
 34 35  1  0  0  0  0
 35 36  1  0  0  0  0
 36 38  1  0  0  0  0
 36 37  1  1  0  0  0
 39 38  1  0  0  0  0
 41 39  1  0  0  0  0
 41 40  1  1  0  0  0
 42 43  2  0  0  0  0
 43 41  1  0  0  0  0
 44 45  1  0  0  0  0
 45 43  1  0  0  0  0
M  END
>  <MODEL>
6

>  <REMARK>
 VINA RESULT:      -7.4      3.714     10.401
  Name = 
  13 active torsions:
  status: ('A' for Active; 'I' for Inactive)
    1  A    between atoms: C_1  and  C_14
    2  A    between atoms: C_4  and  C_21
    3  A    between atoms: C_4  and  N_33
    4  A    between atoms: C_8  and  C_28
    5  A    between atoms: C_8  and  C_45
    6  A    between atoms: C_9  and  C_18
    7  A    between atoms: C_12  and  C_38
    8  A    between atoms: C_13  and  C_26
    9  A    between atoms: C_17  and  C_34
   10  A    between atoms: C_17  and  C_35
   11  A    between atoms: C_21  and  C_38
   12  A    between atoms: C_28  and  C_41
   13  A    between atoms: N_33  and  C_41
                            x       y       z     vdW  Elec       q    Type
                         _______ _______ _______ _____ _____    ______ ____

>  <TORSDO>
F 13

$$$$
=
 OpenBabel10222416453D

 45 49  0  0  1  0  0  0  0  0999 V2000
  187.4160  177.4510  137.7780 C   0  0  0  0  0  0  0  0  0  0  0  0
  188.6850  177.5770  141.2300 C   0  0  0  0  0  0  0  0  0  0  0  0
  187.7280  177.3090  136.4240 C   0  0  0  0  0  3  0  0  0  0  0  0
  189.6750  177.6550  142.2950 C   0  0  2  0  0  3  0  0  0  0  0  0
  189.9500  176.5760  136.9060 C   0  0  0  0  0  0  0  0  0  0  0  0
  188.4240  177.1430  138.7160 C   0  0  0  0  0  0  0  0  0  0  0  0
  188.9560  176.8880  136.0300 N   0  0  0  0  0  0  0  0  0  0  0  0
  191.2920  177.3400  140.2550 C   0  0  0  0  0  2  0  0  0  0  0  0
  189.7050  176.6940  138.2970 C   0  0  0  0  0  0  0  0  0  0  0  0
  188.3010  177.4150  140.1130 C   0  0  0  0  0  0  0  0  0  0  0  0
  190.9900  177.0380  141.7490 C   0  0  0  0  0  2  0  0  0  0  0  0
  190.7410  176.2340  139.3280 C   0  0  0  0  0  2  0  0  0  0  0  0
  186.0530  177.9200  138.1460 C   0  0  0  0  0  0  0  0  0  0  0  0
  183.6890  179.7650  138.7510 C   0  0  0  0  0  2  0  0  0  0  0  0
  183.5850  177.3570  137.8500 C   0  0  0  0  0  2  0  0  0  0  0  0
  184.5970  179.1830  139.8250 C   0  0  0  0  0  2  0  0  0  0  0  0
  182.8420  178.6770  138.0770 C   0  0  1  0  0  3  0  0  0  0  0  0
  184.9300  177.6040  137.1820 C   0  0  0  0  0  2  0  0  0  0  0  0
  185.8860  178.6560  139.2630 C   0  0  0  0  0  3  0  0  0  0  0  0
  181.4960  178.4710  138.7740 C   0  0  0  0  0  2  0  0  0  0  0  0
  180.5630  176.5830  140.1170 C   0  0  0  0  0  2  0  0  0  0  0  0
  181.2170  178.5780  141.2200 C   0  0  0  0  0  2  0  0  0  0  0  0
  181.6000  177.6860  140.0790 C   0  0  2  0  0  3  0  0  0  0  0  0
  179.4940  176.9960  140.9260 O   0  0  0  0  0  0  0  0  0  0  0  0
  180.0650  177.8550  141.8740 C   0  0  0  0  0  2  0  0  0  0  0  0
  191.3310  175.1390  135.4230 N   0  0  0  0  0  0  0  0  0  0  0  0
  192.5020  176.6510  136.5910 C   0  0  0  0  0  3  0  0  0  0  0  0
  193.3160  175.8920  135.7760 C   0  0  0  0  0  0  0  0  0  0  0  0
  191.2430  176.1320  136.3300 C   0  0  1  0  0  3  0  0  0  0  0  0
  192.6000  174.9870  135.0890 N   0  0  0  0  0  0  0  0  0  0  0  0
  194.7980  176.0090  135.6940 C   0  0  0  0  0  2  0  0  0  0  0  0
  195.4500  174.8770  136.4650 C   0  0  0  0  0  1  0  0  0  0  0  0
  188.2150  175.9970  143.3040 O   0  0  0  0  0  1  0  0  0  0  0  0
  189.2310  176.9240  143.5630 C   0  0  2  0  0  3  0  0  0  0  0  0
  188.8970  177.8990  144.7040 C   0  0  0  0  0  2  0  0  0  0  0  0
  188.7140  177.3050  146.1100 C   0  0  1  0  0  3  0  0  0  0  0  0
  189.9790  177.3920  146.9430 C   0  0  0  0  0  1  0  0  0  0  0  0
  187.6020  177.9270  146.8130 N   0  0  0  0  0  2  0  0  0  0  0  0
  186.3740  177.4630  146.1840 C   0  0  0  0  0  2  0  0  0  0  0  0
  185.6810  179.5090  147.2260 O   0  0  0  0  0  1  0  0  0  0  0  0
  185.2250  178.4230  146.4740 C   0  0  1  0  0  3  0  0  0  0  0  0
  183.4420  179.3760  145.2600 O   0  0  0  0  0  0  0  0  0  0  0  0
  184.5520  178.8710  145.2050 C   0  0  0  0  0  0  0  0  0  0  0  0
  184.4470  177.9540  143.0260 O   0  0  0  0  0  1  0  0  0  0  0  0
  185.2280  178.7350  143.8770 C   0  0  0  0  0  2  0  0  0  0  0  0
  1 13  1  0  0  0  0
  1  6  1  0  0  0  0
  2  4  1  0  0  0  0
  3  1  2  0  0  0  0
  4 34  1  1  0  0  0
  5  9  1  0  0  0  0
  6 10  1  0  0  0  0
  7  3  1  0  0  0  0
  7  5  2  0  0  0  0
  8 11  1  0  0  0  0
  9  6  2  0  0  0  0
  9 12  1  0  0  0  0
 10  2  3  0  0  0  0
 11  4  1  0  0  0  0
 12  8  1  0  0  0  0
 13 19  2  0  0  0  0
 14 16  1  0  0  0  0
 15 17  1  0  0  0  0
 17 14  1  0  0  0  0
 17 20  1  1  0  0  0
 18 15  1  0  0  0  0
 18 13  1  0  0  0  0
 19 16  1  0  0  0  0
 21 24  1  0  0  0  0
 22 25  1  0  0  0  0
 23 20  1  6  0  0  0
 23 21  1  0  0  0  0
 23 22  1  0  0  0  0
 24 25  1  0  0  0  0
 26 29  1  0  0  0  0
 28 27  2  0  0  0  0
 29 27  1  0  0  0  0
 29  5  1  6  0  0  0
 30 26  2  0  0  0  0
 30 28  1  0  0  0  0
 31 28  1  0  0  0  0
 31 32  1  0  0  0  0
 34 33  1  6  0  0  0
 34 35  1  0  0  0  0
 35 36  1  0  0  0  0
 36 38  1  0  0  0  0
 36 37  1  1  0  0  0
 39 41  1  0  0  0  0
 39 38  1  0  0  0  0
 41 40  1  6  0  0  0
 43 42  2  0  0  0  0
 43 41  1  0  0  0  0
 44 45  1  0  0  0  0
 45 43  1  0  0  0  0
M  END
>  <MODEL>
7

>  <REMARK>
 VINA RESULT:      -7.4      2.615      6.710
  Name = 
  13 active torsions:
  status: ('A' for Active; 'I' for Inactive)
    1  A    between atoms: C_1  and  C_14
    2  A    between atoms: C_4  and  C_21
    3  A    between atoms: C_4  and  N_33
    4  A    between atoms: C_8  and  C_28
    5  A    between atoms: C_8  and  C_45
    6  A    between atoms: C_9  and  C_18
    7  A    between atoms: C_12  and  C_38
    8  A    between atoms: C_13  and  C_26
    9  A    between atoms: C_17  and  C_34
   10  A    between atoms: C_17  and  C_35
   11  A    between atoms: C_21  and  C_38
   12  A    between atoms: C_28  and  C_41
   13  A    between atoms: N_33  and  C_41
                            x       y       z     vdW  Elec       q    Type
                         _______ _______ _______ _____ _____    ______ ____

>  <TORSDO>
F 13

$$$$
=
 OpenBabel10222416453D

 45 49  0  0  1  0  0  0  0  0999 V2000
  189.9140  176.2760  136.3240 C   0  0  0  0  0  0  0  0  0  0  0  0
  190.0860  177.0950  139.9080 C   0  0  0  0  0  0  0  0  0  0  0  0
  190.6200  176.0930  135.1340 C   0  0  0  0  0  3  0  0  0  0  0  0
  190.6860  177.5530  141.1530 C   0  0  2  0  0  3  0  0  0  0  0  0
  192.7240  176.0630  136.2640 C   0  0  0  0  0  0  0  0  0  0  0  0
  190.6590  176.3570  137.5200 C   0  0  0  0  0  0  0  0  0  0  0  0
  191.9730  175.9950  135.1310 N   0  0  0  0  0  0  0  0  0  0  0  0
  192.8380  177.5020  139.6580 C   0  0  0  0  0  2  0  0  0  0  0  0
  192.0760  176.2460  137.5110 C   0  0  0  0  0  0  0  0  0  0  0  0
  190.0850  176.7230  138.7760 C   0  0  0  0  0  0  0  0  0  0  0  0
  192.2090  177.2780  141.0610 C   0  0  0  0  0  2  0  0  0  0  0  0
  192.8580  176.1990  138.8280 C   0  0  0  0  0  2  0  0  0  0  0  0
  188.4300  176.3790  136.2600 C   0  0  0  0  0  0  0  0  0  0  0  0
  185.5970  176.7580  135.1730 C   0  0  0  0  0  2  0  0  0  0  0  0
  186.3010  175.3410  137.2020 C   0  0  0  0  0  2  0  0  0  0  0  0
  186.3980  177.8690  135.8380 C   0  0  0  0  0  2  0  0  0  0  0  0
  185.2110  175.6630  136.1750 C   0  0  1  0  0  3  0  0  0  0  0  0
  187.6390  175.1140  136.5130 C   0  0  0  0  0  2  0  0  0  0  0  0
  187.8640  177.5510  135.9160 C   0  0  0  0  0  3  0  0  0  0  0  0
  183.8560  175.9280  136.8350 C   0  0  0  0  0  2  0  0  0  0  0  0
  183.0140  173.5800  136.7040 C   0  0  0  0  0  2  0  0  0  0  0  0
  181.9880  175.0970  138.2100 C   0  0  0  0  0  2  0  0  0  0  0  0
  183.3220  174.7390  137.6280 C   0  0  2  0  0  3  0  0  0  0  0  0
  181.6300  173.5330  136.4820 O   0  0  0  0  0  0  0  0  0  0  0  0
  181.0560  174.0490  137.6520 C   0  0  0  0  0  2  0  0  0  0  0  0
  194.9870  177.0040  135.8580 N   0  0  0  0  0  0  0  0  0  0  0  0
  194.9600  174.7920  136.2170 C   0  0  0  0  0  3  0  0  0  0  0  0
  196.2410  175.2610  136.0110 C   0  0  0  0  0  0  0  0  0  0  0  0
  194.1950  175.9430  136.1090 C   0  0  1  0  0  3  0  0  0  0  0  0
  196.2390  176.5860  135.7910 N   0  0  0  0  0  0  0  0  0  0  0  0
  197.4690  174.4200  135.9810 C   0  0  0  0  0  2  0  0  0  0  0  0
  198.1730  174.4860  137.3230 C   0  0  0  0  0  1  0  0  0  0  0  0
  190.3570  175.4830  142.3810 O   0  0  0  0  0  1  0  0  0  0  0  0
  190.0920  176.8570  142.3790 C   0  0  2  0  0  3  0  0  0  0  0  0
  188.6040  177.1960  142.5720 C   0  0  0  0  0  2  0  0  0  0  0  0
  187.9680  176.8390  143.9240 C   0  0  1  0  0  3  0  0  0  0  0  0
  188.8460  177.2330  145.0970 C   0  0  0  0  0  1  0  0  0  0  0  0
  186.6440  177.4270  144.0650 N   0  0  0  0  0  2  0  0  0  0  0  0
  186.3030  178.0440  142.7910 C   0  0  0  0  0  2  0  0  0  0  0  0
  184.7710  179.7690  143.4480 O   0  0  0  0  0  1  0  0  0  0  0  0
  184.8590  178.5340  142.8000 C   0  0  1  0  0  3  0  0  0  0  0  0
  183.0980  178.4220  141.2350 O   0  0  0  0  0  0  0  0  0  0  0  0
  184.2940  178.5990  141.4070 C   0  0  0  0  0  0  0  0  0  0  0  0
  184.6160  179.9510  139.4910 O   0  0  0  0  0  1  0  0  0  0  0  0
  185.1650  178.9020  140.2280 C   0  0  0  0  0  2  0  0  0  0  0  0
  1  6  1  0  0  0  0
  2  4  1  0  0  0  0
  3  1  2  0  0  0  0
  4 34  1  1  0  0  0
  5  9  1  0  0  0  0
  6 10  1  0  0  0  0
  7  3  1  0  0  0  0
  7  5  2  0  0  0  0
  8 11  1  0  0  0  0
  9  6  2  0  0  0  0
  9 12  1  0  0  0  0
 10  2  3  0  0  0  0
 11  4  1  0  0  0  0
 12  8  1  0  0  0  0
 13  1  1  0  0  0  0
 13 18  1  0  0  0  0
 14 16  1  0  0  0  0
 14 17  1  0  0  0  0
 16 19  1  0  0  0  0
 17 20  1  1  0  0  0
 17 15  1  0  0  0  0
 18 15  1  0  0  0  0
 19 13  2  0  0  0  0
 21 23  1  0  0  0  0
 23 20  1  6  0  0  0
 23 22  1  0  0  0  0
 24 21  1  0  0  0  0
 24 25  1  0  0  0  0
 25 22  1  0  0  0  0
 26 29  1  0  0  0  0
 28 27  2  0  0  0  0
 29 27  1  0  0  0  0
 29  5  1  1  0  0  0
 30 26  2  0  0  0  0
 30 28  1  0  0  0  0
 31 28  1  0  0  0  0
 31 32  1  0  0  0  0
 34 33  1  6  0  0  0
 34 35  1  0  0  0  0
 35 36  1  0  0  0  0
 36 38  1  0  0  0  0
 36 37  1  1  0  0  0
 39 41  1  0  0  0  0
 39 38  1  0  0  0  0
 41 40  1  6  0  0  0
 42 43  2  0  0  0  0
 43 41  1  0  0  0  0
 44 45  1  0  0  0  0
 45 43  1  0  0  0  0
M  END
>  <MODEL>
8

>  <REMARK>
 VINA RESULT:      -7.3      2.173      6.456
  Name = 
  13 active torsions:
  status: ('A' for Active; 'I' for Inactive)
    1  A    between atoms: C_1  and  C_14
    2  A    between atoms: C_4  and  C_21
    3  A    between atoms: C_4  and  N_33
    4  A    between atoms: C_8  and  C_28
    5  A    between atoms: C_8  and  C_45
    6  A    between atoms: C_9  and  C_18
    7  A    between atoms: C_12  and  C_38
    8  A    between atoms: C_13  and  C_26
    9  A    between atoms: C_17  and  C_34
   10  A    between atoms: C_17  and  C_35
   11  A    between atoms: C_21  and  C_38
   12  A    between atoms: C_28  and  C_41
   13  A    between atoms: N_33  and  C_41
                            x       y       z     vdW  Elec       q    Type
                         _______ _______ _______ _____ _____    ______ ____

>  <TORSDO>
F 13

$$$$
=
 OpenBabel10222416453D

 45 49  0  0  1  0  0  0  0  0999 V2000
  191.1600  176.9640  139.8180 C   0  0  0  0  0  0  0  0  0  0  0  0
  188.5250  175.6260  137.6240 C   0  0  0  0  0  0  0  0  0  0  0  0
  192.5290  177.1460  140.0200 C   0  0  0  0  0  3  0  0  0  0  0  0
  187.9550  174.8690  136.5180 C   0  0  2  0  0  3  0  0  0  0  0  0
  193.0500  176.5260  137.7720 C   0  0  0  0  0  0  0  0  0  0  0  0
  190.7390  176.5430  138.5380 C   0  0  0  0  0  0  0  0  0  0  0  0
  193.4190  176.9270  139.0200 N   0  0  0  0  0  0  0  0  0  0  0  0
  190.4940  174.6330  135.9080 C   0  0  0  0  0  2  0  0  0  0  0  0
  191.6750  176.3230  137.4920 C   0  0  0  0  0  0  0  0  0  0  0  0
  189.3980  176.1460  138.2480 C   0  0  0  0  0  0  0  0  0  0  0  0
  189.0320  174.7950  135.4040 C   0  0  0  0  0  2  0  0  0  0  0  0
  191.1930  176.0000  136.0740 C   0  0  0  0  0  2  0  0  0  0  0  0
  190.2350  177.2180  140.9550 C   0  0  0  0  0  0  0  0  0  0  0  0
  187.7560  177.1420  142.7450 C   0  0  0  0  0  2  0  0  0  0  0  0
  190.1940  177.4950  143.4890 C   0  0  0  0  0  2  0  0  0  0  0  0
  188.0380  178.2560  141.7470 C   0  0  0  0  0  2  0  0  0  0  0  0
  188.7600  177.1560  143.9060 C   0  0  1  0  0  3  0  0  0  0  0  0
  190.6240  176.6460  142.3010 C   0  0  0  0  0  2  0  0  0  0  0  0
  189.0760  177.8680  140.7330 C   0  0  0  0  0  3  0  0  0  0  0  0
  188.2820  178.0140  145.0800 C   0  0  0  0  0  2  0  0  0  0  0  0
  186.9910  177.8810  147.2140 C   0  0  0  0  0  2  0  0  0  0  0  0
  189.2870  177.2870  147.2090 C   0  0  0  0  0  2  0  0  0  0  0  0
  188.0530  177.2190  146.3620 C   0  0  2  0  0  3  0  0  0  0  0  0
  187.6190  178.5900  148.2490 O   0  0  0  0  0  0  0  0  0  0  0  0
  188.8030  177.8850  148.5080 C   0  0  0  0  0  2  0  0  0  0  0  0
  194.6880  177.3410  136.0910 N   0  0  0  0  0  0  0  0  0  0  0  0
  194.7420  175.1260  136.4330 C   0  0  0  0  0  3  0  0  0  0  0  0
  195.6800  175.5240  135.5020 C   0  0  0  0  0  0  0  0  0  0  0  0
  194.1330  176.3230  136.7790 C   0  0  1  0  0  3  0  0  0  0  0  0
  195.6290  176.8510  135.3040 N   0  0  0  0  0  0  0  0  0  0  0  0
  196.5980  174.6120  134.7660 C   0  0  0  0  0  2  0  0  0  0  0  0
  196.4520  173.1970  135.2910 C   0  0  0  0  0  1  0  0  0  0  0  0
  186.2620  176.5960  136.7450 O   0  0  0  0  0  1  0  0  0  0  0  0
  186.6720  175.5020  135.9760 C   0  0  2  0  0  3  0  0  0  0  0  0
  185.5640  174.4590  135.7510 C   0  0  0  0  0  2  0  0  0  0  0  0
  185.7440  173.0840  136.4150 C   0  0  1  0  0  3  0  0  0  0  0  0
  185.1020  173.0170  137.7880 C   0  0  0  0  0  1  0  0  0  0  0  0
  185.2410  172.0120  135.5690 N   0  0  0  0  0  2  0  0  0  0  0  0
  183.8260  172.2660  135.3370 C   0  0  0  0  0  2  0  0  0  0  0  0
  183.6280  170.1520  136.4520 O   0  0  0  0  0  1  0  0  0  0  0  0
  183.0140  170.9870  135.5150 C   0  0  1  0  0  3  0  0  0  0  0  0
  180.6880  170.9930  135.1260 O   0  0  0  0  0  0  0  0  0  0  0  0
  181.5900  171.2920  135.8930 C   0  0  0  0  0  0  0  0  0  0  0  0
  179.9480  171.6000  137.5700 O   0  0  0  0  0  1  0  0  0  0  0  0
  181.2530  171.9290  137.2050 C   0  0  0  0  0  2  0  0  0  0  0  0
  1  3  1  0  0  0  0
  1 13  1  0  0  0  0
  2 10  3  0  0  0  0
  4 34  1  6  0  0  0
  4  2  1  0  0  0  0
  5  7  1  0  0  0  0
  6  1  2  0  0  0  0
  7  3  2  0  0  0  0
  8 12  1  0  0  0  0
  9  5  2  0  0  0  0
  9  6  1  0  0  0  0
 10  6  1  0  0  0  0
 11  8  1  0  0  0  0
 11  4  1  0  0  0  0
 12  9  1  0  0  0  0
 13 18  1  0  0  0  0
 14 17  1  0  0  0  0
 15 17  1  0  0  0  0
 16 14  1  0  0  0  0
 17 20  1  1  0  0  0
 18 15  1  0  0  0  0
 19 13  2  0  0  0  0
 19 16  1  0  0  0  0
 21 24  1  0  0  0  0
 22 25  1  0  0  0  0
 23 20  1  6  0  0  0
 23 22  1  0  0  0  0
 23 21  1  0  0  0  0
 24 25  1  0  0  0  0
 26 29  1  0  0  0  0
 27 29  1  0  0  0  0
 28 27  2  0  0  0  0
 29  5  1  1  0  0  0
 30 28  1  0  0  0  0
 30 26  2  0  0  0  0
 31 32  1  0  0  0  0
 31 28  1  0  0  0  0
 34 33  1  1  0  0  0
 35 34  1  0  0  0  0
 35 36  1  0  0  0  0
 36 37  1  1  0  0  0
 38 36  1  0  0  0  0
 39 41  1  0  0  0  0
 39 38  1  0  0  0  0
 41 43  1  0  0  0  0
 41 40  1  1  0  0  0
 42 43  2  0  0  0  0
 43 45  1  0  0  0  0
 45 44  1  0  0  0  0
M  END
>  <MODEL>
9

>  <REMARK>
 VINA RESULT:      -7.1      2.490      3.685
  Name = 
  13 active torsions:
  status: ('A' for Active; 'I' for Inactive)
    1  A    between atoms: C_1  and  C_14
    2  A    between atoms: C_4  and  C_21
    3  A    between atoms: C_4  and  N_33
    4  A    between atoms: C_8  and  C_28
    5  A    between atoms: C_8  and  C_45
    6  A    between atoms: C_9  and  C_18
    7  A    between atoms: C_12  and  C_38
    8  A    between atoms: C_13  and  C_26
    9  A    between atoms: C_17  and  C_34
   10  A    between atoms: C_17  and  C_35
   11  A    between atoms: C_21  and  C_38
   12  A    between atoms: C_28  and  C_41
   13  A    between atoms: N_33  and  C_41
                            x       y       z     vdW  Elec       q    Type
                         _______ _______ _______ _____ _____    ______ ____

>  <TORSDO>
F 13

$$$$
