=
 OpenBabel10222415493D

 31 35  0  0  1  0  0  0  0  0999 V2000
  185.5140  178.9310  143.8650 C   0  0  1  0  0  3  0  0  0  0  0  0
  188.8180  177.4940  143.4230 N   0  0  0  0  0  0  0  0  0  0  0  0
  191.9420  177.5820  140.4250 N   0  0  0  0  0  1  0  0  0  0  0  0
  187.4060  177.5730  143.2920 C   0  0  2  0  0  3  0  0  0  0  0  0
  190.6530  176.9310  140.2730 C   0  0  1  0  0  3  0  0  0  0  0  0
  187.0810  178.0210  142.1200 C   0  0  2  0  0  3  0  0  0  0  0  0
  188.3260  177.8760  139.9370 C   0  0  2  0  0  3  0  0  0  0  0  0
  190.0420  176.6560  141.6490 C   0  0  0  0  0  2  0  0  0  0  0  0
  188.3320  178.3890  141.3920 C   0  0  2  0  0  3  0  0  0  0  0  0
  186.4300  177.8180  144.3820 C   0  0  0  0  0  2  0  0  0  0  0  0
  189.4550  177.8740  142.2250 N   0  0  1  0  0  0  0  0  0  0  0  0
  189.7490  177.7900  139.3840 C   0  0  0  0  0  2  0  0  0  0  0  0
  185.5210  178.8700  142.0300 S   0  0  0  0  0  0  0  0  0  0  0  0
  189.5840  176.9540  147.0590 C   0  0  0  0  0  3  0  0  0  0  0  0
  190.9650  176.7480  147.0130 C   0  0  0  0  0  0  0  0  0  0  0  0
  191.6360  176.7880  145.7890 C   0  0  0  0  0  3  0  0  0  0  0  0
  188.8750  177.2040  145.8810 C   0  0  0  0  0  3  0  0  0  0  0  0
  191.6520  176.5060  148.1560 F   0  0  0  0  0  0  0  0  0  0  0  0
  189.5410  177.2530  144.6460 C   0  0  0  0  0  0  0  0  0  0  0  0
  190.9270  177.0380  144.6110 C   0  0  0  0  0  3  0  0  0  0  0  0
  184.1220  178.8150  144.4170 C   0  0  0  0  0  0  0  0  0  0  0  0
  183.1110  178.9350  143.6220 N   0  0  0  0  0  2  0  0  0  0  0  0
  183.9040  178.9280  145.8220 N   0  0  0  0  0  1  0  0  0  0  0  0
  187.4510  178.6710  139.0710 N   0  0  0  0  0  2  0  0  0  0  0  0
  186.8230  177.8270  138.0570 C   0  0  0  0  0  2  0  0  0  0  0  0
  187.1410  178.3620  136.6710 C   0  0  0  0  0  2  0  0  0  0  0  0
  187.6970  176.0890  136.6230 C   0  0  0  0  0  2  0  0  0  0  0  0
  189.1490  177.6300  135.7270 C   0  0  0  0  0  2  0  0  0  0  0  0
  187.7350  177.3160  135.8520 N   0  0  0  0  0  0  0  0  0  0  0  0
  189.0640  175.4570  136.5120 C   0  0  0  0  0  2  0  0  0  0  0  0
  189.9150  176.3960  135.8020 N   0  0  0  0  0  2  0  0  0  0  0  0
  1 10  1  0  0  0  0
  1 21  1  1  0  0  0
  2 19  1  0  0  0  0
  4  2  1  0  0  0  0
  4 10  1  1  0  0  0
  5  3  1  1  0  0  0
  5  8  1  0  0  0  0
  6 13  1  1  0  0  0
  6  4  1  0  0  0  0
  7 24  1  6  0  0  0
  7  9  1  0  0  0  0
  8 11  1  0  0  0  0
  9  6  1  0  0  0  0
  9 11  1  0  0  0  0
 11  2  1  0  0  0  0
 12  7  1  0  0  0  0
 12  5  1  0  0  0  0
 13  1  1  0  0  0  0
 15 14  1  0  0  0  0
 15 18  1  0  0  0  0
 16 15  2  0  0  0  0
 17 14  2  0  0  0  0
 19 17  1  0  0  0  0
 20 19  2  0  0  0  0
 20 16  1  0  0  0  0
 21 23  1  0  0  0  0
 22 21  2  0  0  0  0
 25 24  1  0  0  0  0
 26 25  1  0  0  0  0
 28 31  1  0  0  0  0
 28 29  1  0  0  0  0
 29 27  1  0  0  0  0
 29 26  1  0  0  0  0
 30 27  1  0  0  0  0
 31 30  1  0  0  0  0
M  END
>  <MODEL>
1

>  <REMARK>
 VINA RESULT:      -9.3      0.000      0.000
  Name = 
  6 active torsions:
  status: ('A' for Active; 'I' for Inactive)
    1  A    between atoms: C_1  and  C_3
    2  A    between atoms: N_4  and  C_16
    3  A    between atoms: N_4  and  C_28
    4  A    between atoms: N_6  and  C_24
    5  A    between atoms: C_11  and  N_14
    6  A    between atoms: C_11  and  C_28
                            x       y       z     vdW  Elec       q    Type
                         _______ _______ _______ _____ _____    ______ ____

>  <TORSDO>
F 6

$$$$
=
 OpenBabel10222415493D

 31 35  0  0  1  0  0  0  0  0999 V2000
  185.5150  178.9190  143.8310 C   0  0  1  0  0  3  0  0  0  0  0  0
  188.8280  177.4950  143.4120 N   0  0  0  0  0  0  0  0  0  0  0  0
  191.9620  177.5760  140.4250 N   0  0  0  0  0  1  0  0  0  0  0  0
  187.4160  177.5660  143.2750 C   0  0  2  0  0  3  0  0  0  0  0  0
  190.6770  176.9180  140.2730 C   0  0  1  0  0  3  0  0  0  0  0  0
  187.0930  178.0040  142.0980 C   0  0  2  0  0  3  0  0  0  0  0  0
  188.3470  177.8490  139.9220 C   0  0  2  0  0  3  0  0  0  0  0  0
  190.0620  176.6490  141.6480 C   0  0  0  0  0  2  0  0  0  0  0  0
  188.3450  178.3720  141.3720 C   0  0  2  0  0  3  0  0  0  0  0  0
  186.4350  177.8140  144.3590 C   0  0  0  0  0  2  0  0  0  0  0  0
  189.4680  177.8690  142.2130 N   0  0  1  0  0  0  0  0  0  0  0  0
  189.7720  177.7650  139.3740 C   0  0  0  0  0  2  0  0  0  0  0  0
  185.5290  178.8450  141.9970 S   0  0  0  0  0  0  0  0  0  0  0  0
  189.5800  176.9690  147.0530 C   0  0  0  0  0  3  0  0  0  0  0  0
  190.9650  176.7850  147.0150 C   0  0  0  0  0  0  0  0  0  0  0  0
  191.6430  176.8360  145.7950 C   0  0  0  0  0  3  0  0  0  0  0  0
  188.8750  177.2070  145.8700 C   0  0  0  0  0  3  0  0  0  0  0  0
  191.6490  176.5550  148.1620 F   0  0  0  0  0  0  0  0  0  0  0  0
  189.5470  177.2660  144.6390 C   0  0  0  0  0  0  0  0  0  0  0  0
  190.9370  177.0730  144.6120 C   0  0  0  0  0  3  0  0  0  0  0  0
  184.1220  178.8010  144.3790 C   0  0  0  0  0  0  0  0  0  0  0  0
  183.1150  178.8570  143.5720 N   0  0  0  0  0  2  0  0  0  0  0  0
  183.8900  178.9810  145.7750 N   0  0  0  0  0  1  0  0  0  0  0  0
  187.4710  178.6330  139.0470 N   0  0  0  0  0  2  0  0  0  0  0  0
  186.7070  177.7580  138.1610 C   0  0  0  0  0  2  0  0  0  0  0  0
  185.2460  178.1720  138.1600 C   0  0  0  0  0  2  0  0  0  0  0  0
  183.4880  176.6300  138.2730 C   0  0  0  0  0  2  0  0  0  0  0  0
  185.3430  176.1430  137.0070 C   0  0  0  0  0  2  0  0  0  0  0  0
  184.4570  177.2320  137.3780 N   0  0  0  0  0  0  0  0  0  0  0  0
  183.5260  175.1410  138.0250 C   0  0  0  0  0  2  0  0  0  0  0  0
  184.6130  174.8880  137.0970 N   0  0  0  0  0  2  0  0  0  0  0  0
  1 10  1  0  0  0  0
  1 21  1  1  0  0  0
  2 19  1  0  0  0  0
  4  2  1  0  0  0  0
  4 10  1  1  0  0  0
  5  3  1  1  0  0  0
  5  8  1  0  0  0  0
  6 13  1  1  0  0  0
  6  4  1  0  0  0  0
  7 24  1  6  0  0  0
  7  9  1  0  0  0  0
  8 11  1  0  0  0  0
  9  6  1  0  0  0  0
  9 11  1  0  0  0  0
 11  2  1  0  0  0  0
 12  7  1  0  0  0  0
 12  5  1  0  0  0  0
 13  1  1  0  0  0  0
 15 14  1  0  0  0  0
 15 18  1  0  0  0  0
 16 15  2  0  0  0  0
 17 14  2  0  0  0  0
 19 17  1  0  0  0  0
 20 19  2  0  0  0  0
 20 16  1  0  0  0  0
 21 23  1  0  0  0  0
 22 21  2  0  0  0  0
 25 24  1  0  0  0  0
 26 25  1  0  0  0  0
 28 31  1  0  0  0  0
 28 29  1  0  0  0  0
 29 26  1  0  0  0  0
 29 27  1  0  0  0  0
 30 27  1  0  0  0  0
 31 30  1  0  0  0  0
M  END
>  <MODEL>
2

>  <REMARK>
 VINA RESULT:      -9.2      1.496      1.993
  Name = 
  6 active torsions:
  status: ('A' for Active; 'I' for Inactive)
    1  A    between atoms: C_1  and  C_3
    2  A    between atoms: N_4  and  C_16
    3  A    between atoms: N_4  and  C_28
    4  A    between atoms: N_6  and  C_24
    5  A    between atoms: C_11  and  N_14
    6  A    between atoms: C_11  and  C_28
                            x       y       z     vdW  Elec       q    Type
                         _______ _______ _______ _____ _____    ______ ____

>  <TORSDO>
F 6

$$$$
=
 OpenBabel10222415493D

 31 35  0  0  1  0  0  0  0  0999 V2000
  184.4920  179.1770  142.7660 C   0  0  1  0  0  3  0  0  0  0  0  0
  187.7130  177.8880  143.8330 N   0  0  0  0  0  0  0  0  0  0  0  0
  191.7300  177.6630  142.2320 N   0  0  0  0  0  1  0  0  0  0  0  0
  186.4530  177.8590  143.1800 C   0  0  2  0  0  3  0  0  0  0  0  0
  190.5870  176.9200  141.7330 C   0  0  1  0  0  3  0  0  0  0  0  0
  186.5910  178.0850  141.9110 C   0  0  2  0  0  3  0  0  0  0  0  0
  188.5590  177.6540  140.4030 C   0  0  2  0  0  3  0  0  0  0  0  0
  189.5050  176.8410  142.8130 C   0  0  0  0  0  2  0  0  0  0  0  0
  188.0250  178.4010  141.6420 C   0  0  2  0  0  3  0  0  0  0  0  0
  185.1430  178.2230  143.7720 C   0  0  0  0  0  2  0  0  0  0  0  0
  188.7540  178.1010  142.9070 N   0  0  1  0  0  0  0  0  0  0  0  0
  190.0850  177.5630  140.4370 C   0  0  0  0  0  2  0  0  0  0  0  0
  185.1830  178.8120  141.1040 S   0  0  0  0  0  0  0  0  0  0  0  0
  187.0940  178.1980  147.5240 C   0  0  0  0  0  3  0  0  0  0  0  0
  188.3550  177.8790  148.0340 C   0  0  0  0  0  0  0  0  0  0  0  0
  189.4010  177.5640  147.1630 C   0  0  0  0  0  3  0  0  0  0  0  0
  186.8810  178.2060  146.1430 C   0  0  0  0  0  3  0  0  0  0  0  0
  188.5620  177.8710  149.3730 F   0  0  0  0  0  0  0  0  0  0  0  0
  187.9260  177.8980  145.2580 C   0  0  0  0  0  0  0  0  0  0  0  0
  189.1860  177.5720  145.7820 C   0  0  0  0  0  3  0  0  0  0  0  0
  182.9940  179.0710  142.7780 C   0  0  0  0  0  0  0  0  0  0  0  0
  182.3720  178.9970  143.9070 N   0  0  0  0  0  1  0  0  0  0  0  0
  182.2980  178.7030  141.5890 N   0  0  0  0  0  2  0  0  0  0  0  0
  188.0760  178.2390  139.1500 N   0  0  0  0  0  2  0  0  0  0  0  0
  188.0370  177.2340  138.0910 C   0  0  0  0  0  2  0  0  0  0  0  0
  187.3920  177.8180  136.8460 C   0  0  0  0  0  2  0  0  0  0  0  0
  185.1380  177.1920  136.7610 C   0  0  0  0  0  2  0  0  0  0  0  0
  186.7620  175.5680  136.8540 C   0  0  0  0  0  2  0  0  0  0  0  0
  186.4600  176.8620  136.2660 N   0  0  0  0  0  0  0  0  0  0  0  0
  184.5030  175.9000  137.2150 C   0  0  0  0  0  2  0  0  0  0  0  0
  185.5150  174.8640  137.1120 N   0  0  0  0  0  2  0  0  0  0  0  0
  1 21  1  6  0  0  0
  1 10  1  0  0  0  0
  2 19  1  0  0  0  0
  4 10  1  1  0  0  0
  4  2  1  0  0  0  0
  5  3  1  1  0  0  0
  5  8  1  0  0  0  0
  6 13  1  1  0  0  0
  6  4  1  0  0  0  0
  7 24  1  6  0  0  0
  7 12  1  0  0  0  0
  7  9  1  0  0  0  0
  8 11  1  0  0  0  0
  9  6  1  0  0  0  0
  9 11  1  0  0  0  0
 11  2  1  0  0  0  0
 12  5  1  0  0  0  0
 13  1  1  0  0  0  0
 14 15  1  0  0  0  0
 15 18  1  0  0  0  0
 16 15  2  0  0  0  0
 17 14  2  0  0  0  0
 19 20  2  0  0  0  0
 19 17  1  0  0  0  0
 20 16  1  0  0  0  0
 21 22  1  0  0  0  0
 23 21  2  0  0  0  0
 25 24  1  0  0  0  0
 26 25  1  0  0  0  0
 27 30  1  0  0  0  0
 28 31  1  0  0  0  0
 29 27  1  0  0  0  0
 29 26  1  0  0  0  0
 29 28  1  0  0  0  0
 31 30  1  0  0  0  0
M  END
>  <MODEL>
3

>  <REMARK>
 VINA RESULT:      -8.5      1.663      2.291
  Name = 
  6 active torsions:
  status: ('A' for Active; 'I' for Inactive)
    1  A    between atoms: C_1  and  C_3
    2  A    between atoms: N_4  and  C_16
    3  A    between atoms: N_4  and  C_28
    4  A    between atoms: N_6  and  C_24
    5  A    between atoms: C_11  and  N_14
    6  A    between atoms: C_11  and  C_28
                            x       y       z     vdW  Elec       q    Type
                         _______ _______ _______ _____ _____    ______ ____

>  <TORSDO>
F 6

$$$$
=
 OpenBabel10222415493D

 31 35  0  0  1  0  0  0  0  0999 V2000
  184.6800  179.1730  142.6440 C   0  0  1  0  0  3  0  0  0  0  0  0
  187.7910  177.8010  143.9150 N   0  0  0  0  0  0  0  0  0  0  0  0
  191.8910  177.4500  142.5640 N   0  0  0  0  0  1  0  0  0  0  0  0
  186.5730  177.8020  143.1850 C   0  0  2  0  0  3  0  0  0  0  0  0
  190.7590  176.7360  142.0000 C   0  0  1  0  0  3  0  0  0  0  0  0
  186.7950  178.0160  141.9260 C   0  0  2  0  0  3  0  0  0  0  0  0
  188.8390  177.5180  140.5440 C   0  0  2  0  0  3  0  0  0  0  0  0
  189.6110  176.6960  143.0120 C   0  0  0  0  0  2  0  0  0  0  0  0
  188.2520  178.2890  141.7440 C   0  0  2  0  0  3  0  0  0  0  0  0
  185.2400  178.2080  143.6940 C   0  0  0  0  0  2  0  0  0  0  0  0
  188.8920  177.9770  143.0530 N   0  0  1  0  0  0  0  0  0  0  0  0
  190.3560  177.3830  140.6720 C   0  0  0  0  0  2  0  0  0  0  0  0
  185.4600  178.7760  141.0300 S   0  0  0  0  0  0  0  0  0  0  0  0
  189.2490  177.5170  147.3640 C   0  0  0  0  0  3  0  0  0  0  0  0
  188.1510  177.8800  148.1480 C   0  0  0  0  0  0  0  0  0  0  0  0
  186.9390  178.2160  147.5400 C   0  0  0  0  0  3  0  0  0  0  0  0
  189.1320  177.4860  145.9710 C   0  0  0  0  0  3  0  0  0  0  0  0
  188.2630  177.9100  149.4980 F   0  0  0  0  0  0  0  0  0  0  0  0
  187.9170  177.8150  145.3500 C   0  0  0  0  0  0  0  0  0  0  0  0
  186.8240  178.1850  146.1470 C   0  0  0  0  0  3  0  0  0  0  0  0
  183.1820  179.1100  142.5650 C   0  0  0  0  0  0  0  0  0  0  0  0
  182.4860  179.1630  143.6520 N   0  0  0  0  0  1  0  0  0  0  0  0
  182.5520  178.6470  141.3720 N   0  0  0  0  0  2  0  0  0  0  0  0
  188.4500  178.1070  139.2600 N   0  0  0  0  0  2  0  0  0  0  0  0
  188.5060  177.1090  138.1950 C   0  0  0  0  0  2  0  0  0  0  0  0
  189.4360  177.5830  137.0910 C   0  0  0  0  0  2  0  0  0  0  0  0
  190.2590  176.1610  135.4230 C   0  0  0  0  0  2  0  0  0  0  0  0
  190.0790  175.3910  137.5820 C   0  0  0  0  0  2  0  0  0  0  0  0
  190.4360  176.5660  136.8040 N   0  0  0  0  0  0  0  0  0  0  0  0
  190.2810  174.6520  135.4010 C   0  0  0  0  0  2  0  0  0  0  0  0
  190.3250  174.2020  136.7810 N   0  0  0  0  0  2  0  0  0  0  0  0
  1 21  1  6  0  0  0
  1 10  1  0  0  0  0
  2 19  1  0  0  0  0
  4 10  1  1  0  0  0
  4  2  1  0  0  0  0
  5  3  1  1  0  0  0
  5  8  1  0  0  0  0
  6 13  1  1  0  0  0
  6  4  1  0  0  0  0
  7 24  1  6  0  0  0
  7 12  1  0  0  0  0
  7  9  1  0  0  0  0
  8 11  1  0  0  0  0
  9  6  1  0  0  0  0
  9 11  1  0  0  0  0
 11  2  1  0  0  0  0
 12  5  1  0  0  0  0
 13  1  1  0  0  0  0
 14 15  1  0  0  0  0
 15 18  1  0  0  0  0
 16 15  2  0  0  0  0
 17 14  2  0  0  0  0
 19 17  1  0  0  0  0
 19 20  2  0  0  0  0
 20 16  1  0  0  0  0
 21 22  1  0  0  0  0
 23 21  2  0  0  0  0
 25 24  1  0  0  0  0
 26 25  1  0  0  0  0
 27 29  1  0  0  0  0
 29 26  1  0  0  0  0
 29 28  1  0  0  0  0
 30 27  1  0  0  0  0
 30 31  1  0  0  0  0
 31 28  1  0  0  0  0
M  END
>  <MODEL>
4

>  <REMARK>
 VINA RESULT:      -8.5      1.657      2.353
  Name = 
  6 active torsions:
  status: ('A' for Active; 'I' for Inactive)
    1  A    between atoms: C_1  and  C_3
    2  A    between atoms: N_4  and  C_16
    3  A    between atoms: N_4  and  C_28
    4  A    between atoms: N_6  and  C_24
    5  A    between atoms: C_11  and  N_14
    6  A    between atoms: C_11  and  C_28
                            x       y       z     vdW  Elec       q    Type
                         _______ _______ _______ _____ _____    ______ ____

>  <TORSDO>
F 6

$$$$
=
 OpenBabel10222415493D

 31 35  0  0  1  0  0  0  0  0999 V2000
  189.3200  177.2130  140.8000 C   0  0  1  0  0  3  0  0  0  0  0  0
  188.3780  177.7590  144.2630 N   0  0  0  0  0  0  0  0  0  0  0  0
  184.7120  177.9760  146.5570 N   0  0  0  0  0  1  0  0  0  0  0  0
  188.6510  178.1210  142.9170 C   0  0  2  0  0  3  0  0  0  0  0  0
  185.1480  178.9580  145.5810 C   0  0  1  0  0  3  0  0  0  0  0  0
  187.5490  178.2580  142.2480 C   0  0  2  0  0  3  0  0  0  0  0  0
  185.2460  178.8790  143.0500 C   0  0  2  0  0  3  0  0  0  0  0  0
  186.6600  178.8440  145.3660 C   0  0  0  0  0  2  0  0  0  0  0  0
  186.4100  177.8710  143.1330 C   0  0  2  0  0  3  0  0  0  0  0  0
  189.8540  177.7530  142.1300 C   0  0  0  0  0  2  0  0  0  0  0  0
  186.9890  177.7060  144.4960 N   0  0  1  0  0  0  0  0  0  0  0  0
  184.3510  178.7810  144.2860 C   0  0  0  0  0  2  0  0  0  0  0  0
  187.6720  177.9630  140.4990 S   0  0  0  0  0  0  0  0  0  0  0  0
  191.6170  176.6580  145.8120 C   0  0  0  0  0  3  0  0  0  0  0  0
  191.2270  176.4730  147.1410 C   0  0  0  0  0  0  0  0  0  0  0  0
  189.9040  176.7090  147.5200 C   0  0  0  0  0  3  0  0  0  0  0  0
  190.6810  177.0770  144.8620 C   0  0  0  0  0  3  0  0  0  0  0  0
  192.1340  176.0660  148.0620 F   0  0  0  0  0  0  0  0  0  0  0  0
  189.3470  177.3120  145.2310 C   0  0  0  0  0  0  0  0  0  0  0  0
  188.9690  177.1290  146.5690 C   0  0  0  0  0  3  0  0  0  0  0  0
  190.2660  177.4820  139.6640 C   0  0  0  0  0  0  0  0  0  0  0  0
  189.7970  177.6380  138.4710 N   0  0  0  0  0  2  0  0  0  0  0  0
  191.6590  177.2200  139.8230 N   0  0  0  0  0  1  0  0  0  0  0  0
  184.4790  178.7420  141.8090 N   0  0  0  0  0  2  0  0  0  0  0  0
  183.0500  178.6390  142.0930 C   0  0  0  0  0  2  0  0  0  0  0  0
  182.2660  178.5990  140.7920 C   0  0  0  0  0  2  0  0  0  0  0  0
  180.4460  179.8890  140.0800 C   0  0  0  0  0  2  0  0  0  0  0  0
  180.7900  179.5570  142.3290 C   0  0  0  0  0  2  0  0  0  0  0  0
  180.8620  178.8860  141.0420 N   0  0  0  0  0  0  0  0  0  0  0  0
  179.6850  180.9440  140.8460 C   0  0  0  0  0  2  0  0  0  0  0  0
  179.7930  180.6140  142.2560 N   0  0  0  0  0  2  0  0  0  0  0  0
  1 21  1  6  0  0  0
  1 10  1  0  0  0  0
  2 11  1  0  0  0  0
  2 19  1  0  0  0  0
  4 10  1  6  0  0  0
  4  2  1  0  0  0  0
  5  3  1  1  0  0  0
  6 13  1  6  0  0  0
  6  4  1  0  0  0  0
  6  9  1  0  0  0  0
  7 24  1  6  0  0  0
  7  9  1  0  0  0  0
  7 12  1  0  0  0  0
  8  5  1  0  0  0  0
  9 11  1  0  0  0  0
 11  8  1  0  0  0  0
 12  5  1  0  0  0  0
 13  1  1  0  0  0  0
 14 15  1  0  0  0  0
 15 16  2  0  0  0  0
 15 18  1  0  0  0  0
 17 19  1  0  0  0  0
 17 14  2  0  0  0  0
 19 20  2  0  0  0  0
 20 16  1  0  0  0  0
 21 23  1  0  0  0  0
 22 21  2  0  0  0  0
 24 25  1  0  0  0  0
 26 29  1  0  0  0  0
 26 25  1  0  0  0  0
 27 30  1  0  0  0  0
 27 29  1  0  0  0  0
 29 28  1  0  0  0  0
 30 31  1  0  0  0  0
 31 28  1  0  0  0  0
M  END
>  <MODEL>
5

>  <REMARK>
 VINA RESULT:      -8.2      2.405      6.347
  Name = 
  6 active torsions:
  status: ('A' for Active; 'I' for Inactive)
    1  A    between atoms: C_1  and  C_3
    2  A    between atoms: N_4  and  C_16
    3  A    between atoms: N_4  and  C_28
    4  A    between atoms: N_6  and  C_24
    5  A    between atoms: C_11  and  N_14
    6  A    between atoms: C_11  and  C_28
                            x       y       z     vdW  Elec       q    Type
                         _______ _______ _______ _____ _____    ______ ____

>  <TORSDO>
F 6

$$$$
=
 OpenBabel10222415493D

 31 35  0  0  1  0  0  0  0  0999 V2000
  190.1110  176.6250  145.2450 C   0  0  1  0  0  3  0  0  0  0  0  0
  187.7300  177.9160  142.8290 N   0  0  0  0  0  0  0  0  0  0  0  0
  187.0860  177.6500  138.5540 N   0  0  0  0  0  1  0  0  0  0  0  0
  188.9300  177.8950  143.5870 C   0  0  2  0  0  3  0  0  0  0  0  0
  188.1850  178.3520  139.1940 C   0  0  1  0  0  3  0  0  0  0  0  0
  189.9130  177.4420  142.8740 C   0  0  2  0  0  3  0  0  0  0  0  0
  190.2550  177.5000  140.3820 C   0  0  2  0  0  3  0  0  0  0  0  0
  187.8230  178.6740  140.6460 C   0  0  0  0  0  2  0  0  0  0  0  0
  189.3750  177.0110  141.5500 C   0  0  2  0  0  3  0  0  0  0  0  0
  189.0430  177.7070  145.0550 C   0  0  0  0  0  2  0  0  0  0  0  0
  187.9650  177.4910  141.5060 N   0  0  1  0  0  0  0  0  0  0  0  0
  189.4630  177.5180  139.0730 C   0  0  0  0  0  2  0  0  0  0  0  0
  191.2230  176.6580  143.7850 S   0  0  0  0  0  0  0  0  0  0  0  0
  184.8940  178.4950  145.2220 C   0  0  0  0  0  3  0  0  0  0  0  0
  183.8210  178.6270  144.3370 C   0  0  0  0  0  0  0  0  0  0  0  0
  184.0350  178.5240  142.9600 C   0  0  0  0  0  3  0  0  0  0  0  0
  186.1800  178.2560  144.7290 C   0  0  0  0  0  3  0  0  0  0  0  0
  182.5740  178.8570  144.8140 F   0  0  0  0  0  0  0  0  0  0  0  0
  186.4050  178.1460  143.3480 C   0  0  0  0  0  0  0  0  0  0  0  0
  185.3220  178.2870  142.4690 C   0  0  0  0  0  3  0  0  0  0  0  0
  190.8740  176.8080  146.5270 C   0  0  0  0  0  0  0  0  0  0  0  0
  192.0520  176.2940  146.6430 N   0  0  0  0  0  2  0  0  0  0  0  0
  190.1900  177.2240  147.7070 N   0  0  0  0  0  1  0  0  0  0  0  0
  191.4950  176.7300  140.2590 N   0  0  0  0  0  2  0  0  0  0  0  0
  191.7510  176.3810  138.8630 C   0  0  0  0  0  2  0  0  0  0  0  0
  193.1750  176.7530  138.4900 C   0  0  0  0  0  2  0  0  0  0  0  0
  193.9310  176.1930  136.3460 C   0  0  0  0  0  2  0  0  0  0  0  0
  192.7980  174.6290  137.5930 C   0  0  0  0  0  2  0  0  0  0  0  0
  193.7820  175.6930  137.6990 N   0  0  0  0  0  0  0  0  0  0  0  0
  193.4180  175.1160  135.4200 C   0  0  0  0  0  2  0  0  0  0  0  0
  192.8480  174.0710  136.2510 N   0  0  0  0  0  2  0  0  0  0  0  0
  1 21  1  1  0  0  0
  2 19  1  0  0  0  0
  2  4  1  0  0  0  0
  4 10  1  1  0  0  0
  5  3  1  1  0  0  0
  5  8  1  0  0  0  0
  6  4  1  0  0  0  0
  6 13  1  1  0  0  0
  7 24  1  6  0  0  0
  7  9  1  0  0  0  0
  8 11  1  0  0  0  0
  9  6  1  0  0  0  0
 10  1  1  0  0  0  0
 11  9  1  0  0  0  0
 11  2  1  0  0  0  0
 12  5  1  0  0  0  0
 12  7  1  0  0  0  0
 13  1  1  0  0  0  0
 15 18  1  0  0  0  0
 15 14  2  0  0  0  0
 16 15  1  0  0  0  0
 17 14  1  0  0  0  0
 19 17  2  0  0  0  0
 20 16  2  0  0  0  0
 20 19  1  0  0  0  0
 21 22  2  0  0  0  0
 21 23  1  0  0  0  0
 25 24  1  0  0  0  0
 26 25  1  0  0  0  0
 27 29  1  0  0  0  0
 28 29  1  0  0  0  0
 29 26  1  0  0  0  0
 30 31  1  0  0  0  0
 30 27  1  0  0  0  0
 31 28  1  0  0  0  0
M  END
>  <MODEL>
6

>  <REMARK>
 VINA RESULT:      -8.0      3.151      5.363
  Name = 
  6 active torsions:
  status: ('A' for Active; 'I' for Inactive)
    1  A    between atoms: C_1  and  C_3
    2  A    between atoms: N_4  and  C_16
    3  A    between atoms: N_4  and  C_28
    4  A    between atoms: N_6  and  C_24
    5  A    between atoms: C_11  and  N_14
    6  A    between atoms: C_11  and  C_28
                            x       y       z     vdW  Elec       q    Type
                         _______ _______ _______ _____ _____    ______ ____

>  <TORSDO>
F 6

$$$$
=
 OpenBabel10222415493D

 31 35  0  0  1  0  0  0  0  0999 V2000
  189.2440  177.1660  140.7640 C   0  0  1  0  0  3  0  0  0  0  0  0
  188.2710  177.8210  144.2000 N   0  0  0  0  0  0  0  0  0  0  0  0
  184.5820  178.1700  146.4420 N   0  0  0  0  0  1  0  0  0  0  0  0
  188.5670  178.1430  142.8480 C   0  0  2  0  0  3  0  0  0  0  0  0
  185.0500  179.1170  145.4450 C   0  0  1  0  0  3  0  0  0  0  0  0
  187.4760  178.2830  142.1630 C   0  0  2  0  0  3  0  0  0  0  0  0
  185.1760  178.9700  142.9190 C   0  0  2  0  0  3  0  0  0  0  0  0
  186.5610  178.9680  145.2530 C   0  0  0  0  0  2  0  0  0  0  0  0
  186.3190  177.9420  143.0430 C   0  0  2  0  0  3  0  0  0  0  0  0
  189.7710  177.7310  142.0870 C   0  0  0  0  0  2  0  0  0  0  0  0
  186.8790  177.8010  144.4170 N   0  0  1  0  0  0  0  0  0  0  0  0
  184.2640  178.9220  144.1460 C   0  0  0  0  0  2  0  0  0  0  0  0
  187.6140  177.9400  140.4240 S   0  0  0  0  0  0  0  0  0  0  0  0
  191.4800  176.7470  145.8280 C   0  0  0  0  0  3  0  0  0  0  0  0
  191.0580  176.5550  147.1460 C   0  0  0  0  0  0  0  0  0  0  0  0
  189.7230  176.7790  147.4930 C   0  0  0  0  0  3  0  0  0  0  0  0
  190.5640  177.1590  144.8560 C   0  0  0  0  0  3  0  0  0  0  0  0
  191.9450  176.1560  148.0900 F   0  0  0  0  0  0  0  0  0  0  0  0
  189.2190  177.3810  145.1910 C   0  0  0  0  0  0  0  0  0  0  0  0
  188.8090  177.1920  146.5190 C   0  0  0  0  0  3  0  0  0  0  0  0
  190.2080  177.3870  139.6340 C   0  0  0  0  0  0  0  0  0  0  0  0
  191.4710  177.4870  139.8870 N   0  0  0  0  0  1  0  0  0  0  0  0
  189.7280  177.8310  138.3670 N   0  0  0  0  0  2  0  0  0  0  0  0
  184.4220  178.8150  141.6720 N   0  0  0  0  0  2  0  0  0  0  0  0
  182.9980  178.6350  141.9480 C   0  0  0  0  0  2  0  0  0  0  0  0
  182.2480  178.3880  140.6510 C   0  0  0  0  0  2  0  0  0  0  0  0
  182.8260  178.2990  138.3840 C   0  0  0  0  0  2  0  0  0  0  0  0
  182.6670  176.3500  139.5900 C   0  0  0  0  0  2  0  0  0  0  0  0
  183.1130  177.7290  139.6850 N   0  0  0  0  0  0  0  0  0  0  0  0
  182.6780  177.1460  137.4200 C   0  0  0  0  0  2  0  0  0  0  0  0
  182.7390  175.9240  138.2010 N   0  0  0  0  0  2  0  0  0  0  0  0
  1 21  1  6  0  0  0
  1 10  1  0  0  0  0
  2 11  1  0  0  0  0
  2 19  1  0  0  0  0
  4 10  1  6  0  0  0
  4  2  1  0  0  0  0
  5  3  1  1  0  0  0
  6 13  1  6  0  0  0
  6  4  1  0  0  0  0
  6  9  1  0  0  0  0
  7 24  1  6  0  0  0
  7  9  1  0  0  0  0
  7 12  1  0  0  0  0
  8  5  1  0  0  0  0
  9 11  1  0  0  0  0
 11  8  1  0  0  0  0
 12  5  1  0  0  0  0
 13  1  1  0  0  0  0
 14 15  1  0  0  0  0
 15 16  2  0  0  0  0
 15 18  1  0  0  0  0
 17 19  1  0  0  0  0
 17 14  2  0  0  0  0
 19 20  2  0  0  0  0
 20 16  1  0  0  0  0
 21 22  1  0  0  0  0
 23 21  2  0  0  0  0
 24 25  1  0  0  0  0
 26 25  1  0  0  0  0
 27 29  1  0  0  0  0
 28 29  1  0  0  0  0
 29 26  1  0  0  0  0
 30 31  1  0  0  0  0
 30 27  1  0  0  0  0
 31 28  1  0  0  0  0
M  END
>  <MODEL>
7

>  <REMARK>
 VINA RESULT:      -7.8      2.344      5.413
  Name = 
  6 active torsions:
  status: ('A' for Active; 'I' for Inactive)
    1  A    between atoms: C_1  and  C_3
    2  A    between atoms: N_4  and  C_16
    3  A    between atoms: N_4  and  C_28
    4  A    between atoms: N_6  and  C_24
    5  A    between atoms: C_11  and  N_14
    6  A    between atoms: C_11  and  C_28
                            x       y       z     vdW  Elec       q    Type
                         _______ _______ _______ _____ _____    ______ ____

>  <TORSDO>
F 6

$$$$
=
 OpenBabel10222415493D

 31 35  0  0  1  0  0  0  0  0999 V2000
  190.8060  177.5360  142.6940 C   0  0  1  0  0  3  0  0  0  0  0  0
  189.8830  176.8110  139.2590 N   0  0  0  0  0  0  0  0  0  0  0  0
  187.0860  178.3500  136.3330 N   0  0  0  0  0  1  0  0  0  0  0  0
  189.7920  176.7320  140.6740 C   0  0  2  0  0  3  0  0  0  0  0  0
  186.7240  177.6160  137.5330 C   0  0  1  0  0  3  0  0  0  0  0  0
  188.8480  177.5020  141.1150 C   0  0  2  0  0  3  0  0  0  0  0  0
  186.7440  178.2840  139.9770 C   0  0  2  0  0  3  0  0  0  0  0  0
  187.9240  176.8060  138.0300 C   0  0  0  0  0  2  0  0  0  0  0  0
  188.2860  178.2670  139.9620 C   0  0  2  0  0  3  0  0  0  0  0  0
  190.9040  176.4530  141.6150 C   0  0  0  0  0  2  0  0  0  0  0  0
  188.8860  177.6610  138.7390 N   0  0  1  0  0  0  0  0  0  0  0  0
  186.1890  178.5910  138.5850 C   0  0  0  0  0  2  0  0  0  0  0  0
  189.0620  178.1040  142.7740 S   0  0  0  0  0  0  0  0  0  0  0  0
  193.2120  176.3880  137.5730 C   0  0  0  0  0  3  0  0  0  0  0  0
  193.0130  175.1860  136.8880 C   0  0  0  0  0  0  0  0  0  0  0  0
  191.7870  174.5220  136.9840 C   0  0  0  0  0  3  0  0  0  0  0  0
  192.1830  176.9270  138.3500 C   0  0  0  0  0  3  0  0  0  0  0  0
  194.0100  174.6630  136.1350 F   0  0  0  0  0  0  0  0  0  0  0  0
  190.9450  176.2720  138.4480 C   0  0  0  0  0  0  0  0  0  0  0  0
  190.7590  175.0620  137.7620 C   0  0  0  0  0  3  0  0  0  0  0  0
  191.2900  177.0450  144.0290 C   0  0  0  0  0  0  0  0  0  0  0  0
  191.6630  177.9000  144.9220 N   0  0  0  0  0  1  0  0  0  0  0  0
  191.6700  175.6800  144.1880 N   0  0  0  0  0  2  0  0  0  0  0  0
  186.2080  179.1950  140.9910 N   0  0  0  0  0  2  0  0  0  0  0  0
  184.7690  179.0020  141.1510 C   0  0  0  0  0  2  0  0  0  0  0  0
  184.4890  178.2330  142.4300 C   0  0  0  0  0  2  0  0  0  0  0  0
  185.6870  178.4950  144.4240 C   0  0  0  0  0  2  0  0  0  0  0  0
  183.4470  179.0110  144.3710 C   0  0  0  0  0  2  0  0  0  0  0  0
  184.6670  179.0970  143.5870 N   0  0  0  0  0  0  0  0  0  0  0  0
  185.1620  178.5170  145.8400 C   0  0  0  0  0  2  0  0  0  0  0  0
  183.7940  178.9970  145.7840 N   0  0  0  0  0  2  0  0  0  0  0  0
  1 13  1  0  0  0  0
  1 21  1  1  0  0  0
  2  4  1  0  0  0  0
  4  6  1  0  0  0  0
  4 10  1  1  0  0  0
  5  3  1  6  0  0  0
  5  8  1  0  0  0  0
  5 12  1  0  0  0  0
  6 13  1  1  0  0  0
  7 24  1  1  0  0  0
  8 11  1  0  0  0  0
  9  7  1  0  0  0  0
  9  6  1  0  0  0  0
 10  1  1  0  0  0  0
 11  2  1  0  0  0  0
 11  9  1  0  0  0  0
 12  7  1  0  0  0  0
 14 17  1  0  0  0  0
 15 16  1  0  0  0  0
 15 14  2  0  0  0  0
 16 20  2  0  0  0  0
 17 19  2  0  0  0  0
 18 15  1  0  0  0  0
 19  2  1  0  0  0  0
 20 19  1  0  0  0  0
 21 23  2  0  0  0  0
 21 22  1  0  0  0  0
 24 25  1  0  0  0  0
 25 26  1  0  0  0  0
 26 29  1  0  0  0  0
 27 30  1  0  0  0  0
 28 31  1  0  0  0  0
 29 28  1  0  0  0  0
 29 27  1  0  0  0  0
 31 30  1  0  0  0  0
M  END
>  <MODEL>
8

>  <REMARK>
 VINA RESULT:      -7.7      3.054      7.197
  Name = 
  6 active torsions:
  status: ('A' for Active; 'I' for Inactive)
    1  A    between atoms: C_1  and  C_3
    2  A    between atoms: N_4  and  C_16
    3  A    between atoms: N_4  and  C_28
    4  A    between atoms: N_6  and  C_24
    5  A    between atoms: C_11  and  N_14
    6  A    between atoms: C_11  and  C_28
                            x       y       z     vdW  Elec       q    Type
                         _______ _______ _______ _____ _____    ______ ____

>  <TORSDO>
F 6

$$$$
=
 OpenBabel10222415493D

 31 35  0  0  1  0  0  0  0  0999 V2000
  187.3280  178.0590  140.0020 C   0  0  1  0  0  3  0  0  0  0  0  0
  185.2730  178.5300  142.9570 N   0  0  0  0  0  0  0  0  0  0  0  0
  181.0720  178.2610  143.9760 N   0  0  0  0  0  1  0  0  0  0  0  0
  185.9090  178.9020  141.7430 C   0  0  2  0  0  3  0  0  0  0  0  0
  181.6640  179.2760  143.1230 C   0  0  1  0  0  3  0  0  0  0  0  0
  185.0680  178.8650  140.7570 C   0  0  2  0  0  3  0  0  0  0  0  0
  182.5690  179.1630  140.7590 C   0  0  2  0  0  3  0  0  0  0  0  0
  183.1660  179.3770  143.3980 C   0  0  0  0  0  2  0  0  0  0  0  0
  183.7680  178.3360  141.2650 C   0  0  2  0  0  3  0  0  0  0  0  0
  187.3360  178.6960  141.3950 C   0  0  0  0  0  2  0  0  0  0  0  0
  183.9010  178.2820  142.7490 N   0  0  1  0  0  0  0  0  0  0  0  0
  181.3490  178.9620  141.6580 C   0  0  0  0  0  2  0  0  0  0  0  0
  185.7780  178.5580  139.1560 S   0  0  0  0  0  0  0  0  0  0  0  0
  186.0800  178.4640  146.6230 C   0  0  0  0  0  3  0  0  0  0  0  0
  187.2180  177.6540  146.6310 C   0  0  0  0  0  0  0  0  0  0  0  0
  187.7140  177.1340  145.4330 C   0  0  0  0  0  3  0  0  0  0  0  0
  185.4400  178.7580  145.4160 C   0  0  0  0  0  3  0  0  0  0  0  0
  187.8390  177.3690  147.8020 F   0  0  0  0  0  0  0  0  0  0  0  0
  185.9340  178.2460  144.2050 C   0  0  0  0  0  0  0  0  0  0  0  0
  187.0730  177.4280  144.2260 C   0  0  0  0  0  3  0  0  0  0  0  0
  188.5420  178.4390  139.2030 C   0  0  0  0  0  0  0  0  0  0  0  0
  188.3920  179.0020  138.0510 N   0  0  0  0  0  2  0  0  0  0  0  0
  189.8120  177.8800  139.5310 N   0  0  0  0  0  1  0  0  0  0  0  0
  182.2610  178.8940  139.3520 N   0  0  0  0  0  2  0  0  0  0  0  0
  181.0450  179.5940  138.9460 C   0  0  0  0  0  2  0  0  0  0  0  0
  181.1630  180.0360  137.4970 C   0  0  0  0  0  2  0  0  0  0  0  0
  180.5090  181.5880  135.8720 C   0  0  0  0  0  2  0  0  0  0  0  0
  181.0440  182.3180  137.9850 C   0  0  0  0  0  2  0  0  0  0  0  0
  180.3780  181.2400  137.2730 N   0  0  0  0  0  0  0  0  0  0  0  0
  180.8040  183.0680  135.8110 C   0  0  0  0  0  2  0  0  0  0  0  0
  180.9820  183.5260  137.1770 N   0  0  0  0  0  2  0  0  0  0  0  0
  1 21  1  6  0  0  0
  1 10  1  0  0  0  0
  2 19  1  0  0  0  0
  4 10  1  6  0  0  0
  4  2  1  0  0  0  0
  5  8  1  0  0  0  0
  5  3  1  1  0  0  0
  6 13  1  6  0  0  0
  6  9  1  0  0  0  0
  6  4  1  0  0  0  0
  7 24  1  6  0  0  0
  7  9  1  0  0  0  0
  7 12  1  0  0  0  0
  9 11  1  0  0  0  0
 11  2  1  0  0  0  0
 11  8  1  0  0  0  0
 12  5  1  0  0  0  0
 13  1  1  0  0  0  0
 14 15  1  0  0  0  0
 15 18  1  0  0  0  0
 16 15  2  0  0  0  0
 17 14  2  0  0  0  0
 19 20  2  0  0  0  0
 19 17  1  0  0  0  0
 20 16  1  0  0  0  0
 21 23  1  0  0  0  0
 22 21  2  0  0  0  0
 25 24  1  0  0  0  0
 26 25  1  0  0  0  0
 27 29  1  0  0  0  0
 29 26  1  0  0  0  0
 29 28  1  0  0  0  0
 30 27  1  0  0  0  0
 30 31  1  0  0  0  0
 31 28  1  0  0  0  0
M  END
>  <MODEL>
9

>  <REMARK>
 VINA RESULT:      -7.5      4.041      6.740
  Name = 
  6 active torsions:
  status: ('A' for Active; 'I' for Inactive)
    1  A    between atoms: C_1  and  C_3
    2  A    between atoms: N_4  and  C_16
    3  A    between atoms: N_4  and  C_28
    4  A    between atoms: N_6  and  C_24
    5  A    between atoms: C_11  and  N_14
    6  A    between atoms: C_11  and  C_28
                            x       y       z     vdW  Elec       q    Type
                         _______ _______ _______ _____ _____    ______ ____

>  <TORSDO>
F 6

$$$$
