=
 OpenBabel10222419153D

 35 38  0  0  1  0  0  0  0  0999 V2000
  191.1610  177.3650  145.4570 C   0  0  0  0  0  0  0  0  0  0  0  0
  189.6580  177.8540  143.1480 C   0  0  0  0  0  0  0  0  0  0  0  0
  191.7480  178.0080  144.3660 C   0  0  0  0  0  3  0  0  0  0  0  0
  189.0570  177.2080  144.2450 C   0  0  0  0  0  0  0  0  0  0  0  0
  190.9980  178.2500  143.2130 C   0  0  0  0  0  3  0  0  0  0  0  0
  189.8250  176.9640  145.3960 C   0  0  0  0  0  3  0  0  0  0  0  0
  191.8880  177.1280  146.5750 F   0  0  0  0  0  0  0  0  0  0  0  0
  187.7150  176.8010  144.1400 O   0  0  0  0  0  0  0  0  0  0  0  0
  186.4010  177.8050  145.9700 C   0  0  0  0  0  3  0  0  0  0  0  0
  184.4670  178.5660  144.1020 C   0  0  0  0  0  0  0  0  0  0  0  0
  186.5810  177.4780  144.6150 C   0  0  0  0  0  0  0  0  0  0  0  0
  185.2610  178.4980  146.3870 C   0  0  0  0  0  3  0  0  0  0  0  0
  184.2930  178.8750  145.4530 C   0  0  0  0  0  3  0  0  0  0  0  0
  185.6070  177.8670  143.6880 C   0  0  0  0  0  3  0  0  0  0  0  0
  183.4320  178.9580  143.1070 C   0  0  0  0  0  2  0  0  0  0  0  0
  182.0520  178.9490  143.7560 C   0  0  0  0  0  2  0  0  0  0  0  0
  179.5910  177.6520  141.4630 C   0  0  0  0  0  2  0  0  0  0  0  0
  180.9370  179.1640  142.7380 C   0  0  1  0  0  0  0  0  0  0  0  0
  180.3930  178.3370  139.3780 C   0  0  0  0  0  1  0  0  0  0  0  0
  179.8570  178.1170  142.8750 C   0  0  0  0  0  2  0  0  0  0  0  0
  180.3900  180.4430  142.8680 O   0  0  0  0  0  1  0  0  0  0  0  0
  181.4900  178.9970  141.3360 C   0  0  0  0  0  2  0  0  0  0  0  0
  180.8050  177.8810  140.6940 N   0  0  0  0  0  0  0  0  0  0  0  0
  188.8870  178.1050  141.8940 C   0  0  0  0  0  2  0  0  0  0  0  0
  189.4580  177.2760  140.7610 C   0  0  0  0  0  2  0  0  0  0  0  0
  189.3480  178.0490  139.4620 C   0  0  0  0  0  2  0  0  0  0  0  0
  188.5340  177.2780  138.4780 C   0  0  0  0  0  0  0  0  0  0  0  0
  187.1390  177.5630  138.3000 N   0  0  0  0  0  0  0  0  0  0  0  0
  185.1720  177.5690  136.8300 C   0  0  0  0  0  2  0  0  0  0  0  0
  185.1210  178.8220  138.9670 C   0  0  0  0  0  0  0  0  0  0  0  0
  186.5140  178.5260  139.1130 N   0  0  0  0  0  2  0  0  0  0  0  0
  186.3400  176.7540  137.3750 C   0  0  0  0  0  2  0  0  0  0  0  0
  184.2970  178.0660  137.9750 C   0  0  0  0  0  2  0  0  0  0  0  0
  184.5820  179.6860  139.7050 O   0  0  0  0  0  0  0  0  0  0  0  0
  189.0950  176.3870  137.7850 O   0  0  0  0  0  0  0  0  0  0  0  0
  1  7  1  0  0  0  0
  2  5  2  0  0  0  0
  2  4  1  0  0  0  0
  3  1  2  0  0  0  0
  4  6  2  0  0  0  0
  5  3  1  0  0  0  0
  6  1  1  0  0  0  0
  8  4  1  0  0  0  0
  8 11  1  0  0  0  0
  9 12  1  0  0  0  0
 10 13  1  0  0  0  0
 11  9  2  0  0  0  0
 13 12  2  0  0  0  0
 14 10  2  0  0  0  0
 14 11  1  0  0  0  0
 15 16  1  0  0  0  0
 15 10  1  0  0  0  0
 17 20  1  0  0  0  0
 18 21  1  1  0  0  0
 18 20  1  0  0  0  0
 18 16  1  0  0  0  0
 19 23  1  0  0  0  0
 22 18  1  0  0  0  0
 23 22  1  0  0  0  0
 23 17  1  0  0  0  0
 24  2  1  0  0  0  0
 25 24  1  0  0  0  0
 26 25  1  0  0  0  0
 27 26  1  0  0  0  0
 28 27  1  0  0  0  0
 28 31  1  0  0  0  0
 29 32  1  0  0  0  0
 29 33  1  0  0  0  0
 30 31  1  0  0  0  0
 30 34  2  0  0  0  0
 32 28  1  0  0  0  0
 33 30  1  0  0  0  0
 35 27  2  0  0  0  0
M  END
>  <MODEL>
1

>  <REMARK>
 VINA RESULT:      -9.5      0.000      0.000
  Name = 
  9 active torsions:
  status: ('A' for Active; 'I' for Inactive)
    1  A    between atoms: O_2  and  C_18
    2  A    between atoms: O_2  and  C_26
    3  A    between atoms: C_3  and  C_20
    4  A    between atoms: C_4  and  C_6
    5  A    between atoms: C_4  and  C_11
    6  A    between atoms: C_6  and  C_20
    7  A    between atoms: C_7  and  C_34
    8  A    between atoms: C_21  and  C_27
    9  A    between atoms: C_27  and  C_34
                            x       y       z     vdW  Elec       q    Type
                         _______ _______ _______ _____ _____    ______ ____

>  <TORSDO>
F 9

$$$$
=
 OpenBabel10222419153D

 35 38  0  0  1  0  0  0  0  0999 V2000
  188.3610  178.0480  147.9450 C   0  0  0  0  0  0  0  0  0  0  0  0
  186.5910  178.0420  145.7760 C   0  0  0  0  0  0  0  0  0  0  0  0
  187.1120  178.6620  148.0610 C   0  0  0  0  0  3  0  0  0  0  0  0
  187.8460  177.4170  145.6510 C   0  0  0  0  0  0  0  0  0  0  0  0
  186.2300  178.6600  146.9780 C   0  0  0  0  0  3  0  0  0  0  0  0
  188.7270  177.4320  146.7460 C   0  0  0  0  0  3  0  0  0  0  0  0
  189.2170  178.0500  148.9930 F   0  0  0  0  0  0  0  0  0  0  0  0
  188.1890  176.8250  144.4220 O   0  0  0  0  0  0  0  0  0  0  0  0
  190.5200  177.5900  144.1700 C   0  0  0  0  0  3  0  0  0  0  0  0
  190.3550  177.0440  141.4350 C   0  0  0  0  0  0  0  0  0  0  0  0
  189.3200  177.0920  143.6350 C   0  0  0  0  0  0  0  0  0  0  0  0
  191.6230  177.8210  143.3440 C   0  0  0  0  0  3  0  0  0  0  0  0
  191.5400  177.5510  141.9760 C   0  0  0  0  0  3  0  0  0  0  0  0
  189.2500  176.8190  142.2640 C   0  0  0  0  0  3  0  0  0  0  0  0
  190.2600  176.7650  139.9760 C   0  0  0  0  0  2  0  0  0  0  0  0
  189.5860  177.9320  139.2620 C   0  0  0  0  0  2  0  0  0  0  0  0
  187.4920  178.2710  136.3460 C   0  0  0  0  0  2  0  0  0  0  0  0
  189.2680  177.6080  137.8060 C   0  0  1  0  0  0  0  0  0  0  0  0
  186.6120  176.1240  136.0710 C   0  0  0  0  0  1  0  0  0  0  0  0
  188.6940  178.8060  137.0880 C   0  0  0  0  0  2  0  0  0  0  0  0
  190.4090  177.1480  137.1430 O   0  0  0  0  0  1  0  0  0  0  0  0
  188.1910  176.5430  137.7450 C   0  0  0  0  0  2  0  0  0  0  0  0
  187.0240  177.0960  137.0670 N   0  0  0  0  0  0  0  0  0  0  0  0
  185.6370  178.0760  144.6280 C   0  0  0  0  0  2  0  0  0  0  0  0
  184.2980  178.6220  145.0830 C   0  0  0  0  0  2  0  0  0  0  0  0
  183.8080  179.6540  144.0880 C   0  0  0  0  0  2  0  0  0  0  0  0
  182.8320  179.0310  143.1470 C   0  0  0  0  0  0  0  0  0  0  0  0
  183.2250  178.6770  141.8140 N   0  0  0  0  0  0  0  0  0  0  0  0
  182.9210  177.2300  139.8530 C   0  0  0  0  0  2  0  0  0  0  0  0
  184.9370  178.6590  140.0330 C   0  0  0  0  0  0  0  0  0  0  0  0
  184.5210  178.9880  141.3620 N   0  0  0  0  0  2  0  0  0  0  0  0
  182.2370  178.1250  140.8830 C   0  0  0  0  0  2  0  0  0  0  0  0
  183.9730  178.0220  139.0840 C   0  0  0  0  0  2  0  0  0  0  0  0
  186.1000  178.9480  139.6490 O   0  0  0  0  0  0  0  0  0  0  0  0
  181.6600  178.7950  143.5490 O   0  0  0  0  0  0  0  0  0  0  0  0
  1  3  1  0  0  0  0
  1  7  1  0  0  0  0
  2  5  1  0  0  0  0
  4  2  2  0  0  0  0
  4  6  1  0  0  0  0
  5  3  2  0  0  0  0
  6  1  2  0  0  0  0
  8  4  1  0  0  0  0
 10 13  2  0  0  0  0
 10 14  1  0  0  0  0
 11  9  1  0  0  0  0
 11  8  1  0  0  0  0
 12  9  2  0  0  0  0
 13 12  1  0  0  0  0
 14 11  2  0  0  0  0
 15 10  1  0  0  0  0
 16 15  1  0  0  0  0
 17 23  1  0  0  0  0
 17 20  1  0  0  0  0
 18 21  1  6  0  0  0
 18 16  1  0  0  0  0
 19 23  1  0  0  0  0
 20 18  1  0  0  0  0
 22 18  1  0  0  0  0
 23 22  1  0  0  0  0
 24 25  1  0  0  0  0
 24  2  1  0  0  0  0
 26 25  1  0  0  0  0
 27 35  2  0  0  0  0
 27 26  1  0  0  0  0
 28 27  1  0  0  0  0
 29 32  1  0  0  0  0
 30 31  1  0  0  0  0
 31 28  1  0  0  0  0
 32 28  1  0  0  0  0
 33 29  1  0  0  0  0
 33 30  1  0  0  0  0
 34 30  2  0  0  0  0
M  END
>  <MODEL>
2

>  <REMARK>
 VINA RESULT:      -9.3      1.692      6.418
  Name = 
  9 active torsions:
  status: ('A' for Active; 'I' for Inactive)
    1  A    between atoms: O_2  and  C_18
    2  A    between atoms: O_2  and  C_26
    3  A    between atoms: C_3  and  C_20
    4  A    between atoms: C_4  and  C_6
    5  A    between atoms: C_4  and  C_11
    6  A    between atoms: C_6  and  C_20
    7  A    between atoms: C_7  and  C_34
    8  A    between atoms: C_21  and  C_27
    9  A    between atoms: C_27  and  C_34
                            x       y       z     vdW  Elec       q    Type
                         _______ _______ _______ _____ _____    ______ ____

>  <TORSDO>
F 9

$$$$
=
 OpenBabel10222419153D

 35 38  0  0  1  0  0  0  0  0999 V2000
  189.2430  177.7130  147.9740 C   0  0  0  0  0  0  0  0  0  0  0  0
  190.0170  176.9460  145.3960 C   0  0  0  0  0  0  0  0  0  0  0  0
  190.5680  177.3530  147.7210 C   0  0  0  0  0  3  0  0  0  0  0  0
  188.6800  177.3100  145.6400 C   0  0  0  0  0  0  0  0  0  0  0  0
  190.9530  176.9690  146.4360 C   0  0  0  0  0  3  0  0  0  0  0  0
  188.3030  177.6880  146.9410 C   0  0  0  0  0  3  0  0  0  0  0  0
  188.8670  178.0840  149.2200 F   0  0  0  0  0  0  0  0  0  0  0  0
  187.7570  177.2550  144.5810 O   0  0  0  0  0  0  0  0  0  0  0  0
  185.7910  178.2230  145.7110 C   0  0  0  0  0  3  0  0  0  0  0  0
  184.5360  178.4590  143.2250 C   0  0  0  0  0  0  0  0  0  0  0  0
  186.4580  177.7870  144.5540 C   0  0  0  0  0  0  0  0  0  0  0  0
  184.5040  178.7630  145.6260 C   0  0  0  0  0  3  0  0  0  0  0  0
  183.8760  178.8790  144.3840 C   0  0  0  0  0  3  0  0  0  0  0  0
  185.8220  177.9130  143.3140 C   0  0  0  0  0  3  0  0  0  0  0  0
  183.8640  178.5720  141.9020 C   0  0  0  0  0  2  0  0  0  0  0  0
  184.8590  179.0480  140.8490 C   0  0  0  0  0  2  0  0  0  0  0  0
  182.5770  177.8770  138.3150 C   0  0  0  0  0  2  0  0  0  0  0  0
  184.2180  179.1780  139.4710 C   0  0  1  0  0  0  0  0  0  0  0  0
  184.0000  177.1990  136.5900 C   0  0  0  0  0  1  0  0  0  0  0  0
  182.7590  178.7900  139.5040 C   0  0  0  0  0  2  0  0  0  0  0  0
  184.3610  180.4800  138.9820 O   0  0  0  0  0  1  0  0  0  0  0  0
  184.8760  178.2080  138.5100 C   0  0  0  0  0  2  0  0  0  0  0  0
  183.8680  177.2670  138.0340 N   0  0  0  0  0  0  0  0  0  0  0  0
  190.4530  176.5080  144.0360 C   0  0  0  0  0  2  0  0  0  0  0  0
  190.9860  177.6940  143.2570 C   0  0  0  0  0  2  0  0  0  0  0  0
  191.1360  177.3150  141.7980 C   0  0  0  0  0  2  0  0  0  0  0  0
  189.9130  177.7110  141.0410 C   0  0  0  0  0  0  0  0  0  0  0  0
  189.8230  177.4860  139.6270 N   0  0  0  0  0  0  0  0  0  0  0  0
  188.4200  177.0680  137.6550 C   0  0  0  0  0  2  0  0  0  0  0  0
  190.8710  176.7340  137.5200 C   0  0  0  0  0  0  0  0  0  0  0  0
  190.9270  176.9560  138.9320 N   0  0  0  0  0  2  0  0  0  0  0  0
  188.6410  177.9400  138.8880 C   0  0  0  0  0  2  0  0  0  0  0  0
  189.6470  177.1140  136.7510 C   0  0  0  0  0  2  0  0  0  0  0  0
  191.8700  176.2600  136.9190 O   0  0  0  0  0  0  0  0  0  0  0  0
  188.9460  178.2250  141.6660 O   0  0  0  0  0  0  0  0  0  0  0  0
  1  7  1  0  0  0  0
  2  4  2  0  0  0  0
  2  5  1  0  0  0  0
  3  1  1  0  0  0  0
  4  6  1  0  0  0  0
  5  3  2  0  0  0  0
  6  1  2  0  0  0  0
  8  4  1  0  0  0  0
 10 14  2  0  0  0  0
 10 13  1  0  0  0  0
 11  8  1  0  0  0  0
 11  9  2  0  0  0  0
 12  9  1  0  0  0  0
 13 12  2  0  0  0  0
 14 11  1  0  0  0  0
 15 10  1  0  0  0  0
 16 15  1  0  0  0  0
 17 20  1  0  0  0  0
 18 21  1  6  0  0  0
 18 20  1  0  0  0  0
 18 16  1  0  0  0  0
 19 23  1  0  0  0  0
 22 18  1  0  0  0  0
 23 17  1  0  0  0  0
 23 22  1  0  0  0  0
 24  2  1  0  0  0  0
 25 24  1  0  0  0  0
 26 25  1  0  0  0  0
 27 35  2  0  0  0  0
 27 26  1  0  0  0  0
 28 27  1  0  0  0  0
 29 32  1  0  0  0  0
 30 31  1  0  0  0  0
 31 28  1  0  0  0  0
 32 28  1  0  0  0  0
 33 30  1  0  0  0  0
 33 29  1  0  0  0  0
 34 30  2  0  0  0  0
M  END
>  <MODEL>
3

>  <REMARK>
 VINA RESULT:      -9.1      2.220      3.734
  Name = 
  9 active torsions:
  status: ('A' for Active; 'I' for Inactive)
    1  A    between atoms: O_2  and  C_18
    2  A    between atoms: O_2  and  C_26
    3  A    between atoms: C_3  and  C_20
    4  A    between atoms: C_4  and  C_6
    5  A    between atoms: C_4  and  C_11
    6  A    between atoms: C_6  and  C_20
    7  A    between atoms: C_7  and  C_34
    8  A    between atoms: C_21  and  C_27
    9  A    between atoms: C_27  and  C_34
                            x       y       z     vdW  Elec       q    Type
                         _______ _______ _______ _____ _____    ______ ____

>  <TORSDO>
F 9

$$$$
=
 OpenBabel10222419153D

 35 38  0  0  1  0  0  0  0  0999 V2000
  180.5020  178.5600  143.5740 C   0  0  0  0  0  0  0  0  0  0  0  0
  182.6690  178.7120  141.8110 C   0  0  0  0  0  0  0  0  0  0  0  0
  180.3440  178.1780  142.2400 C   0  0  0  0  0  3  0  0  0  0  0  0
  182.8380  179.0960  143.1540 C   0  0  0  0  0  0  0  0  0  0  0  0
  181.4250  178.2560  141.3600 C   0  0  0  0  0  3  0  0  0  0  0  0
  181.7400  179.0200  144.0270 C   0  0  0  0  0  3  0  0  0  0  0  0
  179.4530  178.4870  144.4280 F   0  0  0  0  0  0  0  0  0  0  0  0
  184.0940  179.5730  143.5710 O   0  0  0  0  0  0  0  0  0  0  0  0
  185.1300  178.9620  145.7240 C   0  0  0  0  0  3  0  0  0  0  0  0
  186.9330  177.3350  144.3410 C   0  0  0  0  0  0  0  0  0  0  0  0
  185.0590  178.8840  144.3230 C   0  0  0  0  0  0  0  0  0  0  0  0
  186.0990  178.2400  146.4250 C   0  0  0  0  0  3  0  0  0  0  0  0
  187.0020  177.4280  145.7340 C   0  0  0  0  0  3  0  0  0  0  0  0
  185.9640  178.0630  143.6400 C   0  0  0  0  0  3  0  0  0  0  0  0
  187.9000  176.4790  143.6020 C   0  0  0  0  0  2  0  0  0  0  0  0
  189.3190  177.0050  143.7960 C   0  0  0  0  0  2  0  0  0  0  0  0
  191.9680  177.4230  141.3860 C   0  0  0  0  0  2  0  0  0  0  0  0
  190.2900  176.4280  142.7700 C   0  0  1  0  0  0  0  0  0  0  0  0
  190.9320  176.8960  139.3600 C   0  0  0  0  0  1  0  0  0  0  0  0
  191.6280  177.1250  142.8270 C   0  0  0  0  0  2  0  0  0  0  0  0
  190.4520  175.0540  142.9630 O   0  0  0  0  0  1  0  0  0  0  0  0
  189.7600  176.6780  141.3720 C   0  0  0  0  0  2  0  0  0  0  0  0
  190.7140  177.5160  140.6540 N   0  0  0  0  0  0  0  0  0  0  0  0
  183.8020  178.8070  140.8410 C   0  0  0  0  0  2  0  0  0  0  0  0
  183.5400  177.9070  139.6500 C   0  0  0  0  0  2  0  0  0  0  0  0
  184.2080  178.4890  138.4210 C   0  0  0  0  0  2  0  0  0  0  0  0
  184.8150  177.3950  137.6070 C   0  0  0  0  0  0  0  0  0  0  0  0
  186.1960  177.4510  137.2210 N   0  0  0  0  0  0  0  0  0  0  0  0
  188.2550  176.2540  136.6240 C   0  0  0  0  0  2  0  0  0  0  0  0
  188.3430  178.6700  137.1640 C   0  0  0  0  0  0  0  0  0  0  0  0
  186.9670  178.5810  137.5470 N   0  0  0  0  0  2  0  0  0  0  0  0
  186.7580  176.4000  136.3670 C   0  0  0  0  0  2  0  0  0  0  0  0
  188.9670  177.5760  136.3590 C   0  0  0  0  0  2  0  0  0  0  0  0
  189.0140  179.6910  137.4650 O   0  0  0  0  0  0  0  0  0  0  0  0
  184.1020  176.4070  137.2820 O   0  0  0  0  0  0  0  0  0  0  0  0
  1  6  1  0  0  0  0
  1  7  1  0  0  0  0
  2  4  1  0  0  0  0
  3  1  2  0  0  0  0
  4  8  1  0  0  0  0
  4  6  2  0  0  0  0
  5  2  2  0  0  0  0
  5  3  1  0  0  0  0
  8 11  1  0  0  0  0
  9 12  1  0  0  0  0
 10 13  1  0  0  0  0
 11  9  2  0  0  0  0
 13 12  2  0  0  0  0
 14 11  1  0  0  0  0
 14 10  2  0  0  0  0
 15 16  1  0  0  0  0
 15 10  1  0  0  0  0
 17 20  1  0  0  0  0
 18 20  1  0  0  0  0
 18 21  1  1  0  0  0
 18 16  1  0  0  0  0
 19 23  1  0  0  0  0
 22 18  1  0  0  0  0
 23 22  1  0  0  0  0
 23 17  1  0  0  0  0
 24  2  1  0  0  0  0
 25 24  1  0  0  0  0
 26 25  1  0  0  0  0
 27 26  1  0  0  0  0
 28 31  1  0  0  0  0
 28 27  1  0  0  0  0
 30 34  2  0  0  0  0
 30 31  1  0  0  0  0
 32 29  1  0  0  0  0
 32 28  1  0  0  0  0
 33 29  1  0  0  0  0
 33 30  1  0  0  0  0
 35 27  2  0  0  0  0
M  END
>  <MODEL>
4

>  <REMARK>
 VINA RESULT:      -9.0      2.942      7.212
  Name = 
  9 active torsions:
  status: ('A' for Active; 'I' for Inactive)
    1  A    between atoms: O_2  and  C_18
    2  A    between atoms: O_2  and  C_26
    3  A    between atoms: C_3  and  C_20
    4  A    between atoms: C_4  and  C_6
    5  A    between atoms: C_4  and  C_11
    6  A    between atoms: C_6  and  C_20
    7  A    between atoms: C_7  and  C_34
    8  A    between atoms: C_21  and  C_27
    9  A    between atoms: C_27  and  C_34
                            x       y       z     vdW  Elec       q    Type
                         _______ _______ _______ _____ _____    ______ ____

>  <TORSDO>
F 9

$$$$
=
 OpenBabel10222419153D

 35 38  0  0  1  0  0  0  0  0999 V2000
  187.5270  178.0380  147.6230 C   0  0  0  0  0  0  0  0  0  0  0  0
  186.4260  177.8960  145.0540 C   0  0  0  0  0  0  0  0  0  0  0  0
  186.3410  178.7150  147.3330 C   0  0  0  0  0  3  0  0  0  0  0  0
  187.6210  177.2070  145.3370 C   0  0  0  0  0  0  0  0  0  0  0  0
  185.7930  178.6450  146.0510 C   0  0  0  0  0  3  0  0  0  0  0  0
  188.1660  177.2920  146.6300 C   0  0  0  0  0  3  0  0  0  0  0  0
  188.0610  178.1070  148.8650 F   0  0  0  0  0  0  0  0  0  0  0  0
  188.2470  176.4820  144.3080 O   0  0  0  0  0  0  0  0  0  0  0  0
  190.6210  177.1310  144.1610 C   0  0  0  0  0  3  0  0  0  0  0  0
  190.3610  177.2820  141.3830 C   0  0  0  0  0  0  0  0  0  0  0  0
  189.3780  176.8590  143.5670 C   0  0  0  0  0  0  0  0  0  0  0  0
  191.7210  177.4840  143.3750 C   0  0  0  0  0  3  0  0  0  0  0  0
  191.5900  177.5630  141.9860 C   0  0  0  0  0  3  0  0  0  0  0  0
  189.2600  176.9340  142.1740 C   0  0  0  0  0  3  0  0  0  0  0  0
  190.2170  177.3750  139.9050 C   0  0  0  0  0  2  0  0  0  0  0  0
  189.1510  178.4050  139.5460 C   0  0  0  0  0  2  0  0  0  0  0  0
  187.5300  176.8650  136.7180 C   0  0  0  0  0  2  0  0  0  0  0  0
  188.8050  178.3800  138.0610 C   0  0  1  0  0  0  0  0  0  0  0  0
  189.3230  176.1820  135.3840 C   0  0  0  0  0  1  0  0  0  0  0  0
  187.3990  177.8750  137.8320 C   0  0  0  0  0  2  0  0  0  0  0  0
  188.9610  179.6490  137.4970 O   0  0  0  0  0  1  0  0  0  0  0  0
  189.7110  177.3990  137.3440 C   0  0  0  0  0  2  0  0  0  0  0  0
  188.8890  176.3450  136.7600 N   0  0  0  0  0  0  0  0  0  0  0  0
  185.8300  177.8580  143.6850 C   0  0  0  0  0  2  0  0  0  0  0  0
  185.0320  179.1220  143.4330 C   0  0  0  0  0  2  0  0  0  0  0  0
  183.8450  178.8030  142.5470 C   0  0  0  0  0  2  0  0  0  0  0  0
  184.2410  178.8980  141.1120 C   0  0  0  0  0  0  0  0  0  0  0  0
  183.4270  178.3090  140.0880 N   0  0  0  0  0  0  0  0  0  0  0  0
  182.6580  178.3210  137.7560 C   0  0  0  0  0  2  0  0  0  0  0  0
  181.4600  176.9600  139.4450 C   0  0  0  0  0  0  0  0  0  0  0  0
  182.2830  177.5700  140.4430 N   0  0  0  0  0  2  0  0  0  0  0  0
  183.8640  178.3560  138.6900 C   0  0  0  0  0  2  0  0  0  0  0  0
  181.8380  177.0590  138.0020 C   0  0  0  0  0  2  0  0  0  0  0  0
  180.4430  176.3030  139.7850 O   0  0  0  0  0  0  0  0  0  0  0  0
  185.2920  179.5250  140.8080 O   0  0  0  0  0  0  0  0  0  0  0  0
  1  7  1  0  0  0  0
  2  4  2  0  0  0  0
  2  5  1  0  0  0  0
  3  1  1  0  0  0  0
  4  6  1  0  0  0  0
  5  3  2  0  0  0  0
  6  1  2  0  0  0  0
  8  4  1  0  0  0  0
 10 13  2  0  0  0  0
 10 14  1  0  0  0  0
 11  9  1  0  0  0  0
 11  8  1  0  0  0  0
 12  9  2  0  0  0  0
 13 12  1  0  0  0  0
 14 11  2  0  0  0  0
 15 10  1  0  0  0  0
 16 15  1  0  0  0  0
 17 23  1  0  0  0  0
 17 20  1  0  0  0  0
 18 21  1  6  0  0  0
 18 16  1  0  0  0  0
 19 23  1  0  0  0  0
 20 18  1  0  0  0  0
 22 18  1  0  0  0  0
 23 22  1  0  0  0  0
 24  2  1  0  0  0  0
 25 24  1  0  0  0  0
 26 25  1  0  0  0  0
 27 26  1  0  0  0  0
 28 31  1  0  0  0  0
 28 27  1  0  0  0  0
 29 33  1  0  0  0  0
 29 32  1  0  0  0  0
 30 34  2  0  0  0  0
 30 31  1  0  0  0  0
 32 28  1  0  0  0  0
 33 30  1  0  0  0  0
 35 27  2  0  0  0  0
M  END
>  <MODEL>
5

>  <REMARK>
 VINA RESULT:      -9.0      2.115      6.214
  Name = 
  9 active torsions:
  status: ('A' for Active; 'I' for Inactive)
    1  A    between atoms: O_2  and  C_18
    2  A    between atoms: O_2  and  C_26
    3  A    between atoms: C_3  and  C_20
    4  A    between atoms: C_4  and  C_6
    5  A    between atoms: C_4  and  C_11
    6  A    between atoms: C_6  and  C_20
    7  A    between atoms: C_7  and  C_34
    8  A    between atoms: C_21  and  C_27
    9  A    between atoms: C_27  and  C_34
                            x       y       z     vdW  Elec       q    Type
                         _______ _______ _______ _____ _____    ______ ____

>  <TORSDO>
F 9

$$$$
=
 OpenBabel10222419153D

 35 38  0  0  1  0  0  0  0  0999 V2000
  191.0880  177.2230  145.4870 C   0  0  0  0  0  0  0  0  0  0  0  0
  189.5600  177.9460  143.2570 C   0  0  0  0  0  0  0  0  0  0  0  0
  191.6700  177.9560  144.4500 C   0  0  0  0  0  3  0  0  0  0  0  0
  188.9650  177.2090  144.2980 C   0  0  0  0  0  0  0  0  0  0  0  0
  190.9070  178.3150  143.3370 C   0  0  0  0  0  3  0  0  0  0  0  0
  189.7450  176.8480  145.4100 C   0  0  0  0  0  3  0  0  0  0  0  0
  191.8270  176.8720  146.5660 F   0  0  0  0  0  0  0  0  0  0  0  0
  187.6150  176.8330  144.1780 O   0  0  0  0  0  0  0  0  0  0  0  0
  186.3210  177.9170  145.9750 C   0  0  0  0  0  3  0  0  0  0  0  0
  184.3870  178.6320  144.0890 C   0  0  0  0  0  0  0  0  0  0  0  0
  186.4910  177.5390  144.6330 C   0  0  0  0  0  0  0  0  0  0  0  0
  185.1900  178.6360  146.3720 C   0  0  0  0  0  3  0  0  0  0  0  0
  184.2220  178.9920  145.4290 C   0  0  0  0  0  3  0  0  0  0  0  0
  185.5180  177.9060  143.6960 C   0  0  0  0  0  3  0  0  0  0  0  0
  183.3520  179.0010  143.0850 C   0  0  0  0  0  2  0  0  0  0  0  0
  181.9810  179.0720  143.7490 C   0  0  0  0  0  2  0  0  0  0  0  0
  179.5400  177.6790  141.4900 C   0  0  0  0  0  2  0  0  0  0  0  0
  180.8590  179.2430  142.7300 C   0  0  1  0  0  0  0  0  0  0  0  0
  180.3210  178.3400  139.3890 C   0  0  0  0  0  1  0  0  0  0  0  0
  179.8020  178.1770  142.8910 C   0  0  0  0  0  2  0  0  0  0  0  0
  180.2850  180.5130  142.8370 O   0  0  0  0  0  1  0  0  0  0  0  0
  181.4100  179.0600  141.3300 C   0  0  0  0  0  2  0  0  0  0  0  0
  180.7470  177.9180  140.7120 N   0  0  0  0  0  0  0  0  0  0  0  0
  188.7750  178.3230  142.0440 C   0  0  0  0  0  2  0  0  0  0  0  0
  189.0910  177.3720  140.9060 C   0  0  0  0  0  2  0  0  0  0  0  0
  189.2340  178.1550  139.6170 C   0  0  0  0  0  2  0  0  0  0  0  0
  188.1410  177.7820  138.6720 C   0  0  0  0  0  0  0  0  0  0  0  0
  188.2230  176.5770  137.8980 N   0  0  0  0  0  0  0  0  0  0  0  0
  187.0660  174.7490  136.7360 C   0  0  0  0  0  2  0  0  0  0  0  0
  189.4940  174.5760  137.2020 C   0  0  0  0  0  0  0  0  0  0  0  0
  189.3780  175.7760  137.9730 N   0  0  0  0  0  2  0  0  0  0  0  0
  187.1720  176.2590  136.9270 C   0  0  0  0  0  2  0  0  0  0  0  0
  188.4000  174.1840  136.2610 C   0  0  0  0  0  2  0  0  0  0  0  0
  190.5360  173.8750  137.2840 O   0  0  0  0  0  0  0  0  0  0  0  0
  187.1300  178.5300  138.5800 O   0  0  0  0  0  0  0  0  0  0  0  0
  1  7  1  0  0  0  0
  2  5  2  0  0  0  0
  2  4  1  0  0  0  0
  3  1  2  0  0  0  0
  4  6  2  0  0  0  0
  5  3  1  0  0  0  0
  6  1  1  0  0  0  0
  8  4  1  0  0  0  0
  8 11  1  0  0  0  0
  9 12  1  0  0  0  0
 10 13  1  0  0  0  0
 11  9  2  0  0  0  0
 13 12  2  0  0  0  0
 14 10  2  0  0  0  0
 14 11  1  0  0  0  0
 15 16  1  0  0  0  0
 15 10  1  0  0  0  0
 17 20  1  0  0  0  0
 18 21  1  1  0  0  0
 18 20  1  0  0  0  0
 18 16  1  0  0  0  0
 19 23  1  0  0  0  0
 22 18  1  0  0  0  0
 23 22  1  0  0  0  0
 23 17  1  0  0  0  0
 24  2  1  0  0  0  0
 25 24  1  0  0  0  0
 26 25  1  0  0  0  0
 27 26  1  0  0  0  0
 28 31  1  0  0  0  0
 28 27  1  0  0  0  0
 29 32  1  0  0  0  0
 30 34  2  0  0  0  0
 30 31  1  0  0  0  0
 32 28  1  0  0  0  0
 33 29  1  0  0  0  0
 33 30  1  0  0  0  0
 35 27  2  0  0  0  0
M  END
>  <MODEL>
6

>  <REMARK>
 VINA RESULT:      -8.9      1.300      2.345
  Name = 
  9 active torsions:
  status: ('A' for Active; 'I' for Inactive)
    1  A    between atoms: O_2  and  C_18
    2  A    between atoms: O_2  and  C_26
    3  A    between atoms: C_3  and  C_20
    4  A    between atoms: C_4  and  C_6
    5  A    between atoms: C_4  and  C_11
    6  A    between atoms: C_6  and  C_20
    7  A    between atoms: C_7  and  C_34
    8  A    between atoms: C_21  and  C_27
    9  A    between atoms: C_27  and  C_34
                            x       y       z     vdW  Elec       q    Type
                         _______ _______ _______ _____ _____    ______ ____

>  <TORSDO>
F 9

$$$$
=
 OpenBabel10222419153D

 35 38  0  0  1  0  0  0  0  0999 V2000
  191.1370  177.2880  145.4680 C   0  0  0  0  0  0  0  0  0  0  0  0
  189.5580  177.8840  143.2360 C   0  0  0  0  0  0  0  0  0  0  0  0
  191.6920  177.9690  144.3830 C   0  0  0  0  0  3  0  0  0  0  0  0
  188.9890  177.2000  144.3270 C   0  0  0  0  0  0  0  0  0  0  0  0
  190.9040  178.2640  143.2680 C   0  0  0  0  0  3  0  0  0  0  0  0
  189.7950  176.9030  145.4390 C   0  0  0  0  0  3  0  0  0  0  0  0
  191.9010  176.9980  146.5480 F   0  0  0  0  0  0  0  0  0  0  0  0
  187.6400  176.8110  144.2550 O   0  0  0  0  0  0  0  0  0  0  0  0
  186.3520  177.9000  146.0540 C   0  0  0  0  0  3  0  0  0  0  0  0
  184.4330  178.6460  144.1650 C   0  0  0  0  0  0  0  0  0  0  0  0
  186.5220  177.5270  144.7100 C   0  0  0  0  0  0  0  0  0  0  0  0
  185.2280  178.6300  146.4510 C   0  0  0  0  0  3  0  0  0  0  0  0
  184.2670  179.0010  145.5070 C   0  0  0  0  0  3  0  0  0  0  0  0
  185.5560  177.9100  143.7720 C   0  0  0  0  0  3  0  0  0  0  0  0
  183.4050  179.0310  143.1600 C   0  0  0  0  0  2  0  0  0  0  0  0
  182.0150  178.9710  143.7820 C   0  0  0  0  0  2  0  0  0  0  0  0
  179.5120  177.7040  141.5160 C   0  0  0  0  0  2  0  0  0  0  0  0
  180.9140  179.1990  142.7520 C   0  0  1  0  0  0  0  0  0  0  0  0
  180.3500  178.2920  139.4160 C   0  0  0  0  0  1  0  0  0  0  0  0
  179.7920  178.2010  142.9150 C   0  0  0  0  0  2  0  0  0  0  0  0
  180.4180  180.5020  142.8400 O   0  0  0  0  0  1  0  0  0  0  0  0
  181.4650  178.9670  141.3590 C   0  0  0  0  0  2  0  0  0  0  0  0
  180.7380  177.8600  140.7470 N   0  0  0  0  0  0  0  0  0  0  0  0
  188.7460  178.1930  142.0210 C   0  0  0  0  0  2  0  0  0  0  0  0
  189.0410  177.1830  140.9310 C   0  0  0  0  0  2  0  0  0  0  0  0
  188.8380  177.8280  139.5750 C   0  0  0  0  0  2  0  0  0  0  0  0
  188.9430  176.7980  138.5010 C   0  0  0  0  0  0  0  0  0  0  0  0
  190.2200  176.2690  138.1160 N   0  0  0  0  0  0  0  0  0  0  0  0
  191.5260  174.4020  137.2000 C   0  0  0  0  0  2  0  0  0  0  0  0
  192.6810  176.2800  138.3310 C   0  0  0  0  0  0  0  0  0  0  0  0
  191.3930  176.7790  138.7040 N   0  0  0  0  0  2  0  0  0  0  0  0
  190.3100  175.3050  137.0150 C   0  0  0  0  0  2  0  0  0  0  0  0
  192.7990  175.2380  137.2650 C   0  0  0  0  0  2  0  0  0  0  0  0
  193.7160  176.7510  138.8670 O   0  0  0  0  0  0  0  0  0  0  0  0
  187.8880  176.3790  137.9500 O   0  0  0  0  0  0  0  0  0  0  0  0
  1  7  1  0  0  0  0
  2  5  2  0  0  0  0
  2  4  1  0  0  0  0
  3  1  2  0  0  0  0
  4  6  2  0  0  0  0
  5  3  1  0  0  0  0
  6  1  1  0  0  0  0
  8  4  1  0  0  0  0
  8 11  1  0  0  0  0
  9 12  1  0  0  0  0
 10 13  1  0  0  0  0
 11  9  2  0  0  0  0
 13 12  2  0  0  0  0
 14 10  2  0  0  0  0
 14 11  1  0  0  0  0
 15 16  1  0  0  0  0
 15 10  1  0  0  0  0
 17 20  1  0  0  0  0
 18 21  1  1  0  0  0
 18 20  1  0  0  0  0
 18 16  1  0  0  0  0
 19 23  1  0  0  0  0
 22 18  1  0  0  0  0
 23 22  1  0  0  0  0
 23 17  1  0  0  0  0
 24  2  1  0  0  0  0
 25 24  1  0  0  0  0
 26 25  1  0  0  0  0
 27 26  1  0  0  0  0
 28 27  1  0  0  0  0
 28 31  1  0  0  0  0
 29 33  1  0  0  0  0
 30 31  1  0  0  0  0
 30 34  2  0  0  0  0
 32 29  1  0  0  0  0
 32 28  1  0  0  0  0
 33 30  1  0  0  0  0
 35 27  2  0  0  0  0
M  END
>  <MODEL>
7

>  <REMARK>
 VINA RESULT:      -8.9      1.873      3.149
  Name = 
  9 active torsions:
  status: ('A' for Active; 'I' for Inactive)
    1  A    between atoms: O_2  and  C_18
    2  A    between atoms: O_2  and  C_26
    3  A    between atoms: C_3  and  C_20
    4  A    between atoms: C_4  and  C_6
    5  A    between atoms: C_4  and  C_11
    6  A    between atoms: C_6  and  C_20
    7  A    between atoms: C_7  and  C_34
    8  A    between atoms: C_21  and  C_27
    9  A    between atoms: C_27  and  C_34
                            x       y       z     vdW  Elec       q    Type
                         _______ _______ _______ _____ _____    ______ ____

>  <TORSDO>
F 9

$$$$
=
 OpenBabel10222419153D

 35 38  0  0  1  0  0  0  0  0999 V2000
  189.9800  177.5250  147.4770 C   0  0  0  0  0  0  0  0  0  0  0  0
  190.0390  176.7640  144.7850 C   0  0  0  0  0  0  0  0  0  0  0  0
  191.1260  176.9300  146.9460 C   0  0  0  0  0  3  0  0  0  0  0  0
  188.8810  177.3660  145.3120 C   0  0  0  0  0  0  0  0  0  0  0  0
  191.1540  176.5490  145.6030 C   0  0  0  0  0  3  0  0  0  0  0  0
  188.8630  177.7380  146.6660 C   0  0  0  0  0  3  0  0  0  0  0  0
  189.9500  177.8940  148.7800 F   0  0  0  0  0  0  0  0  0  0  0  0
  187.7690  177.5470  144.4710 O   0  0  0  0  0  0  0  0  0  0  0  0
  186.1010  178.1720  146.1770 C   0  0  0  0  0  3  0  0  0  0  0  0
  184.2770  178.7120  144.1300 C   0  0  0  0  0  0  0  0  0  0  0  0
  186.4850  177.9790  144.8390 C   0  0  0  0  0  0  0  0  0  0  0  0
  184.8150  178.6210  146.4880 C   0  0  0  0  0  3  0  0  0  0  0  0
  183.9020  178.8890  145.4650 C   0  0  0  0  0  3  0  0  0  0  0  0
  185.5640  178.2560  143.8220 C   0  0  0  0  0  3  0  0  0  0  0  0
  183.3030  178.9870  143.0390 C   0  0  0  0  0  2  0  0  0  0  0  0
  183.9210  178.6460  141.6880 C   0  0  0  0  0  2  0  0  0  0  0  0
  181.4470  179.7530  139.3090 C   0  0  0  0  0  2  0  0  0  0  0  0
  182.8620  178.3480  140.6310 C   0  0  1  0  0  0  0  0  0  0  0  0
  179.4420  178.9870  140.2330 C   0  0  0  0  0  1  0  0  0  0  0  0
  182.8920  179.3680  139.5180 C   0  0  0  0  0  2  0  0  0  0  0  0
  183.0320  177.0610  140.1130 O   0  0  0  0  0  1  0  0  0  0  0  0
  181.4820  178.4600  141.2480 C   0  0  0  0  0  2  0  0  0  0  0  0
  180.7500  179.5210  140.5660 N   0  0  0  0  0  0  0  0  0  0  0  0
  190.0900  176.3240  143.3590 C   0  0  0  0  0  2  0  0  0  0  0  0
  190.5080  177.4820  142.4750 C   0  0  0  0  0  2  0  0  0  0  0  0
  189.4410  177.7320  141.4290 C   0  0  0  0  0  2  0  0  0  0  0  0
  190.0010  177.5000  140.0650 C   0  0  0  0  0  0  0  0  0  0  0  0
  189.1980  177.7220  138.8970 N   0  0  0  0  0  0  0  0  0  0  0  0
  189.0780  178.3090  136.5160 C   0  0  0  0  0  2  0  0  0  0  0  0
  187.0170  178.3020  137.8920 C   0  0  0  0  0  0  0  0  0  0  0  0
  187.8460  178.0870  139.0380 N   0  0  0  0  0  2  0  0  0  0  0  0
  189.7430  177.4270  137.5690 C   0  0  0  0  0  2  0  0  0  0  0  0
  187.5700  178.0860  136.5200 C   0  0  0  0  0  2  0  0  0  0  0  0
  185.8110  178.6270  138.0410 O   0  0  0  0  0  0  0  0  0  0  0  0
  191.2010  177.1310  139.9520 O   0  0  0  0  0  0  0  0  0  0  0  0
  1  7  1  0  0  0  0
  2  4  2  0  0  0  0
  2  5  1  0  0  0  0
  3  1  1  0  0  0  0
  4  6  1  0  0  0  0
  5  3  2  0  0  0  0
  6  1  2  0  0  0  0
  8 11  1  0  0  0  0
  8  4  1  0  0  0  0
  9 12  1  0  0  0  0
 10 13  1  0  0  0  0
 11  9  2  0  0  0  0
 13 12  2  0  0  0  0
 14 10  2  0  0  0  0
 14 11  1  0  0  0  0
 15 10  1  0  0  0  0
 16 15  1  0  0  0  0
 17 20  1  0  0  0  0
 17 23  1  0  0  0  0
 18 21  1  6  0  0  0
 18 22  1  0  0  0  0
 18 16  1  0  0  0  0
 19 23  1  0  0  0  0
 20 18  1  0  0  0  0
 23 22  1  0  0  0  0
 24  2  1  0  0  0  0
 25 24  1  0  0  0  0
 26 25  1  0  0  0  0
 27 26  1  0  0  0  0
 28 31  1  0  0  0  0
 28 27  1  0  0  0  0
 29 33  1  0  0  0  0
 29 32  1  0  0  0  0
 30 34  2  0  0  0  0
 30 31  1  0  0  0  0
 32 28  1  0  0  0  0
 33 30  1  0  0  0  0
 35 27  2  0  0  0  0
M  END
>  <MODEL>
8

>  <REMARK>
 VINA RESULT:      -8.8      1.751      2.456
  Name = 
  9 active torsions:
  status: ('A' for Active; 'I' for Inactive)
    1  A    between atoms: O_2  and  C_18
    2  A    between atoms: O_2  and  C_26
    3  A    between atoms: C_3  and  C_20
    4  A    between atoms: C_4  and  C_6
    5  A    between atoms: C_4  and  C_11
    6  A    between atoms: C_6  and  C_20
    7  A    between atoms: C_7  and  C_34
    8  A    between atoms: C_21  and  C_27
    9  A    between atoms: C_27  and  C_34
                            x       y       z     vdW  Elec       q    Type
                         _______ _______ _______ _____ _____    ______ ____

>  <TORSDO>
F 9

$$$$
=
 OpenBabel10222419153D

 35 38  0  0  1  0  0  0  0  0999 V2000
  190.4660  177.1170  146.7630 C   0  0  0  0  0  0  0  0  0  0  0  0
  190.2200  176.5560  144.0330 C   0  0  0  0  0  0  0  0  0  0  0  0
  191.6030  176.8300  146.0050 C   0  0  0  0  0  3  0  0  0  0  0  0
  189.0690  176.8480  144.7890 C   0  0  0  0  0  0  0  0  0  0  0  0
  191.4790  176.5480  144.6430 C   0  0  0  0  0  3  0  0  0  0  0  0
  189.2070  177.1220  146.1600 C   0  0  0  0  0  3  0  0  0  0  0  0
  190.5840  177.3880  148.0850 F   0  0  0  0  0  0  0  0  0  0  0  0
  187.8150  176.8250  144.1520 O   0  0  0  0  0  0  0  0  0  0  0  0
  186.3880  177.9070  145.8480 C   0  0  0  0  0  3  0  0  0  0  0  0
  184.6080  178.6340  143.8200 C   0  0  0  0  0  0  0  0  0  0  0  0
  186.6600  177.5340  144.5210 C   0  0  0  0  0  0  0  0  0  0  0  0
  185.2320  178.6290  146.1580 C   0  0  0  0  0  3  0  0  0  0  0  0
  184.3410  178.9900  145.1440 C   0  0  0  0  0  3  0  0  0  0  0  0
  185.7640  177.9060  143.5130 C   0  0  0  0  0  3  0  0  0  0  0  0
  183.6550  179.0080  142.7400 C   0  0  0  0  0  2  0  0  0  0  0  0
  184.0370  178.3100  141.4390 C   0  0  0  0  0  2  0  0  0  0  0  0
  180.5930  177.7540  140.5260 C   0  0  0  0  0  2  0  0  0  0  0  0
  182.9080  178.3480  140.4140 C   0  0  1  0  0  0  0  0  0  0  0  0
  180.7300  176.0190  138.9670 C   0  0  0  0  0  1  0  0  0  0  0  0
  181.5990  178.7500  141.0520 C   0  0  0  0  0  2  0  0  0  0  0  0
  183.2230  179.2180  139.3670 O   0  0  0  0  0  1  0  0  0  0  0  0
  182.6790  176.9570  139.8570 C   0  0  0  0  0  2  0  0  0  0  0  0
  181.3210  176.5400  140.1870 N   0  0  0  0  0  0  0  0  0  0  0  0
  190.1150  176.2290  142.5790 C   0  0  0  0  0  2  0  0  0  0  0  0
  190.1550  177.5020  141.7570 C   0  0  0  0  0  2  0  0  0  0  0  0
  189.7620  177.1930  140.3270 C   0  0  0  0  0  2  0  0  0  0  0  0
  188.4580  177.8420  140.0070 C   0  0  0  0  0  0  0  0  0  0  0  0
  187.7830  177.5580  138.7720 N   0  0  0  0  0  0  0  0  0  0  0  0
  185.6740  177.3920  137.5260 C   0  0  0  0  0  2  0  0  0  0  0  0
  187.7500  176.4300  136.5750 C   0  0  0  0  0  0  0  0  0  0  0  0
  188.3920  176.7200  137.8210 N   0  0  0  0  0  2  0  0  0  0  0  0
  186.5350  178.2530  138.4450 C   0  0  0  0  0  2  0  0  0  0  0  0
  186.4360  177.0630  136.2470 C   0  0  0  0  0  2  0  0  0  0  0  0
  188.3140  175.6780  135.7380 O   0  0  0  0  0  0  0  0  0  0  0  0
  187.9410  178.6260  140.8490 O   0  0  0  0  0  0  0  0  0  0  0  0
  1  7  1  0  0  0  0
  2  5  2  0  0  0  0
  2  4  1  0  0  0  0
  3  1  2  0  0  0  0
  4  6  2  0  0  0  0
  5  3  1  0  0  0  0
  6  1  1  0  0  0  0
  8 11  1  0  0  0  0
  8  4  1  0  0  0  0
  9 12  1  0  0  0  0
 10 13  1  0  0  0  0
 11  9  2  0  0  0  0
 13 12  2  0  0  0  0
 14 10  2  0  0  0  0
 14 11  1  0  0  0  0
 15 10  1  0  0  0  0
 16 15  1  0  0  0  0
 17 20  1  0  0  0  0
 18 21  1  6  0  0  0
 18 20  1  0  0  0  0
 18 16  1  0  0  0  0
 19 23  1  0  0  0  0
 22 23  1  0  0  0  0
 22 18  1  0  0  0  0
 23 17  1  0  0  0  0
 24  2  1  0  0  0  0
 25 24  1  0  0  0  0
 26 25  1  0  0  0  0
 27 26  1  0  0  0  0
 27 35  2  0  0  0  0
 28 27  1  0  0  0  0
 29 32  1  0  0  0  0
 30 31  1  0  0  0  0
 31 28  1  0  0  0  0
 32 28  1  0  0  0  0
 33 30  1  0  0  0  0
 33 29  1  0  0  0  0
 34 30  2  0  0  0  0
M  END
>  <MODEL>
9

>  <REMARK>
 VINA RESULT:      -8.7      1.507      2.386
  Name = 
  9 active torsions:
  status: ('A' for Active; 'I' for Inactive)
    1  A    between atoms: O_2  and  C_18
    2  A    between atoms: O_2  and  C_26
    3  A    between atoms: C_3  and  C_20
    4  A    between atoms: C_4  and  C_6
    5  A    between atoms: C_4  and  C_11
    6  A    between atoms: C_6  and  C_20
    7  A    between atoms: C_7  and  C_34
    8  A    between atoms: C_21  and  C_27
    9  A    between atoms: C_27  and  C_34
                            x       y       z     vdW  Elec       q    Type
                         _______ _______ _______ _____ _____    ______ ____

>  <TORSDO>
F 9

$$$$
