=
 OpenBabel10222419453D

 33 36  0  0  1  0  0  0  0  0999 V2000
  184.5390  178.1130  142.2550 C   0  0  0  0  0  2  0  0  0  0  0  0
  184.0280  177.1170  139.4750 O   0  0  0  0  0  0  0  0  0  0  0  0
  189.2900  177.8780  138.0760 C   0  0  0  0  0  0  0  0  0  0  0  0
  189.2270  177.1900  140.4110 C   0  0  0  0  0  0  0  0  0  0  0  0
  186.7070  177.3050  143.3070 C   0  0  0  0  0  2  0  0  0  0  0  0
  183.3820  179.8420  139.9990 N   0  0  0  0  0  1  0  0  0  0  0  0
  184.8010  178.0260  139.2040 C   0  0  0  0  0  0  0  0  0  0  0  0
  186.8030  179.0310  141.4380 C   0  0  0  0  0  2  0  0  0  0  0  0
  184.7420  179.3170  139.9840 C   0  0  2  0  0  3  0  0  0  0  0  0
  185.2920  177.8510  143.5570 C   0  0  0  0  0  2  0  0  0  0  0  0
  187.3200  178.6580  136.7260 C   0  0  0  0  0  2  0  0  0  0  0  0
  187.2430  177.6350  141.9080 C   0  0  1  0  0  3  0  0  0  0  0  0
  190.2030  176.8460  137.8010 C   0  0  0  0  0  0  0  0  0  0  0  0
  185.2750  179.1840  141.4220 C   0  0  1  0  0  3  0  0  0  0  0  0
  190.1580  176.1770  140.1350 C   0  0  0  0  0  3  0  0  0  0  0  0
  189.1370  180.1260  137.3080 O   0  0  0  0  0  1  0  0  0  0  0  0
  186.5620  178.9720  137.8640 O   0  0  0  0  0  0  0  0  0  0  0  0
  190.6870  176.6550  136.5110 O   0  0  0  0  0  1  0  0  0  0  0  0
  188.7600  177.4050  141.8200 C   0  0  2  0  0  3  0  0  0  0  0  0
  185.7900  177.8210  138.0950 C   0  0  0  0  0  2  0  0  0  0  0  0
  188.8200  178.8030  136.9940 C   0  0  1  0  0  3  0  0  0  0  0  0
  188.8230  178.0460  139.3820 C   0  0  0  0  0  3  0  0  0  0  0  0
  190.6390  176.0050  138.8320 C   0  0  0  0  0  3  0  0  0  0  0  0
  189.4710  180.0190  142.1670 O   0  0  0  0  0  0  0  0  0  0  0  0
  189.7620  178.6360  142.6750 S   0  0  0  0  0  0  0  0  0  0  0  0
  191.2250  178.3500  142.4710 O   0  0  0  0  0  0  0  0  0  0  0  0
  189.4140  178.5770  144.4230 C   0  0  0  0  0  2  0  0  0  0  0  0
  191.8990  176.1820  146.1000 C   0  0  0  0  0  2  0  0  0  0  0  0
  189.9050  177.2820  145.0590 C   0  0  2  0  0  3  0  0  0  0  0  0
  189.1970  177.0340  146.3740 C   0  0  0  0  0  3  0  0  0  0  0  0
  189.8220  176.5650  147.4680 C   0  0  0  0  0  3  0  0  0  0  0  0
  191.3110  176.3270  147.5040 C   0  0  0  0  0  2  0  0  0  0  0  0
  191.4260  177.3420  145.2310 C   0  0  0  0  0  2  0  0  0  0  0  0
  1 10  1  0  0  0  0
  3 22  1  0  0  0  0
  4 19  1  0  0  0  0
  5 10  1  0  0  0  0
  7  2  2  0  0  0  0
  7  9  1  0  0  0  0
  9  6  1  1  0  0  0
  9 14  1  0  0  0  0
 11 21  1  0  0  0  0
 11 17  1  0  0  0  0
 12  8  1  1  0  0  0
 12  5  1  0  0  0  0
 13  3  2  0  0  0  0
 13 23  1  0  0  0  0
 14  8  1  6  0  0  0
 14  1  1  0  0  0  0
 15  4  1  0  0  0  0
 17 20  1  0  0  0  0
 18 13  1  0  0  0  0
 19 12  1  0  0  0  0
 19 25  1  6  0  0  0
 20  7  1  0  0  0  0
 21 16  1  1  0  0  0
 21  3  1  0  0  0  0
 22  4  2  0  0  0  0
 23 15  2  0  0  0  0
 24 25  2  0  0  0  0
 25 27  1  0  0  0  0
 26 25  2  0  0  0  0
 28 32  1  0  0  0  0
 29 27  1  1  0  0  0
 29 33  1  0  0  0  0
 29 30  1  0  0  0  0
 30 31  2  0  0  0  0
 31 32  1  0  0  0  0
 33 28  1  0  0  0  0
M  END
>  <MODEL>
1

>  <REMARK>
 VINA RESULT:      -7.0      0.000      0.000
  Name = 
  3 active torsions:
  status: ('A' for Active; 'I' for Inactive)
    1  A    between atoms: C_3  and  C_31
    2  A    between atoms: S_7  and  C_27
    3  A    between atoms: S_7  and  C_31
                            x       y       z     vdW  Elec       q    Type
                         _______ _______ _______ _____ _____    ______ ____

>  <TORSDO>
F 3

$$$$
=
 OpenBabel10222419453D

 33 36  0  0  1  0  0  0  0  0999 V2000
  186.7640  176.9270  137.1710 C   0  0  0  0  0  2  0  0  0  0  0  0
  185.3420  177.4950  134.5950 O   0  0  0  0  0  0  0  0  0  0  0  0
  180.7630  178.9450  137.2710 C   0  0  0  0  0  0  0  0  0  0  0  0
  182.6700  179.6450  138.6140 C   0  0  0  0  0  0  0  0  0  0  0  0
  186.3460  178.6130  139.0260 C   0  0  0  0  0  2  0  0  0  0  0  0
  185.4240  174.7760  135.4410 N   0  0  0  0  0  1  0  0  0  0  0  0
  184.4140  176.9810  135.2060 C   0  0  0  0  0  0  0  0  0  0  0  0
  184.4850  177.0060  138.3690 C   0  0  0  0  0  2  0  0  0  0  0  0
  184.6800  175.8200  136.1330 C   0  0  2  0  0  3  0  0  0  0  0  0
  187.2910  177.5370  138.4670 C   0  0  0  0  0  2  0  0  0  0  0  0
  180.8460  177.3540  135.3280 C   0  0  0  0  0  2  0  0  0  0  0  0
  184.9070  178.4770  138.5160 C   0  0  1  0  0  3  0  0  0  0  0  0
  180.2480  180.2500  137.3280 C   0  0  0  0  0  0  0  0  0  0  0  0
  185.4120  176.2270  137.4240 C   0  0  1  0  0  3  0  0  0  0  0  0
  182.1380  180.9410  138.6890 C   0  0  0  0  0  3  0  0  0  0  0  0
  179.7200  176.8070  137.3850 O   0  0  0  0  0  1  0  0  0  0  0  0
  182.0720  176.8020  135.7290 O   0  0  0  0  0  0  0  0  0  0  0  0
  179.0560  180.5700  136.6870 O   0  0  0  0  0  1  0  0  0  0  0  0
  183.9320  179.3160  139.3560 C   0  0  2  0  0  3  0  0  0  0  0  0
  183.0330  177.5330  135.0100 C   0  0  0  0  0  2  0  0  0  0  0  0
  180.0420  177.8610  136.5270 C   0  0  1  0  0  3  0  0  0  0  0  0
  181.9620  178.6540  137.9260 C   0  0  0  0  0  3  0  0  0  0  0  0
  180.9330  181.2410  138.0430 C   0  0  0  0  0  3  0  0  0  0  0  0
  183.5790  177.1540  140.9880 O   0  0  0  0  0  0  0  0  0  0  0  0
  183.5860  178.6560  140.9980 S   0  0  0  0  0  0  0  0  0  0  0  0
  182.2460  179.1380  141.4830 O   0  0  0  0  0  0  0  0  0  0  0  0
  184.8350  179.2200  142.1400 C   0  0  0  0  0  2  0  0  0  0  0  0
  186.7660  177.1700  144.7460 C   0  0  0  0  0  2  0  0  0  0  0  0
  185.0310  178.2490  143.2970 C   0  0  2  0  0  3  0  0  0  0  0  0
  184.4500  178.8170  144.5730 C   0  0  0  0  0  3  0  0  0  0  0  0
  185.0560  178.7070  145.7690 C   0  0  0  0  0  3  0  0  0  0  0  0
  186.4170  178.0770  145.9270 C   0  0  0  0  0  2  0  0  0  0  0  0
  186.5210  177.9210  143.4420 C   0  0  0  0  0  2  0  0  0  0  0  0
  1 10  1  0  0  0  0
  2  7  2  0  0  0  0
  3 13  2  0  0  0  0
  3 22  1  0  0  0  0
  4 15  1  0  0  0  0
  4 19  1  0  0  0  0
  7  9  1  0  0  0  0
  9  6  1  6  0  0  0
  9 14  1  0  0  0  0
 10  5  1  0  0  0  0
 11 17  1  0  0  0  0
 11 21  1  0  0  0  0
 12  8  1  1  0  0  0
 12  5  1  0  0  0  0
 12 19  1  0  0  0  0
 13 23  1  0  0  0  0
 14  1  1  6  0  0  0
 14  8  1  0  0  0  0
 18 13  1  0  0  0  0
 19 25  1  1  0  0  0
 20  7  1  0  0  0  0
 20 17  1  0  0  0  0
 21  3  1  0  0  0  0
 21 16  1  1  0  0  0
 22  4  2  0  0  0  0
 23 15  2  0  0  0  0
 24 25  2  0  0  0  0
 25 26  2  0  0  0  0
 25 27  1  0  0  0  0
 28 32  1  0  0  0  0
 29 27  1  6  0  0  0
 29 33  1  0  0  0  0
 29 30  1  0  0  0  0
 30 31  2  0  0  0  0
 31 32  1  0  0  0  0
 33 28  1  0  0  0  0
M  END
>  <MODEL>
2

>  <REMARK>
 VINA RESULT:      -6.9      3.824      6.928
  Name = 
  3 active torsions:
  status: ('A' for Active; 'I' for Inactive)
    1  A    between atoms: C_3  and  C_31
    2  A    between atoms: S_7  and  C_27
    3  A    between atoms: S_7  and  C_31
                            x       y       z     vdW  Elec       q    Type
                         _______ _______ _______ _____ _____    ______ ____

>  <TORSDO>
F 3

$$$$
=
 OpenBabel10222419453D

 33 36  0  0  1  0  0  0  0  0999 V2000
  193.6240  175.1380  137.2080 C   0  0  0  0  0  2  0  0  0  0  0  0
  192.1800  174.8860  134.5940 O   0  0  0  0  0  0  0  0  0  0  0  0
  187.4010  176.2730  136.9320 C   0  0  0  0  0  0  0  0  0  0  0  0
  189.1700  177.5250  138.0420 C   0  0  0  0  0  0  0  0  0  0  0  0
  192.9460  177.1370  138.6240 C   0  0  0  0  0  2  0  0  0  0  0  0
  192.6240  172.4780  136.0510 N   0  0  0  0  0  1  0  0  0  0  0  0
  191.3230  174.4060  135.3240 C   0  0  0  0  0  0  0  0  0  0  0  0
  191.3370  175.1790  138.3920 C   0  0  0  0  0  2  0  0  0  0  0  0
  191.7310  173.5420  136.4920 C   0  0  2  0  0  3  0  0  0  0  0  0
  194.0400  176.1010  138.3170 C   0  0  0  0  0  2  0  0  0  0  0  0
  187.7350  174.2990  135.4140 C   0  0  0  0  0  2  0  0  0  0  0  0
  191.5480  176.6870  138.1830 C   0  0  1  0  0  3  0  0  0  0  0  0
  186.7090  177.4720  136.6900 C   0  0  0  0  0  0  0  0  0  0  0  0
  192.3780  174.3370  137.6400 C   0  0  1  0  0  3  0  0  0  0  0  0
  188.4630  178.7160  137.8210 C   0  0  0  0  0  3  0  0  0  0  0  0
  186.6620  174.0980  137.5600 O   0  0  0  0  0  1  0  0  0  0  0  0
  189.0190  174.0310  135.9120 O   0  0  0  0  0  0  0  0  0  0  0  0
  185.4960  177.4650  136.0120 O   0  0  0  0  0  1  0  0  0  0  0  0
  190.4530  177.5570  138.8200 C   0  0  2  0  0  3  0  0  0  0  0  0
  189.8810  174.7000  135.0270 C   0  0  0  0  0  2  0  0  0  0  0  0
  186.8490  174.9570  136.4740 C   0  0  1  0  0  3  0  0  0  0  0  0
  188.6180  176.3120  137.6170 C   0  0  0  0  0  3  0  0  0  0  0  0
  187.2390  178.6870  137.1420 C   0  0  0  0  0  3  0  0  0  0  0  0
  191.3880  177.6160  141.3860 O   0  0  0  0  0  0  0  0  0  0  0  0
  190.1750  177.2570  140.5760 S   0  0  0  0  0  0  0  0  0  0  0  0
  189.8530  175.8070  140.8130 O   0  0  0  0  0  0  0  0  0  0  0  0
  188.7950  178.2410  141.1350 C   0  0  0  0  0  2  0  0  0  0  0  0
  187.7150  177.1800  144.6610 C   0  0  0  0  0  2  0  0  0  0  0  0
  187.9710  177.5180  142.1920 C   0  0  2  0  0  3  0  0  0  0  0  0
  186.5510  178.0410  142.2090 C   0  0  0  0  0  3  0  0  0  0  0  0
  185.8620  178.2590  143.3430 C   0  0  0  0  0  3  0  0  0  0  0  0
  186.4800  178.0810  144.7080 C   0  0  0  0  0  2  0  0  0  0  0  0
  188.6510  177.6620  143.5580 C   0  0  0  0  0  2  0  0  0  0  0  0
  1 10  1  0  0  0  0
  2  7  2  0  0  0  0
  3 22  1  0  0  0  0
  4 19  1  0  0  0  0
  7  9  1  0  0  0  0
  9  6  1  6  0  0  0
  9 14  1  0  0  0  0
 10  5  1  0  0  0  0
 11 17  1  0  0  0  0
 11 21  1  0  0  0  0
 12  8  1  1  0  0  0
 12  5  1  0  0  0  0
 12 19  1  0  0  0  0
 13  3  2  0  0  0  0
 13 23  1  0  0  0  0
 14  1  1  6  0  0  0
 14  8  1  0  0  0  0
 15  4  1  0  0  0  0
 18 13  1  0  0  0  0
 19 25  1  1  0  0  0
 20  7  1  0  0  0  0
 20 17  1  0  0  0  0
 21  3  1  0  0  0  0
 21 16  1  1  0  0  0
 22  4  2  0  0  0  0
 23 15  2  0  0  0  0
 25 26  2  0  0  0  0
 25 27  1  0  0  0  0
 25 24  2  0  0  0  0
 28 32  1  0  0  0  0
 29 27  1  6  0  0  0
 29 30  1  0  0  0  0
 29 33  1  0  0  0  0
 30 31  2  0  0  0  0
 31 32  1  0  0  0  0
 33 28  1  0  0  0  0
M  END
>  <MODEL>
3

>  <REMARK>
 VINA RESULT:      -6.8      3.274      6.290
  Name = 
  3 active torsions:
  status: ('A' for Active; 'I' for Inactive)
    1  A    between atoms: C_3  and  C_31
    2  A    between atoms: S_7  and  C_27
    3  A    between atoms: S_7  and  C_31
                            x       y       z     vdW  Elec       q    Type
                         _______ _______ _______ _____ _____    ______ ____

>  <TORSDO>
F 3

$$$$
=
 OpenBabel10222419453D

 33 36  0  0  1  0  0  0  0  0999 V2000
  181.6250  179.0060  143.2960 C   0  0  0  0  0  2  0  0  0  0  0  0
  179.2620  177.3760  142.4360 O   0  0  0  0  0  0  0  0  0  0  0  0
  181.2960  176.8360  137.3570 C   0  0  0  0  0  0  0  0  0  0  0  0
  183.1660  176.8440  138.9160 C   0  0  0  0  0  0  0  0  0  0  0  0
  183.8720  178.1750  142.4480 C   0  0  0  0  0  2  0  0  0  0  0  0
  178.9430  180.2070  142.4120 N   0  0  0  0  0  1  0  0  0  0  0  0
  179.4120  178.0340  141.4150 C   0  0  0  0  0  0  0  0  0  0  0  0
  182.2600  179.2730  140.8140 C   0  0  0  0  0  2  0  0  0  0  0  0
  179.8280  179.4810  141.5100 C   0  0  2  0  0  3  0  0  0  0  0  0
  183.1350  178.9950  143.5200 C   0  0  0  0  0  2  0  0  0  0  0  0
  178.9400  177.5260  137.8920 C   0  0  0  0  0  2  0  0  0  0  0  0
  183.0670  178.0100  141.1550 C   0  0  1  0  0  3  0  0  0  0  0  0
  181.7650  175.6320  136.8060 C   0  0  0  0  0  0  0  0  0  0  0  0
  181.2940  179.6660  141.9400 C   0  0  1  0  0  3  0  0  0  0  0  0
  183.6440  175.6550  138.3450 C   0  0  0  0  0  3  0  0  0  0  0  0
  180.3260  178.7760  136.3730 O   0  0  0  0  0  1  0  0  0  0  0  0
  179.3270  178.2640  139.0200 O   0  0  0  0  0  0  0  0  0  0  0  0
  181.0780  175.0130  135.7680 O   0  0  0  0  0  1  0  0  0  0  0  0
  183.9550  177.5170  140.0010 C   0  0  2  0  0  3  0  0  0  0  0  0
  179.1750  177.3670  140.0910 C   0  0  0  0  0  2  0  0  0  0  0  0
  180.0490  177.4890  136.8390 C   0  0  1  0  0  3  0  0  0  0  0  0
  182.0090  177.4360  138.3980 C   0  0  0  0  0  3  0  0  0  0  0  0
  182.9410  175.0510  137.2970 C   0  0  0  0  0  3  0  0  0  0  0  0
  186.2540  178.9710  140.2530 O   0  0  0  0  0  0  0  0  0  0  0  0
  185.0850  178.7530  139.3340 S   0  0  0  0  0  0  0  0  0  0  0  0
  184.3720  180.0650  139.1480 O   0  0  0  0  0  0  0  0  0  0  0  0
  185.6910  178.2090  137.7470 C   0  0  0  0  0  2  0  0  0  0  0  0
  188.5610  175.7630  137.0410 C   0  0  0  0  0  2  0  0  0  0  0  0
  187.0970  177.6310  137.8410 C   0  0  2  0  0  3  0  0  0  0  0  0
  188.1020  178.5670  137.2050 C   0  0  0  0  0  3  0  0  0  0  0  0
  189.1220  178.1410  136.4400 C   0  0  0  0  0  3  0  0  0  0  0  0
  189.3030  176.6890  136.0760 C   0  0  0  0  0  2  0  0  0  0  0  0
  187.1220  176.2410  137.1950 C   0  0  0  0  0  2  0  0  0  0  0  0
  1 10  1  0  0  0  0
  3 22  1  0  0  0  0
  4 19  1  0  0  0  0
  5 10  1  0  0  0  0
  7  9  1  0  0  0  0
  7  2  2  0  0  0  0
  9 14  1  0  0  0  0
  9  6  1  1  0  0  0
 11 17  1  0  0  0  0
 12  8  1  6  0  0  0
 12  5  1  0  0  0  0
 13 23  1  0  0  0  0
 13  3  2  0  0  0  0
 14  8  1  6  0  0  0
 14  1  1  0  0  0  0
 15  4  1  0  0  0  0
 17 20  1  0  0  0  0
 18 13  1  0  0  0  0
 19 25  1  6  0  0  0
 19 12  1  0  0  0  0
 20  7  1  0  0  0  0
 21 16  1  1  0  0  0
 21  3  1  0  0  0  0
 21 11  1  0  0  0  0
 22  4  2  0  0  0  0
 23 15  2  0  0  0  0
 25 24  2  0  0  0  0
 26 25  2  0  0  0  0
 27 25  1  0  0  0  0
 28 33  1  0  0  0  0
 29 27  1  6  0  0  0
 30 29  1  0  0  0  0
 31 30  2  0  0  0  0
 32 31  1  0  0  0  0
 32 28  1  0  0  0  0
 33 29  1  0  0  0  0
M  END
>  <MODEL>
4

>  <REMARK>
 VINA RESULT:      -6.7      4.616      7.266
  Name = 
  3 active torsions:
  status: ('A' for Active; 'I' for Inactive)
    1  A    between atoms: C_3  and  C_31
    2  A    between atoms: S_7  and  C_27
    3  A    between atoms: S_7  and  C_31
                            x       y       z     vdW  Elec       q    Type
                         _______ _______ _______ _____ _____    ______ ____

>  <TORSDO>
F 3

$$$$
=
 OpenBabel10222419453D

 33 36  0  0  1  0  0  0  0  0999 V2000
  181.4050  178.9040  143.5930 C   0  0  0  0  0  2  0  0  0  0  0  0
  178.9880  177.6740  142.3190 O   0  0  0  0  0  0  0  0  0  0  0  0
  181.4000  177.6960  137.3780 C   0  0  0  0  0  0  0  0  0  0  0  0
  183.1200  177.2760  139.0500 C   0  0  0  0  0  0  0  0  0  0  0  0
  183.6330  177.9810  142.7900 C   0  0  0  0  0  2  0  0  0  0  0  0
  178.9310  180.4940  142.7190 N   0  0  0  0  0  1  0  0  0  0  0  0
  179.2850  178.4580  141.4270 C   0  0  0  0  0  0  0  0  0  0  0  0
  182.2760  179.4730  141.2370 C   0  0  0  0  0  2  0  0  0  0  0  0
  179.8220  179.8240  141.7790 C   0  0  2  0  0  3  0  0  0  0  0  0
  182.8820  178.7030  143.9210 C   0  0  0  0  0  2  0  0  0  0  0  0
  179.0790  178.5360  137.8440 C   0  0  0  0  0  2  0  0  0  0  0  0
  182.9320  178.0960  141.4310 C   0  0  1  0  0  3  0  0  0  0  0  0
  181.8050  176.5460  136.6790 C   0  0  0  0  0  0  0  0  0  0  0  0
  181.2550  179.7900  142.3390 C   0  0  1  0  0  3  0  0  0  0  0  0
  183.5360  176.1430  138.3340 C   0  0  0  0  0  3  0  0  0  0  0  0
  180.7010  179.8500  136.6450 O   0  0  0  0  0  1  0  0  0  0  0  0
  179.4310  179.0530  139.0990 O   0  0  0  0  0  0  0  0  0  0  0  0
  181.1570  176.1630  135.5100 O   0  0  0  0  0  1  0  0  0  0  0  0
  183.8690  177.6930  140.2810 C   0  0  2  0  0  3  0  0  0  0  0  0
  179.1060  178.0260  140.0020 C   0  0  0  0  0  2  0  0  0  0  0  0
  180.2680  178.5430  136.8810 C   0  0  1  0  0  3  0  0  0  0  0  0
  182.0720  178.0550  138.5490 C   0  0  0  0  0  3  0  0  0  0  0  0
  182.8750  175.7790  137.1560 C   0  0  0  0  0  3  0  0  0  0  0  0
  184.5760  180.1700  139.3730 O   0  0  0  0  0  0  0  0  0  0  0  0
  185.1610  178.8920  139.9020 S   0  0  0  0  0  0  0  0  0  0  0  0
  186.1030  178.3340  138.8700 O   0  0  0  0  0  0  0  0  0  0  0  0
  186.0920  179.2500  141.3810 C   0  0  0  0  0  2  0  0  0  0  0  0
  189.4990  177.5380  141.8090 C   0  0  0  0  0  2  0  0  0  0  0  0
  187.0670  178.1320  141.7260 C   0  0  2  0  0  3  0  0  0  0  0  0
  187.0400  177.8420  143.2110 C   0  0  0  0  0  3  0  0  0  0  0  0
  188.1470  177.5920  143.9310 C   0  0  0  0  0  3  0  0  0  0  0  0
  189.5300  177.6630  143.3330 C   0  0  0  0  0  2  0  0  0  0  0  0
  188.4710  178.5110  141.2430 C   0  0  0  0  0  2  0  0  0  0  0  0
  1 10  1  0  0  0  0
  3 22  1  0  0  0  0
  4 19  1  0  0  0  0
  5 10  1  0  0  0  0
  7  9  1  0  0  0  0
  7  2  2  0  0  0  0
  9 14  1  0  0  0  0
  9  6  1  1  0  0  0
 11 17  1  0  0  0  0
 12  8  1  6  0  0  0
 12  5  1  0  0  0  0
 13 23  1  0  0  0  0
 13  3  2  0  0  0  0
 14  8  1  6  0  0  0
 14  1  1  0  0  0  0
 15  4  1  0  0  0  0
 17 20  1  0  0  0  0
 18 13  1  0  0  0  0
 19 25  1  6  0  0  0
 19 12  1  0  0  0  0
 20  7  1  0  0  0  0
 21 16  1  1  0  0  0
 21  3  1  0  0  0  0
 21 11  1  0  0  0  0
 22  4  2  0  0  0  0
 23 15  2  0  0  0  0
 24 25  2  0  0  0  0
 25 27  1  0  0  0  0
 26 25  2  0  0  0  0
 28 32  1  0  0  0  0
 29 27  1  1  0  0  0
 29 30  1  0  0  0  0
 30 31  2  0  0  0  0
 32 31  1  0  0  0  0
 33 29  1  0  0  0  0
 33 28  1  0  0  0  0
M  END
>  <MODEL>
5

>  <REMARK>
 VINA RESULT:      -6.6      3.654      6.083
  Name = 
  3 active torsions:
  status: ('A' for Active; 'I' for Inactive)
    1  A    between atoms: C_3  and  C_31
    2  A    between atoms: S_7  and  C_27
    3  A    between atoms: S_7  and  C_31
                            x       y       z     vdW  Elec       q    Type
                         _______ _______ _______ _____ _____    ______ ____

>  <TORSDO>
F 3

$$$$
=
 OpenBabel10222419453D

 33 36  0  0  1  0  0  0  0  0999 V2000
  183.1390  174.6830  136.6330 C   0  0  0  0  0  2  0  0  0  0  0  0
  185.8650  173.5980  137.2440 O   0  0  0  0  0  0  0  0  0  0  0  0
  187.4270  178.3750  139.4740 C   0  0  0  0  0  0  0  0  0  0  0  0
  185.0670  178.0490  139.9770 C   0  0  0  0  0  0  0  0  0  0  0  0
  182.1140  176.1150  138.4650 C   0  0  0  0  0  2  0  0  0  0  0  0
  185.4290  174.5480  134.5940 N   0  0  0  0  0  1  0  0  0  0  0  0
  186.1900  174.7280  136.9020 C   0  0  0  0  0  0  0  0  0  0  0  0
  184.0480  177.0480  137.1000 C   0  0  0  0  0  2  0  0  0  0  0  0
  185.4580  175.4080  135.7710 C   0  0  2  0  0  3  0  0  0  0  0  0
  181.8480  175.2290  137.2370 C   0  0  0  0  0  2  0  0  0  0  0  0
  188.7550  177.0830  137.7780 C   0  0  0  0  0  2  0  0  0  0  0  0
  183.5370  176.6840  138.5030 C   0  0  1  0  0  3  0  0  0  0  0  0
  187.6860  178.5740  140.8410 C   0  0  0  0  0  0  0  0  0  0  0  0
  184.0310  175.8450  136.1450 C   0  0  1  0  0  3  0  0  0  0  0  0
  185.3280  178.2740  141.3370 C   0  0  0  0  0  3  0  0  0  0  0  0
  188.2760  179.4270  137.5150 O   0  0  0  0  0  1  0  0  0  0  0  0
  187.6110  176.6620  137.0840 O   0  0  0  0  0  0  0  0  0  0  0  0
  188.9790  178.8240  141.2870 O   0  0  0  0  0  1  0  0  0  0  0  0
  183.6550  177.8320  139.5180 C   0  0  2  0  0  3  0  0  0  0  0  0
  187.3160  175.4020  137.6300 C   0  0  0  0  0  2  0  0  0  0  0  0
  188.5310  178.4330  138.4620 C   0  0  1  0  0  3  0  0  0  0  0  0
  186.1170  178.1280  139.0570 C   0  0  0  0  0  3  0  0  0  0  0  0
  186.6350  178.5300  141.7650 C   0  0  0  0  0  3  0  0  0  0  0  0
  182.3260  179.2710  137.6140 O   0  0  0  0  0  0  0  0  0  0  0  0
  182.8740  179.3750  139.0090 S   0  0  0  0  0  0  0  0  0  0  0  0
  183.8700  180.5010  139.0500 O   0  0  0  0  0  0  0  0  0  0  0  0
  181.5390  179.7620  140.1270 C   0  0  0  0  0  2  0  0  0  0  0  0
  181.7850  178.5880  143.7720 C   0  0  0  0  0  2  0  0  0  0  0  0
  181.4710  178.7860  141.2950 C   0  0  2  0  0  3  0  0  0  0  0  0
  180.0450  178.3390  141.5320 C   0  0  0  0  0  3  0  0  0  0  0  0
  179.5150  178.1950  142.7590 C   0  0  0  0  0  3  0  0  0  0  0  0
  180.2740  178.5530  144.0120 C   0  0  0  0  0  2  0  0  0  0  0  0
  182.0820  179.4370  142.5410 C   0  0  0  0  0  2  0  0  0  0  0  0
  1 10  1  0  0  0  0
  3 13  1  0  0  0  0
  4 15  2  0  0  0  0
  5 12  1  0  0  0  0
  7  2  2  0  0  0  0
  7 20  1  0  0  0  0
  9  6  1  6  0  0  0
  9 14  1  0  0  0  0
  9  7  1  0  0  0  0
 10  5  1  0  0  0  0
 11 21  1  0  0  0  0
 12  8  1  6  0  0  0
 12 19  1  0  0  0  0
 13 18  1  0  0  0  0
 13 23  2  0  0  0  0
 14  1  1  1  0  0  0
 14  8  1  0  0  0  0
 15 23  1  0  0  0  0
 17 20  1  0  0  0  0
 17 11  1  0  0  0  0
 19 25  1  6  0  0  0
 19  4  1  0  0  0  0
 21 16  1  6  0  0  0
 21  3  1  0  0  0  0
 22  3  2  0  0  0  0
 22  4  1  0  0  0  0
 24 25  2  0  0  0  0
 25 26  2  0  0  0  0
 25 27  1  0  0  0  0
 28 32  1  0  0  0  0
 29 27  1  6  0  0  0
 29 30  1  0  0  0  0
 29 33  1  0  0  0  0
 30 31  2  0  0  0  0
 31 32  1  0  0  0  0
 33 28  1  0  0  0  0
M  END
>  <MODEL>
6

>  <REMARK>
 VINA RESULT:      -6.3      3.762      6.837
  Name = 
  3 active torsions:
  status: ('A' for Active; 'I' for Inactive)
    1  A    between atoms: C_3  and  C_31
    2  A    between atoms: S_7  and  C_27
    3  A    between atoms: S_7  and  C_31
                            x       y       z     vdW  Elec       q    Type
                         _______ _______ _______ _____ _____    ______ ____

>  <TORSDO>
F 3

$$$$
=
 OpenBabel10222419453D

 33 36  0  0  1  0  0  0  0  0999 V2000
  185.3130  177.2370  136.0590 C   0  0  0  0  0  2  0  0  0  0  0  0
  187.1600  179.5170  136.6660 O   0  0  0  0  0  0  0  0  0  0  0  0
  191.3800  176.0830  137.4540 C   0  0  0  0  0  0  0  0  0  0  0  0
  189.9790  175.1560  135.6920 C   0  0  0  0  0  0  0  0  0  0  0  0
  186.3050  175.4060  134.6010 C   0  0  0  0  0  2  0  0  0  0  0  0
  185.5210  178.5920  138.8050 N   0  0  0  0  0  1  0  0  0  0  0  0
  187.5740  178.7210  137.4980 C   0  0  0  0  0  0  0  0  0  0  0  0
  187.0890  175.6320  137.0120 C   0  0  0  0  0  2  0  0  0  0  0  0
  186.6030  177.8140  138.2150 C   0  0  2  0  0  3  0  0  0  0  0  0
  185.0200  176.0900  135.0950 C   0  0  0  0  0  2  0  0  0  0  0  0
  190.7310  177.9390  139.0180 C   0  0  0  0  0  2  0  0  0  0  0  0
  187.5030  175.6290  135.5320 C   0  0  1  0  0  3  0  0  0  0  0  0
  192.5000  175.9830  136.6110 C   0  0  0  0  0  0  0  0  0  0  0  0
  186.0310  176.7030  137.3170 C   0  0  1  0  0  3  0  0  0  0  0  0
  191.1040  175.0340  134.8640 C   0  0  0  0  0  3  0  0  0  0  0  0
  191.0920  175.6850  139.7840 O   0  0  0  0  0  1  0  0  0  0  0  0
  189.3590  177.7560  138.7940 O   0  0  0  0  0  0  0  0  0  0  0  0
  193.7530  176.3980  137.0460 O   0  0  0  0  0  1  0  0  0  0  0  0
  188.6480  174.6540  135.2150 C   0  0  2  0  0  3  0  0  0  0  0  0
  189.0480  178.6730  137.7750 C   0  0  0  0  0  2  0  0  0  0  0  0
  191.5070  176.6310  138.8440 C   0  0  1  0  0  3  0  0  0  0  0  0
  190.1340  175.6550  136.9890 C   0  0  0  0  0  3  0  0  0  0  0  0
  192.3580  175.4520  135.3230 C   0  0  0  0  0  3  0  0  0  0  0  0
  188.2150  172.8510  137.2210 O   0  0  0  0  0  0  0  0  0  0  0  0
  188.3550  172.9510  135.7280 S   0  0  0  0  0  0  0  0  0  0  0  0
  189.4960  172.0710  135.2950 O   0  0  0  0  0  0  0  0  0  0  0  0
  186.8580  172.3490  134.9660 C   0  0  0  0  0  2  0  0  0  0  0  0
  183.7910  171.9110  137.2310 C   0  0  0  0  0  2  0  0  0  0  0  0
  185.9420  171.6620  135.9710 C   0  0  2  0  0  3  0  0  0  0  0  0
  185.3410  170.4090  135.3730 C   0  0  0  0  0  3  0  0  0  0  0  0
  184.0590  170.0480  135.5590 C   0  0  0  0  0  3  0  0  0  0  0  0
  183.0810  170.9130  136.3150 C   0  0  0  0  0  2  0  0  0  0  0  0
  184.8650  172.6480  136.4380 C   0  0  0  0  0  2  0  0  0  0  0  0
  2  7  2  0  0  0  0
  3 21  1  0  0  0  0
  4 22  2  0  0  0  0
  5 10  1  0  0  0  0
  7 20  1  0  0  0  0
  7  9  1  0  0  0  0
  8 14  1  0  0  0  0
  9  6  1  6  0  0  0
 10  1  1  0  0  0  0
 12  5  1  6  0  0  0
 12  8  1  0  0  0  0
 13 18  1  0  0  0  0
 13  3  2  0  0  0  0
 14  1  1  6  0  0  0
 14  9  1  0  0  0  0
 15 23  2  0  0  0  0
 15  4  1  0  0  0  0
 17 11  1  0  0  0  0
 19 12  1  0  0  0  0
 19  4  1  0  0  0  0
 19 25  1  1  0  0  0
 20 17  1  0  0  0  0
 21 11  1  0  0  0  0
 21 16  1  1  0  0  0
 22  3  1  0  0  0  0
 23 13  1  0  0  0  0
 25 24  2  0  0  0  0
 26 25  2  0  0  0  0
 27 25  1  0  0  0  0
 29 27  1  6  0  0  0
 29 33  1  0  0  0  0
 30 31  2  0  0  0  0
 30 29  1  0  0  0  0
 31 32  1  0  0  0  0
 32 28  1  0  0  0  0
 33 28  1  0  0  0  0
M  END
>  <MODEL>
7

>  <REMARK>
 VINA RESULT:      -6.3      4.562      7.850
  Name = 
  3 active torsions:
  status: ('A' for Active; 'I' for Inactive)
    1  A    between atoms: C_3  and  C_31
    2  A    between atoms: S_7  and  C_27
    3  A    between atoms: S_7  and  C_31
                            x       y       z     vdW  Elec       q    Type
                         _______ _______ _______ _____ _____    ______ ____

>  <TORSDO>
F 3

$$$$
=
 OpenBabel10222419453D

 33 36  0  0  1  0  0  0  0  0999 V2000
  189.7740  177.7020  137.0310 C   0  0  0  0  0  2  0  0  0  0  0  0
  189.6450  175.4390  135.0720 O   0  0  0  0  0  0  0  0  0  0  0  0
  184.3810  174.4630  136.3220 C   0  0  0  0  0  0  0  0  0  0  0  0
  184.7530  176.8650  136.4680 C   0  0  0  0  0  0  0  0  0  0  0  0
  187.7320  179.2140  137.0660 C   0  0  0  0  0  2  0  0  0  0  0  0
  190.7520  174.8560  137.6310 N   0  0  0  0  0  1  0  0  0  0  0  0
  188.9730  174.9440  135.9670 C   0  0  0  0  0  0  0  0  0  0  0  0
  187.5560  176.8690  138.0390 C   0  0  0  0  0  2  0  0  0  0  0  0
  189.3500  175.1880  137.4080 C   0  0  2  0  0  3  0  0  0  0  0  0
  189.2320  179.0860  137.3770 C   0  0  0  0  0  2  0  0  0  0  0  0
  186.1740  172.7080  136.1980 C   0  0  0  0  0  2  0  0  0  0  0  0
  187.0120  177.8620  137.0000 C   0  0  1  0  0  3  0  0  0  0  0  0
  183.2970  174.6880  135.4570 C   0  0  0  0  0  0  0  0  0  0  0  0
  189.0630  176.6250  137.8770 C   0  0  1  0  0  3  0  0  0  0  0  0
  183.6550  177.0850  135.6240 C   0  0  0  0  0  3  0  0  0  0  0  0
  184.7130  172.9160  138.1010 O   0  0  0  0  0  1  0  0  0  0  0  0
  187.1560  173.5590  136.7250 O   0  0  0  0  0  0  0  0  0  0  0  0
  182.5720  173.6210  134.9370 O   0  0  0  0  0  1  0  0  0  0  0  0
  185.4860  178.0370  137.0530 C   0  0  2  0  0  3  0  0  0  0  0  0
  187.7860  174.1050  135.5940 C   0  0  0  0  0  2  0  0  0  0  0  0
  184.7800  173.0730  136.7140 C   0  0  1  0  0  3  0  0  0  0  0  0
  185.0890  175.5560  136.8290 C   0  0  0  0  0  3  0  0  0  0  0  0
  182.9340  175.9970  135.1180 C   0  0  0  0  0  3  0  0  0  0  0  0
  183.4830  177.8750  138.9030 O   0  0  0  0  0  0  0  0  0  0  0  0
  184.8330  178.4910  138.6710 S   0  0  0  0  0  0  0  0  0  0  0  0
  184.7030  179.9850  138.7810 O   0  0  0  0  0  0  0  0  0  0  0  0
  185.9510  177.9270  139.9420 C   0  0  0  0  0  2  0  0  0  0  0  0
  184.2900  178.8930  143.2640 C   0  0  0  0  0  2  0  0  0  0  0  0
  185.7620  178.6890  141.2480 C   0  0  2  0  0  3  0  0  0  0  0  0
  186.8860  178.3790  142.2130 C   0  0  0  0  0  3  0  0  0  0  0  0
  186.6920  178.1880  143.5290 C   0  0  0  0  0  3  0  0  0  0  0  0
  185.3160  178.1810  144.1470 C   0  0  0  0  0  2  0  0  0  0  0  0
  184.3890  178.3550  141.8410 C   0  0  0  0  0  2  0  0  0  0  0  0
  1 10  1  0  0  0  0
  2  7  2  0  0  0  0
  3 21  1  0  0  0  0
  3 22  1  0  0  0  0
  4 22  2  0  0  0  0
  4 19  1  0  0  0  0
  5 10  1  0  0  0  0
  7  9  1  0  0  0  0
  9  6  1  6  0  0  0
  9 14  1  0  0  0  0
 11 21  1  0  0  0  0
 11 17  1  0  0  0  0
 12 19  1  0  0  0  0
 12  5  1  1  0  0  0
 12  8  1  0  0  0  0
 13  3  2  0  0  0  0
 14  1  1  6  0  0  0
 14  8  1  0  0  0  0
 15  4  1  0  0  0  0
 18 13  1  0  0  0  0
 19 25  1  1  0  0  0
 20  7  1  0  0  0  0
 20 17  1  0  0  0  0
 21 16  1  1  0  0  0
 23 13  1  0  0  0  0
 23 15  2  0  0  0  0
 25 26  2  0  0  0  0
 25 24  2  0  0  0  0
 25 27  1  0  0  0  0
 28 32  1  0  0  0  0
 29 27  1  6  0  0  0
 29 33  1  0  0  0  0
 29 30  1  0  0  0  0
 30 31  2  0  0  0  0
 31 32  1  0  0  0  0
 33 28  1  0  0  0  0
M  END
>  <MODEL>
8

>  <REMARK>
 VINA RESULT:      -6.2      3.736      6.796
  Name = 
  3 active torsions:
  status: ('A' for Active; 'I' for Inactive)
    1  A    between atoms: C_3  and  C_31
    2  A    between atoms: S_7  and  C_27
    3  A    between atoms: S_7  and  C_31
                            x       y       z     vdW  Elec       q    Type
                         _______ _______ _______ _____ _____    ______ ____

>  <TORSDO>
F 3

$$$$
=
 OpenBabel10222419453D

 33 36  0  0  1  0  0  0  0  0999 V2000
  182.5600  179.0910  139.1170 C   0  0  0  0  0  2  0  0  0  0  0  0
  180.7650  176.9650  140.2270 O   0  0  0  0  0  0  0  0  0  0  0  0
  182.6440  173.2810  136.6040 C   0  0  0  0  0  0  0  0  0  0  0  0
  184.4900  174.7500  137.2050 C   0  0  0  0  0  0  0  0  0  0  0  0
  184.9140  178.3230  138.5460 C   0  0  0  0  0  2  0  0  0  0  0  0
  179.6040  178.7720  138.3550 N   0  0  0  0  0  1  0  0  0  0  0  0
  180.6640  176.6870  139.0390 C   0  0  0  0  0  0  0  0  0  0  0  0
  182.9760  177.5800  137.0730 C   0  0  0  0  0  2  0  0  0  0  0  0
  180.6280  177.7920  138.0120 C   0  0  2  0  0  3  0  0  0  0  0  0
  184.0110  179.5150  138.9040 C   0  0  0  0  0  2  0  0  0  0  0  0
  180.2150  173.7090  137.0850 C   0  0  0  0  0  2  0  0  0  0  0  0
  184.1410  177.1320  137.9700 C   0  0  1  0  0  3  0  0  0  0  0  0
  183.4300  172.1640  136.9320 C   0  0  0  0  0  0  0  0  0  0  0  0
  181.9860  178.4880  137.8170 C   0  0  1  0  0  3  0  0  0  0  0  0
  185.2800  173.6300  137.5070 C   0  0  0  0  0  3  0  0  0  0  0  0
  181.0920  173.6830  134.8430 O   0  0  0  0  0  1  0  0  0  0  0  0
  180.4100  175.0870  137.2590 O   0  0  0  0  0  0  0  0  0  0  0  0
  182.9180  170.8770  136.8130 O   0  0  0  0  0  1  0  0  0  0  0  0
  185.0860  176.1240  137.2950 C   0  0  2  0  0  3  0  0  0  0  0  0
  180.5830  175.2410  138.6440 C   0  0  0  0  0  2  0  0  0  0  0  0
  181.2370  173.1170  136.1110 C   0  0  1  0  0  3  0  0  0  0  0  0
  183.1880  174.5610  136.7320 C   0  0  0  0  0  3  0  0  0  0  0  0
  184.7470  172.3430  137.3750 C   0  0  0  0  0  3  0  0  0  0  0  0
  184.8510  177.6550  135.0450 O   0  0  0  0  0  0  0  0  0  0  0  0
  185.7600  176.6630  135.7120 S   0  0  0  0  0  0  0  0  0  0  0  0
  185.9390  175.4850  134.7930 O   0  0  0  0  0  0  0  0  0  0  0  0
  187.3530  177.4220  135.9720 C   0  0  0  0  0  2  0  0  0  0  0  0
  190.1540  175.6070  137.8640 C   0  0  0  0  0  2  0  0  0  0  0  0
  188.0800  176.8270  137.1710 C   0  0  2  0  0  3  0  0  0  0  0  0
  188.5130  177.9190  138.1260 C   0  0  0  0  0  3  0  0  0  0  0  0
  189.7060  177.9210  138.7460 C   0  0  0  0  0  3  0  0  0  0  0  0
  190.7570  176.8730  138.4750 C   0  0  0  0  0  2  0  0  0  0  0  0
  189.2660  175.9870  136.6850 C   0  0  0  0  0  2  0  0  0  0  0  0
  3 22  2  0  0  0  0
  3 13  1  0  0  0  0
  4 19  1  0  0  0  0
  4 15  2  0  0  0  0
  5 10  1  0  0  0  0
  7  2  2  0  0  0  0
  9  6  1  1  0  0  0
  9  7  1  0  0  0  0
 10  1  1  0  0  0  0
 11 17  1  0  0  0  0
 12  8  1  6  0  0  0
 12  5  1  0  0  0  0
 13 23  2  0  0  0  0
 14  8  1  1  0  0  0
 14  9  1  0  0  0  0
 14  1  1  0  0  0  0
 17 20  1  0  0  0  0
 18 13  1  0  0  0  0
 19 25  1  6  0  0  0
 19 12  1  0  0  0  0
 20  7  1  0  0  0  0
 21 16  1  6  0  0  0
 21  3  1  0  0  0  0
 21 11  1  0  0  0  0
 22  4  1  0  0  0  0
 23 15  1  0  0  0  0
 24 25  2  0  0  0  0
 25 27  1  0  0  0  0
 26 25  2  0  0  0  0
 28 32  1  0  0  0  0
 29 27  1  6  0  0  0
 29 30  1  0  0  0  0
 30 31  2  0  0  0  0
 32 31  1  0  0  0  0
 33 29  1  0  0  0  0
 33 28  1  0  0  0  0
M  END
>  <MODEL>
9

>  <REMARK>
 VINA RESULT:      -6.2      5.129      7.378
  Name = 
  3 active torsions:
  status: ('A' for Active; 'I' for Inactive)
    1  A    between atoms: C_3  and  C_31
    2  A    between atoms: S_7  and  C_27
    3  A    between atoms: S_7  and  C_31
                            x       y       z     vdW  Elec       q    Type
                         _______ _______ _______ _____ _____    ______ ____

>  <TORSDO>
F 3

$$$$
