=
 OpenBabel10222421013D

 38 40  0  0  1  0  0  0  0  0999 V2000
  185.9190  177.9900  145.1890 C   0  0  0  0  0  0  0  0  0  0  0  0
  184.9400  177.9660  146.0340 N   0  0  0  0  0  2  0  0  0  0  0  0
  189.2170  177.7140  141.7740 C   0  0  1  0  0  3  0  0  0  0  0  0
  187.8480  176.6810  143.5110 O   0  0  0  0  0  0  0  0  0  0  0  0
  187.2960  177.7140  145.6430 C   0  0  0  0  0  0  0  0  0  0  0  0
  186.2030  178.8600  140.0290 C   0  0  0  0  0  2  0  0  0  0  0  0
  184.7820  177.9210  143.0460 N   0  0  0  0  0  0  0  0  0  0  0  0
  189.0080  177.9250  147.3400 C   0  0  0  0  0  0  0  0  0  0  0  0
  188.2490  177.1490  144.7740 C   0  0  0  0  0  0  0  0  0  0  0  0
  189.9230  177.4170  146.4690 N   0  0  0  0  0  0  0  0  0  0  0  0
  184.5360  178.2250  141.8060 C   0  0  0  0  0  0  0  0  0  0  0  0
  188.1950  178.6050  141.3640 O   0  0  0  0  0  0  0  0  0  0  0  0
  182.9980  177.7450  139.8150 C   0  0  0  0  0  0  0  0  0  0  0  0
  187.6830  178.0870  146.9360 C   0  0  0  0  0  3  0  0  0  0  0  0
  185.2760  179.3550  141.1360 C   0  0  0  0  0  2  0  0  0  0  0  0
  189.7810  175.5810  142.8020 O   0  0  0  0  0  1  0  0  0  0  0  0
  183.5790  177.4330  141.0890 N   0  0  0  0  0  2  0  0  0  0  0  0
  187.2790  177.9180  140.5490 C   0  0  0  0  0  2  0  0  0  0  0  0
  189.3940  178.3140  148.6580 N   0  0  0  0  0  2  0  0  0  0  0  0
  183.1700  178.8760  139.2870 O   0  0  0  0  0  0  0  0  0  0  0  0
  185.7210  178.6650  143.8730 C   0  0  0  0  0  2  0  0  0  0  0  0
  189.5750  177.0300  145.2140 C   0  0  0  0  0  3  0  0  0  0  0  0
  190.7600  178.1790  149.1360 C   0  0  0  0  0  1  0  0  0  0  0  0
  188.7200  176.4040  142.4140 C   0  0  2  0  0  3  0  0  0  0  0  0
  182.1780  176.5450  137.8160 C   0  0  0  0  0  3  0  0  0  0  0  0
  181.2580  175.8970  139.8010 N   0  0  0  0  0  0  0  0  0  0  0  0
  180.7000  175.1690  138.8940 C   0  0  0  0  0  0  0  0  0  0  0  0
  182.1690  176.7490  139.1260 C   0  0  2  0  0  3  0  0  0  0  0  0
  181.1990  175.4580  137.5200 C   0  0  0  0  0  3  0  0  0  0  0  0
  179.5090  173.9990  140.7100 C   0  0  0  0  0  1  0  0  0  0  0  0
  179.6920  174.1180  139.2080 C   0  0  0  0  0  2  0  0  0  0  0  0
  190.3480  177.5600  140.7470 C   0  0  0  0  0  2  0  0  0  0  0  0
  190.7940  175.8640  139.0800 N   0  0  0  0  0  0  0  0  0  0  0  0
  189.9710  176.7360  139.5590 C   0  0  0  0  0  3  0  0  0  0  0  0
  190.4350  175.1000  137.9650 N   0  0  0  0  0  2  0  0  0  0  0  0
  189.2070  175.3860  137.2430 C   0  0  0  0  0  2  0  0  0  0  0  0
  189.4110  177.2320  135.8200 C   0  0  0  0  0  1  0  0  0  0  0  0
  189.5140  175.7830  135.8790 N   0  0  0  0  0  2  0  0  0  0  0  0
  1  5  1  0  0  0  0
  1  2  2  0  0  0  0
  3 32  1  6  0  0  0
  3 24  1  0  0  0  0
  4  9  1  0  0  0  0
  5 14  2  0  0  0  0
  6 18  1  0  0  0  0
  6 15  1  0  0  0  0
  7 21  1  0  0  0  0
  8 19  1  0  0  0  0
  9 22  2  0  0  0  0
  9  5  1  0  0  0  0
 10  8  2  0  0  0  0
 11  7  2  0  0  0  0
 12  3  1  0  0  0  0
 13 17  1  0  0  0  0
 14  8  1  0  0  0  0
 15 11  1  0  0  0  0
 17 11  1  0  0  0  0
 18 12  1  0  0  0  0
 19 23  1  0  0  0  0
 20 13  2  0  0  0  0
 21  1  1  0  0  0  0
 22 10  1  0  0  0  0
 24 16  1  1  0  0  0
 24  4  1  0  0  0  0
 25 28  1  0  0  0  0
 27 31  1  0  0  0  0
 27 26  2  0  0  0  0
 28 26  1  0  0  0  0
 28 13  1  6  0  0  0
 29 25  2  0  0  0  0
 29 27  1  0  0  0  0
 31 30  1  0  0  0  0
 33 34  2  0  0  0  0
 34 32  1  0  0  0  0
 35 33  1  0  0  0  0
 36 35  1  0  0  0  0
 37 38  1  0  0  0  0
 38 36  1  0  0  0  0
M  END
>  <MODEL>
1

>  <REMARK>
 VINA RESULT:      -7.0      0.000      0.000
  Name = 
  7 active torsions:
  status: ('A' for Active; 'I' for Inactive)
    1  A    between atoms: C_5  and  C_10
    2  A    between atoms: C_6  and  C_19
    3  A    between atoms: C_10  and  C_32
    4  A    between atoms: N_12  and  N_14
    5  A    between atoms: N_12  and  C_31
    6  A    between atoms: C_13  and  C_24
    7  A    between atoms: C_31  and  N_37
                            x       y       z     vdW  Elec       q    Type
                         _______ _______ _______ _____ _____    ______ ____

>  <TORSDO>
F 7

$$$$
=
 OpenBabel10222421013D

 38 40  0  0  1  0  0  0  0  0999 V2000
  186.0350  177.6500  137.2160 C   0  0  0  0  0  0  0  0  0  0  0  0
  185.9650  177.7040  135.9270 N   0  0  0  0  0  2  0  0  0  0  0  0
  186.0480  177.9650  141.9620 C   0  0  1  0  0  3  0  0  0  0  0  0
  186.7240  178.7850  139.7640 O   0  0  0  0  0  0  0  0  0  0  0  0
  187.3240  177.3720  137.8780 C   0  0  0  0  0  0  0  0  0  0  0  0
  182.5150  178.3050  141.0440 C   0  0  0  0  0  2  0  0  0  0  0  0
  183.9460  178.6750  137.9110 N   0  0  0  0  0  0  0  0  0  0  0  0
  189.4320  176.1840  137.9070 C   0  0  0  0  0  0  0  0  0  0  0  0
  187.6050  177.8690  139.1650 C   0  0  0  0  0  0  0  0  0  0  0  0
  189.6640  176.6410  139.1680 N   0  0  0  0  0  0  0  0  0  0  0  0
  182.8610  178.8360  138.6070 C   0  0  0  0  0  0  0  0  0  0  0  0
  184.7600  177.5680  141.5240 O   0  0  0  0  0  0  0  0  0  0  0  0
  180.7850  180.3050  138.9080 C   0  0  0  0  0  0  0  0  0  0  0  0
  188.2560  176.5370  137.2470 C   0  0  0  0  0  3  0  0  0  0  0  0
  182.4340  177.7920  139.6080 C   0  0  0  0  0  2  0  0  0  0  0  0
  187.9560  179.4400  141.6350 O   0  0  0  0  0  1  0  0  0  0  0  0
  182.1110  180.0450  138.4270 N   0  0  0  0  0  2  0  0  0  0  0  0
  183.9290  178.6990  141.4420 C   0  0  0  0  0  2  0  0  0  0  0  0
  190.3730  175.3290  137.2580 N   0  0  0  0  0  2  0  0  0  0  0  0
  180.0860  179.3820  139.4050 O   0  0  0  0  0  0  0  0  0  0  0  0
  184.7770  177.4820  138.0020 C   0  0  0  0  0  2  0  0  0  0  0  0
  188.7880  177.4660  139.8000 C   0  0  0  0  0  3  0  0  0  0  0  0
  191.6130  174.9180  137.8950 C   0  0  0  0  0  1  0  0  0  0  0  0
  186.6850  179.1110  141.1550 C   0  0  2  0  0  3  0  0  0  0  0  0
  179.1990  182.0990  139.5190 C   0  0  0  0  0  3  0  0  0  0  0  0
  180.7090  182.6300  137.8920 N   0  0  0  0  0  0  0  0  0  0  0  0
  179.9770  183.6790  138.0570 C   0  0  0  0  0  0  0  0  0  0  0  0
  180.2180  181.6550  138.7980 C   0  0  0  0  0  0  0  0  0  0  0  0
  178.9320  183.5090  139.1060 C   0  0  0  0  0  2  0  0  0  0  0  0
  181.1240  184.6990  136.1260 C   0  0  0  0  0  1  0  0  0  0  0  0
  180.1950  184.9440  137.3010 C   0  0  0  0  0  2  0  0  0  0  0  0
  186.1700  178.0840  143.4880 C   0  0  0  0  0  2  0  0  0  0  0  0
  188.3640  177.6720  144.4220 N   0  0  0  0  0  0  0  0  0  0  0  0
  187.2160  177.1930  144.0770 C   0  0  0  0  0  3  0  0  0  0  0  0
  189.3390  176.8320  144.9670 N   0  0  0  0  0  2  0  0  0  0  0  0
  190.4230  177.3830  145.7620 C   0  0  0  0  0  2  0  0  0  0  0  0
  191.6640  176.3080  147.4290 C   0  0  0  0  0  1  0  0  0  0  0  0
  190.3580  176.8650  147.1190 N   0  0  0  0  0  2  0  0  0  0  0  0
  1  5  1  0  0  0  0
  1 21  1  0  0  0  0
  2  1  2  0  0  0  0
  3 32  1  1  0  0  0
  4 24  1  0  0  0  0
  5  9  1  0  0  0  0
  6 18  1  0  0  0  0
  7 21  1  0  0  0  0
  7 11  2  0  0  0  0
  8 10  2  0  0  0  0
  9  4  1  0  0  0  0
  9 22  2  0  0  0  0
 10 22  1  0  0  0  0
 11 15  1  0  0  0  0
 12  3  1  0  0  0  0
 13 20  2  0  0  0  0
 14  5  2  0  0  0  0
 14  8  1  0  0  0  0
 15  6  1  0  0  0  0
 17 11  1  0  0  0  0
 17 13  1  0  0  0  0
 18 12  1  0  0  0  0
 19 23  1  0  0  0  0
 19  8  1  0  0  0  0
 24 16  1  1  0  0  0
 24  3  1  0  0  0  0
 26 27  2  0  0  0  0
 26 28  1  0  0  0  0
 27 29  1  0  0  0  0
 28 13  1  0  0  0  0
 28 25  2  0  0  0  0
 29 25  1  0  0  0  0
 30 31  1  0  0  0  0
 31 27  1  0  0  0  0
 32 34  1  0  0  0  0
 33 35  1  0  0  0  0
 34 33  2  0  0  0  0
 35 36  1  0  0  0  0
 36 38  1  0  0  0  0
 38 37  1  0  0  0  0
M  END
>  <MODEL>
2

>  <REMARK>
 VINA RESULT:      -7.0      3.568      7.360
  Name = 
  7 active torsions:
  status: ('A' for Active; 'I' for Inactive)
    1  A    between atoms: C_5  and  C_10
    2  A    between atoms: C_6  and  C_19
    3  A    between atoms: C_10  and  C_32
    4  A    between atoms: N_12  and  N_14
    5  A    between atoms: N_12  and  C_31
    6  A    between atoms: C_13  and  C_24
    7  A    between atoms: C_31  and  N_37
                            x       y       z     vdW  Elec       q    Type
                         _______ _______ _______ _____ _____    ______ ____

>  <TORSDO>
F 7

$$$$
=
 OpenBabel10222421013D

 38 40  0  0  1  0  0  0  0  0999 V2000
  190.6500  176.5940  138.4760 C   0  0  0  0  0  0  0  0  0  0  0  0
  191.4430  177.1250  139.3490 N   0  0  0  0  0  2  0  0  0  0  0  0
  187.3530  174.6060  135.6850 C   0  0  1  0  0  3  0  0  0  0  0  0
  188.8210  174.5450  137.6340 O   0  0  0  0  0  0  0  0  0  0  0  0
  191.0890  175.4220  137.6940 C   0  0  0  0  0  0  0  0  0  0  0  0
  185.7550  177.6580  136.9370 C   0  0  0  0  0  2  0  0  0  0  0  0
  188.4950  177.5510  139.0540 N   0  0  0  0  0  0  0  0  0  0  0  0
  192.8500  174.2420  136.5280 C   0  0  0  0  0  0  0  0  0  0  0  0
  190.1610  174.4760  137.2180 C   0  0  0  0  0  0  0  0  0  0  0  0
  191.9310  173.3620  136.0440 N   0  0  0  0  0  0  0  0  0  0  0  0
  187.3270  178.0850  138.8580 C   0  0  0  0  0  0  0  0  0  0  0  0
  187.0840  175.9910  135.8110 O   0  0  0  0  0  0  0  0  0  0  0  0
  185.2320  178.9870  140.0230 C   0  0  0  0  0  0  0  0  0  0  0  0
  192.4410  175.2880  137.3540 C   0  0  0  0  0  3  0  0  0  0  0  0
  186.9040  178.5080  137.4730 C   0  0  0  0  0  2  0  0  0  0  0  0
  187.9830  172.5350  136.7970 O   0  0  0  0  0  1  0  0  0  0  0  0
  186.4440  178.2200  139.9800 N   0  0  0  0  0  2  0  0  0  0  0  0
  186.1250  176.1870  136.8200 C   0  0  0  0  0  2  0  0  0  0  0  0
  194.2300  174.1170  136.1830 N   0  0  0  0  0  2  0  0  0  0  0  0
  184.9310  179.7710  139.0840 O   0  0  0  0  0  0  0  0  0  0  0  0
  189.4770  177.3800  137.9920 C   0  0  0  0  0  2  0  0  0  0  0  0
  190.6150  173.4560  136.3690 C   0  0  0  0  0  3  0  0  0  0  0  0
  194.7190  173.0540  135.3200 C   0  0  0  0  0  1  0  0  0  0  0  0
  187.7200  173.8920  136.9990 C   0  0  2  0  0  3  0  0  0  0  0  0
  183.0370  178.6630  141.1120 C   0  0  0  0  0  3  0  0  0  0  0  0
  184.7960  179.0150  142.5240 N   0  0  0  0  0  0  0  0  0  0  0  0
  183.7560  178.8800  143.2740 C   0  0  0  0  0  0  0  0  0  0  0  0
  184.3430  178.8830  141.1860 C   0  0  0  0  0  0  0  0  0  0  0  0
  182.5040  178.6300  142.5060 C   0  0  0  0  0  2  0  0  0  0  0  0
  185.2660  179.0020  145.2210 C   0  0  0  0  0  1  0  0  0  0  0  0
  183.8220  178.9280  144.7620 C   0  0  0  0  0  2  0  0  0  0  0  0
  186.3520  173.8630  134.7870 C   0  0  0  0  0  2  0  0  0  0  0  0
  183.9540  173.9330  135.0960 N   0  0  0  0  0  0  0  0  0  0  0  0
  185.0940  173.4710  135.4900 C   0  0  0  0  0  3  0  0  0  0  0  0
  182.7810  173.5650  135.7620 N   0  0  0  0  0  2  0  0  0  0  0  0
  182.5910  173.9100  137.1600 C   0  0  0  0  0  2  0  0  0  0  0  0
  182.9210  175.6470  138.6930 C   0  0  0  0  0  1  0  0  0  0  0  0
  182.5590  175.3550  137.3160 N   0  0  0  0  0  2  0  0  0  0  0  0
  1  2  2  0  0  0  0
  3 32  1  1  0  0  0
  3 12  1  0  0  0  0
  3 24  1  0  0  0  0
  5  1  1  0  0  0  0
  6 15  1  0  0  0  0
  8 14  1  0  0  0  0
  9  4  1  0  0  0  0
  9  5  1  0  0  0  0
 10 22  1  0  0  0  0
 10  8  2  0  0  0  0
 11  7  2  0  0  0  0
 11 17  1  0  0  0  0
 12 18  1  0  0  0  0
 13 28  1  0  0  0  0
 14  5  2  0  0  0  0
 15 11  1  0  0  0  0
 17 13  1  0  0  0  0
 18  6  1  0  0  0  0
 19  8  1  0  0  0  0
 20 13  2  0  0  0  0
 21  1  1  0  0  0  0
 21  7  1  0  0  0  0
 22  9  2  0  0  0  0
 23 19  1  0  0  0  0
 24 16  1  6  0  0  0
 24  4  1  0  0  0  0
 25 28  2  0  0  0  0
 25 29  1  0  0  0  0
 26 27  2  0  0  0  0
 27 31  1  0  0  0  0
 28 26  1  0  0  0  0
 29 27  1  0  0  0  0
 31 30  1  0  0  0  0
 32 34  1  0  0  0  0
 33 34  2  0  0  0  0
 33 35  1  0  0  0  0
 35 36  1  0  0  0  0
 36 38  1  0  0  0  0
 38 37  1  0  0  0  0
M  END
>  <MODEL>
3

>  <REMARK>
 VINA RESULT:      -6.7      3.472      7.762
  Name = 
  7 active torsions:
  status: ('A' for Active; 'I' for Inactive)
    1  A    between atoms: C_5  and  C_10
    2  A    between atoms: C_6  and  C_19
    3  A    between atoms: C_10  and  C_32
    4  A    between atoms: N_12  and  N_14
    5  A    between atoms: N_12  and  C_31
    6  A    between atoms: C_13  and  C_24
    7  A    between atoms: C_31  and  N_37
                            x       y       z     vdW  Elec       q    Type
                         _______ _______ _______ _____ _____    ______ ____

>  <TORSDO>
F 7

$$$$
=
 OpenBabel10222421013D

 38 40  0  0  1  0  0  0  0  0999 V2000
  190.0230  177.1550  140.6480 C   0  0  0  0  0  0  0  0  0  0  0  0
  190.7810  177.2460  141.6910 N   0  0  0  0  0  2  0  0  0  0  0  0
  187.6780  177.0180  136.5130 C   0  0  1  0  0  3  0  0  0  0  0  0
  188.8700  178.2460  138.2530 O   0  0  0  0  0  0  0  0  0  0  0  0
  188.6950  177.7980  140.6380 C   0  0  0  0  0  0  0  0  0  0  0  0
  190.6070  174.8840  135.9610 C   0  0  0  0  0  2  0  0  0  0  0  0
  191.5600  176.3870  138.9330 N   0  0  0  0  0  0  0  0  0  0  0  0
  186.6700  178.4060  141.8160 C   0  0  0  0  0  0  0  0  0  0  0  0
  188.1120  178.2480  139.4370 C   0  0  0  0  0  0  0  0  0  0  0  0
  186.1100  178.7960  140.6370 N   0  0  0  0  0  0  0  0  0  0  0  0
  191.9750  175.6950  137.9130 C   0  0  0  0  0  0  0  0  0  0  0  0
  188.5090  175.8750  136.6150 O   0  0  0  0  0  0  0  0  0  0  0  0
  193.9610  175.2850  136.3500 C   0  0  0  0  0  0  0  0  0  0  0  0
  187.9680  177.8950  141.8310 C   0  0  0  0  0  3  0  0  0  0  0  0
  191.1320  174.5730  137.3600 C   0  0  0  0  0  2  0  0  0  0  0  0
  187.4600  179.4240  136.8140 O   0  0  0  0  0  1  0  0  0  0  0  0
  193.2250  176.0550  137.3100 N   0  0  0  0  0  2  0  0  0  0  0  0
  189.7150  176.1160  135.9340 C   0  0  0  0  0  2  0  0  0  0  0  0
  185.9360  178.4960  143.0360 N   0  0  0  0  0  2  0  0  0  0  0  0
  193.6270  174.1000  136.0810 O   0  0  0  0  0  0  0  0  0  0  0  0
  190.3150  176.1010  139.6320 C   0  0  0  0  0  2  0  0  0  0  0  0
  186.7960  178.7300  139.4660 C   0  0  0  0  0  3  0  0  0  0  0  0
  184.5780  179.0120  143.0860 C   0  0  0  0  0  1  0  0  0  0  0  0
  188.3400  178.3440  136.9300 C   0  0  2  0  0  3  0  0  0  0  0  0
  195.1710  177.0820  135.1630 C   0  0  0  0  0  3  0  0  0  0  0  0
  196.3660  175.1760  135.5460 N   0  0  0  0  0  0  0  0  0  0  0  0
  197.1600  175.9750  134.9170 C   0  0  0  0  0  0  0  0  0  0  0  0
  195.1350  175.8670  135.6910 C   0  0  2  0  0  3  0  0  0  0  0  0
  196.5360  177.2890  134.5940 C   0  0  0  0  0  3  0  0  0  0  0  0
  199.1190  174.6530  135.6230 C   0  0  0  0  0  1  0  0  0  0  0  0
  198.5710  175.6240  134.5940 C   0  0  0  0  0  2  0  0  0  0  0  0
  186.8580  177.0690  135.2150 C   0  0  0  0  0  2  0  0  0  0  0  0
  184.7160  176.9550  136.3330 N   0  0  0  0  0  0  0  0  0  0  0  0
  185.4660  176.5480  135.3650 C   0  0  0  0  0  3  0  0  0  0  0  0
  183.4160  176.4590  136.4700 N   0  0  0  0  0  2  0  0  0  0  0  0
  182.7660  176.4500  137.7690 C   0  0  0  0  0  2  0  0  0  0  0  0
  182.8550  177.1700  139.9930 C   0  0  0  0  0  1  0  0  0  0  0  0
  183.6000  177.1290  138.7470 N   0  0  0  0  0  2  0  0  0  0  0  0
  1  2  2  0  0  0  0
  3 32  1  6  0  0  0
  3 12  1  0  0  0  0
  3 24  1  0  0  0  0
  4  9  1  0  0  0  0
  5  1  1  0  0  0  0
  5 14  2  0  0  0  0
  6 15  1  0  0  0  0
  7 21  1  0  0  0  0
  8 14  1  0  0  0  0
  8 19  1  0  0  0  0
  9 22  2  0  0  0  0
  9  5  1  0  0  0  0
 10  8  2  0  0  0  0
 11  7  2  0  0  0  0
 13 17  1  0  0  0  0
 15 11  1  0  0  0  0
 17 11  1  0  0  0  0
 18  6  1  0  0  0  0
 18 12  1  0  0  0  0
 19 23  1  0  0  0  0
 20 13  2  0  0  0  0
 21  1  1  0  0  0  0
 22 10  1  0  0  0  0
 24 16  1  1  0  0  0
 24  4  1  0  0  0  0
 25 28  1  0  0  0  0
 26 28  1  0  0  0  0
 27 26  2  0  0  0  0
 28 13  1  6  0  0  0
 29 27  1  0  0  0  0
 29 25  2  0  0  0  0
 31 27  1  0  0  0  0
 31 30  1  0  0  0  0
 32 34  1  0  0  0  0
 33 35  1  0  0  0  0
 34 33  2  0  0  0  0
 35 36  1  0  0  0  0
 36 38  1  0  0  0  0
 38 37  1  0  0  0  0
M  END
>  <MODEL>
4

>  <REMARK>
 VINA RESULT:      -6.7      4.275      9.726
  Name = 
  7 active torsions:
  status: ('A' for Active; 'I' for Inactive)
    1  A    between atoms: C_5  and  C_10
    2  A    between atoms: C_6  and  C_19
    3  A    between atoms: C_10  and  C_32
    4  A    between atoms: N_12  and  N_14
    5  A    between atoms: N_12  and  C_31
    6  A    between atoms: C_13  and  C_24
    7  A    between atoms: C_31  and  N_37
                            x       y       z     vdW  Elec       q    Type
                         _______ _______ _______ _____ _____    ______ ____

>  <TORSDO>
F 7

$$$$
=
 OpenBabel10222421013D

 38 40  0  0  1  0  0  0  0  0999 V2000
  193.0540  176.2840  138.8200 C   0  0  0  0  0  0  0  0  0  0  0  0
  193.9580  176.6290  139.6770 N   0  0  0  0  0  2  0  0  0  0  0  0
  189.3940  174.9040  136.1140 C   0  0  1  0  0  3  0  0  0  0  0  0
  191.0720  174.4550  137.8290 O   0  0  0  0  0  0  0  0  0  0  0  0
  193.3610  175.2780  137.7840 C   0  0  0  0  0  0  0  0  0  0  0  0
  188.0540  177.6800  138.1000 C   0  0  0  0  0  2  0  0  0  0  0  0
  191.0130  177.1380  139.8190 N   0  0  0  0  0  0  0  0  0  0  0  0
  194.9360  174.3220  136.2160 C   0  0  0  0  0  0  0  0  0  0  0  0
  192.3520  174.4510  137.2510 C   0  0  0  0  0  0  0  0  0  0  0  0
  193.9380  173.5620  135.6870 N   0  0  0  0  0  0  0  0  0  0  0  0
  189.8480  177.7130  139.8660 C   0  0  0  0  0  0  0  0  0  0  0  0
  189.1880  176.2430  136.5300 O   0  0  0  0  0  0  0  0  0  0  0  0
  187.9320  178.3990  141.4200 C   0  0  0  0  0  0  0  0  0  0  0  0
  194.6600  175.1960  137.2670 C   0  0  0  0  0  3  0  0  0  0  0  0
  189.2850  178.3980  138.6460 C   0  0  0  0  0  2  0  0  0  0  0  0
  190.0760  172.6520  136.7330 O   0  0  0  0  0  1  0  0  0  0  0  0
  189.1040  177.6410  141.0900 N   0  0  0  0  0  2  0  0  0  0  0  0
  188.3580  176.2540  137.6650 C   0  0  0  0  0  2  0  0  0  0  0  0
  196.2620  174.2490  135.6930 N   0  0  0  0  0  2  0  0  0  0  0  0
  187.5520  179.3520  140.6880 O   0  0  0  0  0  0  0  0  0  0  0  0
  191.8610  177.1610  138.6350 C   0  0  0  0  0  2  0  0  0  0  0  0
  192.6710  173.6070  136.1780 C   0  0  0  0  0  3  0  0  0  0  0  0
  196.6130  173.3650  134.5940 C   0  0  0  0  0  1  0  0  0  0  0  0
  189.8840  173.9490  137.2170 C   0  0  2  0  0  3  0  0  0  0  0  0
  187.5530  177.1900  143.5420 C   0  0  0  0  0  3  0  0  0  0  0  0
  185.9530  178.7170  142.9780 N   0  0  0  0  0  0  0  0  0  0  0  0
  185.5720  178.1960  144.0950 C   0  0  0  0  0  0  0  0  0  0  0  0
  187.1780  178.0860  142.6400 C   0  0  0  0  0  0  0  0  0  0  0  0
  186.5200  177.1720  144.6190 C   0  0  0  0  0  2  0  0  0  0  0  0
  184.5570  178.6240  146.3020 C   0  0  0  0  0  1  0  0  0  0  0  0
  184.3300  178.6170  144.8010 C   0  0  0  0  0  2  0  0  0  0  0  0
  188.2730  174.3590  135.2170 C   0  0  0  0  0  2  0  0  0  0  0  0
  185.9320  173.7520  135.2930 N   0  0  0  0  0  0  0  0  0  0  0  0
  186.9780  174.1550  135.9340 C   0  0  0  0  0  3  0  0  0  0  0  0
  184.7230  173.5680  135.9710 N   0  0  0  0  0  2  0  0  0  0  0  0
  184.6960  173.5070  137.4220 C   0  0  0  0  0  2  0  0  0  0  0  0
  182.7160  174.6270  136.8740 C   0  0  0  0  0  1  0  0  0  0  0  0
  183.6820  174.4110  137.9390 N   0  0  0  0  0  2  0  0  0  0  0  0
  1  2  2  0  0  0  0
  3 32  1  1  0  0  0
  3 12  1  0  0  0  0
  3 24  1  0  0  0  0
  5  1  1  0  0  0  0
  6 15  1  0  0  0  0
  7 11  2  0  0  0  0
  8 14  1  0  0  0  0
  9  5  1  0  0  0  0
  9  4  1  0  0  0  0
 10 22  1  0  0  0  0
 10  8  2  0  0  0  0
 11 17  1  0  0  0  0
 12 18  1  0  0  0  0
 13 28  1  0  0  0  0
 14  5  2  0  0  0  0
 15 11  1  0  0  0  0
 17 13  1  0  0  0  0
 18  6  1  0  0  0  0
 19  8  1  0  0  0  0
 20 13  2  0  0  0  0
 21  1  1  0  0  0  0
 21  7  1  0  0  0  0
 22  9  2  0  0  0  0
 23 19  1  0  0  0  0
 24 16  1  6  0  0  0
 24  4  1  0  0  0  0
 25 29  1  0  0  0  0
 26 27  2  0  0  0  0
 27 29  1  0  0  0  0
 27 31  1  0  0  0  0
 28 26  1  0  0  0  0
 28 25  2  0  0  0  0
 31 30  1  0  0  0  0
 32 34  1  0  0  0  0
 33 34  2  0  0  0  0
 33 35  1  0  0  0  0
 35 36  1  0  0  0  0
 36 38  1  0  0  0  0
 37 38  1  0  0  0  0
M  END
>  <MODEL>
5

>  <REMARK>
 VINA RESULT:      -6.7      3.633      8.355
  Name = 
  7 active torsions:
  status: ('A' for Active; 'I' for Inactive)
    1  A    between atoms: C_5  and  C_10
    2  A    between atoms: C_6  and  C_19
    3  A    between atoms: C_10  and  C_32
    4  A    between atoms: N_12  and  N_14
    5  A    between atoms: N_12  and  C_31
    6  A    between atoms: C_13  and  C_24
    7  A    between atoms: C_31  and  N_37
                            x       y       z     vdW  Elec       q    Type
                         _______ _______ _______ _____ _____    ______ ____

>  <TORSDO>
F 7

$$$$
=
 OpenBabel10222421013D

 38 40  0  0  1  0  0  0  0  0999 V2000
  186.9440  177.8600  138.2840 C   0  0  0  0  0  0  0  0  0  0  0  0
  187.5640  177.8590  137.1490 N   0  0  0  0  0  2  0  0  0  0  0  0
  184.3420  178.2790  142.2420 C   0  0  1  0  0  3  0  0  0  0  0  0
  185.8600  179.2130  140.5750 O   0  0  0  0  0  0  0  0  0  0  0  0
  187.7020  178.0060  139.5420 C   0  0  0  0  0  0  0  0  0  0  0  0
  181.8920  177.4990  139.6290 C   0  0  0  0  0  2  0  0  0  0  0  0
  184.6320  178.2140  137.6330 N   0  0  0  0  0  0  0  0  0  0  0  0
  189.6830  177.5210  140.8440 C   0  0  0  0  0  0  0  0  0  0  0  0
  187.1180  178.5960  140.6790 C   0  0  0  0  0  0  0  0  0  0  0  0
  189.0840  178.0580  141.9420 N   0  0  0  0  0  0  0  0  0  0  0  0
  183.3420  178.0520  137.6460 C   0  0  0  0  0  0  0  0  0  0  0  0
  183.6320  177.4960  141.2980 O   0  0  0  0  0  0  0  0  0  0  0  0
  181.1410  178.8220  136.5880 C   0  0  0  0  0  0  0  0  0  0  0  0
  188.9980  177.4810  139.6300 C   0  0  0  0  0  3  0  0  0  0  0  0
  182.7190  176.9520  138.4690 C   0  0  0  0  0  2  0  0  0  0  0  0
  185.6950  180.2590  142.6550 O   0  0  0  0  0  1  0  0  0  0  0  0
  182.5350  178.9690  136.8950 N   0  0  0  0  0  2  0  0  0  0  0  0
  182.7250  178.3170  140.6040 C   0  0  0  0  0  2  0  0  0  0  0  0
  191.0010  176.9790  140.9240 N   0  0  0  0  0  2  0  0  0  0  0  0
  180.5380  177.7420  136.8260 O   0  0  0  0  0  0  0  0  0  0  0  0
  185.5480  177.3340  138.3460 C   0  0  0  0  0  2  0  0  0  0  0  0
  187.8350  178.5900  141.8850 C   0  0  0  0  0  3  0  0  0  0  0  0
  191.7650  176.9820  142.1610 C   0  0  0  0  0  1  0  0  0  0  0  0
  185.0050  179.5450  141.6710 C   0  0  2  0  0  3  0  0  0  0  0  0
  179.6000  179.8000  134.9210 C   0  0  0  0  0  3  0  0  0  0  0  0
  180.5000  181.2720  136.4150 N   0  0  0  0  0  0  0  0  0  0  0  0
  179.7430  181.9690  135.6370 C   0  0  0  0  0  0  0  0  0  0  0  0
  180.4100  179.9310  135.9630 C   0  0  2  0  0  3  0  0  0  0  0  0
  179.0600  181.1520  134.5950 C   0  0  0  0  0  3  0  0  0  0  0  0
  180.7850  184.1870  135.3510 C   0  0  0  0  0  1  0  0  0  0  0  0
  179.5460  183.4370  135.8030 C   0  0  0  0  0  2  0  0  0  0  0  0
  183.5960  178.4660  143.5720 C   0  0  0  0  0  2  0  0  0  0  0  0
  184.2110  178.8860  145.8730 N   0  0  0  0  0  0  0  0  0  0  0  0
  184.4530  178.2510  144.7760 C   0  0  0  0  0  3  0  0  0  0  0  0
  185.0220  178.6830  146.9940 N   0  0  0  0  0  2  0  0  0  0  0  0
  186.4660  178.7890  146.8850 C   0  0  0  0  0  2  0  0  0  0  0  0
  188.5150  177.6640  146.9870 C   0  0  0  0  0  1  0  0  0  0  0  0
  187.0820  177.5030  147.1660 N   0  0  0  0  0  2  0  0  0  0  0  0
  1 21  1  0  0  0  0
  1  5  1  0  0  0  0
  2  1  2  0  0  0  0
  3 32  1  1  0  0  0
  4  9  1  0  0  0  0
  4 24  1  0  0  0  0
  5 14  2  0  0  0  0
  5  9  1  0  0  0  0
  6 18  1  0  0  0  0
  7 11  2  0  0  0  0
  7 21  1  0  0  0  0
  8 19  1  0  0  0  0
  8 10  2  0  0  0  0
  9 22  2  0  0  0  0
 11 15  1  0  0  0  0
 12  3  1  0  0  0  0
 13 20  2  0  0  0  0
 13 17  1  0  0  0  0
 14  8  1  0  0  0  0
 15  6  1  0  0  0  0
 17 11  1  0  0  0  0
 18 12  1  0  0  0  0
 19 23  1  0  0  0  0
 22 10  1  0  0  0  0
 24  3  1  0  0  0  0
 24 16  1  1  0  0  0
 25 28  1  0  0  0  0
 27 31  1  0  0  0  0
 27 26  2  0  0  0  0
 28 26  1  0  0  0  0
 28 13  1  6  0  0  0
 29 25  2  0  0  0  0
 29 27  1  0  0  0  0
 30 31  1  0  0  0  0
 32 34  1  0  0  0  0
 33 35  1  0  0  0  0
 34 33  2  0  0  0  0
 36 35  1  0  0  0  0
 36 38  1  0  0  0  0
 37 38  1  0  0  0  0
M  END
>  <MODEL>
6

>  <REMARK>
 VINA RESULT:      -6.6      3.422      7.071
  Name = 
  7 active torsions:
  status: ('A' for Active; 'I' for Inactive)
    1  A    between atoms: C_5  and  C_10
    2  A    between atoms: C_6  and  C_19
    3  A    between atoms: C_10  and  C_32
    4  A    between atoms: N_12  and  N_14
    5  A    between atoms: N_12  and  C_31
    6  A    between atoms: C_13  and  C_24
    7  A    between atoms: C_31  and  N_37
                            x       y       z     vdW  Elec       q    Type
                         _______ _______ _______ _____ _____    ______ ____

>  <TORSDO>
F 7

$$$$
=
 OpenBabel10222421013D

 38 40  0  0  1  0  0  0  0  0999 V2000
  187.9100  178.0560  139.7360 C   0  0  0  0  0  0  0  0  0  0  0  0
  187.1680  178.2230  138.6910 N   0  0  0  0  0  2  0  0  0  0  0  0
  190.8320  176.9700  143.3280 C   0  0  1  0  0  3  0  0  0  0  0  0
  188.9420  176.4410  141.8760 O   0  0  0  0  0  0  0  0  0  0  0  0
  187.3050  178.0560  141.0820 C   0  0  0  0  0  0  0  0  0  0  0  0
  193.0420  177.2390  140.4150 C   0  0  0  0  0  2  0  0  0  0  0  0
  189.9800  177.2060  138.7940 N   0  0  0  0  0  0  0  0  0  0  0  0
  185.6670  178.9440  142.6260 C   0  0  0  0  0  0  0  0  0  0  0  0
  187.8800  177.3230  142.1380 C   0  0  0  0  0  0  0  0  0  0  0  0
  186.2640  178.2600  143.6410 N   0  0  0  0  0  0  0  0  0  0  0  0
  191.2640  177.0730  138.6400 C   0  0  0  0  0  0  0  0  0  0  0  0
  191.5750  177.5940  142.2950 O   0  0  0  0  0  0  0  0  0  0  0  0
  193.0810  175.8520  137.3110 C   0  0  0  0  0  0  0  0  0  0  0  0
  186.1840  178.8560  141.3330 C   0  0  0  0  0  3  0  0  0  0  0  0
  192.2190  177.9850  139.3680 C   0  0  0  0  0  2  0  0  0  0  0  0
  189.1290  175.3370  143.9230 O   0  0  0  0  0  1  0  0  0  0  0  0
  191.7410  176.0150  137.7960 N   0  0  0  0  0  2  0  0  0  0  0  0
  192.1760  176.6070  141.4940 C   0  0  0  0  0  2  0  0  0  0  0  0
  184.5280  179.7670  142.8730 N   0  0  0  0  0  2  0  0  0  0  0  0
  193.9380  176.7630  137.4620 O   0  0  0  0  0  0  0  0  0  0  0  0
  189.3850  178.2520  139.6140 C   0  0  0  0  0  2  0  0  0  0  0  0
  187.3430  177.4620  143.4260 C   0  0  0  0  0  3  0  0  0  0  0  0
  183.9460  179.9060  144.1980 C   0  0  0  0  0  1  0  0  0  0  0  0
  189.8320  175.9000  142.8540 C   0  0  2  0  0  3  0  0  0  0  0  0
  193.3830  174.4630  135.2890 C   0  0  0  0  0  3  0  0  0  0  0  0
  193.9390  173.4630  137.2640 N   0  0  0  0  0  0  0  0  0  0  0  0
  194.1560  172.5850  136.3460 C   0  0  0  0  0  0  0  0  0  0  0  0
  193.4570  174.6220  136.6030 C   0  0  2  0  0  3  0  0  0  0  0  0
  193.8520  173.0810  134.9740 C   0  0  0  0  0  3  0  0  0  0  0  0
  195.4330  171.2310  137.9650 C   0  0  0  0  0  1  0  0  0  0  0  0
  194.7000  171.2280  136.6370 C   0  0  0  0  0  2  0  0  0  0  0  0
  191.6790  176.5890  144.5500 C   0  0  0  0  0  2  0  0  0  0  0  0
  190.5090  176.7960  146.6580 N   0  0  0  0  0  0  0  0  0  0  0  0
  191.3060  177.3300  145.7930 C   0  0  0  0  0  3  0  0  0  0  0  0
  190.1610  177.4980  147.8160 N   0  0  0  0  0  2  0  0  0  0  0  0
  188.7680  177.6160  148.2110 C   0  0  0  0  0  2  0  0  0  0  0  0
  186.8070  178.2550  147.1050 C   0  0  0  0  0  1  0  0  0  0  0  0
  187.9030  177.3010  147.0860 N   0  0  0  0  0  2  0  0  0  0  0  0
  1  5  1  0  0  0  0
  2  1  2  0  0  0  0
  3 32  1  1  0  0  0
  4  9  1  0  0  0  0
  4 24  1  0  0  0  0
  5 14  2  0  0  0  0
  5  9  1  0  0  0  0
  6 18  1  0  0  0  0
  7 21  1  0  0  0  0
  8 19  1  0  0  0  0
  8 10  2  0  0  0  0
  9 22  2  0  0  0  0
 11  7  2  0  0  0  0
 11 15  1  0  0  0  0
 12  3  1  0  0  0  0
 13 20  2  0  0  0  0
 13 17  1  0  0  0  0
 14  8  1  0  0  0  0
 15  6  1  0  0  0  0
 17 11  1  0  0  0  0
 18 12  1  0  0  0  0
 19 23  1  0  0  0  0
 21  1  1  0  0  0  0
 22 10  1  0  0  0  0
 24  3  1  0  0  0  0
 24 16  1  1  0  0  0
 25 28  1  0  0  0  0
 27 31  1  0  0  0  0
 27 26  2  0  0  0  0
 28 26  1  0  0  0  0
 28 13  1  1  0  0  0
 29 25  2  0  0  0  0
 29 27  1  0  0  0  0
 31 30  1  0  0  0  0
 32 34  1  0  0  0  0
 33 35  1  0  0  0  0
 34 33  2  0  0  0  0
 35 36  1  0  0  0  0
 38 37  1  0  0  0  0
 38 36  1  0  0  0  0
M  END
>  <MODEL>
7

>  <REMARK>
 VINA RESULT:      -5.9      3.604      8.722
  Name = 
  7 active torsions:
  status: ('A' for Active; 'I' for Inactive)
    1  A    between atoms: C_5  and  C_10
    2  A    between atoms: C_6  and  C_19
    3  A    between atoms: C_10  and  C_32
    4  A    between atoms: N_12  and  N_14
    5  A    between atoms: N_12  and  C_31
    6  A    between atoms: C_13  and  C_24
    7  A    between atoms: C_31  and  N_37
                            x       y       z     vdW  Elec       q    Type
                         _______ _______ _______ _____ _____    ______ ____

>  <TORSDO>
F 7

$$$$
=
 OpenBabel10222421013D

 38 40  0  0  1  0  0  0  0  0999 V2000
  186.7850  178.2560  138.8020 C   0  0  0  0  0  0  0  0  0  0  0  0
  187.4340  178.3780  137.6910 N   0  0  0  0  0  2  0  0  0  0  0  0
  184.0900  178.2530  142.7210 C   0  0  1  0  0  3  0  0  0  0  0  0
  185.6710  179.3450  141.2160 O   0  0  0  0  0  0  0  0  0  0  0  0
  187.5130  178.2280  140.0860 C   0  0  0  0  0  0  0  0  0  0  0  0
  181.6920  177.8590  139.9750 C   0  0  0  0  0  2  0  0  0  0  0  0
  184.4990  178.7430  138.1460 N   0  0  0  0  0  0  0  0  0  0  0  0
  189.4480  177.5390  141.3640 C   0  0  0  0  0  0  0  0  0  0  0  0
  186.9120  178.6900  141.2730 C   0  0  0  0  0  0  0  0  0  0  0  0
  188.8320  177.9530  142.5060 N   0  0  0  0  0  0  0  0  0  0  0  0
  183.2060  178.6130  138.1100 C   0  0  0  0  0  0  0  0  0  0  0  0
  183.3880  177.6100  141.6710 O   0  0  0  0  0  0  0  0  0  0  0  0
  181.0500  179.5610  137.1030 C   0  0  0  0  0  0  0  0  0  0  0  0
  188.7940  177.6650  140.1390 C   0  0  0  0  0  3  0  0  0  0  0  0
  182.5380  177.4370  138.7760 C   0  0  0  0  0  2  0  0  0  0  0  0
  185.4750  180.1340  143.4040 O   0  0  0  0  0  1  0  0  0  0  0  0
  182.4380  179.6340  137.4580 N   0  0  0  0  0  2  0  0  0  0  0  0
  182.5180  178.5310  141.0620 C   0  0  0  0  0  2  0  0  0  0  0  0
  190.7510  176.9590  141.4090 N   0  0  0  0  0  2  0  0  0  0  0  0
  180.4180  178.4750  137.1920 O   0  0  0  0  0  0  0  0  0  0  0  0
  185.3770  177.7610  138.7670 C   0  0  0  0  0  2  0  0  0  0  0  0
  187.5970  178.5190  142.4850 C   0  0  0  0  0  3  0  0  0  0  0  0
  191.4830  176.7930  142.6540 C   0  0  0  0  0  1  0  0  0  0  0  0
  184.7950  179.5630  142.3240 C   0  0  2  0  0  3  0  0  0  0  0  0
  179.4440  180.7420  135.6430 C   0  0  0  0  0  3  0  0  0  0  0  0
  180.6090  182.0610  137.0960 N   0  0  0  0  0  0  0  0  0  0  0  0
  179.8440  182.8550  136.4280 C   0  0  0  0  0  0  0  0  0  0  0  0
  180.3600  180.7550  136.6010 C   0  0  2  0  0  3  0  0  0  0  0  0
  178.9930  182.1490  135.4280 C   0  0  0  0  0  3  0  0  0  0  0  0
  181.1760  184.9280  136.5340 C   0  0  0  0  0  1  0  0  0  0  0  0
  179.7910  184.3230  136.6740 C   0  0  0  0  0  2  0  0  0  0  0  0
  183.3130  178.2960  144.0450 C   0  0  0  0  0  2  0  0  0  0  0  0
  180.9130  178.5670  143.9030 N   0  0  0  0  0  0  0  0  0  0  0  0
  182.0740  179.1280  143.9860 C   0  0  0  0  0  3  0  0  0  0  0  0
  179.7580  179.3530  143.8440 N   0  0  0  0  0  2  0  0  0  0  0  0
  179.6790  180.4730  142.9220 C   0  0  0  0  0  2  0  0  0  0  0  0
  179.6320  180.8660  140.6160 C   0  0  0  0  0  1  0  0  0  0  0  0
  179.0640  180.0490  141.6760 N   0  0  0  0  0  2  0  0  0  0  0  0
  1  5  1  0  0  0  0
  2  1  2  0  0  0  0
  3 32  1  1  0  0  0
  4  9  1  0  0  0  0
  4 24  1  0  0  0  0
  5 14  2  0  0  0  0
  5  9  1  0  0  0  0
  6 18  1  0  0  0  0
  7 21  1  0  0  0  0
  8 19  1  0  0  0  0
  8 10  2  0  0  0  0
  9 22  2  0  0  0  0
 11  7  2  0  0  0  0
 11 15  1  0  0  0  0
 12  3  1  0  0  0  0
 13 20  2  0  0  0  0
 13 17  1  0  0  0  0
 14  8  1  0  0  0  0
 15  6  1  0  0  0  0
 17 11  1  0  0  0  0
 18 12  1  0  0  0  0
 19 23  1  0  0  0  0
 21  1  1  0  0  0  0
 22 10  1  0  0  0  0
 24  3  1  0  0  0  0
 24 16  1  1  0  0  0
 25 28  1  0  0  0  0
 27 31  1  0  0  0  0
 27 26  2  0  0  0  0
 28 26  1  0  0  0  0
 28 13  1  6  0  0  0
 29 25  2  0  0  0  0
 29 27  1  0  0  0  0
 30 31  1  0  0  0  0
 33 34  2  0  0  0  0
 34 32  1  0  0  0  0
 35 33  1  0  0  0  0
 36 35  1  0  0  0  0
 37 38  1  0  0  0  0
 38 36  1  0  0  0  0
M  END
>  <MODEL>
8

>  <REMARK>
 VINA RESULT:      -5.8      3.996      7.337
  Name = 
  7 active torsions:
  status: ('A' for Active; 'I' for Inactive)
    1  A    between atoms: C_5  and  C_10
    2  A    between atoms: C_6  and  C_19
    3  A    between atoms: C_10  and  C_32
    4  A    between atoms: N_12  and  N_14
    5  A    between atoms: N_12  and  C_31
    6  A    between atoms: C_13  and  C_24
    7  A    between atoms: C_31  and  N_37
                            x       y       z     vdW  Elec       q    Type
                         _______ _______ _______ _____ _____    ______ ____

>  <TORSDO>
F 7

$$$$
=
 OpenBabel10222421013D

 38 40  0  0  1  0  0  0  0  0999 V2000
  188.8550  177.3250  137.5680 C   0  0  0  0  0  0  0  0  0  0  0  0
  189.3980  178.3290  138.1740 N   0  0  0  0  0  2  0  0  0  0  0  0
  186.4900  173.6100  135.7730 C   0  0  1  0  0  3  0  0  0  0  0  0
  187.8250  174.6430  137.5360 O   0  0  0  0  0  0  0  0  0  0  0  0
  189.6800  176.1720  137.1600 C   0  0  0  0  0  0  0  0  0  0  0  0
  183.9390  176.2200  136.1250 C   0  0  0  0  0  2  0  0  0  0  0  0
  186.4860  177.6720  137.9710 N   0  0  0  0  0  0  0  0  0  0  0  0
  191.7710  175.3130  136.2970 C   0  0  0  0  0  0  0  0  0  0  0  0
  189.1290  174.8780  137.0680 C   0  0  0  0  0  0  0  0  0  0  0  0
  191.2070  174.0790  136.1760 N   0  0  0  0  0  0  0  0  0  0  0  0
  185.2150  177.7120  137.7010 C   0  0  0  0  0  0  0  0  0  0  0  0
  185.7790  174.8000  135.4810 O   0  0  0  0  0  0  0  0  0  0  0  0
  182.9000  178.2150  138.6740 C   0  0  0  0  0  0  0  0  0  0  0  0
  191.0130  176.3780  136.7830 C   0  0  0  0  0  3  0  0  0  0  0  0
  184.7280  177.5170  136.2870 C   0  0  0  0  0  2  0  0  0  0  0  0
  187.7200  172.3140  137.4260 O   0  0  0  0  0  1  0  0  0  0  0  0
  184.2960  177.9050  138.7850 N   0  0  0  0  0  2  0  0  0  0  0  0
  184.7730  174.9880  136.4450 C   0  0  0  0  0  2  0  0  0  0  0  0
  193.1270  175.5340  135.9110 N   0  0  0  0  0  2  0  0  0  0  0  0
  182.3940  178.5210  137.5610 O   0  0  0  0  0  0  0  0  0  0  0  0
  187.5080  177.4970  136.9480 C   0  0  0  0  0  2  0  0  0  0  0  0
  189.9210  173.8450  136.5490 C   0  0  0  0  0  3  0  0  0  0  0  0
  193.9670  174.4680  135.3890 C   0  0  0  0  0  1  0  0  0  0  0  0
  187.0210  173.5070  137.2150 C   0  0  2  0  0  3  0  0  0  0  0  0
  180.8290  177.6950  139.9170 C   0  0  0  0  0  3  0  0  0  0  0  0
  182.4580  178.7540  141.1150 N   0  0  0  0  0  0  0  0  0  0  0  0
  181.4710  178.5830  141.9270 C   0  0  0  0  0  0  0  0  0  0  0  0
  182.0510  178.2060  139.8710 C   0  0  0  0  0  0  0  0  0  0  0  0
  180.3100  177.8860  141.3040 C   0  0  0  0  0  2  0  0  0  0  0  0
  182.9500  179.0030  143.8560 C   0  0  0  0  0  1  0  0  0  0  0  0
  181.5180  179.0040  143.3560 C   0  0  0  0  0  2  0  0  0  0  0  0
  185.8200  172.3420  135.2240 C   0  0  0  0  0  2  0  0  0  0  0  0
  183.5090  171.7310  135.6000 N   0  0  0  0  0  0  0  0  0  0  0  0
  184.7040  171.8360  136.0790 C   0  0  0  0  0  3  0  0  0  0  0  0
  182.4700  171.2610  136.4090 N   0  0  0  0  0  2  0  0  0  0  0  0
  181.6090  172.1940  137.1140 C   0  0  0  0  0  2  0  0  0  0  0  0
  179.6460  171.1270  136.4210 C   0  0  0  0  0  1  0  0  0  0  0  0
  180.4180  171.5090  137.5910 N   0  0  0  0  0  2  0  0  0  0  0  0
  1  2  2  0  0  0  0
  3 32  1  1  0  0  0
  3 24  1  0  0  0  0
  5  1  1  0  0  0  0
  6 15  1  0  0  0  0
  6 18  1  0  0  0  0
  8 14  1  0  0  0  0
  9  5  1  0  0  0  0
  9  4  1  0  0  0  0
 10  8  2  0  0  0  0
 10 22  1  0  0  0  0
 11  7  2  0  0  0  0
 11 17  1  0  0  0  0
 12  3  1  0  0  0  0
 12 18  1  0  0  0  0
 13 17  1  0  0  0  0
 13 28  1  0  0  0  0
 14  5  2  0  0  0  0
 15 11  1  0  0  0  0
 19  8  1  0  0  0  0
 20 13  2  0  0  0  0
 21  1  1  0  0  0  0
 21  7  1  0  0  0  0
 22  9  2  0  0  0  0
 23 19  1  0  0  0  0
 24 16  1  6  0  0  0
 24  4  1  0  0  0  0
 25 29  1  0  0  0  0
 26 27  2  0  0  0  0
 27 31  1  0  0  0  0
 28 25  2  0  0  0  0
 28 26  1  0  0  0  0
 29 27  1  0  0  0  0
 31 30  1  0  0  0  0
 32 34  1  0  0  0  0
 33 34  2  0  0  0  0
 33 35  1  0  0  0  0
 35 36  1  0  0  0  0
 36 38  1  0  0  0  0
 37 38  1  0  0  0  0
M  END
>  <MODEL>
9

>  <REMARK>
 VINA RESULT:      -5.5      4.617      7.860
  Name = 
  7 active torsions:
  status: ('A' for Active; 'I' for Inactive)
    1  A    between atoms: C_5  and  C_10
    2  A    between atoms: C_6  and  C_19
    3  A    between atoms: C_10  and  C_32
    4  A    between atoms: N_12  and  N_14
    5  A    between atoms: N_12  and  C_31
    6  A    between atoms: C_13  and  C_24
    7  A    between atoms: C_31  and  N_37
                            x       y       z     vdW  Elec       q    Type
                         _______ _______ _______ _____ _____    ______ ____

>  <TORSDO>
F 7

$$$$
