=
 OpenBabel10222420513D

 48 56  0  0  1  0  0  0  0  0999 V2000
  192.0640  177.7040  141.6640 F   0  0  0  0  0  0  0  0  0  0  0  0
  190.4920  176.6900  137.9570 C   0  0  0  0  0  3  0  0  0  0  0  0
  189.6470  177.1500  138.9670 C   0  0  0  0  0  3  0  0  0  0  0  0
  192.3960  176.9150  139.4390 C   0  0  0  0  0  0  0  0  0  0  0  0
  193.7070  176.7140  139.7160 F   0  0  0  0  0  0  0  0  0  0  0  0
  191.5480  177.3840  140.4510 C   0  0  0  0  0  0  0  0  0  0  0  0
  191.8710  176.5870  138.1740 C   0  0  0  0  0  0  0  0  0  0  0  0
  190.1710  177.5130  140.2110 C   0  0  0  0  0  0  0  0  0  0  0  0
  196.8250  176.2640  135.8950 O   0  0  0  0  0  0  0  0  0  0  0  0
  195.9360  174.0970  135.4820 N   0  0  0  0  0  0  0  0  0  0  0  0
  192.6500  174.8470  136.4640 C   0  0  0  0  0  0  0  0  0  0  0  0
  193.9000  176.6970  136.7580 N   0  0  0  0  0  0  0  0  0  0  0  0
  193.7470  174.7330  135.6910 N   0  0  0  0  0  0  0  0  0  0  0  0
  194.4450  175.8430  135.8710 C   0  0  0  0  0  0  0  0  0  0  0  0
  194.6970  173.6790  135.4670 C   0  0  0  0  0  0  0  0  0  0  0  0
  195.8400  175.4980  135.7380 C   0  0  0  0  0  0  0  0  0  0  0  0
  192.7260  176.0980  137.0800 C   0  0  0  0  0  0  0  0  0  0  0  0
  194.3250  172.2430  135.2600 C   0  0  0  0  0  3  0  0  0  0  0  0
  195.5710  171.3870  135.4060 C   0  0  0  0  0  2  0  0  0  0  0  0
  194.5560  171.4320  136.5240 C   0  0  0  0  0  2  0  0  0  0  0  0
  191.7680  173.7110  136.8910 C   0  0  2  0  0  3  0  0  0  0  0  0
  191.3460  172.9710  135.7710 O   0  0  0  0  0  0  0  0  0  0  0  0
  190.4190  173.8720  136.3060 C   0  0  1  0  0  3  0  0  0  0  0  0
  189.4410  173.1470  137.0960 N   0  0  0  0  0  2  0  0  0  0  0  0
  188.2700  170.9170  136.2090 F   0  0  0  0  0  0  0  0  0  0  0  0
  185.0240  172.5190  136.3930 C   0  0  0  0  0  3  0  0  0  0  0  0
  185.1250  173.4780  137.5270 C   0  0  0  0  0  2  0  0  0  0  0  0
  188.0370  173.1520  136.8030 C   0  0  0  0  0  0  0  0  0  0  0  0
  186.0760  171.8570  135.9080 C   0  0  0  0  0  3  0  0  0  0  0  0
  187.3150  174.4450  136.8930 C   0  0  0  0  0  3  0  0  0  0  0  0
  186.0260  174.6100  137.1810 C   0  0  0  0  0  3  0  0  0  0  0  0
  187.4780  172.0040  136.3580 C   0  0  0  0  0  0  0  0  0  0  0  0
  189.2490  178.0050  141.2790 C   0  0  0  0  0  2  0  0  0  0  0  0
  185.0490  178.0300  145.7350 C   0  0  1  0  0  3  0  0  0  0  0  0
  186.6420  178.5030  141.4770 C   0  0  0  0  0  0  0  0  0  0  0  0
  185.6390  178.7820  140.5070 N   0  0  0  0  0  0  0  0  0  0  0  0
  187.4590  178.1900  143.8160 C   0  0  2  0  0  3  0  0  0  0  0  0
  184.6450  178.6400  146.9900 N   0  0  0  0  0  1  0  0  0  0  0  0
  187.8710  178.2110  140.7380 C   0  0  0  0  0  0  0  0  0  0  0  0
  187.6360  178.3070  139.4760 N   0  0  0  0  0  0  0  0  0  0  0  0
  185.5940  178.8270  138.1290 N   0  0  0  0  0  1  0  0  0  0  0  0
  188.2240  176.8830  143.9280 C   0  0  0  0  0  2  0  0  0  0  0  0
  186.8330  176.9780  144.4800 C   0  0  1  0  0  3  0  0  0  0  0  0
  186.4150  178.5080  142.8020 C   0  0  0  0  0  0  0  0  0  0  0  0
  184.6130  178.9120  144.5630 C   0  0  0  0  0  3  0  0  0  0  0  0
  185.1380  179.0650  143.3260 C   0  0  0  0  0  3  0  0  0  0  0  0
  186.5110  177.5800  145.8130 C   0  0  0  0  0  2  0  0  0  0  0  0
  186.2510  178.6410  139.3780 C   0  0  0  0  0  0  0  0  0  0  0  0
  2  7  2  0  0  0  0
  2  3  1  0  0  0  0
  3  8  2  0  0  0  0
  4  5  1  0  0  0  0
  4  6  2  0  0  0  0
  6  1  1  0  0  0  0
  7  4  1  0  0  0  0
  8  6  1  0  0  0  0
  8 33  1  0  0  0  0
 10 16  1  0  0  0  0
 11 17  2  0  0  0  0
 12 17  1  0  0  0  0
 13 14  1  0  0  0  0
 13 11  1  0  0  0  0
 14 12  2  0  0  0  0
 15 10  2  0  0  0  0
 15 13  1  0  0  0  0
 16 14  1  0  0  0  0
 16  9  2  0  0  0  0
 17  7  1  0  0  0  0
 18 19  1  0  0  0  0
 18 15  1  0  0  0  0
 18 20  1  0  0  0  0
 19 20  1  0  0  0  0
 21 11  1  6  0  0  0
 22 23  1  0  0  0  0
 22 21  1  0  0  0  0
 23 21  1  0  0  0  0
 23 24  1  1  0  0  0
 25 32  1  0  0  0  0
 26 27  1  0  0  0  0
 28 30  1  0  0  0  0
 28 24  1  0  0  0  0
 29 32  1  0  0  0  0
 29 26  2  0  0  0  0
 30 31  2  0  0  0  0
 31 27  1  0  0  0  0
 32 28  2  0  0  0  0
 34 47  1  0  0  0  0
 34 38  1  1  0  0  0
 35 44  2  0  0  0  0
 36 35  1  0  0  0  0
 37 42  1  6  0  0  0
 37 43  1  0  0  0  0
 39 33  1  0  0  0  0
 39 35  1  0  0  0  0
 40 39  2  0  0  0  0
 41 48  1  0  0  0  0
 43 42  1  1  0  0  0
 43 47  1  0  0  0  0
 44 46  1  0  0  0  0
 44 37  1  0  0  0  0
 45 34  1  0  0  0  0
 46 45  2  0  0  0  0
 48 40  1  0  0  0  0
 48 36  2  0  0  0  0
M  END
>  <MODEL>
1

>  <REMARK>
 VINA RESULT:     -10.1      0.000      0.000
  Name = 
  7 active torsions:
  status: ('A' for Active; 'I' for Inactive)
    1  A    between atoms: C_8  and  C_36
    2  A    between atoms: C_11  and  C_17
    3  A    between atoms: C_15  and  C_16
    4  A    between atoms: C_15  and  C_30
    5  A    between atoms: C_22  and  N_32
    6  A    between atoms: C_26  and  C_48
    7  A    between atoms: N_32  and  C_47
                            x       y       z     vdW  Elec       q    Type
                         _______ _______ _______ _____ _____    ______ ____

>  <TORSDO>
F 7

$$$$
=
 OpenBabel10222420513D

 48 56  0  0  1  0  0  0  0  0999 V2000
  191.0490  177.2880  139.2420 F   0  0  0  0  0  0  0  0  0  0  0  0
  187.9440  177.8640  141.9390 C   0  0  0  0  0  3  0  0  0  0  0  0
  187.7730  178.2100  140.5980 C   0  0  0  0  0  3  0  0  0  0  0  0
  190.2040  177.1250  141.4660 C   0  0  0  0  0  0  0  0  0  0  0  0
  191.4180  176.6950  141.8850 F   0  0  0  0  0  0  0  0  0  0  0  0
  190.0280  177.4670  140.1180 C   0  0  0  0  0  0  0  0  0  0  0  0
  189.1480  177.3010  142.3800 C   0  0  0  0  0  0  0  0  0  0  0  0
  188.8060  178.0000  139.6810 C   0  0  0  0  0  0  0  0  0  0  0  0
  192.3900  176.3190  146.6650 O   0  0  0  0  0  0  0  0  0  0  0  0
  190.5810  177.5000  147.6610 N   0  0  0  0  0  0  0  0  0  0  0  0
  188.4790  177.4000  144.8510 C   0  0  0  0  0  0  0  0  0  0  0  0
  190.4150  176.3890  144.3030 N   0  0  0  0  0  0  0  0  0  0  0  0
  189.0880  177.0250  145.9930 N   0  0  0  0  0  0  0  0  0  0  0  0
  190.2070  176.4170  145.6330 C   0  0  0  0  0  0  0  0  0  0  0  0
  189.3590  177.6900  147.2360 C   0  0  0  0  0  0  0  0  0  0  0  0
  191.1850  176.6770  146.6630 C   0  0  0  0  0  0  0  0  0  0  0  0
  189.2850  176.9490  143.8030 C   0  0  0  0  0  0  0  0  0  0  0  0
  188.3650  178.5350  147.9710 C   0  0  0  0  0  3  0  0  0  0  0  0
  187.0930  177.7320  148.1750 C   0  0  0  0  0  2  0  0  0  0  0  0
  188.0430  177.9400  149.3320 C   0  0  0  0  0  2  0  0  0  0  0  0
  187.4000  178.4360  144.7440 C   0  0  2  0  0  3  0  0  0  0  0  0
  186.2890  178.0710  145.5270 O   0  0  0  0  0  0  0  0  0  0  0  0
  186.1830  177.8400  144.1520 C   0  0  1  0  0  3  0  0  0  0  0  0
  185.3600  178.8730  143.5500 N   0  0  0  0  0  2  0  0  0  0  0  0
  183.3770  179.2940  145.2880 F   0  0  0  0  0  0  0  0  0  0  0  0
  180.9320  178.7080  142.6760 C   0  0  0  0  0  3  0  0  0  0  0  0
  181.5780  179.1830  141.4220 C   0  0  0  0  0  2  0  0  0  0  0  0
  184.0030  178.6560  143.1420 C   0  0  0  0  0  0  0  0  0  0  0  0
  181.5860  178.6080  143.8350 C   0  0  0  0  0  3  0  0  0  0  0  0
  183.7670  178.0840  141.7930 C   0  0  0  0  0  3  0  0  0  0  0  0
  182.6930  178.2790  141.0310 C   0  0  0  0  0  3  0  0  0  0  0  0
  183.0240  178.8810  144.0480 C   0  0  0  0  0  0  0  0  0  0  0  0
  188.6020  178.3770  138.2490 C   0  0  0  0  0  2  0  0  0  0  0  0
  189.2590  173.2390  134.9830 C   0  0  1  0  0  3  0  0  0  0  0  0
  186.9910  176.5730  137.1370 C   0  0  0  0  0  0  0  0  0  0  0  0
  185.5780  176.5030  136.9940 N   0  0  0  0  0  0  0  0  0  0  0  0
  189.3090  175.6830  136.8640 C   0  0  2  0  0  3  0  0  0  0  0  0
  189.7810  171.8840  134.9840 N   0  0  0  0  0  1  0  0  0  0  0  0
  187.2890  177.8690  137.7480 C   0  0  0  0  0  0  0  0  0  0  0  0
  186.1850  178.5000  137.9520 N   0  0  0  0  0  0  0  0  0  0  0  0
  183.7820  177.9800  137.4940 N   0  0  0  0  0  1  0  0  0  0  0  0
  190.1990  176.7370  136.2280 C   0  0  0  0  0  2  0  0  0  0  0  0
  189.7120  175.5800  135.4050 C   0  0  1  0  0  3  0  0  0  0  0  0
  187.8270  175.5980  136.7390 C   0  0  0  0  0  0  0  0  0  0  0  0
  187.9000  173.2750  135.6840 C   0  0  0  0  0  3  0  0  0  0  0  0
  187.2760  174.2690  136.3570 C   0  0  0  0  0  3  0  0  0  0  0  0
  190.3450  174.2230  135.4310 C   0  0  0  0  0  2  0  0  0  0  0  0
  185.1630  177.6340  137.4590 C   0  0  0  0  0  0  0  0  0  0  0  0
  1  6  1  0  0  0  0
  2  7  1  0  0  0  0
  3  2  2  0  0  0  0
  4  5  1  0  0  0  0
  4  7  2  0  0  0  0
  6  4  1  0  0  0  0
  7 17  1  0  0  0  0
  8  6  2  0  0  0  0
  8  3  1  0  0  0  0
 11 13  1  0  0  0  0
 12 14  2  0  0  0  0
 13 15  1  0  0  0  0
 14 13  1  0  0  0  0
 14 16  1  0  0  0  0
 15 10  2  0  0  0  0
 15 18  1  0  0  0  0
 16  9  2  0  0  0  0
 16 10  1  0  0  0  0
 17 12  1  0  0  0  0
 17 11  2  0  0  0  0
 18 19  1  0  0  0  0
 18 20  1  0  0  0  0
 19 20  1  0  0  0  0
 21 11  1  1  0  0  0
 21 22  1  0  0  0  0
 23 24  1  6  0  0  0
 23 21  1  0  0  0  0
 23 22  1  0  0  0  0
 26 29  2  0  0  0  0
 27 26  1  0  0  0  0
 28 24  1  0  0  0  0
 28 32  2  0  0  0  0
 29 32  1  0  0  0  0
 30 28  1  0  0  0  0
 31 27  1  0  0  0  0
 31 30  2  0  0  0  0
 32 25  1  0  0  0  0
 33  8  1  0  0  0  0
 34 38  1  1  0  0  0
 34 47  1  0  0  0  0
 34 45  1  0  0  0  0
 35 39  1  0  0  0  0
 36 35  1  0  0  0  0
 36 48  2  0  0  0  0
 37 42  1  6  0  0  0
 39 40  2  0  0  0  0
 39 33  1  0  0  0  0
 43 47  1  1  0  0  0
 43 42  1  0  0  0  0
 43 37  1  0  0  0  0
 44 37  1  0  0  0  0
 44 35  2  0  0  0  0
 45 46  2  0  0  0  0
 46 44  1  0  0  0  0
 48 41  1  0  0  0  0
 48 40  1  0  0  0  0
M  END
>  <MODEL>
2

>  <REMARK>
 VINA RESULT:      -9.9      3.863      9.358
  Name = 
  7 active torsions:
  status: ('A' for Active; 'I' for Inactive)
    1  A    between atoms: C_8  and  C_36
    2  A    between atoms: C_11  and  C_17
    3  A    between atoms: C_15  and  C_16
    4  A    between atoms: C_15  and  C_30
    5  A    between atoms: C_22  and  N_32
    6  A    between atoms: C_26  and  C_48
    7  A    between atoms: N_32  and  C_47
                            x       y       z     vdW  Elec       q    Type
                         _______ _______ _______ _____ _____    ______ ____

>  <TORSDO>
F 7

$$$$
=
 OpenBabel10222420513D

 48 56  0  0  1  0  0  0  0  0999 V2000
  185.4190  179.0150  137.9670 F   0  0  0  0  0  0  0  0  0  0  0  0
  183.8030  177.5610  141.5050 C   0  0  0  0  0  3  0  0  0  0  0  0
  183.1640  177.3040  140.2920 C   0  0  0  0  0  3  0  0  0  0  0  0
  185.5330  178.7940  140.3380 C   0  0  0  0  0  0  0  0  0  0  0  0
  186.6230  179.5990  140.3510 F   0  0  0  0  0  0  0  0  0  0  0  0
  184.8940  178.5290  139.1200 C   0  0  0  0  0  0  0  0  0  0  0  0
  185.0000  178.2870  141.5380 C   0  0  0  0  0  0  0  0  0  0  0  0
  183.7120  177.7720  139.0950 C   0  0  0  0  0  0  0  0  0  0  0  0
  184.5550  178.7390  146.9640 O   0  0  0  0  0  0  0  0  0  0  0  0
  186.6480  177.6350  146.7190 N   0  0  0  0  0  0  0  0  0  0  0  0
  186.8980  178.0780  143.2450 C   0  0  0  0  0  0  0  0  0  0  0  0
  184.9440  178.9730  143.9170 N   0  0  0  0  0  0  0  0  0  0  0  0
  186.9910  178.3300  144.5650 N   0  0  0  0  0  0  0  0  0  0  0  0
  185.8370  178.8740  144.9200 C   0  0  0  0  0  0  0  0  0  0  0  0
  187.4520  177.5670  145.6910 C   0  0  0  0  0  0  0  0  0  0  0  0
  185.5780  178.4740  146.2830 C   0  0  0  0  0  0  0  0  0  0  0  0
  185.6420  178.5340  142.8400 C   0  0  0  0  0  0  0  0  0  0  0  0
  188.7090  176.7520  145.6950 C   0  0  0  0  0  3  0  0  0  0  0  0
  189.8980  177.6850  145.8370 C   0  0  0  0  0  2  0  0  0  0  0  0
  189.4350  176.8750  147.0250 C   0  0  0  0  0  2  0  0  0  0  0  0
  187.7780  177.1350  142.4790 C   0  0  2  0  0  3  0  0  0  0  0  0
  189.1330  177.4570  142.6790 O   0  0  0  0  0  0  0  0  0  0  0  0
  188.5650  177.8820  141.4740 C   0  0  1  0  0  3  0  0  0  0  0  0
  188.9820  176.9950  140.4040 N   0  0  0  0  0  2  0  0  0  0  0  0
  189.8140  175.2530  138.5590 F   0  0  0  0  0  0  0  0  0  0  0  0
  189.4340  177.7690  135.9770 C   0  0  0  0  0  3  0  0  0  0  0  0
  188.3010  178.6230  136.4280 C   0  0  0  0  0  2  0  0  0  0  0  0
  189.1930  177.4370  139.0560 C   0  0  0  0  0  0  0  0  0  0  0  0
  189.9820  176.8280  136.7480 C   0  0  0  0  0  3  0  0  0  0  0  0
  189.0540  178.8870  138.7730 C   0  0  0  0  0  3  0  0  0  0  0  0
  188.6920  179.4320  137.6130 C   0  0  0  0  0  3  0  0  0  0  0  0
  189.6130  176.5270  138.1490 C   0  0  0  0  0  0  0  0  0  0  0  0
  183.0120  177.4850  137.8060 C   0  0  0  0  0  2  0  0  0  0  0  0
  187.0160  173.1920  136.0650 C   0  0  1  0  0  3  0  0  0  0  0  0
  183.0740  174.8250  137.7030 C   0  0  0  0  0  0  0  0  0  0  0  0
  182.0910  173.8300  137.9560 N   0  0  0  0  0  0  0  0  0  0  0  0
  185.3750  175.5880  137.1030 C   0  0  2  0  0  3  0  0  0  0  0  0
  188.3230  172.6090  136.3130 N   0  0  0  0  0  1  0  0  0  0  0  0
  182.4030  176.1200  137.8260 C   0  0  0  0  0  0  0  0  0  0  0  0
  181.1650  175.9250  138.1220 N   0  0  0  0  0  0  0  0  0  0  0  0
  179.7680  173.8800  138.4660 N   0  0  0  0  0  1  0  0  0  0  0  0
  185.3070  176.6180  135.9880 C   0  0  0  0  0  2  0  0  0  0  0  0
  185.7460  175.2160  135.6790 C   0  0  1  0  0  3  0  0  0  0  0  0
  184.3520  174.5460  137.3940 C   0  0  0  0  0  0  0  0  0  0  0  0
  185.9970  172.6240  137.0540 C   0  0  0  0  0  3  0  0  0  0  0  0
  184.8590  173.1560  137.5570 C   0  0  0  0  0  3  0  0  0  0  0  0
  187.1350  174.7120  135.9220 C   0  0  0  0  0  2  0  0  0  0  0  0
  181.0130  174.5070  138.1740 C   0  0  0  0  0  0  0  0  0  0  0  0
  1  6  1  0  0  0  0
  2  7  1  0  0  0  0
  3  2  2  0  0  0  0
  4  5  1  0  0  0  0
  4  7  2  0  0  0  0
  6  4  1  0  0  0  0
  7 17  1  0  0  0  0
  8  6  2  0  0  0  0
  8  3  1  0  0  0  0
 11 13  1  0  0  0  0
 12 14  2  0  0  0  0
 13 14  1  0  0  0  0
 13 15  1  0  0  0  0
 14 16  1  0  0  0  0
 15 18  1  0  0  0  0
 15 10  2  0  0  0  0
 16 10  1  0  0  0  0
 16  9  2  0  0  0  0
 17 11  2  0  0  0  0
 17 12  1  0  0  0  0
 18 19  1  0  0  0  0
 18 20  1  0  0  0  0
 19 20  1  0  0  0  0
 21 22  1  0  0  0  0
 21 11  1  1  0  0  0
 23 24  1  6  0  0  0
 23 21  1  0  0  0  0
 23 22  1  0  0  0  0
 26 27  1  0  0  0  0
 26 29  2  0  0  0  0
 27 31  1  0  0  0  0
 28 24  1  0  0  0  0
 29 32  1  0  0  0  0
 30 28  1  0  0  0  0
 31 30  2  0  0  0  0
 32 25  1  0  0  0  0
 32 28  2  0  0  0  0
 33 39  1  0  0  0  0
 33  8  1  0  0  0  0
 34 38  1  1  0  0  0
 34 45  1  0  0  0  0
 35 39  1  0  0  0  0
 35 36  1  0  0  0  0
 36 48  2  0  0  0  0
 37 42  1  6  0  0  0
 37 44  1  0  0  0  0
 39 40  2  0  0  0  0
 40 48  1  0  0  0  0
 43 47  1  1  0  0  0
 43 42  1  0  0  0  0
 43 37  1  0  0  0  0
 44 46  1  0  0  0  0
 44 35  2  0  0  0  0
 45 46  2  0  0  0  0
 47 34  1  0  0  0  0
 48 41  1  0  0  0  0
M  END
>  <MODEL>
3

>  <REMARK>
 VINA RESULT:      -9.8      3.982      9.202
  Name = 
  7 active torsions:
  status: ('A' for Active; 'I' for Inactive)
    1  A    between atoms: C_8  and  C_36
    2  A    between atoms: C_11  and  C_17
    3  A    between atoms: C_15  and  C_16
    4  A    between atoms: C_15  and  C_30
    5  A    between atoms: C_22  and  N_32
    6  A    between atoms: C_26  and  C_48
    7  A    between atoms: N_32  and  C_47
                            x       y       z     vdW  Elec       q    Type
                         _______ _______ _______ _____ _____    ______ ____

>  <TORSDO>
F 7

$$$$
=
 OpenBabel10222420513D

 48 56  0  0  1  0  0  0  0  0999 V2000
  183.6280  178.6150  145.0150 F   0  0  0  0  0  0  0  0  0  0  0  0
  183.5380  178.6070  140.8630 C   0  0  0  0  0  3  0  0  0  0  0  0
  184.7120  178.2630  141.5330 C   0  0  0  0  0  3  0  0  0  0  0  0
  182.4210  178.9520  142.9870 C   0  0  0  0  0  0  0  0  0  0  0  0
  181.3540  179.3780  143.7040 F   0  0  0  0  0  0  0  0  0  0  0  0
  183.6000  178.6000  143.6580 C   0  0  0  0  0  0  0  0  0  0  0  0
  182.3800  178.9330  141.5790 C   0  0  0  0  0  0  0  0  0  0  0  0
  184.7450  178.2430  142.9300 C   0  0  0  0  0  0  0  0  0  0  0  0
  178.9310  182.7830  139.8110 O   0  0  0  0  0  0  0  0  0  0  0  0
  179.0130  181.2890  137.9620 N   0  0  0  0  0  0  0  0  0  0  0  0
  180.7320  178.7230  139.6300 C   0  0  0  0  0  0  0  0  0  0  0  0
  180.4780  180.4350  141.0700 N   0  0  0  0  0  0  0  0  0  0  0  0
  179.7160  179.4890  139.1870 N   0  0  0  0  0  0  0  0  0  0  0  0
  179.5810  180.4690  140.0670 C   0  0  0  0  0  0  0  0  0  0  0  0
  179.3700  180.0340  137.9040 C   0  0  0  0  0  0  0  0  0  0  0  0
  179.1250  181.6320  139.3430 C   0  0  0  0  0  0  0  0  0  0  0  0
  181.1620  179.2880  140.8320 C   0  0  0  0  0  0  0  0  0  0  0  0
  179.4310  179.2630  136.6210 C   0  0  0  0  0  3  0  0  0  0  0  0
  179.2720  180.2290  135.4600 C   0  0  0  0  0  2  0  0  0  0  0  0
  180.6380  179.6750  135.7940 C   0  0  0  0  0  2  0  0  0  0  0  0
  181.5000  177.7370  138.8000 C   0  0  2  0  0  3  0  0  0  0  0  0
  180.6200  176.8590  138.1420 O   0  0  0  0  0  0  0  0  0  0  0  0
  181.2520  176.3640  139.2880 C   0  0  1  0  0  3  0  0  0  0  0  0
  182.3420  175.4890  138.8980 N   0  0  0  0  0  2  0  0  0  0  0  0
  184.0430  175.8990  136.8810 F   0  0  0  0  0  0  0  0  0  0  0  0
  182.8560  172.8960  135.2350 C   0  0  0  0  0  3  0  0  0  0  0  0
  182.4680  171.9740  136.3370 C   0  0  0  0  0  2  0  0  0  0  0  0
  182.2910  174.6390  137.7440 C   0  0  0  0  0  0  0  0  0  0  0  0
  183.1890  174.1710  135.4420 C   0  0  0  0  0  3  0  0  0  0  0  0
  181.2020  173.6340  137.6700 C   0  0  0  0  0  3  0  0  0  0  0  0
  181.2480  172.4670  137.0310 C   0  0  0  0  0  3  0  0  0  0  0  0
  183.1690  174.8750  136.7430 C   0  0  0  0  0  0  0  0  0  0  0  0
  186.0130  177.8710  143.6290 C   0  0  0  0  0  2  0  0  0  0  0  0
  191.2830  176.6810  146.5100 C   0  0  1  0  0  3  0  0  0  0  0  0
  188.5800  177.6580  142.9560 C   0  0  0  0  0  0  0  0  0  0  0  0
  189.2780  177.8920  141.7400 N   0  0  0  0  0  0  0  0  0  0  0  0
  188.4390  176.9640  145.3510 C   0  0  2  0  0  3  0  0  0  0  0  0
  192.0270  175.6970  147.2770 N   0  0  0  0  0  1  0  0  0  0  0  0
  187.1900  178.0550  142.7260 C   0  0  0  0  0  0  0  0  0  0  0  0
  187.0670  178.4720  141.5140 N   0  0  0  0  0  0  0  0  0  0  0  0
  188.6640  178.7530  139.6090 N   0  0  0  0  0  1  0  0  0  0  0  0
  187.7150  178.0280  146.1590 C   0  0  0  0  0  2  0  0  0  0  0  0
  189.2070  177.9020  146.2630 C   0  0  1  0  0  3  0  0  0  0  0  0
  189.1650  177.1820  144.0690 C   0  0  0  0  0  0  0  0  0  0  0  0
  191.3900  176.3670  145.0170 C   0  0  0  0  0  3  0  0  0  0  0  0
  190.5440  176.6290  143.9940 C   0  0  0  0  0  3  0  0  0  0  0  0
  189.8930  176.8860  147.1220 C   0  0  0  0  0  2  0  0  0  0  0  0
  188.3760  178.3720  140.9510 C   0  0  0  0  0  0  0  0  0  0  0  0
  2  3  2  0  0  0  0
  2  7  1  0  0  0  0
  3  8  1  0  0  0  0
  4  6  1  0  0  0  0
  4  5  1  0  0  0  0
  6  1  1  0  0  0  0
  7  4  2  0  0  0  0
  8 33  1  0  0  0  0
  8  6  2  0  0  0  0
 10 16  1  0  0  0  0
 11 17  2  0  0  0  0
 13 11  1  0  0  0  0
 13 14  1  0  0  0  0
 14 12  2  0  0  0  0
 15 10  2  0  0  0  0
 15 13  1  0  0  0  0
 16  9  2  0  0  0  0
 16 14  1  0  0  0  0
 17 12  1  0  0  0  0
 17  7  1  0  0  0  0
 18 15  1  0  0  0  0
 19 20  1  0  0  0  0
 19 18  1  0  0  0  0
 20 18  1  0  0  0  0
 21 23  1  0  0  0  0
 21 11  1  1  0  0  0
 22 21  1  0  0  0  0
 22 23  1  0  0  0  0
 23 24  1  6  0  0  0
 26 29  2  0  0  0  0
 26 27  1  0  0  0  0
 27 31  1  0  0  0  0
 28 24  1  0  0  0  0
 29 32  1  0  0  0  0
 30 28  1  0  0  0  0
 31 30  2  0  0  0  0
 32 25  1  0  0  0  0
 32 28  2  0  0  0  0
 34 47  1  0  0  0  0
 34 38  1  1  0  0  0
 35 44  2  0  0  0  0
 36 35  1  0  0  0  0
 37 42  1  6  0  0  0
 37 43  1  0  0  0  0
 39 35  1  0  0  0  0
 39 33  1  0  0  0  0
 40 39  2  0  0  0  0
 41 48  1  0  0  0  0
 43 42  1  1  0  0  0
 43 47  1  0  0  0  0
 44 37  1  0  0  0  0
 45 34  1  0  0  0  0
 46 44  1  0  0  0  0
 46 45  2  0  0  0  0
 48 40  1  0  0  0  0
 48 36  2  0  0  0  0
M  END
>  <MODEL>
4

>  <REMARK>
 VINA RESULT:      -9.8      6.273     10.058
  Name = 
  7 active torsions:
  status: ('A' for Active; 'I' for Inactive)
    1  A    between atoms: C_8  and  C_36
    2  A    between atoms: C_11  and  C_17
    3  A    between atoms: C_15  and  C_16
    4  A    between atoms: C_15  and  C_30
    5  A    between atoms: C_22  and  N_32
    6  A    between atoms: C_26  and  C_48
    7  A    between atoms: N_32  and  C_47
                            x       y       z     vdW  Elec       q    Type
                         _______ _______ _______ _____ _____    ______ ____

>  <TORSDO>
F 7

$$$$
=
 OpenBabel10222420513D

 48 56  0  0  1  0  0  0  0  0999 V2000
  188.2270  177.7700  137.5930 F   0  0  0  0  0  0  0  0  0  0  0  0
  191.8860  176.2750  138.8660 C   0  0  0  0  0  3  0  0  0  0  0  0
  190.9190  176.6370  139.8040 C   0  0  0  0  0  3  0  0  0  0  0  0
  190.3900  176.9150  137.0690 C   0  0  0  0  0  0  0  0  0  0  0  0
  190.1530  177.1490  135.7560 F   0  0  0  0  0  0  0  0  0  0  0  0
  189.4170  177.2720  138.0130 C   0  0  0  0  0  0  0  0  0  0  0  0
  191.6250  176.3910  137.4950 C   0  0  0  0  0  0  0  0  0  0  0  0
  189.6780  177.1220  139.3840 C   0  0  0  0  0  0  0  0  0  0  0  0
  196.9050  176.3500  136.0940 O   0  0  0  0  0  0  0  0  0  0  0  0
  196.1830  174.1900  135.4080 N   0  0  0  0  0  0  0  0  0  0  0  0
  192.7520  174.7850  135.8470 C   0  0  0  0  0  0  0  0  0  0  0  0
  193.8610  176.6470  136.4600 N   0  0  0  0  0  0  0  0  0  0  0  0
  193.9690  174.7500  135.2710 N   0  0  0  0  0  0  0  0  0  0  0  0
  194.5820  175.8660  135.6340 C   0  0  0  0  0  0  0  0  0  0  0  0
  194.9830  173.7400  135.1550 C   0  0  0  0  0  0  0  0  0  0  0  0
  195.9920  175.5690  135.7240 C   0  0  0  0  0  0  0  0  0  0  0  0
  192.6730  175.9960  136.5390 C   0  0  0  0  0  0  0  0  0  0  0  0
  194.7070  172.3100  134.8040 C   0  0  0  0  0  3  0  0  0  0  0  0
  195.9220  171.4730  135.1630 C   0  0  0  0  0  2  0  0  0  0  0  0
  194.6970  171.4350  136.0470 C   0  0  0  0  0  2  0  0  0  0  0  0
  191.8540  173.6000  136.0480 C   0  0  2  0  0  3  0  0  0  0  0  0
  191.5430  173.0060  134.8120 O   0  0  0  0  0  0  0  0  0  0  0  0
  190.5590  173.8270  135.3710 C   0  0  1  0  0  3  0  0  0  0  0  0
  189.5270  173.0030  135.9740 N   0  0  0  0  0  2  0  0  0  0  0  0
  187.9370  171.7150  137.6890 F   0  0  0  0  0  0  0  0  0  0  0  0
  185.3530  174.2100  137.2050 C   0  0  0  0  0  3  0  0  0  0  0  0
  186.0810  175.4790  136.9320 C   0  0  0  0  0  2  0  0  0  0  0  0
  188.1770  173.4490  136.1600 C   0  0  0  0  0  0  0  0  0  0  0  0
  185.9630  173.0260  137.2740 C   0  0  0  0  0  3  0  0  0  0  0  0
  187.6820  174.5450  135.2900 C   0  0  0  0  0  3  0  0  0  0  0  0
  186.7390  175.4320  135.5990 C   0  0  0  0  0  3  0  0  0  0  0  0
  187.4010  172.7740  137.0380 C   0  0  0  0  0  0  0  0  0  0  0  0
  188.6560  177.5030  140.4050 C   0  0  0  0  0  2  0  0  0  0  0  0
  184.5280  179.0150  144.6680 C   0  0  1  0  0  3  0  0  0  0  0  0
  188.6450  177.8780  143.0410 C   0  0  0  0  0  0  0  0  0  0  0  0
  189.6820  177.8960  144.0140 N   0  0  0  0  0  0  0  0  0  0  0  0
  186.2570  178.0090  142.3200 C   0  0  2  0  0  3  0  0  0  0  0  0
  183.2960  178.6190  145.3280 N   0  0  0  0  0  1  0  0  0  0  0  0
  189.2940  177.7290  141.7370 C   0  0  0  0  0  0  0  0  0  0  0  0
  190.5690  177.6600  141.9080 N   0  0  0  0  0  0  0  0  0  0  0  0
  192.0550  177.7690  143.9160 N   0  0  0  0  0  1  0  0  0  0  0  0
  186.1120  179.0040  141.1820 C   0  0  0  0  0  2  0  0  0  0  0  0
  185.6640  179.3850  142.5620 C   0  0  1  0  0  3  0  0  0  0  0  0
  187.3410  178.0020  143.3420 C   0  0  0  0  0  0  0  0  0  0  0  0
  185.7120  178.2720  145.2880 C   0  0  0  0  0  3  0  0  0  0  0  0
  186.9040  177.9070  144.7610 C   0  0  0  0  0  3  0  0  0  0  0  0
  184.3480  178.9740  143.1470 C   0  0  0  0  0  2  0  0  0  0  0  0
  190.7640  177.7860  143.3170 C   0  0  0  0  0  0  0  0  0  0  0  0
  1  6  1  0  0  0  0
  2  3  1  0  0  0  0
  4  7  1  0  0  0  0
  4  6  2  0  0  0  0
  5  4  1  0  0  0  0
  6  8  1  0  0  0  0
  7  2  2  0  0  0  0
  8  3  2  0  0  0  0
  8 33  1  0  0  0  0
 10 16  1  0  0  0  0
 11 17  2  0  0  0  0
 12 17  1  0  0  0  0
 13 14  1  0  0  0  0
 13 11  1  0  0  0  0
 14 16  1  0  0  0  0
 14 12  2  0  0  0  0
 15 13  1  0  0  0  0
 15 10  2  0  0  0  0
 16  9  2  0  0  0  0
 17  7  1  0  0  0  0
 18 15  1  0  0  0  0
 18 19  1  0  0  0  0
 18 20  1  0  0  0  0
 19 20  1  0  0  0  0
 21 11  1  6  0  0  0
 22 23  1  0  0  0  0
 22 21  1  0  0  0  0
 23 24  1  1  0  0  0
 23 21  1  0  0  0  0
 24 28  1  0  0  0  0
 26 29  2  0  0  0  0
 27 26  1  0  0  0  0
 28 32  2  0  0  0  0
 30 31  2  0  0  0  0
 30 28  1  0  0  0  0
 31 27  1  0  0  0  0
 32 29  1  0  0  0  0
 32 25  1  0  0  0  0
 33 39  1  0  0  0  0
 34 45  1  0  0  0  0
 34 38  1  1  0  0  0
 35 44  2  0  0  0  0
 35 36  1  0  0  0  0
 37 42  1  6  0  0  0
 37 43  1  0  0  0  0
 37 44  1  0  0  0  0
 39 40  2  0  0  0  0
 39 35  1  0  0  0  0
 40 48  1  0  0  0  0
 43 42  1  6  0  0  0
 43 47  1  0  0  0  0
 44 46  1  0  0  0  0
 46 45  2  0  0  0  0
 47 34  1  0  0  0  0
 48 41  1  0  0  0  0
 48 36  2  0  0  0  0
M  END
>  <MODEL>
5

>  <REMARK>
 VINA RESULT:      -9.6      1.956      2.688
  Name = 
  7 active torsions:
  status: ('A' for Active; 'I' for Inactive)
    1  A    between atoms: C_8  and  C_36
    2  A    between atoms: C_11  and  C_17
    3  A    between atoms: C_15  and  C_16
    4  A    between atoms: C_15  and  C_30
    5  A    between atoms: C_22  and  N_32
    6  A    between atoms: C_26  and  C_48
    7  A    between atoms: N_32  and  C_47
                            x       y       z     vdW  Elec       q    Type
                         _______ _______ _______ _____ _____    ______ ____

>  <TORSDO>
F 7

$$$$
=
 OpenBabel10222420513D

 48 56  0  0  1  0  0  0  0  0999 V2000
  193.0920  177.8380  139.9300 F   0  0  0  0  0  0  0  0  0  0  0  0
  189.4590  176.4420  141.3790 C   0  0  0  0  0  3  0  0  0  0  0  0
  189.6300  176.6420  140.0090 C   0  0  0  0  0  3  0  0  0  0  0  0
  191.7350  177.1770  141.7760 C   0  0  0  0  0  0  0  0  0  0  0  0
  192.7290  177.5350  142.6230 F   0  0  0  0  0  0  0  0  0  0  0  0
  191.9070  177.3710  140.3990 C   0  0  0  0  0  0  0  0  0  0  0  0
  190.5110  176.6870  142.2700 C   0  0  0  0  0  0  0  0  0  0  0  0
  190.8560  177.0920  139.5110 C   0  0  0  0  0  0  0  0  0  0  0  0
  192.5850  175.7530  147.2370 O   0  0  0  0  0  0  0  0  0  0  0  0
  190.7810  177.2290  147.7120 N   0  0  0  0  0  0  0  0  0  0  0  0
  189.3430  177.1030  144.5120 C   0  0  0  0  0  0  0  0  0  0  0  0
  191.1960  175.8230  144.4880 N   0  0  0  0  0  0  0  0  0  0  0  0
  189.6340  176.7720  145.7850 N   0  0  0  0  0  0  0  0  0  0  0  0
  190.7120  176.0050  145.7310 C   0  0  0  0  0  0  0  0  0  0  0  0
  189.7180  177.5180  147.0090 C   0  0  0  0  0  0  0  0  0  0  0  0
  191.4690  176.2470  146.9360 C   0  0  0  0  0  0  0  0  0  0  0  0
  190.2880  176.4610  143.7080 C   0  0  0  0  0  0  0  0  0  0  0  0
  188.7130  178.5430  147.4390 C   0  0  0  0  0  3  0  0  0  0  0  0
  187.3720  177.8600  147.6400 C   0  0  0  0  0  2  0  0  0  0  0  0
  188.2020  178.2510  148.8400 C   0  0  0  0  0  2  0  0  0  0  0  0
  188.4650  178.2440  144.0920 C   0  0  2  0  0  3  0  0  0  0  0  0
  187.1420  178.0280  144.5220 O   0  0  0  0  0  0  0  0  0  0  0  0
  187.4100  177.7580  143.1760 C   0  0  1  0  0  3  0  0  0  0  0  0
  186.9160  178.8500  142.3570 N   0  0  0  0  0  2  0  0  0  0  0  0
  187.0670  178.5860  139.7040 F   0  0  0  0  0  0  0  0  0  0  0  0
  183.4710  178.1700  139.5170 C   0  0  0  0  0  3  0  0  0  0  0  0
  183.0870  177.5020  140.7910 C   0  0  0  0  0  2  0  0  0  0  0  0
  185.7110  178.7670  141.5840 C   0  0  0  0  0  0  0  0  0  0  0  0
  184.6980  178.6390  139.2860 C   0  0  0  0  0  3  0  0  0  0  0  0
  184.4200  178.9570  142.2890 C   0  0  0  0  0  3  0  0  0  0  0  0
  183.2460  178.4330  141.9400 C   0  0  0  0  0  3  0  0  0  0  0  0
  185.8260  178.6320  140.2430 C   0  0  0  0  0  0  0  0  0  0  0  0
  191.0190  177.2990  138.0410 C   0  0  0  0  0  2  0  0  0  0  0  0
  188.7110  172.4070  135.1680 C   0  0  1  0  0  3  0  0  0  0  0  0
  188.7370  176.6680  136.8230 C   0  0  0  0  0  0  0  0  0  0  0  0
  187.5780  177.4260  136.4990 N   0  0  0  0  0  0  0  0  0  0  0  0
  190.0740  174.5600  136.9070 C   0  0  2  0  0  3  0  0  0  0  0  0
  188.3160  171.0170  135.3110 N   0  0  0  0  0  1  0  0  0  0  0  0
  189.7040  177.6040  137.3980 C   0  0  0  0  0  0  0  0  0  0  0  0
  189.1860  178.7820  137.4220 N   0  0  0  0  0  0  0  0  0  0  0  0
  186.9910  179.7240  136.6790 N   0  0  0  0  0  1  0  0  0  0  0  0
  191.4610  174.8020  136.3380 C   0  0  0  0  0  2  0  0  0  0  0  0
  190.4420  174.0640  135.5210 C   0  0  1  0  0  3  0  0  0  0  0  0
  188.8500  175.3480  136.5920 C   0  0  0  0  0  0  0  0  0  0  0  0
  187.5970  173.3200  135.6810 C   0  0  0  0  0  3  0  0  0  0  0  0
  187.6440  174.5640  136.2120 C   0  0  0  0  0  3  0  0  0  0  0  0
  190.1330  172.6090  135.7030 C   0  0  0  0  0  2  0  0  0  0  0  0
  187.8890  178.6310  136.8440 C   0  0  0  0  0  0  0  0  0  0  0  0
  1  6  1  0  0  0  0
  2  7  1  0  0  0  0
  3  2  2  0  0  0  0
  4  7  2  0  0  0  0
  4  5  1  0  0  0  0
  6  4  1  0  0  0  0
  7 17  1  0  0  0  0
  8  3  1  0  0  0  0
  8  6  2  0  0  0  0
 11 13  1  0  0  0  0
 12 14  2  0  0  0  0
 13 15  1  0  0  0  0
 14 13  1  0  0  0  0
 14 16  1  0  0  0  0
 15 18  1  0  0  0  0
 15 10  2  0  0  0  0
 16  9  2  0  0  0  0
 16 10  1  0  0  0  0
 17 12  1  0  0  0  0
 17 11  2  0  0  0  0
 18 19  1  0  0  0  0
 18 20  1  0  0  0  0
 19 20  1  0  0  0  0
 21 11  1  1  0  0  0
 21 22  1  0  0  0  0
 23 24  1  6  0  0  0
 23 21  1  0  0  0  0
 23 22  1  0  0  0  0
 25 32  1  0  0  0  0
 26 27  1  0  0  0  0
 27 31  1  0  0  0  0
 28 30  1  0  0  0  0
 28 24  1  0  0  0  0
 29 26  2  0  0  0  0
 29 32  1  0  0  0  0
 31 30  2  0  0  0  0
 32 28  2  0  0  0  0
 33  8  1  0  0  0  0
 34 38  1  1  0  0  0
 34 45  1  0  0  0  0
 34 47  1  0  0  0  0
 35 39  1  0  0  0  0
 36 35  1  0  0  0  0
 36 48  2  0  0  0  0
 37 42  1  6  0  0  0
 39 40  2  0  0  0  0
 39 33  1  0  0  0  0
 41 48  1  0  0  0  0
 43 47  1  1  0  0  0
 43 42  1  0  0  0  0
 43 37  1  0  0  0  0
 44 35  2  0  0  0  0
 44 37  1  0  0  0  0
 45 46  2  0  0  0  0
 46 44  1  0  0  0  0
 48 40  1  0  0  0  0
M  END
>  <MODEL>
6

>  <REMARK>
 VINA RESULT:      -9.5      3.864      8.809
  Name = 
  7 active torsions:
  status: ('A' for Active; 'I' for Inactive)
    1  A    between atoms: C_8  and  C_36
    2  A    between atoms: C_11  and  C_17
    3  A    between atoms: C_15  and  C_16
    4  A    between atoms: C_15  and  C_30
    5  A    between atoms: C_22  and  N_32
    6  A    between atoms: C_26  and  C_48
    7  A    between atoms: N_32  and  C_47
                            x       y       z     vdW  Elec       q    Type
                         _______ _______ _______ _____ _____    ______ ____

>  <TORSDO>
F 7

$$$$
=
 OpenBabel10222420513D

 48 56  0  0  1  0  0  0  0  0999 V2000
  188.1830  174.7160  137.1420 F   0  0  0  0  0  0  0  0  0  0  0  0
  186.5650  178.5250  136.8010 C   0  0  0  0  0  3  0  0  0  0  0  0
  187.9340  178.3320  136.6140 C   0  0  0  0  0  3  0  0  0  0  0  0
  186.2830  176.1530  137.2140 C   0  0  0  0  0  0  0  0  0  0  0  0
  185.5160  175.1040  137.6000 F   0  0  0  0  0  0  0  0  0  0  0  0
  187.6570  175.9600  137.0190 C   0  0  0  0  0  0  0  0  0  0  0  0
  185.7260  177.4390  137.0810 C   0  0  0  0  0  0  0  0  0  0  0  0
  188.4830  177.0500  136.7070 C   0  0  0  0  0  0  0  0  0  0  0  0
  180.6370  175.4730  137.3630 O   0  0  0  0  0  0  0  0  0  0  0  0
  180.6250  177.1520  139.0480 N   0  0  0  0  0  0  0  0  0  0  0  0
  183.7110  178.5800  138.1760 C   0  0  0  0  0  0  0  0  0  0  0  0
  183.3400  176.8380  136.7980 N   0  0  0  0  0  0  0  0  0  0  0  0
  182.3880  178.3230  138.1800 N   0  0  0  0  0  0  0  0  0  0  0  0
  182.2050  177.3120  137.3450 C   0  0  0  0  0  0  0  0  0  0  0  0
  181.4070  178.1840  139.2190 C   0  0  0  0  0  0  0  0  0  0  0  0
  181.0900  176.5430  137.8430 C   0  0  0  0  0  0  0  0  0  0  0  0
  184.2870  177.6870  137.2700 C   0  0  0  0  0  0  0  0  0  0  0  0
  181.2950  179.1030  140.3970 C   0  0  0  0  0  3  0  0  0  0  0  0
  179.9540  178.8760  141.0720 C   0  0  0  0  0  2  0  0  0  0  0  0
  181.2130  178.3190  141.6960 C   0  0  0  0  0  2  0  0  0  0  0  0
  184.4450  179.3600  139.2270 C   0  0  2  0  0  3  0  0  0  0  0  0
  185.7040  178.7830  139.4740 O   0  0  0  0  0  0  0  0  0  0  0  0
  184.6990  178.5040  140.4060 C   0  0  1  0  0  3  0  0  0  0  0  0
  184.8940  179.3240  141.5870 N   0  0  0  0  0  2  0  0  0  0  0  0
  187.2230  178.1550  142.1660 F   0  0  0  0  0  0  0  0  0  0  0  0
  186.2090  177.7920  145.6270 C   0  0  0  0  0  3  0  0  0  0  0  0
  185.3270  178.9600  145.9010 C   0  0  0  0  0  2  0  0  0  0  0  0
  185.1060  178.7770  142.8950 C   0  0  0  0  0  0  0  0  0  0  0  0
  186.6490  177.4880  144.4050 C   0  0  0  0  0  3  0  0  0  0  0  0
  183.9620  178.7790  143.8410 C   0  0  0  0  0  3  0  0  0  0  0  0
  184.0390  178.8280  145.1700 C   0  0  0  0  0  3  0  0  0  0  0  0
  186.2980  178.1940  143.1530 C   0  0  0  0  0  0  0  0  0  0  0  0
  189.9520  176.8660  136.5020 C   0  0  0  0  0  2  0  0  0  0  0  0
  194.8700  173.2340  136.1610 C   0  0  1  0  0  3  0  0  0  0  0  0
  191.9840  176.2060  138.0910 C   0  0  0  0  0  0  0  0  0  0  0  0
  192.2840  176.5140  139.4470 N   0  0  0  0  0  0  0  0  0  0  0  0
  192.4750  175.1570  135.8780 C   0  0  2  0  0  3  0  0  0  0  0  0
  196.1210  172.9830  135.4670 N   0  0  0  0  0  1  0  0  0  0  0  0
  190.6640  176.7750  137.8140 C   0  0  0  0  0  0  0  0  0  0  0  0
  190.2260  177.3590  138.8750 N   0  0  0  0  0  0  0  0  0  0  0  0
  191.1300  177.6520  141.1880 N   0  0  0  0  0  1  0  0  0  0  0  0
  191.2810  174.3410  135.4140 C   0  0  0  0  0  2  0  0  0  0  0  0
  192.4920  173.6420  135.9580 C   0  0  1  0  0  3  0  0  0  0  0  0
  192.8030  175.5020  137.2900 C   0  0  0  0  0  0  0  0  0  0  0  0
  195.0680  174.3300  137.2090 C   0  0  0  0  0  3  0  0  0  0  0  0
  194.1990  175.2290  137.7260 C   0  0  0  0  0  3  0  0  0  0  0  0
  193.7270  173.3780  135.1520 C   0  0  0  0  0  2  0  0  0  0  0  0
  191.2430  177.1590  139.8570 C   0  0  0  0  0  0  0  0  0  0  0  0
  2  7  1  0  0  0  0
  3  8  1  0  0  0  0
  3  2  2  0  0  0  0
  4  5  1  0  0  0  0
  6  1  1  0  0  0  0
  6  4  1  0  0  0  0
  7  4  2  0  0  0  0
  7 17  1  0  0  0  0
  8  6  2  0  0  0  0
  9 16  2  0  0  0  0
 10 15  2  0  0  0  0
 11 13  1  0  0  0  0
 12 17  1  0  0  0  0
 12 14  2  0  0  0  0
 13 15  1  0  0  0  0
 14 16  1  0  0  0  0
 14 13  1  0  0  0  0
 15 18  1  0  0  0  0
 16 10  1  0  0  0  0
 17 11  2  0  0  0  0
 18 19  1  0  0  0  0
 18 20  1  0  0  0  0
 19 20  1  0  0  0  0
 21 11  1  6  0  0  0
 21 22  1  0  0  0  0
 21 23  1  0  0  0  0
 22 23  1  0  0  0  0
 23 24  1  1  0  0  0
 24 28  1  0  0  0  0
 25 32  1  0  0  0  0
 26 27  1  0  0  0  0
 28 32  2  0  0  0  0
 28 30  1  0  0  0  0
 29 26  2  0  0  0  0
 30 31  2  0  0  0  0
 31 27  1  0  0  0  0
 32 29  1  0  0  0  0
 33  8  1  0  0  0  0
 33 39  1  0  0  0  0
 34 38  1  6  0  0  0
 34 45  1  0  0  0  0
 35 36  1  0  0  0  0
 36 48  2  0  0  0  0
 37 42  1  1  0  0  0
 37 43  1  0  0  0  0
 37 44  1  0  0  0  0
 39 35  1  0  0  0  0
 39 40  2  0  0  0  0
 40 48  1  0  0  0  0
 42 43  1  0  0  0  0
 43 47  1  6  0  0  0
 44 46  1  0  0  0  0
 44 35  2  0  0  0  0
 45 46  2  0  0  0  0
 47 34  1  0  0  0  0
 48 41  1  0  0  0  0
M  END
>  <MODEL>
7

>  <REMARK>
 VINA RESULT:      -9.1      3.473     10.507
  Name = 
  7 active torsions:
  status: ('A' for Active; 'I' for Inactive)
    1  A    between atoms: C_8  and  C_36
    2  A    between atoms: C_11  and  C_17
    3  A    between atoms: C_15  and  C_16
    4  A    between atoms: C_15  and  C_30
    5  A    between atoms: C_22  and  N_32
    6  A    between atoms: C_26  and  C_48
    7  A    between atoms: N_32  and  C_47
                            x       y       z     vdW  Elec       q    Type
                         _______ _______ _______ _____ _____    ______ ____

>  <TORSDO>
F 7

$$$$
=
 OpenBabel10222420513D

 48 56  0  0  1  0  0  0  0  0999 V2000
  193.0830  177.6290  139.7990 F   0  0  0  0  0  0  0  0  0  0  0  0
  189.3270  176.7350  141.3270 C   0  0  0  0  0  3  0  0  0  0  0  0
  189.4830  176.9720  139.9610 C   0  0  0  0  0  3  0  0  0  0  0  0
  191.7000  177.0940  141.6660 C   0  0  0  0  0  0  0  0  0  0  0  0
  192.7650  177.2540  142.4880 F   0  0  0  0  0  0  0  0  0  0  0  0
  191.8560  177.3260  140.2930 C   0  0  0  0  0  0  0  0  0  0  0  0
  190.4320  176.7720  142.1860 C   0  0  0  0  0  0  0  0  0  0  0  0
  190.7470  177.2540  139.4360 C   0  0  0  0  0  0  0  0  0  0  0  0
  192.5570  175.7810  147.1200 O   0  0  0  0  0  0  0  0  0  0  0  0
  190.7270  177.2110  147.6350 N   0  0  0  0  0  0  0  0  0  0  0  0
  189.2710  177.1210  144.4430 C   0  0  0  0  0  0  0  0  0  0  0  0
  191.1490  175.8790  144.3820 N   0  0  0  0  0  0  0  0  0  0  0  0
  189.5760  176.7700  145.7070 N   0  0  0  0  0  0  0  0  0  0  0  0
  190.6690  176.0260  145.6310 C   0  0  0  0  0  0  0  0  0  0  0  0
  189.6540  177.4930  146.9450 C   0  0  0  0  0  0  0  0  0  0  0  0
  191.4290  176.2590  146.8360 C   0  0  0  0  0  0  0  0  0  0  0  0
  190.2230  176.5130  143.6200 C   0  0  0  0  0  0  0  0  0  0  0  0
  188.6320  178.4890  147.4020 C   0  0  0  0  0  3  0  0  0  0  0  0
  187.3380  177.7560  147.7130 C   0  0  0  0  0  2  0  0  0  0  0  0
  188.2230  178.2290  148.8430 C   0  0  0  0  0  2  0  0  0  0  0  0
  188.3670  178.2520  144.0510 C   0  0  2  0  0  3  0  0  0  0  0  0
  187.0590  178.0160  144.5120 O   0  0  0  0  0  0  0  0  0  0  0  0
  187.2960  177.7570  143.1580 C   0  0  1  0  0  3  0  0  0  0  0  0
  186.7680  178.8470  142.3580 N   0  0  0  0  0  2  0  0  0  0  0  0
  187.0200  178.6600  139.7070 F   0  0  0  0  0  0  0  0  0  0  0  0
  183.4590  178.0670  139.3850 C   0  0  0  0  0  3  0  0  0  0  0  0
  183.0680  177.3480  140.6290 C   0  0  0  0  0  2  0  0  0  0  0  0
  185.5960  178.7230  141.5420 C   0  0  0  0  0  0  0  0  0  0  0  0
  184.6670  178.6030  139.2080 C   0  0  0  0  0  3  0  0  0  0  0  0
  184.2730  178.8280  142.2070 C   0  0  0  0  0  3  0  0  0  0  0  0
  183.1410  178.2550  141.8050 C   0  0  0  0  0  3  0  0  0  0  0  0
  185.7620  178.6290  140.2040 C   0  0  0  0  0  0  0  0  0  0  0  0
  190.8920  177.5040  137.9700 C   0  0  0  0  0  2  0  0  0  0  0  0
  193.9790  172.7170  135.7230 C   0  0  1  0  0  3  0  0  0  0  0  0
  190.2970  175.2490  136.6870 C   0  0  0  0  0  0  0  0  0  0  0  0
  189.0820  174.7350  136.1570 N   0  0  0  0  0  0  0  0  0  0  0  0
  192.7370  175.1190  137.2070 C   0  0  2  0  0  3  0  0  0  0  0  0
  194.8390  171.5930  136.0490 N   0  0  0  0  0  1  0  0  0  0  0  0
  190.0040  176.5940  137.1850 C   0  0  0  0  0  0  0  0  0  0  0  0
  188.7600  176.8550  136.9820 N   0  0  0  0  0  0  0  0  0  0  0  0
  186.8750  175.5940  135.9270 N   0  0  0  0  0  1  0  0  0  0  0  0
  193.4390  176.3740  136.7200 C   0  0  0  0  0  2  0  0  0  0  0  0
  193.5870  175.0950  135.9500 C   0  0  1  0  0  3  0  0  0  0  0  0
  191.4580  174.5700  136.6750 C   0  0  0  0  0  0  0  0  0  0  0  0
  192.5190  172.3510  135.9950 C   0  0  0  0  0  3  0  0  0  0  0  0
  191.4580  173.1230  136.3270 C   0  0  0  0  0  3  0  0  0  0  0  0
  194.5410  174.0050  136.3310 C   0  0  0  0  0  2  0  0  0  0  0  0
  188.2360  175.6960  136.3330 C   0  0  0  0  0  0  0  0  0  0  0  0
  1  6  1  0  0  0  0
  2  7  1  0  0  0  0
  3  2  2  0  0  0  0
  4  7  2  0  0  0  0
  4  5  1  0  0  0  0
  6  4  1  0  0  0  0
  7 17  1  0  0  0  0
  8  3  1  0  0  0  0
  8  6  2  0  0  0  0
 11 13  1  0  0  0  0
 12 14  2  0  0  0  0
 13 15  1  0  0  0  0
 14 13  1  0  0  0  0
 14 16  1  0  0  0  0
 15 18  1  0  0  0  0
 15 10  2  0  0  0  0
 16  9  2  0  0  0  0
 16 10  1  0  0  0  0
 17 12  1  0  0  0  0
 17 11  2  0  0  0  0
 18 19  1  0  0  0  0
 18 20  1  0  0  0  0
 19 20  1  0  0  0  0
 21 11  1  1  0  0  0
 21 22  1  0  0  0  0
 23 24  1  6  0  0  0
 23 21  1  0  0  0  0
 23 22  1  0  0  0  0
 25 32  1  0  0  0  0
 26 27  1  0  0  0  0
 27 31  1  0  0  0  0
 28 30  1  0  0  0  0
 28 24  1  0  0  0  0
 29 26  2  0  0  0  0
 29 32  1  0  0  0  0
 31 30  2  0  0  0  0
 32 28  2  0  0  0  0
 33  8  1  0  0  0  0
 34 45  1  0  0  0  0
 34 38  1  1  0  0  0
 34 47  1  0  0  0  0
 35 39  1  0  0  0  0
 36 48  2  0  0  0  0
 36 35  1  0  0  0  0
 37 42  1  6  0  0  0
 39 33  1  0  0  0  0
 40 39  2  0  0  0  0
 41 48  1  0  0  0  0
 43 47  1  1  0  0  0
 43 42  1  0  0  0  0
 43 37  1  0  0  0  0
 44 35  2  0  0  0  0
 44 37  1  0  0  0  0
 45 46  2  0  0  0  0
 46 44  1  0  0  0  0
 48 40  1  0  0  0  0
M  END
>  <MODEL>
8

>  <REMARK>
 VINA RESULT:      -9.0      3.509      9.237
  Name = 
  7 active torsions:
  status: ('A' for Active; 'I' for Inactive)
    1  A    between atoms: C_8  and  C_36
    2  A    between atoms: C_11  and  C_17
    3  A    between atoms: C_15  and  C_16
    4  A    between atoms: C_15  and  C_30
    5  A    between atoms: C_22  and  N_32
    6  A    between atoms: C_26  and  C_48
    7  A    between atoms: N_32  and  C_47
                            x       y       z     vdW  Elec       q    Type
                         _______ _______ _______ _____ _____    ______ ____

>  <TORSDO>
F 7

$$$$
=
 OpenBabel10222420513D

 48 56  0  0  1  0  0  0  0  0999 V2000
  185.1180  177.9340  136.4570 F   0  0  0  0  0  0  0  0  0  0  0  0
  183.1320  176.6390  139.8670 C   0  0  0  0  0  3  0  0  0  0  0  0
  183.0250  175.9110  138.6810 C   0  0  0  0  0  3  0  0  0  0  0  0
  184.5800  178.2370  138.7600 C   0  0  0  0  0  0  0  0  0  0  0  0
  185.2560  179.4120  138.7530 F   0  0  0  0  0  0  0  0  0  0  0  0
  184.4770  177.5010  137.5720 C   0  0  0  0  0  0  0  0  0  0  0  0
  183.9240  177.7920  139.9240 C   0  0  0  0  0  0  0  0  0  0  0  0
  183.7060  176.3290  137.5350 C   0  0  0  0  0  0  0  0  0  0  0  0
  181.5920  179.2960  144.6290 O   0  0  0  0  0  0  0  0  0  0  0  0
  183.8500  178.9270  145.2790 N   0  0  0  0  0  0  0  0  0  0  0  0
  185.1310  178.6230  142.0250 C   0  0  0  0  0  0  0  0  0  0  0  0
  182.9080  178.9440  141.8660 N   0  0  0  0  0  0  0  0  0  0  0  0
  184.7110  179.1860  143.1750 N   0  0  0  0  0  0  0  0  0  0  0  0
  183.4090  179.3800  143.0380 C   0  0  0  0  0  0  0  0  0  0  0  0
  184.9420  178.8970  144.5620 C   0  0  0  0  0  0  0  0  0  0  0  0
  182.8160  179.2390  144.3460 C   0  0  0  0  0  0  0  0  0  0  0  0
  184.0110  178.5290  141.1950 C   0  0  0  0  0  0  0  0  0  0  0  0
  186.2860  178.5720  145.1400 C   0  0  0  0  0  3  0  0  0  0  0  0
  186.0970  178.0150  146.5400 C   0  0  0  0  0  2  0  0  0  0  0  0
  186.4210  177.0800  145.3980 C   0  0  0  0  0  2  0  0  0  0  0  0
  186.4210  177.8780  141.8450 C   0  0  2  0  0  3  0  0  0  0  0  0
  187.5050  178.6630  142.2790 O   0  0  0  0  0  0  0  0  0  0  0  0
  187.2950  178.6030  140.8980 C   0  0  1  0  0  3  0  0  0  0  0  0
  188.2540  177.6910  140.3030 N   0  0  0  0  0  2  0  0  0  0  0  0
  190.1230  176.0140  139.3950 F   0  0  0  0  0  0  0  0  0  0  0  0
  189.8430  177.4550  136.0820 C   0  0  0  0  0  3  0  0  0  0  0  0
  188.4220  177.8830  135.9600 C   0  0  0  0  0  2  0  0  0  0  0  0
  188.7410  177.8310  138.9610 C   0  0  0  0  0  0  0  0  0  0  0  0
  190.3740  177.0260  137.2270 C   0  0  0  0  0  3  0  0  0  0  0  0
  188.2660  178.9930  138.1690 C   0  0  0  0  0  3  0  0  0  0  0  0
  188.1460  179.0470  136.8440 C   0  0  0  0  0  3  0  0  0  0  0  0
  189.6860  176.9630  138.5350 C   0  0  0  0  0  0  0  0  0  0  0  0
  183.5780  175.5350  136.2760 C   0  0  0  0  0  2  0  0  0  0  0  0
  189.1020  172.9570  135.6910 C   0  0  1  0  0  3  0  0  0  0  0  0
  184.6640  173.1540  136.7680 C   0  0  0  0  0  0  0  0  0  0  0  0
  184.1120  171.9150  137.1960 N   0  0  0  0  0  0  0  0  0  0  0  0
  186.5540  174.6460  136.1050 C   0  0  2  0  0  3  0  0  0  0  0  0
  190.4900  173.0030  136.1140 N   0  0  0  0  0  1  0  0  0  0  0  0
  183.5390  174.0700  136.5740 C   0  0  0  0  0  0  0  0  0  0  0  0
  182.4430  173.4560  136.8570 N   0  0  0  0  0  0  0  0  0  0  0  0
  181.9030  171.1270  137.5900 N   0  0  0  0  0  1  0  0  0  0  0  0
  186.2370  175.3320  134.7880 C   0  0  0  0  0  2  0  0  0  0  0  0
  187.2130  174.1920  134.8150 C   0  0  1  0  0  3  0  0  0  0  0  0
  185.9800  173.3560  136.5800 C   0  0  0  0  0  0  0  0  0  0  0  0
  188.2620  172.2250  136.7400 C   0  0  0  0  0  3  0  0  0  0  0  0
  186.9540  172.3430  137.0670 C   0  0  0  0  0  3  0  0  0  0  0  0
  188.6470  174.3410  135.2190 C   0  0  0  0  0  2  0  0  0  0  0  0
  182.8390  172.1320  137.2160 C   0  0  0  0  0  0  0  0  0  0  0  0
  1  6  1  0  0  0  0
  2  7  1  0  0  0  0
  3  2  2  0  0  0  0
  4  7  2  0  0  0  0
  5  4  1  0  0  0  0
  6  4  1  0  0  0  0
  7 17  1  0  0  0  0
  8  6  2  0  0  0  0
  8  3  1  0  0  0  0
 11 13  1  0  0  0  0
 12 14  2  0  0  0  0
 13 15  1  0  0  0  0
 14 13  1  0  0  0  0
 14 16  1  0  0  0  0
 15 18  1  0  0  0  0
 15 10  2  0  0  0  0
 16  9  2  0  0  0  0
 16 10  1  0  0  0  0
 17 12  1  0  0  0  0
 17 11  2  0  0  0  0
 18 20  1  0  0  0  0
 18 19  1  0  0  0  0
 20 19  1  0  0  0  0
 21 11  1  1  0  0  0
 21 22  1  0  0  0  0
 23 24  1  6  0  0  0
 23 21  1  0  0  0  0
 23 22  1  0  0  0  0
 26 29  2  0  0  0  0
 27 26  1  0  0  0  0
 27 31  1  0  0  0  0
 28 24  1  0  0  0  0
 29 32  1  0  0  0  0
 30 28  1  0  0  0  0
 31 30  2  0  0  0  0
 32 28  2  0  0  0  0
 32 25  1  0  0  0  0
 33 39  1  0  0  0  0
 33  8  1  0  0  0  0
 34 38  1  1  0  0  0
 34 45  1  0  0  0  0
 35 36  1  0  0  0  0
 36 48  2  0  0  0  0
 37 42  1  6  0  0  0
 37 44  1  0  0  0  0
 39 35  1  0  0  0  0
 39 40  2  0  0  0  0
 40 48  1  0  0  0  0
 43 42  1  6  0  0  0
 43 47  1  0  0  0  0
 43 37  1  0  0  0  0
 44 35  2  0  0  0  0
 44 46  1  0  0  0  0
 45 46  2  0  0  0  0
 47 34  1  0  0  0  0
 48 41  1  0  0  0  0
M  END
>  <MODEL>
9

>  <REMARK>
 VINA RESULT:      -9.0      3.900     10.010
  Name = 
  7 active torsions:
  status: ('A' for Active; 'I' for Inactive)
    1  A    between atoms: C_8  and  C_36
    2  A    between atoms: C_11  and  C_17
    3  A    between atoms: C_15  and  C_16
    4  A    between atoms: C_15  and  C_30
    5  A    between atoms: C_22  and  N_32
    6  A    between atoms: C_26  and  C_48
    7  A    between atoms: N_32  and  C_47
                            x       y       z     vdW  Elec       q    Type
                         _______ _______ _______ _____ _____    ______ ____

>  <TORSDO>
F 7

$$$$
