=
 OpenBabel10222417243D

 57 64  0  0  1  0  0  0  0  0999 V2000
  182.5660  177.7470  136.2240 C   0  0  2  0  0  3  0  0  0  0  0  0
  181.5840  178.2490  137.2990 C   0  0  0  0  0  0  0  0  0  0  0  0
  182.0730  177.8350  134.8970 O   0  0  0  0  0  0  0  0  0  0  0  0
  180.1130  179.0290  135.4800 C   0  0  0  0  0  2  0  0  0  0  0  0
  180.4060  178.7980  136.9320 C   0  0  0  0  0  0  0  0  0  0  0  0
  181.4220  179.0620  134.7110 C   0  0  0  0  0  2  0  0  0  0  0  0
  185.3170  176.9510  136.0980 O   0  0  0  0  0  0  0  0  0  0  0  0
  184.4710  173.2600  136.2260 C   0  0  1  0  0  0  0  0  0  0  0  0
  185.5220  173.5710  137.0640 C   0  0  2  0  0  3  0  0  0  0  0  0
  184.4740  176.0190  136.1970 C   0  0  0  0  0  0  0  0  0  0  0  0
  184.7010  172.6940  134.9820 F   0  0  0  0  0  0  0  0  0  0  0  0
  183.0070  176.2860  136.4350 C   0  0  2  0  0  3  0  0  0  0  0  0
  183.0690  173.1830  136.8160 C   0  0  0  0  0  2  0  0  0  0  0  0
  182.0870  173.9460  135.9610 C   0  0  0  0  0  3  0  0  0  0  0  0
  184.9150  174.6770  136.2580 N   0  0  0  0  0  0  0  0  0  0  0  0
  182.0700  175.2830  135.7920 C   0  0  0  0  0  3  0  0  0  0  0  0
  186.8880  173.2220  136.4970 C   0  0  0  0  0  2  0  0  0  0  0  0
  187.9110  173.8620  137.3110 N   0  0  0  0  0  2  0  0  0  0  0  0
  188.4990  175.4870  135.7340 O   0  0  0  0  0  0  0  0  0  0  0  0
  188.8150  174.8270  136.7640 C   0  0  0  0  0  0  0  0  0  0  0  0
  191.4740  176.3880  139.0110 C   0  0  1  0  0  3  0  0  0  0  0  0
  190.1050  176.1400  138.3870 C   0  0  0  0  0  2  0  0  0  0  0  0
  193.0750  174.3820  137.4780 O   0  0  0  0  0  1  0  0  0  0  0  0
  191.2080  175.3150  136.2850 C   0  0  0  0  0  2  0  0  0  0  0  0
  192.5880  175.5560  136.9000 C   0  0  1  0  0  3  0  0  0  0  0  0
  190.1660  175.0090  137.3650 C   0  0  2  0  0  3  0  0  0  0  0  0
  192.5320  176.6770  137.9400 C   0  0  0  0  0  2  0  0  0  0  0  0
  191.4050  177.4870  140.0760 C   0  0  0  0  0  2  0  0  0  0  0  0
  189.9770  175.7090  143.1980 C   0  0  0  0  0  2  0  0  0  0  0  0
  190.5100  177.1710  141.2360 C   0  0  0  0  0  0  0  0  0  0  0  0
  191.0580  176.5330  142.4910 C   0  0  0  0  0  2  0  0  0  0  0  0
  189.2480  177.6130  141.2180 C   0  0  0  0  0  3  0  0  0  0  0  0
  188.3410  177.3500  142.3520 C   0  0  0  0  0  3  0  0  0  0  0  0
  188.6920  176.4860  143.3070 C   0  0  0  0  0  3  0  0  0  0  0  0
  179.5790  180.5930  138.5600 C   0  0  0  0  0  0  0  0  0  0  0  0
  179.2460  180.6880  139.7710 O   0  0  0  0  0  0  0  0  0  0  0  0
  179.5110  179.3040  137.9340 N   0  0  0  0  0  2  0  0  0  0  0  0
  179.0370  182.4780  137.0080 C   0  0  0  0  0  3  0  0  0  0  0  0
  180.6420  184.1240  136.4640 C   0  0  0  0  0  3  0  0  0  0  0  0
  181.2510  182.3650  137.9230 C   0  0  0  0  0  0  0  0  0  0  0  0
  179.3890  183.6140  136.3500 N   0  0  0  0  0  0  0  0  0  0  0  0
  182.2040  181.7710  138.6850 F   0  0  0  0  0  0  0  0  0  0  0  0
  181.5600  183.5010  137.2440 N   0  0  0  0  0  0  0  0  0  0  0  0
  179.9670  181.8100  137.8130 C   0  0  0  0  0  0  0  0  0  0  0  0
  181.9940  178.3630  138.7100 C   0  0  0  0  0  3  0  0  0  0  0  0
  183.1850  178.7250  139.0550 N   0  0  0  0  0  0  0  0  0  0  0  0
  184.8400  179.0380  144.9180 C   0  0  0  0  0  0  0  0  0  0  0  0
  183.2820  178.9970  142.6270 C   0  0  0  0  0  0  0  0  0  0  0  0
  185.1790  178.9730  140.9770 S   0  0  0  0  0  0  0  0  0  0  0  0
  184.6640  179.0340  142.5730 C   0  0  0  0  0  0  0  0  0  0  0  0
  183.5680  178.8980  140.4180 C   0  0  0  0  0  0  0  0  0  0  0  0
  185.4370  179.0410  143.6890 N   0  0  0  0  0  0  0  0  0  0  0  0
  183.4350  178.9980  145.0250 C   0  0  0  0  0  3  0  0  0  0  0  0
  182.6420  178.9780  143.8630 C   0  0  0  0  0  3  0  0  0  0  0  0
  182.6590  178.9180  141.4250 N   0  0  0  0  0  0  0  0  0  0  0  0
  185.0520  178.1700  147.1550 N   0  0  0  0  0  1  0  0  0  0  0  0
  185.6850  179.0060  146.1480 C   0  0  0  0  0  2  0  0  0  0  0  0
  1  3  1  6  0  0  0
  1 12  1  0  0  0  0
  1  2  1  0  0  0  0
  2 45  1  0  0  0  0
  4  5  1  0  0  0  0
  5  2  2  0  0  0  0
  5 37  1  0  0  0  0
  6  3  1  0  0  0  0
  6  4  1  0  0  0  0
  7 10  2  0  0  0  0
  8 11  1  6  0  0  0
  8 15  1  0  0  0  0
  8 13  1  0  0  0  0
  8  9  1  0  0  0  0
  9 17  1  6  0  0  0
 10 15  1  0  0  0  0
 10 12  1  0  0  0  0
 12 16  1  6  0  0  0
 14 13  1  0  0  0  0
 15  9  1  0  0  0  0
 16 14  2  0  0  0  0
 17 18  1  0  0  0  0
 19 20  2  0  0  0  0
 20 18  1  0  0  0  0
 21 28  1  1  0  0  0
 22 21  1  0  0  0  0
 24 25  1  0  0  0  0
 24 26  1  0  0  0  0
 25 23  1  1  0  0  0
 25 27  1  0  0  0  0
 26 20  1  6  0  0  0
 26 22  1  0  0  0  0
 27 21  1  0  0  0  0
 28 30  1  0  0  0  0
 29 34  1  0  0  0  0
 30 31  1  0  0  0  0
 31 29  1  0  0  0  0
 32 30  2  0  0  0  0
 32 33  1  0  0  0  0
 33 34  2  0  0  0  0
 35 36  2  0  0  0  0
 37 35  1  0  0  0  0
 38 44  1  0  0  0  0
 39 43  2  0  0  0  0
 40 42  1  0  0  0  0
 41 39  1  0  0  0  0
 41 38  2  0  0  0  0
 43 40  1  0  0  0  0
 44 40  2  0  0  0  0
 44 35  1  0  0  0  0
 45 46  2  0  0  0  0
 46 51  1  0  0  0  0
 47 53  1  0  0  0  0
 47 57  1  0  0  0  0
 48 54  1  0  0  0  0
 49 50  1  0  0  0  0
 50 48  2  0  0  0  0
 50 52  1  0  0  0  0
 51 49  1  0  0  0  0
 51 55  2  0  0  0  0
 52 47  2  0  0  0  0
 54 53  2  0  0  0  0
 55 48  1  0  0  0  0
 57 56  1  0  0  0  0
M  END
>  <MODEL>
1

>  <REMARK>
 VINA RESULT:      -8.5      0.000      0.000
  Name = 
  11 active torsions:
  status: ('A' for Active; 'I' for Inactive)
    1  A    between atoms: C_2  and  N_19
    2  A    between atoms: C_2  and  C_24
    3  A    between atoms: C_3  and  C_8
    4  A    between atoms: C_4  and  C_9
    5  A    between atoms: C_5  and  C_49
    6  A    between atoms: C_9  and  C_20
    7  A    between atoms: C_14  and  C_41
    8  A    between atoms: C_15  and  C_30
    9  A    between atoms: C_18  and  N_35
   10  A    between atoms: C_46  and  N_51
   11  A    between atoms: C_54  and  C_56
                            x       y       z     vdW  Elec       q    Type
                         _______ _______ _______ _____ _____    ______ ____

>  <TORSDO>
F 11

$$$$
=
 OpenBabel10222417243D

 57 64  0  0  1  0  0  0  0  0999 V2000
  181.6170  176.1140  137.4500 C   0  0  2  0  0  3  0  0  0  0  0  0
  182.9320  176.2930  136.6690 C   0  0  0  0  0  0  0  0  0  0  0  0
  180.4850  175.8610  136.6330 O   0  0  0  0  0  0  0  0  0  0  0  0
  181.7200  175.6340  134.6260 C   0  0  0  0  0  2  0  0  0  0  0  0
  182.9510  176.1190  135.3310 C   0  0  0  0  0  0  0  0  0  0  0  0
  180.8160  174.9410  135.6300 C   0  0  0  0  0  2  0  0  0  0  0  0
  182.1210  176.1460  140.2710 O   0  0  0  0  0  0  0  0  0  0  0  0
  180.2010  179.3710  140.7890 C   0  0  1  0  0  0  0  0  0  0  0  0
  181.3980  179.3760  141.4750 C   0  0  2  0  0  3  0  0  0  0  0  0
  181.4660  177.1210  139.8140 C   0  0  0  0  0  0  0  0  0  0  0  0
  179.0120  179.0950  141.4440 F   0  0  0  0  0  0  0  0  0  0  0  0
  181.2620  177.3270  138.3330 C   0  0  2  0  0  3  0  0  0  0  0  0
  180.1440  180.0360  139.4210 C   0  0  0  0  0  2  0  0  0  0  0  0
  179.4590  179.1400  138.4190 C   0  0  0  0  0  3  0  0  0  0  0  0
  181.0460  178.1550  140.6840 N   0  0  0  0  0  0  0  0  0  0  0  0
  179.9400  177.9670  137.9600 C   0  0  0  0  0  3  0  0  0  0  0  0
  181.2630  179.0750  142.9580 C   0  0  0  0  0  2  0  0  0  0  0  0
  182.4770  179.5040  143.6370 N   0  0  0  0  0  2  0  0  0  0  0  0
  183.9560  178.3090  142.2740 O   0  0  0  0  0  0  0  0  0  0  0  0
  183.7430  178.8930  143.3750 C   0  0  0  0  0  0  0  0  0  0  0  0
  186.9910  177.8320  145.0710 C   0  0  1  0  0  3  0  0  0  0  0  0
  185.8990  177.9090  144.0100 C   0  0  0  0  0  2  0  0  0  0  0  0
  185.8150  179.6750  147.1100 O   0  0  0  0  0  1  0  0  0  0  0  0
  184.2100  178.4730  145.7830 C   0  0  0  0  0  2  0  0  0  0  0  0
  185.2970  178.4020  146.8580 C   0  0  1  0  0  3  0  0  0  0  0  0
  184.7970  178.8770  144.4280 C   0  0  2  0  0  3  0  0  0  0  0  0
  186.4160  177.4460  146.4390 C   0  0  0  0  0  2  0  0  0  0  0  0
  188.1250  176.9000  144.6310 C   0  0  0  0  0  2  0  0  0  0  0  0
  191.7430  176.3440  145.8760 C   0  0  0  0  0  2  0  0  0  0  0  0
  189.3380  176.9390  145.5110 C   0  0  0  0  0  0  0  0  0  0  0  0
  190.7270  176.9790  144.9200 C   0  0  0  0  0  2  0  0  0  0  0  0
  189.1760  177.1070  146.8270 C   0  0  0  0  0  3  0  0  0  0  0  0
  190.3430  177.1800  147.7280 C   0  0  0  0  0  3  0  0  0  0  0  0
  191.5590  176.8600  147.2780 C   0  0  0  0  0  3  0  0  0  0  0  0
  185.3120  175.3560  134.6960 C   0  0  0  0  0  0  0  0  0  0  0  0
  186.4680  175.8460  134.6010 O   0  0  0  0  0  0  0  0  0  0  0  0
  184.1880  176.2430  134.6110 N   0  0  0  0  0  2  0  0  0  0  0  0
  183.8830  173.3050  134.7320 C   0  0  0  0  0  3  0  0  0  0  0  0
  184.8230  171.1540  135.0050 C   0  0  0  0  0  3  0  0  0  0  0  0
  186.2510  173.0400  135.0060 C   0  0  0  0  0  0  0  0  0  0  0  0
  183.7430  171.9560  134.8230 N   0  0  0  0  0  0  0  0  0  0  0  0
  187.5080  173.5400  135.1100 F   0  0  0  0  0  0  0  0  0  0  0  0
  186.0630  171.6970  135.0950 N   0  0  0  0  0  0  0  0  0  0  0  0
  185.1490  173.8920  134.8300 C   0  0  0  0  0  0  0  0  0  0  0  0
  184.2230  176.4160  137.3720 C   0  0  0  0  0  3  0  0  0  0  0  0
  184.8460  177.5420  137.4760 N   0  0  0  0  0  0  0  0  0  0  0  0
  189.9500  177.7670  140.8100 C   0  0  0  0  0  0  0  0  0  0  0  0
  187.3590  178.2210  139.9390 C   0  0  0  0  0  0  0  0  0  0  0  0
  187.5560  176.9850  137.7580 S   0  0  0  0  0  0  0  0  0  0  0  0
  188.2780  177.5270  139.1730 C   0  0  0  0  0  0  0  0  0  0  0  0
  186.0630  177.6800  138.2070 C   0  0  0  0  0  0  0  0  0  0  0  0
  189.5470  177.2880  139.5960 N   0  0  0  0  0  0  0  0  0  0  0  0
  189.0490  178.4770  141.6280 C   0  0  0  0  0  3  0  0  0  0  0  0
  187.7330  178.7100  141.1870 C   0  0  0  0  0  3  0  0  0  0  0  0
  186.1140  178.3090  139.4080 N   0  0  0  0  0  0  0  0  0  0  0  0
  192.2630  177.5300  140.1830 N   0  0  0  0  0  1  0  0  0  0  0  0
  191.3310  177.4740  141.2960 C   0  0  0  0  0  2  0  0  0  0  0  0
  1  3  1  6  0  0  0
  1 12  1  0  0  0  0
  2 45  1  0  0  0  0
  2  1  1  0  0  0  0
  4  5  1  0  0  0  0
  4  6  1  0  0  0  0
  5  2  2  0  0  0  0
  6  3  1  0  0  0  0
  8 11  1  1  0  0  0
  8  9  1  0  0  0  0
  9 17  1  1  0  0  0
 10  7  2  0  0  0  0
 10 15  1  0  0  0  0
 12 16  1  1  0  0  0
 12 10  1  0  0  0  0
 13  8  1  0  0  0  0
 14 13  1  0  0  0  0
 15  8  1  0  0  0  0
 15  9  1  0  0  0  0
 16 14  2  0  0  0  0
 17 18  1  0  0  0  0
 19 20  2  0  0  0  0
 20 18  1  0  0  0  0
 21 28  1  6  0  0  0
 21 27  1  0  0  0  0
 22 26  1  0  0  0  0
 22 21  1  0  0  0  0
 24 25  1  0  0  0  0
 25 23  1  6  0  0  0
 26 20  1  6  0  0  0
 26 24  1  0  0  0  0
 27 25  1  0  0  0  0
 28 30  1  0  0  0  0
 29 34  1  0  0  0  0
 30 32  2  0  0  0  0
 31 30  1  0  0  0  0
 31 29  1  0  0  0  0
 32 33  1  0  0  0  0
 34 33  2  0  0  0  0
 35 44  1  0  0  0  0
 36 35  2  0  0  0  0
 37 35  1  0  0  0  0
 37  5  1  0  0  0  0
 38 41  2  0  0  0  0
 38 44  1  0  0  0  0
 39 43  2  0  0  0  0
 40 43  1  0  0  0  0
 40 42  1  0  0  0  0
 41 39  1  0  0  0  0
 44 40  2  0  0  0  0
 45 46  2  0  0  0  0
 46 51  1  0  0  0  0
 47 57  1  0  0  0  0
 47 53  1  0  0  0  0
 48 54  1  0  0  0  0
 49 51  1  0  0  0  0
 49 50  1  0  0  0  0
 50 52  1  0  0  0  0
 50 48  2  0  0  0  0
 51 55  2  0  0  0  0
 52 47  2  0  0  0  0
 54 53  2  0  0  0  0
 55 48  1  0  0  0  0
 56 57  1  0  0  0  0
M  END
>  <MODEL>
2

>  <REMARK>
 VINA RESULT:      -8.3      3.098      7.815
  Name = 
  11 active torsions:
  status: ('A' for Active; 'I' for Inactive)
    1  A    between atoms: C_2  and  N_19
    2  A    between atoms: C_2  and  C_24
    3  A    between atoms: C_3  and  C_8
    4  A    between atoms: C_4  and  C_9
    5  A    between atoms: C_5  and  C_49
    6  A    between atoms: C_9  and  C_20
    7  A    between atoms: C_14  and  C_41
    8  A    between atoms: C_15  and  C_30
    9  A    between atoms: C_18  and  N_35
   10  A    between atoms: C_46  and  N_51
   11  A    between atoms: C_54  and  C_56
                            x       y       z     vdW  Elec       q    Type
                         _______ _______ _______ _____ _____    ______ ____

>  <TORSDO>
F 11

$$$$
=
 OpenBabel10222417243D

 57 64  0  0  1  0  0  0  0  0999 V2000
  183.3400  177.3830  137.0920 C   0  0  2  0  0  3  0  0  0  0  0  0
  182.4100  177.6650  138.2860 C   0  0  0  0  0  0  0  0  0  0  0  0
  182.7200  177.5250  135.8240 O   0  0  0  0  0  0  0  0  0  0  0  0
  180.6990  178.4160  136.6780 C   0  0  0  0  0  2  0  0  0  0  0  0
  181.1490  178.0960  138.0720 C   0  0  0  0  0  0  0  0  0  0  0  0
  181.9190  178.6750  135.8120 C   0  0  0  0  0  2  0  0  0  0  0  0
  185.6640  176.7070  135.5560 O   0  0  0  0  0  0  0  0  0  0  0  0
  185.3710  173.0140  136.3490 C   0  0  1  0  0  0  0  0  0  0  0  0
  186.6710  173.4590  136.4690 C   0  0  2  0  0  3  0  0  0  0  0  0
  185.0950  175.7520  136.1510 C   0  0  0  0  0  0  0  0  0  0  0  0
  184.9570  172.3340  135.2150 F   0  0  0  0  0  0  0  0  0  0  0  0
  183.9620  175.9730  137.1230 C   0  0  2  0  0  3  0  0  0  0  0  0
  184.5120  172.9320  137.6030 C   0  0  0  0  0  2  0  0  0  0  0  0
  183.1580  173.5560  137.3650 C   0  0  0  0  0  3  0  0  0  0  0  0
  185.6270  174.4450  136.0490 N   0  0  0  0  0  0  0  0  0  0  0  0
  182.9270  174.8660  137.1490 C   0  0  0  0  0  3  0  0  0  0  0  0
  187.5540  173.1170  135.2800 C   0  0  0  0  0  2  0  0  0  0  0  0
  188.8330  173.7950  135.4340 N   0  0  0  0  0  2  0  0  0  0  0  0
  190.1600  171.9020  135.0780 O   0  0  0  0  0  0  0  0  0  0  0  0
  190.0610  173.0710  135.5480 C   0  0  0  0  0  0  0  0  0  0  0  0
  191.8400  175.4190  137.9720 C   0  0  1  0  0  3  0  0  0  0  0  0
  190.6940  174.7570  137.2130 C   0  0  0  0  0  2  0  0  0  0  0  0
  194.1370  173.9270  136.7760 O   0  0  0  0  0  1  0  0  0  0  0  0
  192.2520  174.2280  135.3140 C   0  0  0  0  0  2  0  0  0  0  0  0
  193.4110  174.8860  136.0660 C   0  0  1  0  0  3  0  0  0  0  0  0
  191.2120  173.6630  136.2860 C   0  0  2  0  0  3  0  0  0  0  0  0
  192.8990  175.9730  137.0130 C   0  0  0  0  0  2  0  0  0  0  0  0
  191.3170  176.4820  138.9440 C   0  0  0  0  0  2  0  0  0  0  0  0
  187.5940  177.4390  138.5300 C   0  0  0  0  0  2  0  0  0  0  0  0
  190.0860  177.1990  138.4770 C   0  0  0  0  0  0  0  0  0  0  0  0
  188.8730  177.3220  139.3670 C   0  0  0  0  0  2  0  0  0  0  0  0
  190.1300  177.8750  137.3240 C   0  0  0  0  0  3  0  0  0  0  0  0
  188.9500  178.6180  136.8400 C   0  0  0  0  0  3  0  0  0  0  0  0
  187.7630  178.4480  137.4260 C   0  0  0  0  0  3  0  0  0  0  0  0
  180.1410  179.6830  139.8110 C   0  0  0  0  0  0  0  0  0  0  0  0
  179.9560  179.7240  141.0560 O   0  0  0  0  0  0  0  0  0  0  0  0
  180.2970  178.4010  139.1880 N   0  0  0  0  0  2  0  0  0  0  0  0
  178.9310  181.6130  138.7810 C   0  0  0  0  0  3  0  0  0  0  0  0
  180.0920  183.3260  137.6400 C   0  0  0  0  0  3  0  0  0  0  0  0
  181.3180  181.5270  138.5640 C   0  0  0  0  0  0  0  0  0  0  0  0
  178.9320  182.7850  138.0920 N   0  0  0  0  0  0  0  0  0  0  0  0
  182.5190  180.9300  138.7690 F   0  0  0  0  0  0  0  0  0  0  0  0
  181.2700  182.6990  137.8760 N   0  0  0  0  0  0  0  0  0  0  0  0
  180.1320  180.9400  139.0310 C   0  0  0  0  0  0  0  0  0  0  0  0
  182.9320  177.7050  139.6650 C   0  0  0  0  0  3  0  0  0  0  0  0
  183.9730  178.3980  139.9870 N   0  0  0  0  0  0  0  0  0  0  0  0
  185.9290  178.3730  145.7660 C   0  0  0  0  0  0  0  0  0  0  0  0
  184.2860  178.6350  143.5490 C   0  0  0  0  0  0  0  0  0  0  0  0
  186.0660  178.2600  141.8130 S   0  0  0  0  0  0  0  0  0  0  0  0
  185.6460  178.4110  143.4310 C   0  0  0  0  0  0  0  0  0  0  0  0
  184.4460  178.4910  141.3300 C   0  0  0  0  0  0  0  0  0  0  0  0
  186.4580  178.2680  144.5100 N   0  0  0  0  0  0  0  0  0  0  0  0
  184.5490  178.5980  145.9370 C   0  0  0  0  0  3  0  0  0  0  0  0
  183.7120  178.7320  144.8130 C   0  0  0  0  0  3  0  0  0  0  0  0
  183.6040  178.6780  142.3780 N   0  0  0  0  0  0  0  0  0  0  0  0
  188.1200  177.7210  146.5240 N   0  0  0  0  0  1  0  0  0  0  0  0
  186.8090  178.1790  146.9550 C   0  0  0  0  0  2  0  0  0  0  0  0
  1  3  1  6  0  0  0
  1 12  1  0  0  0  0
  1  2  1  0  0  0  0
  2 45  1  0  0  0  0
  4  5  1  0  0  0  0
  5  2  2  0  0  0  0
  5 37  1  0  0  0  0
  6  3  1  0  0  0  0
  6  4  1  0  0  0  0
  7 10  2  0  0  0  0
  8 11  1  6  0  0  0
  8  9  1  0  0  0  0
  8 13  1  0  0  0  0
  9 17  1  6  0  0  0
 10 12  1  0  0  0  0
 12 16  1  6  0  0  0
 14 13  1  0  0  0  0
 15 10  1  0  0  0  0
 15  8  1  0  0  0  0
 15  9  1  0  0  0  0
 16 14  2  0  0  0  0
 17 18  1  0  0  0  0
 18 20  1  0  0  0  0
 19 20  2  0  0  0  0
 21 28  1  6  0  0  0
 22 21  1  0  0  0  0
 24 25  1  0  0  0  0
 24 26  1  0  0  0  0
 25 23  1  1  0  0  0
 25 27  1  0  0  0  0
 26 20  1  6  0  0  0
 26 22  1  0  0  0  0
 27 21  1  0  0  0  0
 29 31  1  0  0  0  0
 30 28  1  0  0  0  0
 30 31  1  0  0  0  0
 32 30  2  0  0  0  0
 33 32  1  0  0  0  0
 33 34  2  0  0  0  0
 34 29  1  0  0  0  0
 35 36  2  0  0  0  0
 37 35  1  0  0  0  0
 38 44  1  0  0  0  0
 39 43  2  0  0  0  0
 39 41  1  0  0  0  0
 40 42  1  0  0  0  0
 40 44  2  0  0  0  0
 41 38  2  0  0  0  0
 43 40  1  0  0  0  0
 44 35  1  0  0  0  0
 45 46  2  0  0  0  0
 46 51  1  0  0  0  0
 47 53  1  0  0  0  0
 47 57  1  0  0  0  0
 48 54  1  0  0  0  0
 49 50  1  0  0  0  0
 50 48  2  0  0  0  0
 50 52  1  0  0  0  0
 51 49  1  0  0  0  0
 51 55  2  0  0  0  0
 52 47  2  0  0  0  0
 54 53  2  0  0  0  0
 55 48  1  0  0  0  0
 56 57  1  0  0  0  0
M  END
>  <MODEL>
3

>  <REMARK>
 VINA RESULT:      -8.0      1.654      2.197
  Name = 
  11 active torsions:
  status: ('A' for Active; 'I' for Inactive)
    1  A    between atoms: C_2  and  N_19
    2  A    between atoms: C_2  and  C_24
    3  A    between atoms: C_3  and  C_8
    4  A    between atoms: C_4  and  C_9
    5  A    between atoms: C_5  and  C_49
    6  A    between atoms: C_9  and  C_20
    7  A    between atoms: C_14  and  C_41
    8  A    between atoms: C_15  and  C_30
    9  A    between atoms: C_18  and  N_35
   10  A    between atoms: C_46  and  N_51
   11  A    between atoms: C_54  and  C_56
                            x       y       z     vdW  Elec       q    Type
                         _______ _______ _______ _____ _____    ______ ____

>  <TORSDO>
F 11

$$$$
=
 OpenBabel10222417243D

 57 64  0  0  1  0  0  0  0  0999 V2000
  186.8620  178.0700  137.1730 C   0  0  2  0  0  3  0  0  0  0  0  0
  187.2770  176.5940  137.3120 C   0  0  0  0  0  0  0  0  0  0  0  0
  187.8230  178.9940  137.6560 O   0  0  0  0  0  0  0  0  0  0  0  0
  189.5000  177.3690  138.0430 C   0  0  0  0  0  2  0  0  0  0  0  0
  188.5040  176.2800  137.7790 C   0  0  0  0  0  0  0  0  0  0  0  0
  189.1060  178.6030  137.2510 C   0  0  0  0  0  2  0  0  0  0  0  0
  186.5740  177.8960  140.0200 O   0  0  0  0  0  0  0  0  0  0  0  0
  182.8240  178.4200  139.8830 C   0  0  1  0  0  0  0  0  0  0  0  0
  183.4080  179.1750  140.8790 C   0  0  2  0  0  3  0  0  0  0  0  0
  185.5190  178.1230  139.3690 C   0  0  0  0  0  0  0  0  0  0  0  0
  182.1840  177.2280  140.1810 F   0  0  0  0  0  0  0  0  0  0  0  0
  185.5350  178.4010  137.8850 C   0  0  2  0  0  3  0  0  0  0  0  0
  182.5530  179.0780  138.5370 C   0  0  0  0  0  2  0  0  0  0  0  0
  183.0300  178.1990  137.4060 C   0  0  0  0  0  3  0  0  0  0  0  0
  184.2940  178.2940  140.0550 N   0  0  0  0  0  0  0  0  0  0  0  0
  184.3170  177.9010  137.1350 C   0  0  0  0  0  3  0  0  0  0  0  0
  183.2590  178.5830  142.2710 C   0  0  0  0  0  2  0  0  0  0  0  0
  184.2920  179.1410  143.1310 N   0  0  0  0  0  2  0  0  0  0  0  0
  185.7440  177.3130  142.9900 O   0  0  0  0  0  0  0  0  0  0  0  0
  185.3780  178.3480  143.6160 C   0  0  0  0  0  0  0  0  0  0  0  0
  188.0130  178.1600  146.3690 C   0  0  1  0  0  3  0  0  0  0  0  0
  187.3100  177.8630  145.0490 C   0  0  0  0  0  2  0  0  0  0  0  0
  186.0730  180.1230  147.5180 O   0  0  0  0  0  1  0  0  0  0  0  0
  185.1000  178.4540  146.0870 C   0  0  0  0  0  2  0  0  0  0  0  0
  185.7920  178.7580  147.4170 C   0  0  1  0  0  3  0  0  0  0  0  0
  186.0420  178.6970  144.9040 C   0  0  2  0  0  3  0  0  0  0  0  0
  187.0770  177.9400  147.5630 C   0  0  0  0  0  2  0  0  0  0  0  0
  189.3160  177.3640  146.4930 C   0  0  0  0  0  2  0  0  0  0  0  0
  190.7210  178.3790  143.0370 C   0  0  0  0  0  2  0  0  0  0  0  0
  190.1620  177.3610  145.2560 C   0  0  0  0  0  0  0  0  0  0  0  0
  190.4800  178.6450  144.5270 C   0  0  0  0  0  2  0  0  0  0  0  0
  190.7740  176.2290  144.8940 C   0  0  0  0  0  3  0  0  0  0  0  0
  191.6400  176.1870  143.7000 C   0  0  0  0  0  3  0  0  0  0  0  0
  191.6500  177.2100  142.8420 C   0  0  0  0  0  3  0  0  0  0  0  0
  189.9250  174.2650  137.0860 C   0  0  0  0  0  0  0  0  0  0  0  0
  189.7580  173.0620  136.7520 O   0  0  0  0  0  0  0  0  0  0  0  0
  188.9050  174.9040  137.8670 N   0  0  0  0  0  2  0  0  0  0  0  0
  192.3050  174.8800  137.5460 C   0  0  0  0  0  3  0  0  0  0  0  0
  193.5590  176.1750  136.0190 C   0  0  0  0  0  3  0  0  0  0  0  0
  191.3070  175.6610  135.5100 C   0  0  0  0  0  0  0  0  0  0  0  0
  193.4650  175.4890  137.1860 N   0  0  0  0  0  0  0  0  0  0  0  0
  190.2580  175.7770  134.6570 F   0  0  0  0  0  0  0  0  0  0  0  0
  192.4870  176.2570  135.1930 N   0  0  0  0  0  0  0  0  0  0  0  0
  191.1800  174.9560  136.7170 C   0  0  0  0  0  0  0  0  0  0  0  0
  186.4600  175.5150  136.7270 C   0  0  0  0  0  3  0  0  0  0  0  0
  185.4130  175.0450  137.3200 N   0  0  0  0  0  0  0  0  0  0  0  0
  181.6950  170.7010  135.1920 C   0  0  0  0  0  0  0  0  0  0  0  0
  183.9480  171.9820  136.1730 C   0  0  0  0  0  0  0  0  0  0  0  0
  183.0110  174.3140  136.1260 S   0  0  0  0  0  0  0  0  0  0  0  0
  182.8100  172.6780  135.8090 C   0  0  0  0  0  0  0  0  0  0  0  0
  184.5830  174.0450  136.7310 C   0  0  0  0  0  0  0  0  0  0  0  0
  181.6960  172.0600  135.3390 N   0  0  0  0  0  0  0  0  0  0  0  0
  182.8300  169.9480  135.5530 C   0  0  0  0  0  3  0  0  0  0  0  0
  183.9760  170.5960  136.0500 C   0  0  0  0  0  3  0  0  0  0  0  0
  184.9460  172.7380  136.6940 N   0  0  0  0  0  0  0  0  0  0  0  0
  179.5570  169.7950  135.8310 N   0  0  0  0  0  1  0  0  0  0  0  0
  180.4610  170.0130  134.7130 C   0  0  0  0  0  2  0  0  0  0  0  0
  1  2  1  1  0  0  0
  1  3  1  0  0  0  0
  1 12  1  0  0  0  0
  2  5  2  0  0  0  0
  5 37  1  0  0  0  0
  5  4  1  0  0  0  0
  6  3  1  0  0  0  0
  6  4  1  0  0  0  0
  8 15  1  0  0  0  0
  8 11  1  1  0  0  0
  8  9  1  0  0  0  0
  9 17  1  1  0  0  0
 10  7  2  0  0  0  0
 10 15  1  0  0  0  0
 12 16  1  6  0  0  0
 12 10  1  0  0  0  0
 13  8  1  0  0  0  0
 14 13  1  0  0  0  0
 15  9  1  0  0  0  0
 16 14  2  0  0  0  0
 17 18  1  0  0  0  0
 18 20  1  0  0  0  0
 19 20  2  0  0  0  0
 21 28  1  1  0  0  0
 21 27  1  0  0  0  0
 22 21  1  0  0  0  0
 24 25  1  0  0  0  0
 25 23  1  6  0  0  0
 25 27  1  0  0  0  0
 26 20  1  6  0  0  0
 26 22  1  0  0  0  0
 26 24  1  0  0  0  0
 29 31  1  0  0  0  0
 30 28  1  0  0  0  0
 31 30  1  0  0  0  0
 32 30  2  0  0  0  0
 33 32  1  0  0  0  0
 34 29  1  0  0  0  0
 34 33  2  0  0  0  0
 35 37  1  0  0  0  0
 36 35  2  0  0  0  0
 39 41  2  0  0  0  0
 40 44  1  0  0  0  0
 41 38  1  0  0  0  0
 42 40  1  0  0  0  0
 43 40  2  0  0  0  0
 43 39  1  0  0  0  0
 44 35  1  0  0  0  0
 44 38  2  0  0  0  0
 45  2  1  0  0  0  0
 45 46  2  0  0  0  0
 47 52  2  0  0  0  0
 47 53  1  0  0  0  0
 48 55  1  0  0  0  0
 49 51  1  0  0  0  0
 50 49  1  0  0  0  0
 50 48  2  0  0  0  0
 51 46  1  0  0  0  0
 52 50  1  0  0  0  0
 53 54  2  0  0  0  0
 54 48  1  0  0  0  0
 55 51  2  0  0  0  0
 57 47  1  0  0  0  0
 57 56  1  0  0  0  0
M  END
>  <MODEL>
4

>  <REMARK>
 VINA RESULT:      -7.9      3.357      9.468
  Name = 
  11 active torsions:
  status: ('A' for Active; 'I' for Inactive)
    1  A    between atoms: C_2  and  N_19
    2  A    between atoms: C_2  and  C_24
    3  A    between atoms: C_3  and  C_8
    4  A    between atoms: C_4  and  C_9
    5  A    between atoms: C_5  and  C_49
    6  A    between atoms: C_9  and  C_20
    7  A    between atoms: C_14  and  C_41
    8  A    between atoms: C_15  and  C_30
    9  A    between atoms: C_18  and  N_35
   10  A    between atoms: C_46  and  N_51
   11  A    between atoms: C_54  and  C_56
                            x       y       z     vdW  Elec       q    Type
                         _______ _______ _______ _____ _____    ______ ____

>  <TORSDO>
F 11

$$$$
=
 OpenBabel10222417243D

 57 64  0  0  1  0  0  0  0  0999 V2000
  183.1570  177.4970  136.6610 C   0  0  2  0  0  3  0  0  0  0  0  0
  182.2260  177.2400  137.8600 C   0  0  0  0  0  0  0  0  0  0  0  0
  182.5020  177.4860  135.4030 O   0  0  0  0  0  0  0  0  0  0  0  0
  180.3170  177.3470  136.3040 C   0  0  0  0  0  2  0  0  0  0  0  0
  180.8960  177.1140  137.6670 C   0  0  0  0  0  0  0  0  0  0  0  0
  181.2890  178.1820  135.4900 C   0  0  0  0  0  2  0  0  0  0  0  0
  185.8980  178.2980  136.9120 O   0  0  0  0  0  0  0  0  0  0  0  0
  187.2050  174.8980  135.8700 C   0  0  1  0  0  0  0  0  0  0  0  0
  187.8860  175.3930  136.9630 C   0  0  2  0  0  3  0  0  0  0  0  0
  185.6990  177.0990  136.5790 C   0  0  0  0  0  0  0  0  0  0  0  0
  187.7480  174.9870  134.5990 F   0  0  0  0  0  0  0  0  0  0  0  0
  184.3180  176.4880  136.5630 C   0  0  2  0  0  3  0  0  0  0  0  0
  186.0550  173.9290  136.1080 C   0  0  0  0  0  2  0  0  0  0  0  0
  184.8440  174.3270  135.2990 C   0  0  0  0  0  3  0  0  0  0  0  0
  186.8000  176.2360  136.3720 N   0  0  0  0  0  0  0  0  0  0  0  0
  184.1040  175.4370  135.4930 C   0  0  0  0  0  3  0  0  0  0  0  0
  189.2390  175.9980  136.6270 C   0  0  0  0  0  2  0  0  0  0  0  0
  189.6060  176.9380  137.6760 N   0  0  0  0  0  2  0  0  0  0  0  0
  191.0720  175.4970  138.7940 O   0  0  0  0  0  0  0  0  0  0  0  0
  190.3390  176.5260  138.8330 C   0  0  0  0  0  0  0  0  0  0  0  0
  190.7160  177.1800  142.5730 C   0  0  1  0  0  3  0  0  0  0  0  0
  190.8690  176.4780  141.2280 C   0  0  0  0  0  2  0  0  0  0  0  0
  189.0490  179.5080  141.7150 O   0  0  0  0  0  1  0  0  0  0  0  0
  188.7090  177.4940  140.4460 C   0  0  0  0  0  2  0  0  0  0  0  0
  188.5440  178.2080  141.7890 C   0  0  1  0  0  3  0  0  0  0  0  0
  190.1880  177.2680  140.1170 C   0  0  2  0  0  3  0  0  0  0  0  0
  189.2420  177.4310  142.9080 C   0  0  0  0  0  2  0  0  0  0  0  0
  191.4460  176.4160  143.6820 C   0  0  0  0  0  2  0  0  0  0  0  0
  189.3090  177.8750  146.5550 C   0  0  0  0  0  2  0  0  0  0  0  0
  190.9160  176.6680  145.0620 C   0  0  0  0  0  0  0  0  0  0  0  0
  189.4670  177.0310  145.2860 C   0  0  0  0  0  2  0  0  0  0  0  0
  191.7000  176.4060  146.1130 C   0  0  0  0  0  3  0  0  0  0  0  0
  191.2110  176.6120  147.4900 C   0  0  0  0  0  3  0  0  0  0  0  0
  190.0680  177.2680  147.7050 C   0  0  0  0  0  3  0  0  0  0  0  0
  179.7800  177.8560  139.8490 C   0  0  0  0  0  0  0  0  0  0  0  0
  179.5920  177.4110  141.0120 O   0  0  0  0  0  0  0  0  0  0  0  0
  180.0250  176.9180  138.7920 N   0  0  0  0  0  2  0  0  0  0  0  0
  179.2200  179.7950  138.3720 C   0  0  0  0  0  3  0  0  0  0  0  0
  179.4220  182.0220  139.1350 C   0  0  0  0  0  3  0  0  0  0  0  0
  179.9950  180.2520  140.5950 C   0  0  0  0  0  0  0  0  0  0  0  0
  179.1020  181.1320  138.1610 N   0  0  0  0  0  0  0  0  0  0  0  0
  180.4500  179.8550  141.8110 F   0  0  0  0  0  0  0  0  0  0  0  0
  179.8650  181.5800  140.3390 N   0  0  0  0  0  0  0  0  0  0  0  0
  179.6830  179.3120  139.6010 C   0  0  0  0  0  0  0  0  0  0  0  0
  182.7170  177.3630  139.2450 C   0  0  0  0  0  3  0  0  0  0  0  0
  183.4430  178.3590  139.6330 N   0  0  0  0  0  0  0  0  0  0  0  0
  185.2440  178.6040  145.4560 C   0  0  0  0  0  0  0  0  0  0  0  0
  183.6390  178.6610  143.1980 C   0  0  0  0  0  0  0  0  0  0  0  0
  185.4920  178.4700  141.5090 S   0  0  0  0  0  0  0  0  0  0  0  0
  185.0180  178.5880  143.1150 C   0  0  0  0  0  0  0  0  0  0  0  0
  183.8690  178.5160  140.9850 C   0  0  0  0  0  0  0  0  0  0  0  0
  185.8130  178.5470  144.2150 N   0  0  0  0  0  0  0  0  0  0  0  0
  183.8440  178.6750  145.5920 C   0  0  0  0  0  3  0  0  0  0  0  0
  183.0260  178.7060  144.4470 C   0  0  0  0  0  3  0  0  0  0  0  0
  182.9860  178.6180  142.0110 N   0  0  0  0  0  0  0  0  0  0  0  0
  185.9790  179.7380  147.4500 N   0  0  0  0  0  1  0  0  0  0  0  0
  186.1110  178.5190  146.6690 C   0  0  0  0  0  2  0  0  0  0  0  0
  1  3  1  6  0  0  0
  1  2  1  0  0  0  0
  2 45  1  0  0  0  0
  3  6  1  0  0  0  0
  4  5  1  0  0  0  0
  5  2  2  0  0  0  0
  5 37  1  0  0  0  0
  6  4  1  0  0  0  0
  8 11  1  6  0  0  0
  8 13  1  0  0  0  0
  8 15  1  0  0  0  0
  8  9  1  0  0  0  0
  9 17  1  6  0  0  0
 10  7  2  0  0  0  0
 12 16  1  6  0  0  0
 12 10  1  0  0  0  0
 12  1  1  0  0  0  0
 14 16  2  0  0  0  0
 14 13  1  0  0  0  0
 15 10  1  0  0  0  0
 15  9  1  0  0  0  0
 17 18  1  0  0  0  0
 18 20  1  0  0  0  0
 19 20  2  0  0  0  0
 21 27  1  0  0  0  0
 21 28  1  1  0  0  0
 22 21  1  0  0  0  0
 24 25  1  0  0  0  0
 25 23  1  6  0  0  0
 25 27  1  0  0  0  0
 26 20  1  6  0  0  0
 26 24  1  0  0  0  0
 26 22  1  0  0  0  0
 28 30  1  0  0  0  0
 29 34  1  0  0  0  0
 30 31  1  0  0  0  0
 30 32  2  0  0  0  0
 31 29  1  0  0  0  0
 32 33  1  0  0  0  0
 33 34  2  0  0  0  0
 35 36  2  0  0  0  0
 37 35  1  0  0  0  0
 38 44  1  0  0  0  0
 39 43  2  0  0  0  0
 40 42  1  0  0  0  0
 41 38  2  0  0  0  0
 41 39  1  0  0  0  0
 43 40  1  0  0  0  0
 44 35  1  0  0  0  0
 44 40  2  0  0  0  0
 45 46  2  0  0  0  0
 46 51  1  0  0  0  0
 47 53  1  0  0  0  0
 47 57  1  0  0  0  0
 48 54  1  0  0  0  0
 49 50  1  0  0  0  0
 50 48  2  0  0  0  0
 50 52  1  0  0  0  0
 51 49  1  0  0  0  0
 51 55  2  0  0  0  0
 52 47  2  0  0  0  0
 54 53  2  0  0  0  0
 55 48  1  0  0  0  0
 57 56  1  0  0  0  0
M  END
>  <MODEL>
5

>  <REMARK>
 VINA RESULT:      -7.7      2.221      3.276
  Name = 
  11 active torsions:
  status: ('A' for Active; 'I' for Inactive)
    1  A    between atoms: C_2  and  N_19
    2  A    between atoms: C_2  and  C_24
    3  A    between atoms: C_3  and  C_8
    4  A    between atoms: C_4  and  C_9
    5  A    between atoms: C_5  and  C_49
    6  A    between atoms: C_9  and  C_20
    7  A    between atoms: C_14  and  C_41
    8  A    between atoms: C_15  and  C_30
    9  A    between atoms: C_18  and  N_35
   10  A    between atoms: C_46  and  N_51
   11  A    between atoms: C_54  and  C_56
                            x       y       z     vdW  Elec       q    Type
                         _______ _______ _______ _____ _____    ______ ____

>  <TORSDO>
F 11

$$$$
=
 OpenBabel10222417243D

 57 64  0  0  1  0  0  0  0  0999 V2000
  184.3520  177.3440  135.9670 C   0  0  2  0  0  3  0  0  0  0  0  0
  183.3410  177.0350  137.0870 C   0  0  0  0  0  0  0  0  0  0  0  0
  183.8280  177.2070  134.6560 O   0  0  0  0  0  0  0  0  0  0  0  0
  181.5930  176.8640  135.3570 C   0  0  0  0  0  2  0  0  0  0  0  0
  182.0570  176.7540  136.7780 C   0  0  0  0  0  0  0  0  0  0  0  0
  182.5450  177.7680  134.5940 C   0  0  0  0  0  2  0  0  0  0  0  0
  186.9170  178.4180  136.6630 O   0  0  0  0  0  0  0  0  0  0  0  0
  188.7340  175.2180  135.7620 C   0  0  1  0  0  0  0  0  0  0  0  0
  189.1810  175.7380  136.9600 C   0  0  2  0  0  3  0  0  0  0  0  0
  186.9040  177.2190  136.2750 C   0  0  0  0  0  0  0  0  0  0  0  0
  189.4530  175.4130  134.5940 F   0  0  0  0  0  0  0  0  0  0  0  0
  185.6180  176.4680  136.0300 C   0  0  2  0  0  3  0  0  0  0  0  0
  187.6750  174.1250  135.7950 C   0  0  0  0  0  2  0  0  0  0  0  0
  186.5660  174.4250  134.8150 C   0  0  0  0  0  3  0  0  0  0  0  0
  188.1130  176.4850  136.2240 N   0  0  0  0  0  0  0  0  0  0  0  0
  185.6880  175.4430  134.9160 C   0  0  0  0  0  3  0  0  0  0  0  0
  190.4940  176.4950  136.8530 C   0  0  0  0  0  2  0  0  0  0  0  0
  190.6440  177.3420  138.0270 N   0  0  0  0  0  2  0  0  0  0  0  0
  191.2300  175.6210  139.4990 O   0  0  0  0  0  0  0  0  0  0  0  0
  190.7840  176.7920  139.3400 C   0  0  0  0  0  0  0  0  0  0  0  0
  190.7460  177.9270  142.9830 C   0  0  1  0  0  3  0  0  0  0  0  0
  191.1870  177.1780  141.7300 C   0  0  0  0  0  2  0  0  0  0  0  0
  188.4420  179.4570  141.8470 O   0  0  0  0  0  1  0  0  0  0  0  0
  188.8510  177.3230  140.8160 C   0  0  0  0  0  2  0  0  0  0  0  0
  188.3960  178.0780  142.0670 C   0  0  1  0  0  3  0  0  0  0  0  0
  190.3340  177.5720  140.5280 C   0  0  2  0  0  3  0  0  0  0  0  0
  189.2580  177.7030  143.2740 C   0  0  0  0  0  2  0  0  0  0  0  0
  191.6360  177.5740  144.1790 C   0  0  0  0  0  2  0  0  0  0  0  0
  190.2860  176.1700  147.5190 C   0  0  0  0  0  2  0  0  0  0  0  0
  190.9120  177.4960  145.4890 C   0  0  0  0  0  0  0  0  0  0  0  0
  191.4340  176.6390  146.6180 C   0  0  0  0  0  2  0  0  0  0  0  0
  189.8860  178.3250  145.7110 C   0  0  0  0  0  3  0  0  0  0  0  0
  189.1620  178.3030  146.9970 C   0  0  0  0  0  3  0  0  0  0  0  0
  189.3730  177.3150  147.8700 C   0  0  0  0  0  3  0  0  0  0  0  0
  180.0610  175.5270  137.8120 C   0  0  0  0  0  0  0  0  0  0  0  0
  178.9700  175.8070  138.3750 O   0  0  0  0  0  0  0  0  0  0  0  0
  181.1070  176.5090  137.8260 N   0  0  0  0  0  2  0  0  0  0  0  0
  180.7980  173.1430  137.9630 C   0  0  0  0  0  3  0  0  0  0  0  0
  180.5450  171.6590  136.1410 C   0  0  0  0  0  3  0  0  0  0  0  0
  179.8410  173.9040  135.9000 C   0  0  0  0  0  0  0  0  0  0  0  0
  180.9380  171.9060  137.4170 N   0  0  0  0  0  0  0  0  0  0  0  0
  179.3020  174.8690  135.1130 F   0  0  0  0  0  0  0  0  0  0  0  0
  180.0030  172.6520  135.3940 N   0  0  0  0  0  0  0  0  0  0  0  0
  180.2500  174.1880  137.2120 C   0  0  0  0  0  0  0  0  0  0  0  0
  183.6790  177.2700  138.5030 C   0  0  0  0  0  3  0  0  0  0  0  0
  183.4630  178.4030  139.0840 N   0  0  0  0  0  0  0  0  0  0  0  0
  184.6870  178.8970  145.0400 C   0  0  0  0  0  0  0  0  0  0  0  0
  183.3000  178.6250  142.6570 C   0  0  0  0  0  0  0  0  0  0  0  0
  185.2650  178.9630  141.1260 S   0  0  0  0  0  0  0  0  0  0  0  0
  184.6540  178.9040  142.6880 C   0  0  0  0  0  0  0  0  0  0  0  0
  183.7290  178.6170  140.4690 C   0  0  0  0  0  0  0  0  0  0  0  0
  185.3470  179.0270  143.8500 N   0  0  0  0  0  0  0  0  0  0  0  0
  183.3090  178.6100  145.0600 C   0  0  0  0  0  3  0  0  0  0  0  0
  182.6010  178.4720  143.8510 C   0  0  0  0  0  3  0  0  0  0  0  0
  182.7730  178.4590  141.4190 N   0  0  0  0  0  0  0  0  0  0  0  0
  184.6910  178.3670  147.3890 N   0  0  0  0  0  1  0  0  0  0  0  0
  185.4510  178.9930  146.3190 C   0  0  0  0  0  2  0  0  0  0  0  0
  1  3  1  6  0  0  0
  1 12  1  0  0  0  0
  1  2  1  0  0  0  0
  2 45  1  0  0  0  0
  4  5  1  0  0  0  0
  5  2  2  0  0  0  0
  5 37  1  0  0  0  0
  6  3  1  0  0  0  0
  6  4  1  0  0  0  0
  8 11  1  6  0  0  0
  8 13  1  0  0  0  0
  8 15  1  0  0  0  0
  8  9  1  0  0  0  0
  9 17  1  6  0  0  0
 10  7  2  0  0  0  0
 12 16  1  6  0  0  0
 12 10  1  0  0  0  0
 14 16  2  0  0  0  0
 14 13  1  0  0  0  0
 15 10  1  0  0  0  0
 15  9  1  0  0  0  0
 17 18  1  0  0  0  0
 18 20  1  0  0  0  0
 20 19  2  0  0  0  0
 21 27  1  0  0  0  0
 21 28  1  1  0  0  0
 22 21  1  0  0  0  0
 24 25  1  0  0  0  0
 25 23  1  6  0  0  0
 25 27  1  0  0  0  0
 26 20  1  6  0  0  0
 26 24  1  0  0  0  0
 26 22  1  0  0  0  0
 28 30  1  0  0  0  0
 29 34  1  0  0  0  0
 30 32  2  0  0  0  0
 30 31  1  0  0  0  0
 31 29  1  0  0  0  0
 32 33  1  0  0  0  0
 33 34  2  0  0  0  0
 35 37  1  0  0  0  0
 35 36  2  0  0  0  0
 39 41  2  0  0  0  0
 40 44  1  0  0  0  0
 41 38  1  0  0  0  0
 42 40  1  0  0  0  0
 43 40  2  0  0  0  0
 43 39  1  0  0  0  0
 44 35  1  0  0  0  0
 44 38  2  0  0  0  0
 45 46  2  0  0  0  0
 46 51  1  0  0  0  0
 47 53  1  0  0  0  0
 47 57  1  0  0  0  0
 48 50  2  0  0  0  0
 48 54  1  0  0  0  0
 49 50  1  0  0  0  0
 50 52  1  0  0  0  0
 51 49  1  0  0  0  0
 51 55  2  0  0  0  0
 52 47  2  0  0  0  0
 54 53  2  0  0  0  0
 55 48  1  0  0  0  0
 57 56  1  0  0  0  0
M  END
>  <MODEL>
6

>  <REMARK>
 VINA RESULT:      -7.3      3.042      5.005
  Name = 
  11 active torsions:
  status: ('A' for Active; 'I' for Inactive)
    1  A    between atoms: C_2  and  N_19
    2  A    between atoms: C_2  and  C_24
    3  A    between atoms: C_3  and  C_8
    4  A    between atoms: C_4  and  C_9
    5  A    between atoms: C_5  and  C_49
    6  A    between atoms: C_9  and  C_20
    7  A    between atoms: C_14  and  C_41
    8  A    between atoms: C_15  and  C_30
    9  A    between atoms: C_18  and  N_35
   10  A    between atoms: C_46  and  N_51
   11  A    between atoms: C_54  and  C_56
                            x       y       z     vdW  Elec       q    Type
                         _______ _______ _______ _____ _____    ______ ____

>  <TORSDO>
F 11

$$$$
=
 OpenBabel10222417243D

 57 64  0  0  1  0  0  0  0  0999 V2000
  182.5120  178.2060  136.4090 C   0  0  2  0  0  3  0  0  0  0  0  0
  181.8040  178.7680  137.6550 C   0  0  0  0  0  0  0  0  0  0  0  0
  181.7150  178.2060  135.2350 O   0  0  0  0  0  0  0  0  0  0  0  0
  179.9250  179.4210  136.1970 C   0  0  0  0  0  2  0  0  0  0  0  0
  180.5610  179.2840  137.5480 C   0  0  0  0  0  0  0  0  0  0  0  0
  181.0120  179.4140  135.1370 C   0  0  0  0  0  2  0  0  0  0  0  0
  185.1350  177.3970  135.5810 O   0  0  0  0  0  0  0  0  0  0  0  0
  184.4300  173.7280  136.2100 C   0  0  1  0  0  0  0  0  0  0  0  0
  185.6660  174.1000  136.6970 C   0  0  2  0  0  3  0  0  0  0  0  0
  184.3710  176.4770  135.9790 C   0  0  0  0  0  0  0  0  0  0  0  0
  184.3160  173.0690  134.9970 F   0  0  0  0  0  0  0  0  0  0  0  0
  183.0230  176.7640  136.5950 C   0  0  2  0  0  3  0  0  0  0  0  0
  183.2490  173.6990  137.1710 C   0  0  0  0  0  2  0  0  0  0  0  0
  182.0530  174.3960  136.5690 C   0  0  0  0  0  3  0  0  0  0  0  0
  184.8380  175.1430  136.0130 N   0  0  0  0  0  0  0  0  0  0  0  0
  181.9640  175.7170  136.3140 C   0  0  0  0  0  3  0  0  0  0  0  0
  186.8280  173.7070  135.8000 C   0  0  0  0  0  2  0  0  0  0  0  0
  188.0740  174.0550  136.4670 N   0  0  0  0  0  2  0  0  0  0  0  0
  188.1660  176.2570  135.6830 O   0  0  0  0  0  0  0  0  0  0  0  0
  188.7780  175.2620  136.1650 C   0  0  0  0  0  0  0  0  0  0  0  0
  192.3790  174.0010  136.1470 C   0  0  1  0  0  3  0  0  0  0  0  0
  190.8670  173.9940  135.9470 C   0  0  0  0  0  2  0  0  0  0  0  0
  192.7020  176.7420  137.2950 O   0  0  0  0  0  1  0  0  0  0  0  0
  190.6100  175.6700  137.8000 C   0  0  0  0  0  2  0  0  0  0  0  0
  192.1250  175.6900  138.0100 C   0  0  1  0  0  3  0  0  0  0  0  0
  190.2560  175.3310  136.3500 C   0  0  2  0  0  3  0  0  0  0  0  0
  192.7510  174.3570  137.5910 C   0  0  0  0  0  2  0  0  0  0  0  0
  193.0030  172.6770  135.6930 C   0  0  0  0  0  2  0  0  0  0  0  0
  196.2790  171.9000  137.5920 C   0  0  0  0  0  2  0  0  0  0  0  0
  194.4660  172.5460  135.9910 C   0  0  0  0  0  0  0  0  0  0  0  0
  194.9790  171.4620  136.9090 C   0  0  0  0  0  2  0  0  0  0  0  0
  195.3350  173.2940  135.3040 C   0  0  0  0  0  3  0  0  0  0  0  0
  196.7860  173.1770  135.5430 C   0  0  0  0  0  3  0  0  0  0  0  0
  197.2400  172.4910  136.5950 C   0  0  0  0  0  3  0  0  0  0  0  0
  180.0830  181.1830  139.1990 C   0  0  0  0  0  0  0  0  0  0  0  0
  180.0560  181.3670  140.4440 O   0  0  0  0  0  0  0  0  0  0  0  0
  179.9190  179.8470  138.7030 N   0  0  0  0  0  2  0  0  0  0  0  0
  179.0890  182.9720  137.7620 C   0  0  0  0  0  3  0  0  0  0  0  0
  180.4460  184.5610  136.6590 C   0  0  0  0  0  3  0  0  0  0  0  0
  181.4760  182.8910  137.9800 C   0  0  0  0  0  0  0  0  0  0  0  0
  179.2200  184.0590  136.9570 N   0  0  0  0  0  0  0  0  0  0  0  0
  182.6170  182.3350  138.4600 F   0  0  0  0  0  0  0  0  0  0  0  0
  181.5590  183.9780  137.1680 N   0  0  0  0  0  0  0  0  0  0  0  0
  180.2210  182.3460  138.2930 C   0  0  0  0  0  0  0  0  0  0  0  0
  182.5360  178.9750  138.9180 C   0  0  0  0  0  3  0  0  0  0  0  0
  182.3250  178.2460  139.9640 N   0  0  0  0  0  0  0  0  0  0  0  0
  185.4450  178.4910  145.2000 C   0  0  0  0  0  0  0  0  0  0  0  0
  183.3910  178.7110  143.3530 C   0  0  0  0  0  0  0  0  0  0  0  0
  184.7430  178.0900  141.3270 S   0  0  0  0  0  0  0  0  0  0  0  0
  184.6810  178.3830  142.9780 C   0  0  0  0  0  0  0  0  0  0  0  0
  183.0730  178.4000  141.1690 C   0  0  0  0  0  0  0  0  0  0  0  0
  185.6920  178.2600  143.8760 N   0  0  0  0  0  0  0  0  0  0  0  0
  184.1460  178.8240  145.6320 C   0  0  0  0  0  3  0  0  0  0  0  0
  183.1010  178.9370  144.6960 C   0  0  0  0  0  3  0  0  0  0  0  0
  182.4820  178.7190  142.3480 N   0  0  0  0  0  0  0  0  0  0  0  0
  187.7540  177.8870  145.5190 N   0  0  0  0  0  1  0  0  0  0  0  0
  186.5430  178.3190  146.1960 C   0  0  0  0  0  2  0  0  0  0  0  0
  1  3  1  6  0  0  0
  1 12  1  0  0  0  0
  1  2  1  0  0  0  0
  2 45  1  0  0  0  0
  4  5  1  0  0  0  0
  5  2  2  0  0  0  0
  5 37  1  0  0  0  0
  6  3  1  0  0  0  0
  6  4  1  0  0  0  0
  7 10  2  0  0  0  0
  8 11  1  6  0  0  0
  8  9  1  0  0  0  0
  8 13  1  0  0  0  0
  9 17  1  6  0  0  0
 10 15  1  0  0  0  0
 10 12  1  0  0  0  0
 12 16  1  6  0  0  0
 14 13  1  0  0  0  0
 15  8  1  0  0  0  0
 15  9  1  0  0  0  0
 16 14  2  0  0  0  0
 17 18  1  0  0  0  0
 19 20  2  0  0  0  0
 20 18  1  0  0  0  0
 21 28  1  1  0  0  0
 21 27  1  0  0  0  0
 22 21  1  0  0  0  0
 22 26  1  0  0  0  0
 24 25  1  0  0  0  0
 25 23  1  6  0  0  0
 26 20  1  1  0  0  0
 26 24  1  0  0  0  0
 27 25  1  0  0  0  0
 28 30  1  0  0  0  0
 30 31  1  0  0  0  0
 31 29  1  0  0  0  0
 32 33  1  0  0  0  0
 32 30  2  0  0  0  0
 33 34  2  0  0  0  0
 34 29  1  0  0  0  0
 35 36  2  0  0  0  0
 37 35  1  0  0  0  0
 38 44  1  0  0  0  0
 39 41  1  0  0  0  0
 39 43  2  0  0  0  0
 40 44  2  0  0  0  0
 40 42  1  0  0  0  0
 41 38  2  0  0  0  0
 43 40  1  0  0  0  0
 44 35  1  0  0  0  0
 45 46  2  0  0  0  0
 46 51  1  0  0  0  0
 47 53  1  0  0  0  0
 47 57  1  0  0  0  0
 48 54  1  0  0  0  0
 49 50  1  0  0  0  0
 50 48  2  0  0  0  0
 50 52  1  0  0  0  0
 51 49  1  0  0  0  0
 51 55  2  0  0  0  0
 52 47  2  0  0  0  0
 54 53  2  0  0  0  0
 55 48  1  0  0  0  0
 56 57  1  0  0  0  0
M  END
>  <MODEL>
7

>  <REMARK>
 VINA RESULT:      -7.2      1.861      3.523
  Name = 
  11 active torsions:
  status: ('A' for Active; 'I' for Inactive)
    1  A    between atoms: C_2  and  N_19
    2  A    between atoms: C_2  and  C_24
    3  A    between atoms: C_3  and  C_8
    4  A    between atoms: C_4  and  C_9
    5  A    between atoms: C_5  and  C_49
    6  A    between atoms: C_9  and  C_20
    7  A    between atoms: C_14  and  C_41
    8  A    between atoms: C_15  and  C_30
    9  A    between atoms: C_18  and  N_35
   10  A    between atoms: C_46  and  N_51
   11  A    between atoms: C_54  and  C_56
                            x       y       z     vdW  Elec       q    Type
                         _______ _______ _______ _____ _____    ______ ____

>  <TORSDO>
F 11

$$$$
=
 OpenBabel10222417243D

 57 64  0  0  1  0  0  0  0  0999 V2000
  180.5870  178.9050  142.3900 C   0  0  2  0  0  3  0  0  0  0  0  0
  180.1610  178.9390  140.9120 C   0  0  0  0  0  0  0  0  0  0  0  0
  180.3190  180.1030  143.1020 O   0  0  0  0  0  0  0  0  0  0  0  0
  179.0950  181.1180  141.3480 C   0  0  0  0  0  2  0  0  0  0  0  0
  179.5100  180.0150  140.4220 C   0  0  0  0  0  0  0  0  0  0  0  0
  179.0450  180.5810  142.7670 C   0  0  0  0  0  2  0  0  0  0  0  0
  181.8190  178.9190  144.9790 O   0  0  0  0  0  0  0  0  0  0  0  0
  185.3130  178.6040  143.5490 C   0  0  1  0  0  0  0  0  0  0  0  0
  185.1250  177.7590  144.6230 C   0  0  2  0  0  3  0  0  0  0  0  0
  182.5970  178.7880  143.9960 C   0  0  0  0  0  0  0  0  0  0  0  0
  185.9810  179.8080  143.7030 F   0  0  0  0  0  0  0  0  0  0  0  0
  182.0860  178.6020  142.5880 C   0  0  2  0  0  3  0  0  0  0  0  0
  185.1300  178.0450  142.1440 C   0  0  0  0  0  2  0  0  0  0  0  0
  184.2730  178.9660  141.3100 C   0  0  0  0  0  3  0  0  0  0  0  0
  183.9860  178.6410  144.2140 N   0  0  0  0  0  0  0  0  0  0  0  0
  182.9620  179.2100  141.5110 C   0  0  0  0  0  3  0  0  0  0  0  0
  185.7210  178.2720  145.9240 C   0  0  0  0  0  2  0  0  0  0  0  0
  187.0160  177.6400  146.1280 N   0  0  0  0  0  2  0  0  0  0  0  0
  187.4450  178.6220  148.2070 O   0  0  0  0  0  0  0  0  0  0  0  0
  187.8990  178.0510  147.1750 C   0  0  0  0  0  0  0  0  0  0  0  0
  191.2670  178.0550  145.3820 C   0  0  1  0  0  3  0  0  0  0  0  0
  189.7700  178.2490  145.6000 C   0  0  0  0  0  2  0  0  0  0  0  0
  192.0100  176.9710  148.0680 O   0  0  0  0  0  1  0  0  0  0  0  0
  189.7830  176.4330  147.3370 C   0  0  0  0  0  2  0  0  0  0  0  0
  191.2860  176.2300  147.1310 C   0  0  1  0  0  3  0  0  0  0  0  0
  189.3710  177.8740  147.0230 C   0  0  2  0  0  3  0  0  0  0  0  0
  191.6990  176.6210  145.7100 C   0  0  0  0  0  2  0  0  0  0  0  0
  191.6800  178.4810  143.9700 C   0  0  0  0  0  2  0  0  0  0  0  0
  188.5600  177.0950  142.1560 C   0  0  0  0  0  2  0  0  0  0  0  0
  190.7990  177.9500  142.8790 C   0  0  0  0  0  0  0  0  0  0  0  0
  189.3120  178.2160  142.8810 C   0  0  0  0  0  2  0  0  0  0  0  0
  191.3660  177.3790  141.8120 C   0  0  0  0  0  3  0  0  0  0  0  0
  190.5390  176.8680  140.7010 C   0  0  0  0  0  3  0  0  0  0  0  0
  189.2150  176.7680  140.8410 C   0  0  0  0  0  3  0  0  0  0  0  0
  179.9100  180.1900  137.8990 C   0  0  0  0  0  0  0  0  0  0  0  0
  179.4470  180.8210  136.9110 O   0  0  0  0  0  0  0  0  0  0  0  0
  179.0750  180.0250  139.0530 N   0  0  0  0  0  2  0  0  0  0  0  0
  181.4640  178.3790  137.1540 C   0  0  0  0  0  3  0  0  0  0  0  0
  183.7850  178.4970  137.5800 C   0  0  0  0  0  3  0  0  0  0  0  0
  182.3880  180.2460  138.3420 C   0  0  0  0  0  0  0  0  0  0  0  0
  182.7140  177.8530  137.0520 N   0  0  0  0  0  0  0  0  0  0  0  0
  182.2670  181.4290  138.9960 F   0  0  0  0  0  0  0  0  0  0  0  0
  183.6180  179.6820  138.2180 N   0  0  0  0  0  0  0  0  0  0  0  0
  181.2620  179.5950  137.8150 C   0  0  0  0  0  0  0  0  0  0  0  0
  180.2340  177.7290  140.0710 C   0  0  0  0  0  3  0  0  0  0  0  0
  179.4360  176.7280  140.2340 N   0  0  0  0  0  0  0  0  0  0  0  0
  179.9660  171.8720  136.5790 C   0  0  0  0  0  0  0  0  0  0  0  0
  179.5510  174.4680  137.4550 C   0  0  0  0  0  0  0  0  0  0  0  0
  179.6700  173.9750  139.9180 S   0  0  0  0  0  0  0  0  0  0  0  0
  179.7030  173.4130  138.3370 C   0  0  0  0  0  0  0  0  0  0  0  0
  179.4600  175.5820  139.3840 C   0  0  0  0  0  0  0  0  0  0  0  0
  179.9200  172.1390  137.9190 N   0  0  0  0  0  0  0  0  0  0  0  0
  179.8200  172.9140  135.6430 C   0  0  0  0  0  3  0  0  0  0  0  0
  179.6080  174.2330  136.0850 C   0  0  0  0  0  3  0  0  0  0  0  0
  179.4180  175.6870  138.0320 N   0  0  0  0  0  0  0  0  0  0  0  0
  181.6190  170.3840  135.6540 N   0  0  0  0  0  1  0  0  0  0  0  0
  180.2430  170.4810  136.1150 C   0  0  0  0  0  2  0  0  0  0  0  0
  1  2  1  6  0  0  0
  1 12  1  0  0  0  0
  1  3  1  0  0  0  0
  4  6  1  0  0  0  0
  5  2  2  0  0  0  0
  5  4  1  0  0  0  0
  6  3  1  0  0  0  0
  8 11  1  1  0  0  0
  8 15  1  0  0  0  0
  8  9  1  0  0  0  0
  9 17  1  1  0  0  0
 10 15  1  0  0  0  0
 10  7  2  0  0  0  0
 12 16  1  6  0  0  0
 12 10  1  0  0  0  0
 13  8  1  0  0  0  0
 14 16  2  0  0  0  0
 14 13  1  0  0  0  0
 15  9  1  0  0  0  0
 17 18  1  0  0  0  0
 18 20  1  0  0  0  0
 20 19  2  0  0  0  0
 21 28  1  6  0  0  0
 21 22  1  0  0  0  0
 21 27  1  0  0  0  0
 22 26  1  0  0  0  0
 25 24  1  0  0  0  0
 25 23  1  1  0  0  0
 26 20  1  6  0  0  0
 26 24  1  0  0  0  0
 27 25  1  0  0  0  0
 29 31  1  0  0  0  0
 30 31  1  0  0  0  0
 30 28  1  0  0  0  0
 32 30  2  0  0  0  0
 33 34  2  0  0  0  0
 33 32  1  0  0  0  0
 34 29  1  0  0  0  0
 35 37  1  0  0  0  0
 36 35  2  0  0  0  0
 37  5  1  0  0  0  0
 38 44  1  0  0  0  0
 39 43  2  0  0  0  0
 40 42  1  0  0  0  0
 41 38  2  0  0  0  0
 41 39  1  0  0  0  0
 43 40  1  0  0  0  0
 44 35  1  0  0  0  0
 44 40  2  0  0  0  0
 45 46  2  0  0  0  0
 45  2  1  0  0  0  0
 47 52  1  0  0  0  0
 48 55  1  0  0  0  0
 48 50  1  0  0  0  0
 50 49  1  0  0  0  0
 51 49  1  0  0  0  0
 51 46  1  0  0  0  0
 52 50  2  0  0  0  0
 53 54  1  0  0  0  0
 53 47  2  0  0  0  0
 54 48  2  0  0  0  0
 55 51  2  0  0  0  0
 56 57  1  0  0  0  0
 57 47  1  0  0  0  0
M  END
>  <MODEL>
8

>  <REMARK>
 VINA RESULT:      -7.1      3.935      7.822
  Name = 
  11 active torsions:
  status: ('A' for Active; 'I' for Inactive)
    1  A    between atoms: C_2  and  N_19
    2  A    between atoms: C_2  and  C_24
    3  A    between atoms: C_3  and  C_8
    4  A    between atoms: C_4  and  C_9
    5  A    between atoms: C_5  and  C_49
    6  A    between atoms: C_9  and  C_20
    7  A    between atoms: C_14  and  C_41
    8  A    between atoms: C_15  and  C_30
    9  A    between atoms: C_18  and  N_35
   10  A    between atoms: C_46  and  N_51
   11  A    between atoms: C_54  and  C_56
                            x       y       z     vdW  Elec       q    Type
                         _______ _______ _______ _____ _____    ______ ____

>  <TORSDO>
F 11

$$$$
=
 OpenBabel10222417243D

 57 64  0  0  1  0  0  0  0  0999 V2000
  183.9340  177.1010  136.1940 C   0  0  2  0  0  3  0  0  0  0  0  0
  183.0590  177.7440  137.2850 C   0  0  0  0  0  0  0  0  0  0  0  0
  183.2940  176.9760  134.9340 O   0  0  0  0  0  0  0  0  0  0  0  0
  181.3710  178.2110  135.5500 C   0  0  0  0  0  2  0  0  0  0  0  0
  181.8300  178.2110  136.9770 C   0  0  0  0  0  0  0  0  0  0  0  0
  182.5850  178.1480  134.6400 C   0  0  0  0  0  2  0  0  0  0  0  0
  186.4850  176.1240  135.3270 O   0  0  0  0  0  0  0  0  0  0  0  0
  185.7980  172.6120  136.5740 C   0  0  1  0  0  0  0  0  0  0  0  0
  187.0680  173.0330  136.9100 C   0  0  2  0  0  3  0  0  0  0  0  0
  185.7440  175.2920  135.9160 C   0  0  0  0  0  0  0  0  0  0  0  0
  185.5940  171.7740  135.4900 F   0  0  0  0  0  0  0  0  0  0  0  0
  184.4450  175.6960  136.5700 C   0  0  2  0  0  3  0  0  0  0  0  0
  184.6870  172.7560  137.6050 C   0  0  0  0  0  2  0  0  0  0  0  0
  183.4570  173.3720  136.9850 C   0  0  0  0  0  3  0  0  0  0  0  0
  186.2020  173.9700  136.1290 N   0  0  0  0  0  0  0  0  0  0  0  0
  183.3610  174.6380  136.5300 C   0  0  0  0  0  3  0  0  0  0  0  0
  188.1610  172.4820  136.0100 C   0  0  0  0  0  2  0  0  0  0  0  0
  189.2740  173.4200  135.9950 N   0  0  0  0  0  2  0  0  0  0  0  0
  190.8150  171.9580  135.0150 O   0  0  0  0  0  0  0  0  0  0  0  0
  190.6090  173.0010  135.6990 C   0  0  0  0  0  0  0  0  0  0  0  0
  192.4060  175.5880  137.8510 C   0  0  1  0  0  3  0  0  0  0  0  0
  191.2580  174.7690  137.2710 C   0  0  0  0  0  2  0  0  0  0  0  0
  194.6700  174.4250  136.2830 O   0  0  0  0  0  1  0  0  0  0  0  0
  192.5530  174.4510  135.1420 C   0  0  0  0  0  2  0  0  0  0  0  0
  193.7140  175.2690  135.7120 C   0  0  1  0  0  3  0  0  0  0  0  0
  191.7690  173.7520  136.2560 C   0  0  2  0  0  3  0  0  0  0  0  0
  193.2130  176.2790  136.7460 C   0  0  0  0  0  2  0  0  0  0  0  0
  191.9020  176.5740  138.9100 C   0  0  0  0  0  2  0  0  0  0  0  0
  189.0400  178.5990  137.2810 C   0  0  0  0  0  2  0  0  0  0  0  0
  190.5320  177.1220  138.6450 C   0  0  0  0  0  0  0  0  0  0  0  0
  190.0980  177.4910  137.2470 C   0  0  0  0  0  2  0  0  0  0  0  0
  189.6360  177.1280  139.6370 C   0  0  0  0  0  3  0  0  0  0  0  0
  188.2670  177.6320  139.4140 C   0  0  0  0  0  3  0  0  0  0  0  0
  187.9680  178.2910  138.2920 C   0  0  0  0  0  3  0  0  0  0  0  0
  179.8630  178.3080  138.6130 C   0  0  0  0  0  0  0  0  0  0  0  0
  178.9310  179.0970  138.9240 O   0  0  0  0  0  0  0  0  0  0  0  0
  181.0340  178.8490  137.9880 N   0  0  0  0  0  2  0  0  0  0  0  0
  179.6630  175.9070  137.9450 C   0  0  0  0  0  3  0  0  0  0  0  0
  179.6010  174.1810  139.5580 C   0  0  0  0  0  3  0  0  0  0  0  0
  179.7680  176.4260  140.2840 C   0  0  0  0  0  0  0  0  0  0  0  0
  179.5890  174.5870  138.2630 N   0  0  0  0  0  0  0  0  0  0  0  0
  179.8460  177.3060  141.3140 F   0  0  0  0  0  0  0  0  0  0  0  0
  179.6890  175.0960  140.5550 N   0  0  0  0  0  0  0  0  0  0  0  0
  179.7460  176.8720  138.9540 C   0  0  0  0  0  0  0  0  0  0  0  0
  183.6180  178.0810  138.6080 C   0  0  0  0  0  3  0  0  0  0  0  0
  182.9300  177.9680  139.6950 N   0  0  0  0  0  0  0  0  0  0  0  0
  185.2180  178.6860  145.3050 C   0  0  0  0  0  0  0  0  0  0  0  0
  183.4610  178.7030  143.1620 C   0  0  0  0  0  0  0  0  0  0  0  0
  185.1190  177.9940  141.4100 S   0  0  0  0  0  0  0  0  0  0  0  0
  184.8010  178.3980  143.0080 C   0  0  0  0  0  0  0  0  0  0  0  0
  183.4840  178.2320  140.9830 C   0  0  0  0  0  0  0  0  0  0  0  0
  185.6680  178.3740  144.0530 N   0  0  0  0  0  0  0  0  0  0  0  0
  183.8610  179.0000  145.5130 C   0  0  0  0  0  3  0  0  0  0  0  0
  182.9660  179.0110  144.4260 C   0  0  0  0  0  3  0  0  0  0  0  0
  182.7140  178.6090  142.0350 N   0  0  0  0  0  0  0  0  0  0  0  0
  187.4840  178.2510  145.9970 N   0  0  0  0  0  1  0  0  0  0  0  0
  186.1580  178.6230  146.4630 C   0  0  0  0  0  2  0  0  0  0  0  0
  1  3  1  6  0  0  0
  1 12  1  0  0  0  0
  1  2  1  0  0  0  0
  2 45  1  0  0  0  0
  4  5  1  0  0  0  0
  5  2  2  0  0  0  0
  5 37  1  0  0  0  0
  6  3  1  0  0  0  0
  6  4  1  0  0  0  0
  7 10  2  0  0  0  0
  8 11  1  6  0  0  0
  8  9  1  0  0  0  0
  8 13  1  0  0  0  0
  9 17  1  6  0  0  0
 10 15  1  0  0  0  0
 10 12  1  0  0  0  0
 12 16  1  6  0  0  0
 14 13  1  0  0  0  0
 15  8  1  0  0  0  0
 15  9  1  0  0  0  0
 16 14  2  0  0  0  0
 18 17  1  0  0  0  0
 19 20  2  0  0  0  0
 20 18  1  0  0  0  0
 21 28  1  1  0  0  0
 22 21  1  0  0  0  0
 24 25  1  0  0  0  0
 24 26  1  0  0  0  0
 25 23  1  1  0  0  0
 25 27  1  0  0  0  0
 26 20  1  6  0  0  0
 26 22  1  0  0  0  0
 27 21  1  0  0  0  0
 29 34  1  0  0  0  0
 30 28  1  0  0  0  0
 30 32  2  0  0  0  0
 31 29  1  0  0  0  0
 31 30  1  0  0  0  0
 33 32  1  0  0  0  0
 34 33  2  0  0  0  0
 35 36  2  0  0  0  0
 35 44  1  0  0  0  0
 37 35  1  0  0  0  0
 38 41  2  0  0  0  0
 38 44  1  0  0  0  0
 39 43  2  0  0  0  0
 40 43  1  0  0  0  0
 40 42  1  0  0  0  0
 41 39  1  0  0  0  0
 44 40  2  0  0  0  0
 45 46  2  0  0  0  0
 46 51  1  0  0  0  0
 47 53  1  0  0  0  0
 47 57  1  0  0  0  0
 48 54  1  0  0  0  0
 49 50  1  0  0  0  0
 50 48  2  0  0  0  0
 50 52  1  0  0  0  0
 51 49  1  0  0  0  0
 51 55  2  0  0  0  0
 52 47  2  0  0  0  0
 54 53  2  0  0  0  0
 55 48  1  0  0  0  0
 56 57  1  0  0  0  0
M  END
>  <MODEL>
9

>  <REMARK>
 VINA RESULT:      -7.0      2.325      3.438
  Name = 
  11 active torsions:
  status: ('A' for Active; 'I' for Inactive)
    1  A    between atoms: C_2  and  N_19
    2  A    between atoms: C_2  and  C_24
    3  A    between atoms: C_3  and  C_8
    4  A    between atoms: C_4  and  C_9
    5  A    between atoms: C_5  and  C_49
    6  A    between atoms: C_9  and  C_20
    7  A    between atoms: C_14  and  C_41
    8  A    between atoms: C_15  and  C_30
    9  A    between atoms: C_18  and  N_35
   10  A    between atoms: C_46  and  N_51
   11  A    between atoms: C_54  and  C_56
                            x       y       z     vdW  Elec       q    Type
                         _______ _______ _______ _____ _____    ______ ____

>  <TORSDO>
F 11

$$$$
