=
 OpenBabel10222417113D

 51 57  0  0  1  0  0  0  0  0999 V2000
  189.4820  176.0760  138.7020 C   0  0  0  0  0  2  0  0  0  0  0  0
  188.5000  175.9680  136.4070 C   0  0  1  0  0  3  0  0  0  0  0  0
  188.6500  177.4810  136.3280 C   0  0  1  0  0  3  0  0  0  0  0  0
  190.0000  177.6650  137.0460 C   0  0  2  0  0  3  0  0  0  0  0  0
  188.7680  177.9060  134.8770 C   0  0  0  0  0  1  0  0  0  0  0  0
  189.7050  175.5880  137.2640 C   0  0  1  0  0  3  0  0  0  0  0  0
  190.6780  176.4680  136.7770 O   0  0  0  0  0  0  0  0  0  0  0  0
  189.7920  177.5570  138.5590 C   0  0  1  0  0  3  0  0  0  0  0  0
  185.8830  176.6830  137.2420 S   0  0  0  0  0  0  0  0  0  0  0  0
  185.2440  177.2280  134.7450 O   0  0  0  0  0  1  0  0  0  0  0  0
  184.9710  176.2700  135.7230 C   0  0  1  0  0  0  0  0  0  0  0  0
  185.4600  174.9380  135.2740 C   0  0  0  0  0  3  0  0  0  0  0  0
  186.5680  174.5000  135.8520 C   0  0  0  0  0  0  0  0  0  0  0  0
  187.1460  175.4070  136.8860 C   0  0  1  0  0  3  0  0  0  0  0  0
  188.2960  170.7210  134.9010 C   0  0  0  0  0  3  0  0  0  0  0  0
  186.4260  172.0070  135.7020 C   0  0  0  0  0  3  0  0  0  0  0  0
  186.9910  170.7700  135.3910 C   0  0  0  0  0  3  0  0  0  0  0  0
  187.1630  173.1860  135.5220 C   0  0  0  0  0  0  0  0  0  0  0  0
  189.0030  171.8690  134.7280 N   0  0  0  0  0  0  0  0  0  0  0  0
  188.4710  173.0850  135.0250 C   0  0  0  0  0  3  0  0  0  0  0  0
  183.4760  176.2410  136.0340 C   0  0  0  0  0  2  0  0  0  0  0  0
  183.1530  177.0560  137.2010 N   0  0  0  0  0  2  0  0  0  0  0  0
  181.9710  177.8520  136.8900 C   0  0  2  0  0  3  0  0  0  0  0  0
  181.9710  178.1530  135.5240 O   0  0  0  0  0  1  0  0  0  0  0  0
  182.7040  178.9090  138.9470 C   0  0  0  0  0  2  0  0  0  0  0  0
  180.9410  180.4430  139.2620 C   0  0  2  0  0  3  0  0  0  0  0  0
  181.8210  179.4930  140.0530 C   0  0  1  0  0  3  0  0  0  0  0  0
  180.2170  177.5630  139.5570 C   0  0  0  0  0  2  0  0  0  0  0  0
  180.9540  178.3630  140.6480 C   0  0  0  0  0  2  0  0  0  0  0  0
  181.9900  179.0970  137.6720 N   0  0  0  0  0  0  0  0  0  0  0  0
  179.6600  178.4660  138.4390 C   0  0  0  0  0  2  0  0  0  0  0  0
  179.7110  180.9610  140.0030 C   0  0  0  0  0  1  0  0  0  0  0  0
  180.6510  179.6000  138.0380 C   0  0  1  0  0  3  0  0  0  0  0  0
  188.6730  178.4400  139.0970 C   0  0  0  0  0  2  0  0  0  0  0  0
  188.7430  178.5230  140.6100 C   0  0  0  0  0  2  0  0  0  0  0  0
  187.3390  178.4740  141.1850 C   0  0  0  0  0  2  0  0  0  0  0  0
  186.2990  177.7200  143.2880 N   0  0  0  0  0  0  0  0  0  0  0  0
  187.3320  177.7550  142.4950 C   0  0  0  0  0  0  0  0  0  0  0  0
  185.0150  178.3330  143.0880 C   0  0  0  0  0  0  0  0  0  0  0  0
  184.2750  178.0160  142.1170 O   0  0  0  0  0  0  0  0  0  0  0  0
  185.1490  179.0570  145.4400 C   0  0  0  0  0  1  0  0  0  0  0  0
  184.5260  179.3310  144.0810 C   0  0  0  0  0  2  0  0  0  0  0  0
  188.5530  176.9840  142.8610 C   0  0  0  0  0  2  0  0  0  0  0  0
  188.6140  176.7700  144.3650 C   0  0  0  0  0  2  0  0  0  0  0  0
  191.4700  176.9130  146.7880 N   0  0  0  0  0  0  0  0  0  0  0  0
  190.8550  177.9140  144.6410 C   0  0  0  0  0  2  0  0  0  0  0  0
  189.3720  177.9100  145.0350 C   0  0  0  0  0  3  0  0  0  0  0  0
  191.6040  176.7790  145.3400 C   0  0  0  0  0  2  0  0  0  0  0  0
  192.2080  175.8120  147.3780 C   0  0  0  0  0  1  0  0  0  0  0  0
  190.0660  176.7150  147.1410 C   0  0  0  0  0  2  0  0  0  0  0  0
  189.2130  177.8420  146.5550 C   0  0  0  0  0  2  0  0  0  0  0  0
  2 14  1  1  0  0  0
  2  6  1  0  0  0  0
  3  5  1  6  0  0  0
  3  2  1  0  0  0  0
  3  4  1  0  0  0  0
  4  7  1  6  0  0  0
  4  8  1  0  0  0  0
  6  1  1  1  0  0  0
  7  6  1  0  0  0  0
  8  1  1  0  0  0  0
  8 34  1  6  0  0  0
 11 10  1  6  0  0  0
 11 21  1  0  0  0  0
 11  9  1  0  0  0  0
 12 11  1  0  0  0  0
 12 13  2  0  0  0  0
 14 13  1  6  0  0  0
 14  9  1  0  0  0  0
 15 17  1  0  0  0  0
 17 16  2  0  0  0  0
 18 16  1  0  0  0  0
 18 13  1  0  0  0  0
 19 15  2  0  0  0  0
 19 20  1  0  0  0  0
 20 18  2  0  0  0  0
 21 22  1  0  0  0  0
 23 24  1  6  0  0  0
 23 22  1  0  0  0  0
 23 30  1  0  0  0  0
 26 32  1  1  0  0  0
 26 27  1  0  0  0  0
 27 25  1  6  0  0  0
 27 29  1  0  0  0  0
 28 29  1  0  0  0  0
 30 33  1  0  0  0  0
 30 25  1  0  0  0  0
 31 28  1  0  0  0  0
 33 31  1  1  0  0  0
 33 26  1  0  0  0  0
 34 35  1  0  0  0  0
 35 36  1  0  0  0  0
 36 38  1  0  0  0  0
 38 43  1  0  0  0  0
 38 37  2  0  0  0  0
 39 37  1  0  0  0  0
 39 42  1  0  0  0  0
 40 39  2  0  0  0  0
 42 41  1  0  0  0  0
 43 44  1  0  0  0  0
 44 47  1  0  0  0  0
 45 50  1  0  0  0  0
 45 49  1  0  0  0  0
 46 47  1  0  0  0  0
 46 48  1  0  0  0  0
 47 51  1  0  0  0  0
 48 45  1  0  0  0  0
 51 50  1  0  0  0  0
M  END
>  <MODEL>
1

>  <REMARK>
 VINA RESULT:      -7.5      0.000      0.000
  Name = 
  15 active torsions:
  status: ('A' for Active; 'I' for Inactive)
    1  A    between atoms: N_3  and  C_20
    2  A    between atoms: C_5  and  C_50
    3  A    between atoms: C_7  and  C_26
    4  A    between atoms: C_7  and  C_41
    5  A    between atoms: N_13  and  C_17
    6  A    between atoms: N_13  and  C_48
    7  A    between atoms: C_14  and  C_48
    8  A    between atoms: C_17  and  N_36
    9  A    between atoms: C_19  and  C_24
   10  A    between atoms: C_19  and  C_33
   11  A    between atoms: C_20  and  C_38
   12  A    between atoms: C_24  and  C_29
   13  A    between atoms: C_26  and  C_33
   14  A    between atoms: C_30  and  C_41
   15  A    between atoms: C_32  and  C_43
                            x       y       z     vdW  Elec       q    Type
                         _______ _______ _______ _____ _____    ______ ____

>  <TORSDO>
F 15

$$$$
=
 OpenBabel10222417113D

 51 57  0  0  1  0  0  0  0  0999 V2000
  181.5490  179.9140  141.1750 C   0  0  0  0  0  2  0  0  0  0  0  0
  180.7760  178.4990  139.2660 C   0  0  1  0  0  3  0  0  0  0  0  0
  180.9030  177.2880  140.1800 C   0  0  1  0  0  3  0  0  0  0  0  0
  180.4010  177.8870  141.5070 C   0  0  2  0  0  3  0  0  0  0  0  0
  179.9620  176.1950  139.7110 C   0  0  0  0  0  1  0  0  0  0  0  0
  180.3640  179.5850  140.2570 C   0  0  1  0  0  3  0  0  0  0  0  0
  179.4970  178.8770  141.0970 O   0  0  0  0  0  0  0  0  0  0  0  0
  181.5100  178.7360  142.1360 C   0  0  1  0  0  3  0  0  0  0  0  0
  183.3840  177.6790  138.5000 S   0  0  0  0  0  0  0  0  0  0  0  0
  182.3400  175.7370  137.0570 O   0  0  0  0  0  1  0  0  0  0  0  0
  182.9960  176.9570  136.8760 C   0  0  1  0  0  0  0  0  0  0  0  0
  182.0930  177.9150  136.1820 C   0  0  0  0  0  3  0  0  0  0  0  0
  181.5680  178.8690  136.9350 C   0  0  0  0  0  0  0  0  0  0  0  0
  181.9810  178.8470  138.3680 C   0  0  1  0  0  3  0  0  0  0  0  0
  178.9810  181.8640  135.3490 C   0  0  0  0  0  3  0  0  0  0  0  0
  179.7890  179.5970  135.3340 C   0  0  0  0  0  3  0  0  0  0  0  0
  178.9430  180.5770  134.8130 C   0  0  0  0  0  3  0  0  0  0  0  0
  180.6670  179.9050  136.3820 C   0  0  0  0  0  0  0  0  0  0  0  0
  179.8350  182.1540  136.3670 N   0  0  0  0  0  0  0  0  0  0  0  0
  180.6680  181.2140  136.8880 C   0  0  0  0  0  3  0  0  0  0  0  0
  184.2950  176.7500  136.1010 C   0  0  0  0  0  2  0  0  0  0  0  0
  185.4260  177.3870  136.7680 N   0  0  0  0  0  2  0  0  0  0  0  0
  186.6540  176.9190  136.1340 C   0  0  2  0  0  3  0  0  0  0  0  0
  186.3310  175.9510  135.1770 O   0  0  0  0  0  1  0  0  0  0  0  0
  187.3690  176.9990  138.4510 C   0  0  0  0  0  2  0  0  0  0  0  0
  189.6290  176.3750  138.1970 C   0  0  2  0  0  3  0  0  0  0  0  0
  188.7640  177.3470  138.9770 C   0  0  1  0  0  3  0  0  0  0  0  0
  188.8840  179.0300  137.0530 C   0  0  0  0  0  2  0  0  0  0  0  0
  189.1080  178.7930  138.5590 C   0  0  0  0  0  2  0  0  0  0  0  0
  187.5460  176.3360  137.1460 N   0  0  0  0  0  0  0  0  0  0  0  0
  189.3500  177.8380  136.1940 C   0  0  0  0  0  2  0  0  0  0  0  0
  191.1270  176.6660  138.2290 C   0  0  0  0  0  1  0  0  0  0  0  0
  188.9820  176.4630  136.8300 C   0  0  1  0  0  3  0  0  0  0  0  0
  182.8530  178.0250  142.2390 C   0  0  0  0  0  2  0  0  0  0  0  0
  183.9900  179.0280  142.1790 C   0  0  0  0  0  2  0  0  0  0  0  0
  184.5070  179.2890  143.5830 C   0  0  0  0  0  2  0  0  0  0  0  0
  186.0980  178.1370  145.0710 N   0  0  0  0  0  0  0  0  0  0  0  0
  185.7070  178.4440  143.8660 C   0  0  0  0  0  0  0  0  0  0  0  0
  185.4980  178.5250  146.3170 C   0  0  0  0  0  0  0  0  0  0  0  0
  184.2760  178.3230  146.5540 O   0  0  0  0  0  0  0  0  0  0  0  0
  187.3830  178.1260  147.8530 C   0  0  0  0  0  1  0  0  0  0  0  0
  186.3540  179.1360  147.3740 C   0  0  0  0  0  2  0  0  0  0  0  0
  186.4350  177.8720  142.7000 C   0  0  0  0  0  2  0  0  0  0  0  0
  187.6020  177.0180  143.1690 C   0  0  0  0  0  2  0  0  0  0  0  0
  191.1620  177.0070  144.3400 N   0  0  0  0  0  0  0  0  0  0  0  0
  189.9060  176.3910  142.3320 C   0  0  0  0  0  2  0  0  0  0  0  0
  188.9090  177.5300  142.5750 C   0  0  0  0  0  3  0  0  0  0  0  0
  190.5020  175.9010  143.6520 C   0  0  0  0  0  2  0  0  0  0  0  0
  191.7050  176.4660  145.5730 C   0  0  0  0  0  1  0  0  0  0  0  0
  190.1460  177.9850  144.7220 C   0  0  0  0  0  2  0  0  0  0  0  0
  189.5210  178.6080  143.4720 C   0  0  0  0  0  2  0  0  0  0  0  0
  1  8  1  0  0  0  0
  2 14  1  1  0  0  0
  2  3  1  0  0  0  0
  2  6  1  0  0  0  0
  3  5  1  6  0  0  0
  3  4  1  0  0  0  0
  4  7  1  6  0  0  0
  4  8  1  0  0  0  0
  6  7  1  0  0  0  0
  6  1  1  1  0  0  0
  8 34  1  6  0  0  0
 11 10  1  1  0  0  0
 11  9  1  0  0  0  0
 12 11  1  0  0  0  0
 12 13  2  0  0  0  0
 14 13  1  6  0  0  0
 14  9  1  0  0  0  0
 15 19  1  0  0  0  0
 16 18  2  0  0  0  0
 17 16  1  0  0  0  0
 17 15  2  0  0  0  0
 18 20  1  0  0  0  0
 18 13  1  0  0  0  0
 19 20  2  0  0  0  0
 21 22  1  0  0  0  0
 21 11  1  0  0  0  0
 23 24  1  6  0  0  0
 23 22  1  0  0  0  0
 23 30  1  0  0  0  0
 26 32  1  6  0  0  0
 26 27  1  0  0  0  0
 27 25  1  6  0  0  0
 28 29  1  0  0  0  0
 29 27  1  0  0  0  0
 30 25  1  0  0  0  0
 31 28  1  0  0  0  0
 33 31  1  1  0  0  0
 33 30  1  0  0  0  0
 33 26  1  0  0  0  0
 35 34  1  0  0  0  0
 35 36  1  0  0  0  0
 36 38  1  0  0  0  0
 37 39  1  0  0  0  0
 38 37  2  0  0  0  0
 39 40  2  0  0  0  0
 39 42  1  0  0  0  0
 42 41  1  0  0  0  0
 43 44  1  0  0  0  0
 43 38  1  0  0  0  0
 45 50  1  0  0  0  0
 45 49  1  0  0  0  0
 46 47  1  0  0  0  0
 46 48  1  0  0  0  0
 47 44  1  0  0  0  0
 47 51  1  0  0  0  0
 48 45  1  0  0  0  0
 51 50  1  0  0  0  0
M  END
>  <MODEL>
2

>  <REMARK>
 VINA RESULT:      -7.4      2.491      7.372
  Name = 
  15 active torsions:
  status: ('A' for Active; 'I' for Inactive)
    1  A    between atoms: N_3  and  C_20
    2  A    between atoms: C_5  and  C_50
    3  A    between atoms: C_7  and  C_26
    4  A    between atoms: C_7  and  C_41
    5  A    between atoms: N_13  and  C_17
    6  A    between atoms: N_13  and  C_48
    7  A    between atoms: C_14  and  C_48
    8  A    between atoms: C_17  and  N_36
    9  A    between atoms: C_19  and  C_24
   10  A    between atoms: C_19  and  C_33
   11  A    between atoms: C_20  and  C_38
   12  A    between atoms: C_24  and  C_29
   13  A    between atoms: C_26  and  C_33
   14  A    between atoms: C_30  and  C_41
   15  A    between atoms: C_32  and  C_43
                            x       y       z     vdW  Elec       q    Type
                         _______ _______ _______ _____ _____    ______ ____

>  <TORSDO>
F 15

$$$$
=
 OpenBabel10222417113D

 51 57  0  0  1  0  0  0  0  0999 V2000
  189.0330  176.5510  139.9150 C   0  0  0  0  0  2  0  0  0  0  0  0
  189.0180  176.7730  137.4260 C   0  0  1  0  0  3  0  0  0  0  0  0
  188.5110  178.1970  137.6080 C   0  0  1  0  0  3  0  0  0  0  0  0
  189.3240  178.6260  138.8440 C   0  0  2  0  0  3  0  0  0  0  0  0
  188.9050  179.0360  136.4080 C   0  0  0  0  0  1  0  0  0  0  0  0
  189.9080  176.6080  138.6560 C   0  0  1  0  0  3  0  0  0  0  0  0
  190.5010  177.8730  138.7380 O   0  0  0  0  0  0  0  0  0  0  0  0
  188.6950  178.0220  140.1030 C   0  0  1  0  0  3  0  0  0  0  0  0
  186.2340  176.2190  137.3880 S   0  0  0  0  0  0  0  0  0  0  0  0
  186.0350  177.4200  135.0510 O   0  0  0  0  0  1  0  0  0  0  0  0
  185.9800  176.1330  135.5890 C   0  0  1  0  0  0  0  0  0  0  0  0
  187.0880  175.3080  135.0350 C   0  0  0  0  0  3  0  0  0  0  0  0
  188.1040  175.0750  135.8520 C   0  0  0  0  0  0  0  0  0  0  0  0
  187.9690  175.6620  137.2170 C   0  0  1  0  0  3  0  0  0  0  0  0
  191.4520  172.7050  134.6910 C   0  0  0  0  0  3  0  0  0  0  0  0
  190.4650  174.8700  135.0520 C   0  0  0  0  0  3  0  0  0  0  0  0
  191.5610  174.0950  134.6710 C   0  0  0  0  0  3  0  0  0  0  0  0
  189.2690  174.2560  135.4490 C   0  0  0  0  0  0  0  0  0  0  0  0
  190.2890  172.1170  135.0800 N   0  0  0  0  0  0  0  0  0  0  0  0
  189.2090  172.8550  135.4530 C   0  0  0  0  0  3  0  0  0  0  0  0
  184.6190  175.5000  135.3090 C   0  0  0  0  0  2  0  0  0  0  0  0
  183.8000  175.4280  136.5150 N   0  0  0  0  0  2  0  0  0  0  0  0
  182.6050  176.2380  136.3060 C   0  0  2  0  0  3  0  0  0  0  0  0
  182.7680  176.9980  135.1440 O   0  0  0  0  0  1  0  0  0  0  0  0
  182.8740  176.5010  138.7030 C   0  0  0  0  0  2  0  0  0  0  0  0
  180.9910  177.8400  139.1750 C   0  0  2  0  0  3  0  0  0  0  0  0
  181.7650  176.6660  139.7460 C   0  0  1  0  0  3  0  0  0  0  0  0
  180.4060  175.0440  138.3090 C   0  0  0  0  0  2  0  0  0  0  0  0
  180.8750  175.4050  139.7310 C   0  0  0  0  0  2  0  0  0  0  0  0
  182.4000  177.1290  137.4570 N   0  0  0  0  0  0  0  0  0  0  0  0
  180.0120  176.2850  137.4850 C   0  0  0  0  0  2  0  0  0  0  0  0
  179.6140  178.0730  139.7920 C   0  0  0  0  0  1  0  0  0  0  0  0
  180.9880  177.4810  137.7040 C   0  0  1  0  0  3  0  0  0  0  0  0
  187.1960  178.2630  140.2260 C   0  0  0  0  0  2  0  0  0  0  0  0
  186.8820  179.0080  141.5110 C   0  0  0  0  0  2  0  0  0  0  0  0
  185.9300  178.1800  142.3540 C   0  0  0  0  0  2  0  0  0  0  0  0
  185.9860  178.1110  144.8170 N   0  0  0  0  0  0  0  0  0  0  0  0
  186.5510  177.8460  143.6730 C   0  0  0  0  0  0  0  0  0  0  0  0
  184.7190  178.7470  145.0480 C   0  0  0  0  0  0  0  0  0  0  0  0
  184.1670  178.7290  146.1820 O   0  0  0  0  0  0  0  0  0  0  0  0
  182.6330  179.0070  143.7630 C   0  0  0  0  0  1  0  0  0  0  0  0
  184.0650  179.4870  143.9310 C   0  0  0  0  0  2  0  0  0  0  0  0
  187.8440  177.1090  143.6560 C   0  0  0  0  0  2  0  0  0  0  0  0
  188.3270  176.8530  145.0740 C   0  0  0  0  0  2  0  0  0  0  0  0
  191.6610  176.8230  146.7880 N   0  0  0  0  0  0  0  0  0  0  0  0
  190.6490  177.8210  144.7950 C   0  0  0  0  0  2  0  0  0  0  0  0
  189.2980  177.9430  145.5110 C   0  0  0  0  0  3  0  0  0  0  0  0
  191.4540  176.6460  145.3530 C   0  0  0  0  0  2  0  0  0  0  0  0
  192.4320  175.6800  147.2410 C   0  0  0  0  0  1  0  0  0  0  0  0
  190.3630  176.7440  147.4540 C   0  0  0  0  0  2  0  0  0  0  0  0
  189.4830  177.9220  147.0290 C   0  0  0  0  0  2  0  0  0  0  0  0
  1  8  1  0  0  0  0
  2 14  1  1  0  0  0
  2  3  1  0  0  0  0
  2  6  1  0  0  0  0
  3  5  1  6  0  0  0
  3  4  1  0  0  0  0
  4  7  1  6  0  0  0
  4  8  1  0  0  0  0
  6  7  1  0  0  0  0
  6  1  1  1  0  0  0
  8 34  1  6  0  0  0
 11 10  1  6  0  0  0
 11  9  1  0  0  0  0
 12 11  1  0  0  0  0
 12 13  2  0  0  0  0
 14 13  1  6  0  0  0
 14  9  1  0  0  0  0
 15 19  1  0  0  0  0
 16 18  2  0  0  0  0
 17 15  2  0  0  0  0
 17 16  1  0  0  0  0
 18 20  1  0  0  0  0
 18 13  1  0  0  0  0
 19 20  2  0  0  0  0
 21 11  1  0  0  0  0
 21 22  1  0  0  0  0
 23 24  1  6  0  0  0
 23 22  1  0  0  0  0
 23 30  1  0  0  0  0
 26 27  1  0  0  0  0
 26 32  1  1  0  0  0
 27 25  1  6  0  0  0
 28 29  1  0  0  0  0
 29 27  1  0  0  0  0
 30 33  1  0  0  0  0
 30 25  1  0  0  0  0
 31 28  1  0  0  0  0
 33 31  1  1  0  0  0
 33 26  1  0  0  0  0
 34 35  1  0  0  0  0
 35 36  1  0  0  0  0
 36 38  1  0  0  0  0
 37 39  1  0  0  0  0
 38 37  2  0  0  0  0
 39 40  2  0  0  0  0
 41 42  1  0  0  0  0
 42 39  1  0  0  0  0
 43 38  1  0  0  0  0
 43 44  1  0  0  0  0
 44 47  1  0  0  0  0
 45 49  1  0  0  0  0
 45 50  1  0  0  0  0
 46 48  1  0  0  0  0
 46 47  1  0  0  0  0
 47 51  1  0  0  0  0
 48 45  1  0  0  0  0
 51 50  1  0  0  0  0
M  END
>  <MODEL>
3

>  <REMARK>
 VINA RESULT:      -6.9      1.560      2.156
  Name = 
  15 active torsions:
  status: ('A' for Active; 'I' for Inactive)
    1  A    between atoms: N_3  and  C_20
    2  A    between atoms: C_5  and  C_50
    3  A    between atoms: C_7  and  C_26
    4  A    between atoms: C_7  and  C_41
    5  A    between atoms: N_13  and  C_17
    6  A    between atoms: N_13  and  C_48
    7  A    between atoms: C_14  and  C_48
    8  A    between atoms: C_17  and  N_36
    9  A    between atoms: C_19  and  C_24
   10  A    between atoms: C_19  and  C_33
   11  A    between atoms: C_20  and  C_38
   12  A    between atoms: C_24  and  C_29
   13  A    between atoms: C_26  and  C_33
   14  A    between atoms: C_30  and  C_41
   15  A    between atoms: C_32  and  C_43
                            x       y       z     vdW  Elec       q    Type
                         _______ _______ _______ _____ _____    ______ ____

>  <TORSDO>
F 15

$$$$
=
 OpenBabel10222417113D

 51 57  0  0  1  0  0  0  0  0999 V2000
  190.4030  175.8630  142.2140 C   0  0  0  0  0  2  0  0  0  0  0  0
  190.0300  177.7700  140.6420 C   0  0  1  0  0  3  0  0  0  0  0  0
  189.1170  178.3890  141.6920 C   0  0  1  0  0  3  0  0  0  0  0  0
  189.8850  178.0280  142.9770 C   0  0  2  0  0  3  0  0  0  0  0  0
  189.0790  179.8940  141.5120 C   0  0  0  0  0  1  0  0  0  0  0  0
  191.0620  177.0620  141.5170 C   0  0  1  0  0  3  0  0  0  0  0  0
  191.2210  177.9850  142.5570 O   0  0  0  0  0  0  0  0  0  0  0  0
  189.6340  176.5580  143.3260 C   0  0  1  0  0  3  0  0  0  0  0  0
  187.6920  177.4240  139.0690 S   0  0  0  0  0  0  0  0  0  0  0  0
  188.3980  179.4820  137.5830 O   0  0  0  0  0  1  0  0  0  0  0  0
  188.3030  178.0920  137.4910 C   0  0  1  0  0  0  0  0  0  0  0  0
  189.6550  177.5090  137.2700 C   0  0  0  0  0  3  0  0  0  0  0  0
  190.2090  176.9120  138.3130 C   0  0  0  0  0  0  0  0  0  0  0  0
  189.3780  176.8970  139.5520 C   0  0  1  0  0  3  0  0  0  0  0  0
  194.0490  175.0720  138.1090 C   0  0  0  0  0  3  0  0  0  0  0  0
  191.6730  174.9650  137.7460 C   0  0  0  0  0  3  0  0  0  0  0  0
  192.9290  174.3620  137.6790 C   0  0  0  0  0  3  0  0  0  0  0  0
  191.5400  176.2700  138.2400 C   0  0  0  0  0  0  0  0  0  0  0  0
  193.9120  176.3390  138.5860 N   0  0  0  0  0  0  0  0  0  0  0  0
  192.6960  176.9440  138.6590 C   0  0  0  0  0  3  0  0  0  0  0  0
  187.3350  177.6990  136.3770 C   0  0  0  0  0  2  0  0  0  0  0  0
  186.6090  176.4750  136.7030 N   0  0  0  0  0  2  0  0  0  0  0  0
  186.9600  175.4580  135.7180 C   0  0  2  0  0  3  0  0  0  0  0  0
  187.5770  176.0770  134.6250 O   0  0  0  0  0  1  0  0  0  0  0  0
  184.6780  174.8590  136.2790 C   0  0  0  0  0  2  0  0  0  0  0  0
  184.5340  172.7670  135.2010 C   0  0  2  0  0  3  0  0  0  0  0  0
  184.1160  173.4510  136.4900 C   0  0  1  0  0  3  0  0  0  0  0  0
  186.3790  172.8910  137.5450 C   0  0  0  0  0  2  0  0  0  0  0  0
  184.8470  172.7950  137.6810 C   0  0  0  0  0  2  0  0  0  0  0  0
  185.7480  174.7580  135.2710 N   0  0  0  0  0  0  0  0  0  0  0  0
  186.8580  172.6380  136.1020 C   0  0  0  0  0  2  0  0  0  0  0  0
  184.4220  171.2440  135.2070 C   0  0  0  0  0  1  0  0  0  0  0  0
  185.9370  173.3120  135.0400 C   0  0  1  0  0  3  0  0  0  0  0  0
  188.1620  176.1670  143.3480 C   0  0  0  0  0  2  0  0  0  0  0  0
  187.3150  177.3170  143.8610 C   0  0  0  0  0  2  0  0  0  0  0  0
  186.5340  176.8640  145.0810 C   0  0  0  0  0  2  0  0  0  0  0  0
  187.3280  178.1100  147.0540 N   0  0  0  0  0  0  0  0  0  0  0  0
  186.4590  177.9610  146.0940 C   0  0  0  0  0  0  0  0  0  0  0  0
  188.4780  177.2960  147.3340 C   0  0  0  0  0  0  0  0  0  0  0  0
  188.4120  176.3020  148.1080 O   0  0  0  0  0  0  0  0  0  0  0  0
  190.8510  176.6570  147.1450 C   0  0  0  0  0  1  0  0  0  0  0  0
  189.7690  177.6060  146.6550 C   0  0  0  0  0  2  0  0  0  0  0  0
  185.3740  178.9680  145.9370 C   0  0  0  0  0  2  0  0  0  0  0  0
  184.3500  178.4890  144.9200 C   0  0  0  0  0  2  0  0  0  0  0  0
  183.1990  178.5490  141.3540 N   0  0  0  0  0  0  0  0  0  0  0  0
  182.5440  179.5420  143.4930 C   0  0  0  0  0  2  0  0  0  0  0  0
  184.0100  179.6060  143.9400 C   0  0  0  0  0  3  0  0  0  0  0  0
  182.3260  178.3880  142.5140 C   0  0  0  0  0  2  0  0  0  0  0  0
  182.9320  177.4270  140.4730 C   0  0  0  0  0  1  0  0  0  0  0  0
  184.5850  178.4150  141.7960 C   0  0  0  0  0  2  0  0  0  0  0  0
  184.9500  179.5670  142.7340 C   0  0  0  0  0  2  0  0  0  0  0  0
  1  8  1  0  0  0  0
  2 14  1  6  0  0  0
  2  6  1  0  0  0  0
  2  3  1  0  0  0  0
  3  5  1  6  0  0  0
  3  4  1  0  0  0  0
  4  7  1  6  0  0  0
  4  8  1  0  0  0  0
  6  1  1  1  0  0  0
  6  7  1  0  0  0  0
  8 34  1  6  0  0  0
  9 14  1  0  0  0  0
 11 10  1  1  0  0  0
 11  9  1  0  0  0  0
 12 11  1  0  0  0  0
 12 13  2  0  0  0  0
 14 13  1  6  0  0  0
 15 19  1  0  0  0  0
 16 18  2  0  0  0  0
 17 16  1  0  0  0  0
 17 15  2  0  0  0  0
 18 13  1  0  0  0  0
 18 20  1  0  0  0  0
 19 20  2  0  0  0  0
 21 22  1  0  0  0  0
 21 11  1  0  0  0  0
 23 24  1  6  0  0  0
 23 22  1  0  0  0  0
 26 32  1  1  0  0  0
 26 27  1  0  0  0  0
 27 25  1  6  0  0  0
 27 29  1  0  0  0  0
 28 29  1  0  0  0  0
 30 23  1  0  0  0  0
 30 25  1  0  0  0  0
 31 28  1  0  0  0  0
 33 26  1  0  0  0  0
 33 30  1  0  0  0  0
 33 31  1  1  0  0  0
 34 35  1  0  0  0  0
 35 36  1  0  0  0  0
 36 38  1  0  0  0  0
 37 39  1  0  0  0  0
 38 37  2  0  0  0  0
 39 40  2  0  0  0  0
 42 41  1  0  0  0  0
 42 39  1  0  0  0  0
 43 38  1  0  0  0  0
 44 43  1  0  0  0  0
 45 50  1  0  0  0  0
 45 48  1  0  0  0  0
 46 47  1  0  0  0  0
 47 44  1  0  0  0  0
 48 46  1  0  0  0  0
 49 45  1  0  0  0  0
 50 51  1  0  0  0  0
 51 47  1  0  0  0  0
M  END
>  <MODEL>
4

>  <REMARK>
 VINA RESULT:      -6.9      2.736      6.583
  Name = 
  15 active torsions:
  status: ('A' for Active; 'I' for Inactive)
    1  A    between atoms: N_3  and  C_20
    2  A    between atoms: C_5  and  C_50
    3  A    between atoms: C_7  and  C_26
    4  A    between atoms: C_7  and  C_41
    5  A    between atoms: N_13  and  C_17
    6  A    between atoms: N_13  and  C_48
    7  A    between atoms: C_14  and  C_48
    8  A    between atoms: C_17  and  N_36
    9  A    between atoms: C_19  and  C_24
   10  A    between atoms: C_19  and  C_33
   11  A    between atoms: C_20  and  C_38
   12  A    between atoms: C_24  and  C_29
   13  A    between atoms: C_26  and  C_33
   14  A    between atoms: C_30  and  C_41
   15  A    between atoms: C_32  and  C_43
                            x       y       z     vdW  Elec       q    Type
                         _______ _______ _______ _____ _____    ______ ____

>  <TORSDO>
F 15

$$$$
=
 OpenBabel10222417113D

 51 57  0  0  1  0  0  0  0  0999 V2000
  189.0980  176.4080  140.2690 C   0  0  0  0  0  2  0  0  0  0  0  0
  189.0280  177.0780  137.8620 C   0  0  1  0  0  3  0  0  0  0  0  0
  188.6650  178.4850  138.3180 C   0  0  1  0  0  3  0  0  0  0  0  0
  189.5520  178.6090  139.5710 C   0  0  2  0  0  3  0  0  0  0  0  0
  189.1010  179.4880  137.2680 C   0  0  0  0  0  1  0  0  0  0  0  0
  189.9360  176.6150  138.9990 C   0  0  1  0  0  3  0  0  0  0  0  0
  190.6480  177.7870  139.2770 O   0  0  0  0  0  0  0  0  0  0  0  0
  188.9070  177.8440  140.7300 C   0  0  1  0  0  3  0  0  0  0  0  0
  186.2190  176.9050  137.4910 S   0  0  0  0  0  0  0  0  0  0  0  0
  186.4570  178.1390  135.1750 O   0  0  0  0  0  1  0  0  0  0  0  0
  186.1680  176.8660  135.6730 C   0  0  1  0  0  0  0  0  0  0  0  0
  187.2140  175.9040  135.2320 C   0  0  0  0  0  3  0  0  0  0  0  0
  188.0870  175.5300  136.1550 C   0  0  0  0  0  0  0  0  0  0  0  0
  187.8730  176.1200  137.5080 C   0  0  1  0  0  3  0  0  0  0  0  0
  191.2200  172.7560  135.3400 C   0  0  0  0  0  3  0  0  0  0  0  0
  188.8710  173.2720  135.4180 C   0  0  0  0  0  3  0  0  0  0  0  0
  189.8960  172.3630  135.1520 C   0  0  0  0  0  3  0  0  0  0  0  0
  189.1720  174.5640  135.8700 C   0  0  0  0  0  0  0  0  0  0  0  0
  191.5040  174.0130  135.7760 N   0  0  0  0  0  0  0  0  0  0  0  0
  190.5190  174.9130  136.0420 C   0  0  0  0  0  3  0  0  0  0  0  0
  184.7770  176.4250  135.2240 C   0  0  0  0  0  2  0  0  0  0  0  0
  183.9600  175.9920  136.3530 N   0  0  0  0  0  2  0  0  0  0  0  0
  182.8950  175.1330  135.8450 C   0  0  2  0  0  3  0  0  0  0  0  0
  181.6830  175.8300  135.9000 O   0  0  0  0  0  1  0  0  0  0  0  0
  184.0150  173.7410  137.4860 C   0  0  0  0  0  2  0  0  0  0  0  0
  183.2030  171.6240  136.8380 C   0  0  2  0  0  3  0  0  0  0  0  0
  184.4810  172.2930  137.3080 C   0  0  1  0  0  3  0  0  0  0  0  0
  185.0440  172.9520  134.9000 C   0  0  0  0  0  2  0  0  0  0  0  0
  185.5330  172.2450  136.1790 C   0  0  0  0  0  2  0  0  0  0  0  0
  182.8050  173.9160  136.6630 N   0  0  0  0  0  0  0  0  0  0  0  0
  183.5620  172.6610  134.5970 C   0  0  0  0  0  2  0  0  0  0  0  0
  183.3800  170.2280  136.2460 C   0  0  0  0  0  1  0  0  0  0  0  0
  182.6770  172.6710  135.8790 C   0  0  1  0  0  3  0  0  0  0  0  0
  187.4430  178.1910  140.9650 C   0  0  0  0  0  2  0  0  0  0  0  0
  187.2200  178.6110  142.4060 C   0  0  0  0  0  2  0  0  0  0  0  0
  186.4440  177.5280  143.1340 C   0  0  0  0  0  2  0  0  0  0  0  0
  184.6740  178.4990  144.5470 N   0  0  0  0  0  0  0  0  0  0  0  0
  185.8920  178.0530  144.4200 C   0  0  0  0  0  0  0  0  0  0  0  0
  183.6570  178.5830  143.5360 C   0  0  0  0  0  0  0  0  0  0  0  0
  182.4740  178.9210  143.8150 O   0  0  0  0  0  0  0  0  0  0  0  0
  182.8130  178.5340  141.2210 C   0  0  0  0  0  1  0  0  0  0  0  0
  184.0210  178.3110  142.1170 C   0  0  0  0  0  2  0  0  0  0  0  0
  186.7680  177.9850  145.6220 C   0  0  0  0  0  2  0  0  0  0  0  0
  188.1000  177.3410  145.2710 C   0  0  0  0  0  2  0  0  0  0  0  0
  191.6200  176.7280  146.4040 N   0  0  0  0  0  0  0  0  0  0  0  0
  190.4580  178.0880  144.7340 C   0  0  0  0  0  2  0  0  0  0  0  0
  189.2540  178.2540  145.6690 C   0  0  0  0  0  3  0  0  0  0  0  0
  191.1820  176.7710  145.0110 C   0  0  0  0  0  2  0  0  0  0  0  0
  192.3000  175.4590  146.5880 C   0  0  0  0  0  1  0  0  0  0  0  0
  190.4350  176.6970  147.2590 C   0  0  0  0  0  2  0  0  0  0  0  0
  189.6570  178.0070  147.1240 C   0  0  0  0  0  2  0  0  0  0  0  0
  1  8  1  0  0  0  0
  2 14  1  1  0  0  0
  2  3  1  0  0  0  0
  2  6  1  0  0  0  0
  3  5  1  6  0  0  0
  3  4  1  0  0  0  0
  4  7  1  6  0  0  0
  4  8  1  0  0  0  0
  6  7  1  0  0  0  0
  6  1  1  1  0  0  0
  8 34  1  6  0  0  0
  9 14  1  0  0  0  0
 11 10  1  6  0  0  0
 11  9  1  0  0  0  0
 12 11  1  0  0  0  0
 12 13  2  0  0  0  0
 14 13  1  6  0  0  0
 15 19  1  0  0  0  0
 16 18  2  0  0  0  0
 17 15  2  0  0  0  0
 17 16  1  0  0  0  0
 18 20  1  0  0  0  0
 18 13  1  0  0  0  0
 19 20  2  0  0  0  0
 21 11  1  0  0  0  0
 21 22  1  0  0  0  0
 23 24  1  1  0  0  0
 23 22  1  0  0  0  0
 23 30  1  0  0  0  0
 26 32  1  6  0  0  0
 26 27  1  0  0  0  0
 27 29  1  6  0  0  0
 27 25  1  0  0  0  0
 28 29  1  0  0  0  0
 30 25  1  0  0  0  0
 31 28  1  0  0  0  0
 33 31  1  6  0  0  0
 33 30  1  0  0  0  0
 33 26  1  0  0  0  0
 34 35  1  0  0  0  0
 35 36  1  0  0  0  0
 36 38  1  0  0  0  0
 38 37  2  0  0  0  0
 38 43  1  0  0  0  0
 39 40  2  0  0  0  0
 39 37  1  0  0  0  0
 41 42  1  0  0  0  0
 42 39  1  0  0  0  0
 44 43  1  0  0  0  0
 44 47  1  0  0  0  0
 45 49  1  0  0  0  0
 45 50  1  0  0  0  0
 46 48  1  0  0  0  0
 46 47  1  0  0  0  0
 47 51  1  0  0  0  0
 48 45  1  0  0  0  0
 51 50  1  0  0  0  0
M  END
>  <MODEL>
5

>  <REMARK>
 VINA RESULT:      -6.7      2.018      4.056
  Name = 
  15 active torsions:
  status: ('A' for Active; 'I' for Inactive)
    1  A    between atoms: N_3  and  C_20
    2  A    between atoms: C_5  and  C_50
    3  A    between atoms: C_7  and  C_26
    4  A    between atoms: C_7  and  C_41
    5  A    between atoms: N_13  and  C_17
    6  A    between atoms: N_13  and  C_48
    7  A    between atoms: C_14  and  C_48
    8  A    between atoms: C_17  and  N_36
    9  A    between atoms: C_19  and  C_24
   10  A    between atoms: C_19  and  C_33
   11  A    between atoms: C_20  and  C_38
   12  A    between atoms: C_24  and  C_29
   13  A    between atoms: C_26  and  C_33
   14  A    between atoms: C_30  and  C_41
   15  A    between atoms: C_32  and  C_43
                            x       y       z     vdW  Elec       q    Type
                         _______ _______ _______ _____ _____    ______ ____

>  <TORSDO>
F 15

$$$$
=
 OpenBabel10222417113D

 51 57  0  0  1  0  0  0  0  0999 V2000
  190.1020  175.6210  142.5030 C   0  0  0  0  0  2  0  0  0  0  0  0
  190.3030  177.4970  140.8630 C   0  0  1  0  0  3  0  0  0  0  0  0
  189.4040  178.3210  141.7750 C   0  0  1  0  0  3  0  0  0  0  0  0
  189.9230  177.8750  143.1550 C   0  0  2  0  0  3  0  0  0  0  0  0
  189.6810  179.7970  141.5650 C   0  0  0  0  0  1  0  0  0  0  0  0
  191.0620  176.6430  141.8760 C   0  0  1  0  0  3  0  0  0  0  0  0
  191.2670  177.5620  142.9120 O   0  0  0  0  0  0  0  0  0  0  0  0
  189.3510  176.4950  143.4940 C   0  0  1  0  0  3  0  0  0  0  0  0
  187.9540  177.3030  139.2800 S   0  0  0  0  0  0  0  0  0  0  0  0
  188.6820  179.4580  137.9510 O   0  0  0  0  0  1  0  0  0  0  0  0
  188.5680  178.0800  137.7550 C   0  0  1  0  0  0  0  0  0  0  0  0
  189.9100  177.4980  137.4820 C   0  0  0  0  0  3  0  0  0  0  0  0
  190.4600  176.8150  138.4740 C   0  0  0  0  0  0  0  0  0  0  0  0
  189.6340  176.7170  139.7130 C   0  0  1  0  0  3  0  0  0  0  0  0
  194.2740  174.9440  138.1120 C   0  0  0  0  0  3  0  0  0  0  0  0
  191.9020  174.9210  137.7060 C   0  0  0  0  0  3  0  0  0  0  0  0
  193.1490  174.3070  137.5870 C   0  0  0  0  0  3  0  0  0  0  0  0
  191.7820  176.1630  138.3450 C   0  0  0  0  0  0  0  0  0  0  0  0
  194.1500  176.1500  138.7290 N   0  0  0  0  0  0  0  0  0  0  0  0
  192.9420  176.7640  138.8550 C   0  0  0  0  0  3  0  0  0  0  0  0
  187.5900  177.7870  136.6190 C   0  0  0  0  0  2  0  0  0  0  0  0
  186.4090  177.0750  137.0970 N   0  0  0  0  0  2  0  0  0  0  0  0
  186.0790  176.0340  136.1300 C   0  0  2  0  0  3  0  0  0  0  0  0
  187.0560  176.0180  135.1280 O   0  0  0  0  0  1  0  0  0  0  0  0
  183.9990  177.2610  136.3570 C   0  0  0  0  0  2  0  0  0  0  0  0
  182.5120  175.7170  135.3750 C   0  0  2  0  0  3  0  0  0  0  0  0
  182.5960  176.6770  136.5470 C   0  0  1  0  0  3  0  0  0  0  0  0
  183.7250  174.8740  137.9680 C   0  0  0  0  0  2  0  0  0  0  0  0
  182.5630  175.8810  137.8690 C   0  0  0  0  0  2  0  0  0  0  0  0
  184.7630  176.3060  135.5350 N   0  0  0  0  0  0  0  0  0  0  0  0
  183.9980  174.1560  136.6330 C   0  0  0  0  0  2  0  0  0  0  0  0
  181.3640  174.7130  135.4380 C   0  0  0  0  0  1  0  0  0  0  0  0
  183.9000  175.1150  135.4080 C   0  0  1  0  0  3  0  0  0  0  0  0
  187.8400  176.3920  143.3310 C   0  0  0  0  0  2  0  0  0  0  0  0
  187.1340  177.0990  144.4730 C   0  0  0  0  0  2  0  0  0  0  0  0
  186.4380  178.3410  143.9450 C   0  0  0  0  0  2  0  0  0  0  0  0
  184.8830  178.7490  145.8140 N   0  0  0  0  0  0  0  0  0  0  0  0
  185.0790  178.4800  144.5540 C   0  0  0  0  0  0  0  0  0  0  0  0
  185.8730  178.9560  146.8340 C   0  0  0  0  0  0  0  0  0  0  0  0
  186.0560  180.0880  147.3590 O   0  0  0  0  0  0  0  0  0  0  0  0
  187.8340  178.2790  148.1640 C   0  0  0  0  0  1  0  0  0  0  0  0
  186.6690  177.7920  147.3180 C   0  0  0  0  0  2  0  0  0  0  0  0
  183.9050  178.3750  143.6440 C   0  0  0  0  0  2  0  0  0  0  0  0
  184.2170  179.0160  142.3010 C   0  0  0  0  0  2  0  0  0  0  0  0
  182.4020  179.4080  139.0450 N   0  0  0  0  0  0  0  0  0  0  0  0
  184.5260  178.4910  139.8440 C   0  0  0  0  0  2  0  0  0  0  0  0
  183.8730  178.0610  141.1630 C   0  0  0  0  0  3  0  0  0  0  0  0
  183.8140  179.7120  139.2600 C   0  0  0  0  0  2  0  0  0  0  0  0
  181.7990  180.6040  138.4860 C   0  0  0  0  0  1  0  0  0  0  0  0
  181.7740  179.1890  140.3460 C   0  0  0  0  0  2  0  0  0  0  0  0
  182.3560  177.9380  141.0050 C   0  0  0  0  0  2  0  0  0  0  0  0
  1  8  1  0  0  0  0
  2 14  1  6  0  0  0
  2  3  1  0  0  0  0
  2  6  1  0  0  0  0
  3  5  1  6  0  0  0
  3  4  1  0  0  0  0
  4  7  1  6  0  0  0
  4  8  1  0  0  0  0
  6  1  1  1  0  0  0
  6  7  1  0  0  0  0
  8 34  1  6  0  0  0
  9 14  1  0  0  0  0
 11 10  1  1  0  0  0
 11  9  1  0  0  0  0
 12 11  1  0  0  0  0
 12 13  2  0  0  0  0
 14 13  1  6  0  0  0
 15 19  1  0  0  0  0
 16 18  2  0  0  0  0
 17 16  1  0  0  0  0
 17 15  2  0  0  0  0
 18 13  1  0  0  0  0
 18 20  1  0  0  0  0
 19 20  2  0  0  0  0
 21 22  1  0  0  0  0
 21 11  1  0  0  0  0
 23 24  1  6  0  0  0
 23 22  1  0  0  0  0
 26 33  1  0  0  0  0
 26 32  1  1  0  0  0
 26 27  1  0  0  0  0
 27 25  1  6  0  0  0
 27 29  1  0  0  0  0
 29 28  1  0  0  0  0
 30 23  1  0  0  0  0
 30 25  1  0  0  0  0
 31 28  1  0  0  0  0
 33 30  1  0  0  0  0
 33 31  1  1  0  0  0
 34 35  1  0  0  0  0
 36 35  1  0  0  0  0
 36 38  1  0  0  0  0
 37 39  1  0  0  0  0
 38 37  2  0  0  0  0
 39 42  1  0  0  0  0
 39 40  2  0  0  0  0
 42 41  1  0  0  0  0
 43 38  1  0  0  0  0
 44 43  1  0  0  0  0
 45 48  1  0  0  0  0
 45 50  1  0  0  0  0
 46 47  1  0  0  0  0
 47 44  1  0  0  0  0
 48 46  1  0  0  0  0
 49 45  1  0  0  0  0
 50 51  1  0  0  0  0
 51 47  1  0  0  0  0
M  END
>  <MODEL>
6

>  <REMARK>
 VINA RESULT:      -6.2      2.854      6.290
  Name = 
  15 active torsions:
  status: ('A' for Active; 'I' for Inactive)
    1  A    between atoms: N_3  and  C_20
    2  A    between atoms: C_5  and  C_50
    3  A    between atoms: C_7  and  C_26
    4  A    between atoms: C_7  and  C_41
    5  A    between atoms: N_13  and  C_17
    6  A    between atoms: N_13  and  C_48
    7  A    between atoms: C_14  and  C_48
    8  A    between atoms: C_17  and  N_36
    9  A    between atoms: C_19  and  C_24
   10  A    between atoms: C_19  and  C_33
   11  A    between atoms: C_20  and  C_38
   12  A    between atoms: C_24  and  C_29
   13  A    between atoms: C_26  and  C_33
   14  A    between atoms: C_30  and  C_41
   15  A    between atoms: C_32  and  C_43
                            x       y       z     vdW  Elec       q    Type
                         _______ _______ _______ _____ _____    ______ ____

>  <TORSDO>
F 15

$$$$
=
 OpenBabel10222417113D

 51 57  0  0  1  0  0  0  0  0999 V2000
  187.5550  177.5760  139.0510 C   0  0  0  0  0  2  0  0  0  0  0  0
  189.2250  176.9630  137.2960 C   0  0  1  0  0  3  0  0  0  0  0  0
  188.2100  177.4030  136.2500 C   0  0  1  0  0  3  0  0  0  0  0  0
  187.6040  178.6340  136.9500 C   0  0  2  0  0  3  0  0  0  0  0  0
  188.9310  177.8240  134.9850 C   0  0  0  0  0  1  0  0  0  0  0  0
  188.9190  177.9270  138.4400 C   0  0  1  0  0  3  0  0  0  0  0  0
  188.6590  179.1110  137.7410 O   0  0  0  0  0  0  0  0  0  0  0  0
  186.6110  178.1750  138.0210 C   0  0  1  0  0  3  0  0  0  0  0  0
  187.7890  174.5190  137.1330 S   0  0  0  0  0  0  0  0  0  0  0  0
  188.4580  174.3060  134.5940 O   0  0  0  0  0  1  0  0  0  0  0  0
  188.7500  173.7060  135.8200 C   0  0  1  0  0  0  0  0  0  0  0  0
  190.1880  173.9070  136.1480 C   0  0  0  0  0  3  0  0  0  0  0  0
  190.4500  174.8070  137.0830 C   0  0  0  0  0  0  0  0  0  0  0  0
  189.2550  175.4700  137.6810 C   0  0  1  0  0  3  0  0  0  0  0  0
  194.4210  175.6670  138.3760 C   0  0  0  0  0  3  0  0  0  0  0  0
  192.8750  174.2130  137.2400 C   0  0  0  0  0  3  0  0  0  0  0  0
  194.1750  174.4930  137.6630 C   0  0  0  0  0  3  0  0  0  0  0  0
  191.8300  175.1020  137.5290 C   0  0  0  0  0  0  0  0  0  0  0  0
  193.4020  176.5250  138.6500 N   0  0  0  0  0  0  0  0  0  0  0  0
  192.1280  176.2690  138.2470 C   0  0  0  0  0  3  0  0  0  0  0  0
  188.3870  172.2230  135.7850 C   0  0  0  0  0  2  0  0  0  0  0  0
  187.4470  171.9250  134.7080 N   0  0  0  0  0  2  0  0  0  0  0  0
  186.2320  171.3770  135.3000 C   0  0  2  0  0  3  0  0  0  0  0  0
  186.2300  169.9880  135.1320 O   0  0  0  0  0  1  0  0  0  0  0  0
  185.1010  173.4290  134.6730 C   0  0  0  0  0  2  0  0  0  0  0  0
  182.8580  172.7210  134.8440 C   0  0  2  0  0  3  0  0  0  0  0  0
  183.7340  173.9190  135.1610 C   0  0  1  0  0  3  0  0  0  0  0  0
  184.3610  172.8890  137.4180 C   0  0  0  0  0  2  0  0  0  0  0  0
  183.7940  174.1230  136.6900 C   0  0  0  0  0  2  0  0  0  0  0  0
  185.0530  171.9570  134.6420 N   0  0  0  0  0  0  0  0  0  0  0  0
  183.8350  171.5650  136.8280 C   0  0  0  0  0  2  0  0  0  0  0  0
  181.4790  172.7320  135.5000 C   0  0  0  0  0  1  0  0  0  0  0  0
  183.7680  171.5900  135.2710 C   0  0  1  0  0  3  0  0  0  0  0  0
  185.5800  177.1710  137.5230 C   0  0  0  0  0  2  0  0  0  0  0  0
  184.1750  177.6690  137.8030 C   0  0  0  0  0  2  0  0  0  0  0  0
  183.6160  176.9490  139.0170 C   0  0  0  0  0  2  0  0  0  0  0  0
  181.6810  177.9070  140.2060 N   0  0  0  0  0  0  0  0  0  0  0  0
  182.9580  177.9190  139.9460 C   0  0  0  0  0  0  0  0  0  0  0  0
  180.6840  177.0140  139.6840 C   0  0  0  0  0  0  0  0  0  0  0  0
  179.9280  177.3500  138.7320 O   0  0  0  0  0  0  0  0  0  0  0  0
  179.9700  174.7020  139.2170 C   0  0  0  0  0  1  0  0  0  0  0  0
  180.5750  175.6390  140.2500 C   0  0  0  0  0  2  0  0  0  0  0  0
  183.8340  178.8910  140.6560 C   0  0  0  0  0  2  0  0  0  0  0  0
  184.4330  178.2550  141.9000 C   0  0  0  0  0  2  0  0  0  0  0  0
  187.3840  177.8230  144.1700 N   0  0  0  0  0  0  0  0  0  0  0  0
  186.8300  179.0360  142.1170 C   0  0  0  0  0  2  0  0  0  0  0  0
  185.3840  179.2260  142.5900 C   0  0  0  0  0  3  0  0  0  0  0  0
  187.4320  177.7620  142.7110 C   0  0  0  0  0  2  0  0  0  0  0  0
  187.9740  176.5910  144.6580 C   0  0  0  0  0  1  0  0  0  0  0  0
  185.9840  177.8120  144.5870 C   0  0  0  0  0  2  0  0  0  0  0  0
  185.2850  179.0870  144.1100 C   0  0  0  0  0  2  0  0  0  0  0  0
  2 14  1  1  0  0  0
  2  6  1  0  0  0  0
  3  5  1  6  0  0  0
  3  4  1  0  0  0  0
  3  2  1  0  0  0  0
  4  7  1  1  0  0  0
  4  8  1  0  0  0  0
  6  1  1  6  0  0  0
  7  6  1  0  0  0  0
  8 34  1  6  0  0  0
  8  1  1  0  0  0  0
  9 14  1  0  0  0  0
 11 10  1  6  0  0  0
 11 12  1  0  0  0  0
 11  9  1  0  0  0  0
 12 13  2  0  0  0  0
 13 18  1  0  0  0  0
 14 13  1  6  0  0  0
 15 19  1  0  0  0  0
 16 18  2  0  0  0  0
 16 17  1  0  0  0  0
 17 15  2  0  0  0  0
 18 20  1  0  0  0  0
 20 19  2  0  0  0  0
 21 11  1  0  0  0  0
 22 23  1  0  0  0  0
 22 21  1  0  0  0  0
 23 24  1  6  0  0  0
 26 27  1  0  0  0  0
 26 33  1  0  0  0  0
 26 32  1  1  0  0  0
 27 25  1  1  0  0  0
 27 29  1  0  0  0  0
 29 28  1  0  0  0  0
 30 25  1  0  0  0  0
 30 33  1  0  0  0  0
 30 23  1  0  0  0  0
 31 28  1  0  0  0  0
 33 31  1  1  0  0  0
 34 35  1  0  0  0  0
 35 36  1  0  0  0  0
 36 38  1  0  0  0  0
 38 37  2  0  0  0  0
 38 43  1  0  0  0  0
 39 37  1  0  0  0  0
 39 42  1  0  0  0  0
 40 39  2  0  0  0  0
 41 42  1  0  0  0  0
 43 44  1  0  0  0  0
 44 47  1  0  0  0  0
 45 50  1  0  0  0  0
 45 49  1  0  0  0  0
 46 47  1  0  0  0  0
 46 48  1  0  0  0  0
 47 51  1  0  0  0  0
 48 45  1  0  0  0  0
 51 50  1  0  0  0  0
M  END
>  <MODEL>
7

>  <REMARK>
 VINA RESULT:      -6.0      2.743      5.976
  Name = 
  15 active torsions:
  status: ('A' for Active; 'I' for Inactive)
    1  A    between atoms: N_3  and  C_20
    2  A    between atoms: C_5  and  C_50
    3  A    between atoms: C_7  and  C_26
    4  A    between atoms: C_7  and  C_41
    5  A    between atoms: N_13  and  C_17
    6  A    between atoms: N_13  and  C_48
    7  A    between atoms: C_14  and  C_48
    8  A    between atoms: C_17  and  N_36
    9  A    between atoms: C_19  and  C_24
   10  A    between atoms: C_19  and  C_33
   11  A    between atoms: C_20  and  C_38
   12  A    between atoms: C_24  and  C_29
   13  A    between atoms: C_26  and  C_33
   14  A    between atoms: C_30  and  C_41
   15  A    between atoms: C_32  and  C_43
                            x       y       z     vdW  Elec       q    Type
                         _______ _______ _______ _____ _____    ______ ____

>  <TORSDO>
F 15

$$$$
=
 OpenBabel10222417113D

 51 57  0  0  1  0  0  0  0  0999 V2000
  183.0720  179.8400  140.7100 C   0  0  0  0  0  2  0  0  0  0  0  0
  181.4510  178.4790  139.3830 C   0  0  1  0  0  3  0  0  0  0  0  0
  181.5630  177.3990  140.4510 C   0  0  1  0  0  3  0  0  0  0  0  0
  181.6400  178.2690  141.7190 C   0  0  2  0  0  3  0  0  0  0  0  0
  180.2970  176.5650  140.4660 C   0  0  0  0  0  1  0  0  0  0  0  0
  181.6220  179.7470  140.2150 C   0  0  1  0  0  3  0  0  0  0  0  0
  180.9120  179.4150  141.3740 O   0  0  0  0  0  0  0  0  0  0  0  0
  183.0530  178.8440  141.8590 C   0  0  1  0  0  3  0  0  0  0  0  0
  183.4300  176.8720  138.1340 S   0  0  0  0  0  0  0  0  0  0  0  0
  181.5680  175.1530  137.4130 O   0  0  0  0  0  1  0  0  0  0  0  0
  182.4080  176.1090  136.8380 C   0  0  1  0  0  0  0  0  0  0  0  0
  181.5930  177.1970  136.2330 C   0  0  0  0  0  3  0  0  0  0  0  0
  181.5630  178.3400  136.9000 C   0  0  0  0  0  0  0  0  0  0  0  0
  182.3730  178.3670  138.1520 C   0  0  1  0  0  3  0  0  0  0  0  0
  179.3870  181.7250  135.4920 C   0  0  0  0  0  3  0  0  0  0  0  0
  181.0880  180.7960  136.9180 C   0  0  0  0  0  3  0  0  0  0  0  0
  180.3770  181.9040  136.4580 C   0  0  0  0  0  3  0  0  0  0  0  0
  180.8100  179.5180  136.4140 C   0  0  0  0  0  0  0  0  0  0  0  0
  179.1250  180.4820  135.0060 N   0  0  0  0  0  0  0  0  0  0  0  0
  179.8070  179.3890  135.4420 C   0  0  0  0  0  3  0  0  0  0  0  0
  183.3230  175.4550  135.8040 C   0  0  0  0  0  2  0  0  0  0  0  0
  184.6230  176.1170  135.7420 N   0  0  0  0  0  2  0  0  0  0  0  0
  185.6550  175.0900  135.6440 C   0  0  2  0  0  3  0  0  0  0  0  0
  185.0810  173.8420  135.9090 O   0  0  0  0  0  1  0  0  0  0  0  0
  186.5660  176.7030  137.2110 C   0  0  0  0  0  2  0  0  0  0  0  0
  188.8620  176.1980  137.0190 C   0  0  2  0  0  3  0  0  0  0  0  0
  187.9320  177.3920  137.1410 C   0  0  1  0  0  3  0  0  0  0  0  0
  187.5980  177.4170  134.6040 C   0  0  0  0  0  2  0  0  0  0  0  0
  188.0000  178.2320  135.8480 C   0  0  0  0  0  2  0  0  0  0  0  0
  186.7200  175.3620  136.6190 N   0  0  0  0  0  0  0  0  0  0  0  0
  188.1630  175.9840  134.6320 C   0  0  0  0  0  2  0  0  0  0  0  0
  190.2910  176.5280  136.5950 C   0  0  0  0  0  1  0  0  0  0  0  0
  188.0820  175.3370  136.0480 C   0  0  1  0  0  3  0  0  0  0  0  0
  184.1600  177.8040  141.7450 C   0  0  0  0  0  2  0  0  0  0  0  0
  185.4460  178.3300  142.3570 C   0  0  0  0  0  2  0  0  0  0  0  0
  185.4240  178.0960  143.8570 C   0  0  0  0  0  2  0  0  0  0  0  0
  187.1860  177.7180  145.5380 N   0  0  0  0  0  0  0  0  0  0  0  0
  186.7390  177.5600  144.3240 C   0  0  0  0  0  0  0  0  0  0  0  0
  186.5510  178.4060  146.6280 C   0  0  0  0  0  0  0  0  0  0  0  0
  185.5770  179.1850  146.4400 O   0  0  0  0  0  0  0  0  0  0  0  0
  188.5410  178.0550  148.0380 C   0  0  0  0  0  1  0  0  0  0  0  0
  187.0240  178.1530  148.0180 C   0  0  0  0  0  2  0  0  0  0  0  0
  187.5290  176.7430  143.3610 C   0  0  0  0  0  2  0  0  0  0  0  0
  189.0080  176.8040  143.7040 C   0  0  0  0  0  2  0  0  0  0  0  0
  191.2280  177.6110  140.7930 N   0  0  0  0  0  0  0  0  0  0  0  0
  189.1300  178.4200  141.7600 C   0  0  0  0  0  2  0  0  0  0  0  0
  189.6260  178.0920  143.1740 C   0  0  0  0  0  3  0  0  0  0  0  0
  189.7730  177.4900  140.7310 C   0  0  0  0  0  2  0  0  0  0  0  0
  191.7630  176.7090  139.7900 C   0  0  0  0  0  1  0  0  0  0  0  0
  191.6770  177.1100  142.0910 C   0  0  0  0  0  2  0  0  0  0  0  0
  191.1530  178.0120  143.2100 C   0  0  0  0  0  2  0  0  0  0  0  0
  1  8  1  0  0  0  0
  2 14  1  6  0  0  0
  2  6  1  0  0  0  0
  2  3  1  0  0  0  0
  3  5  1  1  0  0  0
  3  4  1  0  0  0  0
  4  7  1  6  0  0  0
  4  8  1  0  0  0  0
  6  1  1  1  0  0  0
  6  7  1  0  0  0  0
  8 34  1  6  0  0  0
  9 14  1  0  0  0  0
 11 10  1  1  0  0  0
 11  9  1  0  0  0  0
 12 11  1  0  0  0  0
 12 13  2  0  0  0  0
 14 13  1  6  0  0  0
 15 17  1  0  0  0  0
 17 16  2  0  0  0  0
 18 13  1  0  0  0  0
 18 16  1  0  0  0  0
 19 20  1  0  0  0  0
 19 15  2  0  0  0  0
 20 18  2  0  0  0  0
 21 11  1  0  0  0  0
 22 21  1  0  0  0  0
 23 22  1  0  0  0  0
 23 24  1  1  0  0  0
 23 30  1  0  0  0  0
 26 32  1  6  0  0  0
 26 27  1  0  0  0  0
 27 29  1  6  0  0  0
 27 25  1  0  0  0  0
 28 31  1  0  0  0  0
 28 29  1  0  0  0  0
 30 25  1  0  0  0  0
 33 31  1  6  0  0  0
 33 30  1  0  0  0  0
 33 26  1  0  0  0  0
 34 35  1  0  0  0  0
 35 36  1  0  0  0  0
 36 38  1  0  0  0  0
 37 39  1  0  0  0  0
 38 37  2  0  0  0  0
 39 42  1  0  0  0  0
 40 39  2  0  0  0  0
 42 41  1  0  0  0  0
 43 44  1  0  0  0  0
 43 38  1  0  0  0  0
 45 50  1  0  0  0  0
 46 47  1  0  0  0  0
 47 51  1  0  0  0  0
 47 44  1  0  0  0  0
 48 45  1  0  0  0  0
 48 46  1  0  0  0  0
 49 45  1  0  0  0  0
 50 51  1  0  0  0  0
M  END
>  <MODEL>
8

>  <REMARK>
 VINA RESULT:      -6.0      2.490      7.253
  Name = 
  15 active torsions:
  status: ('A' for Active; 'I' for Inactive)
    1  A    between atoms: N_3  and  C_20
    2  A    between atoms: C_5  and  C_50
    3  A    between atoms: C_7  and  C_26
    4  A    between atoms: C_7  and  C_41
    5  A    between atoms: N_13  and  C_17
    6  A    between atoms: N_13  and  C_48
    7  A    between atoms: C_14  and  C_48
    8  A    between atoms: C_17  and  N_36
    9  A    between atoms: C_19  and  C_24
   10  A    between atoms: C_19  and  C_33
   11  A    between atoms: C_20  and  C_38
   12  A    between atoms: C_24  and  C_29
   13  A    between atoms: C_26  and  C_33
   14  A    between atoms: C_30  and  C_41
   15  A    between atoms: C_32  and  C_43
                            x       y       z     vdW  Elec       q    Type
                         _______ _______ _______ _____ _____    ______ ____

>  <TORSDO>
F 15

$$$$
=
 OpenBabel10222417113D

 51 57  0  0  1  0  0  0  0  0999 V2000
  186.2440  177.5800  135.1290 C   0  0  0  0  0  2  0  0  0  0  0  0
  187.7330  175.6560  135.6980 C   0  0  1  0  0  3  0  0  0  0  0  0
  186.6860  175.2110  136.7090 C   0  0  1  0  0  3  0  0  0  0  0  0
  185.3950  175.5390  135.9350 C   0  0  2  0  0  3  0  0  0  0  0  0
  186.7950  173.7150  136.9310 C   0  0  0  0  0  1  0  0  0  0  0  0
  186.8600  176.2740  134.6080 C   0  0  1  0  0  3  0  0  0  0  0  0
  185.7730  175.3930  134.5940 O   0  0  0  0  0  0  0  0  0  0  0  0
  185.1250  177.0440  136.0080 C   0  0  1  0  0  3  0  0  0  0  0  0
  188.3450  177.9860  137.2000 S   0  0  0  0  0  0  0  0  0  0  0  0
  187.8210  176.6780  139.4260 O   0  0  0  0  0  1  0  0  0  0  0  0
  188.9180  177.1980  138.7360 C   0  0  1  0  0  0  0  0  0  0  0  0
  189.8330  176.0940  138.3410 C   0  0  0  0  0  3  0  0  0  0  0  0
  189.8130  175.7520  137.0620 C   0  0  0  0  0  0  0  0  0  0  0  0
  188.8850  176.5460  136.2060 C   0  0  1  0  0  3  0  0  0  0  0  0
  192.3070  172.6770  135.4800 C   0  0  0  0  0  3  0  0  0  0  0  0
  191.9220  174.4070  137.1070 C   0  0  0  0  0  3  0  0  0  0  0  0
  192.7390  173.4010  136.5910 C   0  0  0  0  0  3  0  0  0  0  0  0
  190.6820  174.6840  136.5170 C   0  0  0  0  0  0  0  0  0  0  0  0
  191.1010  172.9500  134.9140 N   0  0  0  0  0  0  0  0  0  0  0  0
  190.2900  173.9270  135.4020 C   0  0  0  0  0  3  0  0  0  0  0  0
  189.6350  178.2400  139.5910 C   0  0  0  0  0  2  0  0  0  0  0  0
  189.5720  177.9080  141.0110 N   0  0  0  0  0  2  0  0  0  0  0  0
  190.9310  177.6850  141.4900 C   0  0  2  0  0  3  0  0  0  0  0  0
  191.7200  177.2330  140.4280 O   0  0  0  0  0  1  0  0  0  0  0  0
  189.5650  176.5000  143.1060 C   0  0  0  0  0  2  0  0  0  0  0  0
  191.1380  176.2270  144.8410 C   0  0  2  0  0  3  0  0  0  0  0  0
  189.6730  176.5610  144.6330 C   0  0  1  0  0  3  0  0  0  0  0  0
  190.2610  179.0320  144.3200 C   0  0  0  0  0  2  0  0  0  0  0  0
  189.4050  178.0100  145.0930 C   0  0  0  0  0  2  0  0  0  0  0  0
  190.9230  176.6810  142.5630 N   0  0  0  0  0  0  0  0  0  0  0  0
  191.7040  178.5410  144.0960 C   0  0  0  0  0  2  0  0  0  0  0  0
  191.6800  176.5200  146.2380 C   0  0  0  0  0  1  0  0  0  0  0  0
  191.7690  177.0290  143.7220 C   0  0  1  0  0  3  0  0  0  0  0  0
  185.1700  177.6160  137.4190 C   0  0  0  0  0  2  0  0  0  0  0  0
  184.1980  176.8790  138.3220 C   0  0  0  0  0  2  0  0  0  0  0  0
  182.9420  177.7130  138.5000 C   0  0  0  0  0  2  0  0  0  0  0  0
  181.9720  179.1430  140.2570 N   0  0  0  0  0  0  0  0  0  0  0  0
  182.9120  178.3320  139.8600 C   0  0  0  0  0  0  0  0  0  0  0  0
  180.8270  179.5940  139.5160 C   0  0  0  0  0  0  0  0  0  0  0  0
  179.6820  179.1010  139.7030 O   0  0  0  0  0  0  0  0  0  0  0  0
  180.7670  180.1900  137.1250 C   0  0  0  0  0  1  0  0  0  0  0  0
  180.9900  180.7070  138.5370 C   0  0  0  0  0  2  0  0  0  0  0  0
  183.9780  177.9330  140.8200 C   0  0  0  0  0  2  0  0  0  0  0  0
  183.6060  178.3570  142.2320 C   0  0  0  0  0  2  0  0  0  0  0  0
  185.7950  178.5120  145.2700 N   0  0  0  0  0  0  0  0  0  0  0  0
  186.0210  178.7970  142.8500 C   0  0  0  0  0  2  0  0  0  0  0  0
  184.6040  179.3800  142.7610 C   0  0  0  0  0  3  0  0  0  0  0  0
  186.1350  177.8270  144.0260 C   0  0  0  0  0  2  0  0  0  0  0  0
  185.9320  177.5350  146.3340 C   0  0  0  0  0  1  0  0  0  0  0  0
  184.3830  178.8840  145.2210 C   0  0  0  0  0  2  0  0  0  0  0  0
  184.1520  179.9200  144.1190 C   0  0  0  0  0  2  0  0  0  0  0  0
  1  8  1  0  0  0  0
  2 14  1  1  0  0  0
  2  3  1  0  0  0  0
  3  5  1  6  0  0  0
  4  7  1  6  0  0  0
  4  8  1  0  0  0  0
  4  3  1  0  0  0  0
  6  1  1  1  0  0  0
  6  2  1  0  0  0  0
  7  6  1  0  0  0  0
  8 34  1  1  0  0  0
  9 11  1  0  0  0  0
 11 10  1  1  0  0  0
 11 21  1  0  0  0  0
 12 11  1  0  0  0  0
 13 12  2  0  0  0  0
 14 13  1  1  0  0  0
 14  9  1  0  0  0  0
 15 17  1  0  0  0  0
 17 16  2  0  0  0  0
 18 13  1  0  0  0  0
 18 16  1  0  0  0  0
 19 20  1  0  0  0  0
 19 15  2  0  0  0  0
 20 18  2  0  0  0  0
 21 22  1  0  0  0  0
 22 23  1  0  0  0  0
 23 24  1  6  0  0  0
 23 30  1  0  0  0  0
 26 32  1  1  0  0  0
 27 25  1  6  0  0  0
 27 26  1  0  0  0  0
 27 29  1  0  0  0  0
 28 29  1  0  0  0  0
 30 25  1  0  0  0  0
 30 33  1  0  0  0  0
 31 28  1  0  0  0  0
 33 31  1  1  0  0  0
 33 26  1  0  0  0  0
 34 35  1  0  0  0  0
 35 36  1  0  0  0  0
 36 38  1  0  0  0  0
 38 37  2  0  0  0  0
 38 43  1  0  0  0  0
 39 40  2  0  0  0  0
 39 37  1  0  0  0  0
 41 42  1  0  0  0  0
 42 39  1  0  0  0  0
 43 44  1  0  0  0  0
 44 47  1  0  0  0  0
 45 49  1  0  0  0  0
 46 48  1  0  0  0  0
 47 46  1  0  0  0  0
 47 51  1  0  0  0  0
 48 45  1  0  0  0  0
 50 45  1  0  0  0  0
 51 50  1  0  0  0  0
M  END
>  <MODEL>
9

>  <REMARK>
 VINA RESULT:      -5.9      2.103      7.059
  Name = 
  15 active torsions:
  status: ('A' for Active; 'I' for Inactive)
    1  A    between atoms: N_3  and  C_20
    2  A    between atoms: C_5  and  C_50
    3  A    between atoms: C_7  and  C_26
    4  A    between atoms: C_7  and  C_41
    5  A    between atoms: N_13  and  C_17
    6  A    between atoms: N_13  and  C_48
    7  A    between atoms: C_14  and  C_48
    8  A    between atoms: C_17  and  N_36
    9  A    between atoms: C_19  and  C_24
   10  A    between atoms: C_19  and  C_33
   11  A    between atoms: C_20  and  C_38
   12  A    between atoms: C_24  and  C_29
   13  A    between atoms: C_26  and  C_33
   14  A    between atoms: C_30  and  C_41
   15  A    between atoms: C_32  and  C_43
                            x       y       z     vdW  Elec       q    Type
                         _______ _______ _______ _____ _____    ______ ____

>  <TORSDO>
F 15

$$$$
