=
 OpenBabel10222418293D

 49 51  0  0  1  0  0  0  0  0999 V2000
  182.0790  179.1310  144.0020 C   0  0  0  0  0  3  0  0  0  0  0  0
  182.2430  179.9920  138.3340 C   0  0  0  0  0  3  0  0  0  0  0  0
  189.8820  177.2030  145.5450 O   0  0  0  0  0  0  0  0  0  0  0  0
  181.2280  179.0080  141.7870 O   0  0  0  0  0  0  0  0  0  0  0  0
  188.7170  177.4510  145.1370 C   0  0  0  0  0  0  0  0  0  0  0  0
  185.9120  177.8440  142.8360 C   0  0  0  0  0  3  0  0  0  0  0  0
  183.8300  177.8780  140.8790 C   0  0  0  0  0  3  0  0  0  0  0  0
  186.5790  178.0460  145.1320 C   0  0  0  0  0  0  0  0  0  0  0  0
  183.0890  179.0000  144.9510 C   0  0  0  0  0  3  0  0  0  0  0  0
  183.2530  178.2190  139.7260 C   0  0  0  0  0  0  0  0  0  0  0  0
  185.3410  178.4540  145.5030 N   0  0  0  0  0  0  0  0  0  0  0  0
  184.6160  178.2700  143.1970 C   0  0  0  0  0  0  0  0  0  0  0  0
  184.3570  178.5780  144.5650 C   0  0  0  0  0  0  0  0  0  0  0  0
  180.2890  181.2350  139.0140 C   0  0  0  0  0  0  0  0  0  0  0  0
  182.3100  178.8480  142.6530 C   0  0  0  0  0  0  0  0  0  0  0  0
  187.6750  177.8800  146.0120 N   0  0  0  0  0  2  0  0  0  0  0  0
  180.2990  180.5650  140.2380 C   0  0  0  0  0  3  0  0  0  0  0  0
  183.5840  178.3970  142.2360 C   0  0  0  0  0  0  0  0  0  0  0  0
  188.3020  177.3290  143.7010 C   0  0  0  0  0  2  0  0  0  0  0  0
  182.2710  179.3130  139.5650 C   0  0  0  0  0  0  0  0  0  0  0  0
  186.8810  177.7460  143.8290 C   0  0  0  0  0  0  0  0  0  0  0  0
  181.2690  180.9550  138.0640 C   0  0  0  0  0  3  0  0  0  0  0  0
  181.2900  179.6210  140.5350 C   0  0  0  0  0  0  0  0  0  0  0  0
  179.2340  182.2450  138.7190 C   0  0  0  0  0  2  0  0  0  0  0  0
  179.2670  182.5950  137.3660 O   0  0  0  0  0  0  0  0  0  0  0  0
  179.3040  184.9380  135.7150 C   0  0  0  0  0  1  0  0  0  0  0  0
  178.9310  184.9810  138.4080 O   0  0  0  0  0  1  0  0  0  0  0  0
  181.3660  184.4070  137.6180 O   0  0  0  0  0  0  0  0  0  0  0  0
  179.7030  184.2340  137.3410 P   0  0  1  0  0  0  0  0  0  0  0  0
  183.7040  177.4540  138.5210 C   0  0  0  0  0  2  0  0  0  0  0  0
  184.7960  178.2200  137.7860 C   0  0  0  0  0  2  0  0  0  0  0  0
  186.1730  177.7360  138.2190 C   0  0  0  0  0  2  0  0  0  0  0  0
  186.9230  177.3780  137.0900 O   0  0  0  0  0  0  0  0  0  0  0  0
  188.1590  177.0810  137.5680 N   0  0  0  0  0  0  0  0  0  0  0  0
  188.7820  178.3430  137.9940 C   0  0  2  0  0  3  0  0  0  0  0  0
  189.2420  179.0860  136.8990 O   0  0  0  0  0  1  0  0  0  0  0  0
  189.4220  177.1700  140.0960 C   0  0  0  0  0  1  0  0  0  0  0  0
  189.9080  178.0860  138.9880 C   0  0  0  0  0  2  0  0  0  0  0  0
  188.9210  176.4910  136.4690 C   0  0  0  0  0  2  0  0  0  0  0  0
  189.1240  174.9990  136.7070 C   0  0  0  0  0  1  0  0  0  0  0  0
  190.3510  174.7800  137.5820 O   0  0  0  0  0  1  0  0  0  0  0  0
  190.7030  174.1730  137.9270 O   0  0  0  0  0  0  0  0  0  0  0  0
  191.5590  174.2570  137.0030 C   0  0  0  0  0  1  0  0  0  0  0  0
  192.8460  174.9900  137.1600 C   0  0  0  0  0  1  0  0  0  0  0  0
  193.1510  175.6500  135.9680 O   0  0  0  0  0  0  0  0  0  0  0  0
  194.5470  175.6970  135.9350 C   0  0  2  0  0  3  0  0  0  0  0  0
  195.0590  175.3960  137.1970 O   0  0  0  0  0  1  0  0  0  0  0  0
  196.4040  177.1130  135.4700 O   0  0  0  0  0  1  0  0  0  0  0  0
  195.0090  177.0780  135.5180 C   0  0  0  0  0  2  0  0  0  0  0  0
  1  9  1  0  0  0  0
  2 20  1  0  0  0  0
  4 15  1  0  0  0  0
  5  3  2  0  0  0  0
  5 16  1  0  0  0  0
  6 12  1  0  0  0  0
  6 21  2  0  0  0  0
  7 18  1  0  0  0  0
  8 11  2  0  0  0  0
  8 16  1  0  0  0  0
 10  7  2  0  0  0  0
 12 13  1  0  0  0  0
 13  9  2  0  0  0  0
 13 11  1  0  0  0  0
 14 17  2  0  0  0  0
 15  1  2  0  0  0  0
 17 23  1  0  0  0  0
 18 15  1  0  0  0  0
 18 12  2  0  0  0  0
 19 21  1  0  0  0  0
 19  5  1  0  0  0  0
 20 10  1  0  0  0  0
 20 23  2  0  0  0  0
 21  8  1  0  0  0  0
 22  2  2  0  0  0  0
 22 14  1  0  0  0  0
 23  4  1  0  0  0  0
 24 14  1  0  0  0  0
 25 24  1  0  0  0  0
 29 26  1  6  0  0  0
 29 25  1  0  0  0  0
 29 28  2  0  0  0  0
 29 27  1  0  0  0  0
 30 10  1  0  0  0  0
 31 32  1  0  0  0  0
 31 30  1  0  0  0  0
 33 34  1  0  0  0  0
 33 32  1  0  0  0  0
 34 35  1  0  0  0  0
 35 36  1  6  0  0  0
 35 38  1  0  0  0  0
 38 37  1  0  0  0  0
 39 40  1  0  0  0  0
 39 34  1  0  0  0  0
 41 42  1  0  0  0  0
 43 42  1  0  0  0  0
 45 44  1  0  0  0  0
 46 45  1  0  0  0  0
 46 47  1  1  0  0  0
 48 49  1  0  0  0  0
 49 46  1  0  0  0  0
M  END
>  <MODEL>
1

>  <REMARK>
 VINA RESULT:      -7.7      0.000      0.000
  Name = 
  18 active torsions:
  status: ('A' for Active; 'I' for Inactive)
    1  A    between atoms: C_1  and  C_22
    2  A    between atoms: C_1  and  C_45
    3  A    between atoms: C_2  and  C_26
    4  A    between atoms: C_2  and  N_33
    5  A    between atoms: C_3  and  O_21
    6  A    between atoms: C_3  and  C_30
    7  A    between atoms: C_7  and  O_21
    8  A    between atoms: C_7  and  C_32
    9  A    between atoms: C_18  and  C_22
   10  A    between atoms: C_23  and  C_28
   11  A    between atoms: C_23  and  O_48
   12  A    between atoms: C_30  and  O_43
   13  A    between atoms: N_33  and  O_34
   14  A    between atoms: N_33  and  C_44
   15  A    between atoms: O_34  and  C_45
   16  A    between atoms: P_41  and  O_48
   17  A    between atoms: O_43  and  C_47
   18  A    between atoms: C_44  and  C_47
                            x       y       z     vdW  Elec       q    Type
                         _______ _______ _______ _____ _____    ______ ____

>  <TORSDO>
F 18

$$$$
=
 OpenBabel10222418293D

 49 51  0  0  1  0  0  0  0  0999 V2000
  181.9180  179.0690  143.6710 C   0  0  0  0  0  3  0  0  0  0  0  0
  182.2480  179.9520  138.0140 C   0  0  0  0  0  3  0  0  0  0  0  0
  189.7300  177.4280  145.4830 O   0  0  0  0  0  0  0  0  0  0  0  0
  181.1500  178.9210  141.4270 O   0  0  0  0  0  0  0  0  0  0  0  0
  188.5710  177.6340  145.0340 C   0  0  0  0  0  0  0  0  0  0  0  0
  185.8350  177.9290  142.6370 C   0  0  0  0  0  3  0  0  0  0  0  0
  183.8230  177.8910  140.6080 C   0  0  0  0  0  3  0  0  0  0  0  0
  186.4140  178.1490  144.9560 C   0  0  0  0  0  0  0  0  0  0  0  0
  182.8990  178.9730  144.6550 C   0  0  0  0  0  3  0  0  0  0  0  0
  183.2740  178.2140  139.4370 C   0  0  0  0  0  0  0  0  0  0  0  0
  185.1490  178.5090  145.2840 N   0  0  0  0  0  0  0  0  0  0  0  0
  184.5120  178.3050  142.9540 C   0  0  0  0  0  0  0  0  0  0  0  0
  184.1950  178.5990  144.3120 C   0  0  0  0  0  0  0  0  0  0  0  0
  180.2260  181.1200  138.6270 C   0  0  0  0  0  0  0  0  0  0  0  0
  182.2070  178.7980  142.3310 C   0  0  0  0  0  0  0  0  0  0  0  0
  187.4840  178.0210  145.8730 N   0  0  0  0  0  2  0  0  0  0  0  0
  180.2180  180.4470  139.8490 C   0  0  0  0  0  3  0  0  0  0  0  0
  183.5110  178.3970  141.9580 C   0  0  0  0  0  0  0  0  0  0  0  0
  188.2110  177.5010  143.5850 C   0  0  0  0  0  2  0  0  0  0  0  0
  182.2580  179.2710  139.2430 C   0  0  0  0  0  0  0  0  0  0  0  0
  186.7720  177.8650  143.6640 C   0  0  0  0  0  0  0  0  0  0  0  0
  181.2490  180.8790  137.7110 C   0  0  0  0  0  3  0  0  0  0  0  0
  181.2330  179.5390  140.1790 C   0  0  0  0  0  0  0  0  0  0  0  0
  179.1450  182.0900  138.2970 C   0  0  0  0  0  2  0  0  0  0  0  0
  179.4590  183.3540  138.8040 O   0  0  0  0  0  0  0  0  0  0  0  0
  181.4550  184.6030  137.1700 C   0  0  0  0  0  1  0  0  0  0  0  0
  179.0840  183.6630  136.2250 O   0  0  0  0  0  0  0  0  0  0  0  0
  178.9330  185.8440  137.6770 O   0  0  0  0  0  1  0  0  0  0  0  0
  179.6790  184.3400  137.4420 P   0  0  1  0  0  0  0  0  0  0  0  0
  183.7950  177.4700  138.2470 C   0  0  0  0  0  2  0  0  0  0  0  0
  185.2290  177.8850  137.9490 C   0  0  0  0  0  2  0  0  0  0  0  0
  185.9710  176.7690  137.2270 C   0  0  0  0  0  2  0  0  0  0  0  0
  185.3420  175.5420  137.4820 O   0  0  0  0  0  0  0  0  0  0  0  0
  185.7740  174.7130  136.4970 N   0  0  0  0  0  0  0  0  0  0  0  0
  184.6160  173.9300  136.0410 C   0  0  2  0  0  3  0  0  0  0  0  0
  183.6410  174.7450  135.4550 O   0  0  0  0  0  1  0  0  0  0  0  0
  183.6050  171.7450  136.6820 C   0  0  0  0  0  1  0  0  0  0  0  0
  184.0270  173.1140  137.1850 C   0  0  0  0  0  2  0  0  0  0  0  0
  186.7790  173.8290  137.0830 C   0  0  0  0  0  2  0  0  0  0  0  0
  188.0820  173.9120  136.2950 C   0  0  0  0  0  1  0  0  0  0  0  0
  189.2650  173.8940  137.2520 O   0  0  0  0  0  1  0  0  0  0  0  0
  189.9370  173.5680  137.4810 O   0  0  0  0  0  0  0  0  0  0  0  0
  190.5040  174.5170  136.8720 C   0  0  0  0  0  1  0  0  0  0  0  0
  190.9660  175.7550  137.5570 C   0  0  0  0  0  1  0  0  0  0  0  0
  190.4540  175.7850  138.8550 O   0  0  0  0  0  0  0  0  0  0  0  0
  190.7730  177.0580  139.3340 C   0  0  2  0  0  3  0  0  0  0  0  0
  191.2060  176.9680  140.6580 O   0  0  0  0  0  1  0  0  0  0  0  0
  188.5470  177.4560  140.0790 O   0  0  0  0  0  1  0  0  0  0  0  0
  189.5580  177.9600  139.2600 C   0  0  0  0  0  2  0  0  0  0  0  0
  1  9  1  0  0  0  0
  2 20  1  0  0  0  0
  4 15  1  0  0  0  0
  5  3  2  0  0  0  0
  5 16  1  0  0  0  0
  6 12  1  0  0  0  0
  6 21  2  0  0  0  0
  7 18  1  0  0  0  0
  8 11  2  0  0  0  0
  8 16  1  0  0  0  0
 10  7  2  0  0  0  0
 12 13  1  0  0  0  0
 13  9  2  0  0  0  0
 13 11  1  0  0  0  0
 14 17  2  0  0  0  0
 15  1  2  0  0  0  0
 17 23  1  0  0  0  0
 18 15  1  0  0  0  0
 18 12  2  0  0  0  0
 19 21  1  0  0  0  0
 19  5  1  0  0  0  0
 20 10  1  0  0  0  0
 20 23  2  0  0  0  0
 21  8  1  0  0  0  0
 22  2  2  0  0  0  0
 22 14  1  0  0  0  0
 23  4  1  0  0  0  0
 24 14  1  0  0  0  0
 24 25  1  0  0  0  0
 27 29  2  0  0  0  0
 29 26  1  6  0  0  0
 29 28  1  0  0  0  0
 29 25  1  0  0  0  0
 30 10  1  0  0  0  0
 31 30  1  0  0  0  0
 32 33  1  0  0  0  0
 32 31  1  0  0  0  0
 34 39  1  0  0  0  0
 34 33  1  0  0  0  0
 35 36  1  1  0  0  0
 35 34  1  0  0  0  0
 35 38  1  0  0  0  0
 37 38  1  0  0  0  0
 40 39  1  0  0  0  0
 41 42  1  0  0  0  0
 43 42  1  0  0  0  0
 44 45  1  0  0  0  0
 45 46  1  0  0  0  0
 46 47  1  1  0  0  0
 49 46  1  0  0  0  0
 49 48  1  0  0  0  0
M  END
>  <MODEL>
2

>  <REMARK>
 VINA RESULT:      -7.6      2.014      3.198
  Name = 
  18 active torsions:
  status: ('A' for Active; 'I' for Inactive)
    1  A    between atoms: C_1  and  C_22
    2  A    between atoms: C_1  and  C_45
    3  A    between atoms: C_2  and  C_26
    4  A    between atoms: C_2  and  N_33
    5  A    between atoms: C_3  and  O_21
    6  A    between atoms: C_3  and  C_30
    7  A    between atoms: C_7  and  O_21
    8  A    between atoms: C_7  and  C_32
    9  A    between atoms: C_18  and  C_22
   10  A    between atoms: C_23  and  C_28
   11  A    between atoms: C_23  and  O_48
   12  A    between atoms: C_30  and  O_43
   13  A    between atoms: N_33  and  O_34
   14  A    between atoms: N_33  and  C_44
   15  A    between atoms: O_34  and  C_45
   16  A    between atoms: P_41  and  O_48
   17  A    between atoms: O_43  and  C_47
   18  A    between atoms: C_44  and  C_47
                            x       y       z     vdW  Elec       q    Type
                         _______ _______ _______ _____ _____    ______ ____

>  <TORSDO>
F 18

$$$$
=
 OpenBabel10222418293D

 49 51  0  0  1  0  0  0  0  0999 V2000
  183.1990  179.0250  144.6400 C   0  0  0  0  0  3  0  0  0  0  0  0
  188.5320  177.2020  143.5700 C   0  0  0  0  0  3  0  0  0  0  0  0
  179.5350  177.5160  137.4780 O   0  0  0  0  0  0  0  0  0  0  0  0
  185.5700  179.1230  144.7780 O   0  0  0  0  0  0  0  0  0  0  0  0
  180.2540  177.7450  138.4860 C   0  0  0  0  0  0  0  0  0  0  0  0
  183.2530  178.2450  140.5050 C   0  0  0  0  0  3  0  0  0  0  0  0
  185.7290  178.7980  141.8210 C   0  0  0  0  0  3  0  0  0  0  0  0
  180.8550  178.1720  140.5790 C   0  0  0  0  0  0  0  0  0  0  0  0
  182.0040  178.8560  143.9460 C   0  0  0  0  0  3  0  0  0  0  0  0
  186.9840  178.5530  142.1990 C   0  0  0  0  0  0  0  0  0  0  0  0
  180.8450  178.4300  141.9100 N   0  0  0  0  0  0  0  0  0  0  0  0
  183.2670  178.5110  141.8910 C   0  0  0  0  0  0  0  0  0  0  0  0
  182.0220  178.5950  142.5800 C   0  0  0  0  0  0  0  0  0  0  0  0
  188.3980  177.0990  145.9780 C   0  0  0  0  0  0  0  0  0  0  0  0
  184.4340  178.9340  143.9900 C   0  0  0  0  0  0  0  0  0  0  0  0
  179.7030  177.9850  139.7800 N   0  0  0  0  0  2  0  0  0  0  0  0
  187.2540  177.8970  145.9400 C   0  0  0  0  0  3  0  0  0  0  0  0
  184.4810  178.6900  142.5980 C   0  0  0  0  0  0  0  0  0  0  0  0
  181.7520  177.7850  138.4400 C   0  0  0  0  0  2  0  0  0  0  0  0
  187.3770  178.0020  143.5140 C   0  0  0  0  0  0  0  0  0  0  0  0
  182.0260  178.0730  139.8730 C   0  0  0  0  0  0  0  0  0  0  0  0
  189.0320  176.7420  144.7890 C   0  0  0  0  0  3  0  0  0  0  0  0
  186.7220  178.3380  144.7210 C   0  0  0  0  0  0  0  0  0  0  0  0
  188.9440  176.6300  147.2820 C   0  0  0  0  0  2  0  0  0  0  0  0
  189.9020  177.5310  147.7550 O   0  0  0  0  0  0  0  0  0  0  0  0
  191.1760  174.9800  147.4630 C   0  0  0  0  0  1  0  0  0  0  0  0
  191.9350  177.2220  146.1240 O   0  0  0  0  0  0  0  0  0  0  0  0
  192.5040  177.1930  148.6850 O   0  0  0  0  0  1  0  0  0  0  0  0
  191.3970  176.7820  147.4690 P   0  0  1  0  0  0  0  0  0  0  0  0
  188.0370  178.8130  141.1680 C   0  0  0  0  0  2  0  0  0  0  0  0
  188.2800  177.5640  140.3330 C   0  0  0  0  0  2  0  0  0  0  0  0
  189.7520  177.4470  139.9600 C   0  0  0  0  0  2  0  0  0  0  0  0
  189.9250  177.7930  138.6120 O   0  0  0  0  0  0  0  0  0  0  0  0
  189.3470  176.7830  137.9120 N   0  0  0  0  0  0  0  0  0  0  0  0
  190.3760  175.7590  137.6840 C   0  0  2  0  0  3  0  0  0  0  0  0
  191.5520  176.3160  137.1670 O   0  0  0  0  0  1  0  0  0  0  0  0
  190.8910  173.5540  136.6450 C   0  0  0  0  0  1  0  0  0  0  0  0
  189.8530  174.6540  136.7740 C   0  0  0  0  0  2  0  0  0  0  0  0
  188.8990  177.3380  136.6360 C   0  0  0  0  0  2  0  0  0  0  0  0
  187.4560  177.8200  136.7450 C   0  0  0  0  0  1  0  0  0  0  0  0
  186.5860  176.7110  137.3210 O   0  0  0  0  0  1  0  0  0  0  0  0
  185.9860  177.1940  137.4580 O   0  0  0  0  0  0  0  0  0  0  0  0
  185.3100  176.4200  136.7250 C   0  0  0  0  0  1  0  0  0  0  0  0
  184.4550  175.3310  137.2720 C   0  0  0  0  0  1  0  0  0  0  0  0
  184.6780  174.1590  136.5490 O   0  0  0  0  0  0  0  0  0  0  0  0
  184.6120  173.1360  137.4990 C   0  0  2  0  0  3  0  0  0  0  0  0
  185.8820  172.8970  138.0230 O   0  0  0  0  0  1  0  0  0  0  0  0
  182.7770  171.6320  137.2970 O   0  0  0  0  0  1  0  0  0  0  0  0
  184.0810  171.8690  136.8600 C   0  0  0  0  0  2  0  0  0  0  0  0
  2 22  1  0  0  0  0
  3  5  2  0  0  0  0
  5 16  1  0  0  0  0
  6 12  1  0  0  0  0
  7 10  2  0  0  0  0
  7 18  1  0  0  0  0
  8 11  2  0  0  0  0
  9  1  2  0  0  0  0
 10 20  1  0  0  0  0
 11 13  1  0  0  0  0
 12 13  2  0  0  0  0
 12 18  1  0  0  0  0
 13  9  1  0  0  0  0
 14 24  1  0  0  0  0
 15  1  1  0  0  0  0
 15  4  1  0  0  0  0
 16  8  1  0  0  0  0
 17 14  1  0  0  0  0
 18 15  2  0  0  0  0
 19  5  1  0  0  0  0
 19 21  1  0  0  0  0
 20  2  2  0  0  0  0
 20 23  1  0  0  0  0
 21  6  2  0  0  0  0
 21  8  1  0  0  0  0
 22 14  2  0  0  0  0
 23  4  1  0  0  0  0
 23 17  2  0  0  0  0
 24 25  1  0  0  0  0
 27 29  2  0  0  0  0
 29 26  1  6  0  0  0
 29 25  1  0  0  0  0
 29 28  1  0  0  0  0
 30 10  1  0  0  0  0
 31 30  1  0  0  0  0
 32 31  1  0  0  0  0
 33 32  1  0  0  0  0
 34 33  1  0  0  0  0
 35 36  1  6  0  0  0
 35 34  1  0  0  0  0
 37 38  1  0  0  0  0
 38 35  1  0  0  0  0
 39 40  1  0  0  0  0
 39 34  1  0  0  0  0
 41 42  1  0  0  0  0
 43 42  1  0  0  0  0
 45 44  1  0  0  0  0
 45 46  1  0  0  0  0
 46 47  1  6  0  0  0
 49 48  1  0  0  0  0
 49 46  1  0  0  0  0
M  END
>  <MODEL>
3

>  <REMARK>
 VINA RESULT:      -7.6      4.074      8.865
  Name = 
  18 active torsions:
  status: ('A' for Active; 'I' for Inactive)
    1  A    between atoms: C_1  and  C_22
    2  A    between atoms: C_1  and  C_45
    3  A    between atoms: C_2  and  C_26
    4  A    between atoms: C_2  and  N_33
    5  A    between atoms: C_3  and  O_21
    6  A    between atoms: C_3  and  C_30
    7  A    between atoms: C_7  and  O_21
    8  A    between atoms: C_7  and  C_32
    9  A    between atoms: C_18  and  C_22
   10  A    between atoms: C_23  and  C_28
   11  A    between atoms: C_23  and  O_48
   12  A    between atoms: C_30  and  O_43
   13  A    between atoms: N_33  and  O_34
   14  A    between atoms: N_33  and  C_44
   15  A    between atoms: O_34  and  C_45
   16  A    between atoms: P_41  and  O_48
   17  A    between atoms: O_43  and  C_47
   18  A    between atoms: C_44  and  C_47
                            x       y       z     vdW  Elec       q    Type
                         _______ _______ _______ _____ _____    ______ ____

>  <TORSDO>
F 18

$$$$
=
 OpenBabel10222418293D

 49 50  0  0  1  0  0  0  0  0999 V2000
  188.4860  172.9010  136.0520 C   0  0  0  0  0  3  0  0  0  0  0  0
  192.3260  176.7040  137.9720 C   0  0  0  0  0  3  0  0  0  0  0  0
  181.8300  177.6040  135.2950 O   0  0  0  0  0  0  0  0  0  0  0  0
  190.3140  173.6160  137.3910 O   0  0  0  0  0  0  0  0  0  0  0  0
  182.9140  177.0070  135.5270 C   0  0  0  0  0  0  0  0  0  0  0  0
  186.2400  176.3610  136.8840 C   0  0  0  0  0  3  0  0  0  0  0  0
  188.7350  175.9980  138.2300 C   0  0  0  0  0  3  0  0  0  0  0  0
  184.5120  175.4670  135.4780 C   0  0  0  0  0  0  0  0  0  0  0  0
  187.2190  173.0600  135.4970 C   0  0  0  0  0  3  0  0  0  0  0  0
  189.9690  176.3310  138.6090 C   0  0  0  0  0  0  0  0  0  0  0  0
  185.2370  174.3520  135.2200 N   0  0  0  0  0  0  0  0  0  0  0  0
  187.0150  175.2100  136.6260 C   0  0  0  0  0  0  0  0  0  0  0  0
  186.4780  174.2060  135.7700 C   0  0  0  0  0  0  0  0  0  0  0  0
  193.7100  174.9780  137.0060 C   0  0  0  0  0  0  0  0  0  0  0  0
  189.0400  173.8770  136.8850 C   0  0  0  0  0  0  0  0  0  0  0  0
  183.2180  175.7300  134.9690 N   0  0  0  0  0  2  0  0  0  0  0  0
  192.6130  174.1160  136.9950 C   0  0  0  0  0  3  0  0  0  0  0  0
  188.3010  175.0420  137.1950 C   0  0  0  0  0  0  0  0  0  0  0  0
  183.9950  177.5680  136.4010 C   0  0  0  0  0  2  0  0  0  0  0  0
  191.2090  175.8500  137.9620 C   0  0  0  0  0  0  0  0  0  0  0  0
  184.9870  176.4660  136.2880 C   0  0  0  0  0  0  0  0  0  0  0  0
  193.5640  176.2780  137.4860 C   0  0  0  0  0  3  0  0  0  0  0  0
  191.3570  174.5410  137.4490 C   0  0  0  0  0  0  0  0  0  0  0  0
  195.0350  174.5130  136.5100 C   0  0  0  0  0  2  0  0  0  0  0  0
  195.9200  175.5910  136.4150 O   0  0  0  0  0  0  0  0  0  0  0  0
  197.3650  173.1160  136.4300 C   0  0  0  0  0  1  0  0  0  0  0  0
  198.3980  175.4750  135.5590 O   0  0  0  0  0  0  0  0  0  0  0  0
  198.0700  175.2790  138.1540 O   0  0  0  0  0  1  0  0  0  0  0  0
  197.4650  174.9200  136.6130 P   0  0  1  0  0  0  0  0  0  0  0  0
  190.0620  177.3100  139.7370 C   0  0  0  0  0  2  0  0  0  0  0  0
  188.6950  177.9110  140.0300 C   0  0  0  0  0  2  0  0  0  0  0  0
  188.5600  178.2420  141.5100 C   0  0  0  0  0  2  0  0  0  0  0  0
  188.7840  177.0870  142.2730 O   0  0  0  0  0  0  0  0  0  0  0  0
  189.3710  177.5280  143.4160 N   0  0  0  0  0  0  0  0  0  0  0  0
  190.7220  176.9530  143.4680 C   0  0  2  0  0  3  0  0  0  0  0  0
  190.9490  176.2770  144.6720 O   0  0  0  0  0  1  0  0  0  0  0  0
  191.4030  179.2920  143.9870 C   0  0  0  0  0  1  0  0  0  0  0  0
  191.7800  178.0260  143.2390 C   0  0  0  0  0  2  0  0  0  0  0  0
  188.5710  177.0340  144.5350 C   0  0  0  0  0  1  0  0  0  0  0  0
  187.1050  176.9240  144.1300 C   0  0  0  0  0 15  0  0  0  0  0  0
  186.3550  178.1750  144.5680 O   0  0  0  0  0  1  0  0  0  0  0  0
  185.9810  177.6040  144.1880 O   0  0  0  0  0  0  0  0  0  0  0  0
  185.0270  178.4220  144.0770 C   0  0  0  0  0  1  0  0  0  0  0  0
  184.8160  179.2580  142.8630 C   0  0  0  0  0  1  0  0  0  0  0  0
  183.9590  178.5910  141.9860 O   0  0  0  0  0  0  0  0  0  0  0  0
  184.5610  178.7240  140.7320 C   0  0  2  0  0  3  0  0  0  0  0  0
  185.6290  179.6190  140.8140 O   0  0  0  0  0  1  0  0  0  0  0  0
  184.0790  180.3320  139.0430 O   0  0  0  0  0  1  0  0  0  0  0  0
  183.5520  179.2330  139.7230 C   0  0  0  0  0  2  0  0  0  0  0  0
  1 15  1  0  0  0  0
  3  5  2  0  0  0  0
  4 23  1  0  0  0  0
  5 19  1  0  0  0  0
  7 10  2  0  0  0  0
  8 21  1  0  0  0  0
  9 13  1  0  0  0  0
  9  1  2  0  0  0  0
 10 30  1  0  0  0  0
 11  8  2  0  0  0  0
 11 13  1  0  0  0  0
 12  6  1  0  0  0  0
 12 18  1  0  0  0  0
 13 12  2  0  0  0  0
 14 22  1  0  0  0  0
 15 18  2  0  0  0  0
 15  4  1  0  0  0  0
 16  8  1  0  0  0  0
 16  5  1  0  0  0  0
 17 14  2  0  0  0  0
 17 23  1  0  0  0  0
 18  7  1  0  0  0  0
 20  2  1  0  0  0  0
 20 10  1  0  0  0  0
 21 19  1  0  0  0  0
 21  6  2  0  0  0  0
 22  2  2  0  0  0  0
 23 20  2  0  0  0  0
 24 14  1  0  0  0  0
 25 24  1  0  0  0  0
 25 29  1  0  0  0  0
 27 29  2  0  0  0  0
 29 26  1  6  0  0  0
 29 28  1  0  0  0  0
 30 31  1  0  0  0  0
 31 32  1  0  0  0  0
 32 33  1  0  0  0  0
 33 34  1  0  0  0  0
 34 35  1  0  0  0  0
 34 39  1  0  0  0  0
 35 36  1  1  0  0  0
 38 35  1  0  0  0  0
 38 37  1  0  0  0  0
 42 41  1  0  0  0  0
 43 42  1  0  0  0  0
 45 44  1  0  0  0  0
 46 47  1  1  0  0  0
 46 45  1  0  0  0  0
 48 49  1  0  0  0  0
 49 46  1  0  0  0  0
M  END
>  <MODEL>
4

>  <REMARK>
 VINA RESULT:      -7.5      4.157     11.489
  Name = 
  18 active torsions:
  status: ('A' for Active; 'I' for Inactive)
    1  A    between atoms: C_1  and  C_22
    2  A    between atoms: C_1  and  C_45
    3  A    between atoms: C_2  and  C_26
    4  A    between atoms: C_2  and  N_33
    5  A    between atoms: C_3  and  O_21
    6  A    between atoms: C_3  and  C_30
    7  A    between atoms: C_7  and  O_21
    8  A    between atoms: C_7  and  C_32
    9  A    between atoms: C_18  and  C_22
   10  A    between atoms: C_23  and  C_28
   11  A    between atoms: C_23  and  O_48
   12  A    between atoms: C_30  and  O_43
   13  A    between atoms: N_33  and  O_34
   14  A    between atoms: N_33  and  C_44
   15  A    between atoms: O_34  and  C_45
   16  A    between atoms: P_41  and  O_48
   17  A    between atoms: O_43  and  C_47
   18  A    between atoms: C_44  and  C_47
                            x       y       z     vdW  Elec       q    Type
                         _______ _______ _______ _____ _____    ______ ____

>  <TORSDO>
F 18

$$$$
=
 OpenBabel10222418293D

 49 51  0  0  1  0  0  0  0  0999 V2000
  183.0030  179.0830  144.4070 C   0  0  0  0  0  3  0  0  0  0  0  0
  188.3230  177.2210  143.3440 C   0  0  0  0  0  3  0  0  0  0  0  0
  179.2370  177.2420  137.3770 O   0  0  0  0  0  0  0  0  0  0  0  0
  185.3750  179.1910  144.5060 O   0  0  0  0  0  0  0  0  0  0  0  0
  179.9710  177.5180  138.3630 C   0  0  0  0  0  0  0  0  0  0  0  0
  182.9980  178.1150  140.3120 C   0  0  0  0  0  3  0  0  0  0  0  0
  185.4910  178.7320  141.5650 C   0  0  0  0  0  3  0  0  0  0  0  0
  180.6010  178.0420  140.4250 C   0  0  0  0  0  0  0  0  0  0  0  0
  181.7970  178.8810  143.7400 C   0  0  0  0  0  3  0  0  0  0  0  0
  186.7520  178.5060  141.9360 C   0  0  0  0  0  0  0  0  0  0  0  0
  180.6100  178.3610  141.7420 N   0  0  0  0  0  0  0  0  0  0  0  0
  183.0310  178.4440  141.6840 C   0  0  0  0  0  0  0  0  0  0  0  0
  181.7970  178.5580  142.3870 C   0  0  0  0  0  0  0  0  0  0  0  0
  188.2240  177.2280  145.7560 C   0  0  0  0  0  0  0  0  0  0  0  0
  184.2280  178.9650  143.7440 C   0  0  0  0  0  0  0  0  0  0  0  0
  179.4380  177.8170  139.6520 N   0  0  0  0  0  2  0  0  0  0  0  0
  187.0780  178.0230  145.6980 C   0  0  0  0  0  3  0  0  0  0  0  0
  184.2550  178.6570  142.3640 C   0  0  0  0  0  0  0  0  0  0  0  0
  181.4680  177.5580  138.2930 C   0  0  0  0  0  2  0  0  0  0  0  0
  187.1650  178.0160  143.2690 C   0  0  0  0  0  0  0  0  0  0  0  0
  181.7620  177.9130  139.7070 C   0  0  0  0  0  0  0  0  0  0  0  0
  188.8410  176.8190  144.5760 C   0  0  0  0  0  3  0  0  0  0  0  0
  186.5280  178.4060  144.4680 C   0  0  0  0  0  0  0  0  0  0  0  0
  188.7900  176.8210  147.0720 C   0  0  0  0  0  2  0  0  0  0  0  0
  189.8380  175.9160  146.8860 O   0  0  0  0  0  0  0  0  0  0  0  0
  192.4920  175.6340  147.9330 C   0  0  0  0  0  1  0  0  0  0  0  0
  191.7930  177.4410  146.0250 O   0  0  0  0  0  0  0  0  0  0  0  0
  190.9140  177.9580  148.4420 O   0  0  0  0  0  1  0  0  0  0  0  0
  191.2470  176.7790  147.2720 P   0  0  1  0  0  0  0  0  0  0  0  0
  187.7900  178.7200  140.8780 C   0  0  0  0  0  2  0  0  0  0  0  0
  187.3010  178.1830  139.5410 C   0  0  0  0  0  2  0  0  0  0  0  0
  188.4280  177.4720  138.8050 C   0  0  0  0  0  2  0  0  0  0  0  0
  188.2500  177.6110  137.4210 O   0  0  0  0  0  0  0  0  0  0  0  0
  189.3810  177.1050  136.8670 N   0  0  0  0  0  0  0  0  0  0  0  0
  188.9760  176.2430  135.7470 C   0  0  2  0  0  3  0  0  0  0  0  0
  187.7830  176.6840  135.1630 O   0  0  0  0  0  1  0  0  0  0  0  0
  189.1840  173.8650  135.0340 C   0  0  0  0  0  1  0  0  0  0  0  0
  188.8590  174.7900  136.1930 C   0  0  0  0  0  2  0  0  0  0  0  0
  190.0520  176.3110  137.8950 C   0  0  0  0  0  2  0  0  0  0  0  0
  191.5420  176.6290  137.9220 C   0  0  0  0  0  1  0  0  0  0  0  0
  192.2670  175.7890  136.8780 O   0  0  0  0  0  1  0  0  0  0  0  0
  192.5580  175.7320  136.1550 O   0  0  0  0  0  0  0  0  0  0  0  0
  193.6820  175.9520  136.6840 C   0  0  0  0  0  1  0  0  0  0  0  0
  194.6240  174.8630  137.0630 C   0  0  0  0  0  1  0  0  0  0  0  0
  195.1720  175.1400  138.3170 O   0  0  0  0  0  0  0  0  0  0  0  0
  196.1440  174.1540  138.5050 C   0  0  2  0  0  3  0  0  0  0  0  0
  195.5630  173.0230  139.0790 O   0  0  0  0  0  1  0  0  0  0  0  0
  198.0410  175.5780  138.7130 O   0  0  0  0  0  1  0  0  0  0  0  0
  197.2400  174.6740  139.4120 C   0  0  0  0  0  2  0  0  0  0  0  0
  2 22  1  0  0  0  0
  3  5  2  0  0  0  0
  5 16  1  0  0  0  0
  6 12  1  0  0  0  0
  7 10  2  0  0  0  0
  7 18  1  0  0  0  0
  8 11  2  0  0  0  0
  9  1  2  0  0  0  0
 10 20  1  0  0  0  0
 11 13  1  0  0  0  0
 12 18  1  0  0  0  0
 12 13  2  0  0  0  0
 13  9  1  0  0  0  0
 14 24  1  0  0  0  0
 15  1  1  0  0  0  0
 15  4  1  0  0  0  0
 16  8  1  0  0  0  0
 17 14  1  0  0  0  0
 18 15  2  0  0  0  0
 19  5  1  0  0  0  0
 19 21  1  0  0  0  0
 20  2  2  0  0  0  0
 20 23  1  0  0  0  0
 21  6  2  0  0  0  0
 21  8  1  0  0  0  0
 22 14  2  0  0  0  0
 23  4  1  0  0  0  0
 23 17  2  0  0  0  0
 25 24  1  0  0  0  0
 25 29  1  0  0  0  0
 27 29  2  0  0  0  0
 29 26  1  1  0  0  0
 29 28  1  0  0  0  0
 30 10  1  0  0  0  0
 31 30  1  0  0  0  0
 32 31  1  0  0  0  0
 33 32  1  0  0  0  0
 34 33  1  0  0  0  0
 34 39  1  0  0  0  0
 35 36  1  1  0  0  0
 35 38  1  0  0  0  0
 35 34  1  0  0  0  0
 37 38  1  0  0  0  0
 39 40  1  0  0  0  0
 42 43  1  0  0  0  0
 42 41  1  0  0  0  0
 44 45  1  0  0  0  0
 45 46  1  0  0  0  0
 46 47  1  1  0  0  0
 46 49  1  0  0  0  0
 48 49  1  0  0  0  0
M  END
>  <MODEL>
5

>  <REMARK>
 VINA RESULT:      -7.4      3.975      7.932
  Name = 
  18 active torsions:
  status: ('A' for Active; 'I' for Inactive)
    1  A    between atoms: C_1  and  C_22
    2  A    between atoms: C_1  and  C_45
    3  A    between atoms: C_2  and  C_26
    4  A    between atoms: C_2  and  N_33
    5  A    between atoms: C_3  and  O_21
    6  A    between atoms: C_3  and  C_30
    7  A    between atoms: C_7  and  O_21
    8  A    between atoms: C_7  and  C_32
    9  A    between atoms: C_18  and  C_22
   10  A    between atoms: C_23  and  C_28
   11  A    between atoms: C_23  and  O_48
   12  A    between atoms: C_30  and  O_43
   13  A    between atoms: N_33  and  O_34
   14  A    between atoms: N_33  and  C_44
   15  A    between atoms: O_34  and  C_45
   16  A    between atoms: P_41  and  O_48
   17  A    between atoms: O_43  and  C_47
   18  A    between atoms: C_44  and  C_47
                            x       y       z     vdW  Elec       q    Type
                         _______ _______ _______ _____ _____    ______ ____

>  <TORSDO>
F 18

$$$$
=
 OpenBabel10222418293D

 49 50  0  0  1  0  0  0  0  0999 V2000
  188.3390  172.7340  136.1290 C   0  0  0  0  0  3  0  0  0  0  0  0
  192.1380  176.6520  137.8940 C   0  0  0  0  0  3  0  0  0  0  0  0
  181.7690  177.4080  134.7220 O   0  0  0  0  0  0  0  0  0  0  0  0
  190.1190  173.5420  137.4810 O   0  0  0  0  0  0  0  0  0  0  0  0
  182.8370  176.8240  135.0450 C   0  0  0  0  0  0  0  0  0  0  0  0
  186.0980  176.2660  136.5870 C   0  0  0  0  0  3  0  0  0  0  0  0
  188.5320  175.9950  138.0590 C   0  0  0  0  0  3  0  0  0  0  0  0
  184.4190  175.2740  135.1870 C   0  0  0  0  0  0  0  0  0  0  0  0
  187.0970  172.8570  135.5110 C   0  0  0  0  0  3  0  0  0  0  0  0
  189.7530  176.3480  138.4610 C   0  0  0  0  0  0  0  0  0  0  0  0
  185.1430  174.1370  135.0490 N   0  0  0  0  0  0  0  0  0  0  0  0
  186.8710  175.0920  136.4550 C   0  0  0  0  0  0  0  0  0  0  0  0
  186.3580  174.0260  135.6600 C   0  0  0  0  0  0  0  0  0  0  0  0
  193.5420  174.8440  137.1280 C   0  0  0  0  0  0  0  0  0  0  0  0
  188.8700  173.7700  136.9030 C   0  0  0  0  0  0  0  0  0  0  0  0
  183.1500  175.5040  134.6050 N   0  0  0  0  0  2  0  0  0  0  0  0
  192.4370  173.9920  137.1420 C   0  0  0  0  0  3  0  0  0  0  0  0
  188.1300  174.9610  137.0870 C   0  0  0  0  0  0  0  0  0  0  0  0
  183.8870  177.4460  135.9160 C   0  0  0  0  0  2  0  0  0  0  0  0
  191.0130  175.8080  137.9060 C   0  0  0  0  0  0  0  0  0  0  0  0
  184.8710  176.3320  135.9330 C   0  0  0  0  0  0  0  0  0  0  0  0
  193.3890  176.1790  137.4960 C   0  0  0  0  0  3  0  0  0  0  0  0
  191.1680  174.4610  137.5070 C   0  0  0  0  0  0  0  0  0  0  0  0
  194.8810  174.3310  136.7270 C   0  0  0  0  0  2  0  0  0  0  0  0
  195.8850  175.1760  137.2070 O   0  0  0  0  0  0  0  0  0  0  0  0
  198.4150  174.2180  138.1540 C   0  0  0  0  0  1  0  0  0  0  0  0
  196.3930  175.0320  139.7780 O   0  0  0  0  0  1  0  0  0  0  0  0
  196.0030  172.7440  138.5560 O   0  0  0  0  0  0  0  0  0  0  0  0
  196.6290  174.3160  138.4660 P   0  0  1  0  0  0  0  0  0  0  0  0
  189.8100  177.4140  139.5100 C   0  0  0  0  0  2  0  0  0  0  0  0
  188.5340  178.2440  139.4910 C   0  0  0  0  0  2  0  0  0  0  0  0
  187.8790  178.2520  140.8660 C   0  0  0  0  0  2  0  0  0  0  0  0
  186.8920  179.2460  140.9120 O   0  0  0  0  0  0  0  0  0  0  0  0
  185.7710  178.6100  141.3400 N   0  0  0  0  0  0  0  0  0  0  0  0
  184.8200  178.5910  140.2190 C   0  0  2  0  0  3  0  0  0  0  0  0
  184.6390  179.8690  139.6750 O   0  0  0  0  0  1  0  0  0  0  0  0
  182.9580  177.0740  139.5580 C   0  0  0  0  0  1  0  0  0  0  0  0
  183.4870  177.9890  140.6470 C   0  0  0  0  0  2  0  0  0  0  0  0
  185.2250  179.3890  142.4500 C   0  0  0  0  0  1  0  0  0  0  0  0
  185.3040  178.5910  143.7460 C   0  0  0  0  0 15  0  0  0  0  0  0
  186.3750  177.5140  143.6230 O   0  0  0  0  0  1  0  0  0  0  0  0
  186.2520  177.8890  144.2980 O   0  0  0  0  0  0  0  0  0  0  0  0
  187.1660  177.1570  144.7690 C   0  0  0  0  0  1  0  0  0  0  0  0
  188.5840  177.6000  144.8720 C   0  0  0  0  0  1  0  0  0  0  0  0
  189.3710  176.8430  144.0040 O   0  0  0  0  0  0  0  0  0  0  0  0
  190.6390  176.8340  144.5890 C   0  0  2  0  0  3  0  0  0  0  0  0
  190.6150  177.5700  145.7750 O   0  0  0  0  0  1  0  0  0  0  0  0
  191.3860  178.7980  143.4690 O   0  0  0  0  0  1  0  0  0  0  0  0
  191.6530  177.4390  143.6400 C   0  0  0  0  0  2  0  0  0  0  0  0
  1 15  1  0  0  0  0
  2 20  1  0  0  0  0
  3  5  2  0  0  0  0
  4 23  1  0  0  0  0
  5 19  1  0  0  0  0
  7 10  2  0  0  0  0
  8 21  1  0  0  0  0
  9 13  1  0  0  0  0
  9  1  2  0  0  0  0
 10 30  1  0  0  0  0
 11  8  2  0  0  0  0
 11 13  1  0  0  0  0
 12  6  1  0  0  0  0
 12 18  1  0  0  0  0
 13 12  2  0  0  0  0
 14 17  2  0  0  0  0
 14 22  1  0  0  0  0
 15 18  2  0  0  0  0
 15  4  1  0  0  0  0
 16  5  1  0  0  0  0
 16  8  1  0  0  0  0
 17 23  1  0  0  0  0
 18  7  1  0  0  0  0
 19 21  1  0  0  0  0
 20 10  1  0  0  0  0
 21  6  2  0  0  0  0
 22  2  2  0  0  0  0
 23 20  2  0  0  0  0
 24 14  1  0  0  0  0
 24 25  1  0  0  0  0
 25 29  1  0  0  0  0
 29 26  1  6  0  0  0
 29 28  2  0  0  0  0
 29 27  1  0  0  0  0
 31 30  1  0  0  0  0
 31 32  1  0  0  0  0
 32 33  1  0  0  0  0
 33 34  1  0  0  0  0
 34 39  1  0  0  0  0
 35 36  1  1  0  0  0
 35 38  1  0  0  0  0
 35 34  1  0  0  0  0
 37 38  1  0  0  0  0
 41 42  1  0  0  0  0
 42 43  1  0  0  0  0
 45 46  1  0  0  0  0
 45 44  1  0  0  0  0
 46 47  1  1  0  0  0
 48 49  1  0  0  0  0
 49 46  1  0  0  0  0
M  END
>  <MODEL>
6

>  <REMARK>
 VINA RESULT:      -7.2      4.358     11.105
  Name = 
  18 active torsions:
  status: ('A' for Active; 'I' for Inactive)
    1  A    between atoms: C_1  and  C_22
    2  A    between atoms: C_1  and  C_45
    3  A    between atoms: C_2  and  C_26
    4  A    between atoms: C_2  and  N_33
    5  A    between atoms: C_3  and  O_21
    6  A    between atoms: C_3  and  C_30
    7  A    between atoms: C_7  and  O_21
    8  A    between atoms: C_7  and  C_32
    9  A    between atoms: C_18  and  C_22
   10  A    between atoms: C_23  and  C_28
   11  A    between atoms: C_23  and  O_48
   12  A    between atoms: C_30  and  O_43
   13  A    between atoms: N_33  and  O_34
   14  A    between atoms: N_33  and  C_44
   15  A    between atoms: O_34  and  C_45
   16  A    between atoms: P_41  and  O_48
   17  A    between atoms: O_43  and  C_47
   18  A    between atoms: C_44  and  C_47
                            x       y       z     vdW  Elec       q    Type
                         _______ _______ _______ _____ _____    ______ ____

>  <TORSDO>
F 18

$$$$
=
 OpenBabel10222418293D

 49 51  0  0  1  0  0  0  0  0999 V2000
  183.0620  179.0420  144.6740 C   0  0  0  0  0  3  0  0  0  0  0  0
  188.4130  177.1920  143.7550 C   0  0  0  0  0  3  0  0  0  0  0  0
  179.5580  177.4220  137.4560 O   0  0  0  0  0  0  0  0  0  0  0  0
  185.4290  179.1380  144.8640 O   0  0  0  0  0  0  0  0  0  0  0  0
  180.2540  177.6660  138.4760 C   0  0  0  0  0  0  0  0  0  0  0  0
  183.2080  178.1940  140.5540 C   0  0  0  0  0  3  0  0  0  0  0  0
  185.6540  178.7650  141.9170 C   0  0  0  0  0  3  0  0  0  0  0  0
  180.8090  178.1270  140.5760 C   0  0  0  0  0  0  0  0  0  0  0  0
  181.8820  178.8640  143.9560 C   0  0  0  0  0  3  0  0  0  0  0  0
  186.8990  178.5240  142.3280 C   0  0  0  0  0  0  0  0  0  0  0  0
  180.7680  178.4070  141.9010 N   0  0  0  0  0  0  0  0  0  0  0  0
  183.1910  178.4830  141.9360 C   0  0  0  0  0  0  0  0  0  0  0  0
  181.9310  178.5800  142.5950 C   0  0  0  0  0  0  0  0  0  0  0  0
  188.2240  177.1290  146.1610 C   0  0  0  0  0  0  0  0  0  0  0  0
  184.3100  178.9380  144.0540 C   0  0  0  0  0  0  0  0  0  0  0  0
  179.6740  177.9290  139.7530 N   0  0  0  0  0  2  0  0  0  0  0  0
  187.0830  177.9290  146.0840 C   0  0  0  0  0  3  0  0  0  0  0  0
  184.3880  178.6710  142.6670 C   0  0  0  0  0  0  0  0  0  0  0  0
  181.7530  177.7030  138.4640 C   0  0  0  0  0  2  0  0  0  0  0  0
  187.2610  177.9930  143.6600 C   0  0  0  0  0  0  0  0  0  0  0  0
  181.9950  178.0140  139.8970 C   0  0  0  0  0  0  0  0  0  0  0  0
  188.8840  176.7510  144.9930 C   0  0  0  0  0  3  0  0  0  0  0  0
  186.5800  178.3500  144.8460 C   0  0  0  0  0  0  0  0  0  0  0  0
  188.7390  176.6810  147.4850 C   0  0  0  0  0  2  0  0  0  0  0  0
  189.7690  177.5230  147.9120 O   0  0  0  0  0  0  0  0  0  0  0  0
  191.6840  177.0930  145.8230 C   0  0  0  0  0  1  0  0  0  0  0  0
  192.3060  177.1450  148.4690 O   0  0  0  0  0  1  0  0  0  0  0  0
  190.9800  175.0290  147.6650 O   0  0  0  0  0  0  0  0  0  0  0  0
  191.2040  176.7030  147.5300 P   0  0  1  0  0  0  0  0  0  0  0  0
  187.9770  178.7650  141.3170 C   0  0  0  0  0  2  0  0  0  0  0  0
  187.5550  178.2290  139.9560 C   0  0  0  0  0  2  0  0  0  0  0  0
  188.7750  177.9250  139.0980 C   0  0  0  0  0  2  0  0  0  0  0  0
  188.9230  178.9190  138.1200 O   0  0  0  0  0  0  0  0  0  0  0  0
  189.1090  178.2430  136.9560 N   0  0  0  0  0  0  0  0  0  0  0  0
  187.8920  178.4110  136.1490 C   0  0  2  0  0  3  0  0  0  0  0  0
  187.1540  179.5300  136.5560 O   0  0  0  0  0  1  0  0  0  0  0  0
  185.6560  177.4800  136.7290 C   0  0  0  0  0  1  0  0  0  0  0  0
  187.0350  177.1520  136.1880 C   0  0  0  0  0  2  0  0  0  0  0  0
  189.2950  176.8340  137.2970 C   0  0  0  0  0  2  0  0  0  0  0  0
  190.6160  176.3230  136.7320 C   0  0  0  0  0  1  0  0  0  0  0  0
  191.5000  175.8190  137.8650 O   0  0  0  0  0  1  0  0  0  0  0  0
  191.8710  175.4890  138.4680 O   0  0  0  0  0  0  0  0  0  0  0  0
  192.5060  174.8270  137.6020 C   0  0  0  0  0  1  0  0  0  0  0  0
  193.8490  175.2310  137.1000 C   0  0  0  0  0  1  0  0  0  0  0  0
  194.3350  174.2490  136.2350 O   0  0  0  0  0  0  0  0  0  0  0  0
  194.1590  173.0480  136.9270 C   0  0  2  0  0  3  0  0  0  0  0  0
  195.0730  172.9740  137.9800 O   0  0  0  0  0  1  0  0  0  0  0  0
  193.2860  171.0010  136.0820 O   0  0  0  0  0  1  0  0  0  0  0  0
  194.3700  171.8750  135.9920 C   0  0  0  0  0  2  0  0  0  0  0  0
  2 22  1  0  0  0  0
  3  5  2  0  0  0  0
  5 16  1  0  0  0  0
  6 12  1  0  0  0  0
  7 10  2  0  0  0  0
  7 18  1  0  0  0  0
  8 11  2  0  0  0  0
  9  1  2  0  0  0  0
 10 20  1  0  0  0  0
 11 13  1  0  0  0  0
 12 13  2  0  0  0  0
 12 18  1  0  0  0  0
 13  9  1  0  0  0  0
 14 24  1  0  0  0  0
 15  1  1  0  0  0  0
 15  4  1  0  0  0  0
 16  8  1  0  0  0  0
 17 14  1  0  0  0  0
 18 15  2  0  0  0  0
 19  5  1  0  0  0  0
 19 21  1  0  0  0  0
 20  2  2  0  0  0  0
 20 23  1  0  0  0  0
 21  6  2  0  0  0  0
 21  8  1  0  0  0  0
 22 14  2  0  0  0  0
 23  4  1  0  0  0  0
 23 17  2  0  0  0  0
 24 25  1  0  0  0  0
 29 26  1  6  0  0  0
 29 28  2  0  0  0  0
 29 25  1  0  0  0  0
 29 27  1  0  0  0  0
 30 10  1  0  0  0  0
 31 30  1  0  0  0  0
 32 31  1  0  0  0  0
 33 32  1  0  0  0  0
 34 39  1  0  0  0  0
 34 33  1  0  0  0  0
 35 38  1  0  0  0  0
 35 36  1  1  0  0  0
 35 34  1  0  0  0  0
 38 37  1  0  0  0  0
 40 39  1  0  0  0  0
 41 42  1  0  0  0  0
 43 42  1  0  0  0  0
 45 46  1  0  0  0  0
 45 44  1  0  0  0  0
 46 47  1  1  0  0  0
 49 48  1  0  0  0  0
 49 46  1  0  0  0  0
M  END
>  <MODEL>
7

>  <REMARK>
 VINA RESULT:      -7.0      3.915      7.930
  Name = 
  18 active torsions:
  status: ('A' for Active; 'I' for Inactive)
    1  A    between atoms: C_1  and  C_22
    2  A    between atoms: C_1  and  C_45
    3  A    between atoms: C_2  and  C_26
    4  A    between atoms: C_2  and  N_33
    5  A    between atoms: C_3  and  O_21
    6  A    between atoms: C_3  and  C_30
    7  A    between atoms: C_7  and  O_21
    8  A    between atoms: C_7  and  C_32
    9  A    between atoms: C_18  and  C_22
   10  A    between atoms: C_23  and  C_28
   11  A    between atoms: C_23  and  O_48
   12  A    between atoms: C_30  and  O_43
   13  A    between atoms: N_33  and  O_34
   14  A    between atoms: N_33  and  C_44
   15  A    between atoms: O_34  and  C_45
   16  A    between atoms: P_41  and  O_48
   17  A    between atoms: O_43  and  C_47
   18  A    between atoms: C_44  and  C_47
                            x       y       z     vdW  Elec       q    Type
                         _______ _______ _______ _____ _____    ______ ____

>  <TORSDO>
F 18

$$$$
=
 OpenBabel10222418293D

 49 50  0  0  1  0  0  0  0  0999 V2000
  181.7710  179.1660  143.7600 C   0  0  0  0  0  3  0  0  0  0  0  0
  182.4220  180.2290  138.1610 C   0  0  0  0  0  3  0  0  0  0  0  0
  189.4570  177.3960  145.9480 O   0  0  0  0  0  0  0  0  0  0  0  0
  181.1280  179.0980  141.4730 O   0  0  0  0  0  0  0  0  0  0  0  0
  188.3270  177.6270  145.4420 C   0  0  0  0  0  0  0  0  0  0  0  0
  185.7310  178.0240  142.9080 C   0  0  0  0  0  3  0  0  0  0  0  0
  183.8350  178.0700  140.7710 C   0  0  0  0  0  3  0  0  0  0  0  0
  186.1810  178.1640  145.2620 C   0  0  0  0  0  0  0  0  0  0  0  0
  182.6950  179.0300  144.7930 C   0  0  0  0  0  3  0  0  0  0  0  0
  183.3550  178.4360  139.5820 C   0  0  0  0  0  0  0  0  0  0  0  0
  184.9030  178.5250  145.5300 N   0  0  0  0  0  0  0  0  0  0  0  0
  184.3950  178.4020  143.1630 C   0  0  0  0  0  0  0  0  0  0  0  0
  184.0050  178.6550  144.5100 C   0  0  0  0  0  0  0  0  0  0  0  0
  180.3780  181.3940  138.6990 C   0  0  0  0  0  0  0  0  0  0  0  0
  182.1320  178.9370  142.4290 C   0  0  0  0  0  0  0  0  0  0  0  0
  187.1980  177.9970  146.2320 N   0  0  0  0  0  2  0  0  0  0  0  0
  180.2970  180.6830  139.8960 C   0  0  0  0  0  3  0  0  0  0  0  0
  183.4520  178.5350  142.1160 C   0  0  0  0  0  0  0  0  0  0  0  0
  188.0480  177.5440  143.9720 C   0  0  0  0  0  2  0  0  0  0  0  0
  182.3580  179.5080  139.3670 C   0  0  0  0  0  0  0  0  0  0  0  0
  186.6090  177.9180  143.9820 C   0  0  0  0  0  0  0  0  0  0  0  0
  181.4480  181.1740  137.8350 C   0  0  0  0  0  3  0  0  0  0  0  0
  181.2850  179.7550  140.2520 C   0  0  0  0  0  0  0  0  0  0  0  0
  179.3240  182.3850  138.3410 C   0  0  0  0  0  2  0  0  0  0  0  0
  179.7400  183.6750  138.6800 O   0  0  0  0  0  0  0  0  0  0  0  0
  179.2620  183.4990  135.8590 C   0  0  0  0  0  1  0  0  0  0  0  0
  179.4230  185.8410  137.2320 O   0  0  0  0  0  1  0  0  0  0  0  0
  181.6940  184.5660  136.9080 O   0  0  0  0  0  0  0  0  0  0  0  0
  180.0280  184.4540  137.2010 P   0  0  1  0  0  0  0  0  0  0  0  0
  183.9350  177.7260  138.3990 C   0  0  0  0  0  2  0  0  0  0  0  0
  185.3130  178.2840  138.0700 C   0  0  0  0  0  2  0  0  0  0  0  0
  186.3290  177.1590  137.9350 C   0  0  0  0  0  2  0  0  0  0  0  0
  187.3780  177.5680  137.0990 O   0  0  0  0  0  0  0  0  0  0  0  0
  188.2950  176.5690  137.1700 N   0  0  0  0  0  0  0  0  0  0  0  0
  189.6030  177.1890  137.4270 C   0  0  2  0  0  3  0  0  0  0  0  0
  190.5750  176.7330  136.5290 O   0  0  0  0  0  1  0  0  0  0  0  0
  189.6880  178.1600  139.7200 C   0  0  0  0  0  1  0  0  0  0  0  0
  190.0420  176.9550  138.8680 C   0  0  0  0  0  2  0  0  0  0  0  0
  188.3050  175.8940  135.8730 C   0  0  0  0  0  1  0  0  0  0  0  0
  188.0410  174.4030  136.0500 C   0  0  0  0  0 15  0  0  0  0  0  0
  186.5590  174.1160  135.8520 O   0  0  0  0  0  1  0  0  0  0  0  0
  186.9440  173.7680  136.4360 O   0  0  0  0  0  0  0  0  0  0  0  0
  185.8060  173.4820  136.8990 C   0  0  0  0  0  1  0  0  0  0  0  0
  185.1440  172.1690  136.6610 C   0  0  0  0  0  1  0  0  0  0  0  0
  183.8510  172.3830  136.1810 O   0  0  0  0  0  0  0  0  0  0  0  0
  183.0720  171.4080  136.8110 C   0  0  2  0  0  3  0  0  0  0  0  0
  183.0410  170.2530  136.0290 O   0  0  0  0  0  1  0  0  0  0  0  0
  181.7010  173.2210  137.5190 O   0  0  0  0  0  1  0  0  0  0  0  0
  181.6620  171.9210  137.0110 C   0  0  0  0  0  2  0  0  0  0  0  0
  1  9  1  0  0  0  0
  2 20  1  0  0  0  0
  4 15  1  0  0  0  0
  5  3  2  0  0  0  0
  5 16  1  0  0  0  0
  6 12  1  0  0  0  0
  6 21  2  0  0  0  0
  7 18  1  0  0  0  0
  8 11  2  0  0  0  0
  8 16  1  0  0  0  0
 10  7  2  0  0  0  0
 12 13  1  0  0  0  0
 13  9  2  0  0  0  0
 13 11  1  0  0  0  0
 14 17  2  0  0  0  0
 15  1  2  0  0  0  0
 17 23  1  0  0  0  0
 18 15  1  0  0  0  0
 18 12  2  0  0  0  0
 19 21  1  0  0  0  0
 19  5  1  0  0  0  0
 20 10  1  0  0  0  0
 20 23  2  0  0  0  0
 21  8  1  0  0  0  0
 22  2  2  0  0  0  0
 22 14  1  0  0  0  0
 23  4  1  0  0  0  0
 24 25  1  0  0  0  0
 24 14  1  0  0  0  0
 28 29  2  0  0  0  0
 29 26  1  6  0  0  0
 29 27  1  0  0  0  0
 29 25  1  0  0  0  0
 30 10  1  0  0  0  0
 31 30  1  0  0  0  0
 32 31  1  0  0  0  0
 33 34  1  0  0  0  0
 33 32  1  0  0  0  0
 34 35  1  0  0  0  0
 35 36  1  6  0  0  0
 35 38  1  0  0  0  0
 38 37  1  0  0  0  0
 39 34  1  0  0  0  0
 41 42  1  0  0  0  0
 42 43  1  0  0  0  0
 45 44  1  0  0  0  0
 45 46  1  0  0  0  0
 46 47  1  6  0  0  0
 46 49  1  0  0  0  0
 49 48  1  0  0  0  0
M  END
>  <MODEL>
8

>  <REMARK>
 VINA RESULT:      -7.0      2.521      4.579
  Name = 
  18 active torsions:
  status: ('A' for Active; 'I' for Inactive)
    1  A    between atoms: C_1  and  C_22
    2  A    between atoms: C_1  and  C_45
    3  A    between atoms: C_2  and  C_26
    4  A    between atoms: C_2  and  N_33
    5  A    between atoms: C_3  and  O_21
    6  A    between atoms: C_3  and  C_30
    7  A    between atoms: C_7  and  O_21
    8  A    between atoms: C_7  and  C_32
    9  A    between atoms: C_18  and  C_22
   10  A    between atoms: C_23  and  C_28
   11  A    between atoms: C_23  and  O_48
   12  A    between atoms: C_30  and  O_43
   13  A    between atoms: N_33  and  O_34
   14  A    between atoms: N_33  and  C_44
   15  A    between atoms: O_34  and  C_45
   16  A    between atoms: P_41  and  O_48
   17  A    between atoms: O_43  and  C_47
   18  A    between atoms: C_44  and  C_47
                            x       y       z     vdW  Elec       q    Type
                         _______ _______ _______ _____ _____    ______ ____

>  <TORSDO>
F 18

$$$$
=
 OpenBabel10222418293D

 49 51  0  0  1  0  0  0  0  0999 V2000
  185.2440  178.8690  145.0320 C   0  0  0  0  0  3  0  0  0  0  0  0
  189.5140  176.7300  141.8550 C   0  0  0  0  0  3  0  0  0  0  0  0
  178.9310  178.2060  139.8650 O   0  0  0  0  0  0  0  0  0  0  0  0
  187.4750  178.7740  144.2190 O   0  0  0  0  0  0  0  0  0  0  0  0
  180.0070  178.3000  140.5120 C   0  0  0  0  0  0  0  0  0  0  0  0
  183.5920  178.4110  141.1890 C   0  0  0  0  0  3  0  0  0  0  0  0
  186.4270  178.6680  141.4330 C   0  0  0  0  0  3  0  0  0  0  0  0
  181.4210  178.5170  142.2090 C   0  0  0  0  0  0  0  0  0  0  0  0
  183.8620  178.8470  144.8650 C   0  0  0  0  0  3  0  0  0  0  0  0
  187.6980  178.2990  141.2700 C   0  0  0  0  0  0  0  0  0  0  0  0
  181.9600  178.6710  143.4430 N   0  0  0  0  0  0  0  0  0  0  0  0
  184.1750  178.5660  142.4650 C   0  0  0  0  0  0  0  0  0  0  0  0
  183.3160  178.6920  143.5950 C   0  0  0  0  0  0  0  0  0  0  0  0
  190.3260  176.4510  144.1110 C   0  0  0  0  0  0  0  0  0  0  0  0
  186.1080  178.7340  143.9410 C   0  0  0  0  0  0  0  0  0  0  0  0
  180.0350  178.4810  141.9270 N   0  0  0  0  0  2  0  0  0  0  0  0
  189.3470  177.3360  144.5640 C   0  0  0  0  0  3  0  0  0  0  0  0
  185.5800  178.5960  142.6370 C   0  0  0  0  0  0  0  0  0  0  0  0
  181.3620  178.2290  139.8760 C   0  0  0  0  0  2  0  0  0  0  0  0
  188.5170  177.6180  142.2960 C   0  0  0  0  0  0  0  0  0  0  0  0
  182.2040  178.3830  141.0910 C   0  0  0  0  0  0  0  0  0  0  0  0
  190.4030  176.1400  142.7550 C   0  0  0  0  0  3  0  0  0  0  0  0
  188.4270  177.9090  143.6760 C   0  0  0  0  0  0  0  0  0  0  0  0
  191.2890  175.8420  145.0700 C   0  0  0  0  0  2  0  0  0  0  0  0
  191.9440  176.8410  145.7960 O   0  0  0  0  0  0  0  0  0  0  0  0
  192.8040  175.3480  148.0860 C   0  0  0  0  0  1  0  0  0  0  0  0
  191.6460  177.8040  148.2190 O   0  0  0  0  0  1  0  0  0  0  0  0
  190.0400  175.8360  147.5610 O   0  0  0  0  0  0  0  0  0  0  0  0
  191.5850  176.5190  147.4220 P   0  0  1  0  0  0  0  0  0  0  0  0
  188.2830  178.5570  139.9160 C   0  0  0  0  0  2  0  0  0  0  0  0
  187.4090  177.9340  138.8360 C   0  0  0  0  0  2  0  0  0  0  0  0
  188.0590  178.0890  137.4670 C   0  0  0  0  0  2  0  0  0  0  0  0
  188.0350  176.8600  136.7920 O   0  0  0  0  0  0  0  0  0  0  0  0
  188.8140  176.0340  137.5370 N   0  0  0  0  0  0  0  0  0  0  0  0
  190.2070  176.2490  137.1210 C   0  0  2  0  0  3  0  0  0  0  0  0
  190.5550  175.4300  136.0400 O   0  0  0  0  0  1  0  0  0  0  0  0
  192.5770  176.4010  137.8730 C   0  0  0  0  0  1  0  0  0  0  0  0
  191.1630  176.0410  138.2900 C   0  0  0  0  0  2  0  0  0  0  0  0
  188.4060  174.6630  137.2370 C   0  0  0  0  0  2  0  0  0  0  0  0
  186.9060  174.6030  136.9730 C   0  0  0  0  0  1  0  0  0  0  0  0
  186.3780  173.2160  137.3150 O   0  0  0  0  0  1  0  0  0  0  0  0
  186.1590  172.7220  137.8790 O   0  0  0  0  0  0  0  0  0  0  0  0
  184.9750  173.0250  137.5640 C   0  0  0  0  0  1  0  0  0  0  0  0
  184.1510  172.2020  136.6350 C   0  0  0  0  0  1  0  0  0  0  0  0
  182.9410  171.8810  137.2510 O   0  0  0  0  0  0  0  0  0  0  0  0
  182.0510  171.6680  136.1950 C   0  0  2  0  0  3  0  0  0  0  0  0
  182.4420  172.4230  135.0890 O   0  0  0  0  0  1  0  0  0  0  0  0
  180.5020  171.9090  137.9880 O   0  0  0  0  0  1  0  0  0  0  0  0
  180.6500  172.0680  136.6090 C   0  0  0  0  0  2  0  0  0  0  0  0
  2 20  2  0  0  0  0
  2 22  1  0  0  0  0
  3  5  2  0  0  0  0
  5 16  1  0  0  0  0
  6 12  1  0  0  0  0
  7 18  1  0  0  0  0
  8 11  2  0  0  0  0
  9  1  1  0  0  0  0
 10  7  2  0  0  0  0
 10 20  1  0  0  0  0
 11 13  1  0  0  0  0
 12 18  2  0  0  0  0
 12 13  1  0  0  0  0
 13  9  2  0  0  0  0
 14 17  1  0  0  0  0
 14 24  1  0  0  0  0
 15  4  1  0  0  0  0
 15  1  2  0  0  0  0
 16  8  1  0  0  0  0
 18 15  1  0  0  0  0
 19  5  1  0  0  0  0
 19 21  1  0  0  0  0
 20 23  1  0  0  0  0
 21  6  2  0  0  0  0
 21  8  1  0  0  0  0
 22 14  2  0  0  0  0
 23  4  1  0  0  0  0
 23 17  2  0  0  0  0
 24 25  1  0  0  0  0
 25 29  1  0  0  0  0
 29 28  2  0  0  0  0
 29 26  1  1  0  0  0
 29 27  1  0  0  0  0
 30 10  1  0  0  0  0
 31 30  1  0  0  0  0
 32 31  1  0  0  0  0
 33 32  1  0  0  0  0
 33 34  1  0  0  0  0
 35 36  1  6  0  0  0
 35 34  1  0  0  0  0
 35 38  1  0  0  0  0
 37 38  1  0  0  0  0
 39 34  1  0  0  0  0
 40 39  1  0  0  0  0
 41 42  1  0  0  0  0
 43 42  1  0  0  0  0
 44 45  1  0  0  0  0
 46 47  1  6  0  0  0
 46 49  1  0  0  0  0
 46 45  1  0  0  0  0
 49 48  1  0  0  0  0
M  END
>  <MODEL>
9

>  <REMARK>
 VINA RESULT:      -6.9      4.153      9.250
  Name = 
  18 active torsions:
  status: ('A' for Active; 'I' for Inactive)
    1  A    between atoms: C_1  and  C_22
    2  A    between atoms: C_1  and  C_45
    3  A    between atoms: C_2  and  C_26
    4  A    between atoms: C_2  and  N_33
    5  A    between atoms: C_3  and  O_21
    6  A    between atoms: C_3  and  C_30
    7  A    between atoms: C_7  and  O_21
    8  A    between atoms: C_7  and  C_32
    9  A    between atoms: C_18  and  C_22
   10  A    between atoms: C_23  and  C_28
   11  A    between atoms: C_23  and  O_48
   12  A    between atoms: C_30  and  O_43
   13  A    between atoms: N_33  and  O_34
   14  A    between atoms: N_33  and  C_44
   15  A    between atoms: O_34  and  C_45
   16  A    between atoms: P_41  and  O_48
   17  A    between atoms: O_43  and  C_47
   18  A    between atoms: C_44  and  C_47
                            x       y       z     vdW  Elec       q    Type
                         _______ _______ _______ _____ _____    ______ ____

>  <TORSDO>
F 18

$$$$
