=
 OpenBabel10222421023D

 38 43  0  0  1  0  0  0  0  0999 V2000
  188.1930  177.9330  143.7850 C   0  0  0  0  0  0  0  0  0  0  0  0
  187.5350  178.3680  141.0180 C   0  0  0  0  0  3  0  0  0  0  0  0
  188.9580  177.0350  147.8590 N   0  0  0  0  0  0  0  0  0  0  0  0
  189.0740  177.6910  142.8030 C   0  0  0  0  0  3  0  0  0  0  0  0
  184.3830  178.4340  143.9850 C   0  0  0  0  0  3  0  0  0  0  0  0
  190.0030  177.0250  146.9830 C   0  0  0  0  0  0  0  0  0  0  0  0
  189.7840  177.3130  145.6340 C   0  0  0  0  0  3  0  0  0  0  0  0
  185.7750  178.2670  144.4330 C   0  0  0  0  0  0  0  0  0  0  0  0
  188.7630  177.9820  141.3800 C   0  0  0  0  0  0  0  0  0  0  0  0
  184.1030  178.6200  142.6850 C   0  0  0  0  0  0  0  0  0  0  0  0
  186.4820  178.5230  142.0340 C   0  0  0  0  0  0  0  0  0  0  0  0
  186.8890  178.6380  143.4810 C   0  0  2  0  0  3  0  0  0  0  0  0
  188.4860  177.6190  145.1980 C   0  0  0  0  0  0  0  0  0  0  0  0
  187.4280  177.6240  146.1270 C   0  0  0  0  0  0  0  0  0  0  0  0
  187.6900  177.3170  147.4630 C   0  0  0  0  0  3  0  0  0  0  0  0
  186.0400  177.8720  145.6820 C   0  0  0  0  0  3  0  0  0  0  0  0
  185.1970  178.5880  141.6740 C   0  0  0  0  0  3  0  0  0  0  0  0
  182.3010  178.5000  140.8830 C   0  0  0  0  0  2  0  0  0  0  0  0
  181.6110  178.9500  143.1670 C   0  0  0  0  0  2  0  0  0  0  0  0
  180.8340  178.5780  141.0070 C   0  0  0  0  0  0  0  0  0  0  0  0
  180.0310  178.4750  140.0430 O   0  0  0  0  0  0  0  0  0  0  0  0
  180.4280  178.7940  142.3450 N   0  0  0  0  0  0  0  0  0  0  0  0
  182.7400  178.7520  142.2530 N   0  0  0  0  0  0  0  0  0  0  0  0
  179.0530  179.2100  144.3060 C   0  0  0  0  0  1  0  0  0  0  0  0
  179.0700  179.0490  142.7960 C   0  0  0  0  0  2  0  0  0  0  0  0
  191.3750  176.6800  147.4530 C   0  0  0  0  0  2  0  0  0  0  0  0
  192.0190  175.6940  146.4950 C   0  0  0  0  0  1  0  0  0  0  0  0
  189.7300  177.8200  140.3850 O   0  0  0  0  0  0  0  0  0  0  0  0
  190.5910  176.6880  140.3440 C   0  0  0  0  0  2  0  0  0  0  0  0
  190.9560  176.3340  138.9150 C   0  0  0  0  0  2  0  0  0  0  0  0
  187.6890  175.4130  137.1030 C   0  0  0  0  0  3  0  0  0  0  0  0
  188.8250  176.2400  137.5660 C   0  0  0  0  0  0  0  0  0  0  0  0
  185.9090  177.1660  137.3080 C   0  0  0  0  0  3  0  0  0  0  0  0
  188.9060  177.5200  137.3300 N   0  0  0  0  0  0  0  0  0  0  0  0
  186.4160  175.8160  136.9900 C   0  0  0  0  0  3  0  0  0  0  0  0
  187.9670  178.2920  136.5300 C   0  0  0  0  0  2  0  0  0  0  0  0
  189.8770  175.5870  138.2790 N   0  0  0  0  0  2  0  0  0  0  0  0
  186.6100  178.2870  137.1470 C   0  0  0  0  0  3  0  0  0  0  0  0
  1 13  1  0  0  0  0
  2  9  2  0  0  0  0
  2 11  1  0  0  0  0
  4  1  2  0  0  0  0
  5  8  1  0  0  0  0
  6 26  1  0  0  0  0
  6  3  2  0  0  0  0
  7  6  1  0  0  0  0
  8 16  2  0  0  0  0
  9  4  1  0  0  0  0
 10  5  2  0  0  0  0
 12 11  1  6  0  0  0
 12  1  1  0  0  0  0
 12  8  1  0  0  0  0
 13  7  2  0  0  0  0
 13 14  1  0  0  0  0
 14 15  2  0  0  0  0
 15  3  1  0  0  0  0
 16 14  1  0  0  0  0
 17 11  2  0  0  0  0
 17 10  1  0  0  0  0
 18 20  1  0  0  0  0
 18 23  1  0  0  0  0
 20 22  1  0  0  0  0
 21 20  2  0  0  0  0
 22 25  1  0  0  0  0
 22 19  1  0  0  0  0
 23 10  1  0  0  0  0
 23 19  1  0  0  0  0
 25 24  1  0  0  0  0
 27 26  1  0  0  0  0
 28  9  1  0  0  0  0
 29 28  1  0  0  0  0
 30 29  1  0  0  0  0
 31 32  1  0  0  0  0
 32 37  1  0  0  0  0
 34 32  2  0  0  0  0
 35 31  2  0  0  0  0
 35 33  1  0  0  0  0
 36 38  1  0  0  0  0
 36 34  1  0  0  0  0
 37 30  1  0  0  0  0
 38 33  2  0  0  0  0
M  END
>  <MODEL>
1

>  <REMARK>
 VINA RESULT:     -10.2      0.000      0.000
  Name = 
  7 active torsions:
  status: ('A' for Active; 'I' for Inactive)
    1  A    between atoms: C_6  and  C_11
    2  A    between atoms: C_9  and  N_21
    3  A    between atoms: C_9  and  C_24
    4  A    between atoms: O_14  and  C_24
    5  A    between atoms: O_14  and  C_25
    6  A    between atoms: N_19  and  C_38
    7  A    between atoms: C_26  and  N_29
                            x       y       z     vdW  Elec       q    Type
                         _______ _______ _______ _____ _____    ______ ____

>  <TORSDO>
F 7

$$$$
=
 OpenBabel10222421023D

 38 43  0  0  1  0  0  0  0  0999 V2000
  188.2310  177.8620  144.0080 C   0  0  0  0  0  0  0  0  0  0  0  0
  187.4660  178.2240  141.2580 C   0  0  0  0  0  3  0  0  0  0  0  0
  189.1500  177.0740  148.0730 N   0  0  0  0  0  0  0  0  0  0  0  0
  189.0700  177.5830  142.9990 C   0  0  0  0  0  3  0  0  0  0  0  0
  184.4360  178.4040  144.3440 C   0  0  0  0  0  3  0  0  0  0  0  0
  190.1590  177.0290  147.1570 C   0  0  0  0  0  0  0  0  0  0  0  0
  189.8890  177.2810  145.8100 C   0  0  0  0  0  3  0  0  0  0  0  0
  185.8430  178.2380  144.7410 C   0  0  0  0  0  0  0  0  0  0  0  0
  188.7040  177.8370  141.5820 C   0  0  0  0  0  0  0  0  0  0  0  0
  184.1060  178.5560  143.0510 C   0  0  0  0  0  0  0  0  0  0  0  0
  186.4560  178.4180  142.3090 C   0  0  0  0  0  0  0  0  0  0  0  0
  186.9220  178.5700  143.7350 C   0  0  2  0  0  3  0  0  0  0  0  0
  188.5780  177.5860  145.4170 C   0  0  0  0  0  0  0  0  0  0  0  0
  187.5570  177.6280  146.3860 C   0  0  0  0  0  0  0  0  0  0  0  0
  187.8690  177.3570  147.7190 C   0  0  0  0  0  3  0  0  0  0  0  0
  186.1540  177.8760  145.9890 C   0  0  0  0  0  3  0  0  0  0  0  0
  185.1580  178.4850  142.0000 C   0  0  0  0  0  3  0  0  0  0  0  0
  181.6640  179.0440  143.6050 C   0  0  0  0  0  2  0  0  0  0  0  0
  182.2630  178.6880  141.2790 C   0  0  0  0  0  2  0  0  0  0  0  0
  180.5120  179.2390  142.7070 C   0  0  0  0  0  0  0  0  0  0  0  0
  179.3440  179.5080  143.0940 O   0  0  0  0  0  0  0  0  0  0  0  0
  180.8690  179.0780  141.3480 N   0  0  0  0  0  0  0  0  0  0  0  0
  182.7280  178.6890  142.6700 N   0  0  0  0  0  0  0  0  0  0  0  0
  180.4790  178.1410  139.1380 C   0  0  0  0  0  1  0  0  0  0  0  0
  179.9540  179.0710  140.2180 C   0  0  0  0  0  2  0  0  0  0  0  0
  191.5450  176.6850  147.5830 C   0  0  0  0  0  2  0  0  0  0  0  0
  192.0740  175.5340  146.7450 C   0  0  0  0  0  1  0  0  0  0  0  0
  189.6300  177.6370  140.5550 O   0  0  0  0  0  0  0  0  0  0  0  0
  189.2380  177.2190  139.2530 C   0  0  0  0  0  2  0  0  0  0  0  0
  189.0820  178.4080  138.3230 C   0  0  0  0  0  2  0  0  0  0  0  0
  186.1530  177.5030  135.9980 C   0  0  0  0  0  3  0  0  0  0  0  0
  186.8630  178.0480  137.1760 C   0  0  0  0  0  0  0  0  0  0  0  0
  184.1600  176.5910  137.2160 C   0  0  0  0  0  3  0  0  0  0  0  0
  186.2380  178.5430  138.2080 N   0  0  0  0  0  0  0  0  0  0  0  0
  184.9740  176.8670  136.0140 C   0  0  0  0  0  3  0  0  0  0  0  0
  184.7960  178.7080  138.3220 C   0  0  0  0  0  2  0  0  0  0  0  0
  188.2920  178.0440  137.1530 N   0  0  0  0  0  2  0  0  0  0  0  0
  184.1040  177.3890  138.2810 C   0  0  0  0  0  3  0  0  0  0  0  0
  1 13  1  0  0  0  0
  2  9  2  0  0  0  0
  2 11  1  0  0  0  0
  4  1  2  0  0  0  0
  5  8  1  0  0  0  0
  6 26  1  0  0  0  0
  6  3  2  0  0  0  0
  7  6  1  0  0  0  0
  8 16  2  0  0  0  0
  9  4  1  0  0  0  0
 10  5  2  0  0  0  0
 12 11  1  6  0  0  0
 12  1  1  0  0  0  0
 12  8  1  0  0  0  0
 13  7  2  0  0  0  0
 13 14  1  0  0  0  0
 14 15  2  0  0  0  0
 15  3  1  0  0  0  0
 16 14  1  0  0  0  0
 17 11  2  0  0  0  0
 17 10  1  0  0  0  0
 19 22  1  0  0  0  0
 19 23  1  0  0  0  0
 20 21  2  0  0  0  0
 20 18  1  0  0  0  0
 22 20  1  0  0  0  0
 23 10  1  0  0  0  0
 23 18  1  0  0  0  0
 24 25  1  0  0  0  0
 25 22  1  0  0  0  0
 27 26  1  0  0  0  0
 28  9  1  0  0  0  0
 29 28  1  0  0  0  0
 30 29  1  0  0  0  0
 31 35  2  0  0  0  0
 31 32  1  0  0  0  0
 32 34  2  0  0  0  0
 33 38  2  0  0  0  0
 34 36  1  0  0  0  0
 35 33  1  0  0  0  0
 37 32  1  0  0  0  0
 37 30  1  0  0  0  0
 38 36  1  0  0  0  0
M  END
>  <MODEL>
2

>  <REMARK>
 VINA RESULT:     -10.0      1.251      1.931
  Name = 
  7 active torsions:
  status: ('A' for Active; 'I' for Inactive)
    1  A    between atoms: C_6  and  C_11
    2  A    between atoms: C_9  and  N_21
    3  A    between atoms: C_9  and  C_24
    4  A    between atoms: O_14  and  C_24
    5  A    between atoms: O_14  and  C_25
    6  A    between atoms: N_19  and  C_38
    7  A    between atoms: C_26  and  N_29
                            x       y       z     vdW  Elec       q    Type
                         _______ _______ _______ _____ _____    ______ ____

>  <TORSDO>
F 7

$$$$
=
 OpenBabel10222421023D

 38 43  0  0  1  0  0  0  0  0999 V2000
  188.0980  177.8620  143.6800 C   0  0  0  0  0  0  0  0  0  0  0  0
  187.3550  178.2270  140.9250 C   0  0  0  0  0  3  0  0  0  0  0  0
  188.9760  177.0790  147.7560 N   0  0  0  0  0  0  0  0  0  0  0  0
  188.9270  177.5370  142.6770 C   0  0  0  0  0  3  0  0  0  0  0  0
  184.3290  178.5690  144.0020 C   0  0  0  0  0  3  0  0  0  0  0  0
  189.9840  176.9810  146.8430 C   0  0  0  0  0  0  0  0  0  0  0  0
  189.7270  177.2300  145.4920 C   0  0  0  0  0  3  0  0  0  0  0  0
  185.7270  178.3470  144.4040 C   0  0  0  0  0  0  0  0  0  0  0  0
  188.5750  177.7910  141.2560 C   0  0  0  0  0  0  0  0  0  0  0  0
  184.0090  178.7210  142.7070 C   0  0  0  0  0  0  0  0  0  0  0  0
  186.3520  178.4750  141.9720 C   0  0  0  0  0  0  0  0  0  0  0  0
  186.8210  178.6230  143.3970 C   0  0  2  0  0  3  0  0  0  0  0  0
  188.4300  177.5860  145.0930 C   0  0  0  0  0  0  0  0  0  0  0  0
  187.4110  177.6820  146.0600 C   0  0  0  0  0  0  0  0  0  0  0  0
  187.7090  177.4120  147.3960 C   0  0  0  0  0  3  0  0  0  0  0  0
  186.0200  177.9850  145.6570 C   0  0  0  0  0  3  0  0  0  0  0  0
  185.0590  178.5940  141.6590 C   0  0  0  0  0  3  0  0  0  0  0  0
  182.1200  178.5690  140.9990 C   0  0  0  0  0  2  0  0  0  0  0  0
  181.5680  179.2610  143.2590 C   0  0  0  0  0  2  0  0  0  0  0  0
  180.6690  178.7580  141.1750 C   0  0  0  0  0  0  0  0  0  0  0  0
  179.8160  178.6270  140.2580 O   0  0  0  0  0  0  0  0  0  0  0  0
  180.3410  179.1150  142.5040 N   0  0  0  0  0  0  0  0  0  0  0  0
  182.6380  178.9090  142.3210 N   0  0  0  0  0  0  0  0  0  0  0  0
  178.9320  179.2520  144.4810 C   0  0  0  0  0  1  0  0  0  0  0  0
  179.0240  179.5010  142.9860 C   0  0  0  0  0  2  0  0  0  0  0  0
  191.3530  176.5820  147.2750 C   0  0  0  0  0  2  0  0  0  0  0  0
  192.0370  175.7960  146.1700 C   0  0  0  0  0  1  0  0  0  0  0  0
  189.4930  177.5410  140.2330 O   0  0  0  0  0  0  0  0  0  0  0  0
  190.7900  177.0180  140.4920 C   0  0  0  0  0  2  0  0  0  0  0  0
  191.5350  176.7440  139.1980 C   0  0  0  0  0  2  0  0  0  0  0  0
  190.8730  173.8040  136.8050 C   0  0  0  0  0  3  0  0  0  0  0  0
  191.6300  174.7420  137.6620 C   0  0  0  0  0  0  0  0  0  0  0  0
  192.5580  173.6260  134.9570 C   0  0  0  0  0  3  0  0  0  0  0  0
  192.9310  174.7330  137.7400 N   0  0  0  0  0  0  0  0  0  0  0  0
  191.2770  173.3160  135.6240 C   0  0  0  0  0  3  0  0  0  0  0  0
  193.8090  173.7740  137.0840 C   0  0  0  0  0  2  0  0  0  0  0  0
  190.8840  175.6760  138.4480 N   0  0  0  0  0  2  0  0  0  0  0  0
  193.6960  173.8770  135.6010 C   0  0  0  0  0  3  0  0  0  0  0  0
  1 13  1  0  0  0  0
  2  9  2  0  0  0  0
  2 11  1  0  0  0  0
  4  1  2  0  0  0  0
  5  8  1  0  0  0  0
  6 26  1  0  0  0  0
  6  3  2  0  0  0  0
  7  6  1  0  0  0  0
  8 16  2  0  0  0  0
  9  4  1  0  0  0  0
 10  5  2  0  0  0  0
 12 11  1  6  0  0  0
 12  1  1  0  0  0  0
 12  8  1  0  0  0  0
 13  7  2  0  0  0  0
 13 14  1  0  0  0  0
 14 15  2  0  0  0  0
 15  3  1  0  0  0  0
 16 14  1  0  0  0  0
 17 11  2  0  0  0  0
 17 10  1  0  0  0  0
 18 20  1  0  0  0  0
 18 23  1  0  0  0  0
 20 22  1  0  0  0  0
 21 20  2  0  0  0  0
 22 25  1  0  0  0  0
 22 19  1  0  0  0  0
 23 10  1  0  0  0  0
 23 19  1  0  0  0  0
 25 24  1  0  0  0  0
 27 26  1  0  0  0  0
 28 29  1  0  0  0  0
 28  9  1  0  0  0  0
 30 29  1  0  0  0  0
 31 32  1  0  0  0  0
 32 34  2  0  0  0  0
 32 37  1  0  0  0  0
 33 38  2  0  0  0  0
 33 35  1  0  0  0  0
 35 31  2  0  0  0  0
 36 34  1  0  0  0  0
 37 30  1  0  0  0  0
 38 36  1  0  0  0  0
M  END
>  <MODEL>
3

>  <REMARK>
 VINA RESULT:      -9.7      1.743      2.672
  Name = 
  7 active torsions:
  status: ('A' for Active; 'I' for Inactive)
    1  A    between atoms: C_6  and  C_11
    2  A    between atoms: C_9  and  N_21
    3  A    between atoms: C_9  and  C_24
    4  A    between atoms: O_14  and  C_24
    5  A    between atoms: O_14  and  C_25
    6  A    between atoms: N_19  and  C_38
    7  A    between atoms: C_26  and  N_29
                            x       y       z     vdW  Elec       q    Type
                         _______ _______ _______ _____ _____    ______ ____

>  <TORSDO>
F 7

$$$$
=
 OpenBabel10222421023D

 38 43  0  0  1  0  0  0  0  0999 V2000
  187.8740  177.8860  144.0240 C   0  0  0  0  0  0  0  0  0  0  0  0
  186.9950  178.2100  141.3040 C   0  0  0  0  0  3  0  0  0  0  0  0
  188.9570  177.1600  148.0610 N   0  0  0  0  0  0  0  0  0  0  0  0
  188.6600  177.5660  142.9860 C   0  0  0  0  0  3  0  0  0  0  0  0
  184.1120  178.5280  144.5170 C   0  0  0  0  0  3  0  0  0  0  0  0
  189.9220  177.0710  147.1020 C   0  0  0  0  0  0  0  0  0  0  0  0
  189.5970  177.3010  145.7630 C   0  0  0  0  0  3  0  0  0  0  0  0
  185.5320  178.3350  144.8550 C   0  0  0  0  0  0  0  0  0  0  0  0
  188.2370  177.7990  141.5800 C   0  0  0  0  0  0  0  0  0  0  0  0
  183.7290  178.6620  143.2370 C   0  0  0  0  0  0  0  0  0  0  0  0
  186.0390  178.4500  142.3950 C   0  0  0  0  0  0  0  0  0  0  0  0
  186.5710  178.6200  143.7950 C   0  0  2  0  0  3  0  0  0  0  0  0
  188.2780  177.6300  145.4220 C   0  0  0  0  0  0  0  0  0  0  0  0
  187.3030  177.7170  146.4350 C   0  0  0  0  0  0  0  0  0  0  0  0
  187.6690  177.4670  147.7580 C   0  0  0  0  0  3  0  0  0  0  0  0
  185.8900  177.9910  146.0960 C   0  0  0  0  0  3  0  0  0  0  0  0
  184.7300  178.5430  142.1420 C   0  0  0  0  0  3  0  0  0  0  0  0
  181.2800  178.8740  143.9200 C   0  0  0  0  0  2  0  0  0  0  0  0
  181.8440  179.1520  141.5750 C   0  0  0  0  0  2  0  0  0  0  0  0
  180.1010  179.2350  143.1120 C   0  0  0  0  0  0  0  0  0  0  0  0
  178.9310  179.3400  143.5650 O   0  0  0  0  0  0  0  0  0  0  0  0
  180.4360  179.4430  141.7530 N   0  0  0  0  0  0  0  0  0  0  0  0
  182.3380  178.8200  142.9150 N   0  0  0  0  0  0  0  0  0  0  0  0
  179.9800  180.8460  139.8200 C   0  0  0  0  0  1  0  0  0  0  0  0
  179.4980  179.6810  140.6680 C   0  0  0  0  0  2  0  0  0  0  0  0
  191.3180  176.7010  147.4730 C   0  0  0  0  0  2  0  0  0  0  0  0
  191.9740  175.9430  146.3320 C   0  0  0  0  0  1  0  0  0  0  0  0
  189.1110  177.5550  140.5180 O   0  0  0  0  0  0  0  0  0  0  0  0
  190.3040  176.7970  140.6780 C   0  0  0  0  0  2  0  0  0  0  0  0
  191.1160  176.7830  139.3960 C   0  0  0  0  0  2  0  0  0  0  0  0
  191.3750  173.8600  136.9070 C   0  0  0  0  0  3  0  0  0  0  0  0
  191.8100  174.9680  137.7840 C   0  0  0  0  0  0  0  0  0  0  0  0
  192.9690  174.2950  135.0220 C   0  0  0  0  0  3  0  0  0  0  0  0
  193.0460  175.3810  137.8370 N   0  0  0  0  0  0  0  0  0  0  0  0
  191.8790  173.5650  135.7010 C   0  0  0  0  0  3  0  0  0  0  0  0
  194.1670  174.7800  137.1280 C   0  0  0  0  0  2  0  0  0  0  0  0
  190.8260  175.5840  138.6180 N   0  0  0  0  0  2  0  0  0  0  0  0
  193.9830  174.8850  135.6530 C   0  0  0  0  0  3  0  0  0  0  0  0
  1 13  1  0  0  0  0
  2  9  2  0  0  0  0
  2 11  1  0  0  0  0
  4  1  2  0  0  0  0
  5  8  1  0  0  0  0
  6 26  1  0  0  0  0
  6  3  2  0  0  0  0
  7  6  1  0  0  0  0
  8 16  2  0  0  0  0
  9  4  1  0  0  0  0
 10  5  2  0  0  0  0
 12 11  1  6  0  0  0
 12  1  1  0  0  0  0
 12  8  1  0  0  0  0
 13  7  2  0  0  0  0
 13 14  1  0  0  0  0
 14 15  2  0  0  0  0
 15  3  1  0  0  0  0
 16 14  1  0  0  0  0
 17 11  2  0  0  0  0
 17 10  1  0  0  0  0
 19 22  1  0  0  0  0
 19 23  1  0  0  0  0
 20 21  2  0  0  0  0
 20 18  1  0  0  0  0
 22 20  1  0  0  0  0
 23 10  1  0  0  0  0
 23 18  1  0  0  0  0
 24 25  1  0  0  0  0
 25 22  1  0  0  0  0
 27 26  1  0  0  0  0
 28 29  1  0  0  0  0
 28  9  1  0  0  0  0
 30 29  1  0  0  0  0
 31 32  1  0  0  0  0
 32 34  2  0  0  0  0
 32 37  1  0  0  0  0
 33 38  2  0  0  0  0
 33 35  1  0  0  0  0
 35 31  2  0  0  0  0
 36 34  1  0  0  0  0
 37 30  1  0  0  0  0
 38 36  1  0  0  0  0
M  END
>  <MODEL>
4

>  <REMARK>
 VINA RESULT:      -9.7      1.945      2.977
  Name = 
  7 active torsions:
  status: ('A' for Active; 'I' for Inactive)
    1  A    between atoms: C_6  and  C_11
    2  A    between atoms: C_9  and  N_21
    3  A    between atoms: C_9  and  C_24
    4  A    between atoms: O_14  and  C_24
    5  A    between atoms: O_14  and  C_25
    6  A    between atoms: N_19  and  C_38
    7  A    between atoms: C_26  and  N_29
                            x       y       z     vdW  Elec       q    Type
                         _______ _______ _______ _____ _____    ______ ____

>  <TORSDO>
F 7

$$$$
=
 OpenBabel10222421023D

 38 43  0  0  1  0  0  0  0  0999 V2000
  183.6730  178.7110  141.4210 C   0  0  0  0  0  0  0  0  0  0  0  0
  186.4760  178.3150  140.9110 C   0  0  0  0  0  3  0  0  0  0  0  0
  179.6230  179.5540  142.3590 N   0  0  0  0  0  0  0  0  0  0  0  0
  184.2130  178.9540  140.2180 C   0  0  0  0  0  3  0  0  0  0  0  0
  185.0340  178.2540  144.9920 C   0  0  0  0  0  3  0  0  0  0  0  0
  180.0030  179.5610  141.0490 C   0  0  0  0  0  0  0  0  0  0  0  0
  181.3310  179.2910  140.7080 C   0  0  0  0  0  3  0  0  0  0  0  0
  184.0600  178.3990  143.8980 C   0  0  0  0  0  0  0  0  0  0  0  0
  185.6450  178.6820  139.9310 C   0  0  0  0  0  0  0  0  0  0  0  0
  186.3390  178.0860  144.7240 C   0  0  0  0  0  0  0  0  0  0  0  0
  185.9740  178.1620  142.2850 C   0  0  0  0  0  0  0  0  0  0  0  0
  184.4880  178.0250  142.4960 C   0  0  2  0  0  3  0  0  0  0  0  0
  182.2570  179.0060  141.7210 C   0  0  0  0  0  0  0  0  0  0  0  0
  181.8340  179.0030  143.0640 C   0  0  0  0  0  0  0  0  0  0  0  0
  180.5010  179.2910  143.3610 C   0  0  0  0  0  3  0  0  0  0  0  0
  182.8050  178.7770  144.1570 C   0  0  0  0  0  3  0  0  0  0  0  0
  186.8220  178.1160  143.3160 C   0  0  0  0  0  3  0  0  0  0  0  0
  186.9570  178.2530  147.1940 C   0  0  0  0  0  2  0  0  0  0  0  0
  188.6170  177.3770  145.6540 C   0  0  0  0  0  2  0  0  0  0  0  0
  188.1760  177.8130  147.8960 C   0  0  0  0  0  0  0  0  0  0  0  0
  188.3630  177.9190  149.1360 O   0  0  0  0  0  0  0  0  0  0  0  0
  189.1260  177.2590  147.0050 N   0  0  0  0  0  0  0  0  0  0  0  0
  187.2860  177.9750  145.7990 N   0  0  0  0  0  0  0  0  0  0  0  0
  191.3210  176.7670  146.0830 C   0  0  0  0  0  1  0  0  0  0  0  0
  190.4800  176.8510  147.3450 C   0  0  0  0  0  2  0  0  0  0  0  0
  179.0140  179.8850  139.9820 C   0  0  0  0  0  2  0  0  0  0  0  0
  179.6720  179.7780  138.6170 C   0  0  0  0  0  1  0  0  0  0  0  0
  186.1620  178.8440  138.6430 O   0  0  0  0  0  0  0  0  0  0  0  0
  187.0720  177.9130  138.0710 C   0  0  0  0  0  2  0  0  0  0  0  0
  188.2840  178.6220  137.4920 C   0  0  0  0  0  2  0  0  0  0  0  0
  191.3930  176.3730  137.7770 C   0  0  0  0  0  3  0  0  0  0  0  0
  190.2500  177.2080  138.2050 C   0  0  0  0  0  0  0  0  0  0  0  0
  193.0260  177.1470  139.5140 C   0  0  0  0  0  3  0  0  0  0  0  0
  190.0310  177.5160  139.4530 N   0  0  0  0  0  0  0  0  0  0  0  0
  192.6060  176.3460  138.3470 C   0  0  0  0  0  3  0  0  0  0  0  0
  190.8040  177.0340  140.5890 C   0  0  0  0  0  2  0  0  0  0  0  0
  189.3450  177.6660  137.1970 N   0  0  0  0  0  2  0  0  0  0  0  0
  192.2170  177.5020  140.5100 C   0  0  0  0  0  3  0  0  0  0  0  0
  1 13  1  0  0  0  0
  2 11  1  0  0  0  0
  3 15  1  0  0  0  0
  4  1  2  0  0  0  0
  6  3  2  0  0  0  0
  7  6  1  0  0  0  0
  7 13  2  0  0  0  0
  8 16  2  0  0  0  0
  8  5  1  0  0  0  0
  9  4  1  0  0  0  0
  9  2  2  0  0  0  0
 10  5  2  0  0  0  0
 10 23  1  0  0  0  0
 11 12  1  0  0  0  0
 11 17  2  0  0  0  0
 12  1  1  6  0  0  0
 12  8  1  0  0  0  0
 13 14  1  0  0  0  0
 14 15  2  0  0  0  0
 14 16  1  0  0  0  0
 17 10  1  0  0  0  0
 18 20  1  0  0  0  0
 19 23  1  0  0  0  0
 19 22  1  0  0  0  0
 20 21  2  0  0  0  0
 22 25  1  0  0  0  0
 22 20  1  0  0  0  0
 23 18  1  0  0  0  0
 24 25  1  0  0  0  0
 26  6  1  0  0  0  0
 27 26  1  0  0  0  0
 28  9  1  0  0  0  0
 29 28  1  0  0  0  0
 30 29  1  0  0  0  0
 31 32  1  0  0  0  0
 31 35  2  0  0  0  0
 32 34  2  0  0  0  0
 33 38  2  0  0  0  0
 34 36  1  0  0  0  0
 35 33  1  0  0  0  0
 37 30  1  0  0  0  0
 37 32  1  0  0  0  0
 38 36  1  0  0  0  0
M  END
>  <MODEL>
5

>  <REMARK>
 VINA RESULT:      -9.4      2.095      7.546
  Name = 
  7 active torsions:
  status: ('A' for Active; 'I' for Inactive)
    1  A    between atoms: C_6  and  C_11
    2  A    between atoms: C_9  and  N_21
    3  A    between atoms: C_9  and  C_24
    4  A    between atoms: O_14  and  C_24
    5  A    between atoms: O_14  and  C_25
    6  A    between atoms: N_19  and  C_38
    7  A    between atoms: C_26  and  N_29
                            x       y       z     vdW  Elec       q    Type
                         _______ _______ _______ _____ _____    ______ ____

>  <TORSDO>
F 7

$$$$
=
 OpenBabel10222421023D

 38 43  0  0  1  0  0  0  0  0999 V2000
  183.8310  178.6810  141.4690 C   0  0  0  0  0  0  0  0  0  0  0  0
  186.6430  178.3190  140.9840 C   0  0  0  0  0  3  0  0  0  0  0  0
  179.7620  179.4760  142.3670 N   0  0  0  0  0  0  0  0  0  0  0  0
  184.3760  178.9210  140.2670 C   0  0  0  0  0  3  0  0  0  0  0  0
  185.1690  178.2720  145.0540 C   0  0  0  0  0  3  0  0  0  0  0  0
  180.1520  179.4770  141.0610 C   0  0  0  0  0  0  0  0  0  0  0  0
  181.4860  179.2220  140.7320 C   0  0  0  0  0  3  0  0  0  0  0  0
  184.2020  178.3940  143.9510 C   0  0  0  0  0  0  0  0  0  0  0  0
  185.8150  178.6670  139.9940 C   0  0  0  0  0  0  0  0  0  0  0  0
  186.4780  178.1190  144.7980 C   0  0  0  0  0  0  0  0  0  0  0  0
  186.1320  178.1700  142.3550 C   0  0  0  0  0  0  0  0  0  0  0  0
  184.6460  178.0150  142.5560 C   0  0  2  0  0  3  0  0  0  0  0  0
  182.4080  178.9580  141.7550 C   0  0  0  0  0  0  0  0  0  0  0  0
  181.9740  178.9610  143.0940 C   0  0  0  0  0  0  0  0  0  0  0  0
  180.6360  179.2330  143.3780 C   0  0  0  0  0  3  0  0  0  0  0  0
  182.9400  178.7570  144.1960 C   0  0  0  0  0  3  0  0  0  0  0  0
  186.9720  178.1440  143.3930 C   0  0  0  0  0  3  0  0  0  0  0  0
  187.0710  178.3040  147.2720 C   0  0  0  0  0  2  0  0  0  0  0  0
  188.7620  177.4600  145.7490 C   0  0  0  0  0  2  0  0  0  0  0  0
  188.2930  177.8910  147.9850 C   0  0  0  0  0  0  0  0  0  0  0  0
  188.4670  178.0030  149.2270 O   0  0  0  0  0  0  0  0  0  0  0  0
  189.2620  177.3550  147.1040 N   0  0  0  0  0  0  0  0  0  0  0  0
  187.4180  178.0300  145.8800 N   0  0  0  0  0  0  0  0  0  0  0  0
  191.4070  176.6590  146.1960 C   0  0  0  0  0  1  0  0  0  0  0  0
  190.6210  176.9760  147.4560 C   0  0  0  0  0  2  0  0  0  0  0  0
  179.1680  179.7780  139.9820 C   0  0  0  0  0  2  0  0  0  0  0  0
  179.8010  180.6830  138.9400 C   0  0  0  0  0  1  0  0  0  0  0  0
  186.3400  178.8250  138.7090 O   0  0  0  0  0  0  0  0  0  0  0  0
  187.2860  177.9150  138.1610 C   0  0  0  0  0  2  0  0  0  0  0  0
  186.7450  177.2600  136.9030 C   0  0  0  0  0  2  0  0  0  0  0  0
  183.6280  175.1290  137.6470 C   0  0  0  0  0  3  0  0  0  0  0  0
  184.4430  176.2460  137.1210 C   0  0  0  0  0  0  0  0  0  0  0  0
  181.6400  176.4850  138.3500 C   0  0  0  0  0  3  0  0  0  0  0  0
  183.9180  177.2890  136.5410 N   0  0  0  0  0  0  0  0  0  0  0  0
  182.4040  175.2320  138.1840 C   0  0  0  0  0  3  0  0  0  0  0  0
  182.5020  177.4720  136.2540 C   0  0  0  0  0  2  0  0  0  0  0  0
  185.8640  176.1480  137.2420 N   0  0  0  0  0  2  0  0  0  0  0  0
  181.7060  177.5190  137.5140 C   0  0  0  0  0  3  0  0  0  0  0  0
  1 13  1  0  0  0  0
  2 11  1  0  0  0  0
  3 15  1  0  0  0  0
  4  1  2  0  0  0  0
  6  3  2  0  0  0  0
  7  6  1  0  0  0  0
  7 13  2  0  0  0  0
  8 16  2  0  0  0  0
  8  5  1  0  0  0  0
  9  4  1  0  0  0  0
  9  2  2  0  0  0  0
 10  5  2  0  0  0  0
 10 23  1  0  0  0  0
 11 12  1  0  0  0  0
 11 17  2  0  0  0  0
 12  1  1  6  0  0  0
 12  8  1  0  0  0  0
 13 14  1  0  0  0  0
 14 15  2  0  0  0  0
 14 16  1  0  0  0  0
 17 10  1  0  0  0  0
 18 20  1  0  0  0  0
 19 23  1  0  0  0  0
 19 22  1  0  0  0  0
 20 21  2  0  0  0  0
 22 25  1  0  0  0  0
 22 20  1  0  0  0  0
 23 18  1  0  0  0  0
 24 25  1  0  0  0  0
 26  6  1  0  0  0  0
 27 26  1  0  0  0  0
 28  9  1  0  0  0  0
 29 28  1  0  0  0  0
 30 37  1  0  0  0  0
 30 29  1  0  0  0  0
 31 35  2  0  0  0  0
 32 37  1  0  0  0  0
 32 31  1  0  0  0  0
 34 32  2  0  0  0  0
 35 33  1  0  0  0  0
 36 34  1  0  0  0  0
 36 38  1  0  0  0  0
 38 33  2  0  0  0  0
M  END
>  <MODEL>
6

>  <REMARK>
 VINA RESULT:      -9.3      2.542      7.508
  Name = 
  7 active torsions:
  status: ('A' for Active; 'I' for Inactive)
    1  A    between atoms: C_6  and  C_11
    2  A    between atoms: C_9  and  N_21
    3  A    between atoms: C_9  and  C_24
    4  A    between atoms: O_14  and  C_24
    5  A    between atoms: O_14  and  C_25
    6  A    between atoms: N_19  and  C_38
    7  A    between atoms: C_26  and  N_29
                            x       y       z     vdW  Elec       q    Type
                         _______ _______ _______ _____ _____    ______ ____

>  <TORSDO>
F 7

$$$$
=
 OpenBabel10222421023D

 38 43  0  0  1  0  0  0  0  0999 V2000
  187.4340  178.2180  142.7970 C   0  0  0  0  0  0  0  0  0  0  0  0
  187.5780  178.4220  139.9310 C   0  0  0  0  0  3  0  0  0  0  0  0
  187.0270  177.6560  146.9820 N   0  0  0  0  0  0  0  0  0  0  0  0
  188.5560  177.9220  142.1240 C   0  0  0  0  0  3  0  0  0  0  0  0
  183.7200  178.6380  141.8820 C   0  0  0  0  0  3  0  0  0  0  0  0
  188.2750  177.6040  146.4370 C   0  0  0  0  0  0  0  0  0  0  0  0
  188.4430  177.7820  145.0610 C   0  0  0  0  0  3  0  0  0  0  0  0
  184.9310  178.5410  142.7140 C   0  0  0  0  0  0  0  0  0  0  0  0
  188.6560  178.0950  140.6510 C   0  0  0  0  0  0  0  0  0  0  0  0
  183.8170  178.7170  140.5450 C   0  0  0  0  0  0  0  0  0  0  0  0
  186.2820  178.6280  140.5950 C   0  0  0  0  0  0  0  0  0  0  0  0
  186.2670  178.8650  142.0840 C   0  0  2  0  0  3  0  0  0  0  0  0
  187.3200  178.0210  144.2570 C   0  0  0  0  0  0  0  0  0  0  0  0
  186.0430  178.0720  144.8490 C   0  0  0  0  0  0  0  0  0  0  0  0
  185.9200  177.8760  146.2250 C   0  0  0  0  0  3  0  0  0  0  0  0
  184.8350  178.2500  144.0140 C   0  0  0  0  0  3  0  0  0  0  0  0
  185.1500  178.6340  139.8870 C   0  0  0  0  0  3  0  0  0  0  0  0
  181.3220  178.3130  140.1930 C   0  0  0  0  0  2  0  0  0  0  0  0
  182.5450  179.5050  138.4680 C   0  0  0  0  0  2  0  0  0  0  0  0
  180.4340  178.7710  139.1100 C   0  0  0  0  0  0  0  0  0  0  0  0
  179.1980  178.5350  139.0540 O   0  0  0  0  0  0  0  0  0  0  0  0
  181.1360  179.5070  138.1270 N   0  0  0  0  0  0  0  0  0  0  0  0
  182.6290  178.7820  139.7400 N   0  0  0  0  0  0  0  0  0  0  0  0
  180.7250  181.4990  136.7960 C   0  0  0  0  0  1  0  0  0  0  0  0
  180.5930  179.9880  136.8680 C   0  0  0  0  0  2  0  0  0  0  0  0
  189.4610  177.3310  147.2980 C   0  0  0  0  0  2  0  0  0  0  0  0
  189.4460  178.2490  148.5070 C   0  0  0  0  0  1  0  0  0  0  0  0
  189.8640  177.8800  139.9840 O   0  0  0  0  0  0  0  0  0  0  0  0
  190.5550  176.6390  140.0500 C   0  0  0  0  0  2  0  0  0  0  0  0
  190.9330  176.1510  138.6630 C   0  0  0  0  0  2  0  0  0  0  0  0
  187.7170  175.1490  136.8020 C   0  0  0  0  0  3  0  0  0  0  0  0
  188.8770  175.9720  137.2090 C   0  0  0  0  0  0  0  0  0  0  0  0
  186.0450  177.0080  136.6310 C   0  0  0  0  0  3  0  0  0  0  0  0
  189.0530  177.1950  136.7930 N   0  0  0  0  0  0  0  0  0  0  0  0
  186.4810  175.5990  136.5490 C   0  0  0  0  0  3  0  0  0  0  0  0
  188.2100  177.8880  135.8280 C   0  0  0  0  0  2  0  0  0  0  0  0
  189.8440  175.3770  138.0770 N   0  0  0  0  0  2  0  0  0  0  0  0
  186.8240  178.0510  136.3520 C   0  0  0  0  0  3  0  0  0  0  0  0
  1 13  1  0  0  0  0
  2 11  1  0  0  0  0
  2  9  2  0  0  0  0
  4  1  2  0  0  0  0
  5  8  1  0  0  0  0
  6  3  1  0  0  0  0
  6 26  1  0  0  0  0
  7  6  2  0  0  0  0
  8 16  2  0  0  0  0
  9  4  1  0  0  0  0
 10  5  2  0  0  0  0
 12 11  1  6  0  0  0
 12  8  1  0  0  0  0
 12  1  1  0  0  0  0
 13 14  2  0  0  0  0
 13  7  1  0  0  0  0
 14 15  1  0  0  0  0
 15  3  2  0  0  0  0
 16 14  1  0  0  0  0
 17 10  1  0  0  0  0
 17 11  2  0  0  0  0
 19 23  1  0  0  0  0
 20 18  1  0  0  0  0
 21 20  2  0  0  0  0
 22 19  1  0  0  0  0
 22 20  1  0  0  0  0
 23 18  1  0  0  0  0
 23 10  1  0  0  0  0
 24 25  1  0  0  0  0
 25 22  1  0  0  0  0
 26 27  1  0  0  0  0
 28 29  1  0  0  0  0
 28  9  1  0  0  0  0
 30 29  1  0  0  0  0
 31 32  1  0  0  0  0
 32 37  1  0  0  0  0
 34 32  2  0  0  0  0
 35 33  1  0  0  0  0
 35 31  2  0  0  0  0
 36 38  1  0  0  0  0
 36 34  1  0  0  0  0
 37 30  1  0  0  0  0
 38 33  2  0  0  0  0
M  END
>  <MODEL>
7

>  <REMARK>
 VINA RESULT:      -9.3      1.716      2.484
  Name = 
  7 active torsions:
  status: ('A' for Active; 'I' for Inactive)
    1  A    between atoms: C_6  and  C_11
    2  A    between atoms: C_9  and  N_21
    3  A    between atoms: C_9  and  C_24
    4  A    between atoms: O_14  and  C_24
    5  A    between atoms: O_14  and  C_25
    6  A    between atoms: N_19  and  C_38
    7  A    between atoms: C_26  and  N_29
                            x       y       z     vdW  Elec       q    Type
                         _______ _______ _______ _____ _____    ______ ____

>  <TORSDO>
F 7

$$$$
=
 OpenBabel10222421023D

 38 43  0  0  1  0  0  0  0  0999 V2000
  188.6440  177.6410  143.2380 C   0  0  0  0  0  0  0  0  0  0  0  0
  187.4920  178.2120  140.6650 C   0  0  0  0  0  3  0  0  0  0  0  0
  190.5860  177.0030  146.9550 N   0  0  0  0  0  0  0  0  0  0  0  0
  187.5220  178.3650  143.1120 C   0  0  0  0  0  3  0  0  0  0  0  0
  191.4870  176.5590  140.8810 C   0  0  0  0  0  3  0  0  0  0  0  0
  189.3160  177.4990  146.9610 C   0  0  0  0  0  0  0  0  0  0  0  0
  188.6500  177.7230  145.7540 C   0  0  0  0  0  3  0  0  0  0  0  0
  190.7260  176.7390  142.1280 C   0  0  0  0  0  0  0  0  0  0  0  0
  186.8850  178.6020  141.7910 C   0  0  0  0  0  0  0  0  0  0  0  0
  190.9290  176.8490  139.6950 C   0  0  0  0  0  0  0  0  0  0  0  0
  188.7930  177.5300  140.7270 C   0  0  0  0  0  0  0  0  0  0  0  0
  189.2280  176.9270  142.0390 C   0  0  2  0  0  3  0  0  0  0  0  0
  189.2970  177.4260  144.5460 C   0  0  0  0  0  0  0  0  0  0  0  0
  190.6080  176.9120  144.5720 C   0  0  0  0  0  0  0  0  0  0  0  0
  191.2410  176.7160  145.8000 C   0  0  0  0  0  3  0  0  0  0  0  0
  191.3400  176.6580  143.3120 C   0  0  0  0  0  3  0  0  0  0  0  0
  189.5570  177.4230  139.6360 C   0  0  0  0  0  3  0  0  0  0  0  0
  193.1490  176.6530  138.4520 C   0  0  0  0  0  2  0  0  0  0  0  0
  191.0980  176.3680  137.1860 C   0  0  0  0  0  2  0  0  0  0  0  0
  193.4180  176.2980  137.0470 C   0  0  0  0  0  0  0  0  0  0  0  0
  194.5680  176.2010  136.5440 O   0  0  0  0  0  0  0  0  0  0  0  0
  192.2240  176.0850  136.3190 N   0  0  0  0  0  0  0  0  0  0  0  0
  191.6900  176.6980  138.4850 N   0  0  0  0  0  0  0  0  0  0  0  0
  192.1530  174.3590  134.6090 C   0  0  0  0  0  1  0  0  0  0  0  0
  192.1250  175.8520  134.8870 C   0  0  0  0  0  2  0  0  0  0  0  0
  188.6450  177.8310  148.2500 C   0  0  0  0  0  2  0  0  0  0  0  0
  187.2360  178.3320  147.9870 C   0  0  0  0  0  1  0  0  0  0  0  0
  185.6630  179.2710  141.6930 O   0  0  0  0  0  0  0  0  0  0  0  0
  184.4270  178.5770  141.5870 C   0  0  0  0  0  2  0  0  0  0  0  0
  183.7390  178.8880  140.2700 C   0  0  0  0  0  2  0  0  0  0  0  0
  186.1430  178.4950  137.2920 C   0  0  0  0  0  3  0  0  0  0  0  0
  185.0140  178.2040  138.2010 C   0  0  0  0  0  0  0  0  0  0  0  0
  186.8540  176.1240  136.8920 C   0  0  0  0  0  3  0  0  0  0  0  0
  184.2740  177.1370  138.0870 N   0  0  0  0  0  0  0  0  0  0  0  0
  186.9470  177.5880  136.7200 C   0  0  0  0  0  3  0  0  0  0  0  0
  184.3860  176.1410  137.0300 C   0  0  0  0  0  2  0  0  0  0  0  0
  184.7230  179.1560  139.2270 N   0  0  0  0  0  2  0  0  0  0  0  0
  185.7130  175.4630  137.0760 C   0  0  0  0  0  3  0  0  0  0  0  0
  1 13  1  0  0  0  0
  2 11  1  0  0  0  0
  2  9  2  0  0  0  0
  3  6  1  0  0  0  0
  4  1  2  0  0  0  0
  5  8  1  0  0  0  0
  6 26  1  0  0  0  0
  7  6  2  0  0  0  0
  8 16  2  0  0  0  0
  9  4  1  0  0  0  0
 10  5  2  0  0  0  0
 12 11  1  6  0  0  0
 12  8  1  0  0  0  0
 12  1  1  0  0  0  0
 13 14  2  0  0  0  0
 13  7  1  0  0  0  0
 14 15  1  0  0  0  0
 15  3  2  0  0  0  0
 16 14  1  0  0  0  0
 17 10  1  0  0  0  0
 17 11  2  0  0  0  0
 18 23  1  0  0  0  0
 19 23  1  0  0  0  0
 20 18  1  0  0  0  0
 21 20  2  0  0  0  0
 22 20  1  0  0  0  0
 22 19  1  0  0  0  0
 23 10  1  0  0  0  0
 24 25  1  0  0  0  0
 25 22  1  0  0  0  0
 27 26  1  0  0  0  0
 28  9  1  0  0  0  0
 29 28  1  0  0  0  0
 30 29  1  0  0  0  0
 31 32  1  0  0  0  0
 32 37  1  0  0  0  0
 33 38  2  0  0  0  0
 34 32  2  0  0  0  0
 35 33  1  0  0  0  0
 35 31  2  0  0  0  0
 36 38  1  0  0  0  0
 36 34  1  0  0  0  0
 37 30  1  0  0  0  0
M  END
>  <MODEL>
8

>  <REMARK>
 VINA RESULT:      -9.2      2.540      7.341
  Name = 
  7 active torsions:
  status: ('A' for Active; 'I' for Inactive)
    1  A    between atoms: C_6  and  C_11
    2  A    between atoms: C_9  and  N_21
    3  A    between atoms: C_9  and  C_24
    4  A    between atoms: O_14  and  C_24
    5  A    between atoms: O_14  and  C_25
    6  A    between atoms: N_19  and  C_38
    7  A    between atoms: C_26  and  N_29
                            x       y       z     vdW  Elec       q    Type
                         _______ _______ _______ _____ _____    ______ ____

>  <TORSDO>
F 7

$$$$
=
 OpenBabel10222421023D

 38 43  0  0  1  0  0  0  0  0999 V2000
  184.5420  178.6550  142.8640 C   0  0  0  0  0  0  0  0  0  0  0  0
  187.0670  178.0920  144.1230 C   0  0  0  0  0  3  0  0  0  0  0  0
  180.8480  179.1980  140.8510 N   0  0  0  0  0  0  0  0  0  0  0  0
  184.6290  178.3580  144.1690 C   0  0  0  0  0  3  0  0  0  0  0  0
  186.8410  178.2530  139.8030 C   0  0  0  0  0  3  0  0  0  0  0  0
  180.8510  179.1860  142.2140 C   0  0  0  0  0  0  0  0  0  0  0  0
  182.0510  179.0060  142.9070 C   0  0  0  0  0  3  0  0  0  0  0  0
  185.6360  178.5670  140.5890 C   0  0  0  0  0  0  0  0  0  0  0  0
  185.9380  178.1380  144.8380 C   0  0  0  0  0  0  0  0  0  0  0  0
  188.0030  177.9790  140.4190 C   0  0  0  0  0  0  0  0  0  0  0  0
  187.0240  178.2760  142.6650 C   0  0  0  0  0  0  0  0  0  0  0  0
  185.7970  178.9030  142.0540 C   0  0  2  0  0  3  0  0  0  0  0  0
  183.2430  178.8480  142.1870 C   0  0  0  0  0  0  0  0  0  0  0  0
  183.2090  178.8670  140.7790 C   0  0  0  0  0  0  0  0  0  0  0  0
  181.9870  179.0360  140.1280 C   0  0  0  0  0  3  0  0  0  0  0  0
  184.4400  178.6290  139.9950 C   0  0  0  0  0  3  0  0  0  0  0  0
  188.0640  177.9200  141.9050 C   0  0  0  0  0  3  0  0  0  0  0  0
  190.5010  177.5050  140.2180 C   0  0  0  0  0  2  0  0  0  0  0  0
  189.1170  177.2070  138.2470 C   0  0  0  0  0  2  0  0  0  0  0  0
  191.2750  176.9770  139.0810 C   0  0  0  0  0  0  0  0  0  0  0  0
  192.5140  176.7510  139.1040 O   0  0  0  0  0  0  0  0  0  0  0  0
  190.4610  176.7580  137.9450 N   0  0  0  0  0  0  0  0  0  0  0  0
  189.1660  177.6450  139.6450 N   0  0  0  0  0  0  0  0  0  0  0  0
  191.4090  174.9310  136.6510 C   0  0  0  0  0  1  0  0  0  0  0  0
  190.9230  176.3700  136.6220 C   0  0  0  0  0  2  0  0  0  0  0  0
  179.5750  179.3360  142.9700 C   0  0  0  0  0  2  0  0  0  0  0  0
  179.6790  178.6290  144.3090 C   0  0  0  0  0  1  0  0  0  0  0  0
  186.0130  177.9320  146.2170 O   0  0  0  0  0  0  0  0  0  0  0  0
  187.0330  177.1370  146.8090 C   0  0  0  0  0  2  0  0  0  0  0  0
  188.0150  177.9990  147.5820 C   0  0  0  0  0  2  0  0  0  0  0  0
  191.4210  176.3660  146.8490 C   0  0  0  0  0  3  0  0  0  0  0  0
  190.2310  177.2240  146.6560 C   0  0  0  0  0  0  0  0  0  0  0  0
  191.6830  175.6370  144.4650 C   0  0  0  0  0  3  0  0  0  0  0  0
  190.0250  177.9060  145.5650 N   0  0  0  0  0  0  0  0  0  0  0  0
  192.0550  175.6730  145.8940 C   0  0  0  0  0  3  0  0  0  0  0  0
  190.9430  177.9950  144.4380 C   0  0  0  0  0  2  0  0  0  0  0  0
  189.2930  177.3130  147.7310 N   0  0  0  0  0  2  0  0  0  0  0  0
  191.1410  176.6600  143.8060 C   0  0  0  0  0  3  0  0  0  0  0  0
  1  4  2  0  0  0  0
  2  9  2  0  0  0  0
  3  6  1  0  0  0  0
  4  9  1  0  0  0  0
  5 10  2  0  0  0  0
  5  8  1  0  0  0  0
  6  7  2  0  0  0  0
  6 26  1  0  0  0  0
  9 28  1  0  0  0  0
 10 17  1  0  0  0  0
 11  2  1  0  0  0  0
 12  8  1  6  0  0  0
 12 11  1  0  0  0  0
 12  1  1  0  0  0  0
 13  1  1  0  0  0  0
 13  7  1  0  0  0  0
 14 13  2  0  0  0  0
 15 14  1  0  0  0  0
 15  3  2  0  0  0  0
 16  8  2  0  0  0  0
 16 14  1  0  0  0  0
 17 11  2  0  0  0  0
 19 23  1  0  0  0  0
 20 21  2  0  0  0  0
 20 18  1  0  0  0  0
 22 19  1  0  0  0  0
 22 20  1  0  0  0  0
 23 18  1  0  0  0  0
 23 10  1  0  0  0  0
 25 24  1  0  0  0  0
 25 22  1  0  0  0  0
 26 27  1  0  0  0  0
 28 29  1  0  0  0  0
 29 30  1  0  0  0  0
 30 37  1  0  0  0  0
 32 31  1  0  0  0  0
 32 37  1  0  0  0  0
 33 35  1  0  0  0  0
 34 32  2  0  0  0  0
 35 31  2  0  0  0  0
 36 34  1  0  0  0  0
 38 36  1  0  0  0  0
 38 33  2  0  0  0  0
M  END
>  <MODEL>
9

>  <REMARK>
 VINA RESULT:      -9.1      2.044      8.708
  Name = 
  7 active torsions:
  status: ('A' for Active; 'I' for Inactive)
    1  A    between atoms: C_6  and  C_11
    2  A    between atoms: C_9  and  N_21
    3  A    between atoms: C_9  and  C_24
    4  A    between atoms: O_14  and  C_24
    5  A    between atoms: O_14  and  C_25
    6  A    between atoms: N_19  and  C_38
    7  A    between atoms: C_26  and  N_29
                            x       y       z     vdW  Elec       q    Type
                         _______ _______ _______ _____ _____    ______ ____

>  <TORSDO>
F 7

$$$$
