=
 OpenBabel10222415293D

 31 34  0  0  1  0  0  0  0  0999 V2000
  183.6670  179.1570  145.1990 N   0  0  0  0  0  0  0  0  0  0  0  0
  186.2880  178.0130  144.0160 C   0  0  0  0  0  0  0  0  0  0  0  0
  187.5340  177.4090  143.8260 C   0  0  0  0  0  3  0  0  0  0  0  0
  187.6460  178.2280  141.5520 C   0  0  0  0  0  0  0  0  0  0  0  0
  184.7480  178.8620  145.8470 C   0  0  0  0  0  3  0  0  0  0  0  0
  186.3710  178.7840  141.7150 C   0  0  0  0  0  3  0  0  0  0  0  0
  185.6580  178.6420  142.9060 C   0  0  0  0  0  0  0  0  0  0  0  0
  183.3440  178.6500  143.8780 C   0  0  0  0  0  2  0  0  0  0  0  0
  188.2120  177.4720  142.6010 C   0  0  0  0  0  0  0  0  0  0  0  0
  185.8830  178.0990  145.2930 C   0  0  0  0  0  2  0  0  0  0  0  0
  184.3760  179.0120  142.8620 C   0  0  0  0  0  2  0  0  0  0  0  0
  188.3710  178.4340  140.3340 N   0  0  0  0  0  0  0  0  0  0  0  0
  187.7870  178.4920  139.2050 N   0  0  0  0  0  0  0  0  0  0  0  0
  189.8000  177.8550  138.0260 C   0  0  0  0  0  3  0  0  0  0  0  0
  189.1150  176.6550  136.0260 C   0  0  0  0  0  0  0  0  0  0  0  0
  187.6800  178.4670  136.7750 C   0  0  0  0  0  3  0  0  0  0  0  0
  188.5530  178.7080  137.9880 C   0  0  1  0  0  3  0  0  0  0  0  0
  189.3370  175.7330  135.1990 O   0  0  0  0  0  0  0  0  0  0  0  0
  190.0510  176.8980  137.1290 C   0  0  0  0  0  3  0  0  0  0  0  0
  187.9340  177.5110  135.8780 C   0  0  0  0  0  3  0  0  0  0  0  0
  189.4940  176.8220  142.4660 N   0  0  0  0  0  0  0  0  0  0  0  0
  189.6980  175.4580  142.9270 C   0  0  0  0  0  1  0  0  0  0  0  0
  190.6790  177.5780  142.0870 C   0  0  0  0  0  2  0  0  0  0  0  0
  191.7660  177.4020  143.1320 C   0  0  0  0  0  2  0  0  0  0  0  0
  191.4980  178.2940  144.2910 C   0  0  0  0  0  0  0  0  0  0  0  0
  191.1240  179.4790  144.0880 O   0  0  0  0  0  0  0  0  0  0  0  0
  191.6380  177.7960  145.5880 O   0  0  0  0  0  0  0  0  0  0  0  0
  190.6650  176.9580  146.1950 C   0  0  0  0  0  2  0  0  0  0  0  0
  189.4870  177.9120  148.1390 C   0  0  0  0  0  2  0  0  0  0  0  0
  189.4650  177.7790  146.6320 C   0  0  0  0  0  3  0  0  0  0  0  0
  188.5600  176.9140  147.4840 C   0  0  0  0  0  2  0  0  0  0  0  0
  1  5  2  0  0  0  0
  2 10  1  0  0  0  0
  3  2  1  0  0  0  0
  4  6  2  0  0  0  0
  4  9  1  0  0  0  0
  6  7  1  0  0  0  0
  7  2  2  0  0  0  0
  8  1  1  0  0  0  0
  9  3  2  0  0  0  0
 10  5  1  0  0  0  0
 11  7  1  0  0  0  0
 11  8  1  0  0  0  0
 12  4  1  0  0  0  0
 13 12  2  0  0  0  0
 15 19  1  0  0  0  0
 16 17  1  0  0  0  0
 17 14  1  0  0  0  0
 17 13  1  1  0  0  0
 18 15  2  0  0  0  0
 19 14  2  0  0  0  0
 20 15  1  0  0  0  0
 20 16  2  0  0  0  0
 21  9  1  0  0  0  0
 21 22  1  0  0  0  0
 23 21  1  0  0  0  0
 23 24  1  0  0  0  0
 24 25  1  0  0  0  0
 25 27  1  0  0  0  0
 26 25  2  0  0  0  0
 27 28  1  0  0  0  0
 28 30  1  0  0  0  0
 30 31  1  0  0  0  0
 30 29  1  0  0  0  0
 31 29  1  0  0  0  0
M  END
>  <MODEL>
1

>  <REMARK>
 VINA RESULT:      -8.7      0.000      0.000
  Name = 
  9 active torsions:
  status: ('A' for Active; 'I' for Inactive)
    1  A    between atoms: C_1  and  C_7
    2  A    between atoms: C_1  and  N_9
    3  A    between atoms: C_7  and  C_11
    4  A    between atoms: N_8  and  C_12
    5  A    between atoms: N_9  and  C_23
    6  A    between atoms: C_11  and  O_30
    7  A    between atoms: C_15  and  N_17
    8  A    between atoms: C_16  and  C_24
    9  A    between atoms: C_24  and  O_30
                            x       y       z     vdW  Elec       q    Type
                         _______ _______ _______ _____ _____    ______ ____

>  <TORSDO>
F 9

$$$$
=
 OpenBabel10222415293D

 31 34  0  0  1  0  0  0  0  0999 V2000
  190.9310  176.1220  142.0340 N   0  0  0  0  0  0  0  0  0  0  0  0
  188.1290  177.3220  142.5650 C   0  0  0  0  0  0  0  0  0  0  0  0
  186.8930  177.6780  143.1120 C   0  0  0  0  0  3  0  0  0  0  0  0
  186.1850  178.6570  141.0170 C   0  0  0  0  0  0  0  0  0  0  0  0
  190.0590  175.7060  142.8950 C   0  0  0  0  0  3  0  0  0  0  0  0
  187.4440  178.3590  140.4790 C   0  0  0  0  0  3  0  0  0  0  0  0
  188.4390  177.7500  141.2440 C   0  0  0  0  0  0  0  0  0  0  0  0
  190.9230  177.4450  141.4380 C   0  0  0  0  0  2  0  0  0  0  0  0
  185.9240  178.3720  142.3740 C   0  0  0  0  0  0  0  0  0  0  0  0
  188.8420  176.4430  143.2880 C   0  0  0  0  0  2  0  0  0  0  0  0
  189.6580  177.7270  140.6980 C   0  0  0  0  0  2  0  0  0  0  0  0
  185.1700  179.2380  140.1910 N   0  0  0  0  0  0  0  0  0  0  0  0
  184.6510  178.6070  139.2150 N   0  0  0  0  0  0  0  0  0  0  0  0
  182.8690  178.1500  137.6460 C   0  0  0  0  0  3  0  0  0  0  0  0
  180.7810  178.7620  138.7290 C   0  0  0  0  0  0  0  0  0  0  0  0
  182.7360  180.1050  139.2570 C   0  0  0  0  0  3  0  0  0  0  0  0
  183.6190  179.2250  138.3990 C   0  0  1  0  0  3  0  0  0  0  0  0
  179.5560  178.5330  138.9060 O   0  0  0  0  0  0  0  0  0  0  0  0
  181.5630  177.9280  137.8100 C   0  0  0  0  0  3  0  0  0  0  0  0
  181.4280  179.8820  139.4180 C   0  0  0  0  0  3  0  0  0  0  0  0
  184.6690  178.7150  142.9980 N   0  0  0  0  0  0  0  0  0  0  0  0
  183.4010  178.3120  142.4100 C   0  0  0  0  0  1  0  0  0  0  0  0
  184.6160  179.6700  144.0960 C   0  0  0  0  0  2  0  0  0  0  0  0
  184.3380  178.9480  145.4010 C   0  0  0  0  0  2  0  0  0  0  0  0
  185.5490  178.9800  146.2620 C   0  0  0  0  0  0  0  0  0  0  0  0
  185.5340  179.6470  147.3300 O   0  0  0  0  0  0  0  0  0  0  0  0
  186.6780  178.2480  145.8890 O   0  0  0  0  0  0  0  0  0  0  0  0
  187.4220  177.4650  146.8120 C   0  0  0  0  0  2  0  0  0  0  0  0
  189.7220  176.7720  147.3680 C   0  0  0  0  0  2  0  0  0  0  0  0
  188.8770  177.8980  146.8120 C   0  0  0  0  0  3  0  0  0  0  0  0
  189.3740  177.9550  148.2410 C   0  0  0  0  0  2  0  0  0  0  0  0
  1  5  2  0  0  0  0
  2  3  1  0  0  0  0
  2 10  1  0  0  0  0
  4  9  1  0  0  0  0
  5 10  1  0  0  0  0
  6  4  2  0  0  0  0
  6  7  1  0  0  0  0
  7  2  2  0  0  0  0
  8  1  1  0  0  0  0
  9 21  1  0  0  0  0
  9  3  2  0  0  0  0
 11  7  1  0  0  0  0
 11  8  1  0  0  0  0
 12  4  1  0  0  0  0
 13 12  2  0  0  0  0
 14 19  2  0  0  0  0
 14 17  1  0  0  0  0
 15 18  2  0  0  0  0
 15 20  1  0  0  0  0
 16 20  2  0  0  0  0
 17 13  1  1  0  0  0
 17 16  1  0  0  0  0
 19 15  1  0  0  0  0
 21 23  1  0  0  0  0
 22 21  1  0  0  0  0
 23 24  1  0  0  0  0
 24 25  1  0  0  0  0
 25 26  2  0  0  0  0
 27 25  1  0  0  0  0
 27 28  1  0  0  0  0
 28 30  1  0  0  0  0
 29 31  1  0  0  0  0
 30 29  1  0  0  0  0
 30 31  1  0  0  0  0
M  END
>  <MODEL>
2

>  <REMARK>
 VINA RESULT:      -7.3      3.476      5.759
  Name = 
  9 active torsions:
  status: ('A' for Active; 'I' for Inactive)
    1  A    between atoms: C_1  and  C_7
    2  A    between atoms: C_1  and  N_9
    3  A    between atoms: C_7  and  C_11
    4  A    between atoms: N_8  and  C_12
    5  A    between atoms: N_9  and  C_23
    6  A    between atoms: C_11  and  O_30
    7  A    between atoms: C_15  and  N_17
    8  A    between atoms: C_16  and  C_24
    9  A    between atoms: C_24  and  O_30
                            x       y       z     vdW  Elec       q    Type
                         _______ _______ _______ _____ _____    ______ ____

>  <TORSDO>
F 9

$$$$
=
 OpenBabel10222415293D

 31 34  0  0  1  0  0  0  0  0999 V2000
  189.4390  177.1930  145.3620 N   0  0  0  0  0  0  0  0  0  0  0  0
  189.0310  177.5820  142.3190 C   0  0  0  0  0  0  0  0  0  0  0  0
  188.5120  177.8380  141.0470 C   0  0  0  0  0  3  0  0  0  0  0  0
  190.4940  176.9370  139.9940 C   0  0  0  0  0  0  0  0  0  0  0  0
  188.3110  177.2240  144.7260 C   0  0  0  0  0  3  0  0  0  0  0  0
  191.0480  176.7330  141.2650 C   0  0  0  0  0  3  0  0  0  0  0  0
  190.3650  177.0970  142.4260 C   0  0  0  0  0  0  0  0  0  0  0  0
  190.6860  177.7180  144.8360 C   0  0  0  0  0  2  0  0  0  0  0  0
  189.2330  177.5590  139.8780 C   0  0  0  0  0  0  0  0  0  0  0  0
  188.1430  177.6500  143.3230 C   0  0  0  0  0  2  0  0  0  0  0  0
  191.0800  177.0670  143.5530 C   0  0  0  0  0  2  0  0  0  0  0  0
  191.2010  176.5080  138.8250 N   0  0  0  0  0  0  0  0  0  0  0  0
  191.0880  175.3270  138.3640 N   0  0  0  0  0  0  0  0  0  0  0  0
  192.4560  176.1440  136.5450 C   0  0  0  0  0  3  0  0  0  0  0  0
  194.6780  175.2030  136.8350 C   0  0  0  0  0  0  0  0  0  0  0  0
  192.7960  173.8220  137.5070 C   0  0  0  0  0  3  0  0  0  0  0  0
  191.8170  174.9250  137.1720 C   0  0  1  0  0  3  0  0  0  0  0  0
  195.9250  175.3420  136.7290 O   0  0  0  0  0  0  0  0  0  0  0  0
  193.7760  176.2770  136.4040 C   0  0  0  0  0  3  0  0  0  0  0  0
  194.1170  173.9570  137.3630 C   0  0  0  0  0  3  0  0  0  0  0  0
  188.6440  177.8530  138.5940 N   0  0  0  0  0  0  0  0  0  0  0  0
  189.0810  178.9960  137.8080 C   0  0  0  0  0  1  0  0  0  0  0  0
  187.4410  177.1640  138.1490 C   0  0  0  0  0  2  0  0  0  0  0  0
  186.4750  178.1540  137.5230 C   0  0  0  0  0  2  0  0  0  0  0  0
  185.3240  178.3800  138.4360 C   0  0  0  0  0  0  0  0  0  0  0  0
  184.1540  178.1670  138.0230 O   0  0  0  0  0  0  0  0  0  0  0  0
  185.5590  178.7980  139.7480 O   0  0  0  0  0  0  0  0  0  0  0  0
  184.5070  179.0510  140.6690 C   0  0  0  0  0  2  0  0  0  0  0  0
  183.7010  178.7310  142.9770 C   0  0  0  0  0  2  0  0  0  0  0  0
  184.8100  178.3930  142.0030 C   0  0  0  0  0  3  0  0  0  0  0  0
  185.0180  179.4690  143.0470 C   0  0  0  0  0  2  0  0  0  0  0  0
  2  7  1  0  0  0  0
  2 10  1  0  0  0  0
  3  2  2  0  0  0  0
  4  6  1  0  0  0  0
  5  1  2  0  0  0  0
  6  7  2  0  0  0  0
  7 11  1  0  0  0  0
  8  1  1  0  0  0  0
  9  4  2  0  0  0  0
  9  3  1  0  0  0  0
 10  5  1  0  0  0  0
 11  8  1  0  0  0  0
 12  4  1  0  0  0  0
 13 12  2  0  0  0  0
 14 17  1  0  0  0  0
 15 20  1  0  0  0  0
 17 16  1  0  0  0  0
 17 13  1  1  0  0  0
 18 15  2  0  0  0  0
 19 14  2  0  0  0  0
 19 15  1  0  0  0  0
 20 16  2  0  0  0  0
 21  9  1  0  0  0  0
 22 21  1  0  0  0  0
 23 21  1  0  0  0  0
 24 23  1  0  0  0  0
 24 25  1  0  0  0  0
 25 27  1  0  0  0  0
 26 25  2  0  0  0  0
 27 28  1  0  0  0  0
 28 30  1  0  0  0  0
 29 31  1  0  0  0  0
 30 29  1  0  0  0  0
 30 31  1  0  0  0  0
M  END
>  <MODEL>
3

>  <REMARK>
 VINA RESULT:      -7.2      3.160      6.005
  Name = 
  9 active torsions:
  status: ('A' for Active; 'I' for Inactive)
    1  A    between atoms: C_1  and  C_7
    2  A    between atoms: C_1  and  N_9
    3  A    between atoms: C_7  and  C_11
    4  A    between atoms: N_8  and  C_12
    5  A    between atoms: N_9  and  C_23
    6  A    between atoms: C_11  and  O_30
    7  A    between atoms: C_15  and  N_17
    8  A    between atoms: C_16  and  C_24
    9  A    between atoms: C_24  and  O_30
                            x       y       z     vdW  Elec       q    Type
                         _______ _______ _______ _____ _____    ______ ____

>  <TORSDO>
F 9

$$$$
=
 OpenBabel10222415293D

 31 34  0  0  1  0  0  0  0  0999 V2000
  190.5150  176.4890  146.9950 N   0  0  0  0  0  0  0  0  0  0  0  0
  189.4320  177.3790  144.2360 C   0  0  0  0  0  0  0  0  0  0  0  0
  188.6660  177.8970  143.1890 C   0  0  0  0  0  3  0  0  0  0  0  0
  190.1120  176.8650  141.5460 C   0  0  0  0  0  0  0  0  0  0  0  0
  189.2900  176.7860  146.7000 C   0  0  0  0  0  3  0  0  0  0  0  0
  190.9200  176.3930  142.5890 C   0  0  0  0  0  3  0  0  0  0  0  0
  190.6340  176.6830  143.9230 C   0  0  0  0  0  0  0  0  0  0  0  0
  191.6640  176.8860  146.2030 C   0  0  0  0  0  2  0  0  0  0  0  0
  189.0030  177.6850  141.8440 C   0  0  0  0  0  0  0  0  0  0  0  0
  188.8560  177.4340  145.4480 C   0  0  0  0  0  2  0  0  0  0  0  0
  191.5920  176.3770  144.8020 C   0  0  0  0  0  2  0  0  0  0  0  0
  190.4060  176.5090  140.1910 N   0  0  0  0  0  0  0  0  0  0  0  0
  191.4090  176.9890  139.5700 N   0  0  0  0  0  0  0  0  0  0  0  0
  193.1770  176.5740  137.9730 C   0  0  0  0  0  3  0  0  0  0  0  0
  193.1150  174.2070  137.4270 C   0  0  0  0  0  0  0  0  0  0  0  0
  190.9890  175.2950  137.8760 C   0  0  0  0  0  3  0  0  0  0  0  0
  191.6820  176.6010  138.1960 C   0  0  1  0  0  3  0  0  0  0  0  0
  193.7430  173.1560  137.1360 O   0  0  0  0  0  0  0  0  0  0  0  0
  193.8380  175.4660  137.6330 C   0  0  0  0  0  3  0  0  0  0  0  0
  191.6530  174.1870  137.5340 C   0  0  0  0  0  3  0  0  0  0  0  0
  188.1740  178.2520  140.8080 N   0  0  0  0  0  0  0  0  0  0  0  0
  188.7390  178.6620  139.5320 C   0  0  0  0  0  1  0  0  0  0  0  0
  186.8000  178.6500  141.0830 C   0  0  0  0  0  2  0  0  0  0  0  0
  185.9120  178.3060  139.9010 C   0  0  0  0  0  2  0  0  0  0  0  0
  184.5940  178.9780  140.0500 C   0  0  0  0  0  0  0  0  0  0  0  0
  184.3940  180.0820  139.4790 O   0  0  0  0  0  0  0  0  0  0  0  0
  183.5890  178.3620  140.7970 O   0  0  0  0  0  0  0  0  0  0  0  0
  183.1380  178.8770  142.0430 C   0  0  0  0  0  2  0  0  0  0  0  0
  183.4280  178.7770  144.4890 C   0  0  0  0  0  2  0  0  0  0  0  0
  184.0640  178.4300  143.1600 C   0  0  0  0  0  3  0  0  0  0  0  0
  184.5290  179.6480  143.9300 C   0  0  0  0  0  2  0  0  0  0  0  0
  2 10  1  0  0  0  0
  3  2  2  0  0  0  0
  4  9  2  0  0  0  0
  4  6  1  0  0  0  0
  5  1  2  0  0  0  0
  6  7  2  0  0  0  0
  7  2  1  0  0  0  0
  7 11  1  0  0  0  0
  8  1  1  0  0  0  0
  9  3  1  0  0  0  0
 10  5  1  0  0  0  0
 11  8  1  0  0  0  0
 12  4  1  0  0  0  0
 13 12  2  0  0  0  0
 14 17  1  0  0  0  0
 15 20  1  0  0  0  0
 15 19  1  0  0  0  0
 16 17  1  0  0  0  0
 17 13  1  1  0  0  0
 18 15  2  0  0  0  0
 19 14  2  0  0  0  0
 20 16  2  0  0  0  0
 21 23  1  0  0  0  0
 21  9  1  0  0  0  0
 22 21  1  0  0  0  0
 24 25  1  0  0  0  0
 24 23  1  0  0  0  0
 25 27  1  0  0  0  0
 26 25  2  0  0  0  0
 27 28  1  0  0  0  0
 28 30  1  0  0  0  0
 30 31  1  0  0  0  0
 30 29  1  0  0  0  0
 31 29  1  0  0  0  0
M  END
>  <MODEL>
4

>  <REMARK>
 VINA RESULT:      -7.2      3.196      5.683
  Name = 
  9 active torsions:
  status: ('A' for Active; 'I' for Inactive)
    1  A    between atoms: C_1  and  C_7
    2  A    between atoms: C_1  and  N_9
    3  A    between atoms: C_7  and  C_11
    4  A    between atoms: N_8  and  C_12
    5  A    between atoms: N_9  and  C_23
    6  A    between atoms: C_11  and  O_30
    7  A    between atoms: C_15  and  N_17
    8  A    between atoms: C_16  and  C_24
    9  A    between atoms: C_24  and  O_30
                            x       y       z     vdW  Elec       q    Type
                         _______ _______ _______ _____ _____    ______ ____

>  <TORSDO>
F 9

$$$$
=
 OpenBabel10222415293D

 31 34  0  0  1  0  0  0  0  0999 V2000
  180.9210  179.2240  143.0870 N   0  0  0  0  0  0  0  0  0  0  0  0
  183.9280  178.6000  142.7100 C   0  0  0  0  0  0  0  0  0  0  0  0
  185.2870  178.3350  142.9000 C   0  0  0  0  0  3  0  0  0  0  0  0
  185.7230  178.5850  140.5340 C   0  0  0  0  0  0  0  0  0  0  0  0
  181.8660  179.4030  143.9530 C   0  0  0  0  0  3  0  0  0  0  0  0
  184.3530  178.7910  140.3270 C   0  0  0  0  0  3  0  0  0  0  0  0
  183.4400  178.7460  141.3810 C   0  0  0  0  0  0  0  0  0  0  0  0
  181.0250  178.3480  141.9350 C   0  0  0  0  0  2  0  0  0  0  0  0
  186.1930  178.2880  141.8310 C   0  0  0  0  0  0  0  0  0  0  0  0
  183.2370  178.8720  143.8290 C   0  0  0  0  0  2  0  0  0  0  0  0
  182.1510  178.7270  141.0330 C   0  0  0  0  0  2  0  0  0  0  0  0
  186.6390  178.6860  139.4370 N   0  0  0  0  0  0  0  0  0  0  0  0
  186.2750  178.4860  138.2340 N   0  0  0  0  0  0  0  0  0  0  0  0
  188.6280  178.6790  137.7120 C   0  0  0  0  0  3  0  0  0  0  0  0
  189.2780  176.6440  136.5520 C   0  0  0  0  0  0  0  0  0  0  0  0
  187.0290  177.4730  136.1550 C   0  0  0  0  0  3  0  0  0  0  0  0
  187.2290  178.6010  137.1440 C   0  0  1  0  0  3  0  0  0  0  0  0
  190.1540  175.7690  136.3290 O   0  0  0  0  0  0  0  0  0  0  0  0
  189.5670  177.7670  137.4500 C   0  0  0  0  0  3  0  0  0  0  0  0
  187.9710  176.5640  135.8930 C   0  0  0  0  0  3  0  0  0  0  0  0
  187.5830  178.0040  142.0920 N   0  0  0  0  0  0  0  0  0  0  0  0
  188.6370  178.5920  141.2790 C   0  0  0  0  0  1  0  0  0  0  0  0
  187.9700  176.9450  143.0140 C   0  0  0  0  0  2  0  0  0  0  0  0
  188.9070  177.4950  144.0740 C   0  0  0  0  0  2  0  0  0  0  0  0
  188.2340  177.4730  145.4000 C   0  0  0  0  0  0  0  0  0  0  0  0
  187.0040  177.2160  145.4660 O   0  0  0  0  0  0  0  0  0  0  0  0
  188.9820  177.7120  146.5540 O   0  0  0  0  0  0  0  0  0  0  0  0
  189.6460  176.6740  147.2630 C   0  0  0  0  0  2  0  0  0  0  0  0
  191.8160  176.3640  146.1330 C   0  0  0  0  0  2  0  0  0  0  0  0
  191.1340  176.9640  147.3440 C   0  0  0  0  0  3  0  0  0  0  0  0
  191.8850  175.6550  147.4650 C   0  0  0  0  0  2  0  0  0  0  0  0
  1  5  2  0  0  0  0
  2  3  1  0  0  0  0
  2 10  1  0  0  0  0
  4  9  1  0  0  0  0
  6  4  2  0  0  0  0
  6  7  1  0  0  0  0
  7  2  2  0  0  0  0
  8  1  1  0  0  0  0
  9 21  1  0  0  0  0
  9  3  2  0  0  0  0
 10  5  1  0  0  0  0
 11  7  1  0  0  0  0
 11  8  1  0  0  0  0
 12  4  1  0  0  0  0
 13 12  2  0  0  0  0
 15 19  1  0  0  0  0
 16 17  1  0  0  0  0
 17 14  1  0  0  0  0
 17 13  1  1  0  0  0
 18 15  2  0  0  0  0
 19 14  2  0  0  0  0
 20 16  2  0  0  0  0
 20 15  1  0  0  0  0
 21 23  1  0  0  0  0
 22 21  1  0  0  0  0
 23 24  1  0  0  0  0
 24 25  1  0  0  0  0
 25 26  2  0  0  0  0
 25 27  1  0  0  0  0
 27 28  1  0  0  0  0
 28 30  1  0  0  0  0
 29 30  1  0  0  0  0
 29 31  1  0  0  0  0
 30 31  1  0  0  0  0
M  END
>  <MODEL>
5

>  <REMARK>
 VINA RESULT:      -7.0      1.827      2.657
  Name = 
  9 active torsions:
  status: ('A' for Active; 'I' for Inactive)
    1  A    between atoms: C_1  and  C_7
    2  A    between atoms: C_1  and  N_9
    3  A    between atoms: C_7  and  C_11
    4  A    between atoms: N_8  and  C_12
    5  A    between atoms: N_9  and  C_23
    6  A    between atoms: C_11  and  O_30
    7  A    between atoms: C_15  and  N_17
    8  A    between atoms: C_16  and  C_24
    9  A    between atoms: C_24  and  O_30
                            x       y       z     vdW  Elec       q    Type
                         _______ _______ _______ _____ _____    ______ ____

>  <TORSDO>
F 9

$$$$
=
 OpenBabel10222415293D

 31 34  0  0  1  0  0  0  0  0999 V2000
  190.6900  176.4820  146.9490 N   0  0  0  0  0  0  0  0  0  0  0  0
  189.1920  177.3810  144.3950 C   0  0  0  0  0  0  0  0  0  0  0  0
  188.2530  177.8620  143.4780 C   0  0  0  0  0  3  0  0  0  0  0  0
  189.5860  177.0780  141.6180 C   0  0  0  0  0  0  0  0  0  0  0  0
  189.4140  176.6560  146.8170 C   0  0  0  0  0  3  0  0  0  0  0  0
  190.5610  176.6480  142.5290 C   0  0  0  0  0  3  0  0  0  0  0  0
  190.4110  176.8390  143.9030 C   0  0  0  0  0  0  0  0  0  0  0  0
  191.6870  177.0420  146.0550 C   0  0  0  0  0  2  0  0  0  0  0  0
  188.4430  177.7550  142.0930 C   0  0  0  0  0  0  0  0  0  0  0  0
  188.7660  177.3130  145.6670 C   0  0  0  0  0  2  0  0  0  0  0  0
  191.4970  176.5980  144.6430 C   0  0  0  0  0  2  0  0  0  0  0  0
  189.7480  176.8240  140.2180 N   0  0  0  0  0  0  0  0  0  0  0  0
  190.8600  177.0010  139.6250 N   0  0  0  0  0  0  0  0  0  0  0  0
  191.5390  175.3310  138.0120 C   0  0  0  0  0  3  0  0  0  0  0  0
  189.5460  174.6490  136.7990 C   0  0  0  0  0  0  0  0  0  0  0  0
  189.6720  176.9720  137.5030 C   0  0  0  0  0  3  0  0  0  0  0  0
  190.9910  176.7280  138.2030 C   0  0  1  0  0  3  0  0  0  0  0  0
  188.8990  173.7350  136.2270 O   0  0  0  0  0  0  0  0  0  0  0  0
  190.8650  174.3700  137.3780 C   0  0  0  0  0  3  0  0  0  0  0  0
  189.0010  176.0080  136.8660 C   0  0  0  0  0  3  0  0  0  0  0  0
  187.4390  178.2770  141.1980 N   0  0  0  0  0  0  0  0  0  0  0  0
  187.6230  178.2370  139.7550 C   0  0  0  0  0  1  0  0  0  0  0  0
  186.3250  179.0680  141.7020 C   0  0  0  0  0  2  0  0  0  0  0  0
  185.0180  178.3300  141.4760 C   0  0  0  0  0  2  0  0  0  0  0  0
  183.9890  178.8270  142.4260 C   0  0  0  0  0  0  0  0  0  0  0  0
  182.7700  178.6310  142.1790 O   0  0  0  0  0  0  0  0  0  0  0  0
  184.3900  179.4800  143.5930 O   0  0  0  0  0  0  0  0  0  0  0  0
  184.0410  179.0130  144.8890 C   0  0  0  0  0  2  0  0  0  0  0  0
  184.9940  178.2540  147.0330 C   0  0  0  0  0  2  0  0  0  0  0  0
  185.2330  178.3350  145.5410 C   0  0  0  0  0  3  0  0  0  0  0  0
  185.9090  179.3180  146.4730 C   0  0  0  0  0  2  0  0  0  0  0  0
  2 10  1  0  0  0  0
  3  2  2  0  0  0  0
  4  9  2  0  0  0  0
  4  6  1  0  0  0  0
  5  1  2  0  0  0  0
  6  7  2  0  0  0  0
  7  2  1  0  0  0  0
  7 11  1  0  0  0  0
  8  1  1  0  0  0  0
  9  3  1  0  0  0  0
 10  5  1  0  0  0  0
 11  8  1  0  0  0  0
 12  4  1  0  0  0  0
 13 12  2  0  0  0  0
 14 17  1  0  0  0  0
 15 20  1  0  0  0  0
 15 19  1  0  0  0  0
 16 17  1  0  0  0  0
 17 13  1  1  0  0  0
 18 15  2  0  0  0  0
 19 14  2  0  0  0  0
 20 16  2  0  0  0  0
 21 23  1  0  0  0  0
 21  9  1  0  0  0  0
 22 21  1  0  0  0  0
 24 23  1  0  0  0  0
 24 25  1  0  0  0  0
 25 27  1  0  0  0  0
 26 25  2  0  0  0  0
 27 28  1  0  0  0  0
 28 30  1  0  0  0  0
 30 31  1  0  0  0  0
 30 29  1  0  0  0  0
 31 29  1  0  0  0  0
M  END
>  <MODEL>
6

>  <REMARK>
 VINA RESULT:      -7.0      2.607      4.953
  Name = 
  9 active torsions:
  status: ('A' for Active; 'I' for Inactive)
    1  A    between atoms: C_1  and  C_7
    2  A    between atoms: C_1  and  N_9
    3  A    between atoms: C_7  and  C_11
    4  A    between atoms: N_8  and  C_12
    5  A    between atoms: N_9  and  C_23
    6  A    between atoms: C_11  and  O_30
    7  A    between atoms: C_15  and  N_17
    8  A    between atoms: C_16  and  C_24
    9  A    between atoms: C_24  and  O_30
                            x       y       z     vdW  Elec       q    Type
                         _______ _______ _______ _____ _____    ______ ____

>  <TORSDO>
F 9

$$$$
=
 OpenBabel10222415293D

 31 34  0  0  1  0  0  0  0  0999 V2000
  194.0370  175.6600  135.7710 N   0  0  0  0  0  0  0  0  0  0  0  0
  191.0940  176.1390  136.5970 C   0  0  0  0  0  0  0  0  0  0  0  0
  189.7090  176.3310  136.6150 C   0  0  0  0  0  3  0  0  0  0  0  0
  189.7730  176.9790  138.9440 C   0  0  0  0  0  0  0  0  0  0  0  0
  193.0690  176.0500  135.0050 C   0  0  0  0  0  3  0  0  0  0  0  0
  191.1520  176.7290  138.9510 C   0  0  0  0  0  3  0  0  0  0  0  0
  191.8150  176.2600  137.8180 C   0  0  0  0  0  0  0  0  0  0  0  0
  193.8510  175.0070  137.0530 C   0  0  0  0  0  2  0  0  0  0  0  0
  189.0260  176.7140  137.7770 C   0  0  0  0  0  0  0  0  0  0  0  0
  191.6400  176.0330  135.3750 C   0  0  0  0  0  2  0  0  0  0  0  0
  193.0700  175.8440  138.0100 C   0  0  0  0  0  2  0  0  0  0  0  0
  189.1320  177.5070  140.1110 N   0  0  0  0  0  0  0  0  0  0  0  0
  189.7310  177.5870  141.2310 N   0  0  0  0  0  0  0  0  0  0  0  0
  188.1960  177.0560  143.0230 C   0  0  0  0  0  3  0  0  0  0  0  0
  189.4430  177.1940  145.1050 C   0  0  0  0  0  0  0  0  0  0  0  0
  190.0570  178.7500  143.3420 C   0  0  0  0  0  3  0  0  0  0  0  0
  189.0520  178.1330  142.3950 C   0  0  1  0  0  3  0  0  0  0  0  0
  189.6420  176.7550  146.2680 O   0  0  0  0  0  0  0  0  0  0  0  0
  188.3870  176.6140  144.2680 C   0  0  0  0  0  3  0  0  0  0  0  0
  190.2460  178.3060  144.5890 C   0  0  0  0  0  3  0  0  0  0  0  0
  187.5940  176.8910  137.7320 N   0  0  0  0  0  0  0  0  0  0  0  0
  186.7120  175.7970  137.3590 C   0  0  0  0  0  1  0  0  0  0  0  0
  187.0020  178.2180  137.8250 C   0  0  0  0  0  2  0  0  0  0  0  0
  185.5250  178.1070  138.1570 C   0  0  0  0  0  2  0  0  0  0  0  0
  185.1550  179.1390  139.1610 C   0  0  0  0  0  0  0  0  0  0  0  0
  184.4550  180.1240  138.8080 O   0  0  0  0  0  0  0  0  0  0  0  0
  185.5660  178.9860  140.4860 O   0  0  0  0  0  0  0  0  0  0  0  0
  184.6490  178.9330  141.5700 C   0  0  0  0  0  2  0  0  0  0  0  0
  184.9380  178.2560  143.9240 C   0  0  0  0  0  2  0  0  0  0  0  0
  185.3570  179.2610  142.8720 C   0  0  0  0  0  3  0  0  0  0  0  0
  184.3240  179.6370  143.9130 C   0  0  0  0  0  2  0  0  0  0  0  0
  1  8  1  0  0  0  0
  2  3  2  0  0  0  0
  2  7  1  0  0  0  0
  3  9  1  0  0  0  0
  4  6  1  0  0  0  0
  4 12  1  0  0  0  0
  5 10  1  0  0  0  0
  5  1  2  0  0  0  0
  7 11  1  0  0  0  0
  7  6  2  0  0  0  0
  8 11  1  0  0  0  0
  9  4  2  0  0  0  0
 10  2  1  0  0  0  0
 12 13  2  0  0  0  0
 14 19  2  0  0  0  0
 15 18  2  0  0  0  0
 16 20  2  0  0  0  0
 17 13  1  6  0  0  0
 17 14  1  0  0  0  0
 17 16  1  0  0  0  0
 19 15  1  0  0  0  0
 20 15  1  0  0  0  0
 21  9  1  0  0  0  0
 21 23  1  0  0  0  0
 22 21  1  0  0  0  0
 23 24  1  0  0  0  0
 24 25  1  0  0  0  0
 25 27  1  0  0  0  0
 26 25  2  0  0  0  0
 27 28  1  0  0  0  0
 28 30  1  0  0  0  0
 30 31  1  0  0  0  0
 30 29  1  0  0  0  0
 31 29  1  0  0  0  0
M  END
>  <MODEL>
7

>  <REMARK>
 VINA RESULT:      -6.9      2.982      8.205
  Name = 
  9 active torsions:
  status: ('A' for Active; 'I' for Inactive)
    1  A    between atoms: C_1  and  C_7
    2  A    between atoms: C_1  and  N_9
    3  A    between atoms: C_7  and  C_11
    4  A    between atoms: N_8  and  C_12
    5  A    between atoms: N_9  and  C_23
    6  A    between atoms: C_11  and  O_30
    7  A    between atoms: C_15  and  N_17
    8  A    between atoms: C_16  and  C_24
    9  A    between atoms: C_24  and  O_30
                            x       y       z     vdW  Elec       q    Type
                         _______ _______ _______ _____ _____    ______ ____

>  <TORSDO>
F 9

$$$$
=
 OpenBabel10222415293D

 31 34  0  0  1  0  0  0  0  0999 V2000
  188.4430  177.8330  148.4310 N   0  0  0  0  0  0  0  0  0  0  0  0
  188.6290  177.5470  145.3550 C   0  0  0  0  0  0  0  0  0  0  0  0
  189.0650  177.3860  144.0380 C   0  0  0  0  0  3  0  0  0  0  0  0
  186.8880  178.0040  143.1820 C   0  0  0  0  0  0  0  0  0  0  0  0
  189.5020  177.9750  147.7000 C   0  0  0  0  0  3  0  0  0  0  0  0
  186.4260  178.1080  144.5010 C   0  0  0  0  0  3  0  0  0  0  0  0
  187.2550  177.8330  145.5890 C   0  0  0  0  0  0  0  0  0  0  0  0
  187.2420  177.1390  148.0010 C   0  0  0  0  0  2  0  0  0  0  0  0
  188.2100  177.5720  142.9420 C   0  0  0  0  0  0  0  0  0  0  0  0
  189.6030  177.5960  146.2780 C   0  0  0  0  0  2  0  0  0  0  0  0
  186.6450  177.7440  146.7740 C   0  0  0  0  0  2  0  0  0  0  0  0
  186.0260  178.3410  142.0900 N   0  0  0  0  0  0  0  0  0  0  0  0
  184.7590  178.2750  142.1860 N   0  0  0  0  0  0  0  0  0  0  0  0
  184.7830  178.9820  139.8740 C   0  0  0  0  0  3  0  0  0  0  0  0
  183.8290  177.1750  138.5580 C   0  0  0  0  0  0  0  0  0  0  0  0
  182.9200  177.5210  140.7840 C   0  0  0  0  0  3  0  0  0  0  0  0
  183.9120  178.6300  141.0590 C   0  0  1  0  0  3  0  0  0  0  0  0
  183.8240  176.5150  137.4860 O   0  0  0  0  0  0  0  0  0  0  0  0
  184.7540  178.3010  138.7260 C   0  0  0  0  0  3  0  0  0  0  0  0
  182.8910  176.8420  139.6340 C   0  0  0  0  0  3  0  0  0  0  0  0
  188.7190  177.3850  141.6050 N   0  0  0  0  0  0  0  0  0  0  0  0
  189.7920  176.4410  141.3340 C   0  0  0  0  0  1  0  0  0  0  0  0
  188.3470  178.2930  140.5290 C   0  0  0  0  0  2  0  0  0  0  0  0
  188.3050  177.5450  139.2080 C   0  0  0  0  0  2  0  0  0  0  0  0
  189.1190  178.2670  138.1960 C   0  0  0  0  0  0  0  0  0  0  0  0
  188.6960  179.3530  137.7190 O   0  0  0  0  0  0  0  0  0  0  0  0
  190.3540  177.7440  137.8070 O   0  0  0  0  0  0  0  0  0  0  0  0
  190.5130  176.4010  137.3700 C   0  0  0  0  0  2  0  0  0  0  0  0
  192.9270  175.8980  137.3750 C   0  0  0  0  0  2  0  0  0  0  0  0
  191.6330  175.7280  138.1420 C   0  0  0  0  0  3  0  0  0  0  0  0
  192.1820  174.5840  137.3160 C   0  0  0  0  0  2  0  0  0  0  0  0
  2  7  1  0  0  0  0
  2 10  1  0  0  0  0
  3  2  2  0  0  0  0
  4  6  1  0  0  0  0
  5  1  2  0  0  0  0
  6  7  2  0  0  0  0
  7 11  1  0  0  0  0
  8  1  1  0  0  0  0
  9  4  2  0  0  0  0
  9  3  1  0  0  0  0
 10  5  1  0  0  0  0
 11  8  1  0  0  0  0
 12 13  2  0  0  0  0
 12  4  1  0  0  0  0
 14 17  1  0  0  0  0
 15 19  1  0  0  0  0
 15 20  1  0  0  0  0
 16 17  1  0  0  0  0
 17 13  1  1  0  0  0
 18 15  2  0  0  0  0
 19 14  2  0  0  0  0
 20 16  2  0  0  0  0
 21  9  1  0  0  0  0
 22 21  1  0  0  0  0
 23 21  1  0  0  0  0
 24 23  1  0  0  0  0
 25 24  1  0  0  0  0
 26 25  2  0  0  0  0
 27 25  1  0  0  0  0
 28 27  1  0  0  0  0
 28 30  1  0  0  0  0
 29 30  1  0  0  0  0
 31 29  1  0  0  0  0
 31 30  1  0  0  0  0
M  END
>  <MODEL>
8

>  <REMARK>
 VINA RESULT:      -6.9      2.762      5.796
  Name = 
  9 active torsions:
  status: ('A' for Active; 'I' for Inactive)
    1  A    between atoms: C_1  and  C_7
    2  A    between atoms: C_1  and  N_9
    3  A    between atoms: C_7  and  C_11
    4  A    between atoms: N_8  and  C_12
    5  A    between atoms: N_9  and  C_23
    6  A    between atoms: C_11  and  O_30
    7  A    between atoms: C_15  and  N_17
    8  A    between atoms: C_16  and  C_24
    9  A    between atoms: C_24  and  O_30
                            x       y       z     vdW  Elec       q    Type
                         _______ _______ _______ _____ _____    ______ ____

>  <TORSDO>
F 9

$$$$
=
 OpenBabel10222415293D

 31 34  0  0  1  0  0  0  0  0999 V2000
  191.2360  175.2600  135.8380 N   0  0  0  0  0  0  0  0  0  0  0  0
  190.5600  176.4110  138.6300 C   0  0  0  0  0  0  0  0  0  0  0  0
  190.5060  176.6970  139.9970 C   0  0  0  0  0  3  0  0  0  0  0  0
  188.5040  178.0210  139.6990 C   0  0  0  0  0  0  0  0  0  0  0  0
  191.5080  174.7260  136.9860 C   0  0  0  0  0  3  0  0  0  0  0  0
  188.5850  177.7900  138.3190 C   0  0  0  0  0  3  0  0  0  0  0  0
  189.6250  177.0440  137.7630 C   0  0  0  0  0  0  0  0  0  0  0  0
  190.9180  176.6630  135.6460 C   0  0  0  0  0  2  0  0  0  0  0  0
  189.5150  177.5220  140.5470 C   0  0  0  0  0  0  0  0  0  0  0  0
  191.3880  175.4120  138.2870 C   0  0  0  0  0  2  0  0  0  0  0  0
  189.7220  177.0870  136.4320 C   0  0  0  0  0  2  0  0  0  0  0  0
  187.3970  178.7500  140.2420 N   0  0  0  0  0  0  0  0  0  0  0  0
  186.2150  178.6150  139.7900 N   0  0  0  0  0  0  0  0  0  0  0  0
  184.0120  179.5050  139.3420 C   0  0  0  0  0  3  0  0  0  0  0  0
  182.4470  178.3120  140.7680 C   0  0  0  0  0  0  0  0  0  0  0  0
  184.6680  178.7240  141.6640 C   0  0  0  0  0  3  0  0  0  0  0  0
  185.1130  179.3670  140.3680 C   0  0  1  0  0  3  0  0  0  0  0  0
  181.3020  177.8140  140.9240 O   0  0  0  0  0  0  0  0  0  0  0  0
  182.7870  179.0050  139.5210 C   0  0  0  0  0  3  0  0  0  0  0  0
  183.4410  178.2270  141.8420 C   0  0  0  0  0  3  0  0  0  0  0  0
  189.5170  177.7830  141.9660 N   0  0  0  0  0  0  0  0  0  0  0  0
  190.7010  178.3000  142.6350 C   0  0  0  0  0  1  0  0  0  0  0  0
  188.4260  177.3210  142.8130 C   0  0  0  0  0  2  0  0  0  0  0  0
  188.9780  176.7440  144.1040 C   0  0  0  0  0  2  0  0  0  0  0  0
  188.3770  177.4480  145.2670 C   0  0  0  0  0  0  0  0  0  0  0  0
  187.1540  177.7430  145.2480 O   0  0  0  0  0  0  0  0  0  0  0  0
  189.1720  177.7470  146.3760 O   0  0  0  0  0  0  0  0  0  0  0  0
  189.8420  176.7450  147.1280 C   0  0  0  0  0  2  0  0  0  0  0  0
  192.0040  175.9970  146.2070 C   0  0  0  0  0  2  0  0  0  0  0  0
  191.3380  177.0000  147.1250 C   0  0  0  0  0  3  0  0  0  0  0  0
  192.0450  175.7930  147.7040 C   0  0  0  0  0  2  0  0  0  0  0  0
  1  5  2  0  0  0  0
  2  3  1  0  0  0  0
  3  9  2  0  0  0  0
  4 12  1  0  0  0  0
  4  9  1  0  0  0  0
  5 10  1  0  0  0  0
  6  4  2  0  0  0  0
  7  6  1  0  0  0  0
  7  2  2  0  0  0  0
  8  1  1  0  0  0  0
  8 11  1  0  0  0  0
  9 21  1  0  0  0  0
 10  2  1  0  0  0  0
 11  7  1  0  0  0  0
 13 12  2  0  0  0  0
 14 19  2  0  0  0  0
 14 17  1  0  0  0  0
 15 18  2  0  0  0  0
 15 20  1  0  0  0  0
 16 20  2  0  0  0  0
 17 13  1  6  0  0  0
 17 16  1  0  0  0  0
 19 15  1  0  0  0  0
 21 22  1  0  0  0  0
 21 23  1  0  0  0  0
 23 24  1  0  0  0  0
 24 25  1  0  0  0  0
 25 27  1  0  0  0  0
 26 25  2  0  0  0  0
 27 28  1  0  0  0  0
 29 30  1  0  0  0  0
 29 31  1  0  0  0  0
 30 28  1  0  0  0  0
 30 31  1  0  0  0  0
M  END
>  <MODEL>
9

>  <REMARK>
 VINA RESULT:      -6.8      2.890      6.265
  Name = 
  9 active torsions:
  status: ('A' for Active; 'I' for Inactive)
    1  A    between atoms: C_1  and  C_7
    2  A    between atoms: C_1  and  N_9
    3  A    between atoms: C_7  and  C_11
    4  A    between atoms: N_8  and  C_12
    5  A    between atoms: N_9  and  C_23
    6  A    between atoms: C_11  and  O_30
    7  A    between atoms: C_15  and  N_17
    8  A    between atoms: C_16  and  C_24
    9  A    between atoms: C_24  and  O_30
                            x       y       z     vdW  Elec       q    Type
                         _______ _______ _______ _____ _____    ______ ____

>  <TORSDO>
F 9

$$$$
