=
 OpenBabel10222420073D

 27 29  0  0  1  0  0  0  0  0999 V2000
  187.3840  178.2120  148.3110 C   0  0  0  0  0  3  0  0  0  0  0  0
  190.7410  177.2510  147.7340 O   0  0  0  0  0  0  0  0  0  0  0  0
  187.7510  177.6950  145.8740 C   0  0  0  0  0  0  0  0  0  0  0  0
  185.8480  178.1830  145.0630 C   0  0  0  0  0  0  0  0  0  0  0  0
  189.5370  177.5000  147.4670 C   0  0  0  0  0  0  0  0  0  0  0  0
  187.0130  177.7440  144.6670 N   0  0  0  0  0  0  0  0  0  0  0  0
  185.7340  178.4350  146.4790 N   0  0  0  0  0  0  0  0  0  0  0  0
  189.0320  177.3750  146.0680 C   0  0  0  0  0  0  0  0  0  0  0  0
  186.8990  178.1270  146.9320 C   0  0  0  0  0  0  0  0  0  0  0  0
  188.6340  177.9090  148.5330 N   0  0  0  0  0  0  0  0  0  0  0  0
  184.8210  178.3440  142.7560 C   0  0  0  0  0  3  0  0  0  0  0  0
  183.6250  178.6450  142.2200 N   0  0  0  0  0  0  0  0  0  0  0  0
  183.4730  178.8580  144.4760 C   0  0  0  0  0  3  0  0  0  0  0  0
  184.7510  178.4710  144.1290 C   0  0  1  0  0  3  0  0  0  0  0  0
  182.8230  178.9540  143.2560 C   0  0  0  0  0  0  0  0  0  0  0  0
  181.3790  179.2930  143.0950 C   0  0  0  0  0  2  0  0  0  0  0  0
  180.5300  178.4980  144.0790 C   0  0  0  0  0  2  0  0  0  0  0  0
  179.4420  179.2530  144.4940 F   0  0  0  0  0  0  0  0  0  0  0  0
  189.9300  176.9560  144.9360 C   0  0  0  0  0  2  0  0  0  0  0  0
  190.7140  178.0920  144.4660 N   0  0  0  0  0  2  0  0  0  0  0  0
  191.7970  177.5910  143.8210 O   0  0  0  0  0  0  0  0  0  0  0  0
  191.2540  176.8310  142.7800 C   0  0  0  0  0  2  0  0  0  0  0  0
  191.6600  177.4490  141.4470 C   0  0  0  0  0  2  0  0  0  0  0  0
  190.4110  177.0470  140.1940 S   0  0  0  0  0  0  0  0  0  0  0  0
  189.0290  177.3420  141.3410 C   0  0  0  0  0  2  0  0  0  0  0  0
  188.0240  178.3070  140.7220 C   0  0  0  0  0  2  0  0  0  0  0  0
  188.0130  178.1360  139.2100 C   0  0  0  0  0  1  0  0  0  0  0  0
  1 10  2  0  0  0  0
  3  8  2  0  0  0  0
  3  9  1  0  0  0  0
  4  7  1  0  0  0  0
  5  2  2  0  0  0  0
  5 10  1  0  0  0  0
  6  4  2  0  0  0  0
  6  3  1  0  0  0  0
  7  9  2  0  0  0  0
  8  5  1  0  0  0  0
  9  1  1  0  0  0  0
 11 14  1  0  0  0  0
 12 11  2  0  0  0  0
 12 15  1  0  0  0  0
 14 13  1  0  0  0  0
 14  4  1  1  0  0  0
 15 13  2  0  0  0  0
 16 15  1  0  0  0  0
 16 17  1  0  0  0  0
 17 18  1  0  0  0  0
 19  8  1  0  0  0  0
 20 19  1  0  0  0  0
 21 20  1  0  0  0  0
 22 21  1  0  0  0  0
 23 22  1  0  0  0  0
 24 25  1  0  0  0  0
 24 23  1  0  0  0  0
 26 25  1  0  0  0  0
 27 26  1  0  0  0  0
M  END
>  <MODEL>
1

>  <REMARK>
 VINA RESULT:      -7.2      0.000      0.000
  Name = 
  11 active torsions:
  status: ('A' for Active; 'I' for Inactive)
    1  A    between atoms: C_2  and  C_3
    2  A    between atoms: C_3  and  S_8
    3  A    between atoms: S_8  and  C_27
    4  A    between atoms: C_10  and  C_23
    5  A    between atoms: O_12  and  N_17
    6  A    between atoms: O_12  and  C_18
    7  A    between atoms: C_13  and  C_16
    8  A    between atoms: C_13  and  C_24
    9  A    between atoms: C_14  and  N_17
   10  A    between atoms: C_14  and  C_21
   11  A    between atoms: C_18  and  C_27
                            x       y       z     vdW  Elec       q    Type
                         _______ _______ _______ _____ _____    ______ ____

>  <TORSDO>
F 11

$$$$
=
 OpenBabel10222420073D

 27 29  0  0  0  0  0  0  0  0999 V2000
  183.2010  179.0170  145.0910 C   0  0  0  0  0  3  0  0  0  0  0  0
  182.8110  178.6720  141.5890 O   0  0  0  0  0  0  0  0  0  0  0  0
  185.3950  178.4140  144.0100 C   0  0  0  0  0  0  0  0  0  0  0  0
  186.6470  178.2140  145.7150 C   0  0  0  0  0  0  0  0  0  0  0  0
  183.4010  178.6950  142.7010 C   0  0  0  0  0  0  0  0  0  0  0  0
  186.7170  178.1110  144.4140 N   0  0  0  0  0  0  0  0  0  0  0  0
  185.3510  178.5790  146.2350 N   0  0  0  0  0  0  0  0  0  0  0  0
  184.8620  178.4030  142.7860 C   0  0  0  0  0  0  0  0  0  0  0  0
  184.6270  178.6920  145.1780 C   0  0  0  0  0  0  0  0  0  0  0  0
  182.6500  179.0110  143.9070 N   0  0  0  0  0  0  0  0  0  0  0  0
  187.7520  177.9410  147.9750 C   0  0  0  0  0  3  0  0  0  0  0  0
  188.9500  177.5660  148.4560 N   0  0  0  0  0  2  0  0  0  0  0  0
  189.0370  177.5020  146.1880 C   0  0  0  0  0  3  0  0  0  0  0  0
  187.7840  177.9120  146.5950 C   0  0  0  0  0  0  0  0  0  0  0  0
  189.7160  177.3070  147.3790 C   0  0  0  0  0  0  0  0  0  0  0  0
  191.1160  176.8000  147.4780 C   0  0  0  0  0  2  0  0  0  0  0  0
  191.6110  176.3260  146.1180 C   0  0  0  0  0  2  0  0  0  0  0  0
  192.2740  175.1140  146.2440 F   0  0  0  0  0  0  0  0  0  0  0  0
  185.6760  178.0720  141.5650 C   0  0  0  0  0  2  0  0  0  0  0  0
  186.1720  179.2950  140.9420 N   0  0  0  0  0  2  0  0  0  0  0  0
  187.5240  179.2780  141.0460 O   0  0  0  0  0  0  0  0  0  0  0  0
  187.9020  178.0940  140.4050 C   0  0  0  0  0  2  0  0  0  0  0  0
  189.3580  178.2050  139.9710 C   0  0  0  0  0  2  0  0  0  0  0  0
  190.3180  176.8720  140.7410 S   0  0  0  0  0  0  0  0  0  0  0  0
  190.0840  177.5420  142.4160 C   0  0  0  0  0  2  0  0  0  0  0  0
  191.4120  178.0360  142.9780 C   0  0  0  0  0  2  0  0  0  0  0  0
  191.1710  179.2340  143.8860 C   0  0  0  0  0  1  0  0  0  0  0  0
  1  9  1  0  0  0  0
  2  5  2  0  0  0  0
  3  6  1  0  0  0  0
  3  9  1  0  0  0  0
  4  7  1  0  0  0  0
  4 14  1  0  0  0  0
  5  8  1  0  0  0  0
  5 10  1  0  0  0  0
  6  4  2  0  0  0  0
  8  3  2  0  0  0  0
  9  7  2  0  0  0  0
 10  1  2  0  0  0  0
 11 12  1  0  0  0  0
 13 14  1  0  0  0  0
 13 15  2  0  0  0  0
 14 11  2  0  0  0  0
 15 16  1  0  0  0  0
 15 12  1  0  0  0  0
 17 18  1  0  0  0  0
 17 16  1  0  0  0  0
 19  8  1  0  0  0  0
 20 21  1  0  0  0  0
 20 19  1  0  0  0  0
 22 21  1  0  0  0  0
 23 22  1  0  0  0  0
 23 24  1  0  0  0  0
 24 25  1  0  0  0  0
 25 26  1  0  0  0  0
 26 27  1  0  0  0  0
M  END
>  <MODEL>
2

>  <REMARK>
 VINA RESULT:      -7.1      3.558      6.477
  Name = 
  11 active torsions:
  status: ('A' for Active; 'I' for Inactive)
    1  A    between atoms: C_2  and  C_3
    2  A    between atoms: C_3  and  S_8
    3  A    between atoms: S_8  and  C_27
    4  A    between atoms: C_10  and  C_23
    5  A    between atoms: O_12  and  N_17
    6  A    between atoms: O_12  and  C_18
    7  A    between atoms: C_13  and  C_16
    8  A    between atoms: C_13  and  C_24
    9  A    between atoms: C_14  and  N_17
   10  A    between atoms: C_14  and  C_21
   11  A    between atoms: C_18  and  C_27
                            x       y       z     vdW  Elec       q    Type
                         _______ _______ _______ _____ _____    ______ ____

>  <TORSDO>
F 11

$$$$
=
 OpenBabel10222420073D

 27 29  0  0  1  0  0  0  0  0999 V2000
  188.5940  177.2730  147.6470 C   0  0  0  0  0  3  0  0  0  0  0  0
  191.9550  176.8550  146.6150 O   0  0  0  0  0  0  0  0  0  0  0  0
  188.7680  177.3650  145.1360 C   0  0  0  0  0  0  0  0  0  0  0  0
  186.7580  177.8050  144.6050 C   0  0  0  0  0  0  0  0  0  0  0  0
  190.7120  177.0190  146.5030 C   0  0  0  0  0  0  0  0  0  0  0  0
  187.9150  177.6020  144.0320 N   0  0  0  0  0  0  0  0  0  0  0  0
  186.7610  177.7160  146.0450 N   0  0  0  0  0  0  0  0  0  0  0  0
  190.0870  177.1570  145.1560 C   0  0  0  0  0  0  0  0  0  0  0  0
  187.9870  177.4470  146.3260 C   0  0  0  0  0  0  0  0  0  0  0  0
  189.8840  177.0710  147.6990 N   0  0  0  0  0  0  0  0  0  0  0  0
  184.3920  178.6770  144.3970 C   0  0  0  0  0  3  0  0  0  0  0  0
  183.5140  178.9420  143.4130 N   0  0  0  0  0  0  0  0  0  0  0  0
  185.4110  178.1160  142.4770 C   0  0  0  0  0  3  0  0  0  0  0  0
  185.5540  178.1700  143.8480 C   0  0  1  0  0  3  0  0  0  0  0  0
  184.1310  178.6020  142.2660 C   0  0  0  0  0  0  0  0  0  0  0  0
  183.5140  178.7960  140.9210 C   0  0  0  0  0  2  0  0  0  0  0  0
  184.5920  178.9590  139.8570 C   0  0  0  0  0  2  0  0  0  0  0  0
  184.2590  179.9900  138.9900 F   0  0  0  0  0  0  0  0  0  0  0  0
  190.9050  177.1080  143.8940 C   0  0  0  0  0  2  0  0  0  0  0  0
  190.8470  175.7750  143.3060 N   0  0  0  0  0  2  0  0  0  0  0  0
  190.2350  175.8950  142.1020 O   0  0  0  0  0  0  0  0  0  0  0  0
  190.7810  177.0590  141.5540 C   0  0  0  0  0  2  0  0  0  0  0  0
  190.2500  177.2400  140.1370 C   0  0  0  0  0  2  0  0  0  0  0  0
  188.6370  178.0670  140.2000 S   0  0  0  0  0  0  0  0  0  0  0  0
  188.0800  177.3060  138.6450 C   0  0  0  0  0  2  0  0  0  0  0  0
  187.8090  178.3790  137.5980 C   0  0  0  0  0  2  0  0  0  0  0  0
  189.0140  178.5170  136.6790 C   0  0  0  0  0  1  0  0  0  0  0  0
  1 10  2  0  0  0  0
  3  8  2  0  0  0  0
  3  9  1  0  0  0  0
  4  7  1  0  0  0  0
  5  2  2  0  0  0  0
  5 10  1  0  0  0  0
  6  4  2  0  0  0  0
  6  3  1  0  0  0  0
  7  9  2  0  0  0  0
  8  5  1  0  0  0  0
  9  1  1  0  0  0  0
 12 11  2  0  0  0  0
 13 14  1  0  0  0  0
 14 11  1  0  0  0  0
 14  4  1  6  0  0  0
 15 13  2  0  0  0  0
 15 12  1  0  0  0  0
 16 15  1  0  0  0  0
 17 16  1  0  0  0  0
 18 17  1  0  0  0  0
 19  8  1  0  0  0  0
 20 19  1  0  0  0  0
 21 20  1  0  0  0  0
 22 21  1  0  0  0  0
 23 24  1  0  0  0  0
 23 22  1  0  0  0  0
 25 24  1  0  0  0  0
 26 25  1  0  0  0  0
 27 26  1  0  0  0  0
M  END
>  <MODEL>
3

>  <REMARK>
 VINA RESULT:      -7.1      2.209      2.638
  Name = 
  11 active torsions:
  status: ('A' for Active; 'I' for Inactive)
    1  A    between atoms: C_2  and  C_3
    2  A    between atoms: C_3  and  S_8
    3  A    between atoms: S_8  and  C_27
    4  A    between atoms: C_10  and  C_23
    5  A    between atoms: O_12  and  N_17
    6  A    between atoms: O_12  and  C_18
    7  A    between atoms: C_13  and  C_16
    8  A    between atoms: C_13  and  C_24
    9  A    between atoms: C_14  and  N_17
   10  A    between atoms: C_14  and  C_21
   11  A    between atoms: C_18  and  C_27
                            x       y       z     vdW  Elec       q    Type
                         _______ _______ _______ _____ _____    ______ ____

>  <TORSDO>
F 11

$$$$
=
 OpenBabel10222420073D

 27 29  0  0  0  0  0  0  0  0999 V2000
  183.3650  178.9030  145.1320 C   0  0  0  0  0  3  0  0  0  0  0  0
  182.3430  178.8410  141.7430 O   0  0  0  0  0  0  0  0  0  0  0  0
  185.3130  178.3680  143.6290 C   0  0  0  0  0  0  0  0  0  0  0  0
  186.8470  178.0220  145.0580 C   0  0  0  0  0  0  0  0  0  0  0  0
  183.1240  178.7700  142.7270 C   0  0  0  0  0  0  0  0  0  0  0  0
  186.6790  178.0220  143.7630 N   0  0  0  0  0  0  0  0  0  0  0  0
  185.6740  178.3570  145.8310 N   0  0  0  0  0  0  0  0  0  0  0  0
  184.5690  178.4590  142.5240 C   0  0  0  0  0  0  0  0  0  0  0  0
  184.7740  178.5600  144.9340 C   0  0  0  0  0  0  0  0  0  0  0  0
  182.6100  178.9970  144.0700 N   0  0  0  0  0  0  0  0  0  0  0  0
  188.2740  177.3170  147.0260 C   0  0  0  0  0  3  0  0  0  0  0  0
  189.5540  176.9730  147.2510 N   0  0  0  0  0  2  0  0  0  0  0  0
  189.3290  177.4940  145.0520 C   0  0  0  0  0  3  0  0  0  0  0  0
  188.1160  177.6410  145.6920 C   0  0  0  0  0  0  0  0  0  0  0  0
  190.1810  177.0840  146.0650 C   0  0  0  0  0  0  0  0  0  0  0  0
  191.6170  176.7330  145.8670 C   0  0  0  0  0  2  0  0  0  0  0  0
  192.0470  175.6560  146.8560 C   0  0  0  0  0  2  0  0  0  0  0  0
  192.6180  176.2360  147.9800 F   0  0  0  0  0  0  0  0  0  0  0  0
  185.1420  178.2180  141.1540 C   0  0  0  0  0  2  0  0  0  0  0  0
  185.4640  179.4870  140.5120 N   0  0  0  0  0  2  0  0  0  0  0  0
  185.1100  179.3770  139.2080 O   0  0  0  0  0  0  0  0  0  0  0  0
  185.5680  178.1100  138.8340 C   0  0  0  0  0  2  0  0  0  0  0  0
  186.6740  178.2660  137.7970 C   0  0  0  0  0  2  0  0  0  0  0  0
  188.0840  177.2240  138.2620 S   0  0  0  0  0  0  0  0  0  0  0  0
  188.7070  178.4390  139.4630 C   0  0  0  0  0  2  0  0  0  0  0  0
  188.8610  177.7960  140.8360 C   0  0  0  0  0  2  0  0  0  0  0  0
  190.1300  176.9560  140.8710 C   0  0  0  0  0  1  0  0  0  0  0  0
  2  5  2  0  0  0  0
  3  6  1  0  0  0  0
  3  9  1  0  0  0  0
  4 14  1  0  0  0  0
  4  7  1  0  0  0  0
  5 10  1  0  0  0  0
  6  4  2  0  0  0  0
  8  5  1  0  0  0  0
  8  3  2  0  0  0  0
  9  1  1  0  0  0  0
  9  7  2  0  0  0  0
 10  1  2  0  0  0  0
 11 12  1  0  0  0  0
 13 14  1  0  0  0  0
 13 15  2  0  0  0  0
 14 11  2  0  0  0  0
 15 12  1  0  0  0  0
 16 15  1  0  0  0  0
 16 17  1  0  0  0  0
 17 18  1  0  0  0  0
 19  8  1  0  0  0  0
 20 19  1  0  0  0  0
 21 20  1  0  0  0  0
 22 21  1  0  0  0  0
 23 24  1  0  0  0  0
 23 22  1  0  0  0  0
 24 25  1  0  0  0  0
 25 26  1  0  0  0  0
 26 27  1  0  0  0  0
M  END
>  <MODEL>
4

>  <REMARK>
 VINA RESULT:      -7.1      4.019      6.812
  Name = 
  11 active torsions:
  status: ('A' for Active; 'I' for Inactive)
    1  A    between atoms: C_2  and  C_3
    2  A    between atoms: C_3  and  S_8
    3  A    between atoms: S_8  and  C_27
    4  A    between atoms: C_10  and  C_23
    5  A    between atoms: O_12  and  N_17
    6  A    between atoms: O_12  and  C_18
    7  A    between atoms: C_13  and  C_16
    8  A    between atoms: C_13  and  C_24
    9  A    between atoms: C_14  and  N_17
   10  A    between atoms: C_14  and  C_21
   11  A    between atoms: C_18  and  C_27
                            x       y       z     vdW  Elec       q    Type
                         _______ _______ _______ _____ _____    ______ ____

>  <TORSDO>
F 11

$$$$
=
 OpenBabel10222420073D

 27 29  0  0  1  0  0  0  0  0999 V2000
  187.7140  177.8860  148.2460 C   0  0  0  0  0  3  0  0  0  0  0  0
  191.1470  177.2010  147.7210 O   0  0  0  0  0  0  0  0  0  0  0  0
  188.1900  177.5770  145.7920 C   0  0  0  0  0  0  0  0  0  0  0  0
  186.2840  177.9930  144.9520 C   0  0  0  0  0  0  0  0  0  0  0  0
  189.9370  177.3870  147.4300 C   0  0  0  0  0  0  0  0  0  0  0  0
  187.4890  177.6650  144.5670 N   0  0  0  0  0  0  0  0  0  0  0  0
  186.1090  178.1310  146.3780 N   0  0  0  0  0  0  0  0  0  0  0  0
  189.4850  177.3320  146.0090 C   0  0  0  0  0  0  0  0  0  0  0  0
  187.2780  177.8700  146.8480 C   0  0  0  0  0  0  0  0  0  0  0  0
  188.9750  177.6520  148.4900 N   0  0  0  0  0  0  0  0  0  0  0  0
  183.9990  178.8800  144.3220 C   0  0  0  0  0  3  0  0  0  0  0  0
  183.2620  179.0230  143.2060 N   0  0  0  0  0  0  0  0  0  0  0  0
  185.2260  178.0300  142.6450 C   0  0  0  0  0  3  0  0  0  0  0  0
  185.1980  178.2750  144.0020 C   0  0  1  0  0  3  0  0  0  0  0  0
  184.0030  178.5090  142.2060 C   0  0  0  0  0  0  0  0  0  0  0  0
  183.5670  178.5250  140.7790 C   0  0  0  0  0  2  0  0  0  0  0  0
  184.6170  179.2010  139.9060 C   0  0  0  0  0  2  0  0  0  0  0  0
  184.5000  178.7670  138.5930 F   0  0  0  0  0  0  0  0  0  0  0  0
  190.4440  177.0600  144.8820 C   0  0  0  0  0  2  0  0  0  0  0  0
  191.0580  178.3030  144.4300 N   0  0  0  0  0  2  0  0  0  0  0  0
  191.8740  177.9930  143.3930 O   0  0  0  0  0  0  0  0  0  0  0  0
  191.0350  177.3470  142.4790 C   0  0  0  0  0  2  0  0  0  0  0  0
  191.6910  177.3640  141.1030 C   0  0  0  0  0  2  0  0  0  0  0  0
  190.5100  176.7550  139.8680 S   0  0  0  0  0  0  0  0  0  0  0  0
  189.0720  177.3420  140.8140 C   0  0  0  0  0  2  0  0  0  0  0  0
  188.2750  178.3510  139.9960 C   0  0  0  0  0  2  0  0  0  0  0  0
  189.0290  178.6840  138.7160 C   0  0  0  0  0  1  0  0  0  0  0  0
  1 10  2  0  0  0  0
  3  8  2  0  0  0  0
  3  9  1  0  0  0  0
  4  7  1  0  0  0  0
  5  2  2  0  0  0  0
  5 10  1  0  0  0  0
  6  4  2  0  0  0  0
  6  3  1  0  0  0  0
  7  9  2  0  0  0  0
  8  5  1  0  0  0  0
  9  1  1  0  0  0  0
 12 11  2  0  0  0  0
 13 14  1  0  0  0  0
 14 11  1  0  0  0  0
 14  4  1  6  0  0  0
 15 13  2  0  0  0  0
 15 12  1  0  0  0  0
 16 15  1  0  0  0  0
 17 16  1  0  0  0  0
 18 17  1  0  0  0  0
 19  8  1  0  0  0  0
 20 19  1  0  0  0  0
 21 20  1  0  0  0  0
 22 21  1  0  0  0  0
 23 22  1  0  0  0  0
 24 25  1  0  0  0  0
 24 23  1  0  0  0  0
 26 25  1  0  0  0  0
 27 26  1  0  0  0  0
M  END
>  <MODEL>
5

>  <REMARK>
 VINA RESULT:      -7.1      1.836      2.167
  Name = 
  11 active torsions:
  status: ('A' for Active; 'I' for Inactive)
    1  A    between atoms: C_2  and  C_3
    2  A    between atoms: C_3  and  S_8
    3  A    between atoms: S_8  and  C_27
    4  A    between atoms: C_10  and  C_23
    5  A    between atoms: O_12  and  N_17
    6  A    between atoms: O_12  and  C_18
    7  A    between atoms: C_13  and  C_16
    8  A    between atoms: C_13  and  C_24
    9  A    between atoms: C_14  and  N_17
   10  A    between atoms: C_14  and  C_21
   11  A    between atoms: C_18  and  C_27
                            x       y       z     vdW  Elec       q    Type
                         _______ _______ _______ _____ _____    ______ ____

>  <TORSDO>
F 11

$$$$
=
 OpenBabel10222420073D

 27 29  0  0  0  0  0  0  0  0999 V2000
  181.4690  179.3980  143.2500 C   0  0  0  0  0  3  0  0  0  0  0  0
  181.6290  178.6460  139.7950 O   0  0  0  0  0  0  0  0  0  0  0  0
  183.7810  178.6230  142.6180 C   0  0  0  0  0  0  0  0  0  0  0  0
  184.7360  178.6020  144.5160 C   0  0  0  0  0  0  0  0  0  0  0  0
  182.0350  178.7880  140.9770 C   0  0  0  0  0  0  0  0  0  0  0  0
  185.0080  178.3430  143.2650 N   0  0  0  0  0  0  0  0  0  0  0  0
  183.3890  179.0540  144.7730 N   0  0  0  0  0  0  0  0  0  0  0  0
  183.4500  178.4780  141.3330 C   0  0  0  0  0  0  0  0  0  0  0  0
  182.8480  179.0550  143.6060 C   0  0  0  0  0  0  0  0  0  0  0  0
  181.1140  179.2630  142.0000 N   0  0  0  0  0  0  0  0  0  0  0  0
  185.6530  178.9750  146.8450 C   0  0  0  0  0  3  0  0  0  0  0  0
  186.6660  178.5140  147.6000 N   0  0  0  0  0  2  0  0  0  0  0  0
  186.7770  177.5170  145.5620 C   0  0  0  0  0  3  0  0  0  0  0  0
  185.7040  178.3820  145.5990 C   0  0  0  0  0  0  0  0  0  0  0  0
  187.3370  177.6420  146.8230 C   0  0  0  0  0  0  0  0  0  0  0  0
  188.5090  176.8570  147.3070 C   0  0  0  0  0  2  0  0  0  0  0  0
  189.8030  177.4160  146.7300 C   0  0  0  0  0  2  0  0  0  0  0  0
  190.6360  176.3820  146.3270 F   0  0  0  0  0  0  0  0  0  0  0  0
  184.4350  177.9860  140.3080 C   0  0  0  0  0  2  0  0  0  0  0  0
  185.2530  179.0920  139.8220 N   0  0  0  0  0  2  0  0  0  0  0  0
  186.3680  178.5530  139.2700 O   0  0  0  0  0  0  0  0  0  0  0  0
  187.2820  178.5000  140.3260 C   0  0  0  0  0  2  0  0  0  0  0  0
  188.6920  178.3800  139.7600 C   0  0  0  0  0  2  0  0  0  0  0  0
  189.6060  177.1160  140.6870 S   0  0  0  0  0  0  0  0  0  0  0  0
  188.6350  177.3890  142.2010 C   0  0  0  0  0  2  0  0  0  0  0  0
  188.9870  176.3430  143.2520 C   0  0  0  0  0  2  0  0  0  0  0  0
  190.2750  175.6340  142.8590 C   0  0  0  0  0  1  0  0  0  0  0  0
  1  9  1  0  0  0  0
  2  5  2  0  0  0  0
  3  6  1  0  0  0  0
  3  9  1  0  0  0  0
  4  7  1  0  0  0  0
  4 14  1  0  0  0  0
  5  8  1  0  0  0  0
  5 10  1  0  0  0  0
  6  4  2  0  0  0  0
  8  3  2  0  0  0  0
  9  7  2  0  0  0  0
 10  1  2  0  0  0  0
 11 12  1  0  0  0  0
 13 14  1  0  0  0  0
 13 15  2  0  0  0  0
 14 11  2  0  0  0  0
 15 16  1  0  0  0  0
 15 12  1  0  0  0  0
 17 16  1  0  0  0  0
 18 17  1  0  0  0  0
 19  8  1  0  0  0  0
 20 19  1  0  0  0  0
 21 20  1  0  0  0  0
 21 22  1  0  0  0  0
 23 22  1  0  0  0  0
 23 24  1  0  0  0  0
 24 25  1  0  0  0  0
 25 26  1  0  0  0  0
 27 26  1  0  0  0  0
M  END
>  <MODEL>
6

>  <REMARK>
 VINA RESULT:      -6.9      3.697      6.618
  Name = 
  11 active torsions:
  status: ('A' for Active; 'I' for Inactive)
    1  A    between atoms: C_2  and  C_3
    2  A    between atoms: C_3  and  S_8
    3  A    between atoms: S_8  and  C_27
    4  A    between atoms: C_10  and  C_23
    5  A    between atoms: O_12  and  N_17
    6  A    between atoms: O_12  and  C_18
    7  A    between atoms: C_13  and  C_16
    8  A    between atoms: C_13  and  C_24
    9  A    between atoms: C_14  and  N_17
   10  A    between atoms: C_14  and  C_21
   11  A    between atoms: C_18  and  C_27
                            x       y       z     vdW  Elec       q    Type
                         _______ _______ _______ _____ _____    ______ ____

>  <TORSDO>
F 11

$$$$
=
 OpenBabel10222420073D

 27 29  0  0  0  0  0  0  0  0999 V2000
  182.2390  179.0010  143.9100 C   0  0  0  0  0  3  0  0  0  0  0  0
  181.1140  179.0200  140.5540 O   0  0  0  0  0  0  0  0  0  0  0  0
  184.1320  178.4640  142.3380 C   0  0  0  0  0  0  0  0  0  0  0  0
  185.7030  178.0680  143.7130 C   0  0  0  0  0  0  0  0  0  0  0  0
  181.9230  178.9180  141.5120 C   0  0  0  0  0  0  0  0  0  0  0  0
  185.4950  178.0950  142.4240 N   0  0  0  0  0  0  0  0  0  0  0  0
  184.5600  178.4050  144.5280 N   0  0  0  0  0  0  0  0  0  0  0  0
  183.3560  178.5880  141.2590 C   0  0  0  0  0  0  0  0  0  0  0  0
  183.6360  178.6390  143.6630 C   0  0  0  0  0  0  0  0  0  0  0  0
  181.4540  179.1270  142.8740 N   0  0  0  0  0  0  0  0  0  0  0  0
  188.0360  177.0950  143.6020 C   0  0  0  0  0  3  0  0  0  0  0  0
  189.0650  176.8830  144.4420 N   0  0  0  0  0  2  0  0  0  0  0  0
  187.3560  177.8050  145.6200 C   0  0  0  0  0  3  0  0  0  0  0  0
  186.9840  177.6540  144.3010 C   0  0  0  0  0  0  0  0  0  0  0  0
  188.6490  177.3090  145.6500 C   0  0  0  0  0  0  0  0  0  0  0  0
  189.5220  177.3020  146.8600 C   0  0  0  0  0  2  0  0  0  0  0  0
  188.7360  177.7380  148.0890 C   0  0  0  0  0  2  0  0  0  0  0  0
  189.4850  178.6250  148.8500 F   0  0  0  0  0  0  0  0  0  0  0  0
  183.8840  178.3650  139.8680 C   0  0  0  0  0  2  0  0  0  0  0  0
  184.7790  179.4520  139.4880 N   0  0  0  0  0  2  0  0  0  0  0  0
  185.4520  179.0480  138.3820 O   0  0  0  0  0  0  0  0  0  0  0  0
  186.4860  178.2500  138.8830 C   0  0  0  0  0  2  0  0  0  0  0  0
  187.3840  177.8160  137.7300 C   0  0  0  0  0  2  0  0  0  0  0  0
  189.0740  178.4020  138.0330 S   0  0  0  0  0  0  0  0  0  0  0  0
  188.9440  178.1420  139.8290 C   0  0  0  0  0  2  0  0  0  0  0  0
  189.9670  177.1120  140.2910 C   0  0  0  0  0  2  0  0  0  0  0  0
  190.6890  176.5280  139.0840 C   0  0  0  0  0  1  0  0  0  0  0  0
  2  5  2  0  0  0  0
  3  6  1  0  0  0  0
  3  9  1  0  0  0  0
  4 14  1  0  0  0  0
  4  7  1  0  0  0  0
  5 10  1  0  0  0  0
  6  4  2  0  0  0  0
  8  5  1  0  0  0  0
  8  3  2  0  0  0  0
  9  1  1  0  0  0  0
  9  7  2  0  0  0  0
 10  1  2  0  0  0  0
 11 14  2  0  0  0  0
 11 12  1  0  0  0  0
 12 15  1  0  0  0  0
 13 15  2  0  0  0  0
 14 13  1  0  0  0  0
 15 16  1  0  0  0  0
 16 17  1  0  0  0  0
 17 18  1  0  0  0  0
 19  8  1  0  0  0  0
 20 19  1  0  0  0  0
 21 22  1  0  0  0  0
 21 20  1  0  0  0  0
 23 24  1  0  0  0  0
 23 22  1  0  0  0  0
 24 25  1  0  0  0  0
 25 26  1  0  0  0  0
 27 26  1  0  0  0  0
M  END
>  <MODEL>
7

>  <REMARK>
 VINA RESULT:      -6.8      3.853      6.651
  Name = 
  11 active torsions:
  status: ('A' for Active; 'I' for Inactive)
    1  A    between atoms: C_2  and  C_3
    2  A    between atoms: C_3  and  S_8
    3  A    between atoms: S_8  and  C_27
    4  A    between atoms: C_10  and  C_23
    5  A    between atoms: O_12  and  N_17
    6  A    between atoms: O_12  and  C_18
    7  A    between atoms: C_13  and  C_16
    8  A    between atoms: C_13  and  C_24
    9  A    between atoms: C_14  and  N_17
   10  A    between atoms: C_14  and  C_21
   11  A    between atoms: C_18  and  C_27
                            x       y       z     vdW  Elec       q    Type
                         _______ _______ _______ _____ _____    ______ ____

>  <TORSDO>
F 11

$$$$
=
 OpenBabel10222420073D

 27 29  0  0  1  0  0  0  0  0999 V2000
  184.0540  178.8210  145.2360 C   0  0  0  0  0  3  0  0  0  0  0  0
  181.8930  178.9940  142.4380 O   0  0  0  0  0  0  0  0  0  0  0  0
  185.3090  178.3010  143.1150 C   0  0  0  0  0  0  0  0  0  0  0  0
  187.2280  177.8160  143.8860 C   0  0  0  0  0  0  0  0  0  0  0  0
  182.9680  178.8370  143.0740 C   0  0  0  0  0  0  0  0  0  0  0  0
  186.6110  177.8970  142.7370 N   0  0  0  0  0  0  0  0  0  0  0  0
  186.4280  178.1480  145.0390 N   0  0  0  0  0  0  0  0  0  0  0  0
  184.2270  178.4840  142.3550 C   0  0  0  0  0  0  0  0  0  0  0  0
  185.2800  178.4370  144.5330 C   0  0  0  0  0  0  0  0  0  0  0  0
  182.9780  179.0040  144.5190 N   0  0  0  0  0  0  0  0  0  0  0  0
  189.4740  177.1190  142.9500 C   0  0  0  0  0  3  0  0  0  0  0  0
  190.6760  176.7480  143.4250 N   0  0  0  0  0  0  0  0  0  0  0  0
  189.2940  177.1250  145.1870 C   0  0  0  0  0  3  0  0  0  0  0  0
  188.6160  177.3510  144.0080 C   0  0  1  0  0  3  0  0  0  0  0  0
  190.5600  176.7510  144.7660 C   0  0  0  0  0  0  0  0  0  0  0  0
  191.6980  176.4500  145.6830 C   0  0  0  0  0  2  0  0  0  0  0  0
  191.2480  176.5210  147.1370 C   0  0  0  0  0  2  0  0  0  0  0  0
  191.3070  175.2620  147.7190 F   0  0  0  0  0  0  0  0  0  0  0  0
  184.2620  178.3020  140.8610 C   0  0  0  0  0  2  0  0  0  0  0  0
  184.9670  179.4140  140.2340 N   0  0  0  0  0  2  0  0  0  0  0  0
  184.9080  179.2200  138.8930 O   0  0  0  0  0  0  0  0  0  0  0  0
  185.9250  178.2950  138.6360 C   0  0  0  0  0  2  0  0  0  0  0  0
  185.5380  177.4510  137.4270 C   0  0  0  0  0  2  0  0  0  0  0  0
  186.9340  177.3850  136.2700 S   0  0  0  0  0  0  0  0  0  0  0  0
  187.7470  176.0370  137.1810 C   0  0  0  0  0  2  0  0  0  0  0  0
  189.0400  176.5320  137.8170 C   0  0  0  0  0  2  0  0  0  0  0  0
  189.4230  177.8790  137.2210 C   0  0  0  0  0  1  0  0  0  0  0  0
  2  5  2  0  0  0  0
  3  9  1  0  0  0  0
  4  7  1  0  0  0  0
  5 10  1  0  0  0  0
  6  3  1  0  0  0  0
  6  4  2  0  0  0  0
  8  5  1  0  0  0  0
  8  3  2  0  0  0  0
  9  7  2  0  0  0  0
  9  1  1  0  0  0  0
 10  1  2  0  0  0  0
 11 12  2  0  0  0  0
 11 14  1  0  0  0  0
 12 15  1  0  0  0  0
 14  4  1  1  0  0  0
 14 13  1  0  0  0  0
 15 13  2  0  0  0  0
 15 16  1  0  0  0  0
 16 17  1  0  0  0  0
 17 18  1  0  0  0  0
 19  8  1  0  0  0  0
 20 19  1  0  0  0  0
 21 20  1  0  0  0  0
 22 21  1  0  0  0  0
 23 22  1  0  0  0  0
 24 25  1  0  0  0  0
 24 23  1  0  0  0  0
 25 26  1  0  0  0  0
 27 26  1  0  0  0  0
M  END
>  <MODEL>
8

>  <REMARK>
 VINA RESULT:      -6.6      4.207      6.872
  Name = 
  11 active torsions:
  status: ('A' for Active; 'I' for Inactive)
    1  A    between atoms: C_2  and  C_3
    2  A    between atoms: C_3  and  S_8
    3  A    between atoms: S_8  and  C_27
    4  A    between atoms: C_10  and  C_23
    5  A    between atoms: O_12  and  N_17
    6  A    between atoms: O_12  and  C_18
    7  A    between atoms: C_13  and  C_16
    8  A    between atoms: C_13  and  C_24
    9  A    between atoms: C_14  and  N_17
   10  A    between atoms: C_14  and  C_21
   11  A    between atoms: C_18  and  C_27
                            x       y       z     vdW  Elec       q    Type
                         _______ _______ _______ _____ _____    ______ ____

>  <TORSDO>
F 11

$$$$
=
 OpenBabel10222420073D

 27 29  0  0  1  0  0  0  0  0999 V2000
  184.3820  178.7630  146.0330 C   0  0  0  0  0  3  0  0  0  0  0  0
  182.1740  179.0870  143.2850 O   0  0  0  0  0  0  0  0  0  0  0  0
  185.5750  178.2570  143.8740 C   0  0  0  0  0  0  0  0  0  0  0  0
  187.4910  177.6840  144.5930 C   0  0  0  0  0  0  0  0  0  0  0  0
  183.2540  178.8750  143.8950 C   0  0  0  0  0  0  0  0  0  0  0  0
  186.8550  177.8170  143.4590 N   0  0  0  0  0  0  0  0  0  0  0  0
  186.7250  178.0130  145.7710 N   0  0  0  0  0  0  0  0  0  0  0  0
  184.4850  178.4970  143.1410 C   0  0  0  0  0  0  0  0  0  0  0  0
  185.5790  178.3550  145.2960 C   0  0  0  0  0  0  0  0  0  0  0  0
  183.2990  179.0030  145.3440 N   0  0  0  0  0  0  0  0  0  0  0  0
  189.6020  176.6990  143.6050 C   0  0  0  0  0  3  0  0  0  0  0  0
  190.8290  176.3490  144.0310 N   0  0  0  0  0  0  0  0  0  0  0  0
  189.6440  177.1160  145.8100 C   0  0  0  0  0  3  0  0  0  0  0  0
  188.8630  177.1670  144.6740 C   0  0  1  0  0  3  0  0  0  0  0  0
  190.8460  176.6000  145.3540 C   0  0  0  0  0  0  0  0  0  0  0  0
  192.0550  176.4010  146.2050 C   0  0  0  0  0  2  0  0  0  0  0  0
  191.6560  175.9680  147.6100 C   0  0  0  0  0  2  0  0  0  0  0  0
  192.7860  175.6880  148.3660 F   0  0  0  0  0  0  0  0  0  0  0  0
  184.4850  178.3550  141.6430 C   0  0  0  0  0  2  0  0  0  0  0  0
  185.2660  179.4260  141.0340 N   0  0  0  0  0  2  0  0  0  0  0  0
  184.9250  179.4730  139.7220 O   0  0  0  0  0  0  0  0  0  0  0  0
  183.5530  179.2020  139.7150 C   0  0  0  0  0  2  0  0  0  0  0  0
  182.8680  180.1300  138.7190 C   0  0  0  0  0  2  0  0  0  0  0  0
  181.0790  179.8290  138.7500 S   0  0  0  0  0  0  0  0  0  0  0  0
  181.1940  178.7280  140.1940 C   0  0  0  0  0  2  0  0  0  0  0  0
  180.2250  177.5610  140.0480 C   0  0  0  0  0  2  0  0  0  0  0  0
  180.8000  176.5330  139.0850 C   0  0  0  0  0  1  0  0  0  0  0  0
  2  5  2  0  0  0  0
  3  9  1  0  0  0  0
  4  7  1  0  0  0  0
  5 10  1  0  0  0  0
  6  3  1  0  0  0  0
  6  4  2  0  0  0  0
  8  3  2  0  0  0  0
  8  5  1  0  0  0  0
  9  7  2  0  0  0  0
  9  1  1  0  0  0  0
 10  1  2  0  0  0  0
 11 12  2  0  0  0  0
 11 14  1  0  0  0  0
 12 15  1  0  0  0  0
 14  4  1  6  0  0  0
 14 13  1  0  0  0  0
 15 13  2  0  0  0  0
 15 16  1  0  0  0  0
 16 17  1  0  0  0  0
 17 18  1  0  0  0  0
 19  8  1  0  0  0  0
 20 19  1  0  0  0  0
 21 20  1  0  0  0  0
 22 21  1  0  0  0  0
 23 24  1  0  0  0  0
 23 22  1  0  0  0  0
 24 25  1  0  0  0  0
 26 25  1  0  0  0  0
 27 26  1  0  0  0  0
M  END
>  <MODEL>
9

>  <REMARK>
 VINA RESULT:      -6.6      4.674      7.592
  Name = 
  11 active torsions:
  status: ('A' for Active; 'I' for Inactive)
    1  A    between atoms: C_2  and  C_3
    2  A    between atoms: C_3  and  S_8
    3  A    between atoms: S_8  and  C_27
    4  A    between atoms: C_10  and  C_23
    5  A    between atoms: O_12  and  N_17
    6  A    between atoms: O_12  and  C_18
    7  A    between atoms: C_13  and  C_16
    8  A    between atoms: C_13  and  C_24
    9  A    between atoms: C_14  and  N_17
   10  A    between atoms: C_14  and  C_21
   11  A    between atoms: C_18  and  C_27
                            x       y       z     vdW  Elec       q    Type
                         _______ _______ _______ _____ _____    ______ ____

>  <TORSDO>
F 11

$$$$
