=
 OpenBabel10222416463D

 45 50  0  0  1  0  0  0  0  0999 V2000
  181.5380  178.9090  141.1840 C   0  0  0  0  0  3  0  0  0  0  0  0
  183.8320  178.1700  141.3710 C   0  0  0  0  0  3  0  0  0  0  0  0
  183.8200  178.4450  142.7440 C   0  0  0  0  0  0  0  0  0  0  0  0
  181.5090  179.1920  142.5570 C   0  0  0  0  0  0  0  0  0  0  0  0
  182.6540  178.9560  143.3290 C   0  0  0  0  0  3  0  0  0  0  0  0
  182.6920  178.3990  140.5870 C   0  0  0  0  0  0  0  0  0  0  0  0
  191.0500  176.9520  147.2640 C   0  0  0  0  0  3  0  0  0  0  0  0
  187.0030  178.1370  147.7510 O   0  0  0  0  0  1  0  0  0  0  0  0
  188.5270  177.2360  143.9100 C   0  0  0  0  0  3  0  0  0  0  0  0
  187.2030  177.6310  144.0900 C   0  0  0  0  0  0  0  0  0  0  0  0
  187.5210  177.8350  146.4960 C   0  0  0  0  0  0  0  0  0  0  0  0
  191.5360  176.6570  145.9860 C   0  0  0  0  0  3  0  0  0  0  0  0
  185.0170  178.1900  143.5630 C   0  0  0  0  0  0  0  0  0  0  0  0
  189.3640  177.1380  145.0340 C   0  0  0  0  0  0  0  0  0  0  0  0
  186.7200  177.9220  145.3570 C   0  0  0  0  0  0  0  0  0  0  0  0
  189.7200  177.3420  147.4390 C   0  0  0  0  0  3  0  0  0  0  0  0
  188.8630  177.4390  146.3340 C   0  0  0  0  0  0  0  0  0  0  0  0
  190.6950  176.7490  144.8740 C   0  0  0  0  0  3  0  0  0  0  0  0
  186.2590  177.7770  143.0680 C   0  0  0  0  0  3  0  0  0  0  0  0
  185.1060  178.3680  145.2470 S   0  0  0  0  0  0  0  0  0  0  0  0
  179.6230  179.0000  144.2090 N   0  0  0  0  0  1  0  0  0  0  0  0
  180.2870  179.7270  143.1800 C   0  0  0  0  0  0  0  0  0  0  0  0
  179.8140  180.8340  142.8050 O   0  0  0  0  0  0  0  0  0  0  0  0
  182.6880  178.1170  139.1850 N   0  0  0  0  0  2  0  0  0  0  0  0
  181.6720  175.9130  139.4030 C   0  0  0  0  0  1  0  0  0  0  0  0
  182.6610  176.7670  138.6310 C   0  0  1  0  0  3  0  0  0  0  0  0
  182.2360  176.8200  137.1770 C   0  0  0  0  0  2  0  0  0  0  0  0
  183.1890  176.0910  136.3530 N   0  0  0  0  0  2  0  0  0  0  0  0
  185.1710  177.5230  136.2160 C   0  0  0  0  0  3  0  0  0  0  0  0
  187.3960  176.6620  136.6580 C   0  0  0  0  0  0  0  0  0  0  0  0
  184.6070  176.2620  136.4570 C   0  0  0  0  0  0  0  0  0  0  0  0
  186.8340  175.4000  136.8990 C   0  0  0  0  0  3  0  0  0  0  0  0
  185.4550  175.1780  136.8030 C   0  0  0  0  0  0  0  0  0  0  0  0
  186.5470  177.7220  136.3140 C   0  0  0  0  0  3  0  0  0  0  0  0
  189.8910  176.9500  139.4220 C   0  0  0  0  0  2  0  0  0  0  0  0
  189.4880  178.2520  138.7260 C   0  0  2  0  0  3  0  0  0  0  0  0
  190.8370  176.2050  135.4960 C   0  0  0  0  0  1  0  0  0  0  0  0
  189.7510  175.7760  136.4720 C   0  0  2  0  0  3  0  0  0  0  0  0
  188.2980  178.7260  139.2760 O   0  0  0  0  0  1  0  0  0  0  0  0
  189.3620  178.1590  137.2020 C   0  0  0  0  0  2  0  0  0  0  0  0
  188.8180  176.8690  136.7660 N   0  0  0  0  0  0  0  0  0  0  0  0
  190.3430  175.1630  137.7440 C   0  0  0  0  0  2  0  0  0  0  0  0
  190.9800  176.1920  138.6740 C   0  0  0  0  0  2  0  0  0  0  0  0
  185.0040  173.8740  137.0580 O   0  0  0  0  0  0  0  0  0  0  0  0
  185.7600  172.8560  137.6980 C   0  0  0  0  0  1  0  0  0  0  0  0
  1  4  1  0  0  0  0
  2  3  2  0  0  0  0
  3  5  1  0  0  0  0
  3 13  1  0  0  0  0
  4 22  1  0  0  0  0
  4  5  2  0  0  0  0
  6  1  2  0  0  0  0
  6  2  1  0  0  0  0
  7 16  1  0  0  0  0
  9 10  2  0  0  0  0
  9 14  1  0  0  0  0
 10 15  1  0  0  0  0
 11  8  1  0  0  0  0
 12  7  2  0  0  0  0
 13 20  1  0  0  0  0
 14 17  1  0  0  0  0
 15 11  2  0  0  0  0
 17 11  1  0  0  0  0
 17 16  2  0  0  0  0
 18 14  2  0  0  0  0
 18 12  1  0  0  0  0
 19 13  2  0  0  0  0
 19 10  1  0  0  0  0
 20 15  1  0  0  0  0
 22 21  1  0  0  0  0
 23 22  2  0  0  0  0
 24  6  1  0  0  0  0
 26 24  1  0  0  0  0
 26 25  1  1  0  0  0
 27 26  1  0  0  0  0
 28 31  1  0  0  0  0
 28 27  1  0  0  0  0
 29 34  2  0  0  0  0
 29 31  1  0  0  0  0
 30 41  1  0  0  0  0
 30 32  2  0  0  0  0
 31 33  2  0  0  0  0
 33 32  1  0  0  0  0
 33 44  1  0  0  0  0
 34 30  1  0  0  0  0
 36 39  1  1  0  0  0
 36 35  1  0  0  0  0
 38 37  1  6  0  0  0
 38 41  1  0  0  0  0
 38 42  1  0  0  0  0
 40 36  1  0  0  0  0
 41 40  1  0  0  0  0
 42 43  1  0  0  0  0
 43 35  1  0  0  0  0
 44 45  1  0  0  0  0
M  END
>  <MODEL>
1

>  <REMARK>
 VINA RESULT:     -10.5      0.000      0.000
  Name = 
  9 active torsions:
  status: ('A' for Active; 'I' for Inactive)
    1  A    between atoms: N_7  and  C_31
    2  A    between atoms: N_7  and  C_43
    3  A    between atoms: N_9  and  C_23
    4  A    between atoms: N_9  and  C_26
    5  A    between atoms: C_11  and  C_16
    6  A    between atoms: C_18  and  C_34
    7  A    between atoms: C_20  and  N_38
    8  A    between atoms: O_22  and  C_39
    9  A    between atoms: C_26  and  C_43
                            x       y       z     vdW  Elec       q    Type
                         _______ _______ _______ _____ _____    ______ ____

>  <TORSDO>
F 9

$$$$
=
 OpenBabel10222416463D

 45 50  0  0  1  0  0  0  0  0999 V2000
  188.7710  177.1680  147.0410 C   0  0  0  0  0  3  0  0  0  0  0  0
  187.7130  177.3970  144.8790 C   0  0  0  0  0  3  0  0  0  0  0  0
  188.9530  177.2480  144.2450 C   0  0  0  0  0  0  0  0  0  0  0  0
  190.0200  177.0200  146.4240 C   0  0  0  0  0  0  0  0  0  0  0  0
  190.1020  177.0600  145.0260 C   0  0  0  0  0  3  0  0  0  0  0  0
  187.6170  177.3560  146.2770 C   0  0  0  0  0  0  0  0  0  0  0  0
  189.2330  177.6730  135.6040 C   0  0  0  0  0  3  0  0  0  0  0  0
  191.4440  176.2630  138.9420 O   0  0  0  0  0  1  0  0  0  0  0  0
  187.7210  178.1920  139.4950 C   0  0  0  0  0  3  0  0  0  0  0  0
  188.4640  177.7270  140.5780 C   0  0  0  0  0  0  0  0  0  0  0  0
  190.2170  176.8980  139.1050 C   0  0  0  0  0  0  0  0  0  0  0  0
  188.0030  178.3070  135.8060 C   0  0  0  0  0  3  0  0  0  0  0  0
  189.0440  177.2790  142.7760 C   0  0  0  0  0  0  0  0  0  0  0  0
  188.2280  178.0120  138.1980 C   0  0  0  0  0  0  0  0  0  0  0  0
  189.6820  177.0950  140.3780 C   0  0  0  0  0  0  0  0  0  0  0  0
  189.9710  177.2030  136.6940 C   0  0  0  0  0  3  0  0  0  0  0  0
  189.4820  177.3630  137.9970 C   0  0  0  0  0  0  0  0  0  0  0  0
  187.5020  178.4760  137.0990 C   0  0  0  0  0  3  0  0  0  0  0  0
  188.0890  177.8390  141.9210 C   0  0  0  0  0  3  0  0  0  0  0  0
  190.3310  176.6570  141.8630 S   0  0  0  0  0  0  0  0  0  0  0  0
  192.1550  175.7840  146.9120 N   0  0  0  0  0  1  0  0  0  0  0  0
  191.2320  176.8200  147.2360 C   0  0  0  0  0  0  0  0  0  0  0  0
  191.4610  177.5610  148.2280 O   0  0  0  0  0  0  0  0  0  0  0  0
  186.3560  177.5000  146.9390 N   0  0  0  0  0  2  0  0  0  0  0  0
  186.4730  179.7930  147.7540 C   0  0  0  0  0  1  0  0  0  0  0  0
  185.6300  178.7620  147.0270 C   0  0  1  0  0  3  0  0  0  0  0  0
  185.3230  179.2730  145.6330 C   0  0  0  0  0  2  0  0  0  0  0  0
  183.9350  178.9930  145.2950 N   0  0  0  0  0  2  0  0  0  0  0  0
  184.4260  178.4690  142.9540 C   0  0  0  0  0  3  0  0  0  0  0  0
  182.6620  178.2570  141.3010 C   0  0  0  0  0  0  0  0  0  0  0  0
  183.4870  178.7530  143.9570 C   0  0  0  0  0  0  0  0  0  0  0  0
  181.7220  178.5400  142.3020 C   0  0  0  0  0  3  0  0  0  0  0  0
  182.1080  178.7910  143.6240 C   0  0  0  0  0  0  0  0  0  0  0  0
  184.0200  178.2260  141.6420 C   0  0  0  0  0  3  0  0  0  0  0  0
  184.3200  177.8410  137.9800 C   0  0  0  0  0  2  0  0  0  0  0  0
  183.6060  179.1730  138.2260 C   0  0  2  0  0  3  0  0  0  0  0  0
  180.4800  176.6630  138.8320 C   0  0  0  0  0  1  0  0  0  0  0  0
  181.8230  176.6500  139.5450 C   0  0  2  0  0  3  0  0  0  0  0  0
  184.4480  180.0290  138.9340 O   0  0  0  0  0  1  0  0  0  0  0  0
  182.2530  179.0600  138.9360 C   0  0  0  0  0  2  0  0  0  0  0  0
  182.2420  177.9980  139.9470 N   0  0  0  0  0  0  0  0  0  0  0  0
  182.8960  175.9340  138.7210 C   0  0  0  0  0  2  0  0  0  0  0  0
  183.3750  176.7400  137.5170 C   0  0  0  0  0  2  0  0  0  0  0  0
  181.0830  179.0700  144.5410 O   0  0  0  0  0  0  0  0  0  0  0  0
  179.6930  178.9370  144.2830 C   0  0  0  0  0  1  0  0  0  0  0  0
  2  6  1  0  0  0  0
  3  2  2  0  0  0  0
  3  5  1  0  0  0  0
  4  1  1  0  0  0  0
  4 22  1  0  0  0  0
  5  4  2  0  0  0  0
  6 24  1  0  0  0  0
  6  1  2  0  0  0  0
  7 12  2  0  0  0  0
  7 16  1  0  0  0  0
  8 11  1  0  0  0  0
  9 10  2  0  0  0  0
 10 19  1  0  0  0  0
 11 15  2  0  0  0  0
 12 18  1  0  0  0  0
 13  3  1  0  0  0  0
 14  9  1  0  0  0  0
 15 10  1  0  0  0  0
 15 20  1  0  0  0  0
 16 17  2  0  0  0  0
 17 14  1  0  0  0  0
 17 11  1  0  0  0  0
 18 14  2  0  0  0  0
 19 13  2  0  0  0  0
 20 13  1  0  0  0  0
 21 22  1  0  0  0  0
 22 23  2  0  0  0  0
 24 26  1  0  0  0  0
 26 25  1  6  0  0  0
 27 26  1  0  0  0  0
 28 27  1  0  0  0  0
 29 31  1  0  0  0  0
 30 34  1  0  0  0  0
 30 32  2  0  0  0  0
 31 28  1  0  0  0  0
 32 33  1  0  0  0  0
 33 31  2  0  0  0  0
 33 44  1  0  0  0  0
 34 29  2  0  0  0  0
 35 36  1  0  0  0  0
 36 39  1  1  0  0  0
 36 40  1  0  0  0  0
 38 37  1  6  0  0  0
 38 41  1  0  0  0  0
 40 41  1  0  0  0  0
 41 30  1  0  0  0  0
 42 38  1  0  0  0  0
 43 35  1  0  0  0  0
 43 42  1  0  0  0  0
 45 44  1  0  0  0  0
M  END
>  <MODEL>
2

>  <REMARK>
 VINA RESULT:     -10.2      2.845      8.441
  Name = 
  9 active torsions:
  status: ('A' for Active; 'I' for Inactive)
    1  A    between atoms: N_7  and  C_31
    2  A    between atoms: N_7  and  C_43
    3  A    between atoms: N_9  and  C_23
    4  A    between atoms: N_9  and  C_26
    5  A    between atoms: C_11  and  C_16
    6  A    between atoms: C_18  and  C_34
    7  A    between atoms: C_20  and  N_38
    8  A    between atoms: O_22  and  C_39
    9  A    between atoms: C_26  and  C_43
                            x       y       z     vdW  Elec       q    Type
                         _______ _______ _______ _____ _____    ______ ____

>  <TORSDO>
F 9

$$$$
=
 OpenBabel10222416463D

 45 50  0  0  1  0  0  0  0  0999 V2000
  191.5320  176.7990  144.5560 C   0  0  0  0  0  3  0  0  0  0  0  0
  189.6920  177.2870  143.0660 C   0  0  0  0  0  3  0  0  0  0  0  0
  188.8310  177.4400  144.1600 C   0  0  0  0  0  0  0  0  0  0  0  0
  190.6850  176.9450  145.6630 C   0  0  0  0  0  0  0  0  0  0  0  0
  189.3370  177.2670  145.4560 C   0  0  0  0  0  3  0  0  0  0  0  0
  191.0430  176.9690  143.2580 C   0  0  0  0  0  0  0  0  0  0  0  0
  180.5310  179.3410  142.6040 C   0  0  0  0  0  3  0  0  0  0  0  0
  183.3470  179.0630  145.7690 O   0  0  0  0  0  1  0  0  0  0  0  0
  184.5090  178.2430  141.7850 C   0  0  0  0  0  3  0  0  0  0  0  0
  185.4170  178.1530  142.8380 C   0  0  0  0  0  0  0  0  0  0  0  0
  183.7120  178.7980  144.4520 C   0  0  0  0  0  0  0  0  0  0  0  0
  180.9340  179.0670  141.2930 C   0  0  0  0  0  3  0  0  0  0  0  0
  187.4160  177.7880  143.9500 C   0  0  0  0  0  0  0  0  0  0  0  0
  183.1830  178.6140  142.0640 C   0  0  0  0  0  0  0  0  0  0  0  0
  185.0190  178.4260  144.1380 C   0  0  0  0  0  0  0  0  0  0  0  0
  181.4480  179.2540  143.6550 C   0  0  0  0  0  3  0  0  0  0  0  0
  182.7780  178.8940  143.4020 C   0  0  0  0  0  0  0  0  0  0  0  0
  182.2560  178.7060  141.0230 C   0  0  0  0  0  3  0  0  0  0  0  0
  186.7630  177.7920  142.7130 C   0  0  0  0  0  3  0  0  0  0  0  0
  186.3260  178.2280  145.1720 S   0  0  0  0  0  0  0  0  0  0  0  0
  192.4010  176.0230  147.2530 N   0  0  0  0  0  1  0  0  0  0  0  0
  191.2080  176.7670  147.0280 C   0  0  0  0  0  0  0  0  0  0  0  0
  190.6010  177.2690  148.0110 O   0  0  0  0  0  0  0  0  0  0  0  0
  191.9350  176.8160  142.1500 N   0  0  0  0  0  2  0  0  0  0  0  0
  193.1000  177.6150  140.1650 C   0  0  0  0  0  1  0  0  0  0  0  0
  191.7630  177.5020  140.8740 C   0  0  1  0  0  3  0  0  0  0  0  0
  190.8070  176.7190  139.9980 C   0  0  0  0  0  2  0  0  0  0  0  0
  190.1380  177.6150  139.0660 N   0  0  0  0  0  2  0  0  0  0  0  0
  187.7370  178.0920  139.1280 C   0  0  0  0  0  3  0  0  0  0  0  0
  186.1810  176.9860  137.6290 C   0  0  0  0  0  0  0  0  0  0  0  0
  188.8140  177.3860  138.5720 C   0  0  0  0  0  0  0  0  0  0  0  0
  187.2560  176.2800  137.0720 C   0  0  0  0  0  3  0  0  0  0  0  0
  188.5690  176.4600  137.5250 C   0  0  0  0  0  0  0  0  0  0  0  0
  186.4370  177.8950  138.6650 C   0  0  0  0  0  3  0  0  0  0  0  0
  183.8180  174.1140  137.2870 C   0  0  0  0  0  2  0  0  0  0  0  0
  184.4910  174.6030  136.0020 C   0  0  2  0  0  3  0  0  0  0  0  0
  182.7180  178.0680  137.1400 C   0  0  0  0  0  1  0  0  0  0  0  0
  183.6890  177.2200  137.9490 C   0  0  2  0  0  3  0  0  0  0  0  0
  185.7570  174.0310  135.8930 O   0  0  0  0  0  1  0  0  0  0  0  0
  184.5880  176.1260  135.8610 C   0  0  0  0  0  2  0  0  0  0  0  0
  184.8380  176.7880  137.1450 N   0  0  0  0  0  0  0  0  0  0  0  0
  182.9830  176.0440  138.6270 C   0  0  0  0  0  2  0  0  0  0  0  0
  182.5880  174.9330  137.6580 C   0  0  0  0  0  2  0  0  0  0  0  0
  189.5650  175.6950  136.9000 O   0  0  0  0  0  0  0  0  0  0  0  0
  189.8260  174.3220  137.1560 C   0  0  0  0  0  1  0  0  0  0  0  0
  1  4  1  0  0  0  0
  2  6  1  0  0  0  0
  2  3  2  0  0  0  0
  3  5  1  0  0  0  0
  4 22  1  0  0  0  0
  5  4  2  0  0  0  0
  6  1  2  0  0  0  0
  7 16  1  0  0  0  0
  9 14  1  0  0  0  0
  9 10  2  0  0  0  0
 10 15  1  0  0  0  0
 11  8  1  0  0  0  0
 12  7  2  0  0  0  0
 13  3  1  0  0  0  0
 13 20  1  0  0  0  0
 14 17  1  0  0  0  0
 15 11  2  0  0  0  0
 15 20  1  0  0  0  0
 17 16  2  0  0  0  0
 17 11  1  0  0  0  0
 18 12  1  0  0  0  0
 18 14  2  0  0  0  0
 19 10  1  0  0  0  0
 19 13  2  0  0  0  0
 22 21  1  0  0  0  0
 22 23  2  0  0  0  0
 24  6  1  0  0  0  0
 26 25  1  6  0  0  0
 26 24  1  0  0  0  0
 27 26  1  0  0  0  0
 28 27  1  0  0  0  0
 30 34  2  0  0  0  0
 31 28  1  0  0  0  0
 31 29  2  0  0  0  0
 32 33  2  0  0  0  0
 32 30  1  0  0  0  0
 33 31  1  0  0  0  0
 34 29  1  0  0  0  0
 35 43  1  0  0  0  0
 36 39  1  1  0  0  0
 36 35  1  0  0  0  0
 38 37  1  6  0  0  0
 38 42  1  0  0  0  0
 40 36  1  0  0  0  0
 40 41  1  0  0  0  0
 41 30  1  0  0  0  0
 41 38  1  0  0  0  0
 43 42  1  0  0  0  0
 44 45  1  0  0  0  0
 44 33  1  0  0  0  0
M  END
>  <MODEL>
3

>  <REMARK>
 VINA RESULT:     -10.0      2.525      7.458
  Name = 
  9 active torsions:
  status: ('A' for Active; 'I' for Inactive)
    1  A    between atoms: N_7  and  C_31
    2  A    between atoms: N_7  and  C_43
    3  A    between atoms: N_9  and  C_23
    4  A    between atoms: N_9  and  C_26
    5  A    between atoms: C_11  and  C_16
    6  A    between atoms: C_18  and  C_34
    7  A    between atoms: C_20  and  N_38
    8  A    between atoms: O_22  and  C_39
    9  A    between atoms: C_26  and  C_43
                            x       y       z     vdW  Elec       q    Type
                         _______ _______ _______ _____ _____    ______ ____

>  <TORSDO>
F 9

$$$$
=
 OpenBabel10222416463D

 45 50  0  0  1  0  0  0  0  0999 V2000
  190.5420  176.9220  137.1640 C   0  0  0  0  0  3  0  0  0  0  0  0
  189.1250  177.4810  139.0420 C   0  0  0  0  0  3  0  0  0  0  0  0
  190.1470  177.1270  139.9320 C   0  0  0  0  0  0  0  0  0  0  0  0
  191.5740  176.5600  138.0400 C   0  0  0  0  0  0  0  0  0  0  0  0
  191.3680  176.6670  139.4220 C   0  0  0  0  0  3  0  0  0  0  0  0
  189.3190  177.3830  137.6570 C   0  0  0  0  0  0  0  0  0  0  0  0
  188.5890  177.7710  148.4230 C   0  0  0  0  0  3  0  0  0  0  0  0
  191.7620  177.2700  145.6470 O   0  0  0  0  0  1  0  0  0  0  0  0
  187.7730  177.6600  144.2970 C   0  0  0  0  0  3  0  0  0  0  0  0
  188.8280  177.4900  143.4020 C   0  0  0  0  0  0  0  0  0  0  0  0
  190.4440  177.4010  145.2210 C   0  0  0  0  0  0  0  0  0  0  0  0
  187.2760  177.9000  147.9570 C   0  0  0  0  0  3  0  0  0  0  0  0
  189.9400  177.2460  141.3850 C   0  0  0  0  0  0  0  0  0  0  0  0
  188.0520  177.7010  145.6730 C   0  0  0  0  0  0  0  0  0  0  0  0
  190.1300  177.3650  143.8630 C   0  0  0  0  0  0  0  0  0  0  0  0
  189.6430  177.6070  147.5200 C   0  0  0  0  0  3  0  0  0  0  0  0
  189.3920  177.5710  146.1420 C   0  0  0  0  0  0  0  0  0  0  0  0
  187.0080  177.8660  146.5860 C   0  0  0  0  0  3  0  0  0  0  0  0
  188.7020  177.4260  142.0110 C   0  0  0  0  0  3  0  0  0  0  0  0
  191.1640  177.1700  142.5560 S   0  0  0  0  0  0  0  0  0  0  0  0
  194.0090  176.0160  138.3560 N   0  0  0  0  0  1  0  0  0  0  0  0
  192.8620  176.0780  137.5130 C   0  0  0  0  0  0  0  0  0  0  0  0
  192.9620  175.7200  136.3100 O   0  0  0  0  0  0  0  0  0  0  0  0
  188.2870  177.7470  136.7350 N   0  0  0  0  0  2  0  0  0  0  0  0
  187.2840  175.5560  137.0980 C   0  0  0  0  0  1  0  0  0  0  0  0
  187.2620  176.8230  136.2620 C   0  0  1  0  0  3  0  0  0  0  0  0
  185.8960  177.4690  136.3840 C   0  0  0  0  0  2  0  0  0  0  0  0
  185.6220  177.7930  137.7760 N   0  0  0  0  0  2  0  0  0  0  0  0
  183.1850  177.7180  137.5540 C   0  0  0  0  0  3  0  0  0  0  0  0
  181.7270  178.7950  139.1670 C   0  0  0  0  0  0  0  0  0  0  0  0
  184.3200  178.1440  138.2580 C   0  0  0  0  0  0  0  0  0  0  0  0
  182.8610  179.2220  139.8730 C   0  0  0  0  0  3  0  0  0  0  0  0
  184.1560  178.9130  139.4390 C   0  0  0  0  0  0  0  0  0  0  0  0
  181.9040  178.0390  138.0010 C   0  0  0  0  0  3  0  0  0  0  0  0
  179.5120  177.7530  141.9890 C   0  0  0  0  0  2  0  0  0  0  0  0
  179.1730  177.1870  140.6080 C   0  0  2  0  0  3  0  0  0  0  0  0
  178.9730  181.1410  139.7310 C   0  0  0  0  0  1  0  0  0  0  0  0
  180.1520  180.3880  140.3300 C   0  0  2  0  0  3  0  0  0  0  0  0
  179.9680  176.0700  140.3540 O   0  0  0  0  0  1  0  0  0  0  0  0
  179.2870  178.1870  139.4520 C   0  0  0  0  0  2  0  0  0  0  0  0
  180.4020  179.1210  139.6330 N   0  0  0  0  0  0  0  0  0  0  0  0
  179.9920  180.1950  141.8400 C   0  0  0  0  0  2  0  0  0  0  0  0
  178.9450  179.1490  142.2110 C   0  0  0  0  0  2  0  0  0  0  0  0
  185.2170  179.3990  140.2190 O   0  0  0  0  0  0  0  0  0  0  0  0
  185.3510  179.2230  141.6220 C   0  0  0  0  0  1  0  0  0  0  0  0
  1  6  2  0  0  0  0
  1  4  1  0  0  0  0
  2  3  2  0  0  0  0
  3 13  1  0  0  0  0
  4  5  2  0  0  0  0
  5  3  1  0  0  0  0
  6  2  1  0  0  0  0
  9 14  1  0  0  0  0
 10 15  1  0  0  0  0
 10  9  2  0  0  0  0
 11  8  1  0  0  0  0
 11 17  1  0  0  0  0
 12  7  1  0  0  0  0
 13 19  2  0  0  0  0
 13 20  1  0  0  0  0
 14 17  2  0  0  0  0
 14 18  1  0  0  0  0
 15 11  2  0  0  0  0
 16  7  2  0  0  0  0
 17 16  1  0  0  0  0
 18 12  2  0  0  0  0
 19 10  1  0  0  0  0
 20 15  1  0  0  0  0
 22  4  1  0  0  0  0
 22 21  1  0  0  0  0
 23 22  2  0  0  0  0
 24  6  1  0  0  0  0
 26 27  1  0  0  0  0
 26 24  1  0  0  0  0
 26 25  1  1  0  0  0
 27 28  1  0  0  0  0
 28 31  1  0  0  0  0
 29 34  2  0  0  0  0
 29 31  1  0  0  0  0
 30 41  1  0  0  0  0
 30 32  2  0  0  0  0
 31 33  2  0  0  0  0
 33 32  1  0  0  0  0
 33 44  1  0  0  0  0
 34 30  1  0  0  0  0
 35 43  1  0  0  0  0
 36 39  1  6  0  0  0
 36 35  1  0  0  0  0
 38 37  1  6  0  0  0
 38 42  1  0  0  0  0
 40 41  1  0  0  0  0
 40 36  1  0  0  0  0
 41 38  1  0  0  0  0
 42 43  1  0  0  0  0
 44 45  1  0  0  0  0
M  END
>  <MODEL>
4

>  <REMARK>
 VINA RESULT:      -9.9      2.571      7.938
  Name = 
  9 active torsions:
  status: ('A' for Active; 'I' for Inactive)
    1  A    between atoms: N_7  and  C_31
    2  A    between atoms: N_7  and  C_43
    3  A    between atoms: N_9  and  C_23
    4  A    between atoms: N_9  and  C_26
    5  A    between atoms: C_11  and  C_16
    6  A    between atoms: C_18  and  C_34
    7  A    between atoms: C_20  and  N_38
    8  A    between atoms: O_22  and  C_39
    9  A    between atoms: C_26  and  C_43
                            x       y       z     vdW  Elec       q    Type
                         _______ _______ _______ _____ _____    ______ ____

>  <TORSDO>
F 9

$$$$
=
 OpenBabel10222416463D

 45 50  0  0  1  0  0  0  0  0999 V2000
  187.9540  177.5100  145.5110 C   0  0  0  0  0  3  0  0  0  0  0  0
  187.0230  177.3650  143.2850 C   0  0  0  0  0  3  0  0  0  0  0  0
  185.8590  178.0130  143.7170 C   0  0  0  0  0  0  0  0  0  0  0  0
  186.7950  178.1570  145.9630 C   0  0  0  0  0  0  0  0  0  0  0  0
  185.7530  178.4050  145.0580 C   0  0  0  0  0  3  0  0  0  0  0  0
  188.0740  177.1140  144.1780 C   0  0  0  0  0  0  0  0  0  0  0  0
  179.6270  179.4810  137.8910 C   0  0  0  0  0  3  0  0  0  0  0  0
  180.2900  179.2790  142.0800 O   0  0  0  0  0  1  0  0  0  0  0  0
  183.4730  178.6330  139.3700 C   0  0  0  0  0  3  0  0  0  0  0  0
  183.6690  178.5660  140.7490 C   0  0  0  0  0  0  0  0  0  0  0  0
  181.3250  179.0710  141.1740 C   0  0  0  0  0  0  0  0  0  0  0  0
  180.6920  179.2660  137.0110 C   0  0  0  0  0  3  0  0  0  0  0  0
  184.7650  178.2850  142.7700 C   0  0  0  0  0  0  0  0  0  0  0  0
  182.1880  178.9210  138.8820 C   0  0  0  0  0  0  0  0  0  0  0  0
  182.6140  178.7820  141.6220 C   0  0  0  0  0  0  0  0  0  0  0  0
  179.8320  179.4190  139.2730 C   0  0  0  0  0  3  0  0  0  0  0  0
  181.1060  179.1410  139.7840 C   0  0  0  0  0  0  0  0  0  0  0  0
  181.9690  178.9870  137.5050 C   0  0  0  0  0  3  0  0  0  0  0  0
  184.8870  178.2860  141.3760 C   0  0  0  0  0  3  0  0  0  0  0  0
  183.1610  178.6300  143.2010 S   0  0  0  0  0  0  0  0  0  0  0  0
  187.5670  178.0580  148.3540 N   0  0  0  0  0  1  0  0  0  0  0  0
  186.6760  178.5740  147.3690 C   0  0  0  0  0  0  0  0  0  0  0  0
  185.7810  179.3910  147.7160 O   0  0  0  0  0  0  0  0  0  0  0  0
  189.2710  176.4590  143.7490 N   0  0  0  0  0  2  0  0  0  0  0  0
  191.6540  175.9620  143.6480 C   0  0  0  0  0  1  0  0  0  0  0  0
  190.6060  177.0260  143.9120 C   0  0  1  0  0  3  0  0  0  0  0  0
  190.8010  178.1640  142.9290 C   0  0  0  0  0  2  0  0  0  0  0  0
  191.3680  177.6570  141.6880 N   0  0  0  0  0  2  0  0  0  0  0  0
  189.2140  177.6800  140.5240 C   0  0  0  0  0  3  0  0  0  0  0  0
  189.0260  177.0670  138.1840 C   0  0  0  0  0  0  0  0  0  0  0  0
  190.5970  177.4490  140.5000 C   0  0  0  0  0  0  0  0  0  0  0  0
  190.4090  176.8360  138.1580 C   0  0  0  0  0  3  0  0  0  0  0  0
  191.2060  177.0160  139.2940 C   0  0  0  0  0  0  0  0  0  0  0  0
  188.4370  177.4910  139.3820 C   0  0  0  0  0  3  0  0  0  0  0  0
  186.5940  174.5230  136.9330 C   0  0  0  0  0  2  0  0  0  0  0  0
  187.9920  174.4980  136.3090 C   0  0  2  0  0  3  0  0  0  0  0  0
  186.9770  178.3220  135.4230 C   0  0  0  0  0  1  0  0  0  0  0  0
  187.0060  177.6710  136.7980 C   0  0  2  0  0  3  0  0  0  0  0  0
  188.8580  173.7810  137.1340 O   0  0  0  0  0  1  0  0  0  0  0  0
  188.5860  175.8760  135.9950 C   0  0  0  0  0  2  0  0  0  0  0  0
  188.2240  176.8790  137.0010 N   0  0  0  0  0  0  0  0  0  0  0  0
  185.7370  176.8590  137.0670 C   0  0  0  0  0  2  0  0  0  0  0  0
  185.6760  175.5500  136.2850 C   0  0  0  0  0  2  0  0  0  0  0  0
  192.5770  176.7470  139.1540 O   0  0  0  0  0  0  0  0  0  0  0  0
  193.1770  176.1040  138.0390 C   0  0  0  0  0  1  0  0  0  0  0  0
  1  4  1  0  0  0  0
  2  3  2  0  0  0  0
  2  6  1  0  0  0  0
  3  5  1  0  0  0  0
  4 22  1  0  0  0  0
  5  4  2  0  0  0  0
  6  1  2  0  0  0  0
  7 16  1  0  0  0  0
  9 10  2  0  0  0  0
 10 19  1  0  0  0  0
 10 15  1  0  0  0  0
 11 15  2  0  0  0  0
 11  8  1  0  0  0  0
 12 18  1  0  0  0  0
 12  7  2  0  0  0  0
 13 20  1  0  0  0  0
 13  3  1  0  0  0  0
 14  9  1  0  0  0  0
 14 17  1  0  0  0  0
 15 20  1  0  0  0  0
 16 17  2  0  0  0  0
 17 11  1  0  0  0  0
 18 14  2  0  0  0  0
 19 13  2  0  0  0  0
 22 23  2  0  0  0  0
 22 21  1  0  0  0  0
 24 26  1  0  0  0  0
 24  6  1  0  0  0  0
 26 25  1  6  0  0  0
 27 26  1  0  0  0  0
 28 27  1  0  0  0  0
 30 34  1  0  0  0  0
 31 29  1  0  0  0  0
 31 28  1  0  0  0  0
 32 30  2  0  0  0  0
 32 33  1  0  0  0  0
 33 31  2  0  0  0  0
 34 29  2  0  0  0  0
 36 35  1  0  0  0  0
 36 39  1  1  0  0  0
 38 37  1  6  0  0  0
 38 41  1  0  0  0  0
 38 42  1  0  0  0  0
 40 36  1  0  0  0  0
 40 41  1  0  0  0  0
 41 30  1  0  0  0  0
 43 35  1  0  0  0  0
 43 42  1  0  0  0  0
 44 33  1  0  0  0  0
 45 44  1  0  0  0  0
M  END
>  <MODEL>
5

>  <REMARK>
 VINA RESULT:      -9.6      2.582      7.503
  Name = 
  9 active torsions:
  status: ('A' for Active; 'I' for Inactive)
    1  A    between atoms: N_7  and  C_31
    2  A    between atoms: N_7  and  C_43
    3  A    between atoms: N_9  and  C_23
    4  A    between atoms: N_9  and  C_26
    5  A    between atoms: C_11  and  C_16
    6  A    between atoms: C_18  and  C_34
    7  A    between atoms: C_20  and  N_38
    8  A    between atoms: O_22  and  C_39
    9  A    between atoms: C_26  and  C_43
                            x       y       z     vdW  Elec       q    Type
                         _______ _______ _______ _____ _____    ______ ____

>  <TORSDO>
F 9

$$$$
=
 OpenBabel10222416463D

 45 50  0  0  1  0  0  0  0  0999 V2000
  191.0950  176.7650  137.1100 C   0  0  0  0  0  3  0  0  0  0  0  0
  189.6720  177.6120  138.8720 C   0  0  0  0  0  3  0  0  0  0  0  0
  190.5040  177.0320  139.8370 C   0  0  0  0  0  0  0  0  0  0  0  0
  191.9370  176.1760  138.0620 C   0  0  0  0  0  0  0  0  0  0  0  0
  191.6350  176.3160  139.4230 C   0  0  0  0  0  3  0  0  0  0  0  0
  189.9640  177.4830  137.5070 C   0  0  0  0  0  0  0  0  0  0  0  0
  188.3660  177.8560  148.1850 C   0  0  0  0  0  3  0  0  0  0  0  0
  191.7300  177.3730  145.6410 O   0  0  0  0  0  1  0  0  0  0  0  0
  187.8310  177.6120  144.0190 C   0  0  0  0  0  3  0  0  0  0  0  0
  188.9470  177.4490  143.2010 C   0  0  0  0  0  0  0  0  0  0  0  0
  190.4410  177.4560  145.1250 C   0  0  0  0  0  0  0  0  0  0  0  0
  187.0850  177.9340  147.6310 C   0  0  0  0  0  3  0  0  0  0  0  0
  190.1980  177.1840  141.2700 C   0  0  0  0  0  0  0  0  0  0  0  0
  188.0160  177.6980  145.4090 C   0  0  0  0  0  0  0  0  0  0  0  0
  190.2190  177.3740  143.7500 C   0  0  0  0  0  0  0  0  0  0  0  0
  189.4830  177.6990  147.3590 C   0  0  0  0  0  3  0  0  0  0  0  0
  189.3250  177.6190  145.9690 C   0  0  0  0  0  0  0  0  0  0  0  0
  186.9100  177.8560  146.2470 C   0  0  0  0  0  3  0  0  0  0  0  0
  188.9160  177.3440  141.8070 C   0  0  0  0  0  3  0  0  0  0  0  0
  191.3430  177.1750  142.5210 S   0  0  0  0  0  0  0  0  0  0  0  0
  193.0570  174.0160  137.4280 N   0  0  0  0  0  1  0  0  0  0  0  0
  193.1290  175.4230  137.6370 C   0  0  0  0  0  0  0  0  0  0  0  0
  194.2250  176.0180  137.4570 O   0  0  0  0  0  0  0  0  0  0  0  0
  189.1270  178.0750  136.5090 N   0  0  0  0  0  2  0  0  0  0  0  0
  187.5400  176.2500  136.8050 C   0  0  0  0  0  1  0  0  0  0  0  0
  187.7600  177.6410  136.2400 C   0  0  1  0  0  3  0  0  0  0  0  0
  186.7820  178.5970  136.8930 C   0  0  0  0  0  2  0  0  0  0  0  0
  186.1060  177.9390  138.0000 N   0  0  0  0  0  2  0  0  0  0  0  0
  184.4110  179.0910  139.3400 C   0  0  0  0  0  3  0  0  0  0  0  0
  182.0410  178.6800  139.0180 C   0  0  0  0  0  0  0  0  0  0  0  0
  184.7330  178.1710  138.3310 C   0  0  0  0  0  0  0  0  0  0  0  0
  182.3610  177.7610  138.0090 C   0  0  0  0  0  3  0  0  0  0  0  0
  183.6880  177.4910  137.6540 C   0  0  0  0  0  0  0  0  0  0  0  0
  183.0820  179.3420  139.6810 C   0  0  0  0  0  3  0  0  0  0  0  0
  179.6760  177.6400  141.7160 C   0  0  0  0  0  2  0  0  0  0  0  0
  179.4790  176.9890  140.3450 C   0  0  2  0  0  3  0  0  0  0  0  0
  179.1210  180.8760  139.2500 C   0  0  0  0  0  1  0  0  0  0  0  0
  180.2910  180.2260  139.9740 C   0  0  2  0  0  3  0  0  0  0  0  0
  180.3540  175.9110  140.2100 O   0  0  0  0  0  1  0  0  0  0  0  0
  179.6250  177.9370  139.1500 C   0  0  0  0  0  2  0  0  0  0  0  0
  180.6670  178.9460  139.3660 N   0  0  0  0  0  0  0  0  0  0  0  0
  180.0250  180.0960  141.4760 C   0  0  0  0  0  2  0  0  0  0  0  0
  179.0130  179.0070  141.8210 C   0  0  0  0  0  2  0  0  0  0  0  0
  183.8910  176.5470  136.6350 O   0  0  0  0  0  0  0  0  0  0  0  0
  183.9320  176.8370  135.2450 C   0  0  0  0  0  1  0  0  0  0  0  0
  1  6  2  0  0  0  0
  1  4  1  0  0  0  0
  2  3  2  0  0  0  0
  3 13  1  0  0  0  0
  4  5  2  0  0  0  0
  5  3  1  0  0  0  0
  6  2  1  0  0  0  0
  9 14  1  0  0  0  0
 10 15  1  0  0  0  0
 10  9  2  0  0  0  0
 11  8  1  0  0  0  0
 11 17  1  0  0  0  0
 12  7  1  0  0  0  0
 13 19  2  0  0  0  0
 13 20  1  0  0  0  0
 14 17  2  0  0  0  0
 14 18  1  0  0  0  0
 15 11  2  0  0  0  0
 16  7  2  0  0  0  0
 17 16  1  0  0  0  0
 18 12  2  0  0  0  0
 19 10  1  0  0  0  0
 20 15  1  0  0  0  0
 21 22  1  0  0  0  0
 22  4  1  0  0  0  0
 23 22  2  0  0  0  0
 24  6  1  0  0  0  0
 26 24  1  0  0  0  0
 26 25  1  1  0  0  0
 26 27  1  0  0  0  0
 27 28  1  0  0  0  0
 28 31  1  0  0  0  0
 29 34  1  0  0  0  0
 30 41  1  0  0  0  0
 30 34  2  0  0  0  0
 31 29  2  0  0  0  0
 32 30  1  0  0  0  0
 33 32  2  0  0  0  0
 33 31  1  0  0  0  0
 35 43  1  0  0  0  0
 36 39  1  6  0  0  0
 36 35  1  0  0  0  0
 38 37  1  6  0  0  0
 38 42  1  0  0  0  0
 40 41  1  0  0  0  0
 40 36  1  0  0  0  0
 41 38  1  0  0  0  0
 42 43  1  0  0  0  0
 44 33  1  0  0  0  0
 45 44  1  0  0  0  0
M  END
>  <MODEL>
6

>  <REMARK>
 VINA RESULT:      -9.3      2.604      7.911
  Name = 
  9 active torsions:
  status: ('A' for Active; 'I' for Inactive)
    1  A    between atoms: N_7  and  C_31
    2  A    between atoms: N_7  and  C_43
    3  A    between atoms: N_9  and  C_23
    4  A    between atoms: N_9  and  C_26
    5  A    between atoms: C_11  and  C_16
    6  A    between atoms: C_18  and  C_34
    7  A    between atoms: C_20  and  N_38
    8  A    between atoms: O_22  and  C_39
    9  A    between atoms: C_26  and  C_43
                            x       y       z     vdW  Elec       q    Type
                         _______ _______ _______ _____ _____    ______ ____

>  <TORSDO>
F 9

$$$$
=
 OpenBabel10222416463D

 45 50  0  0  1  0  0  0  0  0999 V2000
  182.6790  179.1580  140.9050 C   0  0  0  0  0  3  0  0  0  0  0  0
  183.5100  178.7740  143.1430 C   0  0  0  0  0  3  0  0  0  0  0  0
  184.7860  178.4990  142.6330 C   0  0  0  0  0  0  0  0  0  0  0  0
  183.9480  178.8830  140.3770 C   0  0  0  0  0  0  0  0  0  0  0  0
  184.9960  178.5570  141.2490 C   0  0  0  0  0  3  0  0  0  0  0  0
  182.4540  179.1050  142.2820 C   0  0  0  0  0  0  0  0  0  0  0  0
  191.5130  176.5360  147.7160 C   0  0  0  0  0  3  0  0  0  0  0  0
  187.5110  177.9430  147.8840 O   0  0  0  0  0  1  0  0  0  0  0  0
  189.3020  177.0090  144.1680 C   0  0  0  0  0  3  0  0  0  0  0  0
  187.9920  177.4760  144.2430 C   0  0  0  0  0  0  0  0  0  0  0  0
  188.1160  177.6290  146.6700 C   0  0  0  0  0  0  0  0  0  0  0  0
  192.0880  176.2310  146.4780 C   0  0  0  0  0  3  0  0  0  0  0  0
  185.8930  178.1650  143.5450 C   0  0  0  0  0  0  0  0  0  0  0  0
  190.0340  176.8480  145.3560 C   0  0  0  0  0  0  0  0  0  0  0  0
  187.4200  177.7770  145.4710 C   0  0  0  0  0  0  0  0  0  0  0  0
  190.1960  176.9990  147.7850 C   0  0  0  0  0  3  0  0  0  0  0  0
  189.4420  177.1590  146.6150 C   0  0  0  0  0  0  0  0  0  0  0  0
  191.3510  176.3860  145.3010 C   0  0  0  0  0  3  0  0  0  0  0  0
  187.1470  177.6890  143.1490 C   0  0  0  0  0  3  0  0  0  0  0  0
  185.8480  178.3160  145.2340 S   0  0  0  0  0  0  0  0  0  0  0  0
  183.1170  179.2860  138.0390 N   0  0  0  0  0  1  0  0  0  0  0  0
  184.1790  178.9430  138.9250 C   0  0  0  0  0  0  0  0  0  0  0  0
  185.3180  178.6870  138.4510 O   0  0  0  0  0  0  0  0  0  0  0  0
  181.1480  179.3940  142.7890 N   0  0  0  0  0  2  0  0  0  0  0  0
  179.0740  178.8250  143.9330 C   0  0  0  0  0  1  0  0  0  0  0  0
  180.0780  178.4050  142.8760 C   0  0  1  0  0  3  0  0  0  0  0  0
  179.3700  178.3000  141.5400 C   0  0  0  0  0  2  0  0  0  0  0  0
  179.0430  176.9100  141.2580 N   0  0  0  0  0  2  0  0  0  0  0  0
  180.3180  176.8400  139.1680 C   0  0  0  0  0  3  0  0  0  0  0  0
  180.8650  174.7400  138.0820 C   0  0  0  0  0  0  0  0  0  0  0  0
  179.6460  176.1630  140.1960 C   0  0  0  0  0  0  0  0  0  0  0  0
  180.1940  174.0610  139.1090 C   0  0  0  0  0  3  0  0  0  0  0  0
  179.5810  174.7460  140.1650 C   0  0  0  0  0  0  0  0  0  0  0  0
  180.9190  176.1390  138.1230 C   0  0  0  0  0  3  0  0  0  0  0  0
  184.0250  172.8090  137.5950 C   0  0  0  0  0  2  0  0  0  0  0  0
  183.9760  174.2080  136.9760 C   0  0  2  0  0  3  0  0  0  0  0  0
  180.7540  172.5900  135.1220 C   0  0  0  0  0  1  0  0  0  0  0  0
  181.0020  172.6880  136.6190 C   0  0  2  0  0  3  0  0  0  0  0  0
  184.2910  175.1580  137.9470 O   0  0  0  0  0  1  0  0  0  0  0  0
  182.6510  174.5700  136.2970 C   0  0  0  0  0  2  0  0  0  0  0  0
  181.4930  174.0160  137.0060 N   0  0  0  0  0  0  0  0  0  0  0  0
  181.9170  171.5670  137.1170 C   0  0  0  0  0  2  0  0  0  0  0  0
  183.3770  171.7500  136.7120 C   0  0  0  0  0  2  0  0  0  0  0  0
  178.9310  173.9640  141.1330 O   0  0  0  0  0  0  0  0  0  0  0  0
  179.5790  173.1480  142.0980 C   0  0  0  0  0  1  0  0  0  0  0  0
  1  6  1  0  0  0  0
  3  2  1  0  0  0  0
  3 13  1  0  0  0  0
  4  1  2  0  0  0  0
  4  5  1  0  0  0  0
  5  3  2  0  0  0  0
  6 24  1  0  0  0  0
  6  2  2  0  0  0  0
  7 16  1  0  0  0  0
  9 10  2  0  0  0  0
  9 14  1  0  0  0  0
 10 15  1  0  0  0  0
 11  8  1  0  0  0  0
 12  7  2  0  0  0  0
 13 20  1  0  0  0  0
 14 17  1  0  0  0  0
 15 11  2  0  0  0  0
 17 11  1  0  0  0  0
 17 16  2  0  0  0  0
 18 14  2  0  0  0  0
 18 12  1  0  0  0  0
 19 13  2  0  0  0  0
 19 10  1  0  0  0  0
 20 15  1  0  0  0  0
 21 22  1  0  0  0  0
 22  4  1  0  0  0  0
 23 22  2  0  0  0  0
 24 26  1  0  0  0  0
 26 25  1  1  0  0  0
 27 26  1  0  0  0  0
 28 27  1  0  0  0  0
 29 31  1  0  0  0  0
 30 34  1  0  0  0  0
 30 32  2  0  0  0  0
 31 28  1  0  0  0  0
 32 33  1  0  0  0  0
 33 31  2  0  0  0  0
 33 44  1  0  0  0  0
 34 29  2  0  0  0  0
 36 35  1  0  0  0  0
 36 39  1  1  0  0  0
 38 37  1  6  0  0  0
 38 41  1  0  0  0  0
 38 42  1  0  0  0  0
 40 36  1  0  0  0  0
 40 41  1  0  0  0  0
 41 30  1  0  0  0  0
 43 42  1  0  0  0  0
 43 35  1  0  0  0  0
 44 45  1  0  0  0  0
M  END
>  <MODEL>
7

>  <REMARK>
 VINA RESULT:      -9.1      3.156      5.407
  Name = 
  9 active torsions:
  status: ('A' for Active; 'I' for Inactive)
    1  A    between atoms: N_7  and  C_31
    2  A    between atoms: N_7  and  C_43
    3  A    between atoms: N_9  and  C_23
    4  A    between atoms: N_9  and  C_26
    5  A    between atoms: C_11  and  C_16
    6  A    between atoms: C_18  and  C_34
    7  A    between atoms: C_20  and  N_38
    8  A    between atoms: O_22  and  C_39
    9  A    between atoms: C_26  and  C_43
                            x       y       z     vdW  Elec       q    Type
                         _______ _______ _______ _____ _____    ______ ____

>  <TORSDO>
F 9

$$$$
=
 OpenBabel10222416463D

 45 50  0  0  1  0  0  0  0  0999 V2000
  183.1640  178.5540  139.0380 C   0  0  0  0  0  3  0  0  0  0  0  0
  185.2340  178.6320  140.2840 C   0  0  0  0  0  3  0  0  0  0  0  0
  184.5370  178.4110  141.4780 C   0  0  0  0  0  0  0  0  0  0  0  0
  182.4490  178.3360  140.2240 C   0  0  0  0  0  0  0  0  0  0  0  0
  183.1440  178.2640  141.4390 C   0  0  0  0  0  3  0  0  0  0  0  0
  184.5520  178.7020  139.0610 C   0  0  0  0  0  0  0  0  0  0  0  0
  189.0990  177.8670  148.8150 C   0  0  0  0  0  3  0  0  0  0  0  0
  185.2940  179.0370  147.3380 O   0  0  0  0  0  1  0  0  0  0  0  0
  188.2410  177.5180  144.7110 C   0  0  0  0  0  3  0  0  0  0  0  0
  186.9880  177.9110  144.2450 C   0  0  0  0  0  0  0  0  0  0  0  0
  186.2750  178.5330  146.4890 C   0  0  0  0  0  0  0  0  0  0  0  0
  190.0600  177.3660  147.9310 C   0  0  0  0  0  3  0  0  0  0  0  0
  185.2620  178.3250  142.7570 C   0  0  0  0  0  0  0  0  0  0  0  0
  188.5200  177.6320  146.0830 C   0  0  0  0  0  0  0  0  0  0  0  0
  186.0330  178.4060  145.1210 C   0  0  0  0  0  0  0  0  0  0  0  0
  187.8420  178.2550  148.3420 C   0  0  0  0  0  3  0  0  0  0  0  0
  187.5360  178.1420  146.9790 C   0  0  0  0  0  0  0  0  0  0  0  0
  189.7720  177.2480  146.5690 C   0  0  0  0  0  3  0  0  0  0  0  0
  186.5720  177.8580  142.9110 C   0  0  0  0  0  3  0  0  0  0  0  0
  184.6430  178.7930  144.2650 S   0  0  0  0  0  0  0  0  0  0  0  0
  180.1960  178.9460  139.2880 N   0  0  0  0  0  1  0  0  0  0  0  0
  180.9850  178.1780  140.1910 C   0  0  0  0  0  0  0  0  0  0  0  0
  180.4170  177.3630  140.9660 O   0  0  0  0  0  0  0  0  0  0  0  0
  185.2520  178.9210  137.8330 N   0  0  0  0  0  2  0  0  0  0  0  0
  185.3070  177.0800  136.2380 C   0  0  0  0  0  1  0  0  0  0  0  0
  186.1150  177.9250  137.2050 C   0  0  1  0  0  3  0  0  0  0  0  0
  187.2260  178.6200  136.4430 C   0  0  0  0  0  2  0  0  0  0  0  0
  188.4800  178.4970  137.1710 N   0  0  0  0  0  2  0  0  0  0  0  0
  189.5940  177.1220  135.4780 C   0  0  0  0  0  3  0  0  0  0  0  0
  191.5390  175.7740  136.0140 C   0  0  0  0  0  0  0  0  0  0  0  0
  189.5140  177.5780  136.8020 C   0  0  0  0  0  0  0  0  0  0  0  0
  191.4610  176.2290  137.3380 C   0  0  0  0  0  3  0  0  0  0  0  0
  190.4650  177.1210  137.7510 C   0  0  0  0  0  0  0  0  0  0  0  0
  190.5930  176.2310  135.0880 C   0  0  0  0  0  3  0  0  0  0  0  0
  195.0400  175.0030  137.0650 C   0  0  0  0  0  2  0  0  0  0  0  0
  194.8750  175.8030  135.7700 C   0  0  2  0  0  3  0  0  0  0  0  0
  192.6980  172.5330  134.7680 C   0  0  0  0  0  1  0  0  0  0  0  0
  192.4970  173.4400  135.9730 C   0  0  2  0  0  3  0  0  0  0  0  0
  194.7060  177.1530  136.0750 O   0  0  0  0  0  1  0  0  0  0  0  0
  193.7430  175.3260  134.8540 C   0  0  0  0  0  2  0  0  0  0  0  0
  192.5760  174.8580  135.6080 N   0  0  0  0  0  0  0  0  0  0  0  0
  193.4510  173.0830  137.1160 C   0  0  0  0  0  2  0  0  0  0  0  0
  194.8950  173.5020  136.8540 C   0  0  0  0  0  2  0  0  0  0  0  0
  190.4780  177.5030  139.1020 O   0  0  0  0  0  0  0  0  0  0  0  0
  191.3250  176.9550  140.1010 C   0  0  0  0  0  1  0  0  0  0  0  0
  1  6  2  0  0  0  0
  1  4  1  0  0  0  0
  2  3  2  0  0  0  0
  3 13  1  0  0  0  0
  4  5  2  0  0  0  0
  5  3  1  0  0  0  0
  6  2  1  0  0  0  0
  9 14  1  0  0  0  0
 10  9  2  0  0  0  0
 10 15  1  0  0  0  0
 11 17  1  0  0  0  0
 11  8  1  0  0  0  0
 12  7  2  0  0  0  0
 13 19  2  0  0  0  0
 13 20  1  0  0  0  0
 14 18  2  0  0  0  0
 14 17  1  0  0  0  0
 15 11  2  0  0  0  0
 16  7  1  0  0  0  0
 17 16  2  0  0  0  0
 18 12  1  0  0  0  0
 19 10  1  0  0  0  0
 20 15  1  0  0  0  0
 21 22  1  0  0  0  0
 22  4  1  0  0  0  0
 22 23  2  0  0  0  0
 24  6  1  0  0  0  0
 26 25  1  6  0  0  0
 26 24  1  0  0  0  0
 27 28  1  0  0  0  0
 27 26  1  0  0  0  0
 29 31  1  0  0  0  0
 30 32  2  0  0  0  0
 31 28  1  0  0  0  0
 31 33  2  0  0  0  0
 32 33  1  0  0  0  0
 33 44  1  0  0  0  0
 34 29  2  0  0  0  0
 34 30  1  0  0  0  0
 36 39  1  1  0  0  0
 36 35  1  0  0  0  0
 38 37  1  6  0  0  0
 38 42  1  0  0  0  0
 40 41  1  0  0  0  0
 40 36  1  0  0  0  0
 41 38  1  0  0  0  0
 41 30  1  0  0  0  0
 43 35  1  0  0  0  0
 43 42  1  0  0  0  0
 44 45  1  0  0  0  0
M  END
>  <MODEL>
8

>  <REMARK>
 VINA RESULT:      -9.1      2.465      4.016
  Name = 
  9 active torsions:
  status: ('A' for Active; 'I' for Inactive)
    1  A    between atoms: N_7  and  C_31
    2  A    between atoms: N_7  and  C_43
    3  A    between atoms: N_9  and  C_23
    4  A    between atoms: N_9  and  C_26
    5  A    between atoms: C_11  and  C_16
    6  A    between atoms: C_18  and  C_34
    7  A    between atoms: C_20  and  N_38
    8  A    between atoms: O_22  and  C_39
    9  A    between atoms: C_26  and  C_43
                            x       y       z     vdW  Elec       q    Type
                         _______ _______ _______ _____ _____    ______ ____

>  <TORSDO>
F 9

$$$$
=
 OpenBabel10222416463D

 45 50  0  0  1  0  0  0  0  0999 V2000
  180.7780  178.6960  140.6390 C   0  0  0  0  0  3  0  0  0  0  0  0
  182.9790  177.7770  141.0330 C   0  0  0  0  0  3  0  0  0  0  0  0
  183.0510  178.4480  142.2610 C   0  0  0  0  0  0  0  0  0  0  0  0
  180.8340  179.3770  141.8630 C   0  0  0  0  0  0  0  0  0  0  0  0
  181.9740  179.2460  142.6680 C   0  0  0  0  0  3  0  0  0  0  0  0
  181.8440  177.8970  140.2200 C   0  0  0  0  0  0  0  0  0  0  0  0
  189.8400  177.6050  147.5650 C   0  0  0  0  0  3  0  0  0  0  0  0
  188.7570  177.3170  143.4710 O   0  0  0  0  0  1  0  0  0  0  0  0
  185.8770  178.3760  146.3820 C   0  0  0  0  0  3  0  0  0  0  0  0
  185.5410  178.2720  145.0330 C   0  0  0  0  0  0  0  0  0  0  0  0
  187.8240  177.6660  144.4420 C   0  0  0  0  0  0  0  0  0  0  0  0
  188.8750  177.9570  148.5140 C   0  0  0  0  0  3  0  0  0  0  0  0
  184.2420  178.3060  143.1160 C   0  0  0  0  0  0  0  0  0  0  0  0
  187.2030  178.1220  146.7710 C   0  0  0  0  0  0  0  0  0  0  0  0
  186.4980  177.9250  144.0920 C   0  0  0  0  0  0  0  0  0  0  0  0
  189.4970  177.5070  146.2140 C   0  0  0  0  0  3  0  0  0  0  0  0
  188.1840  177.7640  145.8000 C   0  0  0  0  0  0  0  0  0  0  0  0
  187.5600  178.2160  148.1180 C   0  0  0  0  0  3  0  0  0  0  0  0
  184.2660  178.4910  144.5020 C   0  0  0  0  0  3  0  0  0  0  0  0
  185.7910  177.8780  142.5720 S   0  0  0  0  0  0  0  0  0  0  0  0
  179.2150  181.2590  141.4630 N   0  0  0  0  0  1  0  0  0  0  0  0
  179.7060  180.2160  142.3000 C   0  0  0  0  0  0  0  0  0  0  0  0
  179.1660  180.0200  143.4210 O   0  0  0  0  0  0  0  0  0  0  0  0
  181.7540  177.2130  138.9670 N   0  0  0  0  0  2  0  0  0  0  0  0
  180.5160  175.2590  139.7320 C   0  0  0  0  0  1  0  0  0  0  0  0
  181.6370  175.7640  138.8430 C   0  0  1  0  0  3  0  0  0  0  0  0
  181.3280  175.3970  137.4050 C   0  0  0  0  0  2  0  0  0  0  0  0
  182.3690  174.5270  136.8790 N   0  0  0  0  0  2  0  0  0  0  0  0
  184.7560  174.3840  137.4050 C   0  0  0  0  0  3  0  0  0  0  0  0
  186.3950  175.7620  136.2630 C   0  0  0  0  0  0  0  0  0  0  0  0
  183.7160  174.9580  136.6600 C   0  0  0  0  0  0  0  0  0  0  0  0
  185.3560  176.3370  135.5160 C   0  0  0  0  0  3  0  0  0  0  0  0
  184.0220  175.9560  135.6980 C   0  0  0  0  0  0  0  0  0  0  0  0
  186.0790  174.7800  137.2110 C   0  0  0  0  0  3  0  0  0  0  0  0
  188.9170  177.8250  138.0880 C   0  0  0  0  0  2  0  0  0  0  0  0
  188.2650  178.4680  136.8620 C   0  0  2  0  0  3  0  0  0  0  0  0
  189.8110  175.1640  135.0910 C   0  0  0  0  0  1  0  0  0  0  0  0
  188.8580  175.2150  136.2760 C   0  0  2  0  0  3  0  0  0  0  0  0
  187.0350  179.0180  137.2210 O   0  0  0  0  0  1  0  0  0  0  0  0
  188.0930  177.5370  135.6570 C   0  0  0  0  0  2  0  0  0  0  0  0
  187.7630  176.1660  136.0570 N   0  0  0  0  0  0  0  0  0  0  0  0
  189.6000  175.4800  137.5880 C   0  0  0  0  0  2  0  0  0  0  0  0
  190.0880  176.9200  137.7290 C   0  0  0  0  0  2  0  0  0  0  0  0
  183.0640  176.6040  134.9020 O   0  0  0  0  0  0  0  0  0  0  0  0
  182.4960  177.8770  135.1760 C   0  0  0  0  0  1  0  0  0  0  0  0
  1  4  1  0  0  0  0
  2  3  2  0  0  0  0
  3  5  1  0  0  0  0
  3 13  1  0  0  0  0
  4 22  1  0  0  0  0
  4  5  2  0  0  0  0
  6  1  2  0  0  0  0
  6  2  1  0  0  0  0
  7 12  1  0  0  0  0
  8 11  1  0  0  0  0
  9 14  1  0  0  0  0
 10  9  2  0  0  0  0
 11 17  1  0  0  0  0
 13 19  2  0  0  0  0
 14 18  1  0  0  0  0
 15 11  2  0  0  0  0
 15 10  1  0  0  0  0
 16  7  2  0  0  0  0
 17 16  1  0  0  0  0
 17 14  2  0  0  0  0
 18 12  2  0  0  0  0
 19 10  1  0  0  0  0
 20 13  1  0  0  0  0
 20 15  1  0  0  0  0
 21 22  1  0  0  0  0
 22 23  2  0  0  0  0
 24  6  1  0  0  0  0
 26 24  1  0  0  0  0
 26 25  1  1  0  0  0
 27 26  1  0  0  0  0
 28 27  1  0  0  0  0
 30 34  2  0  0  0  0
 31 28  1  0  0  0  0
 31 29  2  0  0  0  0
 32 33  2  0  0  0  0
 32 30  1  0  0  0  0
 33 31  1  0  0  0  0
 34 29  1  0  0  0  0
 36 39  1  1  0  0  0
 36 35  1  0  0  0  0
 38 37  1  6  0  0  0
 38 42  1  0  0  0  0
 40 41  1  0  0  0  0
 40 36  1  0  0  0  0
 41 30  1  0  0  0  0
 41 38  1  0  0  0  0
 42 43  1  0  0  0  0
 43 35  1  0  0  0  0
 44 45  1  0  0  0  0
 44 33  1  0  0  0  0
M  END
>  <MODEL>
9

>  <REMARK>
 VINA RESULT:      -9.1      1.674      2.430
  Name = 
  9 active torsions:
  status: ('A' for Active; 'I' for Inactive)
    1  A    between atoms: N_7  and  C_31
    2  A    between atoms: N_7  and  C_43
    3  A    between atoms: N_9  and  C_23
    4  A    between atoms: N_9  and  C_26
    5  A    between atoms: C_11  and  C_16
    6  A    between atoms: C_18  and  C_34
    7  A    between atoms: C_20  and  N_38
    8  A    between atoms: O_22  and  C_39
    9  A    between atoms: C_26  and  C_43
                            x       y       z     vdW  Elec       q    Type
                         _______ _______ _______ _____ _____    ______ ____

>  <TORSDO>
F 9

$$$$
