=
 OpenBabel10222417273D

 28 32  0  0  1  0  0  0  0  0999 V2000
  186.4250  177.7930  144.0550 C   0  0  0  0  0  0  0  0  0  0  0  0
  183.5690  177.4480  141.0240 O   0  0  0  0  0  0  0  0  0  0  0  0
  191.3660  177.1610  140.3250 O   0  0  0  0  0  1  0  0  0  0  0  0
  184.4470  179.7500  144.1470 C   0  0  0  0  0  3  0  0  0  0  0  0
  189.2520  178.0710  139.3090 C   0  0  0  0  0  0  0  0  0  0  0  0
  187.5430  176.9150  144.0210 C   0  0  0  0  0  2  0  0  0  0  0  0
  183.5470  179.7860  140.2240 O   0  0  0  0  0  0  0  0  0  0  0  0
  184.1760  178.4310  140.0630 S   0  0  0  0  0  0  0  0  0  0  0  0
  185.0950  177.4030  137.7110 C   0  0  0  0  0  0  0  0  0  0  0  0
  185.8820  178.5350  140.2960 N   0  0  2  0  0  0  0  0  0  0  0  0
  190.9310  176.7310  144.4340 O   0  0  0  0  0  0  0  0  0  0  0  0
  187.8600  177.7250  141.0860 C   0  0  0  0  0  0  0  0  0  0  0  0
  186.3190  177.6770  138.0650 N   0  0  0  0  0  0  0  0  0  0  0  0
  183.9650  177.8660  138.4530 N   0  0  0  0  0  2  0  0  0  0  0  0
  189.8200  176.7250  143.8450 C   0  0  0  0  0  0  0  0  0  0  0  0
  186.0380  178.4130  142.8500 C   0  0  0  0  0  0  0  0  0  0  0  0
  190.0240  177.5160  140.4140 C   0  0  1  0  0  3  0  0  0  0  0  0
  184.8670  176.5280  136.5330 C   0  0  0  0  0  1  0  0  0  0  0  0
  189.6920  176.2030  142.4510 C   0  0  0  0  0  2  0  0  0  0  0  0
  185.0430  179.4040  142.9320 C   0  0  0  0  0  3  0  0  0  0  0  0
  185.8470  178.1480  145.2790 C   0  0  0  0  0  3  0  0  0  0  0  0
  184.8470  179.1180  145.3230 C   0  0  0  0  0  3  0  0  0  0  0  0
  188.6880  177.3360  144.4320 N   0  0  0  0  0  2  0  0  0  0  0  0
  188.0030  178.1040  139.7120 C   0  0  0  0  0  0  0  0  0  0  0  0
  189.2460  177.2780  141.4790 C   0  0  0  0  0  0  0  0  0  0  0  0
  186.7500  178.5990  139.1250 C   0  0  2  0  0  3  0  0  0  0  0  0
  189.7590  178.4590  137.9640 C   0  0  0  0  0  1  0  0  0  0  0  0
  186.6070  178.1070  141.4760 C   0  0  1  0  0  3  0  0  0  0  0  0
  1 21  1  0  0  0  0
  4 22  1  0  0  0  0
  5 24  2  0  0  0  0
  5 17  1  0  0  0  0
  6  1  1  0  0  0  0
  6 23  1  0  0  0  0
  8  7  2  0  0  0  0
  8  2  2  0  0  0  0
  9 13  2  0  0  0  0
  9 14  1  0  0  0  0
 10  8  1  6  0  0  0
 10 28  1  0  0  0  0
 12 25  2  0  0  0  0
 14  8  1  0  0  0  0
 15 23  1  0  0  0  0
 15 11  2  0  0  0  0
 16 20  1  0  0  0  0
 16  1  2  0  0  0  0
 17  3  1  6  0  0  0
 17 25  1  0  0  0  0
 18  9  1  0  0  0  0
 19 15  1  0  0  0  0
 20  4  2  0  0  0  0
 21 22  2  0  0  0  0
 24 12  1  0  0  0  0
 25 19  1  0  0  0  0
 26 13  1  6  0  0  0
 26 24  1  0  0  0  0
 26 10  1  0  0  0  0
 27  5  1  0  0  0  0
 28 12  1  1  0  0  0
 28 16  1  0  0  0  0
M  END
>  <MODEL>
1

>  <REMARK>
 VINA RESULT:      -9.0      0.000      0.000
  Name = 
  0 active torsions:
  status: ('A' for Active; 'I' for Inactive)
                            x       y       z     vdW  Elec       q    Type
                         _______ _______ _______ _____ _____    ______ ____

>  <TORSDO>
F 0

$$$$
=
 OpenBabel10222417273D

 28 32  0  0  1  0  0  0  0  0999 V2000
  187.4930  177.5570  145.9310 C   0  0  0  0  0  0  0  0  0  0  0  0
  183.6270  177.8070  144.3670 O   0  0  0  0  0  0  0  0  0  0  0  0
  190.3630  177.1340  140.4250 O   0  0  0  0  0  1  0  0  0  0  0  0
  185.9630  179.6030  147.0390 C   0  0  0  0  0  3  0  0  0  0  0  0
  188.1370  178.3030  140.4880 C   0  0  0  0  0  0  0  0  0  0  0  0
  188.3920  176.6240  145.3440 C   0  0  0  0  0  2  0  0  0  0  0  0
  183.5430  180.2300  143.8830 O   0  0  0  0  0  0  0  0  0  0  0  0
  183.8930  178.8730  143.3420 S   0  0  0  0  0  0  0  0  0  0  0  0
  183.6430  178.1190  140.7320 C   0  0  0  0  0  0  0  0  0  0  0  0
  185.5440  178.8370  142.8430 N   0  0  2  0  0  0  0  0  0  0  0  0
  191.6060  176.1760  144.2720 O   0  0  0  0  0  0  0  0  0  0  0  0
  187.5660  177.8050  142.6430 C   0  0  0  0  0  0  0  0  0  0  0  0
  184.9270  178.2660  140.5630 N   0  0  0  0  0  0  0  0  0  0  0  0
  182.9780  178.5460  141.9230 N   0  0  0  0  0  2  0  0  0  0  0  0
  190.3580  176.3190  144.2080 C   0  0  0  0  0  0  0  0  0  0  0  0
  186.7200  178.3590  145.0680 C   0  0  0  0  0  0  0  0  0  0  0  0
  189.2250  177.5560  141.1060 C   0  0  0  0  0  0  0  0  0  0  0  0
  182.8540  177.4290  139.6800 C   0  0  0  0  0  1  0  0  0  0  0  0
  189.6110  176.0010  142.9540 C   0  0  0  0  0  2  0  0  0  0  0  0
  185.9650  179.3890  145.6590 C   0  0  0  0  0  3  0  0  0  0  0  0
  187.5130  177.7770  147.3130 C   0  0  0  0  0  3  0  0  0  0  0  0
  186.7370  178.7930  147.8680 C   0  0  0  0  0  3  0  0  0  0  0  0
  189.6440  176.9140  145.2740 N   0  0  0  0  0  2  0  0  0  0  0  0
  187.1750  178.3590  141.3810 C   0  0  1  0  0  3  0  0  0  0  0  0
  188.9320  177.2240  142.3700 C   0  0  0  0  0  0  0  0  0  0  0  0
  185.8570  179.0060  141.4270 C   0  0  2  0  0  3  0  0  0  0  0  0
  188.0870  178.8390  139.1000 C   0  0  0  0  0  1  0  0  0  0  0  0
  186.6360  178.2080  143.5600 C   0  0  1  0  0  3  0  0  0  0  0  0
  1 21  1  0  0  0  0
  3 17  1  0  0  0  0
  4 22  1  0  0  0  0
  5 17  2  0  0  0  0
  6  1  1  0  0  0  0
  8  7  2  0  0  0  0
  8  2  2  0  0  0  0
  9 14  1  0  0  0  0
 10  8  1  6  0  0  0
 10 28  1  0  0  0  0
 13  9  2  0  0  0  0
 14  8  1  0  0  0  0
 15 11  2  0  0  0  0
 15 23  1  0  0  0  0
 16 20  1  0  0  0  0
 16  1  2  0  0  0  0
 17 25  1  0  0  0  0
 18  9  1  0  0  0  0
 19 15  1  0  0  0  0
 20  4  2  0  0  0  0
 21 22  2  0  0  0  0
 23  6  1  0  0  0  0
 24  5  1  1  0  0  0
 24 26  1  0  0  0  0
 24 12  1  0  0  0  0
 25 12  2  0  0  0  0
 25 19  1  0  0  0  0
 26 13  1  6  0  0  0
 26 10  1  0  0  0  0
 27  5  1  0  0  0  0
 28 12  1  6  0  0  0
 28 16  1  0  0  0  0
M  END
>  <MODEL>
2

>  <REMARK>
 VINA RESULT:      -7.9      1.997      2.465
  Name = 
  0 active torsions:
  status: ('A' for Active; 'I' for Inactive)
                            x       y       z     vdW  Elec       q    Type
                         _______ _______ _______ _____ _____    ______ ____

>  <TORSDO>
F 0

$$$$
=
 OpenBabel10222417273D

 28 32  0  0  1  0  0  0  0  0999 V2000
  186.5750  177.8760  142.4210 C   0  0  0  0  0  0  0  0  0  0  0  0
  190.1010  175.6450  142.1860 O   0  0  0  0  0  0  0  0  0  0  0  0
  186.7360  178.6410  148.5950 O   0  0  0  0  0  1  0  0  0  0  0  0
  188.3200  178.7380  140.4300 C   0  0  0  0  0  3  0  0  0  0  0  0
  188.9260  178.2820  147.4110 C   0  0  0  0  0  0  0  0  0  0  0  0
  185.6750  177.5910  143.4840 C   0  0  0  0  0  2  0  0  0  0  0  0
  191.7440  177.4920  142.1410 O   0  0  0  0  0  0  0  0  0  0  0  0
  190.9670  176.5500  143.0170 S   0  0  0  0  0  0  0  0  0  0  0  0
  191.8540  175.5250  145.3830 C   0  0  0  0  0  0  0  0  0  0  0  0
  190.0110  177.4370  144.1460 N   0  0  2  0  0  0  0  0  0  0  0  0
  183.6430  179.0030  145.8430 O   0  0  0  0  0  0  0  0  0  0  0  0
  188.1010  177.7730  145.3430 C   0  0  0  0  0  0  0  0  0  0  0  0
  191.1140  176.3780  146.0340 N   0  0  0  0  0  0  0  0  0  0  0  0
  192.0410  175.6030  143.9680 N   0  0  0  0  0  2  0  0  0  0  0  0
  184.6240  178.3800  145.3620 C   0  0  0  0  0  0  0  0  0  0  0  0
  187.9470  177.9760  142.7280 C   0  0  0  0  0  0  0  0  0  0  0  0
  187.4720  178.3850  147.4430 C   0  0  1  0  0  3  0  0  0  0  0  0
  192.4730  174.3980  146.1260 C   0  0  0  0  0  1  0  0  0  0  0  0
  185.5140  177.5550  146.2350 C   0  0  0  0  0  2  0  0  0  0  0  0
  188.8000  178.4230  141.7020 C   0  0  0  0  0  3  0  0  0  0  0  0
  186.0830  178.2090  141.1540 C   0  0  0  0  0  3  0  0  0  0  0  0
  186.9580  178.6280  140.1530 C   0  0  0  0  0  3  0  0  0  0  0  0
  184.9950  178.5510  144.0080 N   0  0  0  0  0  2  0  0  0  0  0  0
  189.2390  177.8560  146.2090 C   0  0  0  0  0  0  0  0  0  0  0  0
  186.9370  178.0780  146.2530 C   0  0  0  0  0  0  0  0  0  0  0  0
  190.5070  177.6080  145.5080 C   0  0  2  0  0  3  0  0  0  0  0  0
  189.8700  178.5380  148.5330 C   0  0  0  0  0  1  0  0  0  0  0  0
  188.5790  177.6470  144.0690 C   0  0  1  0  0  3  0  0  0  0  0  0
  1 16  1  0  0  0  0
  1  6  1  0  0  0  0
  2  8  2  0  0  0  0
  4 20  1  0  0  0  0
  5 17  1  0  0  0  0
  5 27  1  0  0  0  0
  6 23  1  0  0  0  0
  7  8  2  0  0  0  0
  8 14  1  0  0  0  0
  9 13  2  0  0  0  0
  9 18  1  0  0  0  0
 10  8  1  1  0  0  0
 10 26  1  0  0  0  0
 12 24  1  0  0  0  0
 12 25  2  0  0  0  0
 14  9  1  0  0  0  0
 15 11  2  0  0  0  0
 15 19  1  0  0  0  0
 17  3  1  1  0  0  0
 19 25  1  0  0  0  0
 20 16  2  0  0  0  0
 21  1  2  0  0  0  0
 22  4  2  0  0  0  0
 22 21  1  0  0  0  0
 23 15  1  0  0  0  0
 24  5  2  0  0  0  0
 25 17  1  0  0  0  0
 26 13  1  1  0  0  0
 26 24  1  0  0  0  0
 28 16  1  6  0  0  0
 28 10  1  0  0  0  0
 28 12  1  0  0  0  0
M  END
>  <MODEL>
3

>  <REMARK>
 VINA RESULT:      -7.6      3.203      7.063
  Name = 
  0 active torsions:
  status: ('A' for Active; 'I' for Inactive)
                            x       y       z     vdW  Elec       q    Type
                         _______ _______ _______ _____ _____    ______ ____

>  <TORSDO>
F 0

$$$$
=
 OpenBabel10222417273D

 28 32  0  0  1  0  0  0  0  0999 V2000
  186.1420  178.5900  142.3770 C   0  0  0  0  0  0  0  0  0  0  0  0
  190.2170  178.6820  143.2990 O   0  0  0  0  0  0  0  0  0  0  0  0
  186.8980  177.1140  136.3780 O   0  0  0  0  0  1  0  0  0  0  0  0
  186.8010  177.1960  144.6950 C   0  0  0  0  0  3  0  0  0  0  0  0
  188.7110  176.4270  137.9810 C   0  0  0  0  0  0  0  0  0  0  0  0
  185.7230  179.1690  141.1470 C   0  0  0  0  0  2  0  0  0  0  0  0
  190.5920  176.2730  143.7060 O   0  0  0  0  0  0  0  0  0  0  0  0
  190.5940  177.3670  142.6760 S   0  0  0  0  0  0  0  0  0  0  0  0
  192.2700  177.4910  140.5290 C   0  0  0  0  0  0  0  0  0  0  0  0
  189.5170  176.9740  141.3870 N   0  0  2  0  0  0  0  0  0  0  0  0
  183.6790  178.7400  138.4410 O   0  0  0  0  0  0  0  0  0  0  0  0
  187.9520  177.5340  139.8290 C   0  0  0  0  0  0  0  0  0  0  0  0
  191.3110  177.0720  139.7520 N   0  0  0  0  0  0  0  0  0  0  0  0
  192.1480  177.4990  141.9530 N   0  0  0  0  0  2  0  0  0  0  0  0
  184.7450  178.8180  139.1050 C   0  0  0  0  0  0  0  0  0  0  0  0
  187.2800  177.7580  142.3590 C   0  0  0  0  0  0  0  0  0  0  0  0
  187.4540  177.0890  137.6530 C   0  0  0  0  0  0  0  0  0  0  0  0
  193.5070  178.0350  139.9140 C   0  0  0  0  0  1  0  0  0  0  0  0
  186.0670  178.9510  138.4220 C   0  0  0  0  0  2  0  0  0  0  0  0
  187.5800  177.0610  143.5440 C   0  0  0  0  0  3  0  0  0  0  0  0
  185.3450  178.7160  143.5200 C   0  0  0  0  0  3  0  0  0  0  0  0
  185.6830  178.0280  144.6840 C   0  0  0  0  0  3  0  0  0  0  0  0
  184.7360  178.6450  140.5080 N   0  0  0  0  0  2  0  0  0  0  0  0
  188.9970  176.7710  139.2170 C   0  0  1  0  0  3  0  0  0  0  0  0
  186.9740  177.7690  138.7030 C   0  0  0  0  0  0  0  0  0  0  0  0
  190.0650  176.4080  140.1590 C   0  0  2  0  0  3  0  0  0  0  0  0
  189.5470  175.5860  137.0800 C   0  0  0  0  0  1  0  0  0  0  0  0
  188.2030  177.5470  141.1720 C   0  0  1  0  0  3  0  0  0  0  0  0
  1 21  1  0  0  0  0
  3 17  1  0  0  0  0
  6  1  1  0  0  0  0
  8  2  2  0  0  0  0
  8  7  2  0  0  0  0
  9 14  1  0  0  0  0
 10  8  1  6  0  0  0
 11 15  2  0  0  0  0
 13  9  2  0  0  0  0
 14  8  1  0  0  0  0
 15 23  1  0  0  0  0
 16  1  2  0  0  0  0
 16 20  1  0  0  0  0
 17  5  2  0  0  0  0
 17 25  1  0  0  0  0
 18  9  1  0  0  0  0
 19 25  1  0  0  0  0
 19 15  1  0  0  0  0
 20  4  2  0  0  0  0
 21 22  2  0  0  0  0
 22  4  1  0  0  0  0
 23  6  1  0  0  0  0
 24  5  1  1  0  0  0
 24 12  1  0  0  0  0
 24 26  1  0  0  0  0
 25 12  2  0  0  0  0
 26 13  1  6  0  0  0
 26 10  1  0  0  0  0
 27  5  1  0  0  0  0
 28 12  1  6  0  0  0
 28 10  1  0  0  0  0
 28 16  1  0  0  0  0
M  END
>  <MODEL>
4

>  <REMARK>
 VINA RESULT:      -7.4      2.690      5.397
  Name = 
  0 active torsions:
  status: ('A' for Active; 'I' for Inactive)
                            x       y       z     vdW  Elec       q    Type
                         _______ _______ _______ _____ _____    ______ ____

>  <TORSDO>
F 0

$$$$
=
 OpenBabel10222417273D

 28 32  0  0  1  0  0  0  0  0999 V2000
  184.4340  178.3210  141.3890 C   0  0  0  0  0  0  0  0  0  0  0  0
  186.3320  176.8060  137.9880 O   0  0  0  0  0  0  0  0  0  0  0  0
  189.4280  177.9850  145.0870 O   0  0  0  0  0  1  0  0  0  0  0  0
  183.9680  179.8120  139.0830 C   0  0  0  0  0  3  0  0  0  0  0  0
  189.8270  178.2240  142.6150 C   0  0  0  0  0  0  0  0  0  0  0  0
  184.7090  177.7010  142.6390 C   0  0  0  0  0  2  0  0  0  0  0  0
  187.3740  178.8840  137.1490 O   0  0  0  0  0  0  0  0  0  0  0  0
  187.5520  177.6820  138.0320 S   0  0  0  0  0  0  0  0  0  0  0  0
  189.9240  176.4170  138.4910 C   0  0  0  0  0  0  0  0  0  0  0  0
  187.8880  178.1760  139.6500 N   0  0  2  0  0  0  0  0  0  0  0  0
  185.3730  178.3000  145.9380 O   0  0  0  0  0  0  0  0  0  0  0  0
  187.6710  177.9600  141.9080 C   0  0  0  0  0  0  0  0  0  0  0  0
  190.0150  177.0010  139.6530 N   0  0  0  0  0  0  0  0  0  0  0  0
  188.9270  176.7780  137.5330 N   0  0  0  0  0  2  0  0  0  0  0  0
  185.5730  177.9490  144.7470 C   0  0  0  0  0  0  0  0  0  0  0  0
  185.5220  178.5980  140.5370 C   0  0  0  0  0  0  0  0  0  0  0  0
  188.9620  178.0690  143.7790 C   0  0  1  0  0  3  0  0  0  0  0  0
  190.8480  175.2980  138.1750 C   0  0  0  0  0  1  0  0  0  0  0  0
  186.7770  177.1470  144.3730 C   0  0  0  0  0  2  0  0  0  0  0  0
  185.2540  179.3610  139.3850 C   0  0  0  0  0  3  0  0  0  0  0  0
  183.1450  178.7860  141.1040 C   0  0  0  0  0  3  0  0  0  0  0  0
  182.9100  179.5210  139.9430 C   0  0  0  0  0  3  0  0  0  0  0  0
  184.7400  178.4210  143.7060 N   0  0  0  0  0  2  0  0  0  0  0  0
  189.0550  178.0800  141.5610 C   0  0  0  0  0  0  0  0  0  0  0  0
  187.6850  177.8940  143.4160 C   0  0  0  0  0  0  0  0  0  0  0  0
  189.2730  178.1820  140.1120 C   0  0  2  0  0  3  0  0  0  0  0  0
  191.3010  178.4320  142.6110 C   0  0  0  0  0  1  0  0  0  0  0  0
  186.9550  178.1480  140.7590 C   0  0  1  0  0  3  0  0  0  0  0  0
  1  6  1  0  0  0  0
  2  8  2  0  0  0  0
  4 20  2  0  0  0  0
  4 22  1  0  0  0  0
  5 17  1  0  0  0  0
  6 23  1  0  0  0  0
  7  8  2  0  0  0  0
  9 13  2  0  0  0  0
 10  8  1  6  0  0  0
 10 26  1  0  0  0  0
 10 28  1  0  0  0  0
 12 25  2  0  0  0  0
 14  8  1  0  0  0  0
 14  9  1  0  0  0  0
 15 11  2  0  0  0  0
 16  1  2  0  0  0  0
 17  3  1  6  0  0  0
 18  9  1  0  0  0  0
 19 15  1  0  0  0  0
 20 16  1  0  0  0  0
 21  1  1  0  0  0  0
 22 21  2  0  0  0  0
 23 15  1  0  0  0  0
 24 12  1  0  0  0  0
 24  5  2  0  0  0  0
 25 17  1  0  0  0  0
 25 19  1  0  0  0  0
 26 13  1  6  0  0  0
 26 24  1  0  0  0  0
 27  5  1  0  0  0  0
 28 16  1  1  0  0  0
 28 12  1  0  0  0  0
M  END
>  <MODEL>
5

>  <REMARK>
 VINA RESULT:      -7.4      2.707      4.126
  Name = 
  0 active torsions:
  status: ('A' for Active; 'I' for Inactive)
                            x       y       z     vdW  Elec       q    Type
                         _______ _______ _______ _____ _____    ______ ____

>  <TORSDO>
F 0

$$$$
=
 OpenBabel10222417273D

 28 32  0  0  1  0  0  0  0  0999 V2000
  184.8640  179.1080  142.6180 C   0  0  0  0  0  0  0  0  0  0  0  0
  185.7350  179.7340  146.6560 O   0  0  0  0  0  0  0  0  0  0  0  0
  190.3270  176.4820  141.2060 O   0  0  0  0  0  1  0  0  0  0  0  0
  182.8380  178.2890  144.3440 C   0  0  0  0  0  3  0  0  0  0  0  0
  189.5310  176.3000  143.5860 C   0  0  0  0  0  0  0  0  0  0  0  0
  185.8850  179.3800  141.6650 C   0  0  0  0  0  2  0  0  0  0  0  0
  185.1480  177.5030  147.5450 O   0  0  0  0  0  0  0  0  0  0  0  0
  186.2430  178.3540  146.9680 S   0  0  0  0  0  0  0  0  0  0  0  0
  188.8820  178.1680  147.6320 C   0  0  0  0  0  0  0  0  0  0  0  0
  186.8940  177.6120  145.5540 N   0  0  2  0  0  0  0  0  0  0  0  0
  187.4010  178.2250  138.8270 O   0  0  0  0  0  0  0  0  0  0  0  0
  187.7330  177.7000  143.4370 C   0  0  0  0  0  0  0  0  0  0  0  0
  189.1180  177.5180  146.5270 N   0  0  0  0  0  0  0  0  0  0  0  0
  187.5550  178.4630  148.0750 N   0  0  0  0  0  2  0  0  0  0  0  0
  187.2580  178.5300  140.0390 C   0  0  0  0  0  0  0  0  0  0  0  0
  185.2200  178.3890  143.7770 C   0  0  0  0  0  0  0  0  0  0  0  0
  189.4090  176.7700  142.2110 C   0  0  0  0  0  0  0  0  0  0  0  0
  190.0300  178.6750  148.4260 C   0  0  0  0  0  1  0  0  0  0  0  0
  188.4370  178.6280  140.9510 C   0  0  0  0  0  2  0  0  0  0  0  0
  184.1720  177.9830  144.6230 C   0  0  0  0  0  3  0  0  0  0  0  0
  183.5290  179.4010  142.3200 C   0  0  0  0  0  3  0  0  0  0  0  0
  182.5160  179.0030  143.1910 C   0  0  0  0  0  3  0  0  0  0  0  0
  185.9680  178.6530  140.6060 N   0  0  0  0  0  2  0  0  0  0  0  0
  188.5950  176.9170  144.2700 C   0  0  1  0  0  3  0  0  0  0  0  0
  188.3750  177.6110  142.0750 C   0  0  0  0  0  0  0  0  0  0  0  0
  188.1340  176.8510  145.6640 C   0  0  2  0  0  3  0  0  0  0  0  0
  190.5530  175.3630  144.1280 C   0  0  0  0  0  1  0  0  0  0  0  0
  186.6330  178.0150  144.1860 C   0  0  1  0  0  3  0  0  0  0  0  0
  1 16  1  0  0  0  0
  2  8  2  0  0  0  0
  3 17  1  0  0  0  0
  4 20  1  0  0  0  0
  5 27  1  0  0  0  0
  5 24  1  0  0  0  0
  6  1  1  0  0  0  0
  8  7  2  0  0  0  0
  8 14  1  0  0  0  0
  9 14  1  0  0  0  0
  9 18  1  0  0  0  0
 10 26  1  0  0  0  0
 10  8  1  1  0  0  0
 11 15  2  0  0  0  0
 13  9  2  0  0  0  0
 15 23  1  0  0  0  0
 15 19  1  0  0  0  0
 16 28  1  0  0  0  0
 16 20  2  0  0  0  0
 17  5  2  0  0  0  0
 19 25  1  0  0  0  0
 21  1  2  0  0  0  0
 21 22  1  0  0  0  0
 22  4  2  0  0  0  0
 23  6  1  0  0  0  0
 24 12  1  6  0  0  0
 24 26  1  0  0  0  0
 25 17  1  0  0  0  0
 25 12  2  0  0  0  0
 26 13  1  1  0  0  0
 28 12  1  6  0  0  0
 28 10  1  0  0  0  0
M  END
>  <MODEL>
6

>  <REMARK>
 VINA RESULT:      -7.3      3.008      5.912
  Name = 
  0 active torsions:
  status: ('A' for Active; 'I' for Inactive)
                            x       y       z     vdW  Elec       q    Type
                         _______ _______ _______ _____ _____    ______ ____

>  <TORSDO>
F 0

$$$$
=
 OpenBabel10222417273D

 28 32  0  0  1  0  0  0  0  0999 V2000
  185.0980  177.3160  136.9370 C   0  0  0  0  0  0  0  0  0  0  0  0
  188.7560  176.3640  138.7190 O   0  0  0  0  0  0  0  0  0  0  0  0
  182.2010  178.8200  142.2360 O   0  0  0  0  0  1  0  0  0  0  0  0
  187.2960  178.4630  135.6710 C   0  0  0  0  0  3  0  0  0  0  0  0
  184.7040  179.0660  142.1700 C   0  0  0  0  0  0  0  0  0  0  0  0
  183.9080  176.8790  137.5820 C   0  0  0  0  0  2  0  0  0  0  0  0
  189.7310  178.6300  138.8720 O   0  0  0  0  0  0  0  0  0  0  0  0
  188.8920  177.5960  139.5680 S   0  0  0  0  0  0  0  0  0  0  0  0
  188.8060  177.2100  142.2670 C   0  0  0  0  0  0  0  0  0  0  0  0
  187.3410  178.2450  139.9510 N   0  0  2  0  0  0  0  0  0  0  0  0
  180.7440  177.8110  138.4790 O   0  0  0  0  0  0  0  0  0  0  0  0
  185.0770  178.0720  140.1480 C   0  0  0  0  0  0  0  0  0  0  0  0
  187.6680  177.8420  142.3240 N   0  0  0  0  0  0  0  0  0  0  0  0
  189.6000  177.1760  141.0780 N   0  0  0  0  0  2  0  0  0  0  0  0
  181.9540  177.4940  138.6090 C   0  0  0  0  0  0  0  0  0  0  0  0
  186.1030  177.8990  137.7350 C   0  0  0  0  0  0  0  0  0  0  0  0
  183.4240  178.6860  141.5850 C   0  0  1  0  0  3  0  0  0  0  0  0
  189.2660  176.4470  143.4550 C   0  0  0  0  0  1  0  0  0  0  0  0
  182.5110  177.1200  139.9440 C   0  0  0  0  0  2  0  0  0  0  0  0
  187.1960  178.4780  137.0640 C   0  0  0  0  0  3  0  0  0  0  0  0
  185.1810  177.3150  135.5400 C   0  0  0  0  0  3  0  0  0  0  0  0
  186.2880  177.8770  134.9070 C   0  0  0  0  0  3  0  0  0  0  0  0
  182.8530  177.6160  137.5250 N   0  0  0  0  0  2  0  0  0  0  0  0
  185.6290  178.6280  141.3470 C   0  0  0  0  0  0  0  0  0  0  0  0
  183.5900  178.0810  140.4020 C   0  0  0  0  0  0  0  0  0  0  0  0
  187.0940  178.7310  141.3050 C   0  0  2  0  0  3  0  0  0  0  0  0
  184.9300  179.7510  143.4720 C   0  0  0  0  0  1  0  0  0  0  0  0
  186.1030  177.9600  139.2520 C   0  0  1  0  0  3  0  0  0  0  0  0
  1  6  1  0  0  0  0
  1 16  1  0  0  0  0
  2  8  2  0  0  0  0
  4 20  1  0  0  0  0
  5 27  1  0  0  0  0
  7  8  2  0  0  0  0
  8 14  1  0  0  0  0
  9 13  2  0  0  0  0
  9 18  1  0  0  0  0
 10  8  1  1  0  0  0
 10 26  1  0  0  0  0
 11 15  2  0  0  0  0
 12 25  2  0  0  0  0
 12 24  1  0  0  0  0
 14  9  1  0  0  0  0
 15 19  1  0  0  0  0
 17  5  1  0  0  0  0
 17  3  1  1  0  0  0
 19 25  1  0  0  0  0
 20 16  2  0  0  0  0
 21  1  2  0  0  0  0
 22 21  1  0  0  0  0
 22  4  2  0  0  0  0
 23  6  1  0  0  0  0
 23 15  1  0  0  0  0
 24  5  2  0  0  0  0
 25 17  1  0  0  0  0
 26 24  1  1  0  0  0
 26 13  1  0  0  0  0
 28 16  1  6  0  0  0
 28 10  1  0  0  0  0
 28 12  1  0  0  0  0
M  END
>  <MODEL>
7

>  <REMARK>
 VINA RESULT:      -7.0      2.356      7.017
  Name = 
  0 active torsions:
  status: ('A' for Active; 'I' for Inactive)
                            x       y       z     vdW  Elec       q    Type
                         _______ _______ _______ _____ _____    ______ ____

>  <TORSDO>
F 0

$$$$
=
 OpenBabel10222417273D

 28 32  0  0  1  0  0  0  0  0999 V2000
  191.1080  175.9160  138.3490 C   0  0  0  0  0  0  0  0  0  0  0  0
  190.6860  176.0990  142.5020 O   0  0  0  0  0  0  0  0  0  0  0  0
  185.2820  177.6820  137.0560 O   0  0  0  0  0  1  0  0  0  0  0  0
  193.1800  177.2640  139.6300 C   0  0  0  0  0  3  0  0  0  0  0  0
  186.2680  178.4410  139.2420 C   0  0  0  0  0  0  0  0  0  0  0  0
  190.0410  175.3560  137.5940 C   0  0  0  0  0  2  0  0  0  0  0  0
  191.1010  178.5120  142.8430 O   0  0  0  0  0  0  0  0  0  0  0  0
  190.0590  177.4620  142.5800 S   0  0  0  0  0  0  0  0  0  0  0  0
  187.4880  177.5520  143.4850 C   0  0  0  0  0  0  0  0  0  0  0  0
  189.2030  177.8220  141.1260 N   0  0  2  0  0  0  0  0  0  0  0  0
  188.1530  175.7340  134.7690 O   0  0  0  0  0  0  0  0  0  0  0  0
  188.1890  177.2070  139.1810 C   0  0  0  0  0  0  0  0  0  0  0  0
  187.0810  177.9260  142.3050 N   0  0  0  0  0  0  0  0  0  0  0  0
  188.8740  177.4780  143.8260 N   0  0  0  0  0  2  0  0  0  0  0  0
  188.4390  175.7110  135.9940 C   0  0  0  0  0  0  0  0  0  0  0  0
  190.7830  176.8330  139.3690 C   0  0  0  0  0  0  0  0  0  0  0  0
  186.3150  177.6990  137.9880 C   0  0  0  0  0  0  0  0  0  0  0  0
  186.4800  177.1280  144.4910 C   0  0  0  0  0  1  0  0  0  0  0  0
  187.3660  175.7070  137.0340 C   0  0  0  0  0  2  0  0  0  0  0  0
  191.8530  177.5030  139.9900 C   0  0  0  0  0  3  0  0  0  0  0  0
  192.4350  175.6850  137.9680 C   0  0  0  0  0  3  0  0  0  0  0  0
  193.4730  176.3500  138.6190 C   0  0  0  0  0  3  0  0  0  0  0  0
  189.7810  175.8280  136.4240 N   0  0  0  0  0  2  0  0  0  0  0  0
  187.3260  178.0710  139.9280 C   0  0  1  0  0  3  0  0  0  0  0  0
  187.4180  176.9430  137.9110 C   0  0  0  0  0  0  0  0  0  0  0  0
  187.9020  178.4760  141.2170 C   0  0  2  0  0  3  0  0  0  0  0  0
  185.2030  179.3780  139.6940 C   0  0  0  0  0  1  0  0  0  0  0  0
  189.3800  177.1600  139.8490 C   0  0  1  0  0  3  0  0  0  0  0  0
  1 16  1  0  0  0  0
  2  8  2  0  0  0  0
  3 17  1  0  0  0  0
  4 20  1  0  0  0  0
  5 27  1  0  0  0  0
  5 24  1  0  0  0  0
  6  1  1  0  0  0  0
  8  7  2  0  0  0  0
  8 14  1  0  0  0  0
  9 14  1  0  0  0  0
  9 18  1  0  0  0  0
 10 26  1  0  0  0  0
 10  8  1  1  0  0  0
 11 15  2  0  0  0  0
 13  9  2  0  0  0  0
 15 23  1  0  0  0  0
 15 19  1  0  0  0  0
 16 28  1  0  0  0  0
 16 20  2  0  0  0  0
 17  5  2  0  0  0  0
 19 25  1  0  0  0  0
 21  1  2  0  0  0  0
 21 22  1  0  0  0  0
 22  4  2  0  0  0  0
 23  6  1  0  0  0  0
 24 12  1  6  0  0  0
 24 26  1  0  0  0  0
 25 17  1  0  0  0  0
 25 12  2  0  0  0  0
 26 13  1  1  0  0  0
 28 12  1  6  0  0  0
 28 10  1  0  0  0  0
M  END
>  <MODEL>
8

>  <REMARK>
 VINA RESULT:      -7.0      2.979      6.804
  Name = 
  0 active torsions:
  status: ('A' for Active; 'I' for Inactive)
                            x       y       z     vdW  Elec       q    Type
                         _______ _______ _______ _____ _____    ______ ____

>  <TORSDO>
F 0

$$$$
=
 OpenBabel10222417273D

 28 32  0  0  1  0  0  0  0  0999 V2000
  185.6140  178.0930  144.7620 C   0  0  0  0  0  0  0  0  0  0  0  0
  184.4870  177.5020  140.7820 O   0  0  0  0  0  0  0  0  0  0  0  0
  191.6960  177.1540  143.8280 O   0  0  0  0  0  1  0  0  0  0  0  0
  183.8990  180.0530  143.7770 C   0  0  0  0  0  3  0  0  0  0  0  0
  190.3350  177.9790  141.8800 C   0  0  0  0  0  0  0  0  0  0  0  0
  186.5840  177.2140  145.3180 C   0  0  0  0  0  2  0  0  0  0  0  0
  184.9300  179.7680  139.8970 O   0  0  0  0  0  0  0  0  0  0  0  0
  185.5080  178.4030  140.1470 S   0  0  0  0  0  0  0  0  0  0  0  0
  187.3760  177.1850  138.5780 C   0  0  0  0  0  0  0  0  0  0  0  0
  186.9130  178.5240  141.1420 N   0  0  2  0  0  0  0  0  0  0  0  0
  189.3810  177.0630  147.2780 O   0  0  0  0  0  0  0  0  0  0  0  0
  188.2630  177.7810  142.8200 C   0  0  0  0  0  0  0  0  0  0  0  0
  188.3040  177.4870  139.4420 N   0  0  0  0  0  0  0  0  0  0  0  0
  186.0490  177.7080  138.6710 N   0  0  0  0  0  2  0  0  0  0  0  0
  188.6720  177.0090  146.2400 C   0  0  0  0  0  0  0  0  0  0  0  0
  185.8580  178.6130  143.4740 C   0  0  0  0  0  0  0  0  0  0  0  0
  190.4810  177.5170  143.2550 C   0  0  1  0  0  3  0  0  0  0  0  0
  187.6890  176.2160  137.4960 C   0  0  0  0  0  1  0  0  0  0  0  0
  189.1880  176.3750  144.9890 C   0  0  0  0  0  2  0  0  0  0  0  0
  184.9770  179.6080  143.0100 C   0  0  0  0  0  3  0  0  0  0  0  0
  184.5470  178.5480  145.5450 C   0  0  0  0  0  3  0  0  0  0  0  0
  183.6810  179.5190  145.0460 C   0  0  0  0  0  3  0  0  0  0  0  0
  187.4220  177.6670  146.1850 N   0  0  0  0  0  2  0  0  0  0  0  0
  189.0430  178.0460  141.6490 C   0  0  0  0  0  0  0  0  0  0  0  0
  189.2880  177.3670  143.8470 C   0  0  0  0  0  0  0  0  0  0  0  0
  188.2280  178.4920  140.5110 C   0  0  2  0  0  3  0  0  0  0  0  0
  191.4240  178.2550  140.9030 C   0  0  0  0  0  1  0  0  0  0  0  0
  186.9880  178.1940  142.5510 C   0  0  1  0  0  3  0  0  0  0  0  0
  1  6  1  0  0  0  0
  1 21  1  0  0  0  0
  4 22  1  0  0  0  0
  5 17  1  0  0  0  0
  6 23  1  0  0  0  0
  7  8  2  0  0  0  0
  8  2  2  0  0  0  0
  9 14  1  0  0  0  0
  9 13  2  0  0  0  0
 10  8  1  6  0  0  0
 10 28  1  0  0  0  0
 12 25  2  0  0  0  0
 14  8  1  0  0  0  0
 15 11  2  0  0  0  0
 16  1  2  0  0  0  0
 17  3  1  6  0  0  0
 17 25  1  0  0  0  0
 18  9  1  0  0  0  0
 19 15  1  0  0  0  0
 20 16  1  0  0  0  0
 20  4  2  0  0  0  0
 22 21  2  0  0  0  0
 23 15  1  0  0  0  0
 24  5  2  0  0  0  0
 24 12  1  0  0  0  0
 25 19  1  0  0  0  0
 26 13  1  6  0  0  0
 26 10  1  0  0  0  0
 26 24  1  0  0  0  0
 27  5  1  0  0  0  0
 28 12  1  1  0  0  0
 28 16  1  0  0  0  0
M  END
>  <MODEL>
9

>  <REMARK>
 VINA RESULT:      -7.0      1.620      2.142
  Name = 
  0 active torsions:
  status: ('A' for Active; 'I' for Inactive)
                            x       y       z     vdW  Elec       q    Type
                         _______ _______ _______ _____ _____    ______ ____

>  <TORSDO>
F 0

$$$$
