=
 OpenBabel10222420063D

 27 29  0  0  1  0  0  0  0  0999 V2000
  187.0790  175.4760  137.5720 O   0  0  0  0  0  0  0  0  0  0  0  0
  188.9380  177.2050  139.7510 C   0  0  1  0  0  3  0  0  0  0  0  0
  190.5800  175.9320  138.1910 C   0  0  0  0  0  0  0  0  0  0  0  0
  191.2820  176.8820  140.2330 O   0  0  0  0  0  0  0  0  0  0  0  0
  187.8510  176.9010  135.7180 O   0  0  0  0  0  0  0  0  0  0  0  0
  188.1290  176.4550  137.1270 S   0  0  0  0  0  0  0  0  0  0  0  0
  188.1450  178.1260  138.3840 S   0  0  0  0  0  0  0  0  0  0  0  0
  191.8310  175.1920  137.8310 C   0  0  1  0  0  3  0  0  0  0  0  0
  189.7180  175.7350  137.2120 C   0  0  0  0  0  0  0  0  0  0  0  0
  190.3320  176.7070  139.4230 C   0  0  0  0  0  0  0  0  0  0  0  0
  191.4670  174.6040  136.5440 N   0  0  0  0  0  0  0  0  0  0  0  0
  190.2830  174.9180  136.2050 N   0  0  0  0  0  0  0  0  0  0  0  0
  192.9460  176.1280  137.6420 C   0  0  0  0  0  0  0  0  0  0  0  0
  193.8250  176.8660  137.4940 N   0  0  0  0  0  0  0  0  0  0  0  0
  188.7640  177.9240  141.1050 C   0  0  1  0  0  3  0  0  0  0  0  0
  187.4490  178.6960  141.0600 C   0  0  0  0  0  1  0  0  0  0  0  0
  187.8010  176.9110  144.4510 C   0  0  1  0  0  3  0  0  0  0  0  0
  187.5280  177.0840  142.9720 C   0  0  0  0  0  2  0  0  0  0  0  0
  188.8070  177.0140  142.2660 N   0  0  0  0  0  0  0  0  0  0  0  0
  189.2860  177.1230  144.6160 C   0  0  0  0  0  2  0  0  0  0  0  0
  189.7790  177.5020  143.2380 C   0  0  0  0  0  2  0  0  0  0  0  0
  187.0270  177.9080  145.2490 C   0  0  0  0  0  0  0  0  0  0  0  0
  187.4420  178.2190  146.3980 O   0  0  0  0  0  0  0  0  0  0  0  0
  184.5840  178.4660  146.7300 N   0  0  0  0  0  1  0  0  0  0  0  0
  184.7290  178.7500  145.3400 C   0  0  0  0  0  0  0  0  0  0  0  0
  185.8310  178.4910  144.7010 N   0  0  0  0  0  0  0  0  0  0  0  0
  183.6390  179.3330  144.6370 N   0  0  0  0  0  1  0  0  0  0  0  0
  2 15  1  1  0  0  0
  3 10  1  0  0  0  0
  5  6  2  0  0  0  0
  6  9  1  0  0  0  0
  6  1  2  0  0  0  0
  6  7  1  0  0  0  0
  7  2  1  0  0  0  0
  8 13  1  6  0  0  0
  8  3  1  0  0  0  0
  9  3  2  0  0  0  0
 10  2  1  0  0  0  0
 10  4  2  0  0  0  0
 11  8  1  0  0  0  0
 12 11  2  0  0  0  0
 12  9  1  0  0  0  0
 14 13  3  0  0  0  0
 15 16  1  6  0  0  0
 15 19  1  0  0  0  0
 17 20  1  0  0  0  0
 17 22  1  1  0  0  0
 18 17  1  0  0  0  0
 19 18  1  0  0  0  0
 19 21  1  0  0  0  0
 21 20  1  0  0  0  0
 22 23  2  0  0  0  0
 25 24  1  0  0  0  0
 26 22  1  0  0  0  0
 26 25  2  0  0  0  0
 27 25  1  0  0  0  0
M  END
>  <MODEL>
1

>  <REMARK>
 VINA RESULT:      -7.5      0.000      0.000
  Name = 
  5 active torsions:
  status: ('A' for Active; 'I' for Inactive)
    1  A    between atoms: C_2  and  C_6
    2  A    between atoms: C_5  and  C_9
    3  A    between atoms: C_6  and  N_19
    4  A    between atoms: N_7  and  C_9
    5  A    between atoms: C_8  and  C_17
                            x       y       z     vdW  Elec       q    Type
                         _______ _______ _______ _____ _____    ______ ____

>  <TORSDO>
F 5

$$$$
=
 OpenBabel10222420063D

 27 29  0  0  1  0  0  0  0  0999 V2000
  191.3250  176.0590  144.5270 O   0  0  0  0  0  0  0  0  0  0  0  0
  188.7650  177.4220  142.8580 C   0  0  1  0  0  3  0  0  0  0  0  0
  188.0850  177.3450  145.3650 C   0  0  0  0  0  0  0  0  0  0  0  0
  186.5020  177.7030  143.6520 O   0  0  0  0  0  0  0  0  0  0  0  0
  191.7840  178.1990  145.6540 O   0  0  0  0  0  0  0  0  0  0  0  0
  190.7650  177.4070  144.8840 S   0  0  0  0  0  0  0  0  0  0  0  0
  190.2420  178.4590  143.1550 S   0  0  0  0  0  0  0  0  0  0  0  0
  187.1510  177.2040  146.5260 C   0  0  1  0  0  3  0  0  0  0  0  0
  189.3110  177.2380  145.8390 C   0  0  0  0  0  0  0  0  0  0  0  0
  187.7150  177.5290  143.9470 C   0  0  0  0  0  0  0  0  0  0  0  0
  188.0830  177.0130  147.6350 N   0  0  0  0  0  0  0  0  0  0  0  0
  189.2900  177.0370  147.2380 N   0  0  0  0  0  0  0  0  0  0  0  0
  186.3960  178.4460  146.7320 C   0  0  0  0  0  0  0  0  0  0  0  0
  185.8010  179.4250  146.8960 N   0  0  0  0  0  0  0  0  0  0  0  0
  188.2630  177.5380  141.4030 C   0  0  1  0  0  3  0  0  0  0  0  0
  187.2670  178.6920  141.3440 C   0  0  0  0  0  1  0  0  0  0  0  0
  189.5150  178.2650  138.0790 C   0  0  1  0  0  3  0  0  0  0  0  0
  188.9110  178.6780  139.4050 C   0  0  0  0  0  2  0  0  0  0  0  0
  189.3450  177.7190  140.4180 N   0  0  0  0  0  0  0  0  0  0  0  0
  189.9870  176.8460  138.2760 C   0  0  0  0  0  2  0  0  0  0  0  0
  189.5460  176.4790  139.6740 C   0  0  0  0  0  2  0  0  0  0  0  0
  188.4970  178.3440  136.9890 C   0  0  0  0  0  0  0  0  0  0  0  0
  188.8800  178.2420  135.7930 O   0  0  0  0  0  0  0  0  0  0  0  0
  186.5260  176.2240  137.2900 N   0  0  0  0  0  1  0  0  0  0  0  0
  186.2100  177.6040  137.4580 C   0  0  0  0  0  0  0  0  0  0  0  0
  187.1090  178.5320  137.3180 N   0  0  0  0  0  0  0  0  0  0  0  0
  184.8770  177.9720  137.7880 N   0  0  0  0  0  1  0  0  0  0  0  0
  1  6  2  0  0  0  0
  2 15  1  6  0  0  0
  2  7  1  0  0  0  0
  2 10  1  0  0  0  0
  3  9  2  0  0  0  0
  3  8  1  0  0  0  0
  4 10  2  0  0  0  0
  6  5  2  0  0  0  0
  6  9  1  0  0  0  0
  7  6  1  0  0  0  0
  8 13  1  1  0  0  0
  8 11  1  0  0  0  0
  9 12  1  0  0  0  0
 10  3  1  0  0  0  0
 12 11  2  0  0  0  0
 13 14  3  0  0  0  0
 15 16  1  1  0  0  0
 17 22  1  6  0  0  0
 17 20  1  0  0  0  0
 17 18  1  0  0  0  0
 18 19  1  0  0  0  0
 19 15  1  0  0  0  0
 20 21  1  0  0  0  0
 21 19  1  0  0  0  0
 22 26  1  0  0  0  0
 23 22  2  0  0  0  0
 24 25  1  0  0  0  0
 25 27  1  0  0  0  0
 26 25  2  0  0  0  0
M  END
>  <MODEL>
2

>  <REMARK>
 VINA RESULT:      -7.0      3.259      7.990
  Name = 
  5 active torsions:
  status: ('A' for Active; 'I' for Inactive)
    1  A    between atoms: C_2  and  C_6
    2  A    between atoms: C_5  and  C_9
    3  A    between atoms: C_6  and  N_19
    4  A    between atoms: N_7  and  C_9
    5  A    between atoms: C_8  and  C_17
                            x       y       z     vdW  Elec       q    Type
                         _______ _______ _______ _____ _____    ______ ____

>  <TORSDO>
F 5

$$$$
=
 OpenBabel10222420063D

 27 29  0  0  1  0  0  0  0  0999 V2000
  187.2430  175.4050  137.5470 O   0  0  0  0  0  0  0  0  0  0  0  0
  189.1800  177.2080  139.5940 C   0  0  1  0  0  3  0  0  0  0  0  0
  190.7640  175.8860  138.0140 C   0  0  0  0  0  0  0  0  0  0  0  0
  191.5420  176.9040  139.9940 O   0  0  0  0  0  0  0  0  0  0  0  0
  187.9380  176.7680  135.6190 O   0  0  0  0  0  0  0  0  0  0  0  0
  188.2720  176.3700  137.0290 S   0  0  0  0  0  0  0  0  0  0  0  0
  188.3320  178.0810  138.2290 S   0  0  0  0  0  0  0  0  0  0  0  0
  192.0020  175.1370  137.6300 C   0  0  1  0  0  3  0  0  0  0  0  0
  189.8650  175.6560  137.0760 C   0  0  0  0  0  0  0  0  0  0  0  0
  190.5620  176.7010  139.2290 C   0  0  0  0  0  0  0  0  0  0  0  0
  191.5900  174.5050  136.3780 N   0  0  0  0  0  0  0  0  0  0  0  0
  190.3930  174.8060  136.0760 N   0  0  0  0  0  0  0  0  0  0  0  0
  193.1060  176.0670  137.3670 C   0  0  0  0  0  0  0  0  0  0  0  0
  193.9770  176.7990  137.1600 N   0  0  0  0  0  0  0  0  0  0  0  0
  189.0570  177.9710  140.9290 C   0  0  1  0  0  3  0  0  0  0  0  0
  187.6020  178.4030  141.0890 C   0  0  0  0  0  1  0  0  0  0  0  0
  188.7290  176.7690  144.3350 C   0  0  1  0  0  3  0  0  0  0  0  0
  188.3450  176.7690  142.8700 C   0  0  0  0  0  2  0  0  0  0  0  0
  189.5120  177.1930  142.0970 N   0  0  0  0  0  0  0  0  0  0  0  0
  190.0100  177.5620  144.4170 C   0  0  0  0  0  2  0  0  0  0  0  0
  190.2480  178.0610  143.0100 C   0  0  0  0  0  2  0  0  0  0  0  0
  187.6560  177.3990  145.1600 C   0  0  0  0  0  0  0  0  0  0  0  0
  186.4550  177.2530  144.8060 O   0  0  0  0  0  0  0  0  0  0  0  0
  188.3880  176.2740  147.7420 N   0  0  0  0  0  1  0  0  0  0  0  0
  188.3350  177.6780  147.4960 C   0  0  0  0  0  0  0  0  0  0  0  0
  188.0050  178.1550  146.3330 N   0  0  0  0  0  0  0  0  0  0  0  0
  188.6540  178.5770  148.5510 N   0  0  0  0  0  1  0  0  0  0  0  0
  2 15  1  1  0  0  0
  3 10  1  0  0  0  0
  5  6  2  0  0  0  0
  6  9  1  0  0  0  0
  6  1  2  0  0  0  0
  6  7  1  0  0  0  0
  7  2  1  0  0  0  0
  8 13  1  6  0  0  0
  8  3  1  0  0  0  0
  9  3  2  0  0  0  0
 10  2  1  0  0  0  0
 10  4  2  0  0  0  0
 11  8  1  0  0  0  0
 12 11  2  0  0  0  0
 12  9  1  0  0  0  0
 14 13  3  0  0  0  0
 15 16  1  1  0  0  0
 15 19  1  0  0  0  0
 17 20  1  0  0  0  0
 17 22  1  1  0  0  0
 18 17  1  0  0  0  0
 19 18  1  0  0  0  0
 19 21  1  0  0  0  0
 21 20  1  0  0  0  0
 22 26  1  0  0  0  0
 23 22  2  0  0  0  0
 25 24  1  0  0  0  0
 25 27  1  0  0  0  0
 26 25  2  0  0  0  0
M  END
>  <MODEL>
3

>  <REMARK>
 VINA RESULT:      -7.0      1.540      1.901
  Name = 
  5 active torsions:
  status: ('A' for Active; 'I' for Inactive)
    1  A    between atoms: C_2  and  C_6
    2  A    between atoms: C_5  and  C_9
    3  A    between atoms: C_6  and  N_19
    4  A    between atoms: N_7  and  C_9
    5  A    between atoms: C_8  and  C_17
                            x       y       z     vdW  Elec       q    Type
                         _______ _______ _______ _____ _____    ______ ____

>  <TORSDO>
F 5

$$$$
=
 OpenBabel10222420063D

 27 29  0  0  1  0  0  0  0  0999 V2000
  191.9790  177.6910  139.6410 O   0  0  0  0  0  0  0  0  0  0  0  0
  189.0130  177.9790  141.1640 C   0  0  1  0  0  3  0  0  0  0  0  0
  188.5730  178.1180  138.6060 C   0  0  0  0  0  0  0  0  0  0  0  0
  186.9560  178.7850  140.1890 O   0  0  0  0  0  0  0  0  0  0  0  0
  191.3370  175.5010  138.7150 O   0  0  0  0  0  0  0  0  0  0  0  0
  190.8280  176.7750  139.3310 S   0  0  0  0  0  0  0  0  0  0  0  0
  189.7720  176.3170  141.0760 S   0  0  0  0  0  0  0  0  0  0  0  0
  187.8890  178.5820  137.3590 C   0  0  1  0  0  3  0  0  0  0  0  0
  189.7030  177.5460  138.2390 C   0  0  0  0  0  0  0  0  0  0  0  0
  188.1010  178.2960  139.9940 C   0  0  0  0  0  0  0  0  0  0  0  0
  188.8360  178.1620  136.3280 N   0  0  0  0  0  0  0  0  0  0  0  0
  189.8460  177.5790  136.8320 N   0  0  0  0  0  0  0  0  0  0  0  0
  186.6190  177.8710  137.1730 C   0  0  0  0  0  0  0  0  0  0  0  0
  185.6170  177.3110  137.0270 N   0  0  0  0  0  0  0  0  0  0  0  0
  188.4600  178.2860  142.5710 C   0  0  1  0  0  3  0  0  0  0  0  0
  186.9770  177.9290  142.5780 C   0  0  0  0  0  1  0  0  0  0  0  0
  188.7710  177.0370  145.9610 C   0  0  1  0  0  3  0  0  0  0  0  0
  188.2060  176.9800  144.5580 C   0  0  0  0  0  2  0  0  0  0  0  0
  189.1800  177.5880  143.6530 N   0  0  0  0  0  0  0  0  0  0  0  0
  189.9090  178.0260  145.8980 C   0  0  0  0  0  2  0  0  0  0  0  0
  189.8810  178.5610  144.4850 C   0  0  0  0  0  2  0  0  0  0  0  0
  187.7280  177.4850  146.9310 C   0  0  0  0  0  0  0  0  0  0  0  0
  188.0600  177.6840  148.1310 O   0  0  0  0  0  0  0  0  0  0  0  0
  186.0880  179.8270  147.4740 N   0  0  0  0  0  1  0  0  0  0  0  0
  185.6200  178.7130  146.7160 C   0  0  0  0  0  0  0  0  0  0  0  0
  186.3730  177.6790  146.4870 N   0  0  0  0  0  0  0  0  0  0  0  0
  184.2970  178.7390  146.1960 N   0  0  0  0  0  1  0  0  0  0  0  0
  2 15  1  1  0  0  0
  3 10  1  0  0  0  0
  5  6  2  0  0  0  0
  6  1  2  0  0  0  0
  6  7  1  0  0  0  0
  7  2  1  0  0  0  0
  8 13  1  6  0  0  0
  8  3  1  0  0  0  0
  9  3  2  0  0  0  0
  9  6  1  0  0  0  0
 10  4  2  0  0  0  0
 10  2  1  0  0  0  0
 11 12  2  0  0  0  0
 11  8  1  0  0  0  0
 12  9  1  0  0  0  0
 14 13  3  0  0  0  0
 15 16  1  6  0  0  0
 15 19  1  0  0  0  0
 17 22  1  1  0  0  0
 18 17  1  0  0  0  0
 19 21  1  0  0  0  0
 19 18  1  0  0  0  0
 20 17  1  0  0  0  0
 21 20  1  0  0  0  0
 22 23  2  0  0  0  0
 25 24  1  0  0  0  0
 26 25  2  0  0  0  0
 26 22  1  0  0  0  0
 27 25  1  0  0  0  0
M  END
>  <MODEL>
4

>  <REMARK>
 VINA RESULT:      -6.8      2.451      3.522
  Name = 
  5 active torsions:
  status: ('A' for Active; 'I' for Inactive)
    1  A    between atoms: C_2  and  C_6
    2  A    between atoms: C_5  and  C_9
    3  A    between atoms: C_6  and  N_19
    4  A    between atoms: N_7  and  C_9
    5  A    between atoms: C_8  and  C_17
                            x       y       z     vdW  Elec       q    Type
                         _______ _______ _______ _____ _____    ______ ____

>  <TORSDO>
F 5

$$$$
=
 OpenBabel10222420063D

 27 29  0  0  1  0  0  0  0  0999 V2000
  187.8940  177.4760  135.6900 O   0  0  0  0  0  0  0  0  0  0  0  0
  190.0880  175.5960  137.3780 C   0  0  1  0  0  3  0  0  0  0  0  0
  188.9610  177.1830  139.1000 C   0  0  0  0  0  0  0  0  0  0  0  0
  190.9470  176.0120  139.5960 O   0  0  0  0  0  0  0  0  0  0  0  0
  186.0100  176.3780  136.8320 O   0  0  0  0  0  0  0  0  0  0  0  0
  187.4890  176.6430  136.8730 S   0  0  0  0  0  0  0  0  0  0  0  0
  188.5130  174.8200  136.8650 S   0  0  0  0  0  0  0  0  0  0  0  0
  188.8860  178.0510  140.3170 C   0  0  1  0  0  3  0  0  0  0  0  0
  187.8980  177.4530  138.3660 C   0  0  0  0  0  0  0  0  0  0  0  0
  190.0350  176.2310  138.7550 C   0  0  0  0  0  0  0  0  0  0  0  0
  187.6440  178.7840  140.0830 N   0  0  0  0  0  0  0  0  0  0  0  0
  187.0980  178.4380  138.9890 N   0  0  0  0  0  0  0  0  0  0  0  0
  188.7470  177.2300  141.5260 C   0  0  0  0  0  0  0  0  0  0  0  0
  188.6380  176.5830  142.4800 N   0  0  0  0  0  0  0  0  0  0  0  0
  191.3000  174.6870  137.0850 C   0  0  1  0  0  3  0  0  0  0  0  0
  190.7680  173.3370  136.6130 C   0  0  0  0  0  1  0  0  0  0  0  0
  194.5820  175.0290  135.5820 C   0  0  1  0  0  3  0  0  0  0  0  0
  193.2890  174.2770  135.8240 C   0  0  0  0  0  2  0  0  0  0  0  0
  192.2430  175.2590  136.1060 N   0  0  0  0  0  0  0  0  0  0  0  0
  194.3420  176.4240  136.1040 C   0  0  0  0  0  2  0  0  0  0  0  0
  192.9570  176.3800  136.7070 C   0  0  0  0  0  2  0  0  0  0  0  0
  195.7130  174.3740  136.3040 C   0  0  0  0  0  0  0  0  0  0  0  0
  196.2850  173.3870  135.7690 O   0  0  0  0  0  0  0  0  0  0  0  0
  195.3220  173.0290  138.8550 N   0  0  0  0  0  1  0  0  0  0  0  0
  195.9670  174.2950  138.7380 C   0  0  0  0  0  0  0  0  0  0  0  0
  196.1300  174.8750  137.5870 N   0  0  0  0  0  0  0  0  0  0  0  0
  196.4450  174.9370  139.9140 N   0  0  0  0  0  1  0  0  0  0  0  0
  1  6  2  0  0  0  0
  2 15  1  1  0  0  0
  2 10  1  0  0  0  0
  3  8  1  0  0  0  0
  5  6  2  0  0  0  0
  6  9  1  0  0  0  0
  7  6  1  0  0  0  0
  7  2  1  0  0  0  0
  8 13  1  1  0  0  0
  9 12  1  0  0  0  0
  9  3  2  0  0  0  0
 10  3  1  0  0  0  0
 10  4  2  0  0  0  0
 11  8  1  0  0  0  0
 12 11  2  0  0  0  0
 13 14  3  0  0  0  0
 15 16  1  6  0  0  0
 17 18  1  0  0  0  0
 17 20  1  0  0  0  0
 17 22  1  1  0  0  0
 18 19  1  0  0  0  0
 19 21  1  0  0  0  0
 19 15  1  0  0  0  0
 20 21  1  0  0  0  0
 22 26  1  0  0  0  0
 23 22  2  0  0  0  0
 25 24  1  0  0  0  0
 25 27  1  0  0  0  0
 26 25  2  0  0  0  0
M  END
>  <MODEL>
5

>  <REMARK>
 VINA RESULT:      -6.4      3.116      8.405
  Name = 
  5 active torsions:
  status: ('A' for Active; 'I' for Inactive)
    1  A    between atoms: C_2  and  C_6
    2  A    between atoms: C_5  and  C_9
    3  A    between atoms: C_6  and  N_19
    4  A    between atoms: N_7  and  C_9
    5  A    between atoms: C_8  and  C_17
                            x       y       z     vdW  Elec       q    Type
                         _______ _______ _______ _____ _____    ______ ____

>  <TORSDO>
F 5

$$$$
=
 OpenBabel10222420063D

 27 29  0  0  1  0  0  0  0  0999 V2000
  190.0840  178.6460  143.6300 O   0  0  0  0  0  0  0  0  0  0  0  0
  187.3410  178.6050  141.7150 C   0  0  1  0  0  3  0  0  0  0  0  0
  189.3090  177.7590  140.2440 C   0  0  0  0  0  0  0  0  0  0  0  0
  187.2570  178.4470  139.3070 O   0  0  0  0  0  0  0  0  0  0  0  0
  190.1950  176.1870  143.5980 O   0  0  0  0  0  0  0  0  0  0  0  0
  189.6190  177.4030  142.9260 S   0  0  0  0  0  0  0  0  0  0  0  0
  187.5320  177.2830  142.9640 S   0  0  0  0  0  0  0  0  0  0  0  0
  190.0960  177.5760  138.9850 C   0  0  1  0  0  3  0  0  0  0  0  0
  190.1000  177.4280  141.2470 C   0  0  0  0  0  0  0  0  0  0  0  0
  187.9220  178.2530  140.3590 C   0  0  0  0  0  0  0  0  0  0  0  0
  191.3810  177.1120  139.5030 N   0  0  0  0  0  0  0  0  0  0  0  0
  191.3710  177.0290  140.7710 N   0  0  0  0  0  0  0  0  0  0  0  0
  189.4980  176.5250  138.1520 C   0  0  0  0  0  0  0  0  0  0  0  0
  189.0250  175.6970  137.4970 N   0  0  0  0  0  0  0  0  0  0  0  0
  185.9170  179.2000  141.7200 C   0  0  1  0  0  3  0  0  0  0  0  0
  185.2920  178.9270  140.3550 C   0  0  0  0  0  1  0  0  0  0  0  0
  182.7070  178.5200  143.2620 C   0  0  1  0  0  3  0  0  0  0  0  0
  183.7920  178.2380  142.2440 C   0  0  0  0  0  2  0  0  0  0  0  0
  185.0660  178.6840  142.8080 N   0  0  0  0  0  0  0  0  0  0  0  0
  183.3200  179.4780  144.2530 C   0  0  0  0  0  2  0  0  0  0  0  0
  184.6970  179.7750  143.7040 C   0  0  0  0  0  2  0  0  0  0  0  0
  181.5120  179.1260  142.6020 C   0  0  0  0  0  0  0  0  0  0  0  0
  180.8910  180.0460  143.1990 O   0  0  0  0  0  0  0  0  0  0  0  0
  179.3530  177.2390  142.1060 N   0  0  0  0  0  1  0  0  0  0  0  0
  180.1330  177.8160  141.0600 C   0  0  0  0  0  0  0  0  0  0  0  0
  181.0920  178.6560  141.3080 N   0  0  0  0  0  0  0  0  0  0  0  0
  179.8510  177.4610  139.7120 N   0  0  0  0  0  1  0  0  0  0  0  0
  2 15  1  6  0  0  0
  2  7  1  0  0  0  0
  3 10  1  0  0  0  0
  3  9  2  0  0  0  0
  4 10  2  0  0  0  0
  6  7  1  0  0  0  0
  6  5  2  0  0  0  0
  6  1  2  0  0  0  0
  8 13  1  6  0  0  0
  8 11  1  0  0  0  0
  8  3  1  0  0  0  0
  9  6  1  0  0  0  0
 10  2  1  0  0  0  0
 11 12  2  0  0  0  0
 12  9  1  0  0  0  0
 14 13  3  0  0  0  0
 15 16  1  6  0  0  0
 15 19  1  0  0  0  0
 17 22  1  6  0  0  0
 17 20  1  0  0  0  0
 18 19  1  0  0  0  0
 18 17  1  0  0  0  0
 19 21  1  0  0  0  0
 21 20  1  0  0  0  0
 22 23  2  0  0  0  0
 25 26  2  0  0  0  0
 25 24  1  0  0  0  0
 26 22  1  0  0  0  0
 27 25  1  0  0  0  0
M  END
>  <MODEL>
6

>  <REMARK>
 VINA RESULT:      -6.3      3.639      5.267
  Name = 
  5 active torsions:
  status: ('A' for Active; 'I' for Inactive)
    1  A    between atoms: C_2  and  C_6
    2  A    between atoms: C_5  and  C_9
    3  A    between atoms: C_6  and  N_19
    4  A    between atoms: N_7  and  C_9
    5  A    between atoms: C_8  and  C_17
                            x       y       z     vdW  Elec       q    Type
                         _______ _______ _______ _____ _____    ______ ____

>  <TORSDO>
F 5

$$$$
=
 OpenBabel10222420063D

 27 29  0  0  1  0  0  0  0  0999 V2000
  189.5730  178.5000  143.8590 O   0  0  0  0  0  0  0  0  0  0  0  0
  186.8560  178.4770  141.9070 C   0  0  1  0  0  3  0  0  0  0  0  0
  188.8920  177.9320  140.3860 C   0  0  0  0  0  0  0  0  0  0  0  0
  186.8040  178.5750  139.4940 O   0  0  0  0  0  0  0  0  0  0  0  0
  189.8560  176.0720  143.5650 O   0  0  0  0  0  0  0  0  0  0  0  0
  189.2020  177.3100  143.0190 S   0  0  0  0  0  0  0  0  0  0  0  0
  187.1290  177.0440  143.0100 S   0  0  0  0  0  0  0  0  0  0  0  0
  189.7000  177.9410  139.1270 C   0  0  1  0  0  3  0  0  0  0  0  0
  189.6950  177.5500  141.3600 C   0  0  0  0  0  0  0  0  0  0  0  0
  187.4720  178.3150  140.5300 C   0  0  0  0  0  0  0  0  0  0  0  0
  191.0100  177.5130  139.6120 N   0  0  0  0  0  0  0  0  0  0  0  0
  190.9940  177.2930  140.8640 N   0  0  0  0  0  0  0  0  0  0  0  0
  189.1840  176.9480  138.1770 C   0  0  0  0  0  0  0  0  0  0  0  0
  188.7780  176.1640  137.4280 N   0  0  0  0  0  0  0  0  0  0  0  0
  185.3940  178.9690  141.9530 C   0  0  1  0  0  3  0  0  0  0  0  0
  184.4870  177.7540  141.7780 C   0  0  0  0  0  1  0  0  0  0  0  0
  185.2680  179.3570  145.5560 C   0  0  1  0  0  3  0  0  0  0  0  0
  186.0060  179.3420  144.2330 C   0  0  0  0  0  2  0  0  0  0  0  0
  185.0590  179.7100  143.1830 N   0  0  0  0  0  0  0  0  0  0  0  0
  183.8020  179.3670  145.2000 C   0  0  0  0  0  2  0  0  0  0  0  0
  183.7680  179.2590  143.6920 C   0  0  0  0  0  2  0  0  0  0  0  0
  185.6140  178.1510  146.3650 C   0  0  0  0  0  0  0  0  0  0  0  0
  184.7480  177.6790  147.1510 O   0  0  0  0  0  0  0  0  0  0  0  0
  187.7740  178.3740  148.3030 N   0  0  0  0  0  1  0  0  0  0  0  0
  187.8960  177.6370  147.0880 C   0  0  0  0  0  0  0  0  0  0  0  0
  186.9160  177.5520  146.2390 N   0  0  0  0  0  0  0  0  0  0  0  0
  189.1230  176.9760  146.8020 N   0  0  0  0  0  1  0  0  0  0  0  0
  2 15  1  6  0  0  0
  2  7  1  0  0  0  0
  3 10  1  0  0  0  0
  3  9  2  0  0  0  0
  4 10  2  0  0  0  0
  6  5  2  0  0  0  0
  6  1  2  0  0  0  0
  7  6  1  0  0  0  0
  8 13  1  6  0  0  0
  8 11  1  0  0  0  0
  8  3  1  0  0  0  0
  9  6  1  0  0  0  0
 10  2  1  0  0  0  0
 11 12  2  0  0  0  0
 12  9  1  0  0  0  0
 14 13  3  0  0  0  0
 15 16  1  1  0  0  0
 15 19  1  0  0  0  0
 17 22  1  1  0  0  0
 18 17  1  0  0  0  0
 19 21  1  0  0  0  0
 19 18  1  0  0  0  0
 20 17  1  0  0  0  0
 21 20  1  0  0  0  0
 22 23  2  0  0  0  0
 25 24  1  0  0  0  0
 26 22  1  0  0  0  0
 26 25  2  0  0  0  0
 27 25  1  0  0  0  0
M  END
>  <MODEL>
7

>  <REMARK>
 VINA RESULT:      -6.2      2.887      4.661
  Name = 
  5 active torsions:
  status: ('A' for Active; 'I' for Inactive)
    1  A    between atoms: C_2  and  C_6
    2  A    between atoms: C_5  and  C_9
    3  A    between atoms: C_6  and  N_19
    4  A    between atoms: N_7  and  C_9
    5  A    between atoms: C_8  and  C_17
                            x       y       z     vdW  Elec       q    Type
                         _______ _______ _______ _____ _____    ______ ____

>  <TORSDO>
F 5

$$$$
=
 OpenBabel10222420063D

 27 29  0  0  1  0  0  0  0  0999 V2000
  187.0590  177.7330  138.1710 O   0  0  0  0  0  0  0  0  0  0  0  0
  189.5930  177.0070  140.2320 C   0  0  1  0  0  3  0  0  0  0  0  0
  190.4050  176.4970  137.8170 C   0  0  0  0  0  0  0  0  0  0  0  0
  191.5490  175.6890  139.7160 O   0  0  0  0  0  0  0  0  0  0  0  0
  188.3170  179.6250  137.2230 O   0  0  0  0  0  0  0  0  0  0  0  0
  188.4200  178.3500  138.0130 S   0  0  0  0  0  0  0  0  0  0  0  0
  189.2500  178.7700  139.8860 S   0  0  0  0  0  0  0  0  0  0  0  0
  191.1640  175.7660  136.7540 C   0  0  1  0  0  3  0  0  0  0  0  0
  189.5080  177.2470  137.2070 C   0  0  0  0  0  0  0  0  0  0  0  0
  190.5910  176.3800  139.2770 C   0  0  0  0  0  0  0  0  0  0  0  0
  190.5180  176.2560  135.5380 N   0  0  0  0  0  0  0  0  0  0  0  0
  189.5940  177.0880  135.8040 N   0  0  0  0  0  0  0  0  0  0  0  0
  192.5740  176.1740  136.7550 C   0  0  0  0  0  0  0  0  0  0  0  0
  193.6850  176.4950  136.7570 N   0  0  0  0  0  0  0  0  0  0  0  0
  189.8240  176.7510  141.7360 C   0  0  1  0  0  3  0  0  0  0  0  0
  191.2530  177.1720  142.0680 C   0  0  0  0  0  1  0  0  0  0  0  0
  188.6400  177.9230  144.9560 C   0  0  1  0  0  3  0  0  0  0  0  0
  189.5580  178.0030  143.7550 C   0  0  0  0  0  2  0  0  0  0  0  0
  188.8520  177.4360  142.6080 N   0  0  0  0  0  0  0  0  0  0  0  0
  187.5480  176.9580  144.5670 C   0  0  0  0  0  2  0  0  0  0  0  0
  187.9430  176.4570  143.1970 C   0  0  0  0  0  2  0  0  0  0  0  0
  189.3840  177.4330  146.1550 C   0  0  0  0  0  0  0  0  0  0  0  0
  189.0650  177.8770  147.2900 O   0  0  0  0  0  0  0  0  0  0  0  0
  191.6750  177.1350  147.9250 N   0  0  0  0  0  1  0  0  0  0  0  0
  191.4750  176.3190  146.7730 C   0  0  0  0  0  0  0  0  0  0  0  0
  190.4430  176.4720  145.9980 N   0  0  0  0  0  0  0  0  0  0  0  0
  192.4310  175.3110  146.4660 N   0  0  0  0  0  1  0  0  0  0  0  0
  2 15  1  1  0  0  0
  3 10  1  0  0  0  0
  5  6  2  0  0  0  0
  6  1  2  0  0  0  0
  6  7  1  0  0  0  0
  7  2  1  0  0  0  0
  8 13  1  6  0  0  0
  8  3  1  0  0  0  0
  9  3  2  0  0  0  0
  9  6  1  0  0  0  0
 10  4  2  0  0  0  0
 10  2  1  0  0  0  0
 11 12  2  0  0  0  0
 11  8  1  0  0  0  0
 12  9  1  0  0  0  0
 13 14  3  0  0  0  0
 15 16  1  1  0  0  0
 15 19  1  0  0  0  0
 17 22  1  1  0  0  0
 18 17  1  0  0  0  0
 19 21  1  0  0  0  0
 19 18  1  0  0  0  0
 20 17  1  0  0  0  0
 21 20  1  0  0  0  0
 22 23  2  0  0  0  0
 25 24  1  0  0  0  0
 26 22  1  0  0  0  0
 26 25  2  0  0  0  0
 27 25  1  0  0  0  0
M  END
>  <MODEL>
8

>  <REMARK>
 VINA RESULT:      -6.2      2.375      3.441
  Name = 
  5 active torsions:
  status: ('A' for Active; 'I' for Inactive)
    1  A    between atoms: C_2  and  C_6
    2  A    between atoms: C_5  and  C_9
    3  A    between atoms: C_6  and  N_19
    4  A    between atoms: N_7  and  C_9
    5  A    between atoms: C_8  and  C_17
                            x       y       z     vdW  Elec       q    Type
                         _______ _______ _______ _____ _____    ______ ____

>  <TORSDO>
F 5

$$$$
=
 OpenBabel10222420063D

 27 29  0  0  1  0  0  0  0  0999 V2000
  191.4610  175.4410  143.5050 O   0  0  0  0  0  0  0  0  0  0  0  0
  190.7000  176.7960  140.5420 C   0  0  1  0  0  3  0  0  0  0  0  0
  188.6490  177.1610  142.0960 C   0  0  0  0  0  0  0  0  0  0  0  0
  188.5040  177.4220  139.7560 O   0  0  0  0  0  0  0  0  0  0  0  0
  191.5110  177.6660  144.5570 O   0  0  0  0  0  0  0  0  0  0  0  0
  191.0410  176.8770  143.3670 S   0  0  0  0  0  0  0  0  0  0  0  0
  191.8530  177.7090  141.6290 S   0  0  0  0  0  0  0  0  0  0  0  0
  187.1990  177.2910  142.4400 C   0  0  1  0  0  3  0  0  0  0  0  0
  189.3040  177.0010  143.2300 C   0  0  0  0  0  0  0  0  0  0  0  0
  189.2440  177.1700  140.7440 C   0  0  0  0  0  0  0  0  0  0  0  0
  187.2270  177.1710  143.8950 N   0  0  0  0  0  0  0  0  0  0  0  0
  188.4120  177.0130  144.3270 N   0  0  0  0  0  0  0  0  0  0  0  0
  186.6990  178.6210  142.0690 C   0  0  0  0  0  0  0  0  0  0  0  0
  186.3060  179.6690  141.7780 N   0  0  0  0  0  0  0  0  0  0  0  0
  191.2020  176.7460  139.0830 C   0  0  1  0  0  3  0  0  0  0  0  0
  192.6950  177.0590  139.0920 C   0  0  0  0  0  1  0  0  0  0  0  0
  191.9480  174.1470  136.6670 C   0  0  1  0  0  3  0  0  0  0  0  0
  192.1990  174.8810  137.9680 C   0  0  0  0  0  2  0  0  0  0  0  0
  190.9320  175.4620  138.4100 N   0  0  0  0  0  0  0  0  0  0  0  0
  190.6080  174.6380  136.1780 C   0  0  0  0  0  2  0  0  0  0  0  0
  190.1970  175.7000  137.1720 C   0  0  0  0  0  2  0  0  0  0  0  0
  193.0230  174.4520  135.6760 C   0  0  0  0  0  0  0  0  0  0  0  0
  193.4650  173.5180  134.9550 O   0  0  0  0  0  0  0  0  0  0  0  0
  195.6850  175.3240  136.4640 N   0  0  0  0  0  1  0  0  0  0  0  0
  194.7150  176.2070  135.9050 C   0  0  0  0  0  0  0  0  0  0  0  0
  193.5320  175.7930  135.5610 N   0  0  0  0  0  0  0  0  0  0  0  0
  195.0530  177.5760  135.7180 N   0  0  0  0  0  1  0  0  0  0  0  0
  2 15  1  6  0  0  0
  2 10  1  0  0  0  0
  2  7  1  0  0  0  0
  3  8  1  0  0  0  0
  3  9  2  0  0  0  0
  4 10  2  0  0  0  0
  6  1  2  0  0  0  0
  6  5  2  0  0  0  0
  7  6  1  0  0  0  0
  8 13  1  1  0  0  0
  8 11  1  0  0  0  0
  9  6  1  0  0  0  0
  9 12  1  0  0  0  0
 10  3  1  0  0  0  0
 11 12  2  0  0  0  0
 14 13  3  0  0  0  0
 15 16  1  1  0  0  0
 17 22  1  6  0  0  0
 17 18  1  0  0  0  0
 18 19  1  0  0  0  0
 19 15  1  0  0  0  0
 20 17  1  0  0  0  0
 20 21  1  0  0  0  0
 21 19  1  0  0  0  0
 23 22  2  0  0  0  0
 25 24  1  0  0  0  0
 26 22  1  0  0  0  0
 26 25  2  0  0  0  0
 27 25  1  0  0  0  0
M  END
>  <MODEL>
9

>  <REMARK>
 VINA RESULT:      -6.2      2.807      8.796
  Name = 
  5 active torsions:
  status: ('A' for Active; 'I' for Inactive)
    1  A    between atoms: C_2  and  C_6
    2  A    between atoms: C_5  and  C_9
    3  A    between atoms: C_6  and  N_19
    4  A    between atoms: N_7  and  C_9
    5  A    between atoms: C_8  and  C_17
                            x       y       z     vdW  Elec       q    Type
                         _______ _______ _______ _____ _____    ______ ____

>  <TORSDO>
F 5

$$$$
