=
 OpenBabel10222417123D

 51 56  0  0  1  0  0  0  0  0999 V2000
  189.2240  176.9320  136.2730 C   0  0  0  0  0  2  0  0  0  0  0  0
  188.7290  173.2780  137.1540 C   0  0  0  0  0  3  0  0  0  0  0  0
  191.4100  176.5460  137.8110 C   0  0  1  0  0  3  0  0  0  0  0  0
  186.5050  172.6350  136.4640 C   0  0  0  0  0  3  0  0  0  0  0  0
  187.7450  172.3000  137.0090 C   0  0  0  0  0  3  0  0  0  0  0  0
  190.6900  175.3090  137.4950 N   0  0  0  0  0  2  0  0  0  0  0  0
  188.4640  174.5920  136.7440 C   0  0  0  0  0  0  0  0  0  0  0  0
  189.6390  178.1780  138.6140 C   0  0  1  0  0  3  0  0  0  0  0  0
  189.4660  175.6130  136.8670 N   0  0  0  0  0  0  0  0  0  0  0  0
  188.2850  177.4630  138.5870 C   0  0  0  0  0  2  0  0  0  0  0  0
  190.7610  177.2580  138.9250 N   0  0  0  0  0  0  0  0  0  0  0  0
  187.2420  174.8920  136.2200 N   0  0  0  0  0  0  0  0  0  0  0  0
  188.8470  178.0200  137.2940 C   0  0  2  0  0  3  0  0  0  0  0  0
  186.2630  173.9560  136.0790 C   0  0  0  0  0  0  0  0  0  0  0  0
  183.8310  175.0430  137.7060 C   0  0  0  0  0  2  0  0  0  0  0  0
  184.9920  174.2990  135.5160 N   0  0  0  0  0  2  0  0  0  0  0  0
  181.6860  175.5340  138.9580 C   0  0  0  0  0  3  0  0  0  0  0  0
  182.8110  175.2570  135.6120 N   0  0  0  0  0  0  0  0  0  0  0  0
  183.9060  174.9070  136.2250 C   0  0  0  0  0  0  0  0  0  0  0  0
  180.4980  175.5560  138.3320 C   0  0  0  0  0  2  0  0  0  0  0  0
  182.6700  175.6440  137.8930 C   0  0  0  0  0  0  0  0  0  0  0  0
  180.7070  175.6410  136.8660 C   0  0  0  0  0  0  0  0  0  0  0  0
  182.0070  175.7520  136.6660 C   0  0  0  0  0  0  0  0  0  0  0  0
  179.6890  175.3830  135.8380 C   0  0  0  0  0  0  0  0  0  0  0  0
  179.2420  174.2180  135.6730 O   0  0  0  0  0  1  0  0  0  0  0  0
  179.2070  176.4200  135.0460 O   0  0  0  0  0  0  0  0  0  0  0  0
  193.4270  177.2900  138.8730 O   0  0  0  0  0  1  0  0  0  0  0  0
  192.8720  176.2400  138.1390 C   0  0  2  0  0  3  0  0  0  0  0  0
  193.6790  176.0330  136.8690 C   0  0  0  0  0  2  0  0  0  0  0  0
  194.2740  174.6360  136.8590 C   0  0  0  0  0  2  0  0  0  0  0  0
  197.6900  173.6570  136.7120 C   0  0  1  0  0  3  0  0  0  0  0  0
  195.8450  173.2760  138.2020 C   0  0  0  0  0  0  0  0  0  0  0  0
  196.7310  174.8040  136.7270 C   0  0  0  0  0  0  0  0  0  0  0  0
  196.9010  175.8170  136.0650 O   0  0  0  0  0  0  0  0  0  0  0  0
  195.5760  174.6300  137.6440 C   0  0  1  0  0  3  0  0  0  0  0  0
  195.1480  172.7690  139.0680 O   0  0  0  0  0  0  0  0  0  0  0  0
  197.0720  172.6070  137.6550 C   0  0  1  0  0  3  0  0  0  0  0  0
  197.8480  173.1820  135.4060 O   0  0  0  0  0  1  0  0  0  0  0  0
  196.7050  171.3000  136.9570 C   0  0  0  0  0  2  0  0  0  0  0  0
  197.5280  170.2680  137.4080 O   0  0  0  0  0  1  0  0  0  0  0  0
  190.5020  176.4090  140.0930 C   0  0  0  0  0  2  0  0  0  0  0  0
  190.3330  177.2840  141.3190 C   0  0  0  0  0  2  0  0  0  0  0  0
  191.6680  177.4460  142.0280 C   0  0  0  0  0  2  0  0  0  0  0  0
  191.0740  175.6540  143.5040 O   0  0  0  0  0  1  0  0  0  0  0  0
  191.6000  176.9460  143.4670 C   0  0  2  0  0  3  0  0  0  0  0  0
  190.7650  177.8860  144.3250 C   0  0  0  0  0  2  0  0  0  0  0  0
  189.6060  177.1360  144.9680 C   0  0  0  0  0  2  0  0  0  0  0  0
  188.4250  177.6850  146.9990 C   0  0  0  0  0  0  0  0  0  0  0  0
  189.5320  177.4540  146.3760 N   0  0  0  0  0  0  0  0  0  0  0  0
  188.4670  178.0010  148.4530 C   0  0  0  0  0  1  0  0  0  0  0  0
  187.0960  177.6650  146.3060 C   0  0  0  0  0  1  0  0  0  0  0  0
  1  9  1  0  0  0  0
  3 28  1  1  0  0  0
  3 11  1  0  0  0  0
  4  5  2  0  0  0  0
  5  2  1  0  0  0  0
  6  3  1  0  0  0  0
  7  9  1  0  0  0  0
  7  2  2  0  0  0  0
  8 10  1  1  0  0  0
  8 11  1  0  0  0  0
  9  6  1  0  0  0  0
 11 41  1  0  0  0  0
 12  7  1  0  0  0  0
 13  1  1  6  0  0  0
 13 10  1  0  0  0  0
 13  8  1  0  0  0  0
 14 12  2  0  0  0  0
 14  4  1  0  0  0  0
 15 21  1  0  0  0  0
 16 14  1  0  0  0  0
 16 19  1  0  0  0  0
 18 19  2  0  0  0  0
 18 23  1  0  0  0  0
 19 15  1  0  0  0  0
 20 17  1  0  0  0  0
 21 17  2  0  0  0  0
 22 20  1  0  0  0  0
 23 22  2  0  0  0  0
 23 21  1  0  0  0  0
 24 22  1  0  0  0  0
 25 24  1  0  0  0  0
 26 24  2  0  0  0  0
 28 27  1  6  0  0  0
 29 28  1  0  0  0  0
 30 29  1  0  0  0  0
 31 38  1  6  0  0  0
 31 33  1  0  0  0  0
 31 37  1  0  0  0  0
 32 36  2  0  0  0  0
 33 35  1  0  0  0  0
 34 33  2  0  0  0  0
 35 30  1  6  0  0  0
 35 32  1  0  0  0  0
 37 39  1  6  0  0  0
 37 32  1  0  0  0  0
 39 40  1  0  0  0  0
 41 42  1  0  0  0  0
 42 43  1  0  0  0  0
 43 45  1  0  0  0  0
 45 44  1  6  0  0  0
 45 46  1  0  0  0  0
 46 47  1  0  0  0  0
 47 49  1  0  0  0  0
 48 50  1  0  0  0  0
 49 48  2  0  0  0  0
 51 48  1  0  0  0  0
M  END
>  <MODEL>
1

>  <REMARK>
 VINA RESULT:      -7.4      0.000      0.000
  Name = 
  14 active torsions:
  status: ('A' for Active; 'I' for Inactive)
    1  A    between atoms: C_3  and  C_33
    2  A    between atoms: C_3  and  C_47
    3  A    between atoms: C_6  and  C_44
    4  A    between atoms: C_7  and  C_40
    5  A    between atoms: C_12  and  C_44
    6  A    between atoms: C_12  and  C_46
    7  A    between atoms: N_14  and  C_51
    8  A    between atoms: N_18  and  C_33
    9  A    between atoms: C_19  and  C_36
   10  A    between atoms: C_30  and  C_46
   11  A    between atoms: N_37  and  C_39
   12  A    between atoms: C_39  and  C_45
   13  A    between atoms: C_45  and  C_49
   14  A    between atoms: C_47  and  C_49
                            x       y       z     vdW  Elec       q    Type
                         _______ _______ _______ _____ _____    ______ ____

>  <TORSDO>
F 14

$$$$
=
 OpenBabel10222417123D

 51 56  0  0  1  0  0  0  0  0999 V2000
  189.1210  177.0320  136.1850 C   0  0  0  0  0  2  0  0  0  0  0  0
  188.1340  173.5280  137.2420 C   0  0  0  0  0  3  0  0  0  0  0  0
  191.2270  176.4360  137.7670 C   0  0  1  0  0  3  0  0  0  0  0  0
  185.8480  173.1550  136.5570 C   0  0  0  0  0  3  0  0  0  0  0  0
  187.0280  172.6840  137.1340 C   0  0  0  0  0  3  0  0  0  0  0  0
  190.3490  175.2930  137.5050 N   0  0  0  0  0  2  0  0  0  0  0  0
  188.0500  174.8430  136.7630 C   0  0  0  0  0  0  0  0  0  0  0  0
  189.6870  178.3300  138.4660 C   0  0  1  0  0  3  0  0  0  0  0  0
  189.1800  175.7250  136.8480 N   0  0  0  0  0  0  0  0  0  0  0  0
  188.2490  177.8020  138.4570 C   0  0  0  0  0  2  0  0  0  0  0  0
  190.6730  177.2850  138.8360 N   0  0  0  0  0  0  0  0  0  0  0  0
  186.8830  175.2770  136.2100 N   0  0  0  0  0  0  0  0  0  0  0  0
  188.8880  178.2120  137.1450 C   0  0  2  0  0  3  0  0  0  0  0  0
  185.7880  174.4750  136.1030 C   0  0  0  0  0  0  0  0  0  0  0  0
  184.0570  176.8130  137.2330 C   0  0  0  0  0  2  0  0  0  0  0  0
  184.5780  174.9560  135.5080 N   0  0  0  0  0  2  0  0  0  0  0  0
  182.3720  178.4000  138.2600 C   0  0  0  0  0  3  0  0  0  0  0  0
  182.7840  176.5120  135.2930 N   0  0  0  0  0  0  0  0  0  0  0  0
  183.8340  176.0990  135.9450 C   0  0  0  0  0  0  0  0  0  0  0  0
  181.1440  178.5530  137.7390 C   0  0  0  0  0  2  0  0  0  0  0  0
  183.1500  177.7730  137.2030 C   0  0  0  0  0  0  0  0  0  0  0  0
  181.1110  177.9940  136.3650 C   0  0  0  0  0  0  0  0  0  0  0  0
  182.3380  177.6020  136.0770 C   0  0  0  0  0  0  0  0  0  0  0  0
  179.8990  177.6950  135.5900 C   0  0  0  0  0  0  0  0  0  0  0  0
  179.3330  178.6060  134.9300 O   0  0  0  0  0  0  0  0  0  0  0  0
  179.3710  176.4080  135.5730 O   0  0  0  0  0  1  0  0  0  0  0  0
  193.5500  176.9950  137.9700 O   0  0  0  0  0  1  0  0  0  0  0  0
  192.6320  175.9540  138.1280 C   0  0  2  0  0  3  0  0  0  0  0  0
  193.0440  174.7840  137.2520 C   0  0  0  0  0  2  0  0  0  0  0  0
  193.9840  175.2640  136.1610 C   0  0  0  0  0  2  0  0  0  0  0  0
  195.7520  172.6730  137.8380 C   0  0  1  0  0  3  0  0  0  0  0  0
  196.3200  174.7660  136.8060 C   0  0  0  0  0  0  0  0  0  0  0  0
  194.8330  173.0140  136.7090 C   0  0  0  0  0  0  0  0  0  0  0  0
  193.9180  172.2840  136.3580 O   0  0  0  0  0  0  0  0  0  0  0  0
  195.1460  174.2920  136.0230 C   0  0  1  0  0  3  0  0  0  0  0  0
  196.9400  175.7790  136.5180 O   0  0  0  0  0  0  0  0  0  0  0  0
  196.7160  173.8710  137.9420 C   0  0  1  0  0  3  0  0  0  0  0  0
  195.0180  172.4690  139.0100 O   0  0  0  0  0  1  0  0  0  0  0  0
  196.6210  174.6170  139.2720 C   0  0  0  0  0  2  0  0  0  0  0  0
  197.8090  175.3040  139.5220 O   0  0  0  0  0  1  0  0  0  0  0  0
  190.2950  176.5400  140.0420 C   0  0  0  0  0  2  0  0  0  0  0  0
  190.8480  177.2490  141.2620 C   0  0  0  0  0  2  0  0  0  0  0  0
  189.7240  177.5380  142.2460 C   0  0  0  0  0  2  0  0  0  0  0  0
  191.6270  178.0810  143.5990 O   0  0  0  0  0  1  0  0  0  0  0  0
  190.2440  178.2430  143.4940 C   0  0  2  0  0  3  0  0  0  0  0  0
  189.5510  177.7110  144.7420 C   0  0  0  0  0  2  0  0  0  0  0  0
  188.1890  177.1300  144.3900 C   0  0  0  0  0  2  0  0  0  0  0  0
  186.0500  178.1980  144.7170 C   0  0  0  0  0  0  0  0  0  0  0  0
  187.1630  177.7520  145.1960 N   0  0  0  0  0  0  0  0  0  0  0  0
  185.0630  178.8190  145.6410 C   0  0  0  0  0  1  0  0  0  0  0  0
  185.7220  178.1310  143.2560 C   0  0  0  0  0  1  0  0  0  0  0  0
  1  9  1  0  0  0  0
  3 28  1  1  0  0  0
  3 11  1  0  0  0  0
  4  5  2  0  0  0  0
  5  2  1  0  0  0  0
  6  3  1  0  0  0  0
  7  9  1  0  0  0  0
  7  2  2  0  0  0  0
  8 10  1  1  0  0  0
  8 11  1  0  0  0  0
  9  6  1  0  0  0  0
 11 41  1  0  0  0  0
 12  7  1  0  0  0  0
 13  1  1  6  0  0  0
 13 10  1  0  0  0  0
 13  8  1  0  0  0  0
 14 12  2  0  0  0  0
 14  4  1  0  0  0  0
 16 19  1  0  0  0  0
 16 14  1  0  0  0  0
 18 19  2  0  0  0  0
 18 23  1  0  0  0  0
 19 15  1  0  0  0  0
 20 17  1  0  0  0  0
 21 15  1  0  0  0  0
 21 17  2  0  0  0  0
 22 20  1  0  0  0  0
 23 22  2  0  0  0  0
 23 21  1  0  0  0  0
 24 22  1  0  0  0  0
 25 24  2  0  0  0  0
 26 24  1  0  0  0  0
 28 27  1  6  0  0  0
 29 28  1  0  0  0  0
 30 29  1  0  0  0  0
 31 37  1  0  0  0  0
 31 38  1  1  0  0  0
 32 37  1  0  0  0  0
 33 31  1  0  0  0  0
 34 33  2  0  0  0  0
 35 30  1  1  0  0  0
 35 33  1  0  0  0  0
 35 32  1  0  0  0  0
 36 32  2  0  0  0  0
 37 39  1  1  0  0  0
 39 40  1  0  0  0  0
 41 42  1  0  0  0  0
 42 43  1  0  0  0  0
 43 45  1  0  0  0  0
 45 44  1  1  0  0  0
 45 46  1  0  0  0  0
 47 46  1  0  0  0  0
 47 49  1  0  0  0  0
 48 49  2  0  0  0  0
 48 50  1  0  0  0  0
 51 48  1  0  0  0  0
M  END
>  <MODEL>
2

>  <REMARK>
 VINA RESULT:      -7.4      1.625      2.309
  Name = 
  14 active torsions:
  status: ('A' for Active; 'I' for Inactive)
    1  A    between atoms: C_3  and  C_33
    2  A    between atoms: C_3  and  C_47
    3  A    between atoms: C_6  and  C_44
    4  A    between atoms: C_7  and  C_40
    5  A    between atoms: C_12  and  C_44
    6  A    between atoms: C_12  and  C_46
    7  A    between atoms: N_14  and  C_51
    8  A    between atoms: N_18  and  C_33
    9  A    between atoms: C_19  and  C_36
   10  A    between atoms: C_30  and  C_46
   11  A    between atoms: N_37  and  C_39
   12  A    between atoms: C_39  and  C_45
   13  A    between atoms: C_45  and  C_49
   14  A    between atoms: C_47  and  C_49
                            x       y       z     vdW  Elec       q    Type
                         _______ _______ _______ _____ _____    ______ ____

>  <TORSDO>
F 14

$$$$
=
 OpenBabel10222417123D

 51 56  0  0  1  0  0  0  0  0999 V2000
  188.0250  177.1240  136.0200 C   0  0  0  0  0  2  0  0  0  0  0  0
  187.4060  173.5790  137.2130 C   0  0  0  0  0  3  0  0  0  0  0  0
  190.5600  176.4060  136.6140 C   0  0  1  0  0  3  0  0  0  0  0  0
  185.0230  173.2800  137.4680 C   0  0  0  0  0  3  0  0  0  0  0  0
  186.3170  172.7590  137.5100 C   0  0  0  0  0  3  0  0  0  0  0  0
  189.6090  175.2930  136.6660 N   0  0  0  0  0  2  0  0  0  0  0  0
  187.1890  174.9200  136.8690 C   0  0  0  0  0  0  0  0  0  0  0  0
  189.4890  178.2780  137.9520 C   0  0  1  0  0  3  0  0  0  0  0  0
  188.2930  175.7800  136.5430 N   0  0  0  0  0  0  0  0  0  0  0  0
  188.1450  177.7730  138.4860 C   0  0  0  0  0  2  0  0  0  0  0  0
  190.5030  177.1990  137.8540 N   0  0  0  0  0  0  0  0  0  0  0  0
  185.9150  175.4030  136.8430 N   0  0  0  0  0  0  0  0  0  0  0  0
  188.2320  178.2490  137.0500 C   0  0  2  0  0  3  0  0  0  0  0  0
  184.8370  174.6250  137.1380 C   0  0  0  0  0  0  0  0  0  0  0  0
  184.0030  177.4220  138.2420 C   0  0  0  0  0  2  0  0  0  0  0  0
  183.5090  175.1570  137.0910 N   0  0  0  0  0  2  0  0  0  0  0  0
  183.1320  179.4680  139.4520 C   0  0  0  0  0  3  0  0  0  0  0  0
  181.9090  176.9070  137.3350 N   0  0  0  0  0  0  0  0  0  0  0  0
  183.1300  176.4810  137.4860 C   0  0  0  0  0  0  0  0  0  0  0  0
  181.8150  179.7060  139.5700 C   0  0  0  0  0  2  0  0  0  0  0  0
  183.2400  178.4910  138.3810 C   0  0  0  0  0  0  0  0  0  0  0  0
  181.0670  178.8610  138.6070 C   0  0  0  0  0  0  0  0  0  0  0  0
  181.9610  178.2090  137.8880 C   0  0  0  0  0  0  0  0  0  0  0  0
  179.6200  178.6060  138.6350 C   0  0  0  0  0  0  0  0  0  0  0  0
  178.9940  178.6500  139.7270 O   0  0  0  0  0  1  0  0  0  0  0  0
  178.9310  178.3210  137.4610 O   0  0  0  0  0  0  0  0  0  0  0  0
  192.3280  176.0670  135.0300 O   0  0  0  0  0  1  0  0  0  0  0  0
  191.9760  175.8830  136.3690 C   0  0  2  0  0  3  0  0  0  0  0  0
  192.0760  174.4080  136.7170 C   0  0  0  0  0  2  0  0  0  0  0  0
  193.4920  173.9170  136.4740 C   0  0  0  0  0  2  0  0  0  0  0  0
  196.4280  174.0640  138.4770 C   0  0  1  0  0  3  0  0  0  0  0  0
  195.0550  172.3260  137.5460 C   0  0  0  0  0  0  0  0  0  0  0  0
  195.0000  174.4840  138.3420 C   0  0  0  0  0  0  0  0  0  0  0  0
  194.5990  175.5830  138.6940 O   0  0  0  0  0  0  0  0  0  0  0  0
  194.1000  173.4430  137.7850 C   0  0  1  0  0  3  0  0  0  0  0  0
  194.7000  171.2290  137.1420 O   0  0  0  0  0  0  0  0  0  0  0  0
  196.4810  172.6380  137.8920 C   0  0  1  0  0  3  0  0  0  0  0  0
  197.2580  174.9580  137.7930 O   0  0  0  0  0  1  0  0  0  0  0  0
  197.3730  172.5180  136.6580 C   0  0  0  0  0  2  0  0  0  0  0  0
  198.0120  171.2780  136.6490 O   0  0  0  0  0  1  0  0  0  0  0  0
  190.6020  176.3910  139.0740 C   0  0  0  0  0  2  0  0  0  0  0  0
  191.6010  177.0310  140.0180 C   0  0  0  0  0  2  0  0  0  0  0  0
  190.8770  177.6090  141.2240 C   0  0  0  0  0  2  0  0  0  0  0  0
  190.4670  175.7250  142.6480 O   0  0  0  0  0  1  0  0  0  0  0  0
  191.2510  176.8710  142.5050 C   0  0  2  0  0  3  0  0  0  0  0  0
  191.0910  177.7790  143.7170 C   0  0  0  0  0  2  0  0  0  0  0  0
  189.6350  177.8390  144.1530 C   0  0  0  0  0  2  0  0  0  0  0  0
  188.4070  177.4290  146.1900 C   0  0  0  0  0  0  0  0  0  0  0  0
  189.5300  177.5670  145.5690 N   0  0  0  0  0  0  0  0  0  0  0  0
  188.4190  177.1480  147.6510 C   0  0  0  0  0  1  0  0  0  0  0  0
  187.0860  177.5580  145.4940 C   0  0  0  0  0  1  0  0  0  0  0  0
  1  9  1  0  0  0  0
  2  5  1  0  0  0  0
  3 28  1  1  0  0  0
  3  6  1  0  0  0  0
  3 11  1  0  0  0  0
  4  5  2  0  0  0  0
  7  2  2  0  0  0  0
  8 10  1  1  0  0  0
  9  6  1  0  0  0  0
  9  7  1  0  0  0  0
 11  8  1  0  0  0  0
 11 41  1  0  0  0  0
 12  7  1  0  0  0  0
 12 14  2  0  0  0  0
 13  1  1  6  0  0  0
 13  8  1  0  0  0  0
 13 10  1  0  0  0  0
 14  4  1  0  0  0  0
 15 21  1  0  0  0  0
 16 14  1  0  0  0  0
 16 19  1  0  0  0  0
 17 20  1  0  0  0  0
 18 19  2  0  0  0  0
 18 23  1  0  0  0  0
 19 15  1  0  0  0  0
 21 17  2  0  0  0  0
 22 24  1  0  0  0  0
 22 20  1  0  0  0  0
 23 21  1  0  0  0  0
 23 22  2  0  0  0  0
 24 25  1  0  0  0  0
 26 24  2  0  0  0  0
 28 27  1  6  0  0  0
 28 29  1  0  0  0  0
 30 29  1  0  0  0  0
 31 38  1  6  0  0  0
 32 35  1  0  0  0  0
 32 37  1  0  0  0  0
 33 31  1  0  0  0  0
 33 34  2  0  0  0  0
 35 30  1  6  0  0  0
 35 33  1  0  0  0  0
 36 32  2  0  0  0  0
 37 39  1  6  0  0  0
 37 31  1  0  0  0  0
 40 39  1  0  0  0  0
 41 42  1  0  0  0  0
 42 43  1  0  0  0  0
 43 45  1  0  0  0  0
 45 44  1  1  0  0  0
 45 46  1  0  0  0  0
 46 47  1  0  0  0  0
 47 49  1  0  0  0  0
 48 50  1  0  0  0  0
 49 48  2  0  0  0  0
 51 48  1  0  0  0  0
M  END
>  <MODEL>
3

>  <REMARK>
 VINA RESULT:      -7.3      1.999      2.295
  Name = 
  14 active torsions:
  status: ('A' for Active; 'I' for Inactive)
    1  A    between atoms: C_3  and  C_33
    2  A    between atoms: C_3  and  C_47
    3  A    between atoms: C_6  and  C_44
    4  A    between atoms: C_7  and  C_40
    5  A    between atoms: C_12  and  C_44
    6  A    between atoms: C_12  and  C_46
    7  A    between atoms: N_14  and  C_51
    8  A    between atoms: N_18  and  C_33
    9  A    between atoms: C_19  and  C_36
   10  A    between atoms: C_30  and  C_46
   11  A    between atoms: N_37  and  C_39
   12  A    between atoms: C_39  and  C_45
   13  A    between atoms: C_45  and  C_49
   14  A    between atoms: C_47  and  C_49
                            x       y       z     vdW  Elec       q    Type
                         _______ _______ _______ _____ _____    ______ ____

>  <TORSDO>
F 14

$$$$
=
 OpenBabel10222417123D

 51 56  0  0  1  0  0  0  0  0999 V2000
  188.1850  179.0870  137.6250 C   0  0  0  0  0  2  0  0  0  0  0  0
  188.6250  177.3680  140.9750 C   0  0  0  0  0  3  0  0  0  0  0  0
  185.5920  178.8170  138.3290 C   0  0  1  0  0  3  0  0  0  0  0  0
  190.9370  176.7010  141.1770 C   0  0  0  0  0  3  0  0  0  0  0  0
  189.6570  176.8000  141.7220 C   0  0  0  0  0  3  0  0  0  0  0  0
  186.5290  178.4730  139.4020 N   0  0  0  0  0  2  0  0  0  0  0  0
  188.8860  177.8410  139.6820 C   0  0  0  0  0  0  0  0  0  0  0  0
  186.4220  177.5750  136.2770 C   0  0  1  0  0  3  0  0  0  0  0  0
  187.8450  178.4460  138.9000 N   0  0  0  0  0  0  0  0  0  0  0  0
  187.6660  176.7740  136.6760 C   0  0  0  0  0  2  0  0  0  0  0  0
  185.4440  177.6950  137.3870 N   0  0  0  0  0  0  0  0  0  0  0  0
  190.1460  177.7270  139.1730 N   0  0  0  0  0  0  0  0  0  0  0  0
  187.8080  178.2550  136.3860 C   0  0  2  0  0  3  0  0  0  0  0  0
  191.1660  177.1660  139.8790 C   0  0  0  0  0  0  0  0  0  0  0  0
  192.0430  175.0600  137.7510 C   0  0  0  0  0  2  0  0  0  0  0  0
  192.4810  177.0690  139.3220 N   0  0  0  0  0  2  0  0  0  0  0  0
  192.9740  173.1680  136.3490 C   0  0  0  0  0  3  0  0  0  0  0  0
  194.0740  176.2210  137.7640 N   0  0  0  0  0  0  0  0  0  0  0  0
  192.8710  176.1870  138.2630 C   0  0  0  0  0  0  0  0  0  0  0  0
  194.2930  173.0420  136.1270 C   0  0  0  0  0  3  0  0  0  0  0  0
  192.8020  174.5390  136.8030 C   0  0  2  0  0  3  0  0  0  0  0  0
  194.9810  174.3090  136.4720 C   0  0  0  0  0  0  0  0  0  0  0  0
  194.0450  175.1790  136.8070 C   0  0  0  0  0  0  0  0  0  0  0  0
  196.4290  174.4760  136.6590 C   0  0  0  0  0  0  0  0  0  0  0  0
  197.0000  175.5220  136.2530 O   0  0  0  0  0  0  0  0  0  0  0  0
  197.1780  173.4870  137.2880 O   0  0  0  0  0  1  0  0  0  0  0  0
  184.0730  180.6000  138.8420 O   0  0  0  0  0  1  0  0  0  0  0  0
  184.2370  179.2160  138.9160 C   0  0  2  0  0  3  0  0  0  0  0  0
  184.1240  178.7730  140.3650 C   0  0  0  0  0  2  0  0  0  0  0  0
  182.8550  177.9610  140.5570 C   0  0  0  0  0  2  0  0  0  0  0  0
  179.6170  178.4180  141.9570 C   0  0  1  0  0  3  0  0  0  0  0  0
  180.5470  178.3280  139.7440 C   0  0  0  0  0  0  0  0  0  0  0  0
  181.0290  178.9090  141.9180 C   0  0  0  0  0  0  0  0  0  0  0  0
  181.6120  179.3240  142.9080 O   0  0  0  0  0  0  0  0  0  0  0  0
  181.6510  178.8900  140.5700 C   0  0  1  0  0  3  0  0  0  0  0  0
  180.6270  178.2060  138.5310 O   0  0  0  0  0  0  0  0  0  0  0  0
  179.3090  177.9750  140.5130 C   0  0  1  0  0  3  0  0  0  0  0  0
  179.4980  177.3730  142.8790 O   0  0  0  0  0  1  0  0  0  0  0  0
  179.0030  176.4850  140.3850 C   0  0  0  0  0  2  0  0  0  0  0  0
  180.1900  175.7610  140.2670 O   0  0  0  0  0  1  0  0  0  0  0  0
  185.1540  176.4130  138.0380 C   0  0  0  0  0  2  0  0  0  0  0  0
  183.8930  175.8220  137.4410 C   0  0  0  0  0  2  0  0  0  0  0  0
  183.7150  174.3900  137.9200 C   0  0  0  0  0  2  0  0  0  0  0  0
  182.2920  172.9560  136.6300 O   0  0  0  0  0  1  0  0  0  0  0  0
  183.6030  173.4200  136.7490 C   0  0  2  0  0  3  0  0  0  0  0  0
  184.5670  172.2540  136.9200 C   0  0  0  0  0  2  0  0  0  0  0  0
  186.0030  172.7530  137.0010 C   0  0  0  0  0  2  0  0  0  0  0  0
  188.1160  172.1690  135.9920 C   0  0  0  0  0  0  0  0  0  0  0  0
  186.8390  172.0050  136.0900 N   0  0  0  0  0  0  0  0  0  0  0  0
  188.8780  171.3400  135.0200 C   0  0  0  0  0  1  0  0  0  0  0  0
  188.8590  173.1800  136.8120 C   0  0  0  0  0  1  0  0  0  0  0  0
  1  9  1  0  0  0  0
  2  5  1  0  0  0  0
  3 28  1  1  0  0  0
  3  6  1  0  0  0  0
  4  5  2  0  0  0  0
  7  2  2  0  0  0  0
  8 13  1  0  0  0  0
  8 10  1  1  0  0  0
  8 11  1  0  0  0  0
  9  6  1  0  0  0  0
  9  7  1  0  0  0  0
 11 41  1  0  0  0  0
 11  3  1  0  0  0  0
 12  7  1  0  0  0  0
 12 14  2  0  0  0  0
 13 10  1  1  0  0  0
 13  1  1  0  0  0  0
 14  4  1  0  0  0  0
 15 19  1  0  0  0  0
 16 14  1  0  0  0  0
 18 19  2  0  0  0  0
 19 16  1  0  0  0  0
 20 17  2  0  0  0  0
 20 22  1  0  0  0  0
 21 17  1  1  0  0  0
 21 23  1  0  0  0  0
 21 15  1  0  0  0  0
 22 24  1  0  0  0  0
 22 23  2  0  0  0  0
 23 18  1  0  0  0  0
 24 26  1  0  0  0  0
 25 24  2  0  0  0  0
 28 27  1  1  0  0  0
 28 29  1  0  0  0  0
 29 30  1  0  0  0  0
 31 38  1  1  0  0  0
 32 37  1  0  0  0  0
 32 35  1  0  0  0  0
 33 31  1  0  0  0  0
 33 34  2  0  0  0  0
 35 30  1  1  0  0  0
 35 33  1  0  0  0  0
 36 32  2  0  0  0  0
 37 39  1  1  0  0  0
 37 31  1  0  0  0  0
 40 39  1  0  0  0  0
 42 43  1  0  0  0  0
 42 41  1  0  0  0  0
 45 44  1  1  0  0  0
 45 46  1  0  0  0  0
 45 43  1  0  0  0  0
 46 47  1  0  0  0  0
 48 49  2  0  0  0  0
 48 51  1  0  0  0  0
 49 47  1  0  0  0  0
 50 48  1  0  0  0  0
M  END
>  <MODEL>
4

>  <REMARK>
 VINA RESULT:      -7.1      3.161     12.001
  Name = 
  14 active torsions:
  status: ('A' for Active; 'I' for Inactive)
    1  A    between atoms: C_3  and  C_33
    2  A    between atoms: C_3  and  C_47
    3  A    between atoms: C_6  and  C_44
    4  A    between atoms: C_7  and  C_40
    5  A    between atoms: C_12  and  C_44
    6  A    between atoms: C_12  and  C_46
    7  A    between atoms: N_14  and  C_51
    8  A    between atoms: N_18  and  C_33
    9  A    between atoms: C_19  and  C_36
   10  A    between atoms: C_30  and  C_46
   11  A    between atoms: N_37  and  C_39
   12  A    between atoms: C_39  and  C_45
   13  A    between atoms: C_45  and  C_49
   14  A    between atoms: C_47  and  C_49
                            x       y       z     vdW  Elec       q    Type
                         _______ _______ _______ _____ _____    ______ ____

>  <TORSDO>
F 14

$$$$
=
 OpenBabel10222417123D

 51 56  0  0  1  0  0  0  0  0999 V2000
  184.2280  178.5800  138.4500 C   0  0  0  0  0  2  0  0  0  0  0  0
  182.5490  179.0680  141.8130 C   0  0  0  0  0  3  0  0  0  0  0  0
  181.6680  178.8480  137.6330 C   0  0  1  0  0  3  0  0  0  0  0  0
  184.1620  178.5590  143.5370 C   0  0  0  0  0  3  0  0  0  0  0  0
  182.8900  178.9940  143.1650 C   0  0  0  0  0  3  0  0  0  0  0  0
  181.8640  179.1470  139.0540 N   0  0  0  0  0  2  0  0  0  0  0  0
  183.4920  178.7090  140.8410 C   0  0  0  0  0  0  0  0  0  0  0  0
  182.8370  176.6300  137.2380 C   0  0  1  0  0  3  0  0  0  0  0  0
  183.1710  178.7930  139.4440 N   0  0  0  0  0  0  0  0  0  0  0  0
  183.4280  176.1590  138.5700 C   0  0  0  0  0  2  0  0  0  0  0  0
  181.5780  177.3950  137.4140 N   0  0  0  0  0  0  0  0  0  0  0  0
  184.7250  178.2820  141.2350 N   0  0  0  0  0  0  0  0  0  0  0  0
  184.1750  177.2030  137.7650 C   0  0  2  0  0  3  0  0  0  0  0  0
  185.0770  178.1910  142.5470 C   0  0  0  0  0  0  0  0  0  0  0  0
  186.1120  178.0440  145.4880 C   0  0  0  0  0  2  0  0  0  0  0  0
  186.3830  177.7490  142.9310 N   0  0  0  0  0  2  0  0  0  0  0  0
  187.1940  178.2650  147.7660 C   0  0  0  0  0  3  0  0  0  0  0  0
  188.0190  177.0820  144.5320 N   0  0  0  0  0  0  0  0  0  0  0  0
  186.8360  177.5640  144.2770 C   0  0  0  0  0  0  0  0  0  0  0  0
  188.5140  178.0840  147.9370 C   0  0  0  0  0  2  0  0  0  0  0  0
  186.8980  177.6600  146.4770 C   0  0  0  0  0  0  0  0  0  0  0  0
  189.0820  177.3990  146.7500 C   0  0  0  0  0  0  0  0  0  0  0  0
  188.0730  177.1170  145.9460 C   0  0  0  0  0  0  0  0  0  0  0  0
  190.5100  177.2980  146.4190 C   0  0  0  0  0  0  0  0  0  0  0  0
  191.0430  178.1520  145.6640 O   0  0  0  0  0  0  0  0  0  0  0  0
  191.2840  176.2660  146.9410 O   0  0  0  0  0  1  0  0  0  0  0  0
  180.1140  179.1010  135.8250 O   0  0  0  0  0  1  0  0  0  0  0  0
  180.4180  179.5560  137.1090 C   0  0  2  0  0  3  0  0  0  0  0  0
  180.6220  181.0610  137.0750 C   0  0  0  0  0  2  0  0  0  0  0  0
  179.6970  181.7280  138.0770 C   0  0  0  0  0  2  0  0  0  0  0  0
  179.9310  184.2070  135.5370 C   0  0  1  0  0  3  0  0  0  0  0  0
  179.4090  184.1780  137.8810 C   0  0  0  0  0  0  0  0  0  0  0  0
  179.2930  182.9220  135.9560 C   0  0  0  0  0  0  0  0  0  0  0  0
  179.0550  182.0160  135.1730 O   0  0  0  0  0  0  0  0  0  0  0  0
  178.9330  182.8530  137.3950 C   0  0  1  0  0  3  0  0  0  0  0  0
  179.2390  184.5590  139.0290 O   0  0  0  0  0  0  0  0  0  0  0  0
  180.0620  185.0300  136.8340 C   0  0  1  0  0  3  0  0  0  0  0  0
  181.1660  183.9540  134.9320 O   0  0  0  0  0  1  0  0  0  0  0  0
  181.5080  185.3380  137.2170 C   0  0  0  0  0  2  0  0  0  0  0  0
  182.1280  184.1900  137.7090 O   0  0  0  0  0  1  0  0  0  0  0  0
  180.6180  176.7250  138.2970 C   0  0  0  0  0  2  0  0  0  0  0  0
  179.7600  175.7790  137.4800 C   0  0  0  0  0  2  0  0  0  0  0  0
  180.2860  174.3580  137.6110 C   0  0  0  0  0  2  0  0  0  0  0  0
  179.4520  172.2770  136.7630 O   0  0  0  0  0  1  0  0  0  0  0  0
  179.9490  173.5240  136.3800 C   0  0  2  0  0  3  0  0  0  0  0  0
  181.1720  173.3580  135.4880 C   0  0  0  0  0  2  0  0  0  0  0  0
  182.3820  172.9430  136.3120 C   0  0  0  0  0  2  0  0  0  0  0  0
  184.7360  173.4780  136.3100 C   0  0  0  0  0  0  0  0  0  0  0  0
  183.5900  173.4650  135.7140 N   0  0  0  0  0  0  0  0  0  0  0  0
  185.9150  174.0380  135.5970 C   0  0  0  0  0  1  0  0  0  0  0  0
  184.9180  172.9630  137.7060 C   0  0  0  0  0  1  0  0  0  0  0  0
  1  9  1  0  0  0  0
  2  5  1  0  0  0  0
  3 28  1  1  0  0  0
  3  6  1  0  0  0  0
  5  4  2  0  0  0  0
  6  9  1  0  0  0  0
  7 12  1  0  0  0  0
  7  2  2  0  0  0  0
  8 11  1  0  0  0  0
  8 13  1  0  0  0  0
  8 10  1  1  0  0  0
  9  7  1  0  0  0  0
 11  3  1  0  0  0  0
 11 41  1  0  0  0  0
 12 14  2  0  0  0  0
 13  1  1  1  0  0  0
 13 10  1  0  0  0  0
 14 16  1  0  0  0  0
 14  4  1  0  0  0  0
 15 21  1  0  0  0  0
 16 19  1  0  0  0  0
 17 20  1  0  0  0  0
 18 23  1  0  0  0  0
 19 18  2  0  0  0  0
 19 15  1  0  0  0  0
 21 17  2  0  0  0  0
 22 20  1  0  0  0  0
 23 21  1  0  0  0  0
 23 22  2  0  0  0  0
 24 22  1  0  0  0  0
 24 26  1  0  0  0  0
 25 24  2  0  0  0  0
 28 27  1  6  0  0  0
 29 28  1  0  0  0  0
 29 30  1  0  0  0  0
 31 38  1  1  0  0  0
 31 33  1  0  0  0  0
 31 37  1  0  0  0  0
 32 36  2  0  0  0  0
 33 35  1  0  0  0  0
 34 33  2  0  0  0  0
 35 32  1  0  0  0  0
 35 30  1  1  0  0  0
 37 39  1  1  0  0  0
 37 32  1  0  0  0  0
 39 40  1  0  0  0  0
 42 43  1  0  0  0  0
 42 41  1  0  0  0  0
 45 44  1  1  0  0  0
 45 43  1  0  0  0  0
 46 47  1  0  0  0  0
 46 45  1  0  0  0  0
 48 51  1  0  0  0  0
 49 48  2  0  0  0  0
 49 47  1  0  0  0  0
 50 48  1  0  0  0  0
M  END
>  <MODEL>
5

>  <REMARK>
 VINA RESULT:      -6.8      6.240     13.438
  Name = 
  14 active torsions:
  status: ('A' for Active; 'I' for Inactive)
    1  A    between atoms: C_3  and  C_33
    2  A    between atoms: C_3  and  C_47
    3  A    between atoms: C_6  and  C_44
    4  A    between atoms: C_7  and  C_40
    5  A    between atoms: C_12  and  C_44
    6  A    between atoms: C_12  and  C_46
    7  A    between atoms: N_14  and  C_51
    8  A    between atoms: N_18  and  C_33
    9  A    between atoms: C_19  and  C_36
   10  A    between atoms: C_30  and  C_46
   11  A    between atoms: N_37  and  C_39
   12  A    between atoms: C_39  and  C_45
   13  A    between atoms: C_45  and  C_49
   14  A    between atoms: C_47  and  C_49
                            x       y       z     vdW  Elec       q    Type
                         _______ _______ _______ _____ _____    ______ ____

>  <TORSDO>
F 14

$$$$
=
 OpenBabel10222417123D

 51 56  0  0  1  0  0  0  0  0999 V2000
  184.2020  176.7610  139.3050 C   0  0  0  0  0  2  0  0  0  0  0  0
  186.4270  178.6490  136.8850 C   0  0  0  0  0  3  0  0  0  0  0  0
  182.3080  177.8460  137.7150 C   0  0  1  0  0  3  0  0  0  0  0  0
  188.6740  178.6390  137.7690 C   0  0  0  0  0  3  0  0  0  0  0  0
  187.7770  178.9770  136.7560 C   0  0  0  0  0  3  0  0  0  0  0  0
  183.6710  178.0250  137.2070 N   0  0  0  0  0  2  0  0  0  0  0  0
  185.9850  177.9770  138.0320 C   0  0  0  0  0  0  0  0  0  0  0  0
  182.3910  178.5530  140.1510 C   0  0  1  0  0  3  0  0  0  0  0  0
  184.6030  177.6140  138.1800 N   0  0  0  0  0  0  0  0  0  0  0  0
  183.8210  179.0010  140.4690 C   0  0  0  0  0  2  0  0  0  0  0  0
  182.0020  178.8480  138.7500 N   0  0  0  0  0  0  0  0  0  0  0  0
  186.8830  177.6650  139.0090 N   0  0  0  0  0  0  0  0  0  0  0  0
  183.5040  177.5190  140.4470 C   0  0  2  0  0  3  0  0  0  0  0  0
  188.2030  177.9830  138.9090 C   0  0  0  0  0  0  0  0  0  0  0  0
  187.4660  177.7230  141.9300 C   0  0  0  0  0  2  0  0  0  0  0  0
  189.1260  177.6330  139.9470 N   0  0  0  0  0  2  0  0  0  0  0  0
  187.0880  177.8790  144.4290 C   0  0  0  0  0  3  0  0  0  0  0  0
  189.6780  177.0040  142.1790 N   0  0  0  0  0  0  0  0  0  0  0  0
  188.7830  177.3950  141.3170 C   0  0  0  0  0  0  0  0  0  0  0  0
  188.1090  177.8040  145.2990 C   0  0  0  0  0  2  0  0  0  0  0  0
  187.6180  177.3420  143.1860 C   0  0  0  0  0  0  0  0  0  0  0  0
  189.3070  177.2570  144.6170 C   0  0  0  0  0  0  0  0  0  0  0  0
  188.9430  176.9440  143.3870 C   0  0  0  0  0  0  0  0  0  0  0  0
  190.6830  177.3070  145.1300 C   0  0  0  0  0  0  0  0  0  0  0  0
  191.4760  178.1950  144.7220 O   0  0  0  0  0  0  0  0  0  0  0  0
  191.1190  176.3800  146.0720 O   0  0  0  0  0  1  0  0  0  0  0  0
  180.0000  177.8180  137.0650 O   0  0  0  0  0  1  0  0  0  0  0  0
  181.3010  177.9250  136.5670 C   0  0  2  0  0  3  0  0  0  0  0  0
  181.5450  176.8170  135.5560 C   0  0  0  0  0  2  0  0  0  0  0  0
  181.7520  175.4980  136.2790 C   0  0  0  0  0  2  0  0  0  0  0  0
  182.9460  172.1560  136.0430 C   0  0  1  0  0  3  0  0  0  0  0  0
  183.8890  174.3500  135.7900 C   0  0  0  0  0  0  0  0  0  0  0  0
  181.9410  173.1490  135.5530 C   0  0  0  0  0  0  0  0  0  0  0  0
  180.7850  172.8480  135.2960 O   0  0  0  0  0  0  0  0  0  0  0  0
  182.4730  174.5220  135.3630 C   0  0  1  0  0  3  0  0  0  0  0  0
  184.7110  175.2510  135.7230 O   0  0  0  0  0  0  0  0  0  0  0  0
  184.2380  172.9690  136.2570 C   0  0  1  0  0  3  0  0  0  0  0  0
  182.4880  171.5510  137.2180 O   0  0  0  0  0  1  0  0  0  0  0  0
  184.7080  172.9950  137.7100 C   0  0  0  0  0  2  0  0  0  0  0  0
  186.1020  173.0020  137.7620 O   0  0  0  0  0  1  0  0  0  0  0  0
  182.3080  180.2240  138.3460 C   0  0  0  0  0  2  0  0  0  0  0  0
  181.0520  181.0660  138.4460 C   0  0  0  0  0  2  0  0  0  0  0  0
  180.0460  180.3900  139.3650 C   0  0  0  0  0  2  0  0  0  0  0  0
  179.1290  182.5980  139.1930 O   0  0  0  0  0  1  0  0  0  0  0  0
  178.9730  181.3670  139.8330 C   0  0  2  0  0  3  0  0  0  0  0  0
  179.0270  181.5440  141.3450 C   0  0  0  0  0  2  0  0  0  0  0  0
  179.2140  180.2000  142.0340 C   0  0  0  0  0  2  0  0  0  0  0  0
  180.9260  179.1490  143.3720 C   0  0  0  0  0  0  0  0  0  0  0  0
  180.5290  180.1280  142.6290 N   0  0  0  0  0  0  0  0  0  0  0  0
  182.3040  179.1790  143.9300 C   0  0  0  0  0  1  0  0  0  0  0  0
  180.0380  177.9890  143.7100 C   0  0  0  0  0  1  0  0  0  0  0  0
  2  7  2  0  0  0  0
  3 28  1  6  0  0  0
  3 11  1  0  0  0  0
  4 14  1  0  0  0  0
  5  2  1  0  0  0  0
  5  4  2  0  0  0  0
  6  3  1  0  0  0  0
  6  9  1  0  0  0  0
  7  9  1  0  0  0  0
  7 12  1  0  0  0  0
  8 13  1  0  0  0  0
  8 10  1  6  0  0  0
  9  1  1  0  0  0  0
 11  8  1  0  0  0  0
 13  1  1  6  0  0  0
 13 10  1  0  0  0  0
 14 12  2  0  0  0  0
 14 16  1  0  0  0  0
 15 21  1  0  0  0  0
 16 19  1  0  0  0  0
 17 20  1  0  0  0  0
 18 23  1  0  0  0  0
 19 15  1  0  0  0  0
 19 18  2  0  0  0  0
 21 23  1  0  0  0  0
 21 17  2  0  0  0  0
 22 24  1  0  0  0  0
 22 20  1  0  0  0  0
 23 22  2  0  0  0  0
 24 26  1  0  0  0  0
 25 24  2  0  0  0  0
 28 27  1  1  0  0  0
 29 30  1  0  0  0  0
 29 28  1  0  0  0  0
 31 37  1  0  0  0  0
 31 38  1  1  0  0  0
 32 37  1  0  0  0  0
 33 31  1  0  0  0  0
 34 33  2  0  0  0  0
 35 33  1  0  0  0  0
 35 32  1  0  0  0  0
 35 30  1  1  0  0  0
 36 32  2  0  0  0  0
 37 39  1  1  0  0  0
 39 40  1  0  0  0  0
 41 42  1  0  0  0  0
 41 11  1  0  0  0  0
 42 43  1  0  0  0  0
 43 45  1  0  0  0  0
 45 44  1  6  0  0  0
 45 46  1  0  0  0  0
 46 47  1  0  0  0  0
 47 49  1  0  0  0  0
 48 51  1  0  0  0  0
 48 50  1  0  0  0  0
 49 48  2  0  0  0  0
M  END
>  <MODEL>
6

>  <REMARK>
 VINA RESULT:      -6.8      5.261     10.683
  Name = 
  14 active torsions:
  status: ('A' for Active; 'I' for Inactive)
    1  A    between atoms: C_3  and  C_33
    2  A    between atoms: C_3  and  C_47
    3  A    between atoms: C_6  and  C_44
    4  A    between atoms: C_7  and  C_40
    5  A    between atoms: C_12  and  C_44
    6  A    between atoms: C_12  and  C_46
    7  A    between atoms: N_14  and  C_51
    8  A    between atoms: N_18  and  C_33
    9  A    between atoms: C_19  and  C_36
   10  A    between atoms: C_30  and  C_46
   11  A    between atoms: N_37  and  C_39
   12  A    between atoms: C_39  and  C_45
   13  A    between atoms: C_45  and  C_49
   14  A    between atoms: C_47  and  C_49
                            x       y       z     vdW  Elec       q    Type
                         _______ _______ _______ _____ _____    ______ ____

>  <TORSDO>
F 14

$$$$
=
 OpenBabel10222417123D

 51 56  0  0  1  0  0  0  0  0999 V2000
  188.4410  178.9110  137.1670 C   0  0  0  0  0  2  0  0  0  0  0  0
  188.8290  177.4160  140.6290 C   0  0  0  0  0  3  0  0  0  0  0  0
  185.8380  178.7020  137.8540 C   0  0  1  0  0  3  0  0  0  0  0  0
  191.1350  176.7530  140.9050 C   0  0  0  0  0  3  0  0  0  0  0  0
  189.8490  176.8930  141.4260 C   0  0  0  0  0  3  0  0  0  0  0  0
  186.7600  178.4250  138.9590 N   0  0  0  0  0  2  0  0  0  0  0  0
  189.1100  177.8010  139.3110 C   0  0  0  0  0  0  0  0  0  0  0  0
  186.6870  177.3230  135.8990 C   0  0  1  0  0  3  0  0  0  0  0  0
  188.0820  178.3580  138.4770 N   0  0  0  0  0  0  0  0  0  0  0  0
  187.9210  176.5440  136.3660 C   0  0  0  0  0  2  0  0  0  0  0  0
  185.6960  177.5210  136.9860 N   0  0  0  0  0  0  0  0  0  0  0  0
  190.3740  177.6470  138.8270 N   0  0  0  0  0  0  0  0  0  0  0  0
  188.0760  178.0010  135.9810 C   0  0  2  0  0  3  0  0  0  0  0  0
  191.3830  177.1300  139.5820 C   0  0  0  0  0  0  0  0  0  0  0  0
  192.2840  174.8600  137.6390 C   0  0  0  0  0  2  0  0  0  0  0  0
  192.7040  176.9890  139.0500 N   0  0  0  0  0  2  0  0  0  0  0  0
  193.2300  172.8630  136.4040 C   0  0  0  0  0  3  0  0  0  0  0  0
  194.3150  176.0200  137.5830 N   0  0  0  0  0  0  0  0  0  0  0  0
  193.1060  176.0250  138.0690 C   0  0  0  0  0  0  0  0  0  0  0  0
  194.5520  172.7200  136.2090 C   0  0  0  0  0  3  0  0  0  0  0  0
  193.0530  174.2650  136.7450 C   0  0  2  0  0  3  0  0  0  0  0  0
  195.2360  174.0120  136.4590 C   0  0  0  0  0  0  0  0  0  0  0  0
  194.2970  174.9040  136.7130 C   0  0  0  0  0  0  0  0  0  0  0  0
  196.6820  174.1940  136.6480 C   0  0  0  0  0  0  0  0  0  0  0  0
  197.2380  173.7680  137.6940 O   0  0  0  0  0  1  0  0  0  0  0  0
  197.4470  174.8300  135.6750 O   0  0  0  0  0  0  0  0  0  0  0  0
  184.5510  180.4660  138.8440 O   0  0  0  0  0  1  0  0  0  0  0  0
  184.4780  179.1450  138.3950 C   0  0  2  0  0  3  0  0  0  0  0  0
  184.0330  178.2490  139.5390 C   0  0  0  0  0  2  0  0  0  0  0  0
  184.4490  178.8620  140.8640 C   0  0  0  0  0  2  0  0  0  0  0  0
  183.1290  178.7900  144.1670 C   0  0  1  0  0  3  0  0  0  0  0  0
  185.0930  177.9470  143.0710 C   0  0  0  0  0  0  0  0  0  0  0  0
  182.8800  178.4720  142.7270 C   0  0  0  0  0  0  0  0  0  0  0  0
  181.7870  178.6130  142.1990 O   0  0  0  0  0  0  0  0  0  0  0  0
  184.0570  177.9320  142.0020 C   0  0  1  0  0  3  0  0  0  0  0  0
  186.2210  177.5080  142.9020 O   0  0  0  0  0  0  0  0  0  0  0  0
  184.6250  178.4930  144.3870 C   0  0  1  0  0  3  0  0  0  0  0  0
  182.8010  180.1240  144.4270 O   0  0  0  0  0  1  0  0  0  0  0  0
  185.4410  179.7240  144.7790 C   0  0  0  0  0  2  0  0  0  0  0  0
  185.5970  179.7740  146.1640 O   0  0  0  0  0  1  0  0  0  0  0  0
  185.3900  176.2860  137.7170 C   0  0  0  0  0  2  0  0  0  0  0  0
  184.2320  175.5790  137.0420 C   0  0  0  0  0  2  0  0  0  0  0  0
  184.7040  174.2580  136.4530 C   0  0  0  0  0  2  0  0  0  0  0  0
  185.2890  172.7090  138.1860 O   0  0  0  0  0  1  0  0  0  0  0  0
  184.2650  173.0770  137.3110 C   0  0  2  0  0  3  0  0  0  0  0  0
  183.8610  171.8960  136.4380 C   0  0  0  0  0  2  0  0  0  0  0  0
  182.5050  172.1460  135.7940 C   0  0  0  0  0  2  0  0  0  0  0  0
  180.4590  172.2720  137.0680 C   0  0  0  0  0  0  0  0  0  0  0  0
  181.6100  172.7610  136.7490 N   0  0  0  0  0  0  0  0  0  0  0  0
  179.6210  172.9900  138.0660 C   0  0  0  0  0  1  0  0  0  0  0  0
  179.9260  171.0120  136.4560 C   0  0  0  0  0  1  0  0  0  0  0  0
  1  9  1  0  0  0  0
  2  5  1  0  0  0  0
  3 28  1  1  0  0  0
  3  6  1  0  0  0  0
  4  5  2  0  0  0  0
  7  2  2  0  0  0  0
  8 13  1  0  0  0  0
  8 10  1  1  0  0  0
  8 11  1  0  0  0  0
  9  6  1  0  0  0  0
  9  7  1  0  0  0  0
 11 41  1  0  0  0  0
 11  3  1  0  0  0  0
 12  7  1  0  0  0  0
 12 14  2  0  0  0  0
 13 10  1  1  0  0  0
 13  1  1  0  0  0  0
 14  4  1  0  0  0  0
 15 19  1  0  0  0  0
 16 14  1  0  0  0  0
 18 19  2  0  0  0  0
 19 16  1  0  0  0  0
 20 17  2  0  0  0  0
 20 22  1  0  0  0  0
 21 17  1  1  0  0  0
 21 15  1  0  0  0  0
 22 24  1  0  0  0  0
 22 23  2  0  0  0  0
 23 21  1  0  0  0  0
 23 18  1  0  0  0  0
 24 25  1  0  0  0  0
 26 24  2  0  0  0  0
 28 27  1  1  0  0  0
 28 29  1  0  0  0  0
 29 30  1  0  0  0  0
 31 37  1  0  0  0  0
 31 38  1  6  0  0  0
 32 37  1  0  0  0  0
 33 31  1  0  0  0  0
 34 33  2  0  0  0  0
 35 30  1  6  0  0  0
 35 33  1  0  0  0  0
 35 32  1  0  0  0  0
 36 32  2  0  0  0  0
 37 39  1  6  0  0  0
 39 40  1  0  0  0  0
 42 41  1  0  0  0  0
 43 42  1  0  0  0  0
 43 45  1  0  0  0  0
 45 44  1  1  0  0  0
 46 45  1  0  0  0  0
 47 46  1  0  0  0  0
 47 49  1  0  0  0  0
 48 50  1  0  0  0  0
 49 48  2  0  0  0  0
 51 48  1  0  0  0  0
M  END
>  <MODEL>
7

>  <REMARK>
 VINA RESULT:      -6.4      3.611     11.521
  Name = 
  14 active torsions:
  status: ('A' for Active; 'I' for Inactive)
    1  A    between atoms: C_3  and  C_33
    2  A    between atoms: C_3  and  C_47
    3  A    between atoms: C_6  and  C_44
    4  A    between atoms: C_7  and  C_40
    5  A    between atoms: C_12  and  C_44
    6  A    between atoms: C_12  and  C_46
    7  A    between atoms: N_14  and  C_51
    8  A    between atoms: N_18  and  C_33
    9  A    between atoms: C_19  and  C_36
   10  A    between atoms: C_30  and  C_46
   11  A    between atoms: N_37  and  C_39
   12  A    between atoms: C_39  and  C_45
   13  A    between atoms: C_45  and  C_49
   14  A    between atoms: C_47  and  C_49
                            x       y       z     vdW  Elec       q    Type
                         _______ _______ _______ _____ _____    ______ ____

>  <TORSDO>
F 14

$$$$
=
 OpenBabel10222417123D

 51 56  0  0  1  0  0  0  0  0999 V2000
  188.1090  178.8840  137.4060 C   0  0  0  0  0  2  0  0  0  0  0  0
  188.3910  177.5550  140.9450 C   0  0  0  0  0  3  0  0  0  0  0  0
  185.4860  178.6440  138.0000 C   0  0  1  0  0  3  0  0  0  0  0  0
  190.6970  176.9590  141.3400 C   0  0  0  0  0  3  0  0  0  0  0  0
  189.3890  177.0930  141.8030 C   0  0  0  0  0  3  0  0  0  0  0  0
  186.3680  178.4400  139.1510 N   0  0  0  0  0  2  0  0  0  0  0  0
  188.7150  177.8880  139.6220 C   0  0  0  0  0  0  0  0  0  0  0  0
  186.4420  177.1990  136.1450 C   0  0  1  0  0  3  0  0  0  0  0  0
  187.7090  178.3820  138.7240 N   0  0  0  0  0  0  0  0  0  0  0  0
  187.6720  176.4720  136.6940 C   0  0  0  0  0  2  0  0  0  0  0  0
  185.4040  177.4230  137.1810 N   0  0  0  0  0  0  0  0  0  0  0  0
  190.0010  177.7410  139.1960 N   0  0  0  0  0  0  0  0  0  0  0  0
  187.8110  177.9140  136.2490 C   0  0  2  0  0  3  0  0  0  0  0  0
  190.9900  177.2820  140.0120 C   0  0  0  0  0  0  0  0  0  0  0  0
  191.9190  175.2260  137.8560 C   0  0  0  0  0  2  0  0  0  0  0  0
  192.3340  177.1490  139.5390 N   0  0  0  0  0  2  0  0  0  0  0  0
  192.8620  173.3540  136.4370 C   0  0  0  0  0  3  0  0  0  0  0  0
  193.9910  176.2950  138.0520 N   0  0  0  0  0  0  0  0  0  0  0  0
  192.7570  176.2940  138.4700 C   0  0  0  0  0  0  0  0  0  0  0  0
  194.1860  173.1780  136.2970 C   0  0  0  0  0  3  0  0  0  0  0  0
  192.7170  174.7110  136.9380 C   0  0  2  0  0  3  0  0  0  0  0  0
  194.9020  174.3980  136.7410 C   0  0  0  0  0  0  0  0  0  0  0  0
  193.9830  175.2940  137.0520 C   0  0  0  0  0  0  0  0  0  0  0  0
  196.3400  174.4920  137.0290 C   0  0  0  0  0  0  0  0  0  0  0  0
  196.7340  174.6790  138.2100 O   0  0  0  0  0  1  0  0  0  0  0  0
  197.2740  174.3710  136.0050 O   0  0  0  0  0  0  0  0  0  0  0  0
  184.1640  180.3450  139.0540 O   0  0  0  0  0  1  0  0  0  0  0  0
  184.0960  179.0800  138.4670 C   0  0  2  0  0  3  0  0  0  0  0  0
  183.5280  178.0900  139.4700 C   0  0  0  0  0  2  0  0  0  0  0  0
  182.6300  178.8160  140.4560 C   0  0  0  0  0  2  0  0  0  0  0  0
  179.4220  180.2710  140.9490 C   0  0  1  0  0  3  0  0  0  0  0  0
  180.3100  178.0430  140.8340 C   0  0  0  0  0  0  0  0  0  0  0  0
  180.6180  180.1850  140.0560 C   0  0  0  0  0  0  0  0  0  0  0  0
  181.0600  181.1490  139.4480 O   0  0  0  0  0  0  0  0  0  0  0  0
  181.2020  178.8260  139.9350 C   0  0  1  0  0  3  0  0  0  0  0  0
  180.4100  176.8320  140.9710 O   0  0  0  0  0  0  0  0  0  0  0  0
  179.2460  178.8490  141.5170 C   0  0  1  0  0  3  0  0  0  0  0  0
  179.6360  181.2270  141.9460 O   0  0  0  0  0  1  0  0  0  0  0  0
  179.4050  178.7750  143.0340 C   0  0  0  0  0  2  0  0  0  0  0  0
  180.7510  178.6260  143.3680 O   0  0  0  0  0  1  0  0  0  0  0  0
  185.0960  176.2150  137.9560 C   0  0  0  0  0  2  0  0  0  0  0  0
  184.2100  175.3040  137.1310 C   0  0  0  0  0  2  0  0  0  0  0  0
  183.0530  176.0990  136.5440 C   0  0  0  0  0  2  0  0  0  0  0  0
  181.8350  174.5280  137.8840 O   0  0  0  0  0  1  0  0  0  0  0  0
  181.7160  175.4190  136.8150 C   0  0  2  0  0  3  0  0  0  0  0  0
  181.2160  174.6950  135.5720 C   0  0  0  0  0  2  0  0  0  0  0  0
  181.1430  173.1950  135.8200 C   0  0  0  0  0  2  0  0  0  0  0  0
  183.0480  171.7440  135.5190 C   0  0  0  0  0  0  0  0  0  0  0  0
  182.1380  172.5130  135.0230 N   0  0  0  0  0  0  0  0  0  0  0  0
  184.0200  171.0900  134.6020 C   0  0  0  0  0  1  0  0  0  0  0  0
  183.1740  171.4990  136.9930 C   0  0  0  0  0  1  0  0  0  0  0  0
  1  9  1  0  0  0  0
  2  5  1  0  0  0  0
  3 28  1  1  0  0  0
  3  6  1  0  0  0  0
  4  5  2  0  0  0  0
  7  2  2  0  0  0  0
  8 13  1  0  0  0  0
  8 10  1  1  0  0  0
  8 11  1  0  0  0  0
  9  6  1  0  0  0  0
  9  7  1  0  0  0  0
 11 41  1  0  0  0  0
 11  3  1  0  0  0  0
 12  7  1  0  0  0  0
 12 14  2  0  0  0  0
 13 10  1  1  0  0  0
 13  1  1  0  0  0  0
 14  4  1  0  0  0  0
 15 19  1  0  0  0  0
 16 14  1  0  0  0  0
 18 19  2  0  0  0  0
 19 16  1  0  0  0  0
 20 17  2  0  0  0  0
 20 22  1  0  0  0  0
 21 17  1  1  0  0  0
 21 23  1  0  0  0  0
 21 15  1  0  0  0  0
 22 24  1  0  0  0  0
 22 23  2  0  0  0  0
 23 18  1  0  0  0  0
 24 25  1  0  0  0  0
 26 24  2  0  0  0  0
 28 27  1  1  0  0  0
 28 29  1  0  0  0  0
 29 30  1  0  0  0  0
 31 37  1  0  0  0  0
 31 38  1  1  0  0  0
 32 36  2  0  0  0  0
 32 37  1  0  0  0  0
 33 31  1  0  0  0  0
 34 33  2  0  0  0  0
 35 33  1  0  0  0  0
 35 30  1  1  0  0  0
 35 32  1  0  0  0  0
 37 39  1  1  0  0  0
 39 40  1  0  0  0  0
 42 41  1  0  0  0  0
 43 45  1  0  0  0  0
 43 42  1  0  0  0  0
 45 44  1  1  0  0  0
 46 47  1  0  0  0  0
 46 45  1  0  0  0  0
 48 51  1  0  0  0  0
 49 48  2  0  0  0  0
 49 47  1  0  0  0  0
 50 48  1  0  0  0  0
M  END
>  <MODEL>
8

>  <REMARK>
 VINA RESULT:      -6.4      3.530     12.396
  Name = 
  14 active torsions:
  status: ('A' for Active; 'I' for Inactive)
    1  A    between atoms: C_3  and  C_33
    2  A    between atoms: C_3  and  C_47
    3  A    between atoms: C_6  and  C_44
    4  A    between atoms: C_7  and  C_40
    5  A    between atoms: C_12  and  C_44
    6  A    between atoms: C_12  and  C_46
    7  A    between atoms: N_14  and  C_51
    8  A    between atoms: N_18  and  C_33
    9  A    between atoms: C_19  and  C_36
   10  A    between atoms: C_30  and  C_46
   11  A    between atoms: N_37  and  C_39
   12  A    between atoms: C_39  and  C_45
   13  A    between atoms: C_45  and  C_49
   14  A    between atoms: C_47  and  C_49
                            x       y       z     vdW  Elec       q    Type
                         _______ _______ _______ _____ _____    ______ ____

>  <TORSDO>
F 14

$$$$
=
 OpenBabel10222417123D

 51 56  0  0  1  0  0  0  0  0999 V2000
  187.5540  178.7340  136.6060 C   0  0  0  0  0  2  0  0  0  0  0  0
  184.9920  176.5460  138.3430 C   0  0  0  0  0  3  0  0  0  0  0  0
  188.9680  176.4380  136.7690 C   0  0  1  0  0  3  0  0  0  0  0  0
  183.1900  177.9630  139.1050 C   0  0  0  0  0  3  0  0  0  0  0  0
  183.7460  176.6920  138.9540 C   0  0  0  0  0  3  0  0  0  0  0  0
  187.5610  176.2880  137.1510 N   0  0  0  0  0  2  0  0  0  0  0  0
  185.6720  177.6800  137.8800 C   0  0  0  0  0  0  0  0  0  0  0  0
  189.8070  178.4680  138.0420 C   0  0  1  0  0  3  0  0  0  0  0  0
  186.9480  177.5540  137.2330 N   0  0  0  0  0  0  0  0  0  0  0  0
  188.6530  179.0060  138.8940 C   0  0  0  0  0  2  0  0  0  0  0  0
  189.7550  176.9930  137.8820 N   0  0  0  0  0  0  0  0  0  0  0  0
  185.1080  178.9100  138.0460 N   0  0  0  0  0  0  0  0  0  0  0  0
  188.7020  179.3560  137.4200 C   0  0  2  0  0  3  0  0  0  0  0  0
  183.8980  179.0780  138.6490 C   0  0  0  0  0  0  0  0  0  0  0  0
  181.4460  180.1400  137.0370 C   0  0  0  0  0  2  0  0  0  0  0  0
  183.3260  180.3810  138.8000 N   0  0  0  0  0  2  0  0  0  0  0  0
  179.7460  181.2480  135.5240 C   0  0  0  0  0  3  0  0  0  0  0  0
  181.6400  182.0220  138.4130 N   0  0  0  0  0  0  0  0  0  0  0  0
  182.1330  180.8440  138.1560 C   0  0  0  0  0  0  0  0  0  0  0  0
  179.4990  182.5670  135.5920 C   0  0  0  0  0  3  0  0  0  0  0  0
  180.4220  180.9300  136.7710 C   0  0  2  0  0  3  0  0  0  0  0  0
  180.0450  183.1120  136.8590 C   0  0  0  0  0  0  0  0  0  0  0  0
  180.5240  182.0910  137.5450 C   0  0  0  0  0  0  0  0  0  0  0  0
  180.2490  184.5350  137.1630 C   0  0  0  0  0  0  0  0  0  0  0  0
  179.8510  185.0070  138.2600 O   0  0  0  0  0  1  0  0  0  0  0  0
  180.8850  185.3690  136.2490 O   0  0  0  0  0  0  0  0  0  0  0  0
  189.5860  174.2070  137.3910 O   0  0  0  0  0  1  0  0  0  0  0  0
  189.5400  175.0950  136.3140 C   0  0  2  0  0  3  0  0  0  0  0  0
  190.9380  175.2670  135.7450 C   0  0  0  0  0  2  0  0  0  0  0  0
  191.9310  174.4650  136.5680 C   0  0  0  0  0  2  0  0  0  0  0  0
  195.1640  172.9840  136.5500 C   0  0  1  0  0  3  0  0  0  0  0  0
  194.2770  175.1930  136.8630 C   0  0  0  0  0  0  0  0  0  0  0  0
  193.8960  173.1960  135.7870 C   0  0  0  0  0  0  0  0  0  0  0  0
  193.4010  172.3340  135.0760 O   0  0  0  0  0  0  0  0  0  0  0  0
  193.3090  174.5510  135.9310 C   0  0  1  0  0  3  0  0  0  0  0  0
  194.1930  176.3660  137.1950 O   0  0  0  0  0  0  0  0  0  0  0  0
  195.3930  174.3010  137.3160 C   0  0  1  0  0  3  0  0  0  0  0  0
  195.0340  171.8810  137.4000 O   0  0  0  0  0  1  0  0  0  0  0  0
  195.3660  174.1350  138.8340 C   0  0  0  0  0  2  0  0  0  0  0  0
  196.0830  175.1670  139.4420 O   0  0  0  0  0  1  0  0  0  0  0  0
  189.5590  176.2840  139.1520 C   0  0  0  0  0  2  0  0  0  0  0  0
  190.6490  176.6880  140.1240 C   0  0  0  0  0  2  0  0  0  0  0  0
  190.0740  176.8110  141.5260 C   0  0  0  0  0  2  0  0  0  0  0  0
  191.7050  176.1280  143.1450 O   0  0  0  0  0  1  0  0  0  0  0  0
  191.1370  177.2450  142.5290 C   0  0  2  0  0  3  0  0  0  0  0  0
  190.5450  178.1830  143.5720 C   0  0  0  0  0  2  0  0  0  0  0  0
  190.0940  177.4030  144.7990 C   0  0  0  0  0  2  0  0  0  0  0  0
  187.6850  177.5030  144.8940 C   0  0  0  0  0  0  0  0  0  0  0  0
  188.8390  177.9290  145.2860 N   0  0  0  0  0  0  0  0  0  0  0  0
  186.4560  178.1170  145.4660 C   0  0  0  0  0  1  0  0  0  0  0  0
  187.5360  176.4200  143.8680 C   0  0  0  0  0  1  0  0  0  0  0  0
  1  9  1  0  0  0  0
  2  5  1  0  0  0  0
  3 28  1  1  0  0  0
  3  6  1  0  0  0  0
  3 11  1  0  0  0  0
  5  4  2  0  0  0  0
  6  9  1  0  0  0  0
  7 12  1  0  0  0  0
  7  2  2  0  0  0  0
  8 10  1  1  0  0  0
  9  7  1  0  0  0  0
 11  8  1  0  0  0  0
 11 41  1  0  0  0  0
 12 14  2  0  0  0  0
 13  1  1  6  0  0  0
 13  8  1  0  0  0  0
 13 10  1  0  0  0  0
 14 16  1  0  0  0  0
 14  4  1  0  0  0  0
 15 19  1  0  0  0  0
 17 20  2  0  0  0  0
 19 18  2  0  0  0  0
 19 16  1  0  0  0  0
 20 22  1  0  0  0  0
 21 17  1  6  0  0  0
 21 15  1  0  0  0  0
 21 23  1  0  0  0  0
 22 24  1  0  0  0  0
 22 23  2  0  0  0  0
 23 18  1  0  0  0  0
 24 25  1  0  0  0  0
 26 24  2  0  0  0  0
 28 27  1  1  0  0  0
 29 28  1  0  0  0  0
 29 30  1  0  0  0  0
 31 37  1  0  0  0  0
 31 38  1  1  0  0  0
 32 36  2  0  0  0  0
 32 37  1  0  0  0  0
 33 35  1  0  0  0  0
 33 31  1  0  0  0  0
 34 33  2  0  0  0  0
 35 30  1  1  0  0  0
 35 32  1  0  0  0  0
 37 39  1  1  0  0  0
 39 40  1  0  0  0  0
 41 42  1  0  0  0  0
 42 43  1  0  0  0  0
 43 45  1  0  0  0  0
 45 44  1  1  0  0  0
 45 46  1  0  0  0  0
 46 47  1  0  0  0  0
 47 49  1  0  0  0  0
 48 49  2  0  0  0  0
 48 50  1  0  0  0  0
 51 48  1  0  0  0  0
M  END
>  <MODEL>
9

>  <REMARK>
 VINA RESULT:      -6.3      3.908      4.813
  Name = 
  14 active torsions:
  status: ('A' for Active; 'I' for Inactive)
    1  A    between atoms: C_3  and  C_33
    2  A    between atoms: C_3  and  C_47
    3  A    between atoms: C_6  and  C_44
    4  A    between atoms: C_7  and  C_40
    5  A    between atoms: C_12  and  C_44
    6  A    between atoms: C_12  and  C_46
    7  A    between atoms: N_14  and  C_51
    8  A    between atoms: N_18  and  C_33
    9  A    between atoms: C_19  and  C_36
   10  A    between atoms: C_30  and  C_46
   11  A    between atoms: N_37  and  C_39
   12  A    between atoms: C_39  and  C_45
   13  A    between atoms: C_45  and  C_49
   14  A    between atoms: C_47  and  C_49
                            x       y       z     vdW  Elec       q    Type
                         _______ _______ _______ _____ _____    ______ ____

>  <TORSDO>
F 14

$$$$
