=
 OpenBabel10222416563D

 28 30  0  0  1  0  0  0  0  0999 V2000
  188.8470  177.7060  143.6630 C   0  0  0  0  0  0  0  0  0  0  0  0
  189.4010  177.7030  144.9730 C   0  0  0  0  0  0  0  0  0  0  0  0
  187.1720  177.5910  145.9270 C   0  0  0  0  0  3  0  0  0  0  0  0
  186.6160  177.6320  144.6460 C   0  0  0  0  0  3  0  0  0  0  0  0
  188.5510  177.6360  146.0860 C   0  0  0  0  0  3  0  0  0  0  0  0
  187.4340  177.7090  143.5090 C   0  0  0  0  0  0  0  0  0  0  0  0
  189.2170  177.3970  140.3760 C   0  0  0  0  0  0  0  0  0  0  0  0
  189.7700  177.8480  142.4710 C   0  0  2  0  0  3  0  0  0  0  0  0
  189.0320  178.2940  141.2920 N   0  0  0  0  0  0  0  0  0  0  0  0
  190.0590  176.3170  140.7800 N   0  0  0  0  0  0  0  0  0  0  0  0
  190.3910  176.5570  142.0110 C   0  0  0  0  0  3  0  0  0  0  0  0
  188.9990  178.8530  138.3680 C   0  0  0  0  0  1  0  0  0  0  0  0
  188.6370  177.5070  138.9940 C   0  0  1  0  0  3  0  0  0  0  0  0
  189.1470  176.3510  138.1330 C   0  0  0  0  0  2  0  0  0  0  0  0
  191.5360  175.9020  137.4850 C   0  0  0  0  0  0  0  0  0  0  0  0
  190.3730  176.7310  137.4450 N   0  0  0  0  0  2  0  0  0  0  0  0
  192.6270  176.3350  137.0180 O   0  0  0  0  0  0  0  0  0  0  0  0
  191.4760  174.6250  138.0430 O   0  0  0  0  0  1  0  0  0  0  0  0
  191.5690  178.6160  144.6120 O   0  0  0  0  0  0  0  0  0  0  0  0
  190.8660  177.7590  145.2190 C   0  0  0  0  0  0  0  0  0  0  0  0
  192.3950  176.0340  147.9280 N   0  0  0  0  0  0  0  0  0  0  0  0
  191.5210  176.8280  146.1550 C   0  0  0  0  0  0  0  0  0  0  0  0
  191.7730  177.0940  147.4470 N   0  0  0  0  0  2  0  0  0  0  0  0
  192.5520  175.1050  146.9920 N   0  0  0  0  0  0  0  0  0  0  0  0
  192.0140  175.5740  145.8520 C   0  0  0  0  0  3  0  0  0  0  0  0
  186.8480  177.8070  142.2240 O   0  0  0  0  0  0  0  0  0  0  0  0
  185.7160  179.3370  141.0260 N   0  0  0  0  0  1  0  0  0  0  0  0
  185.5940  178.3480  142.0270 N   0  0  0  0  0  2  0  0  0  0  0  0
  1  2  1  0  0  0  0
  2 20  1  0  0  0  0
  2  5  2  0  0  0  0
  3  5  1  0  0  0  0
  4  3  2  0  0  0  0
  6  1  2  0  0  0  0
  6  4  1  0  0  0  0
  7 10  1  0  0  0  0
  7  9  2  0  0  0  0
  8  1  1  1  0  0  0
  9  8  1  0  0  0  0
 10 11  2  0  0  0  0
 11  8  1  0  0  0  0
 13 12  1  6  0  0  0
 13  7  1  0  0  0  0
 14 13  1  0  0  0  0
 15 18  1  0  0  0  0
 16 15  1  0  0  0  0
 16 14  1  0  0  0  0
 17 15  2  0  0  0  0
 19 20  2  0  0  0  0
 20 22  1  0  0  0  0
 22 23  1  0  0  0  0
 23 21  1  0  0  0  0
 24 21  2  0  0  0  0
 25 22  2  0  0  0  0
 25 24  1  0  0  0  0
 26  6  1  0  0  0  0
 27 28  1  0  0  0  0
 28 26  1  0  0  0  0
M  END
>  <MODEL>
1

>  <REMARK>
 VINA RESULT:      -8.0      0.000      0.000
  Name = 
  8 active torsions:
  status: ('A' for Active; 'I' for Inactive)
    1  A    between atoms: C_4  and  C_8
    2  A    between atoms: C_4  and  C_12
    3  A    between atoms: C_6  and  C_10
    4  A    between atoms: C_7  and  C_9
    5  A    between atoms: C_9  and  C_27
    6  A    between atoms: N_14  and  O_26
    7  A    between atoms: N_17  and  C_27
    8  A    between atoms: O_26  and  C_28
                            x       y       z     vdW  Elec       q    Type
                         _______ _______ _______ _____ _____    ______ ____

>  <TORSDO>
F 8

$$$$
=
 OpenBabel10222416563D

 28 30  0  0  1  0  0  0  0  0999 V2000
  185.1910  178.2680  143.1480 C   0  0  0  0  0  0  0  0  0  0  0  0
  183.9040  178.4020  142.5570 C   0  0  0  0  0  0  0  0  0  0  0  0
  182.9990  179.1700  144.6740 C   0  0  0  0  0  3  0  0  0  0  0  0
  184.2500  179.0060  145.2740 C   0  0  0  0  0  3  0  0  0  0  0  0
  182.8300  178.8610  143.3300 C   0  0  0  0  0  3  0  0  0  0  0  0
  185.3470  178.5400  144.5350 C   0  0  0  0  0  0  0  0  0  0  0  0
  188.3840  177.3530  143.0650 C   0  0  0  0  0  0  0  0  0  0  0  0
  186.3290  177.7070  142.3220 C   0  0  2  0  0  3  0  0  0  0  0  0
  187.1910  176.8540  143.1360 N   0  0  0  0  0  0  0  0  0  0  0  0
  188.4810  178.5130  142.2370 N   0  0  0  0  0  0  0  0  0  0  0  0
  187.2830  178.7450  141.7950 C   0  0  0  0  0  3  0  0  0  0  0  0
  190.5900  176.2520  142.7250 C   0  0  0  0  0  1  0  0  0  0  0  0
  189.5700  176.7400  143.7530 C   0  0  1  0  0  3  0  0  0  0  0  0
  190.1980  177.7640  144.6980 C   0  0  0  0  0  2  0  0  0  0  0  0
  191.2800  176.6950  146.7020 C   0  0  0  0  0  0  0  0  0  0  0  0
  191.3620  177.1960  145.3660 N   0  0  0  0  0  2  0  0  0  0  0  0
  192.3370  176.3610  147.3070 O   0  0  0  0  0  0  0  0  0  0  0  0
  190.0450  176.5800  147.3410 O   0  0  0  0  0  1  0  0  0  0  0  0
  183.4950  176.8770  140.7760 O   0  0  0  0  0  0  0  0  0  0  0  0
  183.6460  178.0810  141.1290 C   0  0  0  0  0  0  0  0  0  0  0  0
  184.1420  180.6960  138.7690 N   0  0  0  0  0  0  0  0  0  0  0  0
  183.5700  179.1410  140.1070 C   0  0  0  0  0  0  0  0  0  0  0  0
  184.6250  179.8210  139.6310 N   0  0  0  0  0  2  0  0  0  0  0  0
  182.8200  180.6020  138.6810 N   0  0  0  0  0  0  0  0  0  0  0  0
  182.4200  179.6290  139.5190 C   0  0  0  0  0  3  0  0  0  0  0  0
  186.5900  178.3270  145.1760 O   0  0  0  0  0  0  0  0  0  0  0  0
  187.1310  178.3880  147.3590 N   0  0  0  0  0  1  0  0  0  0  0  0
  186.7110  177.5450  146.3070 N   0  0  0  0  0  2  0  0  0  0  0  0
  1  6  1  0  0  0  0
  2  1  2  0  0  0  0
  2  5  1  0  0  0  0
  3  4  1  0  0  0  0
  5  3  2  0  0  0  0
  6 26  1  0  0  0  0
  6  4  2  0  0  0  0
  7  9  2  0  0  0  0
  7 13  1  0  0  0  0
  8  9  1  0  0  0  0
  8  1  1  1  0  0  0
 10  7  1  0  0  0  0
 11 10  2  0  0  0  0
 11  8  1  0  0  0  0
 13 12  1  6  0  0  0
 13 14  1  0  0  0  0
 14 16  1  0  0  0  0
 15 17  2  0  0  0  0
 15 18  1  0  0  0  0
 16 15  1  0  0  0  0
 19 20  2  0  0  0  0
 20  2  1  0  0  0  0
 21 23  1  0  0  0  0
 22 20  1  0  0  0  0
 23 22  1  0  0  0  0
 24 21  2  0  0  0  0
 24 25  1  0  0  0  0
 25 22  2  0  0  0  0
 26 28  1  0  0  0  0
 28 27  1  0  0  0  0
M  END
>  <MODEL>
2

>  <REMARK>
 VINA RESULT:      -8.0      3.659      7.540
  Name = 
  8 active torsions:
  status: ('A' for Active; 'I' for Inactive)
    1  A    between atoms: C_4  and  C_8
    2  A    between atoms: C_4  and  C_12
    3  A    between atoms: C_6  and  C_10
    4  A    between atoms: C_7  and  C_9
    5  A    between atoms: C_9  and  C_27
    6  A    between atoms: N_14  and  O_26
    7  A    between atoms: N_17  and  C_27
    8  A    between atoms: O_26  and  C_28
                            x       y       z     vdW  Elec       q    Type
                         _______ _______ _______ _____ _____    ______ ____

>  <TORSDO>
F 8

$$$$
=
 OpenBabel10222416563D

 28 30  0  0  1  0  0  0  0  0999 V2000
  188.5160  177.8540  143.4150 C   0  0  0  0  0  0  0  0  0  0  0  0
  189.0890  177.8450  144.7160 C   0  0  0  0  0  0  0  0  0  0  0  0
  186.8810  177.6190  145.6980 C   0  0  0  0  0  3  0  0  0  0  0  0
  186.3060  177.6650  144.4270 C   0  0  0  0  0  3  0  0  0  0  0  0
  188.2600  177.7180  145.8390 C   0  0  0  0  0  3  0  0  0  0  0  0
  187.1030  177.8010  143.2800 C   0  0  0  0  0  0  0  0  0  0  0  0
  188.7800  177.8540  140.1020 C   0  0  0  0  0  0  0  0  0  0  0  0
  189.4150  178.0600  142.2130 C   0  0  2  0  0  3  0  0  0  0  0  0
  188.6750  178.6640  141.1080 N   0  0  0  0  0  0  0  0  0  0  0  0
  189.5660  176.6920  140.3710 N   0  0  0  0  0  0  0  0  0  0  0  0
  189.9440  176.7870  141.6090 C   0  0  0  0  0  3  0  0  0  0  0  0
  189.1380  178.9440  137.8940 C   0  0  0  0  0  1  0  0  0  0  0  0
  188.1720  178.1360  138.7580 C   0  0  1  0  0  3  0  0  0  0  0  0
  187.8070  176.8160  138.0770 C   0  0  0  0  0  2  0  0  0  0  0  0
  185.8530  177.2740  136.5610 C   0  0  0  0  0  0  0  0  0  0  0  0
  187.2530  177.0610  136.7530 N   0  0  0  0  0  2  0  0  0  0  0  0
  185.3850  177.3210  135.3890 O   0  0  0  0  0  0  0  0  0  0  0  0
  185.0030  177.4230  137.6570 O   0  0  0  0  0  1  0  0  0  0  0  0
  191.2080  178.8710  144.3650 O   0  0  0  0  0  0  0  0  0  0  0  0
  190.5540  177.9570  144.9430 C   0  0  0  0  0  0  0  0  0  0  0  0
  192.1830  176.1740  147.5540 N   0  0  0  0  0  0  0  0  0  0  0  0
  191.2670  177.0160  145.8260 C   0  0  0  0  0  0  0  0  0  0  0  0
  191.4940  177.2180  147.1340 N   0  0  0  0  0  2  0  0  0  0  0  0
  192.4080  175.3180  146.5650 N   0  0  0  0  0  0  0  0  0  0  0  0
  191.8450  175.8200  145.4510 C   0  0  0  0  0  3  0  0  0  0  0  0
  186.4940  177.9020  142.0070 O   0  0  0  0  0  0  0  0  0  0  0  0
  185.3310  179.3710  140.7610 N   0  0  0  0  0  1  0  0  0  0  0  0
  185.2410  178.4530  141.8310 N   0  0  0  0  0  2  0  0  0  0  0  0
  1  2  1  0  0  0  0
  2 20  1  0  0  0  0
  2  5  2  0  0  0  0
  3  5  1  0  0  0  0
  4  3  2  0  0  0  0
  6  1  2  0  0  0  0
  6  4  1  0  0  0  0
  7 10  1  0  0  0  0
  7  9  2  0  0  0  0
  8  1  1  1  0  0  0
  9  8  1  0  0  0  0
 10 11  2  0  0  0  0
 11  8  1  0  0  0  0
 13 12  1  6  0  0  0
 13  7  1  0  0  0  0
 14 13  1  0  0  0  0
 15 16  1  0  0  0  0
 15 18  1  0  0  0  0
 16 14  1  0  0  0  0
 17 15  2  0  0  0  0
 19 20  2  0  0  0  0
 20 22  1  0  0  0  0
 22 23  1  0  0  0  0
 23 21  1  0  0  0  0
 24 21  2  0  0  0  0
 25 22  2  0  0  0  0
 25 24  1  0  0  0  0
 26  6  1  0  0  0  0
 27 28  1  0  0  0  0
 28 26  1  0  0  0  0
M  END
>  <MODEL>
3

>  <REMARK>
 VINA RESULT:      -7.6      2.222      2.386
  Name = 
  8 active torsions:
  status: ('A' for Active; 'I' for Inactive)
    1  A    between atoms: C_4  and  C_8
    2  A    between atoms: C_4  and  C_12
    3  A    between atoms: C_6  and  C_10
    4  A    between atoms: C_7  and  C_9
    5  A    between atoms: C_9  and  C_27
    6  A    between atoms: N_14  and  O_26
    7  A    between atoms: N_17  and  C_27
    8  A    between atoms: O_26  and  C_28
                            x       y       z     vdW  Elec       q    Type
                         _______ _______ _______ _____ _____    ______ ____

>  <TORSDO>
F 8

$$$$
=
 OpenBabel10222416563D

 28 30  0  0  1  0  0  0  0  0999 V2000
  189.7730  176.9950  139.4860 C   0  0  0  0  0  0  0  0  0  0  0  0
  189.7680  176.4270  138.1820 C   0  0  0  0  0  0  0  0  0  0  0  0
  187.7780  177.7000  137.6240 C   0  0  0  0  0  3  0  0  0  0  0  0
  187.7530  178.2350  138.9140 C   0  0  0  0  0  3  0  0  0  0  0  0
  188.7730  176.7980  137.2680 C   0  0  0  0  0  3  0  0  0  0  0  0
  188.7260  177.8810  139.8590 C   0  0  0  0  0  0  0  0  0  0  0  0
  190.7100  176.8820  142.6710 C   0  0  0  0  0  0  0  0  0  0  0  0
  190.8120  176.5370  140.4870 C   0  0  2  0  0  3  0  0  0  0  0  0
  190.1830  176.1450  141.7460 N   0  0  0  0  0  0  0  0  0  0  0  0
  191.7070  177.7890  142.1960 N   0  0  0  0  0  0  0  0  0  0  0  0
  191.7790  177.6090  140.9130 C   0  0  0  0  0  3  0  0  0  0  0  0
  191.5390  176.2740  144.9380 C   0  0  0  0  0  1  0  0  0  0  0  0
  190.3420  176.7620  144.1230 C   0  0  1  0  0  3  0  0  0  0  0  0
  189.8480  178.1140  144.6380 C   0  0  0  0  0  2  0  0  0  0  0  0
  188.4960  177.6620  146.7100 C   0  0  0  0  0  0  0  0  0  0  0  0
  188.5680  177.9650  145.3160 N   0  0  0  0  0  2  0  0  0  0  0  0
  187.3800  177.3800  147.2290 O   0  0  0  0  0  0  0  0  0  0  0  0
  189.6480  177.6710  147.4970 O   0  0  0  0  0  1  0  0  0  0  0  0
  190.6050  174.2130  137.9290 O   0  0  0  0  0  0  0  0  0  0  0  0
  190.7930  175.4480  137.7350 C   0  0  0  0  0  0  0  0  0  0  0  0
  193.4980  176.2490  135.5680 N   0  0  0  0  0  0  0  0  0  0  0  0
  192.0350  175.8880  137.0730 C   0  0  0  0  0  0  0  0  0  0  0  0
  192.2780  175.7810  135.7570 N   0  0  0  0  0  0  0  0  0  0  0  0
  194.0420  176.6440  136.7130 N   0  0  0  0  0  2  0  0  0  0  0  0
  193.1450  176.4270  137.6920 C   0  0  0  0  0  3  0  0  0  0  0  0
  188.6480  178.3910  141.1770 O   0  0  0  0  0  0  0  0  0  0  0  0
  186.9640  177.6420  142.4670 N   0  0  0  0  0  1  0  0  0  0  0  0
  187.4490  178.7600  141.7530 N   0  0  0  0  0  2  0  0  0  0  0  0
  1  6  1  0  0  0  0
  2  1  2  0  0  0  0
  3  4  1  0  0  0  0
  4  6  2  0  0  0  0
  5  3  2  0  0  0  0
  5  2  1  0  0  0  0
  6 26  1  0  0  0  0
  7 13  1  0  0  0  0
  8  1  1  6  0  0  0
  8 11  1  0  0  0  0
  8  9  1  0  0  0  0
  9  7  2  0  0  0  0
 10  7  1  0  0  0  0
 11 10  2  0  0  0  0
 13 14  1  0  0  0  0
 13 12  1  1  0  0  0
 14 16  1  0  0  0  0
 15 17  2  0  0  0  0
 15 18  1  0  0  0  0
 16 15  1  0  0  0  0
 20 19  2  0  0  0  0
 20  2  1  0  0  0  0
 21 23  2  0  0  0  0
 21 24  1  0  0  0  0
 22 25  2  0  0  0  0
 22 20  1  0  0  0  0
 23 22  1  0  0  0  0
 24 25  1  0  0  0  0
 26 28  1  0  0  0  0
 28 27  1  0  0  0  0
M  END
>  <MODEL>
4

>  <REMARK>
 VINA RESULT:      -7.3      2.282      7.376
  Name = 
  8 active torsions:
  status: ('A' for Active; 'I' for Inactive)
    1  A    between atoms: C_4  and  C_8
    2  A    between atoms: C_4  and  C_12
    3  A    between atoms: C_6  and  C_10
    4  A    between atoms: C_7  and  C_9
    5  A    between atoms: C_9  and  C_27
    6  A    between atoms: N_14  and  O_26
    7  A    between atoms: N_17  and  C_27
    8  A    between atoms: O_26  and  C_28
                            x       y       z     vdW  Elec       q    Type
                         _______ _______ _______ _____ _____    ______ ____

>  <TORSDO>
F 8

$$$$
=
 OpenBabel10222416563D

 28 30  0  0  1  0  0  0  0  0999 V2000
  188.4810  177.3300  146.0660 C   0  0  0  0  0  0  0  0  0  0  0  0
  189.7210  177.2820  146.7610 C   0  0  0  0  0  0  0  0  0  0  0  0
  188.6720  178.2540  148.7220 C   0  0  0  0  0  3  0  0  0  0  0  0
  187.4580  178.3400  148.0360 C   0  0  0  0  0  3  0  0  0  0  0  0
  189.7930  177.7380  148.0850 C   0  0  0  0  0  3  0  0  0  0  0  0
  187.3500  177.9030  146.7070 C   0  0  0  0  0  0  0  0  0  0  0  0
  187.4490  178.0320  142.9870 C   0  0  0  0  0  0  0  0  0  0  0  0
  188.4310  176.8980  144.6160 C   0  0  2  0  0  3  0  0  0  0  0  0
  188.5130  178.0550  143.7260 N   0  0  0  0  0  0  0  0  0  0  0  0
  186.5830  176.9260  143.2470 N   0  0  0  0  0  0  0  0  0  0  0  0
  187.1360  176.2500  144.2060 C   0  0  0  0  0  3  0  0  0  0  0  0
  187.8020  178.6170  140.5940 C   0  0  0  0  0  1  0  0  0  0  0  0
  187.1740  179.0500  141.9170 C   0  0  1  0  0  3  0  0  0  0  0  0
  185.6640  179.2370  141.7680 C   0  0  0  0  0  2  0  0  0  0  0  0
  184.1460  178.7380  139.8250 C   0  0  0  0  0  0  0  0  0  0  0  0
  185.3040  179.3780  140.3630 N   0  0  0  0  0  2  0  0  0  0  0  0
  183.9530  178.7450  138.5770 O   0  0  0  0  0  0  0  0  0  0  0  0
  183.2340  178.1010  140.6670 O   0  0  0  0  0  1  0  0  0  0  0  0
  191.6530  175.8910  146.7560 O   0  0  0  0  0  0  0  0  0  0  0  0
  190.9640  176.7530  146.1400 C   0  0  0  0  0  0  0  0  0  0  0  0
  191.9850  178.5060  143.2180 N   0  0  0  0  0  0  0  0  0  0  0  0
  191.4160  177.2170  144.8160 C   0  0  0  0  0  0  0  0  0  0  0  0
  191.6260  178.5020  144.4880 N   0  0  0  0  0  2  0  0  0  0  0  0
  192.0070  177.2740  142.7240 N   0  0  0  0  0  0  0  0  0  0  0  0
  191.6470  176.4290  143.7070 C   0  0  0  0  0  3  0  0  0  0  0  0
  186.1260  178.0530  146.0130 O   0  0  0  0  0  0  0  0  0  0  0  0
  184.1400  179.0030  145.5510 N   0  0  0  0  0  1  0  0  0  0  0  0
  185.0150  178.6300  146.5950 N   0  0  0  0  0  2  0  0  0  0  0  0
  1  6  2  0  0  0  0
  1  2  1  0  0  0  0
  2  5  2  0  0  0  0
  4  3  2  0  0  0  0
  5  3  1  0  0  0  0
  6  4  1  0  0  0  0
  7 10  1  0  0  0  0
  7  9  2  0  0  0  0
  8  1  1  1  0  0  0
  9  8  1  0  0  0  0
 10 11  2  0  0  0  0
 11  8  1  0  0  0  0
 13 12  1  6  0  0  0
 13  7  1  0  0  0  0
 14 13  1  0  0  0  0
 15 16  1  0  0  0  0
 15 18  1  0  0  0  0
 16 14  1  0  0  0  0
 17 15  2  0  0  0  0
 20 19  2  0  0  0  0
 20  2  1  0  0  0  0
 21 23  1  0  0  0  0
 22 20  1  0  0  0  0
 23 22  1  0  0  0  0
 24 21  2  0  0  0  0
 24 25  1  0  0  0  0
 25 22  2  0  0  0  0
 26 28  1  0  0  0  0
 26  6  1  0  0  0  0
 27 28  1  0  0  0  0
M  END
>  <MODEL>
5

>  <REMARK>
 VINA RESULT:      -7.3      3.594      4.561
  Name = 
  8 active torsions:
  status: ('A' for Active; 'I' for Inactive)
    1  A    between atoms: C_4  and  C_8
    2  A    between atoms: C_4  and  C_12
    3  A    between atoms: C_6  and  C_10
    4  A    between atoms: C_7  and  C_9
    5  A    between atoms: C_9  and  C_27
    6  A    between atoms: N_14  and  O_26
    7  A    between atoms: N_17  and  C_27
    8  A    between atoms: O_26  and  C_28
                            x       y       z     vdW  Elec       q    Type
                         _______ _______ _______ _____ _____    ______ ____

>  <TORSDO>
F 8

$$$$
=
 OpenBabel10222416563D

 28 30  0  0  1  0  0  0  0  0999 V2000
  188.5470  177.4860  145.6700 C   0  0  0  0  0  0  0  0  0  0  0  0
  189.5680  177.5120  146.6600 C   0  0  0  0  0  0  0  0  0  0  0  0
  187.9480  178.2090  148.3270 C   0  0  0  0  0  3  0  0  0  0  0  0
  186.9460  178.2230  147.3550 C   0  0  0  0  0  3  0  0  0  0  0  0
  189.2480  177.8650  147.9770 C   0  0  0  0  0  3  0  0  0  0  0  0
  187.2300  177.8850  146.0230 C   0  0  0  0  0  0  0  0  0  0  0  0
  187.8620  177.9480  142.4510 C   0  0  0  0  0  0  0  0  0  0  0  0
  188.9170  177.1700  144.2360 C   0  0  2  0  0  3  0  0  0  0  0  0
  188.6900  178.3270  143.3730 N   0  0  0  0  0  0  0  0  0  0  0  0
  187.4670  176.5790  142.5510 N   0  0  0  0  0  0  0  0  0  0  0  0
  188.0690  176.1030  143.5980 C   0  0  0  0  0  3  0  0  0  0  0  0
  187.7350  178.2500  139.9840 C   0  0  0  0  0  1  0  0  0  0  0  0
  187.3970  178.8540  141.3460 C   0  0  1  0  0  3  0  0  0  0  0  0
  185.8920  179.0890  141.4790 C   0  0  0  0  0  2  0  0  0  0  0  0
  183.9630  178.9980  139.8680 C   0  0  0  0  0  0  0  0  0  0  0  0
  185.3050  179.3780  140.1780 N   0  0  0  0  0  2  0  0  0  0  0  0
  183.5400  179.1160  138.6840 O   0  0  0  0  0  0  0  0  0  0  0  0
  183.1230  178.4920  140.8610 O   0  0  0  0  0  1  0  0  0  0  0  0
  191.4370  177.3620  145.1930 O   0  0  0  0  0  0  0  0  0  0  0  0
  190.9820  177.1670  146.3560 C   0  0  0  0  0  0  0  0  0  0  0  0
  193.0880  176.4080  149.1200 N   0  0  0  0  0  0  0  0  0  0  0  0
  191.8670  176.5920  147.3840 C   0  0  0  0  0  0  0  0  0  0  0  0
  192.2950  177.2450  148.4760 N   0  0  0  0  0  0  0  0  0  0  0  0
  193.1850  175.2500  148.4780 N   0  0  0  0  0  2  0  0  0  0  0  0
  192.4280  175.3300  147.3690 C   0  0  0  0  0  3  0  0  0  0  0  0
  186.2110  177.9620  145.0440 O   0  0  0  0  0  0  0  0  0  0  0  0
  184.0970  178.6570  145.3700 N   0  0  0  0  0  1  0  0  0  0  0  0
  185.3790  179.0560  144.9320 N   0  0  0  0  0  2  0  0  0  0  0  0
  1  6  2  0  0  0  0
  1  2  1  0  0  0  0
  2  5  2  0  0  0  0
  4  3  2  0  0  0  0
  5  3  1  0  0  0  0
  6  4  1  0  0  0  0
  7 10  1  0  0  0  0
  7  9  2  0  0  0  0
  8  1  1  1  0  0  0
  9  8  1  0  0  0  0
 10 11  2  0  0  0  0
 11  8  1  0  0  0  0
 13 12  1  6  0  0  0
 13 14  1  0  0  0  0
 13  7  1  0  0  0  0
 15 16  1  0  0  0  0
 15 18  1  0  0  0  0
 16 14  1  0  0  0  0
 17 15  2  0  0  0  0
 19 20  2  0  0  0  0
 20  2  1  0  0  0  0
 20 22  1  0  0  0  0
 22 23  1  0  0  0  0
 23 21  2  0  0  0  0
 24 21  1  0  0  0  0
 25 22  2  0  0  0  0
 25 24  1  0  0  0  0
 26  6  1  0  0  0  0
 28 26  1  0  0  0  0
 28 27  1  0  0  0  0
M  END
>  <MODEL>
6

>  <REMARK>
 VINA RESULT:      -7.3      3.075      4.052
  Name = 
  8 active torsions:
  status: ('A' for Active; 'I' for Inactive)
    1  A    between atoms: C_4  and  C_8
    2  A    between atoms: C_4  and  C_12
    3  A    between atoms: C_6  and  C_10
    4  A    between atoms: C_7  and  C_9
    5  A    between atoms: C_9  and  C_27
    6  A    between atoms: N_14  and  O_26
    7  A    between atoms: N_17  and  C_27
    8  A    between atoms: O_26  and  C_28
                            x       y       z     vdW  Elec       q    Type
                         _______ _______ _______ _____ _____    ______ ____

>  <TORSDO>
F 8

$$$$
=
 OpenBabel10222416563D

 28 30  0  0  1  0  0  0  0  0999 V2000
  189.3300  177.7710  141.3280 C   0  0  0  0  0  0  0  0  0  0  0  0
  189.8170  177.6310  139.9990 C   0  0  0  0  0  0  0  0  0  0  0  0
  187.6400  178.2530  139.1250 C   0  0  0  0  0  3  0  0  0  0  0  0
  187.1420  178.3570  140.4250 C   0  0  0  0  0  3  0  0  0  0  0  0
  188.9630  177.8840  138.9170 C   0  0  0  0  0  3  0  0  0  0  0  0
  187.9630  178.1020  141.5340 C   0  0  0  0  0  0  0  0  0  0  0  0
  189.6480  177.4630  144.6210 C   0  0  0  0  0  0  0  0  0  0  0  0
  190.2400  177.4290  142.4890 C   0  0  2  0  0  3  0  0  0  0  0  0
  189.4980  176.7510  143.5500 N   0  0  0  0  0  0  0  0  0  0  0  0
  190.4670  178.6200  144.4430 N   0  0  0  0  0  0  0  0  0  0  0  0
  190.8210  178.6240  143.1950 C   0  0  0  0  0  3  0  0  0  0  0  0
  190.1550  176.7560  146.9530 C   0  0  0  0  0  1  0  0  0  0  0  0
  189.0520  177.0810  145.9470 C   0  0  1  0  0  3  0  0  0  0  0  0
  188.1700  178.2210  146.4570 C   0  0  0  0  0  2  0  0  0  0  0  0
  185.7420  178.6730  146.9370 C   0  0  0  0  0  0  0  0  0  0  0  0
  186.7620  177.8610  146.3520 N   0  0  0  0  0  2  0  0  0  0  0  0
  184.5520  178.2510  146.9690 O   0  0  0  0  0  0  0  0  0  0  0  0
  186.0540  179.9210  147.4780 O   0  0  0  0  0  1  0  0  0  0  0  0
  192.1740  177.8430  140.2560 O   0  0  0  0  0  0  0  0  0  0  0  0
  191.2170  177.2300  139.7020 C   0  0  0  0  0  0  0  0  0  0  0  0
  191.2900  174.3840  137.5690 N   0  0  0  0  0  0  0  0  0  0  0  0
  191.5160  176.1320  138.7650 C   0  0  0  0  0  0  0  0  0  0  0  0
  190.6330  175.2000  138.3730 N   0  0  0  0  0  2  0  0  0  0  0  0
  192.5570  174.7580  137.4390 N   0  0  0  0  0  0  0  0  0  0  0  0
  192.7400  175.8610  138.1860 C   0  0  0  0  0  3  0  0  0  0  0  0
  187.4220  178.1580  142.8400 O   0  0  0  0  0  0  0  0  0  0  0  0
  185.3960  178.9970  143.3410 N   0  0  0  0  0  1  0  0  0  0  0  0
  186.1160  177.8040  143.1110 N   0  0  0  0  0  2  0  0  0  0  0  0
  1  6  1  0  0  0  0
  2  1  2  0  0  0  0
  3  4  1  0  0  0  0
  4  6  2  0  0  0  0
  5  3  2  0  0  0  0
  5  2  1  0  0  0  0
  6 26  1  0  0  0  0
  7 13  1  0  0  0  0
  8  1  1  6  0  0  0
  8 11  1  0  0  0  0
  8  9  1  0  0  0  0
  9  7  2  0  0  0  0
 10  7  1  0  0  0  0
 11 10  2  0  0  0  0
 13 14  1  0  0  0  0
 13 12  1  1  0  0  0
 15 17  2  0  0  0  0
 15 18  1  0  0  0  0
 16 14  1  0  0  0  0
 16 15  1  0  0  0  0
 20  2  1  0  0  0  0
 20 19  2  0  0  0  0
 21 23  1  0  0  0  0
 22 20  1  0  0  0  0
 23 22  1  0  0  0  0
 24 21  2  0  0  0  0
 24 25  1  0  0  0  0
 25 22  2  0  0  0  0
 26 28  1  0  0  0  0
 28 27  1  0  0  0  0
M  END
>  <MODEL>
7

>  <REMARK>
 VINA RESULT:      -7.3      2.446      7.088
  Name = 
  8 active torsions:
  status: ('A' for Active; 'I' for Inactive)
    1  A    between atoms: C_4  and  C_8
    2  A    between atoms: C_4  and  C_12
    3  A    between atoms: C_6  and  C_10
    4  A    between atoms: C_7  and  C_9
    5  A    between atoms: C_9  and  C_27
    6  A    between atoms: N_14  and  O_26
    7  A    between atoms: N_17  and  C_27
    8  A    between atoms: O_26  and  C_28
                            x       y       z     vdW  Elec       q    Type
                         _______ _______ _______ _____ _____    ______ ____

>  <TORSDO>
F 8

$$$$
=
 OpenBabel10222416563D

 28 30  0  0  1  0  0  0  0  0999 V2000
  188.9840  177.6520  144.6520 C   0  0  0  0  0  0  0  0  0  0  0  0
  190.1700  177.3730  145.3840 C   0  0  0  0  0  0  0  0  0  0  0  0
  191.5160  178.0900  143.4960 C   0  0  0  0  0  3  0  0  0  0  0  0
  190.3570  178.3300  142.7550 C   0  0  0  0  0  3  0  0  0  0  0  0
  191.4200  177.6070  144.7950 C   0  0  0  0  0  3  0  0  0  0  0  0
  189.0890  178.1000  143.3070 C   0  0  0  0  0  0  0  0  0  0  0  0
  185.6920  178.0930  144.5470 C   0  0  0  0  0  0  0  0  0  0  0  0
  187.6400  177.3320  145.2730 C   0  0  2  0  0  3  0  0  0  0  0  0
  186.6050  177.2250  144.2470 N   0  0  0  0  0  0  0  0  0  0  0  0
  185.9610  178.8320  145.7400 N   0  0  0  0  0  0  0  0  0  0  0  0
  187.1050  178.4060  146.1800 C   0  0  0  0  0  3  0  0  0  0  0  0
  183.4210  179.1110  144.5140 C   0  0  0  0  0  1  0  0  0  0  0  0
  184.4370  178.2730  143.7400 C   0  0  1  0  0  3  0  0  0  0  0  0
  184.7810  178.9320  142.4040 C   0  0  0  0  0  2  0  0  0  0  0  0
  184.2550  178.6340  139.9620 C   0  0  0  0  0  0  0  0  0  0  0  0
  184.2900  178.1230  141.2960 N   0  0  0  0  0  2  0  0  0  0  0  0
  183.6750  177.9710  139.0570 O   0  0  0  0  0  0  0  0  0  0  0  0
  184.8480  179.8600  139.6570 O   0  0  0  0  0  1  0  0  0  0  0  0
  189.0350  176.6490  147.3470 O   0  0  0  0  0  0  0  0  0  0  0  0
  190.1440  176.8460  146.7740 C   0  0  0  0  0  0  0  0  0  0  0  0
  193.0260  176.7360  148.8550 N   0  0  0  0  0  0  0  0  0  0  0  0
  191.3890  176.5510  147.5040 C   0  0  0  0  0  0  0  0  0  0  0  0
  191.8980  177.3130  148.4870 N   0  0  0  0  0  2  0  0  0  0  0  0
  193.2580  175.6400  148.1440 N   0  0  0  0  0  0  0  0  0  0  0  0
  192.2440  175.4920  147.2720 C   0  0  0  0  0  3  0  0  0  0  0  0
  187.9300  178.2970  142.5190 O   0  0  0  0  0  0  0  0  0  0  0  0
  188.2290  177.6290  140.3910 N   0  0  0  0  0  1  0  0  0  0  0  0
  187.9940  178.7510  141.2170 N   0  0  0  0  0  2  0  0  0  0  0  0
  1  2  1  0  0  0  0
  2 20  1  0  0  0  0
  3  5  1  0  0  0  0
  4  6  1  0  0  0  0
  4  3  2  0  0  0  0
  5  2  2  0  0  0  0
  6  1  2  0  0  0  0
  7 10  1  0  0  0  0
  8  1  1  6  0  0  0
  8 11  1  0  0  0  0
  9  7  2  0  0  0  0
  9  8  1  0  0  0  0
 10 11  2  0  0  0  0
 13 12  1  1  0  0  0
 13  7  1  0  0  0  0
 14 13  1  0  0  0  0
 15 16  1  0  0  0  0
 16 14  1  0  0  0  0
 17 15  2  0  0  0  0
 18 15  1  0  0  0  0
 20 19  2  0  0  0  0
 20 22  1  0  0  0  0
 22 23  1  0  0  0  0
 23 21  1  0  0  0  0
 24 21  2  0  0  0  0
 25 22  2  0  0  0  0
 25 24  1  0  0  0  0
 26  6  1  0  0  0  0
 27 28  1  0  0  0  0
 28 26  1  0  0  0  0
M  END
>  <MODEL>
8

>  <REMARK>
 VINA RESULT:      -7.2      3.143      4.925
  Name = 
  8 active torsions:
  status: ('A' for Active; 'I' for Inactive)
    1  A    between atoms: C_4  and  C_8
    2  A    between atoms: C_4  and  C_12
    3  A    between atoms: C_6  and  C_10
    4  A    between atoms: C_7  and  C_9
    5  A    between atoms: C_9  and  C_27
    6  A    between atoms: N_14  and  O_26
    7  A    between atoms: N_17  and  C_27
    8  A    between atoms: O_26  and  C_28
                            x       y       z     vdW  Elec       q    Type
                         _______ _______ _______ _____ _____    ______ ____

>  <TORSDO>
F 8

$$$$
=
 OpenBabel10222416563D

 28 30  0  0  1  0  0  0  0  0999 V2000
  189.6470  177.1020  139.1810 C   0  0  0  0  0  0  0  0  0  0  0  0
  189.8470  176.4990  137.9090 C   0  0  0  0  0  0  0  0  0  0  0  0
  188.0230  177.8090  136.9900 C   0  0  0  0  0  3  0  0  0  0  0  0
  187.7940  178.3790  138.2440 C   0  0  0  0  0  3  0  0  0  0  0  0
  189.0350  176.8710  136.8290 C   0  0  0  0  0  3  0  0  0  0  0  0
  188.5800  178.0250  139.3500 C   0  0  0  0  0  0  0  0  0  0  0  0
  190.4040  177.5110  142.3910 C   0  0  0  0  0  0  0  0  0  0  0  0
  190.4850  176.6420  140.3560 C   0  0  2  0  0  3  0  0  0  0  0  0
  189.7290  176.7360  141.6030 N   0  0  0  0  0  0  0  0  0  0  0  0
  191.6270  177.9910  141.8280 N   0  0  0  0  0  0  0  0  0  0  0  0
  191.6920  177.4990  140.6290 C   0  0  0  0  0  3  0  0  0  0  0  0
  189.0300  176.7550  144.3230 C   0  0  0  0  0  1  0  0  0  0  0  0
  189.9660  177.8380  143.7900 C   0  0  1  0  0  3  0  0  0  0  0  0
  191.1950  177.9840  144.6880 C   0  0  0  0  0  2  0  0  0  0  0  0
  191.6730  176.3320  146.5230 C   0  0  0  0  0  0  0  0  0  0  0  0
  191.6570  176.6780  145.1370 N   0  0  0  0  0  2  0  0  0  0  0  0
  192.2290  175.2590  146.8910 O   0  0  0  0  0  0  0  0  0  0  0  0
  191.0870  177.1730  147.4700 O   0  0  0  0  0  1  0  0  0  0  0  0
  190.6880  174.2730  137.9700 O   0  0  0  0  0  0  0  0  0  0  0  0
  190.9030  175.4810  137.6660 C   0  0  0  0  0  0  0  0  0  0  0  0
  193.7220  176.2900  135.6530 N   0  0  0  0  0  0  0  0  0  0  0  0
  192.2050  175.8520  137.0830 C   0  0  0  0  0  0  0  0  0  0  0  0
  192.4420  175.9890  135.7680 N   0  0  0  0  0  0  0  0  0  0  0  0
  194.3090  176.3460  136.8420 N   0  0  0  0  0  2  0  0  0  0  0  0
  193.3800  176.0690  137.7750 C   0  0  0  0  0  3  0  0  0  0  0  0
  188.2940  178.5720  140.6230 O   0  0  0  0  0  0  0  0  0  0  0  0
  186.6510  178.2990  142.1360 N   0  0  0  0  0  1  0  0  0  0  0  0
  187.0300  179.0030  140.9720 N   0  0  0  0  0  2  0  0  0  0  0  0
  1  6  1  0  0  0  0
  2  1  2  0  0  0  0
  3  4  1  0  0  0  0
  4  6  2  0  0  0  0
  5  3  2  0  0  0  0
  5  2  1  0  0  0  0
  6 26  1  0  0  0  0
  7 13  1  0  0  0  0
  8  1  1  6  0  0  0
  8 11  1  0  0  0  0
  8  9  1  0  0  0  0
  9  7  2  0  0  0  0
 10  7  1  0  0  0  0
 11 10  2  0  0  0  0
 13 12  1  1  0  0  0
 13 14  1  0  0  0  0
 14 16  1  0  0  0  0
 15 17  2  0  0  0  0
 15 18  1  0  0  0  0
 16 15  1  0  0  0  0
 20  2  1  0  0  0  0
 20 19  2  0  0  0  0
 21 23  2  0  0  0  0
 21 24  1  0  0  0  0
 22 20  1  0  0  0  0
 22 25  2  0  0  0  0
 23 22  1  0  0  0  0
 24 25  1  0  0  0  0
 26 28  1  0  0  0  0
 28 27  1  0  0  0  0
M  END
>  <MODEL>
9

>  <REMARK>
 VINA RESULT:      -7.1      2.006      7.236
  Name = 
  8 active torsions:
  status: ('A' for Active; 'I' for Inactive)
    1  A    between atoms: C_4  and  C_8
    2  A    between atoms: C_4  and  C_12
    3  A    between atoms: C_6  and  C_10
    4  A    between atoms: C_7  and  C_9
    5  A    between atoms: C_9  and  C_27
    6  A    between atoms: N_14  and  O_26
    7  A    between atoms: N_17  and  C_27
    8  A    between atoms: O_26  and  C_28
                            x       y       z     vdW  Elec       q    Type
                         _______ _______ _______ _____ _____    ______ ____

>  <TORSDO>
F 8

$$$$
