=
 OpenBabel10222420213D

 47 51  0  0  1  0  0  0  0  0999 V2000
  190.2470  176.4630  139.3610 C   0  0  0  0  0  0  0  0  0  0  0  0
  190.8540  176.3610  140.5150 N   0  0  0  0  0  0  0  0  0  0  0  0
  181.0240  176.3950  139.9550 N   0  0  0  0  0  1  0  0  0  0  0  0
  185.1690  178.5030  138.9750 C   0  0  0  0  0  0  0  0  0  0  0  0
  181.1540  177.6280  139.1960 C   0  0  1  0  0  3  0  0  0  0  0  0
  188.4910  177.4290  138.0270 N   0  0  0  0  0  0  0  0  0  0  0  0
  187.2370  178.1030  137.8460 C   0  0  0  0  0  0  0  0  0  0  0  0
  187.1940  178.4790  140.3180 C   0  0  0  0  0  0  0  0  0  0  0  0
  186.4680  178.4970  139.0310 C   0  0  0  0  0  0  0  0  0  0  0  0
  183.0340  178.9880  139.9680 C   0  0  0  0  0  3  0  0  0  0  0  0
  181.7810  178.6500  140.0510 N   0  0  0  0  0  0  0  0  0  0  0  0
  183.2280  177.6940  137.8250 C   0  0  0  0  0  3  0  0  0  0  0  0
  186.7800  178.2930  136.6800 O   0  0  0  0  0  0  0  0  0  0  0  0
  183.8730  178.4360  138.9090 C   0  0  0  0  0  0  0  0  0  0  0  0
  189.1300  177.4120  139.1680 C   0  0  0  0  0  0  0  0  0  0  0  0
  188.6750  178.2650  140.3250 C   0  0  0  0  0  2  0  0  0  0  0  0
  186.5880  178.6780  141.4810 C   0  0  0  0  0  2  0  0  0  0  0  0
  181.9400  177.3520  137.9320 C   0  0  0  0  0  3  0  0  0  0  0  0
  191.5530  177.0840  142.7500 C   0  0  1  0  0  3  0  0  0  0  0  0
  190.2660  178.8300  144.1490 C   0  0  0  0  0  2  0  0  0  0  0  0
  190.2910  176.2270  142.8670 C   0  0  2  0  0  3  0  0  0  0  0  0
  190.4860  177.1520  141.6840 C   0  0  2  0  0  3  0  0  0  0  0  0
  189.1160  176.7620  143.7120 C   0  0  0  0  0  2  0  0  0  0  0  0
  191.6080  178.3510  143.6140 C   0  0  0  0  0  2  0  0  0  0  0  0
  189.4870  177.7510  144.7400 N   0  0  0  0  0  0  0  0  0  0  0  0
  190.2220  177.1280  145.8420 C   0  0  0  0  0  2  0  0  0  0  0  0
  189.2770  176.7910  146.9700 C   0  0  0  0  0  2  0  0  0  0  0  0
  189.2370  177.9380  147.9540 C   0  0  0  0  0  2  0  0  0  0  0  0
  187.8030  178.2320  148.3240 C   0  0  0  0  0  2  0  0  0  0  0  0
  186.8890  177.9290  147.1460 C   0  0  0  0  0  2  0  0  0  0  0  0
  185.8910  179.0540  146.9030 C   0  0  0  0  0  2  0  0  0  0  0  0
  184.9270  178.7000  145.7820 C   0  0  0  0  0  2  0  0  0  0  0  0
  185.1650  179.5050  144.6700 O   0  0  0  0  0  0  0  0  0  0  0  0
  183.9340  179.6180  144.0270 C   0  0  0  0  0  2  0  0  0  0  0  0
  182.9720  178.7360  144.6720 N   0  0  0  0  0  1  0  0  0  0  0  0
  190.7070  175.6360  138.2020 C   0  0  1  0  0  3  0  0  0  0  0  0
  191.4470  176.4480  137.2370 C   0  0  0  0  0  2  0  0  0  0  0  0
  192.1740  175.6270  138.2000 N   0  0  0  0  0  0  0  0  0  0  0  0
  192.5980  174.4180  137.4990 C   0  0  0  0  0  2  0  0  0  0  0  0
  193.7190  174.7480  136.5260 C   0  0  2  0  0  3  0  0  0  0  0  0
  193.6770  173.9140  135.4150 F   0  0  0  0  0  0  0  0  0  0  0  0
  195.0550  174.7100  137.2020 C   0  0  0  0  0  0  0  0  0  0  0  0
  195.9880  175.3310  136.7190 O   0  0  0  0  0  0  0  0  0  0  0  0
  195.2750  173.8430  138.4120 C   0  0  1  0  0  3  0  0  0  0  0  0
  195.6530  172.4340  137.9990 C   0  0  0  0  0  1  0  0  0  0  0  0
  196.3350  174.4250  139.3570 C   0  0  0  0  0  2  0  0  0  0  0  0
  195.7830  175.4320  140.1580 O   0  0  0  0  0  1  0  0  0  0  0  0
  1  2  2  0  0  0  0
  4  9  2  0  0  0  0
  5  3  1  1  0  0  0
  5 11  1  0  0  0  0
  6 15  2  0  0  0  0
  7  6  1  0  0  0  0
  7  9  1  0  0  0  0
  8 16  1  0  0  0  0
  8 17  2  0  0  0  0
  9  8  1  0  0  0  0
 10 11  2  0  0  0  0
 12 18  2  0  0  0  0
 12 14  1  0  0  0  0
 13  7  2  0  0  0  0
 14  4  2  0  0  0  0
 14 10  1  0  0  0  0
 15  1  1  0  0  0  0
 15 16  1  0  0  0  0
 18  5  1  0  0  0  0
 19 21  1  0  0  0  0
 19 24  1  1  0  0  0
 20 25  1  0  0  0  0
 21 23  1  1  0  0  0
 22  2  1  6  0  0  0
 22 19  1  0  0  0  0
 22 21  1  0  0  0  0
 23 25  1  0  0  0  0
 24 20  1  0  0  0  0
 25 26  1  0  0  0  0
 26 27  1  0  0  0  0
 27 28  1  0  0  0  0
 28 29  1  0  0  0  0
 30 29  1  0  0  0  0
 31 30  1  0  0  0  0
 32 31  1  0  0  0  0
 33 32  1  0  0  0  0
 34 33  1  0  0  0  0
 34 35  1  0  0  0  0
 36  1  1  1  0  0  0
 37 38  1  0  0  0  0
 37 36  1  0  0  0  0
 38 36  1  0  0  0  0
 39 38  1  0  0  0  0
 40 41  1  6  0  0  0
 40 42  1  0  0  0  0
 40 39  1  0  0  0  0
 42 44  1  0  0  0  0
 43 42  2  0  0  0  0
 44 45  1  6  0  0  0
 44 46  1  0  0  0  0
 46 47  1  0  0  0  0
M  END
>  <MODEL>
1

>  <REMARK>
 VINA RESULT:      -8.3      0.000      0.000
  Name = 
  17 active torsions:
  status: ('A' for Active; 'I' for Inactive)
    1  A    between atoms: C_2  and  C_10
    2  A    between atoms: C_2  and  C_13
    3  A    between atoms: C_4  and  C_26
    4  A    between atoms: C_4  and  C_33
    5  A    between atoms: C_9  and  C_17
    6  A    between atoms: C_10  and  C_31
    7  A    between atoms: C_13  and  C_27
    8  A    between atoms: C_17  and  C_34
    9  A    between atoms: C_18  and  C_19
   10  A    between atoms: C_18  and  N_46
   11  A    between atoms: C_19  and  C_27
   12  A    between atoms: C_23  and  O_44
   13  A    between atoms: C_24  and  C_36
   14  A    between atoms: C_26  and  C_36
   15  A    between atoms: N_30  and  C_37
   16  A    between atoms: C_31  and  O_44
   17  A    between atoms: C_33  and  N_40
                            x       y       z     vdW  Elec       q    Type
                         _______ _______ _______ _____ _____    ______ ____

>  <TORSDO>
F 17

$$$$
=
 OpenBabel10222420213D

 47 51  0  0  1  0  0  0  0  0999 V2000
  190.4580  176.8270  139.1510 C   0  0  0  0  0  0  0  0  0  0  0  0
  191.0410  176.6820  140.3130 N   0  0  0  0  0  0  0  0  0  0  0  0
  181.2880  175.7850  139.6310 N   0  0  0  0  0  1  0  0  0  0  0  0
  185.2020  178.3600  138.8300 C   0  0  0  0  0  0  0  0  0  0  0  0
  181.2950  177.0690  138.9490 C   0  0  1  0  0  3  0  0  0  0  0  0
  188.6210  177.6890  137.8570 N   0  0  0  0  0  0  0  0  0  0  0  0
  187.3060  178.2420  137.7020 C   0  0  0  0  0  0  0  0  0  0  0  0
  187.2100  178.4590  140.1930 C   0  0  0  0  0  0  0  0  0  0  0  0
  186.4940  178.4820  138.9000 C   0  0  0  0  0  0  0  0  0  0  0  0
  183.0220  178.5640  139.8240 C   0  0  0  0  0  3  0  0  0  0  0  0
  181.8100  178.0960  139.8720 N   0  0  0  0  0  0  0  0  0  0  0  0
  183.3590  177.4300  137.6100 C   0  0  0  0  0  3  0  0  0  0  0  0
  186.8390  178.4550  136.5450 O   0  0  0  0  0  0  0  0  0  0  0  0
  183.9200  178.1660  138.7430 C   0  0  0  0  0  0  0  0  0  0  0  0
  189.2520  177.6670  139.0030 C   0  0  0  0  0  0  0  0  0  0  0  0
  188.7050  178.3970  140.2040 C   0  0  0  0  0  2  0  0  0  0  0  0
  186.5810  178.5240  141.3580 C   0  0  0  0  0  2  0  0  0  0  0  0
  182.1130  176.9530  137.6800 C   0  0  0  0  0  3  0  0  0  0  0  0
  191.6570  177.4310  142.5650 C   0  0  1  0  0  3  0  0  0  0  0  0
  190.0820  178.7900  144.0930 C   0  0  0  0  0  2  0  0  0  0  0  0
  190.6120  176.3180  142.6690 C   0  0  2  0  0  3  0  0  0  0  0  0
  190.5590  177.3190  141.5340 C   0  0  2  0  0  3  0  0  0  0  0  0
  189.3840  176.5460  143.5750 C   0  0  0  0  0  2  0  0  0  0  0  0
  191.4730  178.6380  143.4950 C   0  0  0  0  0  2  0  0  0  0  0  0
  189.5750  177.5410  144.6460 N   0  0  0  0  0  0  0  0  0  0  0  0
  190.4690  177.0400  145.6900 C   0  0  0  0  0  2  0  0  0  0  0  0
  189.6650  176.5790  146.8820 C   0  0  0  0  0  2  0  0  0  0  0  0
  189.3910  177.7570  147.7910 C   0  0  0  0  0  2  0  0  0  0  0  0
  187.9540  177.7110  148.2510 C   0  0  0  0  0  2  0  0  0  0  0  0
  187.0990  178.6220  147.3820 C   0  0  0  0  0  2  0  0  0  0  0  0
  186.1750  177.8250  146.4700 C   0  0  0  0  0  2  0  0  0  0  0  0
  185.0600  178.7000  145.9210 C   0  0  0  0  0  2  0  0  0  0  0  0
  185.0280  178.6220  144.5290 O   0  0  0  0  0  0  0  0  0  0  0  0
  184.0050  179.4820  144.1360 C   0  0  0  0  0  2  0  0  0  0  0  0
  182.7290  178.7890  144.2330 N   0  0  0  0  0  1  0  0  0  0  0  0
  191.0360  176.1630  137.9410 C   0  0  1  0  0  3  0  0  0  0  0  0
  192.1790  175.3240  138.2960 C   0  0  0  0  0  2  0  0  0  0  0  0
  190.8700  174.7130  138.0910 N   0  0  0  0  0  0  0  0  0  0  0  0
  190.8710  174.1380  136.7490 C   0  0  0  0  0  2  0  0  0  0  0  0
  189.5510  173.4270  136.4870 C   0  0  2  0  0  3  0  0  0  0  0  0
  189.6890  172.4750  135.4850 F   0  0  0  0  0  0  0  0  0  0  0  0
  188.4580  174.4040  136.1830 C   0  0  0  0  0  0  0  0  0  0  0  0
  188.6620  175.2980  135.3790 O   0  0  0  0  0  0  0  0  0  0  0  0
  187.1510  174.3450  136.9270 C   0  0  1  0  0  3  0  0  0  0  0  0
  186.0740  175.1050  136.1780 C   0  0  0  0  0  1  0  0  0  0  0  0
  186.7000  172.9020  137.1920 C   0  0  0  0  0  2  0  0  0  0  0  0
  185.6500  172.8760  138.1170 O   0  0  0  0  0  1  0  0  0  0  0  0
  1  2  2  0  0  0  0
  4  9  2  0  0  0  0
  5  3  1  1  0  0  0
  5 11  1  0  0  0  0
  6 15  2  0  0  0  0
  7  6  1  0  0  0  0
  7  9  1  0  0  0  0
  8 16  1  0  0  0  0
  8 17  2  0  0  0  0
  9  8  1  0  0  0  0
 10 11  2  0  0  0  0
 12 18  2  0  0  0  0
 12 14  1  0  0  0  0
 13  7  2  0  0  0  0
 14  4  2  0  0  0  0
 14 10  1  0  0  0  0
 15  1  1  0  0  0  0
 15 16  1  0  0  0  0
 18  5  1  0  0  0  0
 19 21  1  0  0  0  0
 19 24  1  1  0  0  0
 20 25  1  0  0  0  0
 21 23  1  1  0  0  0
 22  2  1  6  0  0  0
 22 19  1  0  0  0  0
 22 21  1  0  0  0  0
 23 25  1  0  0  0  0
 24 20  1  0  0  0  0
 25 26  1  0  0  0  0
 26 27  1  0  0  0  0
 27 28  1  0  0  0  0
 28 29  1  0  0  0  0
 30 29  1  0  0  0  0
 31 30  1  0  0  0  0
 32 31  1  0  0  0  0
 33 32  1  0  0  0  0
 34 35  1  0  0  0  0
 34 33  1  0  0  0  0
 36 38  1  0  0  0  0
 36 37  1  0  0  0  0
 36  1  1  1  0  0  0
 38 37  1  0  0  0  0
 39 38  1  0  0  0  0
 40 41  1  6  0  0  0
 40 39  1  0  0  0  0
 42 40  1  0  0  0  0
 42 44  1  0  0  0  0
 43 42  2  0  0  0  0
 44 45  1  6  0  0  0
 44 46  1  0  0  0  0
 46 47  1  0  0  0  0
M  END
>  <MODEL>
2

>  <REMARK>
 VINA RESULT:      -8.1      2.199      3.385
  Name = 
  17 active torsions:
  status: ('A' for Active; 'I' for Inactive)
    1  A    between atoms: C_2  and  C_10
    2  A    between atoms: C_2  and  C_13
    3  A    between atoms: C_4  and  C_26
    4  A    between atoms: C_4  and  C_33
    5  A    between atoms: C_9  and  C_17
    6  A    between atoms: C_10  and  C_31
    7  A    between atoms: C_13  and  C_27
    8  A    between atoms: C_17  and  C_34
    9  A    between atoms: C_18  and  C_19
   10  A    between atoms: C_18  and  N_46
   11  A    between atoms: C_19  and  C_27
   12  A    between atoms: C_23  and  O_44
   13  A    between atoms: C_24  and  C_36
   14  A    between atoms: C_26  and  C_36
   15  A    between atoms: N_30  and  C_37
   16  A    between atoms: C_31  and  O_44
   17  A    between atoms: C_33  and  N_40
                            x       y       z     vdW  Elec       q    Type
                         _______ _______ _______ _____ _____    ______ ____

>  <TORSDO>
F 17

$$$$
=
 OpenBabel10222420213D

 47 51  0  0  1  0  0  0  0  0999 V2000
  189.0650  177.4070  139.3120 C   0  0  0  0  0  0  0  0  0  0  0  0
  188.8810  177.5140  140.6020 N   0  0  0  0  0  0  0  0  0  0  0  0
  180.2460  174.6470  139.4720 N   0  0  0  0  0  1  0  0  0  0  0  0
  184.0810  176.3800  137.2640 C   0  0  0  0  0  0  0  0  0  0  0  0
  180.3940  174.7190  138.0270 C   0  0  1  0  0  3  0  0  0  0  0  0
  187.6640  176.2370  137.7420 N   0  0  0  0  0  0  0  0  0  0  0  0
  186.4310  176.0020  137.0470 C   0  0  0  0  0  0  0  0  0  0  0  0
  185.5740  178.1290  138.0480 C   0  0  0  0  0  0  0  0  0  0  0  0
  185.2830  176.8710  137.3280 C   0  0  0  0  0  0  0  0  0  0  0  0
  181.6950  176.6700  137.3330 C   0  0  0  0  0  3  0  0  0  0  0  0
  180.5510  176.1300  137.6340 N   0  0  0  0  0  0  0  0  0  0  0  0
  182.7450  174.3900  137.2880 C   0  0  0  0  0  3  0  0  0  0  0  0
  186.3260  175.0210  136.2530 O   0  0  0  0  0  0  0  0  0  0  0  0
  182.8970  175.8440  137.2540 C   0  0  0  0  0  0  0  0  0  0  0  0
  187.9180  177.3490  138.3810 C   0  0  0  0  0  0  0  0  0  0  0  0
  186.9970  178.5380  138.2670 C   0  0  0  0  0  2  0  0  0  0  0  0
  184.6190  178.9370  138.4870 C   0  0  0  0  0  2  0  0  0  0  0  0
  181.5610  173.8550  137.6040 C   0  0  0  0  0  3  0  0  0  0  0  0
  187.2830  178.9550  141.7760 C   0  0  1  0  0  3  0  0  0  0  0  0
  184.8710  178.2370  142.3470 C   0  0  0  0  0  2  0  0  0  0  0  0
  187.7200  177.8220  142.7060 C   0  0  2  0  0  3  0  0  0  0  0  0
  187.5610  177.5800  141.2200 C   0  0  2  0  0  3  0  0  0  0  0  0
  186.6310  177.0200  143.4480 C   0  0  0  0  0  2  0  0  0  0  0  0
  185.7880  179.3040  141.7700 C   0  0  0  0  0  2  0  0  0  0  0  0
  185.3480  177.7250  143.6240 N   0  0  0  0  0  0  0  0  0  0  0  0
  185.4620  178.8060  144.6030 C   0  0  0  0  0  2  0  0  0  0  0  0
  185.3030  178.2580  146.0010 C   0  0  0  0  0  2  0  0  0  0  0  0
  186.3350  178.8900  146.9100 C   0  0  0  0  0  2  0  0  0  0  0  0
  187.3660  177.8550  147.2910 C   0  0  0  0  0  2  0  0  0  0  0  0
  188.4240  177.7470  146.2030 C   0  0  0  0  0  2  0  0  0  0  0  0
  189.6590  177.0000  146.6900 C   0  0  0  0  0  2  0  0  0  0  0  0
  190.8100  177.1460  145.7090 C   0  0  0  0  0  2  0  0  0  0  0  0
  192.0250  176.9210  146.3540 O   0  0  0  0  0  0  0  0  0  0  0  0
  191.7270  176.0620  147.4100 C   0  0  0  0  0  2  0  0  0  0  0  0
  192.8680  175.9930  148.3110 N   0  0  0  0  0  1  0  0  0  0  0  0
  190.4540  177.3770  138.7570 C   0  0  1  0  0  3  0  0  0  0  0  0
  191.4260  177.0260  139.7920 C   0  0  0  0  0  2  0  0  0  0  0  0
  190.9590  176.0030  138.8610 N   0  0  0  0  0  0  0  0  0  0  0  0
  191.9940  175.8450  137.8430 C   0  0  0  0  0  2  0  0  0  0  0  0
  191.7540  174.5670  137.0530 C   0  0  2  0  0  3  0  0  0  0  0  0
  190.7490  173.8030  137.6350 F   0  0  0  0  0  0  0  0  0  0  0  0
  193.0210  173.7860  136.8840 C   0  0  0  0  0  0  0  0  0  0  0  0
  192.9810  172.6880  136.3540 O   0  0  0  0  0  0  0  0  0  0  0  0
  194.3180  174.3030  137.4450 C   0  0  1  0  0  3  0  0  0  0  0  0
  194.9480  173.2790  138.3690 C   0  0  0  0  0  1  0  0  0  0  0  0
  195.3060  174.7060  136.3420 C   0  0  0  0  0  2  0  0  0  0  0  0
  195.3710  176.0990  136.2220 O   0  0  0  0  0  1  0  0  0  0  0  0
  1  2  2  0  0  0  0
  4  9  2  0  0  0  0
  5  3  1  1  0  0  0
  6 15  2  0  0  0  0
  7  9  1  0  0  0  0
  7  6  1  0  0  0  0
  8 16  1  0  0  0  0
  8 17  2  0  0  0  0
  9  8  1  0  0  0  0
 10 11  2  0  0  0  0
 11  5  1  0  0  0  0
 12 18  2  0  0  0  0
 13  7  2  0  0  0  0
 14  4  2  0  0  0  0
 14 12  1  0  0  0  0
 14 10  1  0  0  0  0
 15  1  1  0  0  0  0
 16 15  1  0  0  0  0
 18  5  1  0  0  0  0
 19 24  1  1  0  0  0
 19 21  1  0  0  0  0
 20 25  1  0  0  0  0
 21 23  1  1  0  0  0
 22  2  1  6  0  0  0
 22 19  1  0  0  0  0
 22 21  1  0  0  0  0
 23 25  1  0  0  0  0
 24 20  1  0  0  0  0
 25 26  1  0  0  0  0
 26 27  1  0  0  0  0
 27 28  1  0  0  0  0
 28 29  1  0  0  0  0
 30 31  1  0  0  0  0
 30 29  1  0  0  0  0
 32 33  1  0  0  0  0
 32 31  1  0  0  0  0
 33 34  1  0  0  0  0
 34 35  1  0  0  0  0
 36 38  1  0  0  0  0
 36  1  1  1  0  0  0
 36 37  1  0  0  0  0
 38 37  1  0  0  0  0
 39 38  1  0  0  0  0
 40 41  1  1  0  0  0
 40 39  1  0  0  0  0
 42 40  1  0  0  0  0
 42 44  1  0  0  0  0
 43 42  2  0  0  0  0
 44 45  1  6  0  0  0
 46 44  1  0  0  0  0
 47 46  1  0  0  0  0
M  END
>  <MODEL>
3

>  <REMARK>
 VINA RESULT:      -7.7      2.264      3.981
  Name = 
  17 active torsions:
  status: ('A' for Active; 'I' for Inactive)
    1  A    between atoms: C_2  and  C_10
    2  A    between atoms: C_2  and  C_13
    3  A    between atoms: C_4  and  C_26
    4  A    between atoms: C_4  and  C_33
    5  A    between atoms: C_9  and  C_17
    6  A    between atoms: C_10  and  C_31
    7  A    between atoms: C_13  and  C_27
    8  A    between atoms: C_17  and  C_34
    9  A    between atoms: C_18  and  C_19
   10  A    between atoms: C_18  and  N_46
   11  A    between atoms: C_19  and  C_27
   12  A    between atoms: C_23  and  O_44
   13  A    between atoms: C_24  and  C_36
   14  A    between atoms: C_26  and  C_36
   15  A    between atoms: N_30  and  C_37
   16  A    between atoms: C_31  and  O_44
   17  A    between atoms: C_33  and  N_40
                            x       y       z     vdW  Elec       q    Type
                         _______ _______ _______ _____ _____    ______ ____

>  <TORSDO>
F 17

$$$$
=
 OpenBabel10222420213D

 47 51  0  0  1  0  0  0  0  0999 V2000
  191.2800  176.7050  138.5500 C   0  0  0  0  0  0  0  0  0  0  0  0
  191.1450  176.8320  139.8450 N   0  0  0  0  0  0  0  0  0  0  0  0
  182.0850  176.3620  139.4190 N   0  0  0  0  0  1  0  0  0  0  0  0
  186.0820  176.2880  136.8480 C   0  0  0  0  0  0  0  0  0  0  0  0
  182.1600  175.9130  138.0380 C   0  0  1  0  0  3  0  0  0  0  0  0
  189.5540  175.4540  137.4320 N   0  0  0  0  0  0  0  0  0  0  0  0
  188.2610  175.3060  136.8280 C   0  0  0  0  0  0  0  0  0  0  0  0
  187.9870  177.7840  137.0340 C   0  0  0  0  0  0  0  0  0  0  0  0
  187.3670  176.4680  136.7730 C   0  0  0  0  0  0  0  0  0  0  0  0
  183.8390  177.1490  136.7590 C   0  0  0  0  0  3  0  0  0  0  0  0
  182.6200  177.0320  137.1970 N   0  0  0  0  0  0  0  0  0  0  0  0
  184.3200  174.8020  137.5090 C   0  0  0  0  0  3  0  0  0  0  0  0
  187.8820  174.1720  136.4080 O   0  0  0  0  0  0  0  0  0  0  0  0
  184.8070  176.0810  136.9910 C   0  0  0  0  0  0  0  0  0  0  0  0
  190.0990  176.6200  137.6660 C   0  0  0  0  0  0  0  0  0  0  0  0
  189.4760  177.8880  137.1370 C   0  0  0  0  0  2  0  0  0  0  0  0
  187.2750  178.8970  137.1530 C   0  0  0  0  0  2  0  0  0  0  0  0
  183.0650  174.7030  137.9580 C   0  0  0  0  0  3  0  0  0  0  0  0
  189.6540  178.2170  141.2120 C   0  0  1  0  0  3  0  0  0  0  0  0
  187.2290  177.5510  141.7940 C   0  0  0  0  0  2  0  0  0  0  0  0
  190.0650  176.9770  142.0080 C   0  0  2  0  0  3  0  0  0  0  0  0
  189.8490  176.8930  140.5120 C   0  0  2  0  0  3  0  0  0  0  0  0
  188.9620  176.1520  142.7050 C   0  0  0  0  0  2  0  0  0  0  0  0
  188.1780  178.6300  141.2940 C   0  0  0  0  0  2  0  0  0  0  0  0
  187.7210  176.8920  142.9960 N   0  0  0  0  0  0  0  0  0  0  0  0
  187.9160  177.8630  144.0730 C   0  0  0  0  0  2  0  0  0  0  0  0
  186.6100  178.1110  144.7900 C   0  0  0  0  0  2  0  0  0  0  0  0
  186.5820  177.3150  146.0760 C   0  0  0  0  0  2  0  0  0  0  0  0
  186.9380  178.2200  147.2320 C   0  0  0  0  0  2  0  0  0  0  0  0
  187.8840  177.5020  148.1830 C   0  0  0  0  0  2  0  0  0  0  0  0
  189.2780  178.1150  148.1600 C   0  0  0  0  0  2  0  0  0  0  0  0
  190.2950  177.1430  147.5860 C   0  0  0  0  0  2  0  0  0  0  0  0
  190.1840  177.0930  146.1980 O   0  0  0  0  0  0  0  0  0  0  0  0
  191.4530  176.7460  145.7390 C   0  0  0  0  0  2  0  0  0  0  0  0
  192.2450  176.2390  146.8500 N   0  0  0  0  0  1  0  0  0  0  0  0
  192.6470  176.6820  137.9430 C   0  0  1  0  0  3  0  0  0  0  0  0
  193.6700  176.4360  138.9580 C   0  0  0  0  0  2  0  0  0  0  0  0
  193.2030  175.3360  138.1200 N   0  0  0  0  0  0  0  0  0  0  0  0
  194.2020  175.1410  137.0730 C   0  0  0  0  0  2  0  0  0  0  0  0
  194.6120  173.6760  137.0130 C   0  0  2  0  0  3  0  0  0  0  0  0
  193.5330  172.8460  137.2870 F   0  0  0  0  0  0  0  0  0  0  0  0
  195.7740  173.3990  137.9180 C   0  0  0  0  0  0  0  0  0  0  0  0
  195.5980  173.3720  139.1250 O   0  0  0  0  0  0  0  0  0  0  0  0
  197.1610  173.2480  137.3560 C   0  0  1  0  0  3  0  0  0  0  0  0
  197.1430  172.3790  136.1130 C   0  0  0  0  0  1  0  0  0  0  0  0
  197.8140  174.6030  137.0500 C   0  0  0  0  0  2  0  0  0  0  0  0
  197.9300  175.3680  138.2170 O   0  0  0  0  0  1  0  0  0  0  0  0
  1  2  2  0  0  0  0
  4 14  2  0  0  0  0
  5  3  1  1  0  0  0
  6 15  2  0  0  0  0
  7  6  1  0  0  0  0
  8 16  1  0  0  0  0
  8 17  2  0  0  0  0
  9  7  1  0  0  0  0
  9  4  2  0  0  0  0
  9  8  1  0  0  0  0
 10 14  1  0  0  0  0
 10 11  2  0  0  0  0
 11  5  1  0  0  0  0
 12 18  2  0  0  0  0
 13  7  2  0  0  0  0
 14 12  1  0  0  0  0
 15  1  1  0  0  0  0
 16 15  1  0  0  0  0
 18  5  1  0  0  0  0
 19 24  1  1  0  0  0
 19 21  1  0  0  0  0
 20 25  1  0  0  0  0
 21 23  1  1  0  0  0
 22  2  1  6  0  0  0
 22 19  1  0  0  0  0
 22 21  1  0  0  0  0
 23 25  1  0  0  0  0
 24 20  1  0  0  0  0
 25 26  1  0  0  0  0
 26 27  1  0  0  0  0
 27 28  1  0  0  0  0
 28 29  1  0  0  0  0
 29 30  1  0  0  0  0
 31 30  1  0  0  0  0
 32 31  1  0  0  0  0
 33 32  1  0  0  0  0
 34 33  1  0  0  0  0
 34 35  1  0  0  0  0
 36 38  1  0  0  0  0
 36  1  1  1  0  0  0
 36 37  1  0  0  0  0
 38 37  1  0  0  0  0
 39 38  1  0  0  0  0
 40 39  1  0  0  0  0
 40 41  1  1  0  0  0
 40 42  1  0  0  0  0
 42 43  2  0  0  0  0
 44 45  1  6  0  0  0
 44 42  1  0  0  0  0
 46 44  1  0  0  0  0
 46 47  1  0  0  0  0
M  END
>  <MODEL>
4

>  <REMARK>
 VINA RESULT:      -7.7      2.175      3.460
  Name = 
  17 active torsions:
  status: ('A' for Active; 'I' for Inactive)
    1  A    between atoms: C_2  and  C_10
    2  A    between atoms: C_2  and  C_13
    3  A    between atoms: C_4  and  C_26
    4  A    between atoms: C_4  and  C_33
    5  A    between atoms: C_9  and  C_17
    6  A    between atoms: C_10  and  C_31
    7  A    between atoms: C_13  and  C_27
    8  A    between atoms: C_17  and  C_34
    9  A    between atoms: C_18  and  C_19
   10  A    between atoms: C_18  and  N_46
   11  A    between atoms: C_19  and  C_27
   12  A    between atoms: C_23  and  O_44
   13  A    between atoms: C_24  and  C_36
   14  A    between atoms: C_26  and  C_36
   15  A    between atoms: N_30  and  C_37
   16  A    between atoms: C_31  and  O_44
   17  A    between atoms: C_33  and  N_40
                            x       y       z     vdW  Elec       q    Type
                         _______ _______ _______ _____ _____    ______ ____

>  <TORSDO>
F 17

$$$$
=
 OpenBabel10222420213D

 47 51  0  0  1  0  0  0  0  0999 V2000
  190.9940  176.5500  138.1060 C   0  0  0  0  0  0  0  0  0  0  0  0
  191.0510  176.7340  139.3990 N   0  0  0  0  0  0  0  0  0  0  0  0
  182.0360  177.5900  140.1290 N   0  0  0  0  0  1  0  0  0  0  0  0
  185.5920  176.5360  137.1560 C   0  0  0  0  0  0  0  0  0  0  0  0
  181.8630  176.9000  138.8610 C   0  0  1  0  0  3  0  0  0  0  0  0
  189.0000  175.3640  137.4640 N   0  0  0  0  0  0  0  0  0  0  0  0
  187.6250  175.2850  137.0600 C   0  0  0  0  0  0  0  0  0  0  0  0
  187.6540  177.7750  136.8210 C   0  0  0  0  0  0  0  0  0  0  0  0
  186.8640  176.5280  136.8930 C   0  0  0  0  0  0  0  0  0  0  0  0
  183.4660  177.6600  137.1760 C   0  0  0  0  0  3  0  0  0  0  0  0
  182.3160  177.7840  137.7720 N   0  0  0  0  0  0  0  0  0  0  0  0
  183.7920  175.4360  138.2960 C   0  0  0  0  0  3  0  0  0  0  0  0
  187.0700  174.1560  136.9140 O   0  0  0  0  0  0  0  0  0  0  0  0
  184.3350  176.5290  137.4890 C   0  0  0  0  0  0  0  0  0  0  0  0
  189.6960  176.4690  137.4030 C   0  0  0  0  0  0  0  0  0  0  0  0
  189.1460  177.6970  136.7210 C   0  0  0  0  0  2  0  0  0  0  0  0
  187.0920  178.9760  136.8100 C   0  0  0  0  0  2  0  0  0  0  0  0
  182.6110  175.5850  138.9040 C   0  0  0  0  0  3  0  0  0  0  0  0
  189.8920  178.1560  141.0260 C   0  0  1  0  0  3  0  0  0  0  0  0
  187.5140  177.6700  141.9020 C   0  0  0  0  0  2  0  0  0  0  0  0
  190.2850  176.8380  141.6950 C   0  0  2  0  0  3  0  0  0  0  0  0
  189.8660  176.8670  140.2410 C   0  0  2  0  0  3  0  0  0  0  0  0
  189.2120  176.0710  142.4950 C   0  0  0  0  0  2  0  0  0  0  0  0
  188.4860  178.6910  141.3310 C   0  0  0  0  0  2  0  0  0  0  0  0
  188.0960  176.8970  142.9910 N   0  0  0  0  0  0  0  0  0  0  0  0
  188.5230  177.7780  144.0780 C   0  0  0  0  0  2  0  0  0  0  0  0
  188.6000  177.0050  145.3720 C   0  0  0  0  0  2  0  0  0  0  0  0
  189.3470  177.8200  146.4030 C   0  0  0  0  0  2  0  0  0  0  0  0
  188.4800  177.9980  147.6260 C   0  0  0  0  0  2  0  0  0  0  0  0
  187.0370  177.6460  147.2970 C   0  0  0  0  0  2  0  0  0  0  0  0
  186.1490  178.8840  147.2620 C   0  0  0  0  0  2  0  0  0  0  0  0
  185.4230  179.0000  145.9310 C   0  0  0  0  0  2  0  0  0  0  0  0
  184.0460  178.9110  146.1250 O   0  0  0  0  0  0  0  0  0  0  0  0
  183.4900  178.9730  144.8480 C   0  0  0  0  0  2  0  0  0  0  0  0
  184.5030  178.6170  143.8650 N   0  0  0  0  0  1  0  0  0  0  0  0
  192.2580  176.4550  137.3110 C   0  0  1  0  0  3  0  0  0  0  0  0
  193.3560  175.9410  138.1280 C   0  0  0  0  0  2  0  0  0  0  0  0
  192.6410  175.0410  137.2280 N   0  0  0  0  0  0  0  0  0  0  0  0
  193.4660  174.8870  136.0330 C   0  0  0  0  0  2  0  0  0  0  0  0
  193.9210  173.4410  135.9000 C   0  0  2  0  0  3  0  0  0  0  0  0
  193.2540  172.6230  136.8030 F   0  0  0  0  0  0  0  0  0  0  0  0
  195.4090  173.3240  136.0350 C   0  0  0  0  0  0  0  0  0  0  0  0
  196.0130  172.5370  135.3260 O   0  0  0  0  0  0  0  0  0  0  0  0
  196.1430  174.0990  137.0960 C   0  0  1  0  0  3  0  0  0  0  0  0
  196.1210  173.3510  138.4150 C   0  0  0  0  0  1  0  0  0  0  0  0
  197.5870  174.4170  136.6860 C   0  0  0  0  0  2  0  0  0  0  0  0
  198.1000  175.4640  137.4600 O   0  0  0  0  0  1  0  0  0  0  0  0
  1  2  2  0  0  0  0
  4 14  2  0  0  0  0
  5 18  1  0  0  0  0
  5  3  1  1  0  0  0
  7  6  1  0  0  0  0
  8  9  1  0  0  0  0
  9  7  1  0  0  0  0
  9  4  2  0  0  0  0
 10 14  1  0  0  0  0
 10 11  2  0  0  0  0
 11  5  1  0  0  0  0
 12 18  2  0  0  0  0
 13  7  2  0  0  0  0
 14 12  1  0  0  0  0
 15  6  2  0  0  0  0
 15  1  1  0  0  0  0
 16  8  1  0  0  0  0
 16 15  1  0  0  0  0
 17  8  2  0  0  0  0
 19 24  1  1  0  0  0
 19 21  1  0  0  0  0
 20 25  1  0  0  0  0
 21 23  1  1  0  0  0
 22  2  1  6  0  0  0
 22 19  1  0  0  0  0
 22 21  1  0  0  0  0
 23 25  1  0  0  0  0
 24 20  1  0  0  0  0
 25 26  1  0  0  0  0
 26 27  1  0  0  0  0
 27 28  1  0  0  0  0
 28 29  1  0  0  0  0
 30 29  1  0  0  0  0
 31 30  1  0  0  0  0
 32 33  1  0  0  0  0
 32 31  1  0  0  0  0
 34 33  1  0  0  0  0
 35 34  1  0  0  0  0
 36  1  1  1  0  0  0
 36 37  1  0  0  0  0
 38 36  1  0  0  0  0
 38 37  1  0  0  0  0
 39 38  1  0  0  0  0
 40 39  1  0  0  0  0
 40 42  1  0  0  0  0
 40 41  1  1  0  0  0
 42 44  1  0  0  0  0
 43 42  2  0  0  0  0
 44 45  1  1  0  0  0
 46 44  1  0  0  0  0
 46 47  1  0  0  0  0
M  END
>  <MODEL>
5

>  <REMARK>
 VINA RESULT:      -7.6      1.741      2.378
  Name = 
  17 active torsions:
  status: ('A' for Active; 'I' for Inactive)
    1  A    between atoms: C_2  and  C_10
    2  A    between atoms: C_2  and  C_13
    3  A    between atoms: C_4  and  C_26
    4  A    between atoms: C_4  and  C_33
    5  A    between atoms: C_9  and  C_17
    6  A    between atoms: C_10  and  C_31
    7  A    between atoms: C_13  and  C_27
    8  A    between atoms: C_17  and  C_34
    9  A    between atoms: C_18  and  C_19
   10  A    between atoms: C_18  and  N_46
   11  A    between atoms: C_19  and  C_27
   12  A    between atoms: C_23  and  O_44
   13  A    between atoms: C_24  and  C_36
   14  A    between atoms: C_26  and  C_36
   15  A    between atoms: N_30  and  C_37
   16  A    between atoms: C_31  and  O_44
   17  A    between atoms: C_33  and  N_40
                            x       y       z     vdW  Elec       q    Type
                         _______ _______ _______ _____ _____    ______ ____

>  <TORSDO>
F 17

$$$$
=
 OpenBabel10222420213D

 47 51  0  0  1  0  0  0  0  0999 V2000
  191.4550  176.7330  138.6720 C   0  0  0  0  0  0  0  0  0  0  0  0
  191.3250  176.8410  139.9690 N   0  0  0  0  0  0  0  0  0  0  0  0
  182.3060  175.7770  139.5700 N   0  0  0  0  0  1  0  0  0  0  0  0
  186.2730  176.1390  136.9760 C   0  0  0  0  0  0  0  0  0  0  0  0
  182.3920  175.4410  138.1580 C   0  0  1  0  0  3  0  0  0  0  0  0
  189.7940  175.4710  137.4710 N   0  0  0  0  0  0  0  0  0  0  0  0
  188.5050  175.2930  136.8650 C   0  0  0  0  0  0  0  0  0  0  0  0
  188.0880  177.7270  137.2650 C   0  0  0  0  0  0  0  0  0  0  0  0
  187.5440  176.4010  136.9070 C   0  0  0  0  0  0  0  0  0  0  0  0
  183.9820  176.8700  136.9680 C   0  0  0  0  0  3  0  0  0  0  0  0
  182.7770  176.6470  137.4030 N   0  0  0  0  0  0  0  0  0  0  0  0
  184.6090  174.5050  137.5300 C   0  0  0  0  0  3  0  0  0  0  0  0
  188.1890  174.1750  136.3610 O   0  0  0  0  0  0  0  0  0  0  0  0
  185.0140  175.8460  137.1110 C   0  0  0  0  0  0  0  0  0  0  0  0
  190.2710  176.6460  137.7910 C   0  0  0  0  0  0  0  0  0  0  0  0
  189.5700  177.9120  137.3660 C   0  0  0  0  0  2  0  0  0  0  0  0
  187.3140  178.7830  137.4740 C   0  0  0  0  0  2  0  0  0  0  0  0
  183.3670  174.2970  137.9780 C   0  0  0  0  0  3  0  0  0  0  0  0
  189.8900  178.1170  141.4930 C   0  0  1  0  0  3  0  0  0  0  0  0
  187.4380  177.4910  141.9990 C   0  0  0  0  0  2  0  0  0  0  0  0
  190.2460  176.7760  142.1370 C   0  0  2  0  0  3  0  0  0  0  0  0
  190.0310  176.8780  140.6420 C   0  0  2  0  0  3  0  0  0  0  0  0
  189.1080  175.9230  142.7350 C   0  0  0  0  0  2  0  0  0  0  0  0
  188.4330  178.5800  141.6270 C   0  0  0  0  0  2  0  0  0  0  0  0
  187.8980  176.6750  143.1130 N   0  0  0  0  0  0  0  0  0  0  0  0
  188.1310  177.5030  144.2970 C   0  0  0  0  0  2  0  0  0  0  0  0
  187.0620  177.2420  145.3310 C   0  0  0  0  0  2  0  0  0  0  0  0
  186.7510  178.5250  146.0700 C   0  0  0  0  0  2  0  0  0  0  0  0
  185.3020  178.8880  145.8550 C   0  0  0  0  0  2  0  0  0  0  0  0
  184.8860  178.5540  144.4300 C   0  0  0  0  0  2  0  0  0  0  0  0
  183.4630  179.0120  144.1360 C   0  0  0  0  0  2  0  0  0  0  0  0
  183.1460  178.8990  142.6540 C   0  0  0  0  0  2  0  0  0  0  0  0
  184.2970  179.1150  141.8970 O   0  0  0  0  0  0  0  0  0  0  0  0
  183.9410  178.7970  140.5880 C   0  0  0  0  0  2  0  0  0  0  0  0
  184.5570  179.7500  139.6770 N   0  0  0  0  0  1  0  0  0  0  0  0
  192.8200  176.7330  138.0590 C   0  0  1  0  0  3  0  0  0  0  0  0
  193.7820  176.0430  138.9160 C   0  0  0  0  0  2  0  0  0  0  0  0
  193.1950  175.3430  137.7770 N   0  0  0  0  0  0  0  0  0  0  0  0
  194.1820  175.3720  136.7010 C   0  0  0  0  0  2  0  0  0  0  0  0
  194.7430  173.9760  136.4740 C   0  0  2  0  0  3  0  0  0  0  0  0
  194.2290  173.0760  137.3990 F   0  0  0  0  0  0  0  0  0  0  0  0
  196.2410  173.9840  136.4760 C   0  0  0  0  0  0  0  0  0  0  0  0
  196.8380  174.3530  135.4780 O   0  0  0  0  0  0  0  0  0  0  0  0
  197.0070  173.4560  137.6580 C   0  0  1  0  0  3  0  0  0  0  0  0
  198.3800  172.9730  137.2340 C   0  0  0  0  0  1  0  0  0  0  0  0
  197.1300  174.4960  138.7810 C   0  0  0  0  0  2  0  0  0  0  0  0
  198.0630  175.4820  138.4390 O   0  0  0  0  0  1  0  0  0  0  0  0
  1  2  2  0  0  0  0
  4 14  2  0  0  0  0
  5  3  1  1  0  0  0
  6 15  2  0  0  0  0
  7  9  1  0  0  0  0
  7  6  1  0  0  0  0
  8 16  1  0  0  0  0
  8 17  2  0  0  0  0
  9  4  2  0  0  0  0
  9  8  1  0  0  0  0
 10 14  1  0  0  0  0
 10 11  2  0  0  0  0
 11  5  1  0  0  0  0
 12 18  2  0  0  0  0
 13  7  2  0  0  0  0
 14 12  1  0  0  0  0
 15  1  1  0  0  0  0
 16 15  1  0  0  0  0
 18  5  1  0  0  0  0
 19 24  1  1  0  0  0
 19 21  1  0  0  0  0
 20 25  1  0  0  0  0
 21 23  1  1  0  0  0
 22  2  1  6  0  0  0
 22 19  1  0  0  0  0
 22 21  1  0  0  0  0
 23 25  1  0  0  0  0
 24 20  1  0  0  0  0
 25 26  1  0  0  0  0
 26 27  1  0  0  0  0
 27 28  1  0  0  0  0
 29 28  1  0  0  0  0
 30 29  1  0  0  0  0
 31 30  1  0  0  0  0
 32 31  1  0  0  0  0
 33 32  1  0  0  0  0
 34 33  1  0  0  0  0
 35 34  1  0  0  0  0
 36  1  1  1  0  0  0
 36 37  1  0  0  0  0
 38 36  1  0  0  0  0
 38 37  1  0  0  0  0
 39 38  1  0  0  0  0
 40 42  1  0  0  0  0
 40 39  1  0  0  0  0
 40 41  1  1  0  0  0
 42 44  1  0  0  0  0
 43 42  2  0  0  0  0
 44 45  1  6  0  0  0
 44 46  1  0  0  0  0
 47 46  1  0  0  0  0
M  END
>  <MODEL>
6

>  <REMARK>
 VINA RESULT:      -7.6      2.089      2.891
  Name = 
  17 active torsions:
  status: ('A' for Active; 'I' for Inactive)
    1  A    between atoms: C_2  and  C_10
    2  A    between atoms: C_2  and  C_13
    3  A    between atoms: C_4  and  C_26
    4  A    between atoms: C_4  and  C_33
    5  A    between atoms: C_9  and  C_17
    6  A    between atoms: C_10  and  C_31
    7  A    between atoms: C_13  and  C_27
    8  A    between atoms: C_17  and  C_34
    9  A    between atoms: C_18  and  C_19
   10  A    between atoms: C_18  and  N_46
   11  A    between atoms: C_19  and  C_27
   12  A    between atoms: C_23  and  O_44
   13  A    between atoms: C_24  and  C_36
   14  A    between atoms: C_26  and  C_36
   15  A    between atoms: N_30  and  C_37
   16  A    between atoms: C_31  and  O_44
   17  A    between atoms: C_33  and  N_40
                            x       y       z     vdW  Elec       q    Type
                         _______ _______ _______ _____ _____    ______ ____

>  <TORSDO>
F 17

$$$$
=
 OpenBabel10222420213D

 47 51  0  0  1  0  0  0  0  0999 V2000
  188.3960  177.4030  139.0760 C   0  0  0  0  0  0  0  0  0  0  0  0
  189.4110  177.0770  139.8340 N   0  0  0  0  0  0  0  0  0  0  0  0
  179.6780  176.2810  141.9310 N   0  0  0  0  0  1  0  0  0  0  0  0
  183.4640  178.9630  140.9020 C   0  0  0  0  0  0  0  0  0  0  0  0
  179.6340  177.7230  141.7560 C   0  0  1  0  0  3  0  0  0  0  0  0
  186.3750  178.6740  138.7720 N   0  0  0  0  0  0  0  0  0  0  0  0
  185.1380  179.2490  139.2200 C   0  0  0  0  0  0  0  0  0  0  0  0
  185.7740  178.5660  141.5410 C   0  0  0  0  0  0  0  0  0  0  0  0
  184.7290  179.0490  140.6150 C   0  0  0  0  0  0  0  0  0  0  0  0
  181.6910  178.8050  142.5180 C   0  0  0  0  0  3  0  0  0  0  0  0
  180.4970  178.3530  142.7690 N   0  0  0  0  0  0  0  0  0  0  0  0
  181.2620  178.5320  140.0590 C   0  0  0  0  0  3  0  0  0  0  0  0
  184.3890  179.8610  138.4030 O   0  0  0  0  0  0  0  0  0  0  0  0
  182.1970  178.8150  141.1480 C   0  0  0  0  0  0  0  0  0  0  0  0
  187.2960  178.2440  139.5940 C   0  0  0  0  0  0  0  0  0  0  0  0
  187.1960  178.5000  141.0770 C   0  0  0  0  0  2  0  0  0  0  0  0
  185.5110  178.2130  142.7920 C   0  0  0  0  0  2  0  0  0  0  0  0
  180.0410  178.0650  140.3380 C   0  0  0  0  0  3  0  0  0  0  0  0
  190.9370  177.2640  141.7440 C   0  0  1  0  0  3  0  0  0  0  0  0
  190.3210  178.4580  143.9470 C   0  0  0  0  0  2  0  0  0  0  0  0
  189.8090  176.2890  142.0900 C   0  0  2  0  0  3  0  0  0  0  0  0
  189.5390  177.5010  141.2240 C   0  0  2  0  0  3  0  0  0  0  0  0
  189.0640  176.4720  143.4290 C   0  0  0  0  0  2  0  0  0  0  0  0
  191.3400  178.2650  142.8350 C   0  0  0  0  0  2  0  0  0  0  0  0
  189.8200  177.1940  144.4680 N   0  0  0  0  0  0  0  0  0  0  0  0
  190.9190  176.3820  144.9930 C   0  0  0  0  0  2  0  0  0  0  0  0
  191.6290  177.1240  146.0990 C   0  0  0  0  0  2  0  0  0  0  0  0
  191.0280  176.7360  147.4320 C   0  0  0  0  0  2  0  0  0  0  0  0
  189.5230  176.8080  147.3430 C   0  0  0  0  0  2  0  0  0  0  0  0
  188.9950  177.8820  148.2820 C   0  0  0  0  0  2  0  0  0  0  0  0
  187.5490  178.2440  147.9690 C   0  0  0  0  0  2  0  0  0  0  0  0
  187.2740  178.1580  146.4770 C   0  0  0  0  0  2  0  0  0  0  0  0
  186.0530  177.5260  146.2470 O   0  0  0  0  0  0  0  0  0  0  0  0
  185.1070  178.2940  146.9240 C   0  0  0  0  0  2  0  0  0  0  0  0
  184.2800  179.0010  145.9570 N   0  0  0  0  0  1  0  0  0  0  0  0
  188.3570  176.9520  137.6500 C   0  0  1  0  0  3  0  0  0  0  0  0
  189.0930  175.7010  137.4740 C   0  0  0  0  0  2  0  0  0  0  0  0
  187.6380  175.6740  137.5950 N   0  0  0  0  0  0  0  0  0  0  0  0
  187.0990  175.5410  136.2440 C   0  0  0  0  0  2  0  0  0  0  0  0
  185.7520  174.8340  136.2900 C   0  0  2  0  0  3  0  0  0  0  0  0
  185.0470  175.1800  137.4360 F   0  0  0  0  0  0  0  0  0  0  0  0
  185.9120  173.3500  136.1600 C   0  0  0  0  0  0  0  0  0  0  0  0
  187.0320  172.8670  136.1600 O   0  0  0  0  0  0  0  0  0  0  0  0
  184.7130  172.4690  135.9390 C   0  0  1  0  0  3  0  0  0  0  0  0
  185.1340  171.1210  135.3850 C   0  0  0  0  0  1  0  0  0  0  0  0
  183.8840  172.2860  137.2170 C   0  0  0  0  0  2  0  0  0  0  0  0
  183.1120  171.1200  137.1420 O   0  0  0  0  0  1  0  0  0  0  0  0
  1 15  1  0  0  0  0
  1  2  2  0  0  0  0
  4 14  2  0  0  0  0
  5  3  1  6  0  0  0
  5 11  1  0  0  0  0
  6  7  1  0  0  0  0
  6 15  2  0  0  0  0
  7  9  1  0  0  0  0
  8 17  2  0  0  0  0
  9  4  2  0  0  0  0
  9  8  1  0  0  0  0
 10 11  2  0  0  0  0
 12 18  2  0  0  0  0
 12 14  1  0  0  0  0
 13  7  2  0  0  0  0
 14 10  1  0  0  0  0
 15 16  1  0  0  0  0
 16  8  1  0  0  0  0
 18  5  1  0  0  0  0
 19 21  1  0  0  0  0
 19 24  1  1  0  0  0
 20 25  1  0  0  0  0
 21 23  1  1  0  0  0
 22  2  1  6  0  0  0
 22 19  1  0  0  0  0
 22 21  1  0  0  0  0
 23 25  1  0  0  0  0
 24 20  1  0  0  0  0
 25 26  1  0  0  0  0
 26 27  1  0  0  0  0
 27 28  1  0  0  0  0
 29 28  1  0  0  0  0
 29 30  1  0  0  0  0
 31 30  1  0  0  0  0
 32 31  1  0  0  0  0
 33 32  1  0  0  0  0
 33 34  1  0  0  0  0
 35 34  1  0  0  0  0
 36  1  1  1  0  0  0
 37 38  1  0  0  0  0
 37 36  1  0  0  0  0
 38 36  1  0  0  0  0
 39 40  1  0  0  0  0
 39 38  1  0  0  0  0
 40 41  1  1  0  0  0
 42 40  1  0  0  0  0
 43 42  2  0  0  0  0
 44 45  1  1  0  0  0
 44 42  1  0  0  0  0
 44 46  1  0  0  0  0
 47 46  1  0  0  0  0
M  END
>  <MODEL>
7

>  <REMARK>
 VINA RESULT:      -7.5      3.546      4.962
  Name = 
  17 active torsions:
  status: ('A' for Active; 'I' for Inactive)
    1  A    between atoms: C_2  and  C_10
    2  A    between atoms: C_2  and  C_13
    3  A    between atoms: C_4  and  C_26
    4  A    between atoms: C_4  and  C_33
    5  A    between atoms: C_9  and  C_17
    6  A    between atoms: C_10  and  C_31
    7  A    between atoms: C_13  and  C_27
    8  A    between atoms: C_17  and  C_34
    9  A    between atoms: C_18  and  C_19
   10  A    between atoms: C_18  and  N_46
   11  A    between atoms: C_19  and  C_27
   12  A    between atoms: C_23  and  O_44
   13  A    between atoms: C_24  and  C_36
   14  A    between atoms: C_26  and  C_36
   15  A    between atoms: N_30  and  C_37
   16  A    between atoms: C_31  and  O_44
   17  A    between atoms: C_33  and  N_40
                            x       y       z     vdW  Elec       q    Type
                         _______ _______ _______ _____ _____    ______ ____

>  <TORSDO>
F 17

$$$$
=
 OpenBabel10222420213D

 47 51  0  0  1  0  0  0  0  0999 V2000
  184.6630  178.6640  141.4320 C   0  0  0  0  0  0  0  0  0  0  0  0
  183.4490  178.2630  141.1530 N   0  0  0  0  0  0  0  0  0  0  0  0
  189.1890  172.7210  135.9910 N   0  0  0  0  0  1  0  0  0  0  0  0
  188.3430  177.0800  137.6870 C   0  0  0  0  0  0  0  0  0  0  0  0
  190.0870  173.8520  135.8210 C   0  0  1  0  0  3  0  0  0  0  0  0
  186.9540  178.4850  140.7170 N   0  0  0  0  0  0  0  0  0  0  0  0
  187.9820  178.2350  139.7470 C   0  0  0  0  0  0  0  0  0  0  0  0
  186.1850  178.1480  138.0090 C   0  0  0  0  0  0  0  0  0  0  0  0
  187.5920  177.8860  138.3770 C   0  0  0  0  0  0  0  0  0  0  0  0
  188.8740  175.9670  135.6230 C   0  0  0  0  0  3  0  0  0  0  0  0
  189.3870  174.9080  135.0690 N   0  0  0  0  0  0  0  0  0  0  0  0
  190.0520  175.4010  137.7660 C   0  0  0  0  0  3  0  0  0  0  0  0
  189.2000  178.2570  140.0930 O   0  0  0  0  0  0  0  0  0  0  0  0
  189.0790  176.2220  137.0460 C   0  0  0  0  0  0  0  0  0  0  0  0
  185.7090  178.7130  140.3890 C   0  0  0  0  0  0  0  0  0  0  0  0
  185.3090  178.9160  138.9490 C   0  0  0  0  0  2  0  0  0  0  0  0
  185.6640  177.7550  136.8540 C   0  0  0  0  0  2  0  0  0  0  0  0
  190.5650  174.3140  137.1810 C   0  0  0  0  0  3  0  0  0  0  0  0
  181.5320  177.8060  139.6960 C   0  0  1  0  0  3  0  0  0  0  0  0
  181.7510  177.2590  137.1830 C   0  0  0  0  0  2  0  0  0  0  0  0
  182.3100  176.5100  139.9300 C   0  0  2  0  0  3  0  0  0  0  0  0
  183.0360  177.8340  139.8210 C   0  0  2  0  0  3  0  0  0  0  0  0
  182.6860  175.6480  138.7070 C   0  0  0  0  0  2  0  0  0  0  0  0
  181.0520  178.0730  138.2630 C   0  0  0  0  0  2  0  0  0  0  0  0
  181.8340  175.8450  137.5200 N   0  0  0  0  0  0  0  0  0  0  0  0
  180.4970  175.2830  137.7210 C   0  0  0  0  0  2  0  0  0  0  0  0
  180.3360  174.0250  136.9030 C   0  0  0  0  0  2  0  0  0  0  0  0
  179.9730  172.8740  137.8150 C   0  0  0  0  0  2  0  0  0  0  0  0
  180.9400  171.7360  137.5940 C   0  0  0  0  0  2  0  0  0  0  0  0
  182.1230  172.2110  136.7630 C   0  0  0  0  0  2  0  0  0  0  0  0
  183.4170  171.5240  137.1810 C   0  0  0  0  0  2  0  0  0  0  0  0
  184.6310  172.3210  136.7310 C   0  0  0  0  0  2  0  0  0  0  0  0
  185.1810  173.0110  137.8100 O   0  0  0  0  0  0  0  0  0  0  0  0
  186.0220  173.9670  137.2440 C   0  0  0  0  0  2  0  0  0  0  0  0
  185.7140  174.1030  135.8290 N   0  0  0  0  0  1  0  0  0  0  0  0
  184.9960  179.1180  142.8190 C   0  0  1  0  0  3  0  0  0  0  0  0
  183.9890  178.6650  143.7770 C   0  0  0  0  0  2  0  0  0  0  0  0
  185.2410  177.9280  143.6420 N   0  0  0  0  0  0  0  0  0  0  0  0
  186.1010  178.3390  144.7490 C   0  0  0  0  0  2  0  0  0  0  0  0
  186.9780  177.1750  145.1850 C   0  0  2  0  0  3  0  0  0  0  0  0
  187.2120  177.2120  146.5530 F   0  0  0  0  0  0  0  0  0  0  0  0
  188.2550  177.1320  144.4010 C   0  0  0  0  0  0  0  0  0  0  0  0
  188.3330  176.4040  143.4260 O   0  0  0  0  0  0  0  0  0  0  0  0
  189.4600  177.9050  144.8620 C   0  0  1  0  0  3  0  0  0  0  0  0
  190.2340  177.1190  145.9040 C   0  0  0  0  0  1  0  0  0  0  0  0
  190.3790  178.2950  143.6960 C   0  0  0  0  0  2  0  0  0  0  0  0
  190.9760  179.5390  143.9340 O   0  0  0  0  0  1  0  0  0  0  0  0
  2  1  2  0  0  0  0
  4  9  2  0  0  0  0
  5  3  1  1  0  0  0
  5 18  1  0  0  0  0
  7 13  2  0  0  0  0
  7  6  1  0  0  0  0
  8  9  1  0  0  0  0
  8 16  1  0  0  0  0
  9  7  1  0  0  0  0
 10 14  1  0  0  0  0
 11 10  2  0  0  0  0
 11  5  1  0  0  0  0
 14  4  2  0  0  0  0
 14 12  1  0  0  0  0
 15  6  2  0  0  0  0
 15  1  1  0  0  0  0
 16 15  1  0  0  0  0
 17  8  2  0  0  0  0
 18 12  2  0  0  0  0
 19 24  1  6  0  0  0
 19 22  1  0  0  0  0
 19 21  1  0  0  0  0
 20 25  1  0  0  0  0
 20 24  1  0  0  0  0
 21 23  1  6  0  0  0
 22 21  1  0  0  0  0
 22  2  1  1  0  0  0
 25 26  1  0  0  0  0
 25 23  1  0  0  0  0
 27 26  1  0  0  0  0
 27 28  1  0  0  0  0
 29 28  1  0  0  0  0
 30 31  1  0  0  0  0
 30 29  1  0  0  0  0
 32 31  1  0  0  0  0
 32 33  1  0  0  0  0
 34 33  1  0  0  0  0
 35 34  1  0  0  0  0
 36  1  1  6  0  0  0
 36 38  1  0  0  0  0
 36 37  1  0  0  0  0
 38 37  1  0  0  0  0
 38 39  1  0  0  0  0
 39 40  1  0  0  0  0
 40 41  1  1  0  0  0
 42 44  1  0  0  0  0
 42 40  1  0  0  0  0
 43 42  2  0  0  0  0
 44 45  1  1  0  0  0
 46 47  1  0  0  0  0
 46 44  1  0  0  0  0
M  END
>  <MODEL>
8

>  <REMARK>
 VINA RESULT:      -7.4      3.664      9.365
  Name = 
  17 active torsions:
  status: ('A' for Active; 'I' for Inactive)
    1  A    between atoms: C_2  and  C_10
    2  A    between atoms: C_2  and  C_13
    3  A    between atoms: C_4  and  C_26
    4  A    between atoms: C_4  and  C_33
    5  A    between atoms: C_9  and  C_17
    6  A    between atoms: C_10  and  C_31
    7  A    between atoms: C_13  and  C_27
    8  A    between atoms: C_17  and  C_34
    9  A    between atoms: C_18  and  C_19
   10  A    between atoms: C_18  and  N_46
   11  A    between atoms: C_19  and  C_27
   12  A    between atoms: C_23  and  O_44
   13  A    between atoms: C_24  and  C_36
   14  A    between atoms: C_26  and  C_36
   15  A    between atoms: N_30  and  C_37
   16  A    between atoms: C_31  and  O_44
   17  A    between atoms: C_33  and  N_40
                            x       y       z     vdW  Elec       q    Type
                         _______ _______ _______ _____ _____    ______ ____

>  <TORSDO>
F 17

$$$$
=
 OpenBabel10222420213D

 47 51  0  0  1  0  0  0  0  0999 V2000
  187.7790  178.2790  141.5060 C   0  0  0  0  0  0  0  0  0  0  0  0
  188.5350  177.9930  140.4780 N   0  0  0  0  0  0  0  0  0  0  0  0
  179.2340  174.7800  141.1050 N   0  0  0  0  0  1  0  0  0  0  0  0
  182.3330  178.3750  140.8560 C   0  0  0  0  0  0  0  0  0  0  0  0
  178.9310  176.0820  140.5330 C   0  0  1  0  0  3  0  0  0  0  0  0
  185.8580  178.7460  140.1320 N   0  0  0  0  0  0  0  0  0  0  0  0
  184.4530  178.9390  139.9090 C   0  0  0  0  0  0  0  0  0  0  0  0
  184.1490  178.8690  142.3910 C   0  0  0  0  0  0  0  0  0  0  0  0
  183.5350  178.8310  141.0480 C   0  0  0  0  0  0  0  0  0  0  0  0
  180.1240  177.8870  141.6720 C   0  0  0  0  0  3  0  0  0  0  0  0
  179.0860  177.1090  141.5770 N   0  0  0  0  0  0  0  0  0  0  0  0
  180.8940  177.1150  139.4100 C   0  0  0  0  0  3  0  0  0  0  0  0
  184.0170  179.1360  138.7370 O   0  0  0  0  0  0  0  0  0  0  0  0
  181.1610  177.8550  140.6440 C   0  0  0  0  0  0  0  0  0  0  0  0
  186.3990  178.7770  141.3220 C   0  0  0  0  0  0  0  0  0  0  0  0
  185.6010  179.2080  142.5270 C   0  0  0  0  0  2  0  0  0  0  0  0
  183.4570  178.6450  143.5000 C   0  0  0  0  0  2  0  0  0  0  0  0
  179.8240  176.3180  139.3340 C   0  0  0  0  0  3  0  0  0  0  0  0
  187.9250  176.8000  138.4250 C   0  0  1  0  0  3  0  0  0  0  0  0
  186.9610  177.9660  136.3340 C   0  0  0  0  0  2  0  0  0  0  0  0
  189.1820  177.6350  138.1710 C   0  0  2  0  0  3  0  0  0  0  0  0
  188.0950  178.1420  139.0950 C   0  0  2  0  0  3  0  0  0  0  0  0
  189.2220  178.5420  136.9240 C   0  0  0  0  0  2  0  0  0  0  0  0
  186.8530  176.8180  137.3270 C   0  0  0  0  0  2  0  0  0  0  0  0
  188.3170  178.1390  135.8320 N   0  0  0  0  0  0  0  0  0  0  0  0
  188.7820  176.9190  135.1720 C   0  0  0  0  0  2  0  0  0  0  0  0
  190.1890  177.1120  134.6590 C   0  0  0  0  0  2  0  0  0  0  0  0
  191.0070  175.8740  134.9520 C   0  0  0  0  0  2  0  0  0  0  0  0
  191.9400  176.1500  136.1060 C   0  0  0  0  0  2  0  0  0  0  0  0
  191.7570  175.0970  137.1880 C   0  0  0  0  0  2  0  0  0  0  0  0
  193.0900  174.5070  137.6320 C   0  0  0  0  0  2  0  0  0  0  0  0
  194.2230  174.9780  136.7350 C   0  0  0  0  0  2  0  0  0  0  0  0
  195.3060  174.1060  136.8290 O   0  0  0  0  0  0  0  0  0  0  0  0
  195.1130  173.1680  135.8160 C   0  0  0  0  0  2  0  0  0  0  0  0
  194.5590  173.8320  134.6460 N   0  0  0  0  0  1  0  0  0  0  0  0
  188.2970  178.0680  142.8930 C   0  0  1  0  0  3  0  0  0  0  0  0
  188.9950  176.7880  143.0060 C   0  0  0  0  0  2  0  0  0  0  0  0
  189.7620  178.0180  142.8320 N   0  0  0  0  0  0  0  0  0  0  0  0
  190.2630  178.4000  144.1490 C   0  0  0  0  0  2  0  0  0  0  0  0
  191.6720  177.8610  144.3450 C   0  0  2  0  0  3  0  0  0  0  0  0
  192.2940  177.6370  143.1230 F   0  0  0  0  0  0  0  0  0  0  0  0
  191.6710  176.6340  145.2050 C   0  0  0  0  0  0  0  0  0  0  0  0
  191.8420  175.5420  144.6880 O   0  0  0  0  0  0  0  0  0  0  0  0
  191.3690  176.7320  146.6750 C   0  0  1  0  0  3  0  0  0  0  0  0
  189.8730  176.8090  146.9110 C   0  0  0  0  0  1  0  0  0  0  0  0
  191.9760  175.5670  147.4700 C   0  0  0  0  0  2  0  0  0  0  0  0
  193.0600  176.0060  148.2380 O   0  0  0  0  0  1  0  0  0  0  0  0
  2  1  2  0  0  0  0
  4  9  2  0  0  0  0
  5  3  1  1  0  0  0
  5 11  1  0  0  0  0
  6 15  2  0  0  0  0
  7  6  1  0  0  0  0
  7  9  1  0  0  0  0
  8 16  1  0  0  0  0
  8 17  2  0  0  0  0
  9  8  1  0  0  0  0
 11 10  2  0  0  0  0
 12 14  1  0  0  0  0
 13  7  2  0  0  0  0
 14  4  2  0  0  0  0
 14 10  1  0  0  0  0
 15  1  1  0  0  0  0
 15 16  1  0  0  0  0
 18 12  2  0  0  0  0
 18  5  1  0  0  0  0
 19 24  1  6  0  0  0
 19 22  1  0  0  0  0
 20 24  1  0  0  0  0
 21 23  1  6  0  0  0
 21 19  1  0  0  0  0
 21 22  1  0  0  0  0
 22  2  1  1  0  0  0
 25 20  1  0  0  0  0
 25 23  1  0  0  0  0
 26 25  1  0  0  0  0
 27 28  1  0  0  0  0
 27 26  1  0  0  0  0
 28 29  1  0  0  0  0
 29 30  1  0  0  0  0
 30 31  1  0  0  0  0
 32 33  1  0  0  0  0
 32 31  1  0  0  0  0
 34 33  1  0  0  0  0
 35 34  1  0  0  0  0
 36  1  1  6  0  0  0
 36 37  1  0  0  0  0
 38 36  1  0  0  0  0
 38 37  1  0  0  0  0
 38 39  1  0  0  0  0
 39 40  1  0  0  0  0
 40 41  1  6  0  0  0
 40 42  1  0  0  0  0
 42 44  1  0  0  0  0
 43 42  2  0  0  0  0
 44 45  1  6  0  0  0
 44 46  1  0  0  0  0
 46 47  1  0  0  0  0
M  END
>  <MODEL>
9

>  <REMARK>
 VINA RESULT:      -7.4      2.784      8.232
  Name = 
  17 active torsions:
  status: ('A' for Active; 'I' for Inactive)
    1  A    between atoms: C_2  and  C_10
    2  A    between atoms: C_2  and  C_13
    3  A    between atoms: C_4  and  C_26
    4  A    between atoms: C_4  and  C_33
    5  A    between atoms: C_9  and  C_17
    6  A    between atoms: C_10  and  C_31
    7  A    between atoms: C_13  and  C_27
    8  A    between atoms: C_17  and  C_34
    9  A    between atoms: C_18  and  C_19
   10  A    between atoms: C_18  and  N_46
   11  A    between atoms: C_19  and  C_27
   12  A    between atoms: C_23  and  O_44
   13  A    between atoms: C_24  and  C_36
   14  A    between atoms: C_26  and  C_36
   15  A    between atoms: N_30  and  C_37
   16  A    between atoms: C_31  and  O_44
   17  A    between atoms: C_33  and  N_40
                            x       y       z     vdW  Elec       q    Type
                         _______ _______ _______ _____ _____    ______ ____

>  <TORSDO>
F 17

$$$$
