=
 OpenBabel10222417083D

 25 27  0  0  1  0  0  0  0  0999 V2000
  184.9040  178.8010  145.0880 C   0  0  0  0  0  0  0  0  0  0  0  0
  187.9970  177.2600  143.8590 C   0  0  0  0  0  3  0  0  0  0  0  0
  185.7420  178.2880  144.0930 C   0  0  0  0  0  0  0  0  0  0  0  0
  185.4170  178.2470  142.7410 O   0  0  0  0  0  1  0  0  0  0  0  0
  185.6750  178.6870  146.5850 S   0  0  0  0  0  0  0  0  0  0  0  0
  187.0770  177.9740  145.9790 C   0  0  0  0  0  0  0  0  0  0  0  0
  186.9590  177.8240  144.6010 C   0  0  0  0  0  0  0  0  0  0  0  0
  189.2730  177.0030  145.9220 C   0  0  0  0  0  3  0  0  0  0  0  0
  188.2260  177.5730  146.6690 C   0  0  0  0  0  0  0  0  0  0  0  0
  189.1590  176.8420  144.5290 C   0  0  0  0  0  0  0  0  0  0  0  0
  189.3150  178.3950  148.6570 N   0  0  0  0  0  2  0  0  0  0  0  0
  188.3320  177.7470  148.1240 C   0  0  0  0  0  3  0  0  0  0  0  0
  183.6000  179.3620  144.9100 N   0  0  0  0  0  2  0  0  0  0  0  0
  182.4810  178.6420  144.3210 C   0  0  0  0  0  2  0  0  0  0  0  0
  180.8610  179.2720  142.9630 C   0  0  0  0  0  1  0  0  0  0  0  0
  182.2450  179.1150  143.0300 O   0  0  0  0  0  0  0  0  0  0  0  0
  190.2900  176.2570  143.7550 C   0  0  0  0  0  2  0  0  0  0  0  0
  190.4700  176.9820  142.4650 C   0  0  0  0  0  0  0  0  0  0  0  0
  190.0090  176.3880  141.2490 N   0  0  0  0  0  2  0  0  0  0  0  0
  191.0570  178.0970  142.4540 O   0  0  0  0  0  0  0  0  0  0  0  0
  190.1500  177.0390  139.9550 C   0  0  0  0  0  2  0  0  0  0  0  0
  189.1250  179.3920  137.8740 O   0  0  0  0  0  0  0  0  0  0  0  0
  188.8040  178.5980  138.7960 C   0  0  0  0  0  0  0  0  0  0  0  0
  188.1670  178.3090  140.1190 O   0  0  0  0  0  0  0  0  0  0  0  0
  188.7830  177.3460  139.3680 C   0  0  2  0  0  3  0  0  0  0  0  0
  1  5  1  0  0  0  0
  2 10  2  0  0  0  0
  2  7  1  0  0  0  0
  3  7  1  0  0  0  0
  3  1  2  0  0  0  0
  4  3  1  0  0  0  0
  6  5  1  0  0  0  0
  6  9  1  0  0  0  0
  7  6  2  0  0  0  0
  8  9  2  0  0  0  0
  9 12  1  0  0  0  0
 10  8  1  0  0  0  0
 12 11  2  0  0  0  0
 13  1  1  0  0  0  0
 14 13  1  0  0  0  0
 15 16  1  0  0  0  0
 16 14  1  0  0  0  0
 17 10  1  0  0  0  0
 18 17  1  0  0  0  0
 19 18  1  0  0  0  0
 20 18  2  0  0  0  0
 21 19  1  0  0  0  0
 22 23  2  0  0  0  0
 23 25  1  0  0  0  0
 23 24  1  0  0  0  0
 25 21  1  1  0  0  0
 25 24  1  0  0  0  0
M  END
>  <MODEL>
1

>  <REMARK>
 VINA RESULT:      -7.6      0.000      0.000
  Name = 
  8 active torsions:
  status: ('A' for Active; 'I' for Inactive)
    1  A    between atoms: C_1  and  N_19
    2  A    between atoms: C_7  and  C_25
    3  A    between atoms: C_13  and  C_23
    4  A    between atoms: C_14  and  N_19
    5  A    between atoms: C_14  and  O_20
    6  A    between atoms: N_15  and  C_23
    7  A    between atoms: C_18  and  C_24
    8  A    between atoms: C_22  and  C_25
                            x       y       z     vdW  Elec       q    Type
                         _______ _______ _______ _____ _____    ______ ____

>  <TORSDO>
F 8

$$$$
=
 OpenBabel10222417083D

 25 27  0  0  1  0  0  0  0  0999 V2000
  189.9890  176.6020  142.5740 C   0  0  0  0  0  0  0  0  0  0  0  0
  187.7940  177.4750  145.3800 C   0  0  0  0  0  3  0  0  0  0  0  0
  188.7670  176.9710  143.1450 C   0  0  0  0  0  0  0  0  0  0  0  0
  187.5950  177.1680  142.4230 O   0  0  0  0  0  1  0  0  0  0  0  0
  191.1510  176.4460  143.7890 S   0  0  0  0  0  0  0  0  0  0  0  0
  190.1090  176.8580  145.0480 C   0  0  0  0  0  0  0  0  0  0  0  0
  188.8430  177.1160  144.5330 C   0  0  0  0  0  0  0  0  0  0  0  0
  189.3240  177.3080  147.2730 C   0  0  0  0  0  3  0  0  0  0  0  0
  190.3800  176.9460  146.4180 C   0  0  0  0  0  0  0  0  0  0  0  0
  188.0410  177.5760  146.7590 C   0  0  0  0  0  0  0  0  0  0  0  0
  191.9840  175.5700  147.5790 N   0  0  0  0  0  2  0  0  0  0  0  0
  191.7240  176.6640  146.9410 C   0  0  0  0  0  3  0  0  0  0  0  0
  190.2550  176.3630  141.1890 N   0  0  0  0  0  2  0  0  0  0  0  0
  190.2990  177.4100  140.1790 C   0  0  0  0  0  2  0  0  0  0  0  0
  189.2800  178.3930  138.4890 C   0  0  0  0  0  1  0  0  0  0  0  0
  189.0700  177.4800  139.5210 O   0  0  0  0  0  0  0  0  0  0  0  0
  186.9310  177.9360  147.6860 C   0  0  0  0  0  2  0  0  0  0  0  0
  185.9290  178.7940  146.9910 C   0  0  0  0  0  0  0  0  0  0  0  0
  184.9320  178.1890  146.1650 N   0  0  0  0  0  2  0  0  0  0  0  0
  185.9900  180.0470  147.1120 O   0  0  0  0  0  0  0  0  0  0  0  0
  183.9210  178.9630  145.4590 C   0  0  0  0  0  2  0  0  0  0  0  0
  182.3070  178.9060  142.5770 O   0  0  0  0  0  0  0  0  0  0  0  0
  183.4190  178.8020  143.1560 C   0  0  0  0  0  0  0  0  0  0  0  0
  184.7030  178.0770  143.4150 O   0  0  0  0  0  0  0  0  0  0  0  0
  184.3760  179.2490  144.0380 C   0  0  2  0  0  3  0  0  0  0  0  0
  1  3  2  0  0  0  0
  1  5  1  0  0  0  0
  2 10  1  0  0  0  0
  3  7  1  0  0  0  0
  4  3  1  0  0  0  0
  5  6  1  0  0  0  0
  6  9  2  0  0  0  0
  7  6  1  0  0  0  0
  7  2  2  0  0  0  0
  9 12  1  0  0  0  0
  9  8  1  0  0  0  0
 10  8  2  0  0  0  0
 10 17  1  0  0  0  0
 12 11  2  0  0  0  0
 13  1  1  0  0  0  0
 14 13  1  0  0  0  0
 15 16  1  0  0  0  0
 16 14  1  0  0  0  0
 18 20  2  0  0  0  0
 18 17  1  0  0  0  0
 19 18  1  0  0  0  0
 21 19  1  0  0  0  0
 22 23  2  0  0  0  0
 23 24  1  0  0  0  0
 23 25  1  0  0  0  0
 24 25  1  0  0  0  0
 25 21  1  1  0  0  0
M  END
>  <MODEL>
2

>  <REMARK>
 VINA RESULT:      -7.5      2.198      5.985
  Name = 
  8 active torsions:
  status: ('A' for Active; 'I' for Inactive)
    1  A    between atoms: C_1  and  N_19
    2  A    between atoms: C_7  and  C_25
    3  A    between atoms: C_13  and  C_23
    4  A    between atoms: C_14  and  N_19
    5  A    between atoms: C_14  and  O_20
    6  A    between atoms: N_15  and  C_23
    7  A    between atoms: C_18  and  C_24
    8  A    between atoms: C_22  and  C_25
                            x       y       z     vdW  Elec       q    Type
                         _______ _______ _______ _____ _____    ______ ____

>  <TORSDO>
F 8

$$$$
=
 OpenBabel10222417083D

 25 27  0  0  1  0  0  0  0  0999 V2000
  187.1910  178.2930  140.9820 C   0  0  0  0  0  0  0  0  0  0  0  0
  187.5520  177.4310  144.5290 C   0  0  0  0  0  3  0  0  0  0  0  0
  187.8540  177.7300  142.0760 C   0  0  0  0  0  0  0  0  0  0  0  0
  189.0880  177.0920  141.9990 O   0  0  0  0  0  1  0  0  0  0  0  0
  185.7410  178.9850  141.5010 S   0  0  0  0  0  0  0  0  0  0  0  0
  185.9440  178.5640  143.1210 C   0  0  0  0  0  0  0  0  0  0  0  0
  187.1480  177.8840  143.2730 C   0  0  0  0  0  0  0  0  0  0  0  0
  185.5050  178.3640  145.4740 C   0  0  0  0  0  3  0  0  0  0  0  0
  185.1000  178.8200  144.2060 C   0  0  0  0  0  0  0  0  0  0  0  0
  186.7180  177.6690  145.6350 C   0  0  0  0  0  0  0  0  0  0  0  0
  182.7070  178.9230  143.9290 N   0  0  0  0  0  2  0  0  0  0  0  0
  183.8350  179.5460  144.0240 C   0  0  0  0  0  3  0  0  0  0  0  0
  187.6380  178.3190  139.6240 N   0  0  0  0  0  2  0  0  0  0  0  0
  188.9900  178.6760  139.2220 C   0  0  0  0  0  2  0  0  0  0  0  0
  188.1280  178.5510  137.1970 C   0  0  0  0  0  1  0  0  0  0  0  0
  188.9560  179.3380  137.9940 O   0  0  0  0  0  0  0  0  0  0  0  0
  187.1380  177.2140  146.9900 C   0  0  0  0  0  2  0  0  0  0  0  0
  188.5740  177.5400  147.2290 C   0  0  0  0  0  0  0  0  0  0  0  0
  189.5880  176.6450  146.7670 N   0  0  0  0  0  2  0  0  0  0  0  0
  188.8780  178.5850  147.8640 O   0  0  0  0  0  0  0  0  0  0  0  0
  191.0080  176.9000  146.9630 C   0  0  0  0  0  2  0  0  0  0  0  0
  191.1260  178.8850  144.3250 O   0  0  0  0  0  0  0  0  0  0  0  0
  191.2450  177.7090  144.7560 C   0  0  0  0  0  0  0  0  0  0  0  0
  190.9220  176.2480  144.6960 O   0  0  0  0  0  0  0  0  0  0  0  0
  191.7500  176.7840  145.6430 C   0  0  2  0  0  3  0  0  0  0  0  0
  1  5  1  0  0  0  0
  1  3  2  0  0  0  0
  2 10  1  0  0  0  0
  3  7  1  0  0  0  0
  4  3  1  0  0  0  0
  5  6  1  0  0  0  0
  6  7  1  0  0  0  0
  6  9  2  0  0  0  0
  7  2  2  0  0  0  0
  8 10  2  0  0  0  0
  9  8  1  0  0  0  0
 10 17  1  0  0  0  0
 11 12  2  0  0  0  0
 12  9  1  0  0  0  0
 13  1  1  0  0  0  0
 14 13  1  0  0  0  0
 15 16  1  0  0  0  0
 16 14  1  0  0  0  0
 17 18  1  0  0  0  0
 18 20  2  0  0  0  0
 19 21  1  0  0  0  0
 19 18  1  0  0  0  0
 22 23  2  0  0  0  0
 23 25  1  0  0  0  0
 24 23  1  0  0  0  0
 24 25  1  0  0  0  0
 25 21  1  1  0  0  0
M  END
>  <MODEL>
3

>  <REMARK>
 VINA RESULT:      -7.4      2.557      5.782
  Name = 
  8 active torsions:
  status: ('A' for Active; 'I' for Inactive)
    1  A    between atoms: C_1  and  N_19
    2  A    between atoms: C_7  and  C_25
    3  A    between atoms: C_13  and  C_23
    4  A    between atoms: C_14  and  N_19
    5  A    between atoms: C_14  and  O_20
    6  A    between atoms: N_15  and  C_23
    7  A    between atoms: C_18  and  C_24
    8  A    between atoms: C_22  and  C_25
                            x       y       z     vdW  Elec       q    Type
                         _______ _______ _______ _____ _____    ______ ____

>  <TORSDO>
F 8

$$$$
=
 OpenBabel10222417083D

 25 27  0  0  1  0  0  0  0  0999 V2000
  189.0530  177.0700  144.1800 C   0  0  0  0  0  0  0  0  0  0  0  0
  185.9580  178.0590  142.4790 C   0  0  0  0  0  3  0  0  0  0  0  0
  188.2540  177.2890  143.0540 C   0  0  0  0  0  0  0  0  0  0  0  0
  188.6700  177.0670  141.7450 O   0  0  0  0  0  1  0  0  0  0  0  0
  188.1730  177.4390  145.5730 S   0  0  0  0  0  0  0  0  0  0  0  0
  186.7720  177.8900  144.7500 C   0  0  0  0  0  0  0  0  0  0  0  0
  186.9760  177.7520  143.3810 C   0  0  0  0  0  0  0  0  0  0  0  0
  184.5250  178.6460  144.3640 C   0  0  0  0  0  3  0  0  0  0  0  0
  185.5530  178.3350  145.2730 C   0  0  0  0  0  0  0  0  0  0  0  0
  184.7250  178.5140  142.9770 C   0  0  0  0  0  0  0  0  0  0  0  0
  185.6720  179.5540  147.3500 N   0  0  0  0  0  2  0  0  0  0  0  0
  185.3570  178.4680  146.7230 C   0  0  0  0  0  3  0  0  0  0  0  0
  190.4010  176.5910  144.1990 N   0  0  0  0  0  2  0  0  0  0  0  0
  191.4280  177.0960  145.0970 C   0  0  0  0  0  2  0  0  0  0  0  0
  191.5460  176.3800  147.1790 C   0  0  0  0  0  1  0  0  0  0  0  0
  191.9250  176.0520  145.8790 O   0  0  0  0  0  0  0  0  0  0  0  0
  183.6150  178.8280  142.0340 C   0  0  0  0  0  2  0  0  0  0  0  0
  183.8110  178.1120  140.7410 C   0  0  0  0  0  0  0  0  0  0  0  0
  184.5780  178.7240  139.7020 N   0  0  0  0  0  2  0  0  0  0  0  0
  183.2710  176.9870  140.5640 O   0  0  0  0  0  0  0  0  0  0  0  0
  184.8110  178.0840  138.4160 C   0  0  0  0  0  2  0  0  0  0  0  0
  187.2750  176.3080  137.1150 O   0  0  0  0  0  0  0  0  0  0  0  0
  186.9510  177.3640  137.7180 C   0  0  0  0  0  0  0  0  0  0  0  0
  187.1190  178.3420  138.8380 O   0  0  0  0  0  0  0  0  0  0  0  0
  186.1680  178.4870  137.8660 C   0  0  2  0  0  3  0  0  0  0  0  0
  1 13  1  0  0  0  0
  1  5  1  0  0  0  0
  2 10  2  0  0  0  0
  2  7  1  0  0  0  0
  3  7  1  0  0  0  0
  3  1  2  0  0  0  0
  4  3  1  0  0  0  0
  6  9  1  0  0  0  0
  6  5  1  0  0  0  0
  7  6  2  0  0  0  0
  8  9  2  0  0  0  0
  9 12  1  0  0  0  0
 10  8  1  0  0  0  0
 12 11  2  0  0  0  0
 13 14  1  0  0  0  0
 14 16  1  0  0  0  0
 16 15  1  0  0  0  0
 17 10  1  0  0  0  0
 18 17  1  0  0  0  0
 19 18  1  0  0  0  0
 20 18  2  0  0  0  0
 21 19  1  0  0  0  0
 22 23  2  0  0  0  0
 23 25  1  0  0  0  0
 23 24  1  0  0  0  0
 25 21  1  1  0  0  0
 25 24  1  0  0  0  0
M  END
>  <MODEL>
4

>  <REMARK>
 VINA RESULT:      -7.1      2.678      5.692
  Name = 
  8 active torsions:
  status: ('A' for Active; 'I' for Inactive)
    1  A    between atoms: C_1  and  N_19
    2  A    between atoms: C_7  and  C_25
    3  A    between atoms: C_13  and  C_23
    4  A    between atoms: C_14  and  N_19
    5  A    between atoms: C_14  and  O_20
    6  A    between atoms: N_15  and  C_23
    7  A    between atoms: C_18  and  C_24
    8  A    between atoms: C_22  and  C_25
                            x       y       z     vdW  Elec       q    Type
                         _______ _______ _______ _____ _____    ______ ____

>  <TORSDO>
F 8

$$$$
=
 OpenBabel10222417083D

 25 27  0  0  1  0  0  0  0  0999 V2000
  190.1020  177.6960  141.3520 C   0  0  0  0  0  0  0  0  0  0  0  0
  187.6470  177.6840  144.0760 C   0  0  0  0  0  3  0  0  0  0  0  0
  188.8150  177.8240  141.8830 C   0  0  0  0  0  0  0  0  0  0  0  0
  187.6830  178.1120  141.1280 O   0  0  0  0  0  1  0  0  0  0  0  0
  191.1860  177.3240  142.5920 S   0  0  0  0  0  0  0  0  0  0  0  0
  190.0260  177.3350  143.8140 C   0  0  0  0  0  0  0  0  0  0  0  0
  188.7810  177.6230  143.2660 C   0  0  0  0  0  0  0  0  0  0  0  0
  189.0490  177.1580  146.0020 C   0  0  0  0  0  3  0  0  0  0  0  0
  190.1920  177.0960  145.1830 C   0  0  0  0  0  0  0  0  0  0  0  0
  187.7870  177.4550  145.4560 C   0  0  0  0  0  0  0  0  0  0  0  0
  191.7520  176.8780  147.0080 N   0  0  0  0  0  2  0  0  0  0  0  0
  191.5160  176.7880  145.7400 C   0  0  0  0  0  3  0  0  0  0  0  0
  190.4850  177.8300  139.9800 N   0  0  0  0  0  2  0  0  0  0  0  0
  190.0600  176.9200  138.9260 C   0  0  0  0  0  2  0  0  0  0  0  0
  190.6000  175.1300  137.7590 C   0  0  0  0  0  1  0  0  0  0  0  0
  190.8030  175.7420  138.9950 O   0  0  0  0  0  0  0  0  0  0  0  0
  186.5870  177.4940  146.3380 C   0  0  0  0  0  2  0  0  0  0  0  0
  185.6760  178.6020  145.9320 C   0  0  0  0  0  0  0  0  0  0  0  0
  184.7900  178.4200  144.8260 N   0  0  0  0  0  2  0  0  0  0  0  0
  185.7190  179.7010  146.5470 O   0  0  0  0  0  0  0  0  0  0  0  0
  183.8720  179.4570  144.3760 C   0  0  0  0  0  2  0  0  0  0  0  0
  183.0220  178.3370  141.3860 O   0  0  0  0  0  0  0  0  0  0  0  0
  182.6190  178.8100  142.4800 C   0  0  0  0  0  0  0  0  0  0  0  0
  181.8160  179.7970  143.2690 O   0  0  0  0  0  0  0  0  0  0  0  0
  182.5880  178.8340  143.8570 C   0  0  2  0  0  3  0  0  0  0  0  0
  1  3  2  0  0  0  0
  1  5  1  0  0  0  0
  2 10  1  0  0  0  0
  3  7  1  0  0  0  0
  4  3  1  0  0  0  0
  5  6  1  0  0  0  0
  6  9  2  0  0  0  0
  7  6  1  0  0  0  0
  7  2  2  0  0  0  0
  9 12  1  0  0  0  0
  9  8  1  0  0  0  0
 10  8  2  0  0  0  0
 10 17  1  0  0  0  0
 12 11  2  0  0  0  0
 13  1  1  0  0  0  0
 14 16  1  0  0  0  0
 14 13  1  0  0  0  0
 15 16  1  0  0  0  0
 18 17  1  0  0  0  0
 18 20  2  0  0  0  0
 19 18  1  0  0  0  0
 21 19  1  0  0  0  0
 22 23  2  0  0  0  0
 23 24  1  0  0  0  0
 23 25  1  0  0  0  0
 24 25  1  0  0  0  0
 25 21  1  1  0  0  0
M  END
>  <MODEL>
5

>  <REMARK>
 VINA RESULT:      -7.1      2.334      6.340
  Name = 
  8 active torsions:
  status: ('A' for Active; 'I' for Inactive)
    1  A    between atoms: C_1  and  N_19
    2  A    between atoms: C_7  and  C_25
    3  A    between atoms: C_13  and  C_23
    4  A    between atoms: C_14  and  N_19
    5  A    between atoms: C_14  and  O_20
    6  A    between atoms: N_15  and  C_23
    7  A    between atoms: C_18  and  C_24
    8  A    between atoms: C_22  and  C_25
                            x       y       z     vdW  Elec       q    Type
                         _______ _______ _______ _____ _____    ______ ____

>  <TORSDO>
F 8

$$$$
=
 OpenBabel10222417083D

 25 27  0  0  1  0  0  0  0  0999 V2000
  189.6760  177.0520  143.4910 C   0  0  0  0  0  0  0  0  0  0  0  0
  186.2490  178.0090  144.3790 C   0  0  0  0  0  3  0  0  0  0  0  0
  188.3460  177.3680  143.2010 C   0  0  0  0  0  0  0  0  0  0  0  0
  187.8080  177.3840  141.9180 O   0  0  0  0  0  1  0  0  0  0  0  0
  189.9200  177.1260  145.1600 S   0  0  0  0  0  0  0  0  0  0  0  0
  188.3340  177.5700  145.5240 C   0  0  0  0  0  0  0  0  0  0  0  0
  187.6000  177.6600  144.3460 C   0  0  0  0  0  0  0  0  0  0  0  0
  186.3970  178.1740  146.8090 C   0  0  0  0  0  3  0  0  0  0  0  0
  187.7590  177.8220  146.7740 C   0  0  0  0  0  0  0  0  0  0  0  0
  185.6480  178.2730  145.6220 C   0  0  0  0  0  0  0  0  0  0  0  0
  188.0190  177.8910  149.1700 N   0  0  0  0  0  2  0  0  0  0  0  0
  188.5530  177.7150  148.0060 C   0  0  0  0  0  3  0  0  0  0  0  0
  190.7010  176.6970  142.5570 N   0  0  0  0  0  2  0  0  0  0  0  0
  191.7030  177.6280  142.0610 C   0  0  0  0  0  2  0  0  0  0  0  0
  190.7730  177.4320  140.0710 C   0  0  0  0  0  1  0  0  0  0  0  0
  191.9980  177.3340  140.7290 O   0  0  0  0  0  0  0  0  0  0  0  0
  184.2020  178.6260  145.6840 C   0  0  0  0  0  2  0  0  0  0  0  0
  183.7370  179.1560  144.3710 C   0  0  0  0  0  0  0  0  0  0  0  0
  182.9610  178.3230  143.5060 N   0  0  0  0  0  2  0  0  0  0  0  0
  184.0590  180.3230  144.0200 O   0  0  0  0  0  0  0  0  0  0  0  0
  182.4730  178.7750  142.2110 C   0  0  0  0  0  2  0  0  0  0  0  0
  180.0050  180.8780  142.8420 O   0  0  0  0  0  0  0  0  0  0  0  0
  180.3630  179.6740  142.7800 C   0  0  0  0  0  0  0  0  0  0  0  0
  180.4720  178.3030  143.3710 O   0  0  0  0  0  0  0  0  0  0  0  0
  180.9640  178.6160  142.1340 C   0  0  2  0  0  3  0  0  0  0  0  0
  1  5  1  0  0  0  0
  2 10  1  0  0  0  0
  3  1  2  0  0  0  0
  3  7  1  0  0  0  0
  4  3  1  0  0  0  0
  5  6  1  0  0  0  0
  6  9  2  0  0  0  0
  7  2  2  0  0  0  0
  7  6  1  0  0  0  0
  9  8  1  0  0  0  0
  9 12  1  0  0  0  0
 10 17  1  0  0  0  0
 10  8  2  0  0  0  0
 12 11  2  0  0  0  0
 13  1  1  0  0  0  0
 14 13  1  0  0  0  0
 15 16  1  0  0  0  0
 16 14  1  0  0  0  0
 18 17  1  0  0  0  0
 19 18  1  0  0  0  0
 20 18  2  0  0  0  0
 21 19  1  0  0  0  0
 23 22  2  0  0  0  0
 23 24  1  0  0  0  0
 25 21  1  1  0  0  0
 25 23  1  0  0  0  0
 25 24  1  0  0  0  0
M  END
>  <MODEL>
6

>  <REMARK>
 VINA RESULT:      -6.9      1.942      6.602
  Name = 
  8 active torsions:
  status: ('A' for Active; 'I' for Inactive)
    1  A    between atoms: C_1  and  N_19
    2  A    between atoms: C_7  and  C_25
    3  A    between atoms: C_13  and  C_23
    4  A    between atoms: C_14  and  N_19
    5  A    between atoms: C_14  and  O_20
    6  A    between atoms: N_15  and  C_23
    7  A    between atoms: C_18  and  C_24
    8  A    between atoms: C_22  and  C_25
                            x       y       z     vdW  Elec       q    Type
                         _______ _______ _______ _____ _____    ______ ____

>  <TORSDO>
F 8

$$$$
=
 OpenBabel10222417083D

 25 27  0  0  1  0  0  0  0  0999 V2000
  185.6860  178.7060  139.7030 C   0  0  0  0  0  0  0  0  0  0  0  0
  185.0920  178.7280  143.3220 C   0  0  0  0  0  3  0  0  0  0  0  0
  186.0890  178.7020  141.0420 C   0  0  0  0  0  0  0  0  0  0  0  0
  187.4160  178.6890  141.4580 O   0  0  0  0  0  1  0  0  0  0  0  0
  183.9990  178.7450  139.6250 S   0  0  0  0  0  0  0  0  0  0  0  0
  183.7720  178.7490  141.2960 C   0  0  0  0  0  0  0  0  0  0  0  0
  185.0100  178.7240  141.9290 C   0  0  0  0  0  0  0  0  0  0  0  0
  182.6550  178.7810  143.4220 C   0  0  0  0  0  3  0  0  0  0  0  0
  182.5740  178.7780  142.0170 C   0  0  0  0  0  0  0  0  0  0  0  0
  183.9030  178.7510  144.0710 C   0  0  0  0  0  0  0  0  0  0  0  0
  180.3170  179.5760  141.7280 N   0  0  0  0  0  2  0  0  0  0  0  0
  181.2770  178.8090  141.3270 C   0  0  0  0  0  3  0  0  0  0  0  0
  186.5310  178.6960  138.5490 N   0  0  0  0  0  2  0  0  0  0  0  0
  187.2140  177.5110  138.0530 C   0  0  0  0  0  2  0  0  0  0  0  0
  189.0670  178.6740  138.3330 C   0  0  0  0  0  1  0  0  0  0  0  0
  188.3920  177.8840  137.4040 O   0  0  0  0  0  0  0  0  0  0  0  0
  183.9660  178.7770  145.5600 C   0  0  0  0  0  2  0  0  0  0  0  0
  185.3840  178.7840  146.0220 C   0  0  0  0  0  0  0  0  0  0  0  0
  186.1700  177.5960  145.9100 N   0  0  0  0  0  2  0  0  0  0  0  0
  185.8660  179.8280  146.5380 O   0  0  0  0  0  0  0  0  0  0  0  0
  187.5590  177.5300  146.3390 C   0  0  0  0  0  2  0  0  0  0  0  0
  187.9160  176.1070  143.3790 O   0  0  0  0  0  0  0  0  0  0  0  0
  188.4640  176.7830  144.2880 C   0  0  0  0  0  0  0  0  0  0  0  0
  189.5900  177.0340  145.2430 O   0  0  0  0  0  0  0  0  0  0  0  0
  188.4850  177.8370  145.1750 C   0  0  2  0  0  3  0  0  0  0  0  0
  1  3  2  0  0  0  0
  2 10  1  0  0  0  0
  3  4  1  0  0  0  0
  3  7  1  0  0  0  0
  5  1  1  0  0  0  0
  5  6  1  0  0  0  0
  6  7  1  0  0  0  0
  6  9  2  0  0  0  0
  7  2  2  0  0  0  0
  8 10  2  0  0  0  0
  9  8  1  0  0  0  0
 10 17  1  0  0  0  0
 12 11  2  0  0  0  0
 12  9  1  0  0  0  0
 13  1  1  0  0  0  0
 14 13  1  0  0  0  0
 16 14  1  0  0  0  0
 16 15  1  0  0  0  0
 17 18  1  0  0  0  0
 18 20  2  0  0  0  0
 19 18  1  0  0  0  0
 19 21  1  0  0  0  0
 22 23  2  0  0  0  0
 23 25  1  0  0  0  0
 23 24  1  0  0  0  0
 25 24  1  0  0  0  0
 25 21  1  1  0  0  0
M  END
>  <MODEL>
7

>  <REMARK>
 VINA RESULT:      -6.8      2.898      6.800
  Name = 
  8 active torsions:
  status: ('A' for Active; 'I' for Inactive)
    1  A    between atoms: C_1  and  N_19
    2  A    between atoms: C_7  and  C_25
    3  A    between atoms: C_13  and  C_23
    4  A    between atoms: C_14  and  N_19
    5  A    between atoms: C_14  and  O_20
    6  A    between atoms: N_15  and  C_23
    7  A    between atoms: C_18  and  C_24
    8  A    between atoms: C_22  and  C_25
                            x       y       z     vdW  Elec       q    Type
                         _______ _______ _______ _____ _____    ______ ____

>  <TORSDO>
F 8

$$$$
=
 OpenBabel10222417083D

 25 27  0  0  1  0  0  0  0  0999 V2000
  190.6120  176.9320  146.1290 C   0  0  0  0  0  0  0  0  0  0  0  0
  187.0740  177.8960  146.0930 C   0  0  0  0  0  3  0  0  0  0  0  0
  189.4110  177.3240  146.7280 C   0  0  0  0  0  0  0  0  0  0  0  0
  189.2480  177.5220  148.0950 O   0  0  0  0  0  1  0  0  0  0  0  0
  190.3970  176.8240  144.4580 S   0  0  0  0  0  0  0  0  0  0  0  0
  188.7700  177.2670  144.4870 C   0  0  0  0  0  0  0  0  0  0  0  0
  188.3820  177.5070  145.8010 C   0  0  0  0  0  0  0  0  0  0  0  0
  186.5600  177.7950  143.7100 C   0  0  0  0  0  3  0  0  0  0  0  0
  187.8790  177.4040  143.4170 C   0  0  0  0  0  0  0  0  0  0  0  0
  186.1570  178.0350  145.0370 C   0  0  0  0  0  0  0  0  0  0  0  0
  189.1140  177.9570  141.4220 N   0  0  0  0  0  2  0  0  0  0  0  0
  188.3130  177.1500  142.0360 C   0  0  0  0  0  3  0  0  0  0  0  0
  191.8570  176.6710  146.7840 N   0  0  0  0  0  2  0  0  0  0  0  0
  192.3220  175.3390  147.1390 C   0  0  0  0  0  2  0  0  0  0  0  0
  192.7240  176.6790  148.8440 C   0  0  0  0  0  1  0  0  0  0  0  0
  192.8450  175.3530  148.4330 O   0  0  0  0  0  0  0  0  0  0  0  0
  184.7610  178.4710  145.3210 C   0  0  0  0  0  2  0  0  0  0  0  0
  184.1400  179.0610  144.1010 C   0  0  0  0  0  0  0  0  0  0  0  0
  183.1760  178.3070  143.3620 N   0  0  0  0  0  2  0  0  0  0  0  0
  184.4940  180.2060  143.7120 O   0  0  0  0  0  0  0  0  0  0  0  0
  182.5280  178.8190  142.1640 C   0  0  0  0  0  2  0  0  0  0  0  0
  185.1400  179.5760  140.2880 O   0  0  0  0  0  0  0  0  0  0  0  0
  184.0160  179.0120  140.3390 C   0  0  0  0  0  0  0  0  0  0  0  0
  182.6370  178.7820  139.8060 O   0  0  0  0  0  0  0  0  0  0  0  0
  183.1110  178.1580  140.9270 C   0  0  2  0  0  3  0  0  0  0  0  0
  1  3  2  0  0  0  0
  1 13  1  0  0  0  0
  3  4  1  0  0  0  0
  5  6  1  0  0  0  0
  5  1  1  0  0  0  0
  6  7  2  0  0  0  0
  7  2  1  0  0  0  0
  7  3  1  0  0  0  0
  8 10  1  0  0  0  0
  9  8  2  0  0  0  0
  9  6  1  0  0  0  0
 10 17  1  0  0  0  0
 10  2  2  0  0  0  0
 11 12  2  0  0  0  0
 12  9  1  0  0  0  0
 13 14  1  0  0  0  0
 14 16  1  0  0  0  0
 16 15  1  0  0  0  0
 18 17  1  0  0  0  0
 19 18  1  0  0  0  0
 20 18  2  0  0  0  0
 21 19  1  0  0  0  0
 22 23  2  0  0  0  0
 23 25  1  0  0  0  0
 24 23  1  0  0  0  0
 24 25  1  0  0  0  0
 25 21  1  1  0  0  0
M  END
>  <MODEL>
8

>  <REMARK>
 VINA RESULT:      -6.8      3.049      6.850
  Name = 
  8 active torsions:
  status: ('A' for Active; 'I' for Inactive)
    1  A    between atoms: C_1  and  N_19
    2  A    between atoms: C_7  and  C_25
    3  A    between atoms: C_13  and  C_23
    4  A    between atoms: C_14  and  N_19
    5  A    between atoms: C_14  and  O_20
    6  A    between atoms: N_15  and  C_23
    7  A    between atoms: C_18  and  C_24
    8  A    between atoms: C_22  and  C_25
                            x       y       z     vdW  Elec       q    Type
                         _______ _______ _______ _____ _____    ______ ____

>  <TORSDO>
F 8

$$$$
=
 OpenBabel10222417083D

 25 27  0  0  1  0  0  0  0  0999 V2000
  187.0960  177.6380  144.8420 C   0  0  0  0  0  0  0  0  0  0  0  0
  189.6160  177.6130  142.1770 C   0  0  0  0  0  3  0  0  0  0  0  0
  187.5150  177.7040  143.5100 C   0  0  0  0  0  0  0  0  0  0  0  0
  186.6590  177.8800  142.4280 O   0  0  0  0  0  1  0  0  0  0  0  0
  188.4400  177.4410  145.8440 S   0  0  0  0  0  0  0  0  0  0  0  0
  189.5640  177.4300  144.5880 C   0  0  0  0  0  0  0  0  0  0  0  0
  188.9020  177.5840  143.3750 C   0  0  0  0  0  0  0  0  0  0  0  0
  191.6770  177.3270  143.4500 C   0  0  0  0  0  3  0  0  0  0  0  0
  190.9550  177.2990  144.6570 C   0  0  0  0  0  0  0  0  0  0  0  0
  191.0140  177.4780  142.2180 C   0  0  0  0  0  0  0  0  0  0  0  0
  192.0380  175.9860  146.3650 N   0  0  0  0  0  2  0  0  0  0  0  0
  191.6350  177.1420  145.9500 C   0  0  0  0  0  3  0  0  0  0  0  0
  185.7540  177.7350  145.3280 N   0  0  0  0  0  2  0  0  0  0  0  0
  185.2720  178.8210  146.1680 C   0  0  0  0  0  2  0  0  0  0  0  0
  183.7370  178.6960  144.5900 C   0  0  0  0  0  1  0  0  0  0  0  0
  183.9130  179.0310  145.9320 O   0  0  0  0  0  0  0  0  0  0  0  0
  191.8000  177.5270  140.9530 C   0  0  0  0  0  2  0  0  0  0  0  0
  190.9390  177.1730  139.7890 C   0  0  0  0  0  0  0  0  0  0  0  0
  190.1470  178.1840  139.1610 N   0  0  0  0  0  2  0  0  0  0  0  0
  190.8910  175.9790  139.3900 O   0  0  0  0  0  0  0  0  0  0  0  0
  189.2850  177.9100  138.0200 C   0  0  0  0  0  2  0  0  0  0  0  0
  186.7360  176.0520  137.0380 O   0  0  0  0  0  0  0  0  0  0  0  0
  187.1010  177.1430  137.5470 C   0  0  0  0  0  0  0  0  0  0  0  0
  187.0780  178.6390  137.6060 O   0  0  0  0  0  0  0  0  0  0  0  0
  187.8300  177.8760  138.4560 C   0  0  2  0  0  3  0  0  0  0  0  0
  1 13  1  0  0  0  0
  1  5  1  0  0  0  0
  2 10  2  0  0  0  0
  2  7  1  0  0  0  0
  3  1  2  0  0  0  0
  4  3  1  0  0  0  0
  6  9  1  0  0  0  0
  6  5  1  0  0  0  0
  7  3  1  0  0  0  0
  7  6  2  0  0  0  0
  8  9  2  0  0  0  0
  9 12  1  0  0  0  0
 10  8  1  0  0  0  0
 12 11  2  0  0  0  0
 13 14  1  0  0  0  0
 15 16  1  0  0  0  0
 16 14  1  0  0  0  0
 17 10  1  0  0  0  0
 18 17  1  0  0  0  0
 19 18  1  0  0  0  0
 20 18  2  0  0  0  0
 21 19  1  0  0  0  0
 22 23  2  0  0  0  0
 23 24  1  0  0  0  0
 23 25  1  0  0  0  0
 24 25  1  0  0  0  0
 25 21  1  6  0  0  0
M  END
>  <MODEL>
9

>  <REMARK>
 VINA RESULT:      -6.7      2.264      3.026
  Name = 
  8 active torsions:
  status: ('A' for Active; 'I' for Inactive)
    1  A    between atoms: C_1  and  N_19
    2  A    between atoms: C_7  and  C_25
    3  A    between atoms: C_13  and  C_23
    4  A    between atoms: C_14  and  N_19
    5  A    between atoms: C_14  and  O_20
    6  A    between atoms: N_15  and  C_23
    7  A    between atoms: C_18  and  C_24
    8  A    between atoms: C_22  and  C_25
                            x       y       z     vdW  Elec       q    Type
                         _______ _______ _______ _____ _____    ______ ____

>  <TORSDO>
F 8

$$$$
