=
 OpenBabel10222415333D

 54 61  0  0  1  0  0  0  0  0999 V2000
  187.7530  179.4360  136.7840 C   0  0  0  0  0  2  0  0  0  0  0  0
  190.5000  177.7770  144.3580 C   0  0  0  0  0  0  0  0  0  0  0  0
  188.3590  175.8880  136.9210 C   0  0  1  0  0  3  0  0  0  0  0  0
  186.3730  178.8850  136.4840 C   0  0  1  0  0  3  0  0  0  0  0  0
  191.6720  175.7810  137.8500 C   0  0  0  0  0  2  0  0  0  0  0  0
  190.4640  176.0530  139.8750 O   0  0  0  0  0  0  0  0  0  0  0  0
  192.2670  173.5570  136.7070 N   0  0  0  0  0  2  0  0  0  0  0  0
  187.8520  176.7070  143.7570 C   0  0  1  0  0  3  0  0  0  0  0  0
  191.5120  177.6190  141.3590 C   0  0  0  0  0  2  0  0  0  0  0  0
  186.4510  177.4130  136.8470 C   0  0  1  0  0  3  0  0  0  0  0  0
  189.2030  175.5050  143.5230 S   0  0  0  0  0  0  0  0  0  0  0  0
  188.1320  177.5300  144.9840 C   0  0  0  0  0  3  0  0  0  0  0  0
  189.3410  178.0280  145.2490 C   0  0  0  0  0  0  0  0  0  0  0  0
  190.0670  174.1790  137.3280 N   0  0  0  0  0  0  0  0  0  0  0  0
  191.5860  178.6450  144.4090 O   0  0  0  0  0  1  0  0  0  0  0  0
  187.7690  177.1380  137.4450 N   0  0  2  0  0  0  0  0  0  0  0  0
  186.1790  178.7470  139.0450 C   0  0  0  0  0  2  0  0  0  0  0  0
  185.5880  178.3560  137.6910 C   0  0  1  0  0  3  0  0  0  0  0  0
  189.3100  175.2490  137.9530 C   0  0  1  0  0  3  0  0  0  0  0  0
  188.6250  178.2250  136.9880 C   0  0  0  0  0  2  0  0  0  0  0  0
  184.4340  178.3220  140.8620 C   0  0  1  0  0  3  0  0  0  0  0  0
  190.3450  177.3350  140.4190 C   0  0  0  0  0  2  0  0  0  0  0  0
  190.4980  176.7580  143.4820 C   0  0  0  0  0  0  0  0  0  0  0  0
  185.4390  177.4200  141.5770 C   0  0  0  0  0  2  0  0  0  0  0  0
  186.3470  178.2430  142.4710 C   0  0  0  0  0  2  0  0  0  0  0  0
  190.3630  176.2230  138.4920 C   0  0  2  0  0  3  0  0  0  0  0  0
  191.3180  174.4650  137.2690 C   0  0  0  0  0  0  0  0  0  0  0  0
  187.7160  177.5950  142.5270 C   0  0  0  0  0  2  0  0  0  0  0  0
  185.1060  179.3570  139.9440 C   0  0  0  0  0  2  0  0  0  0  0  0
  191.5990  176.5870  142.4800 C   0  0  0  0  0  2  0  0  0  0  0  0
  189.5070  178.8860  146.4560 C   0  0  0  0  0  1  0  0  0  0  0  0
  187.3390  174.9190  136.5720 N   0  0  0  0  0  0  0  0  0  0  0  0
  187.2380  174.4830  135.3700 C   0  0  0  0  0  2  0  0  0  0  0  0
  183.4180  177.4820  140.1020 C   0  0  0  0  0  2  0  0  0  0  0  0
  182.0100  177.8180  140.5750 C   0  0  2  0  0  3  0  0  0  0  0  0
  181.1240  176.8250  140.1510 O   0  0  0  0  0  0  0  0  0  0  0  0
  181.8940  175.8910  139.6350 O   0  0  0  0  0  1  0  0  0  0  0  0
  181.5720  179.1540  139.9990 C   0  0  0  0  0  2  0  0  0  0  0  0
  180.1830  179.8110  140.9050 S   0  0  0  0  0  0  0  0  0  0  0  0
  180.0290  181.2680  140.5710 O   0  0  0  0  0  0  0  0  0  0  0  0
  178.9310  179.0770  140.5110 O   0  0  0  0  0  0  0  0  0  0  0  0
  180.4730  179.6390  142.6560 C   0  0  0  0  0  2  0  0  0  0  0  0
  179.3110  178.9300  143.3290 C   0  0  0  0  0  3  0  0  0  0  0  0
  179.0430  179.5450  144.5510 O   0  0  0  0  0  1  0  0  0  0  0  0
  179.6330  177.5910  143.5490 O   0  0  0  0  0  1  0  0  0  0  0  0
  193.6960  173.8330  136.6740 C   0  0  0  0  0  2  0  0  0  0  0  0
  195.6730  173.2570  138.0640 N   0  0  1  0  0  0  0  0  0  0  0  0
  194.8700  171.6320  136.4580 C   0  0  1  0  0  3  0  0  0  0  0  0
  196.8010  172.4730  137.5170 C   0  0  1  0  0  3  0  0  0  0  0  0
  196.2200  170.2350  137.0840 C   0  0  0  0  0  2  0  0  0  0  0  0
  196.3260  171.5570  136.4760 N   0  0  1  0  0  0  0  0  0  0  0  0
  196.6080  173.8540  137.0840 C   0  0  0  0  0  2  0  0  0  0  0  0
  194.7080  170.2750  137.1090 C   0  0  0  0  0  2  0  0  0  0  0  0
  194.4710  172.7400  137.4070 C   0  0  2  0  0  3  0  0  0  0  0  0
  1 20  1  0  0  0  0
  2 15  1  0  0  0  0
  2 13  1  0  0  0  0
  3 32  1  1  0  0  0
  3 16  1  0  0  0  0
  3 19  1  0  0  0  0
  4  1  1  1  0  0  0
  4 10  1  0  0  0  0
  4 18  1  0  0  0  0
  5 26  1  0  0  0  0
  6 22  1  0  0  0  0
  7 27  1  0  0  0  0
  8 28  1  6  0  0  0
  8 12  1  0  0  0  0
  9 30  1  0  0  0  0
 10 16  1  0  0  0  0
 10 18  1  0  0  0  0
 11  8  1  0  0  0  0
 12 13  2  0  0  0  0
 13 31  1  0  0  0  0
 14 19  1  0  0  0  0
 17 29  1  0  0  0  0
 18 17  1  0  0  0  0
 19 26  1  0  0  0  0
 20 16  1  0  0  0  0
 21 24  1  0  0  0  0
 22  9  1  0  0  0  0
 23 11  1  0  0  0  0
 23  2  2  0  0  0  0
 24 25  1  0  0  0  0
 25 28  1  0  0  0  0
 26  6  1  0  0  0  0
 27 14  2  0  0  0  0
 27  5  1  0  0  0  0
 29 21  1  0  0  0  0
 30 23  1  0  0  0  0
 33 32  2  0  0  0  0
 34 35  1  0  0  0  0
 34 21  1  0  0  0  0
 36 35  1  0  0  0  0
 37 36  1  0  0  0  0
 38 35  1  0  0  0  0
 38 39  1  0  0  0  0
 39 42  1  0  0  0  0
 40 39  2  0  0  0  0
 41 39  2  0  0  0  0
 42 43  1  0  0  0  0
 43 45  1  0  0  0  0
 43 44  1  0  0  0  0
 46  7  1  0  0  0  0
 46 54  1  0  0  0  0
 48 51  1  0  0  0  0
 48 53  1  0  0  0  0
 48 54  1  0  0  0  0
 49 47  1  0  0  0  0
 50 53  1  0  0  0  0
 51 50  1  0  0  0  0
 51 49  1  0  0  0  0
 52 49  1  0  0  0  0
 52 47  1  0  0  0  0
 54 47  1  0  0  0  0
M  END
>  <MODEL>
1

>  <REMARK>
 VINA RESULT:      -5.8      0.000      0.000
  Name = 
  10 active torsions:
  status: ('A' for Active; 'I' for Inactive)
    1  A    between atoms: C_1  and  C_46
    2  A    between atoms: N_2  and  C_5
    3  A    between atoms: C_9  and  C_34
    4  A    between atoms: C_9  and  C_40
    5  A    between atoms: S_10  and  C_13
    6  A    between atoms: S_10  and  C_46
    7  A    between atoms: C_13  and  C_34
    8  A    between atoms: C_14  and  N_19
    9  A    between atoms: C_14  and  C_53
   10  A    between atoms: C_34  and  O_37
                            x       y       z     vdW  Elec       q    Type
                         _______ _______ _______ _____ _____    ______ ____

>  <TORSDO>
F 10

$$$$
=
 OpenBabel10222415333D

 54 61  0  0  1  0  0  0  0  0999 V2000
  187.5430  179.4110  136.8660 C   0  0  0  0  0  2  0  0  0  0  0  0
  190.6590  177.7640  144.3000 C   0  0  0  0  0  0  0  0  0  0  0  0
  188.1490  175.8620  136.9820 C   0  0  1  0  0  3  0  0  0  0  0  0
  186.1500  178.8620  136.6360 C   0  0  1  0  0  3  0  0  0  0  0  0
  191.5040  175.7500  137.7460 C   0  0  0  0  0  2  0  0  0  0  0  0
  190.3980  176.0300  139.8270 O   0  0  0  0  0  0  0  0  0  0  0  0
  192.0370  173.5230  136.5800 N   0  0  0  0  0  2  0  0  0  0  0  0
  187.9830  176.6980  143.8320 C   0  0  1  0  0  3  0  0  0  0  0  0
  191.5210  177.5970  141.2540 C   0  0  0  0  0  2  0  0  0  0  0  0
  186.2430  177.3900  136.9990 C   0  0  1  0  0  3  0  0  0  0  0  0
  189.3170  175.4930  143.5340 S   0  0  0  0  0  0  0  0  0  0  0  0
  188.3240  177.5230  145.0420 C   0  0  0  0  0  3  0  0  0  0  0  0
  189.5460  178.0190  145.2460 C   0  0  0  0  0  0  0  0  0  0  0  0
  189.8720  174.1500  137.3080 N   0  0  0  0  0  0  0  0  0  0  0  0
  191.7470  178.6300  144.2940 O   0  0  0  0  0  1  0  0  0  0  0  0
  187.5880  177.1140  137.5310 N   0  0  2  0  0  0  0  0  0  0  0  0
  186.0820  178.7300  139.2040 C   0  0  0  0  0  2  0  0  0  0  0  0
  185.4240  178.3370  137.8820 C   0  0  1  0  0  3  0  0  0  0  0  0
  189.1480  175.2230  137.9670 C   0  0  1  0  0  3  0  0  0  0  0  0
  188.4230  178.1990  137.0300 C   0  0  0  0  0  2  0  0  0  0  0  0
  184.4290  178.3130  141.1060 C   0  0  1  0  0  3  0  0  0  0  0  0
  190.3080  177.3140  140.3740 C   0  0  0  0  0  2  0  0  0  0  0  0
  190.6120  176.7430  143.4270 C   0  0  0  0  0  0  0  0  0  0  0  0
  185.4660  177.4100  141.7730 C   0  0  0  0  0  2  0  0  0  0  0  0
  186.4190  178.2340  142.6190 C   0  0  0  0  0  2  0  0  0  0  0  0
  190.2290  176.1970  138.4510 C   0  0  2  0  0  3  0  0  0  0  0  0
  191.1190  174.4340  137.1870 C   0  0  0  0  0  0  0  0  0  0  0  0
  187.7870  177.5830  142.6080 C   0  0  0  0  0  2  0  0  0  0  0  0
  185.0560  179.3440  140.1530 C   0  0  0  0  0  2  0  0  0  0  0  0
  191.6610  176.5670  142.3720 C   0  0  0  0  0  2  0  0  0  0  0  0
  189.7730  178.8800  146.4410 C   0  0  0  0  0  1  0  0  0  0  0  0
  187.1110  174.8950  136.6850 N   0  0  0  0  0  0  0  0  0  0  0  0
  187.0600  174.3240  135.5390 C   0  0  0  0  0  2  0  0  0  0  0  0
  183.3740  177.4730  140.4000 C   0  0  0  0  0  2  0  0  0  0  0  0
  182.0700  178.2520  140.3030 C   0  0  2  0  0  3  0  0  0  0  0  0
  181.3500  178.1120  141.4920 O   0  0  0  0  0  0  0  0  0  0  0  0
  180.9090  179.3230  141.7580 O   0  0  0  0  0  1  0  0  0  0  0  0
  181.2320  177.7240  139.1500 C   0  0  0  0  0  2  0  0  0  0  0  0
  181.2710  178.8510  137.7690 S   0  0  0  0  0  0  0  0  0  0  0  0
  182.1450  178.2710  136.6930 O   0  0  0  0  0  0  0  0  0  0  0  0
  179.8800  179.0380  137.2300 O   0  0  0  0  0  0  0  0  0  0  0  0
  181.9450  180.4180  138.2910 C   0  0  0  0  0  2  0  0  0  0  0  0
  180.8910  181.5080  138.2250 C   0  0  0  0  0  3  0  0  0  0  0  0
  181.5080  182.7290  137.9580 O   0  0  0  0  0  1  0  0  0  0  0  0
  180.2150  181.5920  139.4420 O   0  0  0  0  0  1  0  0  0  0  0  0
  193.4630  173.7960  136.4760 C   0  0  0  0  0  2  0  0  0  0  0  0
  195.1910  173.6260  138.2530 N   0  0  1  0  0  0  0  0  0  0  0  0
  195.0240  171.8430  136.6220 C   0  0  1  0  0  3  0  0  0  0  0  0
  196.5260  173.0500  137.9820 C   0  0  1  0  0  3  0  0  0  0  0  0
  196.4450  170.7330  137.5790 C   0  0  0  0  0  2  0  0  0  0  0  0
  196.4370  172.0380  136.9250 N   0  0  1  0  0  0  0  0  0  0  0  0
  196.1850  174.3610  137.4390 C   0  0  0  0  0  2  0  0  0  0  0  0
  194.9750  170.4960  137.3090 C   0  0  0  0  0  2  0  0  0  0  0  0
  194.2550  172.8820  137.4090 C   0  0  2  0  0  3  0  0  0  0  0  0
  1 20  1  0  0  0  0
  2 13  1  0  0  0  0
  3 32  1  1  0  0  0
  3 16  1  0  0  0  0
  3 19  1  0  0  0  0
  4  1  1  1  0  0  0
  4 10  1  0  0  0  0
  4 18  1  0  0  0  0
  5 26  1  0  0  0  0
  6 22  1  0  0  0  0
  7 27  1  0  0  0  0
  8 28  1  6  0  0  0
  8 12  1  0  0  0  0
  9 30  1  0  0  0  0
 10 16  1  0  0  0  0
 10 18  1  0  0  0  0
 11  8  1  0  0  0  0
 12 13  2  0  0  0  0
 13 31  1  0  0  0  0
 14 19  1  0  0  0  0
 15  2  1  0  0  0  0
 17 29  1  0  0  0  0
 18 17  1  0  0  0  0
 19 26  1  0  0  0  0
 20 16  1  0  0  0  0
 21 24  1  0  0  0  0
 22  9  1  0  0  0  0
 23 11  1  0  0  0  0
 23  2  2  0  0  0  0
 24 25  1  0  0  0  0
 26  6  1  0  0  0  0
 27 14  2  0  0  0  0
 27  5  1  0  0  0  0
 28 25  1  0  0  0  0
 29 21  1  0  0  0  0
 30 23  1  0  0  0  0
 33 32  2  0  0  0  0
 34 21  1  0  0  0  0
 35 34  1  0  0  0  0
 35 36  1  0  0  0  0
 36 37  1  0  0  0  0
 38 35  1  0  0  0  0
 39 42  1  0  0  0  0
 39 38  1  0  0  0  0
 40 39  2  0  0  0  0
 41 39  2  0  0  0  0
 43 42  1  0  0  0  0
 43 45  1  0  0  0  0
 44 43  1  0  0  0  0
 46  7  1  0  0  0  0
 46 54  1  0  0  0  0
 48 51  1  0  0  0  0
 48 53  1  0  0  0  0
 48 54  1  0  0  0  0
 49 47  1  0  0  0  0
 51 50  1  0  0  0  0
 51 49  1  0  0  0  0
 52 49  1  0  0  0  0
 52 47  1  0  0  0  0
 53 50  1  0  0  0  0
 54 47  1  0  0  0  0
M  END
>  <MODEL>
2

>  <REMARK>
 VINA RESULT:      -5.7      1.239      2.065
  Name = 
  10 active torsions:
  status: ('A' for Active; 'I' for Inactive)
    1  A    between atoms: C_1  and  C_46
    2  A    between atoms: N_2  and  C_5
    3  A    between atoms: C_9  and  C_34
    4  A    between atoms: C_9  and  C_40
    5  A    between atoms: S_10  and  C_13
    6  A    between atoms: S_10  and  C_46
    7  A    between atoms: C_13  and  C_34
    8  A    between atoms: C_14  and  N_19
    9  A    between atoms: C_14  and  C_53
   10  A    between atoms: C_34  and  O_37
                            x       y       z     vdW  Elec       q    Type
                         _______ _______ _______ _____ _____    ______ ____

>  <TORSDO>
F 10

$$$$
=
 OpenBabel10222415333D

 54 61  0  0  1  0  0  0  0  0999 V2000
  187.6300  179.3770  136.7290 C   0  0  0  0  0  2  0  0  0  0  0  0
  190.6530  177.7790  144.2120 C   0  0  0  0  0  0  0  0  0  0  0  0
  188.2280  175.8280  136.8780 C   0  0  1  0  0  3  0  0  0  0  0  0
  186.2390  178.8280  136.4860 C   0  0  1  0  0  3  0  0  0  0  0  0
  191.5740  175.7160  137.6840 C   0  0  0  0  0  2  0  0  0  0  0  0
  190.4440  176.0120  139.7490 O   0  0  0  0  0  0  0  0  0  0  0  0
  192.1180  173.4790  136.5400 N   0  0  0  0  0  2  0  0  0  0  0  0
  187.9810  176.7130  143.7200 C   0  0  1  0  0  3  0  0  0  0  0  0
  191.5510  177.5880  141.1780 C   0  0  0  0  0  2  0  0  0  0  0  0
  186.3250  177.3590  136.8610 C   0  0  1  0  0  3  0  0  0  0  0  0
  189.3170  175.5040  143.4470 S   0  0  0  0  0  0  0  0  0  0  0  0
  188.3090  177.5470  144.9270 C   0  0  0  0  0  3  0  0  0  0  0  0
  189.5290  178.0420  145.1430 C   0  0  0  0  0  0  0  0  0  0  0  0
  189.9450  174.1150  137.2370 N   0  0  0  0  0  0  0  0  0  0  0  0
  191.7430  178.6430  144.2130 O   0  0  0  0  0  1  0  0  0  0  0  0
  187.6630  177.0840  137.4120 N   0  0  2  0  0  0  0  0  0  0  0  0
  186.1400  178.7150  139.0540 C   0  0  0  0  0  2  0  0  0  0  0  0
  185.4970  178.3130  137.7270 C   0  0  1  0  0  3  0  0  0  0  0  0
  189.2150  175.1940  137.8800 C   0  0  1  0  0  3  0  0  0  0  0  0
  188.5060  178.1640  136.9120 C   0  0  0  0  0  2  0  0  0  0  0  0
  184.4630  178.3140  140.9390 C   0  0  1  0  0  3  0  0  0  0  0  0
  190.3490  177.3000  140.2860 C   0  0  0  0  0  2  0  0  0  0  0  0
  190.6150  176.7510  143.3460 C   0  0  0  0  0  0  0  0  0  0  0  0
  185.4900  177.4140  141.6250 C   0  0  0  0  0  2  0  0  0  0  0  0
  186.4340  178.2430  142.4760 C   0  0  0  0  0  2  0  0  0  0  0  0
  190.2920  176.1700  138.3700 C   0  0  2  0  0  3  0  0  0  0  0  0
  191.1940  174.3970  137.1290 C   0  0  0  0  0  0  0  0  0  0  0  0
  187.8010  177.5900  142.4870 C   0  0  0  0  0  2  0  0  0  0  0  0
  185.1030  179.3380  139.9870 C   0  0  0  0  0  2  0  0  0  0  0  0
  191.6770  176.5660  142.3050 C   0  0  0  0  0  2  0  0  0  0  0  0
  189.7430  178.9110  146.3340 C   0  0  0  0  0  1  0  0  0  0  0  0
  187.1930  174.8590  136.5760 N   0  0  0  0  0  0  0  0  0  0  0  0
  187.1060  174.3410  135.4070 C   0  0  0  0  0  2  0  0  0  0  0  0
  183.4160  177.4710  140.2260 C   0  0  0  0  0  2  0  0  0  0  0  0
  182.0540  178.1440  140.3220 C   0  0  2  0  0  3  0  0  0  0  0  0
  181.8610  178.6320  141.6170 O   0  0  0  0  0  0  0  0  0  0  0  0
  180.8010  179.4060  141.5260 O   0  0  0  0  0  1  0  0  0  0  0  0
  180.9550  177.1460  139.9980 C   0  0  0  0  0  2  0  0  0  0  0  0
  180.4030  177.3340  138.3130 S   0  0  0  0  0  0  0  0  0  0  0  0
  178.9310  177.0370  138.2470 O   0  0  0  0  0  0  0  0  0  0  0  0
  180.6430  178.7470  137.8580 O   0  0  0  0  0  0  0  0  0  0  0  0
  181.2800  176.1920  137.2630 C   0  0  0  0  0  2  0  0  0  0  0  0
  181.7350  174.9750  138.0480 C   0  0  0  0  0  3  0  0  0  0  0  0
  182.9200  174.4890  137.4980 O   0  0  0  0  0  1  0  0  0  0  0  0
  180.7600  173.9800  137.9920 O   0  0  0  0  0  1  0  0  0  0  0  0
  193.5450  173.7490  136.4510 C   0  0  0  0  0  2  0  0  0  0  0  0
  195.2600  173.5890  138.2410 N   0  0  1  0  0  0  0  0  0  0  0  0
  195.0900  171.7870  136.6320 C   0  0  1  0  0  3  0  0  0  0  0  0
  196.5920  172.9990  137.9860 C   0  0  1  0  0  3  0  0  0  0  0  0
  196.4960  170.6780  137.6110 C   0  0  0  0  0  2  0  0  0  0  0  0
  196.5020  171.9750  136.9410 N   0  0  1  0  0  0  0  0  0  0  0  0
  196.2650  174.3060  137.4240 C   0  0  0  0  0  2  0  0  0  0  0  0
  195.0270  170.4480  137.3360 C   0  0  0  0  0  2  0  0  0  0  0  0
  194.3240  172.8410  137.4000 C   0  0  2  0  0  3  0  0  0  0  0  0
  1 20  1  0  0  0  0
  2 15  1  0  0  0  0
  2 13  1  0  0  0  0
  3 32  1  1  0  0  0
  3 16  1  0  0  0  0
  3 19  1  0  0  0  0
  4  1  1  1  0  0  0
  4 10  1  0  0  0  0
  4 18  1  0  0  0  0
  5 26  1  0  0  0  0
  6 22  1  0  0  0  0
  7 27  1  0  0  0  0
  8 28  1  6  0  0  0
  8 12  1  0  0  0  0
  9 30  1  0  0  0  0
 10 16  1  0  0  0  0
 10 18  1  0  0  0  0
 11  8  1  0  0  0  0
 12 13  2  0  0  0  0
 13 31  1  0  0  0  0
 14 19  1  0  0  0  0
 17 29  1  0  0  0  0
 18 17  1  0  0  0  0
 19 26  1  0  0  0  0
 20 16  1  0  0  0  0
 21 24  1  0  0  0  0
 22  9  1  0  0  0  0
 23 11  1  0  0  0  0
 23  2  2  0  0  0  0
 24 25  1  0  0  0  0
 25 28  1  0  0  0  0
 26  6  1  0  0  0  0
 27 14  2  0  0  0  0
 27  5  1  0  0  0  0
 29 21  1  0  0  0  0
 30 23  1  0  0  0  0
 33 32  2  0  0  0  0
 34 35  1  0  0  0  0
 34 21  1  0  0  0  0
 35 36  1  0  0  0  0
 37 36  1  0  0  0  0
 38 35  1  0  0  0  0
 39 38  1  0  0  0  0
 40 39  2  0  0  0  0
 41 39  2  0  0  0  0
 42 43  1  0  0  0  0
 42 39  1  0  0  0  0
 44 43  1  0  0  0  0
 45 43  1  0  0  0  0
 46  7  1  0  0  0  0
 46 54  1  0  0  0  0
 48 51  1  0  0  0  0
 48 53  1  0  0  0  0
 48 54  1  0  0  0  0
 49 47  1  0  0  0  0
 51 50  1  0  0  0  0
 51 49  1  0  0  0  0
 52 49  1  0  0  0  0
 52 47  1  0  0  0  0
 53 50  1  0  0  0  0
 54 47  1  0  0  0  0
M  END
>  <MODEL>
3

>  <REMARK>
 VINA RESULT:      -5.4      1.287      2.378
  Name = 
  10 active torsions:
  status: ('A' for Active; 'I' for Inactive)
    1  A    between atoms: C_1  and  C_46
    2  A    between atoms: N_2  and  C_5
    3  A    between atoms: C_9  and  C_34
    4  A    between atoms: C_9  and  C_40
    5  A    between atoms: S_10  and  C_13
    6  A    between atoms: S_10  and  C_46
    7  A    between atoms: C_13  and  C_34
    8  A    between atoms: C_14  and  N_19
    9  A    between atoms: C_14  and  C_53
   10  A    between atoms: C_34  and  O_37
                            x       y       z     vdW  Elec       q    Type
                         _______ _______ _______ _____ _____    ______ ____

>  <TORSDO>
F 10

$$$$
=
 OpenBabel10222415333D

 54 61  0  0  1  0  0  0  0  0999 V2000
  188.1170  179.5260  136.8690 C   0  0  0  0  0  2  0  0  0  0  0  0
  190.2070  177.6380  144.5990 C   0  0  0  0  0  0  0  0  0  0  0  0
  188.6610  175.9660  136.9650 C   0  0  1  0  0  3  0  0  0  0  0  0
  186.7600  179.0040  136.4430 C   0  0  1  0  0  3  0  0  0  0  0  0
  191.8850  175.7830  138.1600 C   0  0  0  0  0  2  0  0  0  0  0  0
  190.5180  176.0250  140.0850 O   0  0  0  0  0  0  0  0  0  0  0  0
  192.5420  173.5790  137.0120 N   0  0  0  0  0  2  0  0  0  0  0  0
  187.6030  176.6250  143.7540 C   0  0  1  0  0  3  0  0  0  0  0  0
  191.4600  177.5380  141.6900 C   0  0  0  0  0  2  0  0  0  0  0  0
  186.7880  177.5220  136.7730 C   0  0  1  0  0  3  0  0  0  0  0  0
  188.9520  175.4080  143.6010 S   0  0  0  0  0  0  0  0  0  0  0  0
  187.7920  177.4130  145.0210 C   0  0  0  0  0  3  0  0  0  0  0  0
  188.9820  177.8850  145.3980 C   0  0  0  0  0  0  0  0  0  0  0  0
  190.3070  174.2200  137.4660 N   0  0  0  0  0  0  0  0  0  0  0  0
  191.2960  178.4870  144.7610 O   0  0  0  0  0  1  0  0  0  0  0  0
  188.0480  177.2110  137.4710 N   0  0  2  0  0  0  0  0  0  0  0  0
  186.3530  178.8050  138.9750 C   0  0  0  0  0  2  0  0  0  0  0  0
  185.8700  178.4570  137.5680 C   0  0  1  0  0  3  0  0  0  0  0  0
  189.5150  175.2860  138.0540 C   0  0  1  0  0  3  0  0  0  0  0  0
  188.9540  178.2960  137.1130 C   0  0  0  0  0  2  0  0  0  0  0  0
  184.4580  178.3640  140.6310 C   0  0  1  0  0  3  0  0  0  0  0  0
  190.3710  177.2950  140.6510 C   0  0  0  0  0  2  0  0  0  0  0  0
  190.2630  176.6400  143.6990 C   0  0  0  0  0  0  0  0  0  0  0  0
  185.3880  177.4280  141.4030 C   0  0  0  0  0  2  0  0  0  0  0  0
  186.2310  178.2150  142.3890 C   0  0  0  0  0  2  0  0  0  0  0  0
  190.5340  176.2310  138.7030 C   0  0  2  0  0  3  0  0  0  0  0  0
  191.5620  174.4890  137.5180 C   0  0  0  0  0  0  0  0  0  0  0  0
  187.5810  177.5440  142.5400 C   0  0  0  0  0  2  0  0  0  0  0  0
  185.2180  179.4110  139.7980 C   0  0  0  0  0  2  0  0  0  0  0  0
  191.4400  176.4770  142.7870 C   0  0  0  0  0  2  0  0  0  0  0  0
  189.0590  178.7100  146.6360 C   0  0  0  0  0  1  0  0  0  0  0  0
  187.6610  175.0220  136.5080 N   0  0  0  0  0  0  0  0  0  0  0  0
  187.5930  174.6910  135.2710 C   0  0  0  0  0  2  0  0  0  0  0  0
  183.4970  177.5590  139.7690 C   0  0  0  0  0  2  0  0  0  0  0  0
  182.1130  178.1940  139.8030 C   0  0  2  0  0  3  0  0  0  0  0  0
  181.1380  177.1930  139.8000 O   0  0  0  0  0  0  0  0  0  0  0  0
  181.2170  176.6560  138.6010 O   0  0  0  0  0  1  0  0  0  0  0  0
  181.9170  179.0820  138.5870 C   0  0  0  0  0  2  0  0  0  0  0  0
  180.6690  180.3170  138.8970 S   0  0  0  0  0  0  0  0  0  0  0  0
  179.3980  179.9090  138.2060 O   0  0  0  0  0  0  0  0  0  0  0  0
  180.4170  180.4190  140.3760 O   0  0  0  0  0  0  0  0  0  0  0  0
  181.2070  181.8910  138.2540 C   0  0  0  0  0  2  0  0  0  0  0  0
  180.1630  182.4790  137.3230 C   0  0  0  0  0  3  0  0  0  0  0  0
  180.4780  182.1400  136.0070 O   0  0  0  0  0  1  0  0  0  0  0  0
  180.1420  183.8670  137.4460 O   0  0  0  0  0  1  0  0  0  0  0  0
  193.9720  173.8330  137.1040 C   0  0  0  0  0  2  0  0  0  0  0  0
  195.6310  173.7390  135.2580 N   0  0  1  0  0  0  0  0  0  0  0  0
  194.8900  175.9070  136.0420 C   0  0  1  0  0  3  0  0  0  0  0  0
  196.7260  174.7270  135.1500 C   0  0  1  0  0  3  0  0  0  0  0  0
  195.9510  176.8780  134.5940 C   0  0  0  0  0  2  0  0  0  0  0  0
  196.3070  176.0130  135.7140 N   0  0  1  0  0  0  0  0  0  0  0  0
  196.7700  173.7170  136.2030 C   0  0  0  0  0  2  0  0  0  0  0  0
  194.4690  176.7790  134.8790 C   0  0  0  0  0  2  0  0  0  0  0  0
  194.4890  174.4660  135.8140 C   0  0  2  0  0  3  0  0  0  0  0  0
  1 20  1  0  0  0  0
  2 15  1  0  0  0  0
  2 13  1  0  0  0  0
  3 32  1  1  0  0  0
  3 16  1  0  0  0  0
  3 19  1  0  0  0  0
  4 10  1  0  0  0  0
  4  1  1  1  0  0  0
  4 18  1  0  0  0  0
  5 26  1  0  0  0  0
  6 22  1  0  0  0  0
  7 46  1  0  0  0  0
  7 27  1  0  0  0  0
  8 28  1  6  0  0  0
  8 12  1  0  0  0  0
  9 30  1  0  0  0  0
 10 16  1  0  0  0  0
 10 18  1  0  0  0  0
 11 23  1  0  0  0  0
 11  8  1  0  0  0  0
 12 13  2  0  0  0  0
 13 31  1  0  0  0  0
 14 27  2  0  0  0  0
 14 19  1  0  0  0  0
 17 29  1  0  0  0  0
 18 17  1  0  0  0  0
 19 26  1  0  0  0  0
 20 16  1  0  0  0  0
 21 24  1  0  0  0  0
 22  9  1  0  0  0  0
 23  2  2  0  0  0  0
 24 25  1  0  0  0  0
 25 28  1  0  0  0  0
 26  6  1  0  0  0  0
 27  5  1  0  0  0  0
 29 21  1  0  0  0  0
 30 23  1  0  0  0  0
 33 32  2  0  0  0  0
 34 35  1  0  0  0  0
 34 21  1  0  0  0  0
 36 35  1  0  0  0  0
 37 36  1  0  0  0  0
 38 39  1  0  0  0  0
 38 35  1  0  0  0  0
 39 41  2  0  0  0  0
 40 39  2  0  0  0  0
 42 39  1  0  0  0  0
 43 45  1  0  0  0  0
 43 42  1  0  0  0  0
 44 43  1  0  0  0  0
 47 54  1  0  0  0  0
 47 52  1  0  0  0  0
 49 47  1  0  0  0  0
 49 51  1  0  0  0  0
 49 52  1  0  0  0  0
 50 53  1  0  0  0  0
 50 51  1  0  0  0  0
 51 48  1  0  0  0  0
 53 48  1  0  0  0  0
 54 48  1  0  0  0  0
 54 46  1  0  0  0  0
M  END
>  <MODEL>
4

>  <REMARK>
 VINA RESULT:      -5.3      1.677      2.790
  Name = 
  10 active torsions:
  status: ('A' for Active; 'I' for Inactive)
    1  A    between atoms: C_1  and  C_46
    2  A    between atoms: N_2  and  C_5
    3  A    between atoms: C_9  and  C_34
    4  A    between atoms: C_9  and  C_40
    5  A    between atoms: S_10  and  C_13
    6  A    between atoms: S_10  and  C_46
    7  A    between atoms: C_13  and  C_34
    8  A    between atoms: C_14  and  N_19
    9  A    between atoms: C_14  and  C_53
   10  A    between atoms: C_34  and  O_37
                            x       y       z     vdW  Elec       q    Type
                         _______ _______ _______ _____ _____    ______ ____

>  <TORSDO>
F 10

$$$$
=
 OpenBabel10222415333D

 54 61  0  0  1  0  0  0  0  0999 V2000
  187.9650  179.6240  136.9380 C   0  0  0  0  0  2  0  0  0  0  0  0
  189.9850  177.7740  144.6960 C   0  0  0  0  0  0  0  0  0  0  0  0
  188.7670  176.1130  137.0000 C   0  0  1  0  0  3  0  0  0  0  0  0
  186.6620  179.0110  136.4680 C   0  0  1  0  0  3  0  0  0  0  0  0
  191.9630  176.1480  138.2800 C   0  0  0  0  0  2  0  0  0  0  0  0
  190.5320  176.2590  140.1700 O   0  0  0  0  0  0  0  0  0  0  0  0
  192.8100  174.0160  137.1210 N   0  0  0  0  0  2  0  0  0  0  0  0
  187.4860  176.5860  143.7670 C   0  0  1  0  0  3  0  0  0  0  0  0
  191.3190  177.8110  141.8200 C   0  0  0  0  0  2  0  0  0  0  0  0
  186.7900  177.5300  136.7790 C   0  0  1  0  0  3  0  0  0  0  0  0
  188.9240  175.4740  143.6340 S   0  0  0  0  0  0  0  0  0  0  0  0
  187.5830  177.3660  145.0480 C   0  0  0  0  0  3  0  0  0  0  0  0
  188.7250  177.9190  145.4640 C   0  0  0  0  0  0  0  0  0  0  0  0
  190.5230  174.4840  137.5220 N   0  0  0  0  0  0  0  0  0  0  0  0
  191.0050  178.6980  144.8990 O   0  0  0  0  0  1  0  0  0  0  0  0
  188.0510  177.3020  137.5060 N   0  0  2  0  0  0  0  0  0  0  0  0
  186.2040  178.7440  138.9850 C   0  0  0  0  0  2  0  0  0  0  0  0
  185.7860  178.3830  137.5610 C   0  0  1  0  0  3  0  0  0  0  0  0
  189.6400  175.4800  138.1030 C   0  0  1  0  0  3  0  0  0  0  0  0
  188.8830  178.4550  137.1880 C   0  0  0  0  0  2  0  0  0  0  0  0
  184.3050  178.1390  140.5830 C   0  0  1  0  0  3  0  0  0  0  0  0
  190.2780  177.5060  140.7490 C   0  0  0  0  0  2  0  0  0  0  0  0
  190.1390  176.7970  143.7840 C   0  0  0  0  0  0  0  0  0  0  0  0
  185.2800  177.2620  141.3670 C   0  0  0  0  0  2  0  0  0  0  0  0
  186.0370  178.0930  142.3860 C   0  0  0  0  0  2  0  0  0  0  0  0
  190.5690  176.4870  138.7920 C   0  0  2  0  0  3  0  0  0  0  0  0
  191.7540  174.8430  137.6120 C   0  0  0  0  0  0  0  0  0  0  0  0
  187.4280  177.5210  142.5650 C   0  0  0  0  0  2  0  0  0  0  0  0
  185.0070  179.2510  139.7850 C   0  0  0  0  0  2  0  0  0  0  0  0
  191.3480  176.7350  142.9030 C   0  0  0  0  0  2  0  0  0  0  0  0
  188.7090  178.7280  146.7150 C   0  0  0  0  0  1  0  0  0  0  0  0
  187.8510  175.1050  136.5030 N   0  0  0  0  0  0  0  0  0  0  0  0
  187.8900  174.7380  135.2760 C   0  0  0  0  0  2  0  0  0  0  0  0
  183.4280  177.2790  139.6840 C   0  0  0  0  0  2  0  0  0  0  0  0
  182.0110  177.8360  139.6550 C   0  0  2  0  0  3  0  0  0  0  0  0
  181.9610  178.9480  138.8110 O   0  0  0  0  0  0  0  0  0  0  0  0
  181.6500  178.4550  137.6310 O   0  0  0  0  0  1  0  0  0  0  0  0
  181.5870  178.2540  141.0530 C   0  0  0  0  0  2  0  0  0  0  0  0
  179.8200  178.1190  141.2470 S   0  0  0  0  0  0  0  0  0  0  0  0
  179.5100  177.8050  142.6840 O   0  0  0  0  0  0  0  0  0  0  0  0
  179.1700  179.4230  140.8740 O   0  0  0  0  0  0  0  0  0  0  0  0
  179.2000  176.8050  140.2130 C   0  0  0  0  0  2  0  0  0  0  0  0
  179.7310  175.4590  140.6740 C   0  0  0  0  0  3  0  0  0  0  0  0
  179.7120  174.5670  139.6020 O   0  0  0  0  0  1  0  0  0  0  0  0
  178.9330  174.9590  141.7020 O   0  0  0  0  0  1  0  0  0  0  0  0
  194.2150  174.3730  137.2550 C   0  0  0  0  0  2  0  0  0  0  0  0
  196.3310  173.6160  138.3140 N   0  0  1  0  0  0  0  0  0  0  0  0
  195.1950  172.1160  136.7900 C   0  0  1  0  0  3  0  0  0  0  0  0
  197.3120  172.7900  137.5780 C   0  0  1  0  0  3  0  0  0  0  0  0
  196.5250  170.6120  137.1580 C   0  0  0  0  0  2  0  0  0  0  0  0
  196.6290  171.9520  136.5880 N   0  0  1  0  0  0  0  0  0  0  0  0
  197.1510  174.1970  137.2270 C   0  0  0  0  0  2  0  0  0  0  0  0
  195.0390  170.7440  137.4100 C   0  0  0  0  0  2  0  0  0  0  0  0
  195.0140  173.2030  137.8260 C   0  0  2  0  0  3  0  0  0  0  0  0
  1 20  1  0  0  0  0
  2 15  1  0  0  0  0
  2 13  1  0  0  0  0
  3 32  1  1  0  0  0
  3 16  1  0  0  0  0
  3 19  1  0  0  0  0
  4 10  1  0  0  0  0
  4  1  1  1  0  0  0
  4 18  1  0  0  0  0
  5 26  1  0  0  0  0
  6 22  1  0  0  0  0
  7 46  1  0  0  0  0
  7 27  1  0  0  0  0
  8 28  1  6  0  0  0
  8 12  1  0  0  0  0
  9 30  1  0  0  0  0
 10 16  1  0  0  0  0
 10 18  1  0  0  0  0
 11  8  1  0  0  0  0
 11 23  1  0  0  0  0
 12 13  2  0  0  0  0
 13 31  1  0  0  0  0
 14 27  2  0  0  0  0
 14 19  1  0  0  0  0
 17 29  1  0  0  0  0
 18 17  1  0  0  0  0
 19 26  1  0  0  0  0
 20 16  1  0  0  0  0
 21 24  1  0  0  0  0
 22  9  1  0  0  0  0
 23  2  2  0  0  0  0
 24 25  1  0  0  0  0
 25 28  1  0  0  0  0
 26  6  1  0  0  0  0
 27  5  1  0  0  0  0
 29 21  1  0  0  0  0
 30 23  1  0  0  0  0
 33 32  2  0  0  0  0
 34 21  1  0  0  0  0
 35 34  1  0  0  0  0
 35 38  1  0  0  0  0
 36 35  1  0  0  0  0
 37 36  1  0  0  0  0
 38 39  1  0  0  0  0
 39 40  2  0  0  0  0
 41 39  2  0  0  0  0
 42 43  1  0  0  0  0
 42 39  1  0  0  0  0
 43 45  1  0  0  0  0
 44 43  1  0  0  0  0
 46 54  1  0  0  0  0
 48 53  1  0  0  0  0
 48 54  1  0  0  0  0
 49 47  1  0  0  0  0
 50 53  1  0  0  0  0
 51 48  1  0  0  0  0
 51 50  1  0  0  0  0
 51 49  1  0  0  0  0
 52 49  1  0  0  0  0
 52 47  1  0  0  0  0
 54 47  1  0  0  0  0
M  END
>  <MODEL>
5

>  <REMARK>
 VINA RESULT:      -5.3      1.153      1.660
  Name = 
  10 active torsions:
  status: ('A' for Active; 'I' for Inactive)
    1  A    between atoms: C_1  and  C_46
    2  A    between atoms: N_2  and  C_5
    3  A    between atoms: C_9  and  C_34
    4  A    between atoms: C_9  and  C_40
    5  A    between atoms: S_10  and  C_13
    6  A    between atoms: S_10  and  C_46
    7  A    between atoms: C_13  and  C_34
    8  A    between atoms: C_14  and  N_19
    9  A    between atoms: C_14  and  C_53
   10  A    between atoms: C_34  and  O_37
                            x       y       z     vdW  Elec       q    Type
                         _______ _______ _______ _____ _____    ______ ____

>  <TORSDO>
F 10

$$$$
=
 OpenBabel10222415333D

 54 61  0  0  1  0  0  0  0  0999 V2000
  187.8090  177.2540  141.1820 C   0  0  0  0  0  2  0  0  0  0  0  0
  183.4420  172.2110  136.3680 C   0  0  0  0  0  0  0  0  0  0  0  0
  188.6870  178.0390  137.7780 C   0  0  1  0  0  3  0  0  0  0  0  0
  187.4010  178.7100  141.0960 C   0  0  1  0  0  3  0  0  0  0  0  0
  189.7640  174.9830  136.6120 C   0  0  0  0  0  2  0  0  0  0  0  0
  187.4000  174.9320  136.4070 O   0  0  0  0  0  0  0  0  0  0  0  0
  191.4350  175.8620  134.8680 N   0  0  0  0  0  2  0  0  0  0  0  0
  182.6810  175.0230  136.2010 C   0  0  1  0  0  3  0  0  0  0  0  0
  186.4730  172.8210  137.0670 C   0  0  0  0  0  2  0  0  0  0  0  0
  187.4200  179.0370  139.6130 C   0  0  1  0  0  3  0  0  0  0  0  0
  183.8350  174.4940  134.8930 S   0  0  0  0  0  0  0  0  0  0  0  0
  181.6810  173.9290  136.4490 C   0  0  0  0  0  3  0  0  0  0  0  0
  182.0340  172.6450  136.5370 C   0  0  0  0  0  0  0  0  0  0  0  0
  189.6080  177.1190  135.7010 N   0  0  0  0  0  0  0  0  0  0  0  0
  183.8340  170.9850  136.8960 O   0  0  0  0  0  1  0  0  0  0  0  0
  187.7050  177.8050  138.8560 N   0  0  2  0  0  0  0  0  0  0  0  0
  185.2300  177.7520  140.1020 C   0  0  0  0  0  2  0  0  0  0  0  0
  186.0830  178.9930  140.3600 C   0  0  1  0  0  3  0  0  0  0  0  0
  188.4850  177.0430  136.6180 C   0  0  1  0  0  3  0  0  0  0  0  0
  188.3450  176.9130  139.8160 C   0  0  0  0  0  2  0  0  0  0  0  0
  182.8710  178.4910  139.4580 C   0  0  1  0  0  3  0  0  0  0  0  0
  186.6520  174.2980  137.4040 C   0  0  0  0  0  2  0  0  0  0  0  0
  184.3450  172.9960  135.7550 C   0  0  0  0  0  0  0  0  0  0  0  0
  183.0050  177.6950  138.1610 C   0  0  0  0  0  2  0  0  0  0  0  0
  182.6210  176.2450  138.3880 C   0  0  0  0  0  2  0  0  0  0  0  0
  188.4410  175.5800  137.0760 C   0  0  2  0  0  3  0  0  0  0  0  0
  190.2880  176.0290  135.7030 C   0  0  0  0  0  0  0  0  0  0  0  0
  183.4450  175.3600  137.4750 C   0  0  0  0  0  2  0  0  0  0  0  0
  183.7960  177.9780  140.5750 C   0  0  0  0  0  2  0  0  0  0  0  0
  185.7970  172.6290  135.7120 C   0  0  0  0  0  2  0  0  0  0  0  0
  180.9810  171.6380  136.8490 C   0  0  0  0  0  1  0  0  0  0  0  0
  188.5940  179.3850  137.2500 N   0  0  0  0  0  0  0  0  0  0  0  0
  187.6400  179.7110  136.4580 C   0  0  0  0  0  2  0  0  0  0  0  0
  183.0900  179.9730  139.1920 C   0  0  0  0  0  2  0  0  0  0  0  0
  181.7490  180.6730  139.0200 C   0  0  2  0  0  3  0  0  0  0  0  0
  180.7260  179.8500  139.4960 O   0  0  0  0  0  0  0  0  0  0  0  0
  180.5480  180.2290  140.7440 O   0  0  0  0  0  1  0  0  0  0  0  0
  181.5030  180.9740  137.5510 C   0  0  0  0  0  2  0  0  0  0  0  0
  180.1400  182.1070  137.3550 S   0  0  0  0  0  0  0  0  0  0  0  0
  178.9420  181.3460  136.8600 O   0  0  0  0  0  0  0  0  0  0  0  0
  179.8120  182.7370  138.6810 O   0  0  0  0  0  0  0  0  0  0  0  0
  180.5690  183.3640  136.1660 C   0  0  0  0  0  2  0  0  0  0  0  0
  181.0700  184.6170  136.8610 C   0  0  0  0  0  3  0  0  0  0  0  0
  181.1130  185.6650  135.9420 O   0  0  0  0  0  1  0  0  0  0  0  0
  182.3490  184.4010  137.3710 O   0  0  0  0  0  1  0  0  0  0  0  0
  192.1930  174.6210  134.8120 C   0  0  0  0  0  2  0  0  0  0  0  0
  194.6100  174.0510  134.9020 N   0  0  1  0  0  0  0  0  0  0  0  0
  193.3880  174.2600  136.9830 C   0  0  1  0  0  3  0  0  0  0  0  0
  195.1460  173.1110  135.9100 C   0  0  1  0  0  3  0  0  0  0  0  0
  195.0810  173.9920  138.0910 C   0  0  0  0  0  2  0  0  0  0  0  0
  194.3440  173.1700  137.1360 N   0  0  1  0  0  0  0  0  0  0  0  0
  194.3300  172.6000  134.8130 C   0  0  0  0  0  2  0  0  0  0  0  0
  194.1300  175.1590  137.9480 C   0  0  0  0  0  2  0  0  0  0  0  0
  193.5160  174.7650  135.5620 C   0  0  2  0  0  3  0  0  0  0  0  0
  2 13  1  0  0  0  0
  2 15  1  0  0  0  0
  3 32  1  6  0  0  0
  3 16  1  0  0  0  0
  4  1  1  6  0  0  0
  5 26  1  0  0  0  0
  6 26  1  0  0  0  0
  6 22  1  0  0  0  0
  7 27  1  0  0  0  0
  8 12  1  1  0  0  0
  8 28  1  0  0  0  0
  9 22  1  0  0  0  0
 10 18  1  0  0  0  0
 10  4  1  0  0  0  0
 11 23  1  0  0  0  0
 11  8  1  0  0  0  0
 12 13  2  0  0  0  0
 13 31  1  0  0  0  0
 14 27  2  0  0  0  0
 14 19  1  0  0  0  0
 16 10  1  0  0  0  0
 16 20  1  0  0  0  0
 17 18  1  0  0  0  0
 17 29  1  0  0  0  0
 18  4  1  0  0  0  0
 19 26  1  0  0  0  0
 19  3  1  0  0  0  0
 20  1  1  0  0  0  0
 21 29  1  0  0  0  0
 23  2  2  0  0  0  0
 24 25  1  0  0  0  0
 24 21  1  0  0  0  0
 27  5  1  0  0  0  0
 28 25  1  0  0  0  0
 30 23  1  0  0  0  0
 30  9  1  0  0  0  0
 33 32  2  0  0  0  0
 34 21  1  0  0  0  0
 35 34  1  0  0  0  0
 35 36  1  0  0  0  0
 36 37  1  0  0  0  0
 38 35  1  0  0  0  0
 39 38  1  0  0  0  0
 39 41  2  0  0  0  0
 40 39  2  0  0  0  0
 42 43  1  0  0  0  0
 42 39  1  0  0  0  0
 43 45  1  0  0  0  0
 44 43  1  0  0  0  0
 46  7  1  0  0  0  0
 46 54  1  0  0  0  0
 47 54  1  0  0  0  0
 47 49  1  0  0  0  0
 48 51  1  0  0  0  0
 48 53  1  0  0  0  0
 49 51  1  0  0  0  0
 51 50  1  0  0  0  0
 52 47  1  0  0  0  0
 52 49  1  0  0  0  0
 53 50  1  0  0  0  0
 54 48  1  0  0  0  0
M  END
>  <MODEL>
6

>  <REMARK>
 VINA RESULT:      -4.0      3.385      6.361
  Name = 
  10 active torsions:
  status: ('A' for Active; 'I' for Inactive)
    1  A    between atoms: C_1  and  C_46
    2  A    between atoms: N_2  and  C_5
    3  A    between atoms: C_9  and  C_34
    4  A    between atoms: C_9  and  C_40
    5  A    between atoms: S_10  and  C_13
    6  A    between atoms: S_10  and  C_46
    7  A    between atoms: C_13  and  C_34
    8  A    between atoms: C_14  and  N_19
    9  A    between atoms: C_14  and  C_53
   10  A    between atoms: C_34  and  O_37
                            x       y       z     vdW  Elec       q    Type
                         _______ _______ _______ _____ _____    ______ ____

>  <TORSDO>
F 10

$$$$
=
 OpenBabel10222415333D

 54 61  0  0  1  0  0  0  0  0999 V2000
  188.1400  177.1290  141.5990 C   0  0  0  0  0  2  0  0  0  0  0  0
  183.9440  172.3630  136.3680 C   0  0  0  0  0  0  0  0  0  0  0  0
  189.1670  178.0670  138.2760 C   0  0  1  0  0  3  0  0  0  0  0  0
  187.7460  178.5910  141.5660 C   0  0  1  0  0  3  0  0  0  0  0  0
  190.2700  175.0610  137.0100 C   0  0  0  0  0  2  0  0  0  0  0  0
  187.9170  175.0420  136.7050 O   0  0  0  0  0  0  0  0  0  0  0  0
  192.0200  176.0070  135.3830 N   0  0  0  0  0  2  0  0  0  0  0  0
  183.2120  175.1870  136.3040 C   0  0  1  0  0  3  0  0  0  0  0  0
  186.9470  172.9110  137.2230 C   0  0  0  0  0  2  0  0  0  0  0  0
  187.8310  178.9880  140.1020 C   0  0  1  0  0  3  0  0  0  0  0  0
  184.4160  174.7100  135.0220 S   0  0  0  0  0  0  0  0  0  0  0  0
  182.1940  174.0920  136.4570 C   0  0  0  0  0  3  0  0  0  0  0  0
  182.5330  172.8020  136.4980 C   0  0  0  0  0  0  0  0  0  0  0  0
  190.1690  177.2400  136.1980 N   0  0  0  0  0  0  0  0  0  0  0  0
  184.3040  171.1100  136.8520 O   0  0  0  0  0  1  0  0  0  0  0  0
  188.1390  177.7910  139.3000 N   0  0  2  0  0  0  0  0  0  0  0  0
  185.6130  177.7020  140.4360 C   0  0  0  0  0  2  0  0  0  0  0  0
  186.4630  178.9220  140.7900 C   0  0  1  0  0  3  0  0  0  0  0  0
  189.0070  177.1300  137.0630 C   0  0  1  0  0  3  0  0  0  0  0  0
  188.7310  176.8490  140.2410 C   0  0  0  0  0  2  0  0  0  0  0  0
  183.2890  178.4930  139.7300 C   0  0  1  0  0  3  0  0  0  0  0  0
  187.1230  174.3680  137.6370 C   0  0  0  0  0  2  0  0  0  0  0  0
  184.8780  173.1680  135.8320 C   0  0  0  0  0  0  0  0  0  0  0  0
  183.4720  177.7590  138.4030 C   0  0  0  0  0  2  0  0  0  0  0  0
  183.0680  176.3030  138.5430 C   0  0  0  0  0  2  0  0  0  0  0  0
  188.9330  175.6470  137.4470 C   0  0  2  0  0  3  0  0  0  0  0  0
  190.8400  176.1440  136.1770 C   0  0  0  0  0  0  0  0  0  0  0  0
  183.9230  175.4550  137.6240 C   0  0  0  0  0  2  0  0  0  0  0  0
  184.1620  177.9190  140.8590 C   0  0  0  0  0  2  0  0  0  0  0  0
  186.3280  172.7900  135.8320 C   0  0  0  0  0  2  0  0  0  0  0  0
  181.4610  171.7910  136.7170 C   0  0  0  0  0  1  0  0  0  0  0  0
  189.1060  179.4380  137.8110 N   0  0  0  0  0  0  0  0  0  0  0  0
  188.3490  179.7610  136.8280 C   0  0  0  0  0  2  0  0  0  0  0  0
  183.5300  179.9840  139.5460 C   0  0  0  0  0  2  0  0  0  0  0  0
  182.4060  180.5930  138.7170 C   0  0  2  0  0  3  0  0  0  0  0  0
  182.6720  181.9460  138.4900 O   0  0  0  0  0  0  0  0  0  0  0  0
  181.4850  182.4990  138.3590 O   0  0  0  0  0  1  0  0  0  0  0  0
  181.0850  180.4640  139.4560 C   0  0  0  0  0  2  0  0  0  0  0  0
  179.8900  179.5830  138.4690 S   0  0  0  0  0  0  0  0  0  0  0  0
  178.9680  180.5770  137.8200 O   0  0  0  0  0  0  0  0  0  0  0  0
  180.5980  178.7950  137.4020 O   0  0  0  0  0  0  0  0  0  0  0  0
  178.9370  178.4930  139.5090 C   0  0  0  0  0  2  0  0  0  0  0  0
  179.8150  177.8520  140.5680 C   0  0  0  0  0  3  0  0  0  0  0  0
  180.1350  176.5530  140.1760 O   0  0  0  0  0  1  0  0  0  0  0  0
  179.1400  177.8110  141.7870 O   0  0  0  0  0  1  0  0  0  0  0  0
  192.7710  174.7630  135.2990 C   0  0  0  0  0  2  0  0  0  0  0  0
  194.7820  175.8610  136.2600 N   0  0  1  0  0  0  0  0  0  0  0  0
  194.6660  173.4420  136.2670 C   0  0  1  0  0  3  0  0  0  0  0  0
  196.1320  175.2810  136.0990 C   0  0  1  0  0  3  0  0  0  0  0  0
  196.4100  173.2860  137.3150 C   0  0  0  0  0  2  0  0  0  0  0  0
  196.0490  173.8200  136.0060 N   0  0  1  0  0  0  0  0  0  0  0  0
  195.4670  175.8860  134.9490 C   0  0  0  0  0  2  0  0  0  0  0  0
  194.9860  172.8970  137.6420 C   0  0  0  0  0  2  0  0  0  0  0  0
  193.8670  174.7230  136.3630 C   0  0  2  0  0  3  0  0  0  0  0  0
  2 13  1  0  0  0  0
  2 15  1  0  0  0  0
  3 32  1  6  0  0  0
  3 16  1  0  0  0  0
  4  1  1  6  0  0  0
  5 26  1  0  0  0  0
  6 26  1  0  0  0  0
  6 22  1  0  0  0  0
  7 27  1  0  0  0  0
  8 12  1  1  0  0  0
  8 28  1  0  0  0  0
  9 22  1  0  0  0  0
 10 18  1  0  0  0  0
 10  4  1  0  0  0  0
 11 23  1  0  0  0  0
 11  8  1  0  0  0  0
 12 13  2  0  0  0  0
 13 31  1  0  0  0  0
 14 19  1  0  0  0  0
 16 10  1  0  0  0  0
 16 20  1  0  0  0  0
 17 18  1  0  0  0  0
 17 29  1  0  0  0  0
 18  4  1  0  0  0  0
 19 26  1  0  0  0  0
 19  3  1  0  0  0  0
 20  1  1  0  0  0  0
 21 29  1  0  0  0  0
 23  2  2  0  0  0  0
 24 25  1  0  0  0  0
 24 21  1  0  0  0  0
 27 14  2  0  0  0  0
 27  5  1  0  0  0  0
 28 25  1  0  0  0  0
 30 23  1  0  0  0  0
 30  9  1  0  0  0  0
 33 32  2  0  0  0  0
 34 21  1  0  0  0  0
 35 38  1  0  0  0  0
 35 34  1  0  0  0  0
 36 35  1  0  0  0  0
 37 36  1  0  0  0  0
 39 38  1  0  0  0  0
 39 42  1  0  0  0  0
 40 39  2  0  0  0  0
 41 39  2  0  0  0  0
 42 43  1  0  0  0  0
 43 45  1  0  0  0  0
 44 43  1  0  0  0  0
 46  7  1  0  0  0  0
 46 54  1  0  0  0  0
 47 54  1  0  0  0  0
 48 54  1  0  0  0  0
 48 53  1  0  0  0  0
 49 47  1  0  0  0  0
 50 53  1  0  0  0  0
 51 49  1  0  0  0  0
 51 48  1  0  0  0  0
 51 50  1  0  0  0  0
 52 49  1  0  0  0  0
 52 47  1  0  0  0  0
M  END
>  <MODEL>
7

>  <REMARK>
 VINA RESULT:      -4.0      2.976      5.758
  Name = 
  10 active torsions:
  status: ('A' for Active; 'I' for Inactive)
    1  A    between atoms: C_1  and  C_46
    2  A    between atoms: N_2  and  C_5
    3  A    between atoms: C_9  and  C_34
    4  A    between atoms: C_9  and  C_40
    5  A    between atoms: S_10  and  C_13
    6  A    between atoms: S_10  and  C_46
    7  A    between atoms: C_13  and  C_34
    8  A    between atoms: C_14  and  N_19
    9  A    between atoms: C_14  and  C_53
   10  A    between atoms: C_34  and  O_37
                            x       y       z     vdW  Elec       q    Type
                         _______ _______ _______ _____ _____    ______ ____

>  <TORSDO>
F 10

$$$$
=
 OpenBabel10222415333D

 54 61  0  0  1  0  0  0  0  0999 V2000
  189.0620  179.3590  136.4700 C   0  0  0  0  0  2  0  0  0  0  0  0
  181.8900  178.9360  140.4760 C   0  0  0  0  0  0  0  0  0  0  0  0
  189.4790  176.9400  139.1060 C   0  0  1  0  0  3  0  0  0  0  0  0
  189.4120  178.1140  135.6800 C   0  0  1  0  0  3  0  0  0  0  0  0
  188.6500  178.7890  141.8890 C   0  0  0  0  0  2  0  0  0  0  0  0
  186.5810  178.0450  140.9940 O   0  0  0  0  0  0  0  0  0  0  0  0
  190.1310  177.5360  143.5750 N   0  0  0  0  0  2  0  0  0  0  0  0
  182.5890  176.5390  138.9660 C   0  0  1  0  0  3  0  0  0  0  0  0
  184.9000  179.7540  141.0390 C   0  0  0  0  0  2  0  0  0  0  0  0
  189.2790  176.9710  136.6710 C   0  0  1  0  0  3  0  0  0  0  0  0
  183.0330  176.4520  140.7320 S   0  0  0  0  0  0  0  0  0  0  0  0
  181.2580  177.2230  138.8250 C   0  0  0  0  0  3  0  0  0  0  0  0
  180.9460  178.3270  139.5080 C   0  0  0  0  0  0  0  0  0  0  0  0
  189.3750  176.6060  141.5320 N   0  0  0  0  0  0  0  0  0  0  0  0
  181.7310  180.2760  140.8150 O   0  0  0  0  0  1  0  0  0  0  0  0
  188.7590  177.5000  137.9440 N   0  0  2  0  0  0  0  0  0  0  0  0
  186.8980  177.6120  135.8930 C   0  0  0  0  0  2  0  0  0  0  0  0
  188.2830  177.0890  135.5130 C   0  0  1  0  0  3  0  0  0  0  0  0
  188.5780  176.9120  140.3560 C   0  0  1  0  0  3  0  0  0  0  0  0
  189.0640  178.9250  137.9120 C   0  0  0  0  0  2  0  0  0  0  0  0
  185.1290  176.0150  134.9730 C   0  0  1  0  0  3  0  0  0  0  0  0
  185.8460  178.9160  140.1860 C   0  0  0  0  0  2  0  0  0  0  0  0
  182.9110  178.2310  140.9940 C   0  0  0  0  0  0  0  0  0  0  0  0
  184.5820  175.8490  136.3900 C   0  0  0  0  0  2  0  0  0  0  0  0
  183.5940  176.9550  136.7080 C   0  0  0  0  0  2  0  0  0  0  0  0
  187.9200  178.2640  140.6590 C   0  0  2  0  0  3  0  0  0  0  0  0
  189.4160  177.6050  142.3400 C   0  0  0  0  0  0  0  0  0  0  0  0
  183.6670  177.2810  138.1860 C   0  0  0  0  0  2  0  0  0  0  0  0
  185.8940  177.3360  134.7770 C   0  0  0  0  0  2  0  0  0  0  0  0
  183.9510  178.8800  141.8550 C   0  0  0  0  0  2  0  0  0  0  0  0
  179.6270  178.9710  139.2540 C   0  0  0  0  0  1  0  0  0  0  0  0
  189.9500  175.5940  138.8470 N   0  0  0  0  0  0  0  0  0  0  0  0
  191.1240  175.3930  138.3740 C   0  0  0  0  0  2  0  0  0  0  0  0
  185.9860  174.8160  134.5940 C   0  0  0  0  0  2  0  0  0  0  0  0
  185.9030  173.7550  135.6830 C   0  0  2  0  0  3  0  0  0  0  0  0
  187.1880  173.3020  135.9940 O   0  0  0  0  0  0  0  0  0  0  0  0
  187.3650  173.6460  137.2520 O   0  0  0  0  0  1  0  0  0  0  0  0
  185.0650  172.5810  135.2050 C   0  0  0  0  0  2  0  0  0  0  0  0
  183.7590  172.2210  136.3630 S   0  0  0  0  0  0  0  0  0  0  0  0
  183.5150  170.7380  136.3750 O   0  0  0  0  0  0  0  0  0  0  0  0
  184.1680  172.6660  137.7400 O   0  0  0  0  0  0  0  0  0  0  0  0
  182.2650  173.0570  135.8640 C   0  0  0  0  0  2  0  0  0  0  0  0
  181.3590  173.3020  137.0570 C   0  0  0  0  0  3  0  0  0  0  0  0
  180.5810  172.1680  137.2840 O   0  0  0  0  0  1  0  0  0  0  0  0
  180.5240  174.3890  136.8050 O   0  0  0  0  0  1  0  0  0  0  0  0
  190.1520  178.6320  144.5330 C   0  0  0  0  0  2  0  0  0  0  0  0
  189.1640  178.3400  146.7930 N   0  0  1  0  0  0  0  0  0  0  0  0
  187.8900  177.6110  144.8660 C   0  0  1  0  0  3  0  0  0  0  0  0
  188.3480  177.1540  147.1340 C   0  0  1  0  0  3  0  0  0  0  0  0
  186.2750  177.1330  146.0200 C   0  0  0  0  0  2  0  0  0  0  0  0
  187.6530  176.6570  145.9430 N   0  0  1  0  0  0  0  0  0  0  0  0
  189.7900  177.0090  146.9590 C   0  0  0  0  0  2  0  0  0  0  0  0
  186.4790  178.1560  144.9240 C   0  0  0  0  0  2  0  0  0  0  0  0
  188.8850  178.6260  145.3850 C   0  0  2  0  0  3  0  0  0  0  0  0
  1 20  1  0  0  0  0
  2 15  1  0  0  0  0
  2 23  2  0  0  0  0
  3 32  1  6  0  0  0
  3 19  1  0  0  0  0
  4  1  1  1  0  0  0
  4 10  1  0  0  0  0
  5 27  1  0  0  0  0
  7 46  1  0  0  0  0
  8 28  1  6  0  0  0
  8 11  1  0  0  0  0
  9 30  1  0  0  0  0
 10 16  1  0  0  0  0
 11 23  1  0  0  0  0
 12  8  1  0  0  0  0
 12 13  2  0  0  0  0
 13  2  1  0  0  0  0
 14 27  2  0  0  0  0
 16  3  1  0  0  0  0
 18  4  1  0  0  0  0
 18 17  1  0  0  0  0
 18 10  1  0  0  0  0
 19 26  1  0  0  0  0
 19 14  1  0  0  0  0
 20 16  1  0  0  0  0
 21 24  1  0  0  0  0
 22  6  1  0  0  0  0
 22  9  1  0  0  0  0
 23 30  1  0  0  0  0
 24 25  1  0  0  0  0
 25 28  1  0  0  0  0
 26  6  1  0  0  0  0
 26  5  1  0  0  0  0
 27  7  1  0  0  0  0
 29 21  1  0  0  0  0
 29 17  1  0  0  0  0
 31 13  1  0  0  0  0
 33 32  2  0  0  0  0
 34 21  1  0  0  0  0
 34 35  1  0  0  0  0
 35 36  1  0  0  0  0
 36 37  1  0  0  0  0
 38 35  1  0  0  0  0
 38 39  1  0  0  0  0
 39 40  2  0  0  0  0
 39 41  2  0  0  0  0
 42 39  1  0  0  0  0
 42 43  1  0  0  0  0
 43 44  1  0  0  0  0
 45 43  1  0  0  0  0
 46 54  1  0  0  0  0
 47 52  1  0  0  0  0
 47 49  1  0  0  0  0
 48 53  1  0  0  0  0
 48 54  1  0  0  0  0
 48 51  1  0  0  0  0
 51 50  1  0  0  0  0
 51 49  1  0  0  0  0
 52 49  1  0  0  0  0
 53 50  1  0  0  0  0
 54 47  1  0  0  0  0
M  END
>  <MODEL>
8

>  <REMARK>
 VINA RESULT:      -3.7      3.541      8.304
  Name = 
  10 active torsions:
  status: ('A' for Active; 'I' for Inactive)
    1  A    between atoms: C_1  and  C_46
    2  A    between atoms: N_2  and  C_5
    3  A    between atoms: C_9  and  C_34
    4  A    between atoms: C_9  and  C_40
    5  A    between atoms: S_10  and  C_13
    6  A    between atoms: S_10  and  C_46
    7  A    between atoms: C_13  and  C_34
    8  A    between atoms: C_14  and  N_19
    9  A    between atoms: C_14  and  C_53
   10  A    between atoms: C_34  and  O_37
                            x       y       z     vdW  Elec       q    Type
                         _______ _______ _______ _____ _____    ______ ____

>  <TORSDO>
F 10

$$$$
=
 OpenBabel10222415333D

 54 61  0  0  1  0  0  0  0  0999 V2000
  187.3020  174.2920  137.1860 C   0  0  0  0  0  2  0  0  0  0  0  0
  189.6580  177.4290  144.4160 C   0  0  0  0  0  0  0  0  0  0  0  0
  186.6730  177.8350  137.0420 C   0  0  1  0  0  3  0  0  0  0  0  0
  188.1700  174.7020  136.0130 C   0  0  1  0  0  3  0  0  0  0  0  0
  184.6210  178.2920  139.7690 C   0  0  0  0  0  2  0  0  0  0  0  0
  186.8300  178.3190  140.6370 O   0  0  0  0  0  0  0  0  0  0  0  0
  183.3050  180.3050  138.8620 N   0  0  0  0  0  2  0  0  0  0  0  0
  191.3070  178.2250  142.1430 C   0  0  1  0  0  3  0  0  0  0  0  0
  187.0150  177.1050  142.6960 C   0  0  0  0  0  2  0  0  0  0  0  0
  188.2320  176.2180  136.0830 C   0  0  1  0  0  3  0  0  0  0  0  0
  190.0190  179.4390  142.5790 S   0  0  0  0  0  0  0  0  0  0  0  0
  191.8910  177.6520  143.4040 C   0  0  0  0  0  3  0  0  0  0  0  0
  191.1330  177.2770  144.4370 C   0  0  0  0  0  0  0  0  0  0  0  0
  185.4610  179.6830  138.1020 N   0  0  0  0  0  0  0  0  0  0  0  0
  188.8910  176.6460  145.2730 O   0  0  0  0  0  1  0  0  0  0  0  0
  187.5410  176.6690  137.3030 N   0  0  2  0  0  0  0  0  0  0  0  0
  189.8800  175.2850  137.8440 C   0  0  0  0  0  2  0  0  0  0  0  0
  189.4920  175.3940  136.3700 C   0  0  1  0  0  3  0  0  0  0  0  0
  186.5110  178.7010  138.3070 C   0  0  1  0  0  3  0  0  0  0  0  0
  186.6580  175.5660  137.6660 C   0  0  0  0  0  2  0  0  0  0  0  0
  192.3390  175.9300  138.1010 C   0  0  1  0  0  3  0  0  0  0  0  0
  187.3420  177.1500  141.2080 C   0  0  0  0  0  2  0  0  0  0  0  0
  189.0560  178.2740  143.5610 C   0  0  0  0  0  0  0  0  0  0  0  0
  191.9240  177.0000  139.1100 C   0  0  0  0  0  2  0  0  0  0  0  0
  191.8090  176.4020  140.4990 C   0  0  0  0  0  2  0  0  0  0  0  0
  186.0750  177.8990  139.5390 C   0  0  2  0  0  3  0  0  0  0  0  0
  184.4580  179.4610  138.8740 C   0  0  0  0  0  0  0  0  0  0  0  0
  190.7210  177.1250  141.2670 C   0  0  0  0  0  2  0  0  0  0  0  0
  191.3160  174.7860  137.9860 C   0  0  0  0  0  2  0  0  0  0  0  0
  187.5640  178.3240  143.4330 C   0  0  0  0  0  2  0  0  0  0  0  0
  191.7970  176.6600  145.6190 C   0  0  0  0  0  1  0  0  0  0  0  0
  187.1980  178.6670  135.9780 N   0  0  0  0  0  0  0  0  0  0  0  0
  186.7510  178.5570  134.7810 C   0  0  0  0  0  2  0  0  0  0  0  0
  192.6190  176.5620  136.7460 C   0  0  0  0  0  2  0  0  0  0  0  0
  193.9860  176.1210  136.2410 C   0  0  2  0  0  3  0  0  0  0  0  0
  194.3870  176.9500  135.1890 O   0  0  0  0  0  0  0  0  0  0  0  0
  195.1170  177.8830  135.7620 O   0  0  0  0  0  1  0  0  0  0  0  0
  193.9210  174.6860  135.7460 C   0  0  0  0  0  2  0  0  0  0  0  0
  195.1720  173.6870  136.5300 S   0  0  0  0  0  0  0  0  0  0  0  0
  194.5050  172.5470  137.2470 O   0  0  0  0  0  0  0  0  0  0  0  0
  196.1060  173.1370  135.4880 O   0  0  0  0  0  0  0  0  0  0  0  0
  196.0760  174.6720  137.7100 C   0  0  0  0  0  2  0  0  0  0  0  0
  197.5090  174.8790  137.2550 C   0  0  0  0  0  3  0  0  0  0  0  0
  198.2970  175.2100  138.3570 O   0  0  0  0  0  1  0  0  0  0  0  0
  197.5680  175.9130  136.3210 O   0  0  0  0  0  1  0  0  0  0  0  0
  182.1770  180.1080  139.7600 C   0  0  0  0  0  2  0  0  0  0  0  0
  179.8670  179.6650  138.9600 N   0  0  1  0  0  0  0  0  0  0  0  0
  181.0680  177.8860  140.0800 C   0  0  1  0  0  3  0  0  0  0  0  0
  178.9310  178.8180  139.7280 C   0  0  1  0  0  3  0  0  0  0  0  0
  179.5630  176.5510  139.7360 C   0  0  0  0  0  2  0  0  0  0  0  0
  179.6700  177.8000  140.4830 N   0  0  1  0  0  0  0  0  0  0  0  0
  179.2730  180.1460  140.2270 C   0  0  0  0  0  2  0  0  0  0  0  0
  181.0020  176.6080  139.2730 C   0  0  0  0  0  2  0  0  0  0  0  0
  181.1960  179.0930  139.1770 C   0  0  2  0  0  3  0  0  0  0  0  0
  1 20  1  0  0  0  0
  2 13  1  0  0  0  0
  2 15  1  0  0  0  0
  3 32  1  6  0  0  0
  3 16  1  0  0  0  0
  3 19  1  0  0  0  0
  4 10  1  0  0  0  0
  4 18  1  0  0  0  0
  4  1  1  1  0  0  0
  6 22  1  0  0  0  0
  7 27  1  0  0  0  0
  7 46  1  0  0  0  0
  8 28  1  6  0  0  0
  8 11  1  0  0  0  0
  8 12  1  0  0  0  0
  9 30  1  0  0  0  0
 10 18  1  0  0  0  0
 10 16  1  0  0  0  0
 11 23  1  0  0  0  0
 12 13  2  0  0  0  0
 13 31  1  0  0  0  0
 14 19  1  0  0  0  0
 14 27  2  0  0  0  0
 16 20  1  0  0  0  0
 17 29  1  0  0  0  0
 18 17  1  0  0  0  0
 19 26  1  0  0  0  0
 21 24  1  0  0  0  0
 22  9  1  0  0  0  0
 23  2  2  0  0  0  0
 24 25  1  0  0  0  0
 25 28  1  0  0  0  0
 26  5  1  0  0  0  0
 26  6  1  0  0  0  0
 27  5  1  0  0  0  0
 29 21  1  0  0  0  0
 30 23  1  0  0  0  0
 33 32  2  0  0  0  0
 34 21  1  0  0  0  0
 35 34  1  0  0  0  0
 36 37  1  0  0  0  0
 36 35  1  0  0  0  0
 38 35  1  0  0  0  0
 38 39  1  0  0  0  0
 39 40  2  0  0  0  0
 39 42  1  0  0  0  0
 41 39  2  0  0  0  0
 43 42  1  0  0  0  0
 43 44  1  0  0  0  0
 45 43  1  0  0  0  0
 47 54  1  0  0  0  0
 47 49  1  0  0  0  0
 47 52  1  0  0  0  0
 48 51  1  0  0  0  0
 49 52  1  0  0  0  0
 49 51  1  0  0  0  0
 50 51  1  0  0  0  0
 53 50  1  0  0  0  0
 53 48  1  0  0  0  0
 54 46  1  0  0  0  0
 54 48  1  0  0  0  0
M  END
>  <MODEL>
9

>  <REMARK>
 VINA RESULT:      -3.0      3.933     11.144
  Name = 
  10 active torsions:
  status: ('A' for Active; 'I' for Inactive)
    1  A    between atoms: C_1  and  C_46
    2  A    between atoms: N_2  and  C_5
    3  A    between atoms: C_9  and  C_34
    4  A    between atoms: C_9  and  C_40
    5  A    between atoms: S_10  and  C_13
    6  A    between atoms: S_10  and  C_46
    7  A    between atoms: C_13  and  C_34
    8  A    between atoms: C_14  and  N_19
    9  A    between atoms: C_14  and  C_53
   10  A    between atoms: C_34  and  O_37
                            x       y       z     vdW  Elec       q    Type
                         _______ _______ _______ _____ _____    ______ ____

>  <TORSDO>
F 10

$$$$
