=
 OpenBabel10222420353D

 41 46  0  0  1  0  0  0  0  0999 V2000
  188.7810  177.4100  137.8240 C   0  0  1  0  0  0  0  0  0  0  0  0
  189.9390  176.5090  137.4590 C   0  0  0  0  0  2  0  0  0  0  0  0
  189.8900  176.7920  139.8610 N   0  0  0  0  0  0  0  0  0  0  0  0
  190.6530  176.1830  138.7710 C   0  0  0  0  0  2  0  0  0  0  0  0
  189.0700  177.8300  139.2560 C   0  0  0  0  0  2  0  0  0  0  0  0
  188.9280  179.8110  137.5710 O   0  0  0  0  0  1  0  0  0  0  0  0
  188.7280  178.6120  136.8800 C   0  0  0  0  0  2  0  0  0  0  0  0
  190.8500  177.4630  140.7250 C   0  0  0  0  0  2  0  0  0  0  0  0
  190.5930  177.1020  142.1890 C   0  0  0  0  0  2  0  0  0  0  0  0
  189.6280  178.0250  142.7760 N   0  0  0  0  0  2  0  0  0  0  0  0
  188.7920  177.2730  143.7110 C   0  0  1  0  0  3  0  0  0  0  0  0
  189.0740  177.0500  146.8140 C   0  0  1  0  0  3  0  0  0  0  0  0
  187.4630  178.3360  147.8840 C   0  0  0  0  0  3  0  0  0  0  0  0
  188.5730  178.0390  144.9430 N   0  0  0  0  0  0  0  0  0  0  0  0
  189.7680  177.9180  145.7820 C   0  0  0  0  0  2  0  0  0  0  0  0
  186.8880  177.9610  146.6420 N   0  0  0  0  0  2  0  0  0  0  0  0
  188.6860  177.8520  148.0190 C   0  0  0  0  0  3  0  0  0  0  0  0
  187.8630  177.1780  145.8930 C   0  0  2  0  0  3  0  0  0  0  0  0
  187.5110  176.9140  143.0840 N   0  0  0  0  0  2  0  0  0  0  0  0
  186.8720  178.1060  142.5300 C   0  0  0  0  0  2  0  0  0  0  0  0
  185.3860  178.0910  142.8480 C   0  0  0  0  0  2  0  0  0  0  0  0
  185.0000  179.3370  143.6250 C   0  0  0  0  0  1  0  0  0  0  0  0
  187.5420  176.6270  137.7370 N   0  0  0  0  0  2  0  0  0  0  0  0
  186.7580  177.0080  136.5640 C   0  0  0  0  0  2  0  0  0  0  0  0
  185.2070  175.1620  135.7340 C   0  0  1  0  0  0  0  0  0  0  0  0
  184.2020  174.0390  135.4550 C   0  0  2  0  0  3  0  0  0  0  0  0
  185.4470  175.0410  137.2100 N   0  0  0  0  0  2  0  0  0  0  0  0
  185.3890  176.3550  136.6280 C   0  0  1  0  0  0  0  0  0  0  0  0
  183.8560  175.3630  135.3050 O   0  0  0  0  0  0  0  0  0  0  0  0
  183.3690  173.4070  136.5930 C   0  0  0  0  0  0  0  0  0  0  0  0
  182.6020  172.3690  136.0860 F   0  0  0  0  0  0  0  0  0  0  0  0
  184.1570  172.9270  137.6350 F   0  0  0  0  0  0  0  0  0  0  0  0
  182.5190  174.3750  137.0910 F   0  0  0  0  0  0  0  0  0  0  0  0
  184.2030  177.1680  137.1840 C   0  0  0  0  0  2  0  0  0  0  0  0
  182.0530  178.4290  139.2280 C   0  0  0  0  0  0  0  0  0  0  0  0
  184.4360  178.6220  139.2480 C   0  0  1  0  0  3  0  0  0  0  0  0
  182.5360  176.7120  139.3240 S   0  0  0  0  0  0  0  0  0  0  0  0
  184.1800  177.2080  138.7160 C   0  0  1  0  0  3  0  0  0  0  0  0
  185.4660  179.2660  138.5550 O   0  0  0  0  0  1  0  0  0  0  0  0
  180.8840  178.7650  139.1440 O   0  0  0  0  0  0  0  0  0  0  0  0
  183.1500  179.4240  139.1690 C   0  0  0  0  0  2  0  0  0  0  0  0
  1  7  1  6  0  0  0
  1  5  1  0  0  0  0
  2  1  1  0  0  0  0
  2  4  1  0  0  0  0
  3  8  1  0  0  0  0
  4  3  1  0  0  0  0
  5  3  1  0  0  0  0
  7  6  1  0  0  0  0
  8  9  1  0  0  0  0
  9 10  1  0  0  0  0
 11 10  1  6  0  0  0
 11 14  1  0  0  0  0
 12 15  1  6  0  0  0
 12 17  1  0  0  0  0
 13 17  2  0  0  0  0
 14 15  1  0  0  0  0
 14 18  1  0  0  0  0
 16 13  1  0  0  0  0
 18 16  1  1  0  0  0
 18 12  1  0  0  0  0
 19 11  1  0  0  0  0
 20 21  1  0  0  0  0
 20 19  1  0  0  0  0
 21 22  1  0  0  0  0
 23  1  1  0  0  0  0
 24 23  1  0  0  0  0
 25 29  1  1  0  0  0
 25 28  1  0  0  0  0
 25 27  1  0  0  0  0
 26 25  1  0  0  0  0
 26 30  1  1  0  0  0
 28 24  1  6  0  0  0
 28 34  1  0  0  0  0
 28 27  1  0  0  0  0
 29 26  1  0  0  0  0
 30 33  1  0  0  0  0
 30 32  1  0  0  0  0
 31 30  1  0  0  0  0
 35 37  1  0  0  0  0
 36 39  1  6  0  0  0
 38 34  1  6  0  0  0
 38 36  1  0  0  0  0
 38 37  1  0  0  0  0
 40 35  2  0  0  0  0
 41 35  1  0  0  0  0
 41 36  1  0  0  0  0
M  END
>  <MODEL>
1

>  <REMARK>
 VINA RESULT:      -6.7      0.000      0.000
  Name = 
  15 active torsions:
  status: ('A' for Active; 'I' for Inactive)
    1  A    between atoms: C_2  and  N_26
    2  A    between atoms: C_2  and  C_30
    3  A    between atoms: C_5  and  C_32
    4  A    between atoms: C_6  and  C_7
    5  A    between atoms: N_11  and  C_31
    6  A    between atoms: C_12  and  C_19
    7  A    between atoms: C_12  and  N_21
    8  A    between atoms: C_15  and  N_21
    9  A    between atoms: C_15  and  C_39
   10  A    between atoms: C_19  and  C_41
   11  A    between atoms: C_23  and  C_41
   12  A    between atoms: C_30  and  N_34
   13  A    between atoms: C_31  and  N_34
   14  A    between atoms: C_31  and  N_40
   15  A    between atoms: C_32  and  N_40
                            x       y       z     vdW  Elec       q    Type
                         _______ _______ _______ _____ _____    ______ ____

>  <TORSDO>
F 15

$$$$
=
 OpenBabel10222420353D

 41 46  0  0  1  0  0  0  0  0999 V2000
  188.4780  177.5110  138.0710 C   0  0  1  0  0  0  0  0  0  0  0  0
  189.7770  176.7410  138.1250 C   0  0  0  0  0  2  0  0  0  0  0  0
  189.0440  177.2060  140.3830 N   0  0  0  0  0  0  0  0  0  0  0  0
  190.1340  176.6160  139.6070 C   0  0  0  0  0  2  0  0  0  0  0  0
  188.3190  178.0780  139.4720 C   0  0  0  0  0  2  0  0  0  0  0  0
  188.9290  179.8380  137.5910 O   0  0  0  0  0  1  0  0  0  0  0  0
  188.5620  178.6180  137.0180 C   0  0  0  0  0  2  0  0  0  0  0  0
  189.6560  178.0620  141.3880 C   0  0  0  0  0  2  0  0  0  0  0  0
  189.1180  177.7210  142.7790 C   0  0  0  0  0  2  0  0  0  0  0  0
  187.6590  177.6980  142.7640 N   0  0  0  0  0  2  0  0  0  0  0  0
  187.1880  177.9780  144.1200 C   0  0  1  0  0  3  0  0  0  0  0  0
  184.5060  179.2500  143.1450 C   0  0  1  0  0  3  0  0  0  0  0  0
  182.8160  178.9090  144.7020 C   0  0  0  0  0  3  0  0  0  0  0  0
  185.7340  177.8050  144.2110 N   0  0  0  0  0  0  0  0  0  0  0  0
  185.1700  177.9150  142.8630 C   0  0  0  0  0  2  0  0  0  0  0  0
  184.0230  178.9340  145.4480 N   0  0  0  0  0  2  0  0  0  0  0  0
  183.0420  179.0770  143.4100 C   0  0  0  0  0  3  0  0  0  0  0  0
  185.1390  179.1060  144.5260 C   0  0  2  0  0  3  0  0  0  0  0  0
  187.8770  177.1180  145.0940 N   0  0  0  0  0  2  0  0  0  0  0  0
  187.5580  177.5440  146.4550 C   0  0  0  0  0  2  0  0  0  0  0  0
  188.6940  177.1710  147.3930 C   0  0  0  0  0  2  0  0  0  0  0  0
  188.8250  178.2030  148.4990 C   0  0  0  0  0  1  0  0  0  0  0  0
  187.3970  176.5710  137.7500 N   0  0  0  0  0  2  0  0  0  0  0  0
  186.5740  177.0670  136.6500 C   0  0  0  0  0  2  0  0  0  0  0  0
  184.9810  175.2860  135.7580 C   0  0  1  0  0  0  0  0  0  0  0  0
  183.9560  174.1920  135.4430 C   0  0  2  0  0  3  0  0  0  0  0  0
  185.2510  175.0850  137.2200 N   0  0  0  0  0  2  0  0  0  0  0  0
  185.1970  176.4280  136.7090 C   0  0  1  0  0  0  0  0  0  0  0  0
  183.6250  175.5250  135.3700 O   0  0  0  0  0  0  0  0  0  0  0  0
  183.1400  173.5110  136.5650 C   0  0  0  0  0  0  0  0  0  0  0  0
  182.3200  172.5360  136.0160 F   0  0  0  0  0  0  0  0  0  0  0  0
  183.9430  172.9350  137.5430 F   0  0  0  0  0  0  0  0  0  0  0  0
  182.3410  174.4700  137.1560 F   0  0  0  0  0  0  0  0  0  0  0  0
  184.0350  177.2260  137.3320 C   0  0  0  0  0  2  0  0  0  0  0  0
  181.9320  178.3420  139.5050 C   0  0  0  0  0  0  0  0  0  0  0  0
  184.2900  178.7130  139.3690 C   0  0  1  0  0  3  0  0  0  0  0  0
  182.5470  176.6680  139.5780 S   0  0  0  0  0  0  0  0  0  0  0  0
  184.1070  177.2790  138.8620 C   0  0  1  0  0  3  0  0  0  0  0  0
  185.2220  179.4250  138.6070 O   0  0  0  0  0  1  0  0  0  0  0  0
  180.7370  178.5890  139.4950 O   0  0  0  0  0  0  0  0  0  0  0  0
  182.9450  179.4170  139.3690 C   0  0  0  0  0  2  0  0  0  0  0  0
  1  7  1  6  0  0  0
  1  2  1  0  0  0  0
  1  5  1  0  0  0  0
  2  4  1  0  0  0  0
  3  8  1  0  0  0  0
  4  3  1  0  0  0  0
  5  3  1  0  0  0  0
  7  6  1  0  0  0  0
  8  9  1  0  0  0  0
 10  9  1  0  0  0  0
 11 10  1  6  0  0  0
 11 14  1  0  0  0  0
 11 19  1  0  0  0  0
 12 15  1  6  0  0  0
 12 17  1  0  0  0  0
 12 18  1  0  0  0  0
 13 16  1  0  0  0  0
 14 18  1  0  0  0  0
 15 14  1  0  0  0  0
 17 13  2  0  0  0  0
 18 16  1  1  0  0  0
 19 20  1  0  0  0  0
 20 21  1  0  0  0  0
 21 22  1  0  0  0  0
 23  1  1  0  0  0  0
 24 23  1  0  0  0  0
 25 29  1  1  0  0  0
 25 28  1  0  0  0  0
 25 27  1  0  0  0  0
 26 25  1  0  0  0  0
 26 30  1  1  0  0  0
 28 24  1  6  0  0  0
 28 27  1  0  0  0  0
 28 34  1  0  0  0  0
 29 26  1  0  0  0  0
 30 33  1  0  0  0  0
 30 32  1  0  0  0  0
 31 30  1  0  0  0  0
 35 37  1  0  0  0  0
 36 39  1  6  0  0  0
 36 41  1  0  0  0  0
 38 34  1  6  0  0  0
 38 36  1  0  0  0  0
 38 37  1  0  0  0  0
 40 35  2  0  0  0  0
 41 35  1  0  0  0  0
M  END
>  <MODEL>
2

>  <REMARK>
 VINA RESULT:      -6.7      1.011      2.694
  Name = 
  15 active torsions:
  status: ('A' for Active; 'I' for Inactive)
    1  A    between atoms: C_2  and  N_26
    2  A    between atoms: C_2  and  C_30
    3  A    between atoms: C_5  and  C_32
    4  A    between atoms: C_6  and  C_7
    5  A    between atoms: N_11  and  C_31
    6  A    between atoms: C_12  and  C_19
    7  A    between atoms: C_12  and  N_21
    8  A    between atoms: C_15  and  N_21
    9  A    between atoms: C_15  and  C_39
   10  A    between atoms: C_19  and  C_41
   11  A    between atoms: C_23  and  C_41
   12  A    between atoms: C_30  and  N_34
   13  A    between atoms: C_31  and  N_34
   14  A    between atoms: C_31  and  N_40
   15  A    between atoms: C_32  and  N_40
                            x       y       z     vdW  Elec       q    Type
                         _______ _______ _______ _____ _____    ______ ____

>  <TORSDO>
F 15

$$$$
=
 OpenBabel10222420353D

 41 46  0  0  1  0  0  0  0  0999 V2000
  189.2830  177.8240  138.7750 C   0  0  1  0  0  0  0  0  0  0  0  0
  189.2670  178.8960  137.7100 C   0  0  0  0  0  2  0  0  0  0  0  0
  187.3280  177.4780  137.4280 N   0  0  0  0  0  0  0  0  0  0  0  0
  188.0430  178.6100  136.8400 C   0  0  0  0  0  2  0  0  0  0  0  0
  188.2830  176.7910  138.2840 C   0  0  0  0  0  2  0  0  0  0  0  0
  190.6420  175.8530  139.1220 O   0  0  0  0  0  1  0  0  0  0  0  0
  190.6880  177.2340  138.9100 C   0  0  0  0  0  2  0  0  0  0  0  0
  187.0070  176.5680  136.3390 C   0  0  0  0  0  2  0  0  0  0  0  0
  185.4940  176.4990  136.1290 C   0  0  0  0  0  2  0  0  0  0  0  0
  184.7970  176.8380  137.3650 N   0  0  0  0  0  2  0  0  0  0  0  0
  183.8970  175.7330  137.6940 C   0  0  1  0  0  3  0  0  0  0  0  0
  182.4860  177.3030  139.9970 C   0  0  1  0  0  3  0  0  0  0  0  0
  180.2760  176.6260  140.2260 C   0  0  0  0  0  3  0  0  0  0  0  0
  182.5820  176.2380  138.1030 N   0  0  0  0  0  0  0  0  0  0  0  0
  182.7350  177.6300  138.5370 C   0  0  0  0  0  2  0  0  0  0  0  0
  180.9690  175.5000  139.7110 N   0  0  0  0  0  2  0  0  0  0  0  0
  181.0860  177.6570  140.3970 C   0  0  0  0  0  3  0  0  0  0  0  0
  182.3650  175.8640  139.5030 C   0  0  2  0  0  3  0  0  0  0  0  0
  183.7700  174.8130  136.5540 N   0  0  0  0  0  2  0  0  0  0  0  0
  183.6880  173.4330  137.0280 C   0  0  0  0  0  2  0  0  0  0  0  0
  184.9590  173.0680  137.7770 C   0  0  0  0  0  2  0  0  0  0  0  0
  186.0940  172.8190  136.8010 C   0  0  0  0  0  1  0  0  0  0  0  0
  188.8510  178.4270  140.0420 N   0  0  0  0  0  2  0  0  0  0  0  0
  188.1750  177.4470  140.8900 C   0  0  0  0  0  2  0  0  0  0  0  0
  189.7850  176.6390  142.6960 C   0  0  1  0  0  0  0  0  0  0  0  0
  190.7700  176.3770  143.8400 C   0  0  2  0  0  3  0  0  0  0  0  0
  190.0160  178.0860  142.3770 N   0  0  0  0  0  2  0  0  0  0  0  0
  188.6730  177.5750  142.3190 C   0  0  1  0  0  0  0  0  0  0  0  0
  189.4090  176.3170  144.0390 O   0  0  0  0  0  0  0  0  0  0  0  0
  191.3680  177.5380  144.6650 C   0  0  0  0  0  0  0  0  0  0  0  0
  192.1040  177.0260  145.7220 F   0  0  0  0  0  0  0  0  0  0  0  0
  192.1790  178.3760  143.9070 F   0  0  0  0  0  0  0  0  0  0  0  0
  190.3240  178.2810  145.1800 F   0  0  0  0  0  0  0  0  0  0  0  0
  187.7650  178.2530  143.3640 C   0  0  0  0  0  2  0  0  0  0  0  0
  184.7830  179.1960  144.1440 C   0  0  0  0  0  0  0  0  0  0  0  0
  186.1350  177.5030  145.1560 C   0  0  1  0  0  3  0  0  0  0  0  0
  185.0860  178.1210  142.7510 S   0  0  0  0  0  0  0  0  0  0  0  0
  186.5040  177.4380  143.6690 C   0  0  1  0  0  3  0  0  0  0  0  0
  187.2570  177.3780  145.9810 O   0  0  0  0  0  1  0  0  0  0  0  0
  184.1530  180.2350  144.0310 O   0  0  0  0  0  0  0  0  0  0  0  0
  185.4070  178.8060  145.4320 C   0  0  0  0  0  2  0  0  0  0  0  0
  1  7  1  1  0  0  0
  1 23  1  0  0  0  0
  2  1  1  0  0  0  0
  3  5  1  0  0  0  0
  4  3  1  0  0  0  0
  4  2  1  0  0  0  0
  5  1  1  0  0  0  0
  7  6  1  0  0  0  0
  8  3  1  0  0  0  0
  9  8  1  0  0  0  0
  9 10  1  0  0  0  0
 10 11  1  0  0  0  0
 11 19  1  6  0  0  0
 11 14  1  0  0  0  0
 12 15  1  6  0  0  0
 12 17  1  0  0  0  0
 13 17  2  0  0  0  0
 14 15  1  0  0  0  0
 14 18  1  0  0  0  0
 16 13  1  0  0  0  0
 18 16  1  6  0  0  0
 18 12  1  0  0  0  0
 19 20  1  0  0  0  0
 20 21  1  0  0  0  0
 22 21  1  0  0  0  0
 23 24  1  0  0  0  0
 25 27  1  1  0  0  0
 25 26  1  0  0  0  0
 25 29  1  0  0  0  0
 26 29  1  0  0  0  0
 26 30  1  1  0  0  0
 28 24  1  6  0  0  0
 28 27  1  0  0  0  0
 28 25  1  0  0  0  0
 28 34  1  0  0  0  0
 30 33  1  0  0  0  0
 30 31  1  0  0  0  0
 32 30  1  0  0  0  0
 35 41  1  0  0  0  0
 36 41  1  0  0  0  0
 36 39  1  1  0  0  0
 37 38  1  0  0  0  0
 37 35  1  0  0  0  0
 38 34  1  1  0  0  0
 38 36  1  0  0  0  0
 40 35  2  0  0  0  0
M  END
>  <MODEL>
3

>  <REMARK>
 VINA RESULT:      -6.6      4.267      7.952
  Name = 
  15 active torsions:
  status: ('A' for Active; 'I' for Inactive)
    1  A    between atoms: C_2  and  N_26
    2  A    between atoms: C_2  and  C_30
    3  A    between atoms: C_5  and  C_32
    4  A    between atoms: C_6  and  C_7
    5  A    between atoms: N_11  and  C_31
    6  A    between atoms: C_12  and  C_19
    7  A    between atoms: C_12  and  N_21
    8  A    between atoms: C_15  and  N_21
    9  A    between atoms: C_15  and  C_39
   10  A    between atoms: C_19  and  C_41
   11  A    between atoms: C_23  and  C_41
   12  A    between atoms: C_30  and  N_34
   13  A    between atoms: C_31  and  N_34
   14  A    between atoms: C_31  and  N_40
   15  A    between atoms: C_32  and  N_40
                            x       y       z     vdW  Elec       q    Type
                         _______ _______ _______ _____ _____    ______ ____

>  <TORSDO>
F 15

$$$$
=
 OpenBabel10222420353D

 41 46  0  0  1  0  0  0  0  0999 V2000
  190.4120  176.9810  142.0970 C   0  0  1  0  0  0  0  0  0  0  0  0
  189.7780  175.9890  143.0460 C   0  0  0  0  0  2  0  0  0  0  0  0
  188.0410  177.3500  142.0550 N   0  0  0  0  0  0  0  0  0  0  0  0
  188.2790  176.2910  143.0350 C   0  0  0  0  0  2  0  0  0  0  0  0
  189.3210  178.0090  141.8450 C   0  0  0  0  0  2  0  0  0  0  0  0
  191.2950  178.6340  143.6250 O   0  0  0  0  0  1  0  0  0  0  0  0
  191.6480  177.6120  142.7400 C   0  0  0  0  0  2  0  0  0  0  0  0
  187.1650  178.3240  142.6900 C   0  0  0  0  0  2  0  0  0  0  0  0
  185.9850  178.6560  141.7750 C   0  0  0  0  0  2  0  0  0  0  0  0
  184.8070  177.8900  142.1730 N   0  0  0  0  0  2  0  0  0  0  0  0
  183.6290  178.7300  141.9590 C   0  0  1  0  0  3  0  0  0  0  0  0
  181.3970  179.5130  139.9190 C   0  0  1  0  0  3  0  0  0  0  0  0
  179.9450  177.7350  139.5590 C   0  0  0  0  0  3  0  0  0  0  0  0
  182.7610  178.1520  140.9260 N   0  0  0  0  0  0  0  0  0  0  0  0
  182.8170  179.0110  139.7410 C   0  0  0  0  0  2  0  0  0  0  0  0
  180.4410  177.5620  140.8770 N   0  0  0  0  0  2  0  0  0  0  0  0
  180.4580  178.8120  138.9860 C   0  0  0  0  0  3  0  0  0  0  0  0
  181.3950  178.6270  141.1610 C   0  0  2  0  0  3  0  0  0  0  0  0
  182.8900  178.9130  143.2180 N   0  0  0  0  0  2  0  0  0  0  0  0
  183.7170  179.6320  144.1850 C   0  0  0  0  0  2  0  0  0  0  0  0
  183.7890  178.8480  145.4850 C   0  0  0  0  0  2  0  0  0  0  0  0
  185.2360  178.6370  145.8940 C   0  0  0  0  0  1  0  0  0  0  0  0
  190.7740  176.2730  140.8630 N   0  0  0  0  0  2  0  0  0  0  0  0
  191.2170  177.2040  139.8290 C   0  0  0  0  0  2  0  0  0  0  0  0
  192.1430  175.8350  137.8870 C   0  0  1  0  0  0  0  0  0  0  0  0
  192.4880  174.9190  136.7080 C   0  0  2  0  0  3  0  0  0  0  0  0
  190.9530  175.1610  138.5020 N   0  0  0  0  0  2  0  0  0  0  0  0
  190.9820  176.5990  138.4560 C   0  0  1  0  0  0  0  0  0  0  0  0
  192.0450  176.2060  136.5080 O   0  0  0  0  0  0  0  0  0  0  0  0
  191.4560  173.9170  136.1430 C   0  0  0  0  0  0  0  0  0  0  0  0
  190.8700  173.2160  137.1860 F   0  0  0  0  0  0  0  0  0  0  0  0
  190.4600  174.5350  135.3920 F   0  0  0  0  0  0  0  0  0  0  0  0
  192.1260  173.0200  135.3360 F   0  0  0  0  0  0  0  0  0  0  0  0
  189.8440  177.1610  137.5820 C   0  0  0  0  0  2  0  0  0  0  0  0
  186.9740  177.2120  136.1170 C   0  0  0  0  0  0  0  0  0  0  0  0
  187.5540  177.9710  138.3080 C   0  0  1  0  0  3  0  0  0  0  0  0
  187.6260  175.7150  136.8370 S   0  0  0  0  0  0  0  0  0  0  0  0
  188.4550  176.7520  138.0840 C   0  0  1  0  0  3  0  0  0  0  0  0
  188.2350  179.0200  138.9350 O   0  0  0  0  0  1  0  0  0  0  0  0
  186.6030  177.2600  134.9550 O   0  0  0  0  0  0  0  0  0  0  0  0
  186.9830  178.4210  136.9750 C   0  0  0  0  0  2  0  0  0  0  0  0
  1  7  1  1  0  0  0
  1  2  1  0  0  0  0
  3  8  1  0  0  0  0
  3  4  1  0  0  0  0
  4  2  1  0  0  0  0
  5  3  1  0  0  0  0
  5  1  1  0  0  0  0
  7  6  1  0  0  0  0
  9 10  1  0  0  0  0
  9  8  1  0  0  0  0
 11 10  1  1  0  0  0
 11 19  1  0  0  0  0
 12 17  1  6  0  0  0
 12 18  1  0  0  0  0
 13 16  1  0  0  0  0
 14 18  1  0  0  0  0
 14 11  1  0  0  0  0
 15 12  1  0  0  0  0
 15 14  1  0  0  0  0
 17 13  2  0  0  0  0
 18 16  1  6  0  0  0
 19 20  1  0  0  0  0
 20 21  1  0  0  0  0
 21 22  1  0  0  0  0
 23  1  1  0  0  0  0
 24 23  1  0  0  0  0
 25 29  1  6  0  0  0
 25 28  1  0  0  0  0
 25 27  1  0  0  0  0
 26 30  1  6  0  0  0
 26 25  1  0  0  0  0
 28 34  1  6  0  0  0
 28 27  1  0  0  0  0
 28 24  1  0  0  0  0
 29 26  1  0  0  0  0
 30 31  1  0  0  0  0
 32 30  1  0  0  0  0
 33 30  1  0  0  0  0
 35 37  1  0  0  0  0
 35 41  1  0  0  0  0
 36 39  1  6  0  0  0
 37 38  1  0  0  0  0
 38 34  1  6  0  0  0
 38 36  1  0  0  0  0
 40 35  2  0  0  0  0
 41 36  1  0  0  0  0
M  END
>  <MODEL>
4

>  <REMARK>
 VINA RESULT:      -6.5      3.571      6.630
  Name = 
  15 active torsions:
  status: ('A' for Active; 'I' for Inactive)
    1  A    between atoms: C_2  and  N_26
    2  A    between atoms: C_2  and  C_30
    3  A    between atoms: C_5  and  C_32
    4  A    between atoms: C_6  and  C_7
    5  A    between atoms: N_11  and  C_31
    6  A    between atoms: C_12  and  C_19
    7  A    between atoms: C_12  and  N_21
    8  A    between atoms: C_15  and  N_21
    9  A    between atoms: C_15  and  C_39
   10  A    between atoms: C_19  and  C_41
   11  A    between atoms: C_23  and  C_41
   12  A    between atoms: C_30  and  N_34
   13  A    between atoms: C_31  and  N_34
   14  A    between atoms: C_31  and  N_40
   15  A    between atoms: C_32  and  N_40
                            x       y       z     vdW  Elec       q    Type
                         _______ _______ _______ _____ _____    ______ ____

>  <TORSDO>
F 15

$$$$
=
 OpenBabel10222420353D

 41 46  0  0  1  0  0  0  0  0999 V2000
  190.6000  176.9080  141.9720 C   0  0  1  0  0  0  0  0  0  0  0  0
  190.0320  175.8780  142.9230 C   0  0  0  0  0  2  0  0  0  0  0  0
  188.2120  177.1450  141.9560 N   0  0  0  0  0  0  0  0  0  0  0  0
  188.5190  176.0970  142.9290 C   0  0  0  0  0  2  0  0  0  0  0  0
  189.4520  177.8750  141.7370 C   0  0  0  0  0  2  0  0  0  0  0  0
  191.4150  178.4570  143.6420 O   0  0  0  0  0  1  0  0  0  0  0  0
  191.8060  177.6040  142.6060 C   0  0  0  0  0  2  0  0  0  0  0  0
  187.2900  178.0670  142.6050 C   0  0  0  0  0  2  0  0  0  0  0  0
  187.1600  177.7320  144.0910 C   0  0  0  0  0  2  0  0  0  0  0  0
  185.7530  177.6340  144.4650 N   0  0  0  0  0  2  0  0  0  0  0  0
  185.2700  178.9810  144.7690 C   0  0  1  0  0  3  0  0  0  0  0  0
  182.3680  178.5670  143.6870 C   0  0  1  0  0  3  0  0  0  0  0  0
  182.2770  178.9500  141.3980 C   0  0  0  0  0  3  0  0  0  0  0  0
  184.3550  179.4520  143.7230 N   0  0  0  0  0  0  0  0  0  0  0  0
  183.0600  179.7490  144.3400 C   0  0  0  0  0  2  0  0  0  0  0  0
  183.5990  178.5040  141.6580 N   0  0  0  0  0  2  0  0  0  0  0  0
  181.5570  179.0040  142.5060 C   0  0  0  0  0  3  0  0  0  0  0  0
  183.7430  178.2800  143.0910 C   0  0  2  0  0  3  0  0  0  0  0  0
  184.6150  179.0100  146.0860 N   0  0  0  0  0  2  0  0  0  0  0  0
  185.3890  178.2290  147.0480 C   0  0  0  0  0  2  0  0  0  0  0  0
  186.6310  179.0010  147.4610 C   0  0  0  0  0  2  0  0  0  0  0  0
  187.6280  178.0750  148.1350 C   0  0  0  0  0  1  0  0  0  0  0  0
  190.9880  176.2260  140.7320 N   0  0  0  0  0  2  0  0  0  0  0  0
  191.4280  177.1820  139.7180 C   0  0  0  0  0  2  0  0  0  0  0  0
  192.3990  175.9080  137.7340 C   0  0  1  0  0  0  0  0  0  0  0  0
  192.7760  175.0380  136.5300 C   0  0  2  0  0  3  0  0  0  0  0  0
  191.2490  175.1620  138.3420 N   0  0  0  0  0  2  0  0  0  0  0  0
  191.2080  176.5990  138.3330 C   0  0  1  0  0  0  0  0  0  0  0  0
  192.2690  176.3070  136.3650 O   0  0  0  0  0  0  0  0  0  0  0  0
  191.7880  174.0020  135.9490 C   0  0  0  0  0  0  0  0  0  0  0  0
  192.4340  173.2270  134.9980 F   0  0  0  0  0  0  0  0  0  0  0  0
  191.2430  173.1710  136.9230 F   0  0  0  0  0  0  0  0  0  0  0  0
  190.7620  174.6880  135.3290 F   0  0  0  0  0  0  0  0  0  0  0  0
  190.0350  177.1270  137.4830 C   0  0  0  0  0  2  0  0  0  0  0  0
  187.1350  177.0360  136.0810 C   0  0  0  0  0  0  0  0  0  0  0  0
  187.7400  177.9080  138.2230 C   0  0  1  0  0  3  0  0  0  0  0  0
  187.8430  175.5900  136.8520 S   0  0  0  0  0  0  0  0  0  0  0  0
  188.6690  176.7040  138.0330 C   0  0  1  0  0  3  0  0  0  0  0  0
  188.4050  179.0010  138.7870 O   0  0  0  0  0  1  0  0  0  0  0  0
  186.7390  177.0220  134.9270 O   0  0  0  0  0  0  0  0  0  0  0  0
  187.1290  178.2820  136.8850 C   0  0  0  0  0  2  0  0  0  0  0  0
  1  7  1  1  0  0  0
  1  2  1  0  0  0  0
  2  4  1  0  0  0  0
  3  8  1  0  0  0  0
  3  4  1  0  0  0  0
  5  3  1  0  0  0  0
  5  1  1  0  0  0  0
  7  6  1  0  0  0  0
  8  9  1  0  0  0  0
  9 10  1  0  0  0  0
 11 10  1  6  0  0  0
 11 19  1  0  0  0  0
 12 17  1  6  0  0  0
 12 15  1  0  0  0  0
 13 16  1  0  0  0  0
 13 17  2  0  0  0  0
 14 15  1  0  0  0  0
 14 11  1  0  0  0  0
 18 16  1  6  0  0  0
 18 12  1  0  0  0  0
 18 14  1  0  0  0  0
 19 20  1  0  0  0  0
 20 21  1  0  0  0  0
 21 22  1  0  0  0  0
 23  1  1  0  0  0  0
 24 23  1  0  0  0  0
 25 29  1  6  0  0  0
 25 28  1  0  0  0  0
 25 27  1  0  0  0  0
 26 30  1  6  0  0  0
 26 25  1  0  0  0  0
 28 34  1  6  0  0  0
 28 27  1  0  0  0  0
 28 24  1  0  0  0  0
 29 26  1  0  0  0  0
 30 32  1  0  0  0  0
 31 30  1  0  0  0  0
 33 30  1  0  0  0  0
 35 37  1  0  0  0  0
 35 41  1  0  0  0  0
 36 39  1  6  0  0  0
 37 38  1  0  0  0  0
 38 34  1  6  0  0  0
 38 36  1  0  0  0  0
 40 35  2  0  0  0  0
 41 36  1  0  0  0  0
M  END
>  <MODEL>
5

>  <REMARK>
 VINA RESULT:      -6.5      3.548      6.108
  Name = 
  15 active torsions:
  status: ('A' for Active; 'I' for Inactive)
    1  A    between atoms: C_2  and  N_26
    2  A    between atoms: C_2  and  C_30
    3  A    between atoms: C_5  and  C_32
    4  A    between atoms: C_6  and  C_7
    5  A    between atoms: N_11  and  C_31
    6  A    between atoms: C_12  and  C_19
    7  A    between atoms: C_12  and  N_21
    8  A    between atoms: C_15  and  N_21
    9  A    between atoms: C_15  and  C_39
   10  A    between atoms: C_19  and  C_41
   11  A    between atoms: C_23  and  C_41
   12  A    between atoms: C_30  and  N_34
   13  A    between atoms: C_31  and  N_34
   14  A    between atoms: C_31  and  N_40
   15  A    between atoms: C_32  and  N_40
                            x       y       z     vdW  Elec       q    Type
                         _______ _______ _______ _____ _____    ______ ____

>  <TORSDO>
F 15

$$$$
=
 OpenBabel10222420353D

 41 46  0  0  1  0  0  0  0  0999 V2000
  190.5760  177.1600  141.8310 C   0  0  1  0  0  0  0  0  0  0  0  0
  189.8330  176.2140  142.7460 C   0  0  0  0  0  2  0  0  0  0  0  0
  188.2270  177.5190  141.4930 N   0  0  0  0  0  0  0  0  0  0  0  0
  188.3460  176.5100  142.5450 C   0  0  0  0  0  2  0  0  0  0  0  0
  189.5250  178.1710  141.4030 C   0  0  0  0  0  2  0  0  0  0  0  0
  191.6860  177.5280  143.9480 O   0  0  0  0  0  1  0  0  0  0  0  0
  191.7290  177.8260  142.5840 C   0  0  0  0  0  2  0  0  0  0  0  0
  187.2850  178.5200  141.9730 C   0  0  0  0  0  2  0  0  0  0  0  0
  186.2880  177.8910  142.9460 C   0  0  0  0  0  2  0  0  0  0  0  0
  186.0300  178.7960  144.0610 N   0  0  0  0  0  2  0  0  0  0  0  0
  185.1860  178.0950  145.0280 C   0  0  1  0  0  3  0  0  0  0  0  0
  187.0490  178.9220  147.3950 C   0  0  1  0  0  3  0  0  0  0  0  0
  188.6730  177.3040  147.7730 C   0  0  0  0  0  3  0  0  0  0  0  0
  186.0000  177.5200  146.1050 N   0  0  0  0  0  0  0  0  0  0  0  0
  185.6970  178.2370  147.3470 C   0  0  0  0  0  2  0  0  0  0  0  0
  188.3570  177.2130  146.3930 N   0  0  0  0  0  2  0  0  0  0  0  0
  187.9610  178.2440  148.3720 C   0  0  0  0  0  3  0  0  0  0  0  0
  187.3090  178.1790  146.0880 C   0  0  2  0  0  3  0  0  0  0  0  0
  184.1630  179.0000  145.5740 N   0  0  0  0  0  2  0  0  0  0  0  0
  183.4330  179.6470  144.4860 C   0  0  0  0  0  2  0  0  0  0  0  0
  182.4440  178.6680  143.8730 C   0  0  0  0  0  2  0  0  0  0  0  0
  182.5620  178.6770  142.3600 C   0  0  0  0  0  1  0  0  0  0  0  0
  191.0790  176.3950  140.6840 N   0  0  0  0  0  2  0  0  0  0  0  0
  191.4820  177.2790  139.5930 C   0  0  0  0  0  2  0  0  0  0  0  0
  192.3360  175.7120  137.7710 C   0  0  1  0  0  0  0  0  0  0  0  0
  192.6320  174.6920  136.6670 C   0  0  2  0  0  3  0  0  0  0  0  0
  191.0860  175.1740  138.4020 N   0  0  0  0  0  2  0  0  0  0  0  0
  191.2270  176.5990  138.2600 C   0  0  1  0  0  0  0  0  0  0  0  0
  192.2940  175.9930  136.3690 O   0  0  0  0  0  0  0  0  0  0  0  0
  191.5360  173.7350  136.1460 C   0  0  0  0  0  0  0  0  0  0  0  0
  190.7730  173.2800  137.2100 F   0  0  0  0  0  0  0  0  0  0  0  0
  190.7010  174.3320  135.2070 F   0  0  0  0  0  0  0  0  0  0  0  0
  192.1580  172.6510  135.5590 F   0  0  0  0  0  0  0  0  0  0  0  0
  190.1520  177.1830  137.3220 C   0  0  0  0  0  2  0  0  0  0  0  0
  187.3140  177.1850  135.7940 C   0  0  0  0  0  0  0  0  0  0  0  0
  187.9240  178.2810  137.8300 C   0  0  1  0  0  3  0  0  0  0  0  0
  187.8380  175.7970  136.7870 S   0  0  0  0  0  0  0  0  0  0  0  0
  188.7290  176.9770  137.8510 C   0  0  1  0  0  3  0  0  0  0  0  0
  188.6780  179.3700  138.2770 O   0  0  0  0  0  1  0  0  0  0  0  0
  186.9640  177.0500  134.6330 O   0  0  0  0  0  0  0  0  0  0  0  0
  187.4080  178.5240  136.4230 C   0  0  0  0  0  2  0  0  0  0  0  0
  1  7  1  1  0  0  0
  1  2  1  0  0  0  0
  3  8  1  0  0  0  0
  3  4  1  0  0  0  0
  4  2  1  0  0  0  0
  5  3  1  0  0  0  0
  5  1  1  0  0  0  0
  7  6  1  0  0  0  0
  8  9  1  0  0  0  0
  9 10  1  0  0  0  0
 11 10  1  6  0  0  0
 11 19  1  0  0  0  0
 11 14  1  0  0  0  0
 12 15  1  1  0  0  0
 12 17  1  0  0  0  0
 13 17  2  0  0  0  0
 14 15  1  0  0  0  0
 16 13  1  0  0  0  0
 18 14  1  0  0  0  0
 18 16  1  1  0  0  0
 18 12  1  0  0  0  0
 20 19  1  0  0  0  0
 21 20  1  0  0  0  0
 22 21  1  0  0  0  0
 23  1  1  0  0  0  0
 24 23  1  0  0  0  0
 25 29  1  6  0  0  0
 25 28  1  0  0  0  0
 25 27  1  0  0  0  0
 26 30  1  6  0  0  0
 26 25  1  0  0  0  0
 28 34  1  6  0  0  0
 28 27  1  0  0  0  0
 28 24  1  0  0  0  0
 29 26  1  0  0  0  0
 30 31  1  0  0  0  0
 32 30  1  0  0  0  0
 33 30  1  0  0  0  0
 35 41  1  0  0  0  0
 35 37  1  0  0  0  0
 36 38  1  0  0  0  0
 36 39  1  6  0  0  0
 37 38  1  0  0  0  0
 38 34  1  6  0  0  0
 40 35  2  0  0  0  0
 41 36  1  0  0  0  0
M  END
>  <MODEL>
6

>  <REMARK>
 VINA RESULT:      -6.4      3.537      5.395
  Name = 
  15 active torsions:
  status: ('A' for Active; 'I' for Inactive)
    1  A    between atoms: C_2  and  N_26
    2  A    between atoms: C_2  and  C_30
    3  A    between atoms: C_5  and  C_32
    4  A    between atoms: C_6  and  C_7
    5  A    between atoms: N_11  and  C_31
    6  A    between atoms: C_12  and  C_19
    7  A    between atoms: C_12  and  N_21
    8  A    between atoms: C_15  and  N_21
    9  A    between atoms: C_15  and  C_39
   10  A    between atoms: C_19  and  C_41
   11  A    between atoms: C_23  and  C_41
   12  A    between atoms: C_30  and  N_34
   13  A    between atoms: C_31  and  N_34
   14  A    between atoms: C_31  and  N_40
   15  A    between atoms: C_32  and  N_40
                            x       y       z     vdW  Elec       q    Type
                         _______ _______ _______ _____ _____    ______ ____

>  <TORSDO>
F 15

$$$$
=
 OpenBabel10222420353D

 41 46  0  0  1  0  0  0  0  0999 V2000
  188.3950  177.4830  138.0210 C   0  0  1  0  0  0  0  0  0  0  0  0
  189.8470  177.0630  138.0220 C   0  0  0  0  0  2  0  0  0  0  0  0
  189.0430  177.1180  140.3030 N   0  0  0  0  0  0  0  0  0  0  0  0
  190.2390  176.8950  139.4910 C   0  0  0  0  0  2  0  0  0  0  0  0
  188.1130  177.8610  139.4660 C   0  0  0  0  0  2  0  0  0  0  0  0
  189.0080  179.7450  137.4230 O   0  0  0  0  0  1  0  0  0  0  0  0
  188.1890  178.6680  137.0750 C   0  0  0  0  0  2  0  0  0  0  0  0
  189.4310  178.0040  141.3910 C   0  0  0  0  0  2  0  0  0  0  0  0
  189.3400  177.2740  142.7310 C   0  0  0  0  0  2  0  0  0  0  0  0
  187.9510  176.9420  143.0330 N   0  0  0  0  0  2  0  0  0  0  0  0
  187.5940  177.5920  144.2940 C   0  0  1  0  0  3  0  0  0  0  0  0
  185.0310  179.2680  143.6830 C   0  0  1  0  0  3  0  0  0  0  0  0
  183.4280  178.9590  145.3360 C   0  0  0  0  0  3  0  0  0  0  0  0
  186.1400  177.5810  144.4900 N   0  0  0  0  0  0  0  0  0  0  0  0
  185.4990  177.9040  143.2130 C   0  0  0  0  0  2  0  0  0  0  0  0
  184.6780  178.7600  145.9750 N   0  0  0  0  0  2  0  0  0  0  0  0
  183.5790  179.2410  144.0530 C   0  0  0  0  0  3  0  0  0  0  0  0
  185.7380  178.9000  144.9840 C   0  0  2  0  0  3  0  0  0  0  0  0
  188.2770  176.9390  145.4220 N   0  0  0  0  0  2  0  0  0  0  0  0
  189.0710  177.9180  146.1620 C   0  0  0  0  0  2  0  0  0  0  0  0
  189.0200  177.6060  147.6490 C   0  0  0  0  0  2  0  0  0  0  0  0
  187.8160  178.2740  148.2870 C   0  0  0  0  0  1  0  0  0  0  0  0
  187.5830  176.3360  137.6000 N   0  0  0  0  0  2  0  0  0  0  0  0
  186.6620  176.7050  136.5270 C   0  0  0  0  0  2  0  0  0  0  0  0
  184.5970  177.7220  137.6250 C   0  0  1  0  0  0  0  0  0  0  0  0
  183.2350  178.2130  138.1260 C   0  0  2  0  0  3  0  0  0  0  0  0
  184.3050  177.2980  136.2160 N   0  0  0  0  0  2  0  0  0  0  0  0
  185.2290  176.5150  136.9920 C   0  0  1  0  0  0  0  0  0  0  0  0
  183.8370  177.1000  138.6660 O   0  0  0  0  0  0  0  0  0  0  0  0
  181.9240  177.8060  137.4150 C   0  0  0  0  0  0  0  0  0  0  0  0
  181.8020  178.5110  136.2270 F   0  0  0  0  0  0  0  0  0  0  0  0
  181.8570  176.4430  137.1470 F   0  0  0  0  0  0  0  0  0  0  0  0
  180.8670  178.1480  138.2360 F   0  0  0  0  0  0  0  0  0  0  0  0
  184.7060  175.0840  137.2200 C   0  0  0  0  0  2  0  0  0  0  0  0
  183.2550  172.2720  136.6030 C   0  0  0  0  0  0  0  0  0  0  0  0
  185.4320  173.0130  135.9500 C   0  0  1  0  0  3  0  0  0  0  0  0
  182.8530  173.7500  135.6850 S   0  0  0  0  0  0  0  0  0  0  0  0
  184.5780  174.2860  135.9180 C   0  0  1  0  0  3  0  0  0  0  0  0
  186.6970  173.2420  136.5000 O   0  0  0  0  0  1  0  0  0  0  0  0
  182.3970  171.6080  137.1620 O   0  0  0  0  0  0  0  0  0  0  0  0
  184.6940  171.9380  136.7270 C   0  0  0  0  0  2  0  0  0  0  0  0
  1  7  1  6  0  0  0
  1  2  1  0  0  0  0
  1  5  1  0  0  0  0
  2  4  1  0  0  0  0
  3  8  1  0  0  0  0
  4  3  1  0  0  0  0
  5  3  1  0  0  0  0
  7  6  1  0  0  0  0
  8  9  1  0  0  0  0
  9 10  1  0  0  0  0
 11 10  1  6  0  0  0
 11 14  1  0  0  0  0
 11 19  1  0  0  0  0
 12 15  1  6  0  0  0
 12 17  1  0  0  0  0
 12 18  1  0  0  0  0
 13 16  1  0  0  0  0
 14 18  1  0  0  0  0
 15 14  1  0  0  0  0
 17 13  2  0  0  0  0
 18 16  1  1  0  0  0
 19 20  1  0  0  0  0
 20 21  1  0  0  0  0
 21 22  1  0  0  0  0
 23  1  1  0  0  0  0
 24 23  1  0  0  0  0
 25 27  1  6  0  0  0
 25 26  1  0  0  0  0
 25 29  1  0  0  0  0
 26 30  1  6  0  0  0
 26 29  1  0  0  0  0
 27 28  1  0  0  0  0
 28 24  1  6  0  0  0
 28 34  1  0  0  0  0
 28 25  1  0  0  0  0
 30 33  1  0  0  0  0
 31 30  1  0  0  0  0
 32 30  1  0  0  0  0
 35 41  1  0  0  0  0
 35 40  2  0  0  0  0
 36 39  1  1  0  0  0
 36 41  1  0  0  0  0
 37 38  1  0  0  0  0
 37 35  1  0  0  0  0
 38 36  1  0  0  0  0
 38 34  1  1  0  0  0
M  END
>  <MODEL>
7

>  <REMARK>
 VINA RESULT:      -6.4      1.999      4.135
  Name = 
  15 active torsions:
  status: ('A' for Active; 'I' for Inactive)
    1  A    between atoms: C_2  and  N_26
    2  A    between atoms: C_2  and  C_30
    3  A    between atoms: C_5  and  C_32
    4  A    between atoms: C_6  and  C_7
    5  A    between atoms: N_11  and  C_31
    6  A    between atoms: C_12  and  C_19
    7  A    between atoms: C_12  and  N_21
    8  A    between atoms: C_15  and  N_21
    9  A    between atoms: C_15  and  C_39
   10  A    between atoms: C_19  and  C_41
   11  A    between atoms: C_23  and  C_41
   12  A    between atoms: C_30  and  N_34
   13  A    between atoms: C_31  and  N_34
   14  A    between atoms: C_31  and  N_40
   15  A    between atoms: C_32  and  N_40
                            x       y       z     vdW  Elec       q    Type
                         _______ _______ _______ _____ _____    ______ ____

>  <TORSDO>
F 15

$$$$
=
 OpenBabel10222420353D

 41 46  0  0  1  0  0  0  0  0999 V2000
  190.3410  176.8930  142.0950 C   0  0  1  0  0  0  0  0  0  0  0  0
  189.9810  175.7420  143.0060 C   0  0  0  0  0  2  0  0  0  0  0  0
  188.0220  177.1210  142.6720 N   0  0  0  0  0  0  0  0  0  0  0  0
  188.5180  175.9520  143.3970 C   0  0  0  0  0  2  0  0  0  0  0  0
  189.1970  177.8790  142.2670 C   0  0  0  0  0  2  0  0  0  0  0  0
  191.5330  178.3410  143.6210 O   0  0  0  0  0  1  0  0  0  0  0  0
  191.6800  177.5010  142.5150 C   0  0  0  0  0  2  0  0  0  0  0  0
  187.3040  177.9430  143.6360 C   0  0  0  0  0  2  0  0  0  0  0  0
  185.8100  177.9660  143.3080 C   0  0  0  0  0  2  0  0  0  0  0  0
  185.4780  179.1720  142.5560 N   0  0  0  0  0  2  0  0  0  0  0  0
  184.1280  179.0100  142.0160 C   0  0  1  0  0  3  0  0  0  0  0  0
  182.8000  178.9820  139.1880 C   0  0  1  0  0  3  0  0  0  0  0  0
  182.7560  176.8290  138.3170 C   0  0  0  0  0  3  0  0  0  0  0  0
  184.1630  178.2930  140.7370 N   0  0  0  0  0  0  0  0  0  0  0  0
  184.2140  179.2790  139.6540 C   0  0  0  0  0  2  0  0  0  0  0  0
  182.7190  176.6720  139.7270 N   0  0  0  0  0  2  0  0  0  0  0  0
  182.8070  178.1050  137.9740 C   0  0  0  0  0  3  0  0  0  0  0  0
  182.7840  177.9890  140.3470 C   0  0  2  0  0  3  0  0  0  0  0  0
  183.2660  178.3120  142.9820 N   0  0  0  0  0  2  0  0  0  0  0  0
  182.5140  179.2820  143.7760 C   0  0  0  0  0  2  0  0  0  0  0  0
  181.0910  179.3860  143.2530 C   0  0  0  0  0  2  0  0  0  0  0  0
  180.2450  178.2480  143.7950 C   0  0  0  0  0  1  0  0  0  0  0  0
  190.4090  176.3880  140.7190 N   0  0  0  0  0  2  0  0  0  0  0  0
  190.6870  177.4660  139.7730 C   0  0  0  0  0  2  0  0  0  0  0  0
  188.3960  177.4110  138.6540 C   0  0  1  0  0  0  0  0  0  0  0  0
  187.1240  177.4810  137.8020 C   0  0  2  0  0  3  0  0  0  0  0  0
  189.2650  178.4740  138.0490 N   0  0  0  0  0  2  0  0  0  0  0  0
  189.8820  177.2560  138.5020 C   0  0  1  0  0  0  0  0  0  0  0  0
  187.9360  176.3700  137.7870 O   0  0  0  0  0  0  0  0  0  0  0  0
  187.1280  178.1500  136.4090 C   0  0  0  0  0  0  0  0  0  0  0  0
  185.9160  177.9140  135.7770 F   0  0  0  0  0  0  0  0  0  0  0  0
  187.3520  179.5220  136.4700 F   0  0  0  0  0  0  0  0  0  0  0  0
  188.1320  177.5710  135.6580 F   0  0  0  0  0  0  0  0  0  0  0  0
  190.5240  176.4790  137.3370 C   0  0  0  0  0  2  0  0  0  0  0  0
  193.0660  175.4020  135.6740 C   0  0  0  0  0  0  0  0  0  0  0  0
  191.6640  174.2180  137.2050 C   0  0  1  0  0  3  0  0  0  0  0  0
  193.2670  176.3830  137.1510 S   0  0  0  0  0  0  0  0  0  0  0  0
  191.7270  175.6380  137.7770 C   0  0  1  0  0  3  0  0  0  0  0  0
  190.3760  173.6770  137.2820 O   0  0  0  0  0  1  0  0  0  0  0  0
  193.5960  175.7110  134.6190 O   0  0  0  0  0  0  0  0  0  0  0  0
  192.1540  174.2370  135.7690 C   0  0  0  0  0  2  0  0  0  0  0  0
  1  5  1  0  0  0  0
  1  7  1  1  0  0  0
  1  2  1  0  0  0  0
  2  4  1  0  0  0  0
  3  4  1  0  0  0  0
  3  8  1  0  0  0  0
  5  3  1  0  0  0  0
  7  6  1  0  0  0  0
  9  8  1  0  0  0  0
 10  9  1  0  0  0  0
 11 10  1  1  0  0  0
 11 19  1  0  0  0  0
 12 17  1  6  0  0  0
 12 15  1  0  0  0  0
 12 18  1  0  0  0  0
 13 16  1  0  0  0  0
 14 11  1  0  0  0  0
 15 14  1  0  0  0  0
 17 13  2  0  0  0  0
 18 16  1  6  0  0  0
 18 14  1  0  0  0  0
 19 20  1  0  0  0  0
 21 20  1  0  0  0  0
 21 22  1  0  0  0  0
 23  1  1  0  0  0  0
 24 23  1  0  0  0  0
 25 29  1  6  0  0  0
 26 30  1  6  0  0  0
 26 25  1  0  0  0  0
 27 28  1  0  0  0  0
 27 25  1  0  0  0  0
 28 34  1  6  0  0  0
 28 25  1  0  0  0  0
 28 24  1  0  0  0  0
 29 26  1  0  0  0  0
 30 32  1  0  0  0  0
 31 30  1  0  0  0  0
 33 30  1  0  0  0  0
 35 41  1  0  0  0  0
 35 37  1  0  0  0  0
 36 39  1  6  0  0  0
 36 38  1  0  0  0  0
 37 38  1  0  0  0  0
 38 34  1  6  0  0  0
 40 35  2  0  0  0  0
 41 36  1  0  0  0  0
M  END
>  <MODEL>
8

>  <REMARK>
 VINA RESULT:      -6.4      3.716      7.160
  Name = 
  15 active torsions:
  status: ('A' for Active; 'I' for Inactive)
    1  A    between atoms: C_2  and  N_26
    2  A    between atoms: C_2  and  C_30
    3  A    between atoms: C_5  and  C_32
    4  A    between atoms: C_6  and  C_7
    5  A    between atoms: N_11  and  C_31
    6  A    between atoms: C_12  and  C_19
    7  A    between atoms: C_12  and  N_21
    8  A    between atoms: C_15  and  N_21
    9  A    between atoms: C_15  and  C_39
   10  A    between atoms: C_19  and  C_41
   11  A    between atoms: C_23  and  C_41
   12  A    between atoms: C_30  and  N_34
   13  A    between atoms: C_31  and  N_34
   14  A    between atoms: C_31  and  N_40
   15  A    between atoms: C_32  and  N_40
                            x       y       z     vdW  Elec       q    Type
                         _______ _______ _______ _____ _____    ______ ____

>  <TORSDO>
F 15

$$$$
=
 OpenBabel10222420353D

 41 46  0  0  1  0  0  0  0  0999 V2000
  184.8530  178.6850  142.6630 C   0  0  1  0  0  0  0  0  0  0  0  0
  183.4370  178.1630  142.5790 C   0  0  0  0  0  2  0  0  0  0  0  0
  184.3200  178.4000  140.3400 N   0  0  0  0  0  0  0  0  0  0  0  0
  183.1140  178.0490  141.0890 C   0  0  0  0  0  2  0  0  0  0  0  0
  185.1620  179.1600  141.2530 C   0  0  0  0  0  2  0  0  0  0  0  0
  183.7870  179.8900  144.4680 O   0  0  0  0  0  1  0  0  0  0  0  0
  184.9370  179.8270  143.6770 C   0  0  0  0  0  2  0  0  0  0  0  0
  183.9110  179.3150  139.2850 C   0  0  0  0  0  2  0  0  0  0  0  0
  183.7360  178.5630  137.9650 C   0  0  0  0  0  2  0  0  0  0  0  0
  184.5960  177.3840  137.9370 N   0  0  0  0  0  2  0  0  0  0  0  0
  185.3410  177.3970  136.6780 C   0  0  1  0  0  3  0  0  0  0  0  0
  188.3470  176.8130  137.2960 C   0  0  1  0  0  3  0  0  0  0  0  0
  189.3240  178.6020  138.4110 C   0  0  0  0  0  3  0  0  0  0  0  0
  186.6320  178.0730  136.8460 N   0  0  0  0  0  0  0  0  0  0  0  0
  187.6390  177.3480  136.0660 C   0  0  0  0  0  2  0  0  0  0  0  0
  187.9500  178.6370  138.7640 N   0  0  0  0  0  2  0  0  0  0  0  0
  189.5870  177.6010  137.5880 C   0  0  0  0  0  3  0  0  0  0  0  0
  187.2600  177.5590  138.0660 C   0  0  2  0  0  3  0  0  0  0  0  0
  185.5310  176.0270  136.1770 N   0  0  0  0  0  2  0  0  0  0  0  0
  184.9960  175.0630  137.1350 C   0  0  0  0  0  2  0  0  0  0  0  0
  185.7740  173.7600  137.0460 C   0  0  0  0  0  2  0  0  0  0  0  0
  184.9350  172.6080  137.5700 C   0  0  0  0  0  1  0  0  0  0  0  0
  185.7300  177.5760  143.0570 N   0  0  0  0  0  2  0  0  0  0  0  0
  186.6820  177.9940  144.0840 C   0  0  0  0  0  2  0  0  0  0  0  0
  188.3150  177.1370  142.3240 C   0  0  1  0  0  0  0  0  0  0  0  0
  189.4590  176.7330  141.3880 C   0  0  2  0  0  3  0  0  0  0  0  0
  188.8600  178.3490  143.0190 N   0  0  0  0  0  2  0  0  0  0  0  0
  188.0550  177.4260  143.7740 C   0  0  1  0  0  0  0  0  0  0  0  0
  189.0700  175.9250  142.4320 O   0  0  0  0  0  0  0  0  0  0  0  0
  190.9020  177.2320  141.6240 C   0  0  0  0  0  0  0  0  0  0  0  0
  191.5940  177.2390  140.4220 F   0  0  0  0  0  0  0  0  0  0  0  0
  190.9470  178.5050  142.1840 F   0  0  0  0  0  0  0  0  0  0  0  0
  191.5270  176.3490  142.4820 F   0  0  0  0  0  0  0  0  0  0  0  0
  188.8620  176.7710  144.9120 C   0  0  0  0  0  2  0  0  0  0  0  0
  191.4780  176.3960  146.7590 C   0  0  0  0  0  0  0  0  0  0  0  0
  189.4630  177.5930  147.2340 C   0  0  1  0  0  3  0  0  0  0  0  0
  191.4480  177.5670  145.4110 S   0  0  0  0  0  0  0  0  0  0  0  0
  189.6680  177.7880  145.7280 C   0  0  1  0  0  3  0  0  0  0  0  0
  188.1240  177.3540  147.5560 O   0  0  0  0  0  1  0  0  0  0  0  0
  192.3470  175.5450  146.8530 O   0  0  0  0  0  0  0  0  0  0  0  0
  190.3440  176.4530  147.7130 C   0  0  0  0  0  2  0  0  0  0  0  0
  1 23  1  0  0  0  0
  1  7  1  1  0  0  0
  2  1  1  0  0  0  0
  3  4  1  0  0  0  0
  3  5  1  0  0  0  0
  4  2  1  0  0  0  0
  5  1  1  0  0  0  0
  7  6  1  0  0  0  0
  8  3  1  0  0  0  0
  9  8  1  0  0  0  0
 10  9  1  0  0  0  0
 11 19  1  1  0  0  0
 11 14  1  0  0  0  0
 11 10  1  0  0  0  0
 12 15  1  6  0  0  0
 12 17  1  0  0  0  0
 12 18  1  0  0  0  0
 13 16  1  0  0  0  0
 14 18  1  0  0  0  0
 15 14  1  0  0  0  0
 17 13  2  0  0  0  0
 18 16  1  1  0  0  0
 19 20  1  0  0  0  0
 21 20  1  0  0  0  0
 21 22  1  0  0  0  0
 23 24  1  0  0  0  0
 25 29  1  1  0  0  0
 25 27  1  0  0  0  0
 25 28  1  0  0  0  0
 26 30  1  1  0  0  0
 26 25  1  0  0  0  0
 26 29  1  0  0  0  0
 27 28  1  0  0  0  0
 28 24  1  1  0  0  0
 28 34  1  0  0  0  0
 30 32  1  0  0  0  0
 30 33  1  0  0  0  0
 31 30  1  0  0  0  0
 35 40  2  0  0  0  0
 35 41  1  0  0  0  0
 36 39  1  6  0  0  0
 36 41  1  0  0  0  0
 37 38  1  0  0  0  0
 37 35  1  0  0  0  0
 38 34  1  6  0  0  0
 38 36  1  0  0  0  0
M  END
>  <MODEL>
9

>  <REMARK>
 VINA RESULT:      -6.1      4.321      8.840
  Name = 
  15 active torsions:
  status: ('A' for Active; 'I' for Inactive)
    1  A    between atoms: C_2  and  N_26
    2  A    between atoms: C_2  and  C_30
    3  A    between atoms: C_5  and  C_32
    4  A    between atoms: C_6  and  C_7
    5  A    between atoms: N_11  and  C_31
    6  A    between atoms: C_12  and  C_19
    7  A    between atoms: C_12  and  N_21
    8  A    between atoms: C_15  and  N_21
    9  A    between atoms: C_15  and  C_39
   10  A    between atoms: C_19  and  C_41
   11  A    between atoms: C_23  and  C_41
   12  A    between atoms: C_30  and  N_34
   13  A    between atoms: C_31  and  N_34
   14  A    between atoms: C_31  and  N_40
   15  A    between atoms: C_32  and  N_40
                            x       y       z     vdW  Elec       q    Type
                         _______ _______ _______ _____ _____    ______ ____

>  <TORSDO>
F 15

$$$$
