=
 OpenBabel10222416533D

 41 43  0  0  1  0  0  0  0  0999 V2000
  184.0090  177.9930  140.7420 C   0  0  1  0  0  3  0  0  0  0  0  0
  182.1370  178.9370  142.6860 C   0  0  0  0  0  0  0  0  0  0  0  0
  181.3100  179.4610  143.4780 O   0  0  0  0  0  0  0  0  0  0  0  0
  184.4130  178.3280  142.1580 C   0  0  0  0  0  3  0  0  0  0  0  0
  182.5030  177.9300  140.5430 C   0  0  0  0  0  0  0  0  0  0  0  0
  183.5540  178.8150  143.0520 C   0  0  0  0  0  0  0  0  0  0  0  0
  181.6870  178.4090  141.4340 N   0  0  0  0  0  0  0  0  0  0  0  0
  181.9590  177.3750  139.3790 O   0  0  0  0  0  0  0  0  0  0  0  0
  181.6540  175.9930  139.2590 C   0  0  0  0  0  1  0  0  0  0  0  0
  184.6040  179.0090  139.7790 C   0  0  0  0  0  2  0  0  0  0  0  0
  184.9600  178.3490  138.4590 C   0  0  0  0  0  2  0  0  0  0  0  0
  186.3220  178.6920  138.0980 N   0  0  0  0  0  2  0  0  0  0  0  0
  187.0960  178.5290  139.2530 N   0  0  0  0  0  2  0  0  0  0  0  0
  190.1060  176.7750  140.1090 N   0  0  0  0  0  0  0  0  0  0  0  0
  190.1550  176.3000  138.8440 C   0  0  0  0  0  0  0  0  0  0  0  0
  191.2110  175.4400  138.3950 N   0  0  0  0  0  2  0  0  0  0  0  0
  189.0610  177.5690  140.3330 N   0  0  0  0  0  0  0  0  0  0  0  0
  188.8690  176.8840  137.9130 S   0  0  0  0  0  0  0  0  0  0  0  0
  188.2820  177.7370  139.2430 C   0  0  0  0  0  0  0  0  0  0  0  0
  190.3050  173.7890  136.9560 C   0  0  0  0  0  3  0  0  0  0  0  0
  188.8140  172.4100  135.4430 C   0  0  0  0  0  1  0  0  0  0  0  0
  192.6330  172.7250  135.2590 C   0  0  0  0  0  3  0  0  0  0  0  0
  193.1180  173.8630  135.7540 C   0  0  0  0  0  3  0  0  0  0  0  0
  191.2680  174.6880  137.1760 C   0  0  0  0  0  0  0  0  0  0  0  0
  190.1730  172.9140  135.7710 C   0  0  0  0  0  0  0  0  0  0  0  0
  191.2010  172.4200  135.0690 C   0  0  0  0  0  3  0  0  0  0  0  0
  192.2550  175.0290  136.1020 C   0  0  0  0  0  2  0  0  0  0  0  0
  184.0230  179.1350  144.4320 C   0  0  0  0  0  2  0  0  0  0  0  0
  185.4040  178.5430  144.6600 C   0  0  0  0  0  2  0  0  0  0  0  0
  185.7810  178.6390  146.1250 C   0  0  1  0  0  3  0  0  0  0  0  0
  184.6310  178.5490  146.9140 O   0  0  0  0  0  1  0  0  0  0  0  0
  186.7310  177.5070  146.4680 C   0  0  0  0  0  2  0  0  0  0  0  0
  188.1710  177.9430  146.2540 C   0  0  0  0  0  2  0  0  0  0  0  0
  188.8440  177.0540  145.2190 C   0  0  0  0  0  2  0  0  0  0  0  0
  192.0170  176.8290  147.0130 O   0  0  0  0  0  0  0  0  0  0  0  0
  190.7810  176.8830  146.7760 C   0  0  0  0  0  3  0  0  0  0  0  0
  190.2840  177.0060  145.4340 N   0  0  0  0  0  0  0  0  0  0  0  0
  190.9680  175.7530  143.4360 C   0  0  0  0  0  1  0  0  0  0  0  0
  191.1570  177.0140  144.2590 C   0  0  1  0  0  3  0  0  0  0  0  0
  191.3980  179.4930  144.1240 C   0  0  0  0  0  1  0  0  0  0  0  0
  190.9270  178.2480  143.3970 C   0  0  0  0  0  2  0  0  0  0  0  0
  1 10  1  6  0  0  0
  1  4  1  0  0  0  0
  2  6  1  0  0  0  0
  2  3  2  0  0  0  0
  4  6  2  0  0  0  0
  5  1  1  0  0  0  0
  5  7  2  0  0  0  0
  6 28  1  0  0  0  0
  7  2  1  0  0  0  0
  8  5  1  0  0  0  0
  9  8  1  0  0  0  0
 11 10  1  0  0  0  0
 12 11  1  0  0  0  0
 12 13  1  0  0  0  0
 14 17  1  0  0  0  0
 15 14  2  0  0  0  0
 16 15  1  0  0  0  0
 18 15  1  0  0  0  0
 18 19  1  0  0  0  0
 19 13  1  0  0  0  0
 19 17  2  0  0  0  0
 20 24  2  0  0  0  0
 21 25  1  0  0  0  0
 22 23  2  0  0  0  0
 23 27  1  0  0  0  0
 24 16  1  0  0  0  0
 25 20  1  0  0  0  0
 26 22  1  0  0  0  0
 26 25  2  0  0  0  0
 27 24  1  0  0  0  0
 28 29  1  0  0  0  0
 29 30  1  0  0  0  0
 30 32  1  0  0  0  0
 30 31  1  1  0  0  0
 33 32  1  0  0  0  0
 34 37  1  0  0  0  0
 34 33  1  0  0  0  0
 36 35  2  0  0  0  0
 37 36  1  0  0  0  0
 39 38  1  6  0  0  0
 39 37  1  0  0  0  0
 41 40  1  0  0  0  0
 41 39  1  0  0  0  0
M  END
>  <MODEL>
1

>  <REMARK>
 VINA RESULT:      -8.3      0.000      0.000
  Name = 
  15 active torsions:
  status: ('A' for Active; 'I' for Inactive)
    1  A    between atoms: C_1  and  C_13
    2  A    between atoms: O_3  and  C_18
    3  A    between atoms: N_4  and  N_19
    4  A    between atoms: C_7  and  C_13
    5  A    between atoms: C_7  and  N_19
    6  A    between atoms: C_15  and  C_20
    7  A    between atoms: C_15  and  C_26
    8  A    between atoms: C_17  and  C_25
    9  A    between atoms: C_17  and  N_39
   10  A    between atoms: C_20  and  C_34
   11  A    between atoms: N_21  and  C_27
   12  A    between atoms: C_25  and  C_37
   13  A    between atoms: C_26  and  C_37
   14  A    between atoms: C_35  and  C_36
   15  A    between atoms: C_35  and  N_39
                            x       y       z     vdW  Elec       q    Type
                         _______ _______ _______ _____ _____    ______ ____

>  <TORSDO>
F 15

$$$$
=
 OpenBabel10222416533D

 41 43  0  0  1  0  0  0  0  0999 V2000
  190.3020  177.5210  145.1220 C   0  0  1  0  0  3  0  0  0  0  0  0
  188.5860  177.0820  147.3650 C   0  0  0  0  0  0  0  0  0  0  0  0
  187.8200  176.7680  148.3150 O   0  0  0  0  0  0  0  0  0  0  0  0
  188.9000  178.0790  145.1890 C   0  0  0  0  0  3  0  0  0  0  0  0
  190.7970  176.9690  146.4490 C   0  0  0  0  0  0  0  0  0  0  0  0
  188.0800  177.8340  146.2100 C   0  0  0  0  0  0  0  0  0  0  0  0
  189.9750  176.7450  147.4310 N   0  0  0  0  0  0  0  0  0  0  0  0
  192.1490  176.6660  146.6360 O   0  0  0  0  0  0  0  0  0  0  0  0
  192.5950  175.7010  147.5790 C   0  0  0  0  0  1  0  0  0  0  0  0
  190.3770  176.4330  144.0620 C   0  0  0  0  0  2  0  0  0  0  0  0
  191.4090  176.7850  143.0060 C   0  0  0  0  0  2  0  0  0  0  0  0
  190.7740  177.5410  141.9430 N   0  0  0  0  0  2  0  0  0  0  0  0
  191.5410  177.3320  140.7900 N   0  0  0  0  0  2  0  0  0  0  0  0
  190.8620  176.6170  137.3410 N   0  0  0  0  0  0  0  0  0  0  0  0
  189.5420  176.5940  137.6350 C   0  0  0  0  0  0  0  0  0  0  0  0
  188.5450  176.3500  136.6350 N   0  0  0  0  0  2  0  0  0  0  0  0
  191.6320  176.8730  138.3970 N   0  0  0  0  0  0  0  0  0  0  0  0
  189.2670  176.9220  139.2710 S   0  0  0  0  0  0  0  0  0  0  0  0
  190.9260  177.0650  139.5310 C   0  0  0  0  0  0  0  0  0  0  0  0
  186.7880  174.7920  136.9540 C   0  0  0  0  0  3  0  0  0  0  0  0
  185.2720  172.9510  137.8070 C   0  0  0  0  0  1  0  0  0  0  0  0
  184.2150  176.1480  135.9680 C   0  0  0  0  0  3  0  0  0  0  0  0
  185.0590  177.1690  136.1070 C   0  0  0  0  0  3  0  0  0  0  0  0
  187.1530  176.0710  136.8360 C   0  0  0  0  0  0  0  0  0  0  0  0
  185.4150  174.2850  137.1680 C   0  0  0  0  0  0  0  0  0  0  0  0
  184.3050  174.8640  136.6910 C   0  0  0  0  0  3  0  0  0  0  0  0
  186.1730  177.1720  137.0990 C   0  0  0  0  0  2  0  0  0  0  0  0
  186.7030  178.4080  146.2070 C   0  0  0  0  0  2  0  0  0  0  0  0
  186.0040  178.0730  144.9000 C   0  0  0  0  0  2  0  0  0  0  0  0
  184.5340  178.4300  144.9830 C   0  0  1  0  0  3  0  0  0  0  0  0
  184.2620  179.0230  146.2190 O   0  0  0  0  0  1  0  0  0  0  0  0
  184.1920  179.3930  143.8620 C   0  0  0  0  0  2  0  0  0  0  0  0
  182.9080  178.9660  143.1700 C   0  0  0  0  0  2  0  0  0  0  0  0
  183.2120  178.4060  141.7890 C   0  0  0  0  0  2  0  0  0  0  0  0
  179.9410  179.5310  140.6180 O   0  0  0  0  0  0  0  0  0  0  0  0
  180.9410  179.3340  141.3580 C   0  0  0  0  0  3  0  0  0  0  0  0
  182.0810  178.5960  140.8910 N   0  0  0  0  0  0  0  0  0  0  0  0
  183.0120  179.0200  138.6600 C   0  0  0  0  0  1  0  0  0  0  0  0
  182.1910  178.0820  139.5250 C   0  0  1  0  0  3  0  0  0  0  0  0
  181.7110  175.6570  139.1950 C   0  0  0  0  0  1  0  0  0  0  0  0
  182.7870  176.6810  139.4990 C   0  0  0  0  0  2  0  0  0  0  0  0
  1 10  1  6  0  0  0
  1  4  1  0  0  0  0
  1  5  1  0  0  0  0
  2  7  1  0  0  0  0
  2  3  2  0  0  0  0
  4  6  2  0  0  0  0
  5  8  1  0  0  0  0
  5  7  2  0  0  0  0
  6  2  1  0  0  0  0
  8  9  1  0  0  0  0
 11 10  1  0  0  0  0
 12 11  1  0  0  0  0
 13 12  1  0  0  0  0
 14 15  2  0  0  0  0
 14 17  1  0  0  0  0
 15 18  1  0  0  0  0
 16 24  1  0  0  0  0
 16 15  1  0  0  0  0
 17 19  2  0  0  0  0
 18 19  1  0  0  0  0
 19 13  1  0  0  0  0
 20 25  1  0  0  0  0
 22 23  2  0  0  0  0
 22 26  1  0  0  0  0
 23 27  1  0  0  0  0
 24 20  2  0  0  0  0
 24 27  1  0  0  0  0
 25 21  1  0  0  0  0
 26 25  2  0  0  0  0
 28  6  1  0  0  0  0
 29 30  1  0  0  0  0
 29 28  1  0  0  0  0
 30 31  1  1  0  0  0
 32 30  1  0  0  0  0
 33 32  1  0  0  0  0
 34 33  1  0  0  0  0
 35 36  2  0  0  0  0
 37 36  1  0  0  0  0
 37 34  1  0  0  0  0
 39 38  1  6  0  0  0
 39 37  1  0  0  0  0
 40 41  1  0  0  0  0
 41 39  1  0  0  0  0
M  END
>  <MODEL>
2

>  <REMARK>
 VINA RESULT:      -8.3      2.409      7.533
  Name = 
  15 active torsions:
  status: ('A' for Active; 'I' for Inactive)
    1  A    between atoms: C_1  and  C_13
    2  A    between atoms: O_3  and  C_18
    3  A    between atoms: N_4  and  N_19
    4  A    between atoms: C_7  and  C_13
    5  A    between atoms: C_7  and  N_19
    6  A    between atoms: C_15  and  C_20
    7  A    between atoms: C_15  and  C_26
    8  A    between atoms: C_17  and  C_25
    9  A    between atoms: C_17  and  N_39
   10  A    between atoms: C_20  and  C_34
   11  A    between atoms: N_21  and  C_27
   12  A    between atoms: C_25  and  C_37
   13  A    between atoms: C_26  and  C_37
   14  A    between atoms: C_35  and  C_36
   15  A    between atoms: C_35  and  N_39
                            x       y       z     vdW  Elec       q    Type
                         _______ _______ _______ _____ _____    ______ ____

>  <TORSDO>
F 15

$$$$
=
 OpenBabel10222416533D

 41 43  0  0  1  0  0  0  0  0999 V2000
  190.2550  177.5030  145.0570 C   0  0  1  0  0  3  0  0  0  0  0  0
  188.5550  177.1270  147.3230 C   0  0  0  0  0  0  0  0  0  0  0  0
  187.7960  176.8400  148.2860 O   0  0  0  0  0  0  0  0  0  0  0  0
  188.8540  178.0630  145.1180 C   0  0  0  0  0  3  0  0  0  0  0  0
  190.7590  176.9880  146.3950 C   0  0  0  0  0  0  0  0  0  0  0  0
  188.0420  177.8470  146.1510 C   0  0  0  0  0  0  0  0  0  0  0  0
  189.9440  176.7910  147.3890 N   0  0  0  0  0  0  0  0  0  0  0  0
  192.1130  176.6900  146.5810 O   0  0  0  0  0  0  0  0  0  0  0  0
  192.5610  175.6900  147.4870 C   0  0  0  0  0  1  0  0  0  0  0  0
  190.3230  176.3860  144.0270 C   0  0  0  0  0  2  0  0  0  0  0  0
  191.5790  176.5110  143.1840 C   0  0  0  0  0  2  0  0  0  0  0  0
  191.3430  177.4410  142.0970 N   0  0  0  0  0  2  0  0  0  0  0  0
  192.4340  177.3270  141.2270 N   0  0  0  0  0  2  0  0  0  0  0  0
  192.8800  176.6980  137.7240 N   0  0  0  0  0  0  0  0  0  0  0  0
  191.5390  176.5740  137.6050 C   0  0  0  0  0  0  0  0  0  0  0  0
  190.9100  176.3020  136.3450 N   0  0  0  0  0  2  0  0  0  0  0  0
  193.2750  176.9650  138.9670 N   0  0  0  0  0  0  0  0  0  0  0  0
  190.7600  176.8220  139.0850 S   0  0  0  0  0  0  0  0  0  0  0  0
  192.2480  177.0660  139.8370 C   0  0  0  0  0  0  0  0  0  0  0  0
  188.6610  176.8970  135.8950 C   0  0  0  0  0  3  0  0  0  0  0  0
  186.5240  177.8180  134.8930 C   0  0  0  0  0  1  0  0  0  0  0  0
  186.9120  174.6090  136.9590 C   0  0  0  0  0  3  0  0  0  0  0  0
  188.1250  174.0600  136.9040 C   0  0  0  0  0  3  0  0  0  0  0  0
  189.5470  175.9220  136.1120 C   0  0  0  0  0  0  0  0  0  0  0  0
  187.2150  176.7290  135.6320 C   0  0  0  0  0  0  0  0  0  0  0  0
  186.4560  175.7510  136.1420 C   0  0  0  0  0  3  0  0  0  0  0  0
  189.1650  174.4870  135.9240 C   0  0  0  0  0  2  0  0  0  0  0  0
  186.6640  178.4210  146.1410 C   0  0  0  0  0  2  0  0  0  0  0  0
  185.8840  177.8780  144.9550 C   0  0  0  0  0  2  0  0  0  0  0  0
  184.5080  178.5100  144.8980 C   0  0  1  0  0  3  0  0  0  0  0  0
  184.2170  179.1180  146.1220 O   0  0  0  0  0  1  0  0  0  0  0  0
  184.4830  179.5440  143.7890 C   0  0  0  0  0  2  0  0  0  0  0  0
  185.2820  179.0570  142.5920 C   0  0  0  0  0  2  0  0  0  0  0  0
  184.3570  178.7790  141.4160 C   0  0  0  0  0  2  0  0  0  0  0  0
  187.2130  178.4910  139.1580 O   0  0  0  0  0  0  0  0  0  0  0  0
  186.5240  178.5370  140.2120 C   0  0  0  0  0  3  0  0  0  0  0  0
  185.1040  178.7440  140.1660 N   0  0  0  0  0  0  0  0  0  0  0  0
  183.9450  177.4790  138.4090 C   0  0  0  0  0  1  0  0  0  0  0  0
  184.3550  178.8510  138.9120 C   0  0  1  0  0  3  0  0  0  0  0  0
  182.1230  179.4480  137.9730 C   0  0  0  0  0  1  0  0  0  0  0  0
  183.1330  179.7460  139.0640 C   0  0  0  0  0  2  0  0  0  0  0  0
  1 10  1  6  0  0  0
  1  4  1  0  0  0  0
  1  5  1  0  0  0  0
  2  7  1  0  0  0  0
  2  3  2  0  0  0  0
  4  6  2  0  0  0  0
  5  8  1  0  0  0  0
  5  7  2  0  0  0  0
  6  2  1  0  0  0  0
  8  9  1  0  0  0  0
 11 10  1  0  0  0  0
 12 11  1  0  0  0  0
 13 12  1  0  0  0  0
 14 17  1  0  0  0  0
 15 14  2  0  0  0  0
 15 18  1  0  0  0  0
 16 15  1  0  0  0  0
 17 19  2  0  0  0  0
 18 19  1  0  0  0  0
 19 13  1  0  0  0  0
 20 24  2  0  0  0  0
 21 25  1  0  0  0  0
 23 22  2  0  0  0  0
 24 16  1  0  0  0  0
 25 20  1  0  0  0  0
 25 26  2  0  0  0  0
 26 22  1  0  0  0  0
 27 24  1  0  0  0  0
 27 23  1  0  0  0  0
 28  6  1  0  0  0  0
 29 28  1  0  0  0  0
 30 29  1  0  0  0  0
 30 31  1  1  0  0  0
 32 30  1  0  0  0  0
 33 32  1  0  0  0  0
 34 33  1  0  0  0  0
 35 36  2  0  0  0  0
 37 36  1  0  0  0  0
 37 34  1  0  0  0  0
 39 38  1  1  0  0  0
 39 41  1  0  0  0  0
 39 37  1  0  0  0  0
 40 41  1  0  0  0  0
M  END
>  <MODEL>
3

>  <REMARK>
 VINA RESULT:      -8.2      2.289      6.851
  Name = 
  15 active torsions:
  status: ('A' for Active; 'I' for Inactive)
    1  A    between atoms: C_1  and  C_13
    2  A    between atoms: O_3  and  C_18
    3  A    between atoms: N_4  and  N_19
    4  A    between atoms: C_7  and  C_13
    5  A    between atoms: C_7  and  N_19
    6  A    between atoms: C_15  and  C_20
    7  A    between atoms: C_15  and  C_26
    8  A    between atoms: C_17  and  C_25
    9  A    between atoms: C_17  and  N_39
   10  A    between atoms: C_20  and  C_34
   11  A    between atoms: N_21  and  C_27
   12  A    between atoms: C_25  and  C_37
   13  A    between atoms: C_26  and  C_37
   14  A    between atoms: C_35  and  C_36
   15  A    between atoms: C_35  and  N_39
                            x       y       z     vdW  Elec       q    Type
                         _______ _______ _______ _____ _____    ______ ____

>  <TORSDO>
F 15

$$$$
=
 OpenBabel10222416533D

 41 43  0  0  1  0  0  0  0  0999 V2000
  190.2390  177.5740  145.1650 C   0  0  1  0  0  3  0  0  0  0  0  0
  188.5380  177.0280  147.3970 C   0  0  0  0  0  0  0  0  0  0  0  0
  187.7800  176.6700  148.3360 O   0  0  0  0  0  0  0  0  0  0  0  0
  188.8330  178.1170  145.2620 C   0  0  0  0  0  3  0  0  0  0  0  0
  190.7450  176.9720  146.4660 C   0  0  0  0  0  0  0  0  0  0  0  0
  188.0210  177.8240  146.2760 C   0  0  0  0  0  0  0  0  0  0  0  0
  189.9300  176.7000  147.4420 N   0  0  0  0  0  0  0  0  0  0  0  0
  192.1010  176.6720  146.6340 O   0  0  0  0  0  0  0  0  0  0  0  0
  192.5570  175.6420  147.5000 C   0  0  0  0  0  1  0  0  0  0  0  0
  190.3170  176.5300  144.0610 C   0  0  0  0  0  2  0  0  0  0  0  0
  190.2400  177.1900  142.6960 C   0  0  0  0  0  2  0  0  0  0  0  0
  188.9830  176.8430  142.0610 N   0  0  0  0  0  2  0  0  0  0  0  0
  188.6870  177.8780  141.1650 N   0  0  0  0  0  2  0  0  0  0  0  0
  189.2700  178.5140  137.6840 N   0  0  0  0  0  0  0  0  0  0  0  0
  189.9380  177.3410  137.6100 C   0  0  0  0  0  0  0  0  0  0  0  0
  190.5130  176.8700  136.3850 N   0  0  0  0  0  2  0  0  0  0  0  0
  188.7960  178.7750  138.9000 N   0  0  0  0  0  0  0  0  0  0  0  0
  189.9510  176.5410  139.1000 S   0  0  0  0  0  0  0  0  0  0  0  0
  189.0770  177.8040  139.7950 C   0  0  0  0  0  0  0  0  0  0  0  0
  190.9220  174.5890  135.8860 C   0  0  0  0  0  3  0  0  0  0  0  0
  191.0520  172.3040  134.7990 C   0  0  0  0  0  1  0  0  0  0  0  0
  193.5830  173.8540  137.2310 C   0  0  0  0  0  3  0  0  0  0  0  0
  193.6030  175.1860  137.2320 C   0  0  0  0  0  3  0  0  0  0  0  0
  191.4300  175.7810  136.2100 C   0  0  0  0  0  0  0  0  0  0  0  0
  191.6830  173.3410  135.6570 C   0  0  0  0  0  0  0  0  0  0  0  0
  192.8190  173.0140  136.2880 C   0  0  0  0  0  3  0  0  0  0  0  0
  192.9090  176.0090  136.1990 C   0  0  0  0  0  2  0  0  0  0  0  0
  186.6380  178.3850  146.3030 C   0  0  0  0  0  2  0  0  0  0  0  0
  185.9730  178.1900  144.9510 C   0  0  0  0  0  2  0  0  0  0  0  0
  184.4760  178.4000  145.0670 C   0  0  1  0  0  3  0  0  0  0  0  0
  184.1810  179.0230  146.2830 O   0  0  0  0  0  1  0  0  0  0  0  0
  184.0060  179.2680  143.9150 C   0  0  0  0  0  2  0  0  0  0  0  0
  184.1860  178.5380  142.5950 C   0  0  0  0  0  2  0  0  0  0  0  0
  182.9000  178.5860  141.7840 C   0  0  0  0  0  2  0  0  0  0  0  0
  184.8160  179.4480  138.7970 O   0  0  0  0  0  0  0  0  0  0  0  0
  184.5230  179.2020  139.9970 C   0  0  0  0  0  3  0  0  0  0  0  0
  183.1800  178.8690  140.3830 N   0  0  0  0  0  0  0  0  0  0  0  0
  181.1460  177.6110  139.8290 C   0  0  0  0  0  1  0  0  0  0  0  0
  182.0860  178.7290  139.4190 C   0  0  1  0  0  3  0  0  0  0  0  0
  181.5290  180.5920  137.8570 C   0  0  0  0  0  1  0  0  0  0  0  0
  181.3170  180.0320  139.2510 C   0  0  0  0  0  2  0  0  0  0  0  0
  1 10  1  6  0  0  0
  1  4  1  0  0  0  0
  1  5  1  0  0  0  0
  2  7  1  0  0  0  0
  2  3  2  0  0  0  0
  4  6  2  0  0  0  0
  5  8  1  0  0  0  0
  5  7  2  0  0  0  0
  6 28  1  0  0  0  0
  6  2  1  0  0  0  0
  8  9  1  0  0  0  0
 11 10  1  0  0  0  0
 12 11  1  0  0  0  0
 13 12  1  0  0  0  0
 14 17  1  0  0  0  0
 15 14  2  0  0  0  0
 15 18  1  0  0  0  0
 16 15  1  0  0  0  0
 17 19  2  0  0  0  0
 18 19  1  0  0  0  0
 19 13  1  0  0  0  0
 20 24  2  0  0  0  0
 21 25  1  0  0  0  0
 22 23  2  0  0  0  0
 24 16  1  0  0  0  0
 25 20  1  0  0  0  0
 25 26  2  0  0  0  0
 26 22  1  0  0  0  0
 27 24  1  0  0  0  0
 27 23  1  0  0  0  0
 29 30  1  0  0  0  0
 29 28  1  0  0  0  0
 30 31  1  1  0  0  0
 32 30  1  0  0  0  0
 33 32  1  0  0  0  0
 34 33  1  0  0  0  0
 35 36  2  0  0  0  0
 36 37  1  0  0  0  0
 37 34  1  0  0  0  0
 39 38  1  1  0  0  0
 39 37  1  0  0  0  0
 40 41  1  0  0  0  0
 41 39  1  0  0  0  0
M  END
>  <MODEL>
4

>  <REMARK>
 VINA RESULT:      -8.0      1.731      6.779
  Name = 
  15 active torsions:
  status: ('A' for Active; 'I' for Inactive)
    1  A    between atoms: C_1  and  C_13
    2  A    between atoms: O_3  and  C_18
    3  A    between atoms: N_4  and  N_19
    4  A    between atoms: C_7  and  C_13
    5  A    between atoms: C_7  and  N_19
    6  A    between atoms: C_15  and  C_20
    7  A    between atoms: C_15  and  C_26
    8  A    between atoms: C_17  and  C_25
    9  A    between atoms: C_17  and  N_39
   10  A    between atoms: C_20  and  C_34
   11  A    between atoms: N_21  and  C_27
   12  A    between atoms: C_25  and  C_37
   13  A    between atoms: C_26  and  C_37
   14  A    between atoms: C_35  and  C_36
   15  A    between atoms: C_35  and  N_39
                            x       y       z     vdW  Elec       q    Type
                         _______ _______ _______ _____ _____    ______ ____

>  <TORSDO>
F 15

$$$$
=
 OpenBabel10222416533D

 41 43  0  0  1  0  0  0  0  0999 V2000
  189.2810  177.5960  145.0500 C   0  0  1  0  0  3  0  0  0  0  0  0
  188.2710  177.3340  147.7110 C   0  0  0  0  0  0  0  0  0  0  0  0
  187.8150  177.0950  148.8610 O   0  0  0  0  0  0  0  0  0  0  0  0
  187.9130  178.0960  145.4480 C   0  0  0  0  0  3  0  0  0  0  0  0
  190.1550  177.2170  146.2350 C   0  0  0  0  0  0  0  0  0  0  0  0
  187.4200  177.9310  146.6740 C   0  0  0  0  0  0  0  0  0  0  0  0
  189.6470  177.0680  147.4230 N   0  0  0  0  0  0  0  0  0  0  0  0
  191.5260  176.9960  146.0700 O   0  0  0  0  0  0  0  0  0  0  0  0
  192.1750  175.8200  146.5340 C   0  0  0  0  0  1  0  0  0  0  0  0
  189.1460  176.4010  144.1190 C   0  0  0  0  0  2  0  0  0  0  0  0
  188.6330  176.8380  142.7590 C   0  0  0  0  0  2  0  0  0  0  0  0
  189.5390  177.8200  142.1930 N   0  0  0  0  0  2  0  0  0  0  0  0
  188.8620  178.4200  141.1240 N   0  0  0  0  0  2  0  0  0  0  0  0
  188.8500  178.0580  137.5550 N   0  0  0  0  0  0  0  0  0  0  0  0
  189.8150  177.1190  137.6760 C   0  0  0  0  0  0  0  0  0  0  0  0
  190.3630  176.4420  136.5370 N   0  0  0  0  0  2  0  0  0  0  0  0
  188.4580  178.5630  138.7230 N   0  0  0  0  0  0  0  0  0  0  0  0
  190.2210  176.8520  139.2960 S   0  0  0  0  0  0  0  0  0  0  0  0
  189.1030  178.0180  139.7770 C   0  0  0  0  0  0  0  0  0  0  0  0
  191.3640  174.3290  136.1450 C   0  0  0  0  0  3  0  0  0  0  0  0
  192.1620  172.1460  135.1380 C   0  0  0  0  0  1  0  0  0  0  0  0
  193.9540  174.2600  137.7920 C   0  0  0  0  0  3  0  0  0  0  0  0
  193.6520  175.5570  137.7610 C   0  0  0  0  0  3  0  0  0  0  0  0
  191.5290  175.6080  136.4920 C   0  0  0  0  0  0  0  0  0  0  0  0
  192.4240  173.3040  136.0330 C   0  0  0  0  0  0  0  0  0  0  0  0
  193.5270  173.2610  136.7920 C   0  0  0  0  0  3  0  0  0  0  0  0
  192.9010  176.1890  136.6370 C   0  0  0  0  0  2  0  0  0  0  0  0
  186.0540  178.4400  146.9970 C   0  0  0  0  0  2  0  0  0  0  0  0
  185.5340  179.2920  145.8520 C   0  0  0  0  0  2  0  0  0  0  0  0
  184.4250  178.5640  145.1180 C   0  0  1  0  0  3  0  0  0  0  0  0
  183.3070  179.3950  145.0110 O   0  0  0  0  0  1  0  0  0  0  0  0
  184.9160  178.1790  143.7350 C   0  0  0  0  0  2  0  0  0  0  0  0
  184.2590  179.0520  142.6780 C   0  0  0  0  0  2  0  0  0  0  0  0
  183.7920  178.2030  141.5060 C   0  0  0  0  0  2  0  0  0  0  0  0
  180.3100  179.3010  141.5630 O   0  0  0  0  0  0  0  0  0  0  0  0
  181.4380  178.8920  141.9440 C   0  0  0  0  0  3  0  0  0  0  0  0
  182.5040  178.6680  141.0080 N   0  0  0  0  0  0  0  0  0  0  0  0
  183.5740  179.7520  139.0820 C   0  0  0  0  0  1  0  0  0  0  0  0
  182.3820  178.9550  139.5770 C   0  0  1  0  0  3  0  0  0  0  0  0
  182.8320  177.8540  137.3850 C   0  0  0  0  0  1  0  0  0  0  0  0
  182.2210  177.6790  138.7620 C   0  0  0  0  0  2  0  0  0  0  0  0
  1 10  1  6  0  0  0
  1  4  1  0  0  0  0
  1  5  1  0  0  0  0
  2  3  2  0  0  0  0
  4  6  2  0  0  0  0
  5  7  2  0  0  0  0
  6 28  1  0  0  0  0
  6  2  1  0  0  0  0
  7  2  1  0  0  0  0
  8  5  1  0  0  0  0
  8  9  1  0  0  0  0
 11 10  1  0  0  0  0
 12 11  1  0  0  0  0
 13 12  1  0  0  0  0
 14 15  2  0  0  0  0
 14 17  1  0  0  0  0
 15 18  1  0  0  0  0
 16 15  1  0  0  0  0
 17 19  2  0  0  0  0
 18 19  1  0  0  0  0
 19 13  1  0  0  0  0
 20 24  2  0  0  0  0
 21 25  1  0  0  0  0
 23 22  2  0  0  0  0
 24 16  1  0  0  0  0
 24 27  1  0  0  0  0
 25 20  1  0  0  0  0
 25 26  2  0  0  0  0
 26 22  1  0  0  0  0
 27 23  1  0  0  0  0
 29 28  1  0  0  0  0
 30 31  1  6  0  0  0
 30 29  1  0  0  0  0
 32 30  1  0  0  0  0
 33 32  1  0  0  0  0
 34 33  1  0  0  0  0
 35 36  2  0  0  0  0
 37 34  1  0  0  0  0
 37 36  1  0  0  0  0
 39 38  1  6  0  0  0
 39 37  1  0  0  0  0
 40 41  1  0  0  0  0
 41 39  1  0  0  0  0
M  END
>  <MODEL>
5

>  <REMARK>
 VINA RESULT:      -7.9      1.705      6.641
  Name = 
  15 active torsions:
  status: ('A' for Active; 'I' for Inactive)
    1  A    between atoms: C_1  and  C_13
    2  A    between atoms: O_3  and  C_18
    3  A    between atoms: N_4  and  N_19
    4  A    between atoms: C_7  and  C_13
    5  A    between atoms: C_7  and  N_19
    6  A    between atoms: C_15  and  C_20
    7  A    between atoms: C_15  and  C_26
    8  A    between atoms: C_17  and  C_25
    9  A    between atoms: C_17  and  N_39
   10  A    between atoms: C_20  and  C_34
   11  A    between atoms: N_21  and  C_27
   12  A    between atoms: C_25  and  C_37
   13  A    between atoms: C_26  and  C_37
   14  A    between atoms: C_35  and  C_36
   15  A    between atoms: C_35  and  N_39
                            x       y       z     vdW  Elec       q    Type
                         _______ _______ _______ _____ _____    ______ ____

>  <TORSDO>
F 15

$$$$
=
 OpenBabel10222416533D

 41 43  0  0  1  0  0  0  0  0999 V2000
  189.1570  177.7990  144.2220 C   0  0  1  0  0  3  0  0  0  0  0  0
  188.5470  177.3790  146.9830 C   0  0  0  0  0  0  0  0  0  0  0  0
  188.2940  177.0720  148.1780 O   0  0  0  0  0  0  0  0  0  0  0  0
  187.7630  177.9690  144.7770 C   0  0  0  0  0  3  0  0  0  0  0  0
  190.2240  177.6740  145.2980 C   0  0  0  0  0  0  0  0  0  0  0  0
  187.4650  177.7250  146.0520 C   0  0  0  0  0  0  0  0  0  0  0  0
  189.9050  177.4420  146.5370 N   0  0  0  0  0  0  0  0  0  0  0  0
  191.5810  177.7820  144.9740 O   0  0  0  0  0  0  0  0  0  0  0  0
  192.0580  178.6340  143.9430 C   0  0  0  0  0  1  0  0  0  0  0  0
  189.2100  176.5800  143.3140 C   0  0  0  0  0  2  0  0  0  0  0  0
  188.6740  176.9180  141.9340 C   0  0  0  0  0  2  0  0  0  0  0  0
  189.7330  176.7720  140.9540 N   0  0  0  0  0  2  0  0  0  0  0  0
  189.7960  177.9810  140.2500 N   0  0  0  0  0  2  0  0  0  0  0  0
  188.2990  179.3040  137.2700 N   0  0  0  0  0  0  0  0  0  0  0  0
  187.6770  178.1170  137.0900 C   0  0  0  0  0  0  0  0  0  0  0  0
  186.7980  177.8800  135.9820 N   0  0  0  0  0  2  0  0  0  0  0  0
  189.0620  179.3380  138.3610 N   0  0  0  0  0  0  0  0  0  0  0  0
  188.0430  177.0300  138.3330 S   0  0  0  0  0  0  0  0  0  0  0  0
  189.0380  178.1820  139.0580 C   0  0  0  0  0  0  0  0  0  0  0  0
  184.9750  176.3760  135.8010 C   0  0  0  0  0  3  0  0  0  0  0  0
  182.7500  175.2740  135.3040 C   0  0  0  0  0  1  0  0  0  0  0  0
  186.1750  173.5620  135.5420 C   0  0  0  0  0  3  0  0  0  0  0  0
  187.2090  174.3560  135.2680 C   0  0  0  0  0  3  0  0  0  0  0  0
  186.2620  176.6250  135.5430 C   0  0  0  0  0  0  0  0  0  0  0  0
  184.2260  175.1550  135.4380 C   0  0  0  0  0  0  0  0  0  0  0  0
  184.7540  173.9260  135.3740 C   0  0  0  0  0  3  0  0  0  0  0  0
  187.0550  175.7100  134.6620 C   0  0  0  0  0  2  0  0  0  0  0  0
  186.0630  177.9020  146.5310 C   0  0  0  0  0  2  0  0  0  0  0  0
  185.4270  179.0980  145.8430 C   0  0  0  0  0  2  0  0  0  0  0  0
  184.3770  178.6360  144.8520 C   0  0  1  0  0  3  0  0  0  0  0  0
  183.1180  179.0940  145.2510 O   0  0  0  0  0  1  0  0  0  0  0  0
  184.7150  179.1870  143.4790 C   0  0  0  0  0  2  0  0  0  0  0  0
  184.2810  178.2130  142.3970 C   0  0  0  0  0  2  0  0  0  0  0  0
  183.1010  178.7780  141.6190 C   0  0  0  0  0  2  0  0  0  0  0  0
  184.7430  179.2780  138.3960 O   0  0  0  0  0  0  0  0  0  0  0  0
  184.4930  179.3320  139.6290 C   0  0  0  0  0  3  0  0  0  0  0  0
  183.3350  178.6900  140.1840 N   0  0  0  0  0  0  0  0  0  0  0  0
  182.8300  176.4280  139.3720 C   0  0  0  0  0  1  0  0  0  0  0  0
  182.4090  177.8860  139.3840 C   0  0  1  0  0  3  0  0  0  0  0  0
  180.1640  178.8690  138.9210 C   0  0  0  0  0  1  0  0  0  0  0  0
  180.9760  178.0200  139.8800 C   0  0  0  0  0  2  0  0  0  0  0  0
  1 10  1  1  0  0  0
  1  4  1  0  0  0  0
  1  5  1  0  0  0  0
  2  3  2  0  0  0  0
  4  6  2  0  0  0  0
  5  7  2  0  0  0  0
  6 28  1  0  0  0  0
  6  2  1  0  0  0  0
  7  2  1  0  0  0  0
  8  5  1  0  0  0  0
  9  8  1  0  0  0  0
 11 10  1  0  0  0  0
 12 11  1  0  0  0  0
 13 12  1  0  0  0  0
 14 17  1  0  0  0  0
 15 14  2  0  0  0  0
 15 18  1  0  0  0  0
 16 15  1  0  0  0  0
 17 19  2  0  0  0  0
 18 19  1  0  0  0  0
 19 13  1  0  0  0  0
 21 25  1  0  0  0  0
 23 22  2  0  0  0  0
 24 20  2  0  0  0  0
 24 16  1  0  0  0  0
 25 20  1  0  0  0  0
 26 25  2  0  0  0  0
 26 22  1  0  0  0  0
 27 23  1  0  0  0  0
 27 24  1  0  0  0  0
 29 28  1  0  0  0  0
 30 31  1  1  0  0  0
 30 29  1  0  0  0  0
 32 30  1  0  0  0  0
 33 32  1  0  0  0  0
 34 33  1  0  0  0  0
 35 36  2  0  0  0  0
 36 37  1  0  0  0  0
 37 34  1  0  0  0  0
 39 38  1  1  0  0  0
 39 41  1  0  0  0  0
 39 37  1  0  0  0  0
 40 41  1  0  0  0  0
M  END
>  <MODEL>
6

>  <REMARK>
 VINA RESULT:      -7.7      2.504      6.996
  Name = 
  15 active torsions:
  status: ('A' for Active; 'I' for Inactive)
    1  A    between atoms: C_1  and  C_13
    2  A    between atoms: O_3  and  C_18
    3  A    between atoms: N_4  and  N_19
    4  A    between atoms: C_7  and  C_13
    5  A    between atoms: C_7  and  N_19
    6  A    between atoms: C_15  and  C_20
    7  A    between atoms: C_15  and  C_26
    8  A    between atoms: C_17  and  C_25
    9  A    between atoms: C_17  and  N_39
   10  A    between atoms: C_20  and  C_34
   11  A    between atoms: N_21  and  C_27
   12  A    between atoms: C_25  and  C_37
   13  A    between atoms: C_26  and  C_37
   14  A    between atoms: C_35  and  C_36
   15  A    between atoms: C_35  and  N_39
                            x       y       z     vdW  Elec       q    Type
                         _______ _______ _______ _____ _____    ______ ____

>  <TORSDO>
F 15

$$$$
=
 OpenBabel10222416533D

 41 43  0  0  1  0  0  0  0  0999 V2000
  185.0550  178.1640  142.4660 C   0  0  1  0  0  3  0  0  0  0  0  0
  184.0410  178.6650  145.0910 C   0  0  0  0  0  0  0  0  0  0  0  0
  183.6080  179.0090  146.2230 O   0  0  0  0  0  0  0  0  0  0  0  0
  185.8590  177.8770  143.7120 C   0  0  0  0  0  3  0  0  0  0  0  0
  183.5910  178.4600  142.7470 C   0  0  0  0  0  0  0  0  0  0  0  0
  185.4100  178.1560  144.9340 C   0  0  0  0  0  0  0  0  0  0  0  0
  183.1780  178.7240  143.9520 N   0  0  0  0  0  0  0  0  0  0  0  0
  182.6540  178.4800  141.7090 O   0  0  0  0  0  0  0  0  0  0  0  0
  181.2680  178.7000  141.9300 C   0  0  0  0  0  1  0  0  0  0  0  0
  185.6700  179.3300  141.7090 C   0  0  0  0  0  2  0  0  0  0  0  0
  185.3360  179.2440  140.2300 C   0  0  0  0  0  2  0  0  0  0  0  0
  186.2930  178.3790  139.5670 N   0  0  0  0  0  2  0  0  0  0  0  0
  186.1740  178.6280  138.1940 N   0  0  0  0  0  2  0  0  0  0  0  0
  187.8100  177.4740  135.2180 N   0  0  0  0  0  0  0  0  0  0  0  0
  188.6260  176.7230  135.9920 C   0  0  0  0  0  0  0  0  0  0  0  0
  189.6460  175.8860  135.4310 N   0  0  0  0  0  2  0  0  0  0  0  0
  186.9180  178.1730  135.9170 N   0  0  0  0  0  0  0  0  0  0  0  0
  188.2450  176.8840  137.6310 S   0  0  0  0  0  0  0  0  0  0  0  0
  187.0140  177.9690  137.2480 C   0  0  0  0  0  0  0  0  0  0  0  0
  191.5620  175.9860  136.8230 C   0  0  0  0  0  3  0  0  0  0  0  0
  193.1930  176.3800  138.7200 C   0  0  0  0  0  1  0  0  0  0  0  0
  193.2400  173.4910  136.1950 C   0  0  0  0  0  3  0  0  0  0  0  0
  192.0490  173.1910  135.6780 C   0  0  0  0  0  3  0  0  0  0  0  0
  190.7150  175.2260  136.1230 C   0  0  0  0  0  0  0  0  0  0  0  0
  192.7230  175.5130  137.6070 C   0  0  0  0  0  0  0  0  0  0  0  0
  193.4740  174.4500  137.2940 C   0  0  0  0  0  3  0  0  0  0  0  0
  190.7690  173.7330  136.2190 C   0  0  0  0  0  2  0  0  0  0  0  0
  186.2620  177.8570  146.1220 C   0  0  0  0  0  2  0  0  0  0  0  0
  187.6860  177.5660  145.6790 C   0  0  0  0  0  2  0  0  0  0  0  0
  188.6590  177.8800  146.7970 C   0  0  1  0  0  3  0  0  0  0  0  0
  187.9530  178.2410  147.9480 O   0  0  0  0  0  1  0  0  0  0  0  0
  189.5070  176.6530  147.0760 C   0  0  0  0  0  2  0  0  0  0  0  0
  190.9610  176.9260  146.7270 C   0  0  0  0  0  2  0  0  0  0  0  0
  191.2800  176.3970  145.3360 C   0  0  0  0  0  2  0  0  0  0  0  0
  191.6640  179.7280  143.8910 O   0  0  0  0  0  0  0  0  0  0  0  0
  191.6880  178.7740  144.7120 C   0  0  0  0  0  3  0  0  0  0  0  0
  191.2200  177.4660  144.3490 N   0  0  0  0  0  0  0  0  0  0  0  0
  190.5770  175.6350  142.8440 C   0  0  0  0  0  1  0  0  0  0  0  0
  190.7470  177.1340  143.0030 C   0  0  1  0  0  3  0  0  0  0  0  0
  189.1490  177.7490  141.1890 C   0  0  0  0  0  1  0  0  0  0  0  0
  189.4460  177.8530  142.6730 C   0  0  0  0  0  2  0  0  0  0  0  0
  1 10  1  1  0  0  0
  1  5  1  0  0  0  0
  1  4  1  0  0  0  0
  2  3  2  0  0  0  0
  4  6  2  0  0  0  0
  5  7  2  0  0  0  0
  6  2  1  0  0  0  0
  6 28  1  0  0  0  0
  7  2  1  0  0  0  0
  8  9  1  0  0  0  0
  8  5  1  0  0  0  0
 11 10  1  0  0  0  0
 12 11  1  0  0  0  0
 13 12  1  0  0  0  0
 14 17  1  0  0  0  0
 14 15  2  0  0  0  0
 15 18  1  0  0  0  0
 16 15  1  0  0  0  0
 16 24  1  0  0  0  0
 17 19  2  0  0  0  0
 19 18  1  0  0  0  0
 19 13  1  0  0  0  0
 20 25  1  0  0  0  0
 22 26  1  0  0  0  0
 23 22  2  0  0  0  0
 23 27  1  0  0  0  0
 24 27  1  0  0  0  0
 24 20  2  0  0  0  0
 25 21  1  0  0  0  0
 26 25  2  0  0  0  0
 29 28  1  0  0  0  0
 29 30  1  0  0  0  0
 30 32  1  0  0  0  0
 30 31  1  1  0  0  0
 33 32  1  0  0  0  0
 34 33  1  0  0  0  0
 35 36  2  0  0  0  0
 37 36  1  0  0  0  0
 37 34  1  0  0  0  0
 39 38  1  1  0  0  0
 39 37  1  0  0  0  0
 40 41  1  0  0  0  0
 41 39  1  0  0  0  0
M  END
>  <MODEL>
7

>  <REMARK>
 VINA RESULT:      -7.7      1.890      3.031
  Name = 
  15 active torsions:
  status: ('A' for Active; 'I' for Inactive)
    1  A    between atoms: C_1  and  C_13
    2  A    between atoms: O_3  and  C_18
    3  A    between atoms: N_4  and  N_19
    4  A    between atoms: C_7  and  C_13
    5  A    between atoms: C_7  and  N_19
    6  A    between atoms: C_15  and  C_20
    7  A    between atoms: C_15  and  C_26
    8  A    between atoms: C_17  and  C_25
    9  A    between atoms: C_17  and  N_39
   10  A    between atoms: C_20  and  C_34
   11  A    between atoms: N_21  and  C_27
   12  A    between atoms: C_25  and  C_37
   13  A    between atoms: C_26  and  C_37
   14  A    between atoms: C_35  and  C_36
   15  A    between atoms: C_35  and  N_39
                            x       y       z     vdW  Elec       q    Type
                         _______ _______ _______ _____ _____    ______ ____

>  <TORSDO>
F 15

$$$$
=
 OpenBabel10222416533D

 41 43  0  0  1  0  0  0  0  0999 V2000
  188.1130  177.1020  145.6330 C   0  0  1  0  0  3  0  0  0  0  0  0
  190.0500  178.2590  143.8770 C   0  0  0  0  0  0  0  0  0  0  0  0
  190.8830  178.8780  143.1640 O   0  0  0  0  0  0  0  0  0  0  0  0
  187.8330  177.3480  144.1690 C   0  0  0  0  0  3  0  0  0  0  0  0
  189.5800  177.2540  146.0010 C   0  0  0  0  0  0  0  0  0  0  0  0
  188.7140  177.9330  143.3600 C   0  0  0  0  0  0  0  0  0  0  0  0
  190.4210  177.8250  145.1890 N   0  0  0  0  0  0  0  0  0  0  0  0
  190.0570  176.8040  147.2360 O   0  0  0  0  0  0  0  0  0  0  0  0
  191.3440  176.2240  147.3970 C   0  0  0  0  0  1  0  0  0  0  0  0
  187.2780  178.0430  146.4860 C   0  0  0  0  0  2  0  0  0  0  0  0
  185.8120  177.9570  146.0990 C   0  0  0  0  0  2  0  0  0  0  0  0
  185.4110  179.1890  145.4460 N   0  0  0  0  0  2  0  0  0  0  0  0
  184.0120  179.2290  145.4930 N   0  0  0  0  0  2  0  0  0  0  0  0
  181.3430  178.7490  143.1450 N   0  0  0  0  0  0  0  0  0  0  0  0
  182.2670  178.5530  142.1780 C   0  0  0  0  0  0  0  0  0  0  0  0
  181.8990  178.2640  140.8230 N   0  0  0  0  0  2  0  0  0  0  0  0
  181.8760  178.9910  144.3410 N   0  0  0  0  0  0  0  0  0  0  0  0
  183.8390  178.6530  142.7940 S   0  0  0  0  0  0  0  0  0  0  0  0
  183.2250  178.9750  144.3300 C   0  0  0  0  0  0  0  0  0  0  0  0
  182.6500  177.2270  138.8280 C   0  0  0  0  0  3  0  0  0  0  0  0
  182.8230  176.1600  136.5370 C   0  0  0  0  0  1  0  0  0  0  0  0
  185.5010  178.2510  138.3200 C   0  0  0  0  0  3  0  0  0  0  0  0
  185.0210  179.1240  139.2050 C   0  0  0  0  0  3  0  0  0  0  0  0
  182.7480  178.2620  139.6670 C   0  0  0  0  0  0  0  0  0  0  0  0
  183.4240  177.0280  137.5830 C   0  0  0  0  0  0  0  0  0  0  0  0
  184.6850  177.4400  137.3940 C   0  0  0  0  0  3  0  0  0  0  0  0
  183.5710  179.4600  139.3090 C   0  0  0  0  0  2  0  0  0  0  0  0
  188.3680  178.1570  141.9260 C   0  0  0  0  0  2  0  0  0  0  0  0
  189.0600  177.1200  141.0580 C   0  0  0  0  0  2  0  0  0  0  0  0
  189.0210  177.5420  139.6030 C   0  0  1  0  0  3  0  0  0  0  0  0
  188.7650  178.9130  139.5170 O   0  0  0  0  0  1  0  0  0  0  0  0
  190.3570  177.2260  138.9580 C   0  0  0  0  0  2  0  0  0  0  0  0
  190.1730  176.9190  137.4810 C   0  0  0  0  0  2  0  0  0  0  0  0
  189.2110  175.7550  137.2980 C   0  0  0  0  0  2  0  0  0  0  0  0
  187.2450  177.7570  134.9620 O   0  0  0  0  0  0  0  0  0  0  0  0
  188.1350  177.4140  135.7840 C   0  0  0  0  0  3  0  0  0  0  0  0
  188.1530  176.0980  136.3580 N   0  0  0  0  0  0  0  0  0  0  0  0
  187.8580  173.9900  135.1350 C   0  0  0  0  0  1  0  0  0  0  0  0
  187.1950  175.0550  135.9890 C   0  0  1  0  0  3  0  0  0  0  0  0
  186.1330  172.9970  136.9170 C   0  0  0  0  0  1  0  0  0  0  0  0
  186.5510  174.4240  137.2160 C   0  0  0  0  0  2  0  0  0  0  0  0
  1  5  1  0  0  0  0
  1 10  1  1  0  0  0
  2  7  1  0  0  0  0
  3  2  2  0  0  0  0
  4  1  1  0  0  0  0
  5  8  1  0  0  0  0
  6  2  1  0  0  0  0
  6  4  2  0  0  0  0
  7  5  2  0  0  0  0
  8  9  1  0  0  0  0
 11 10  1  0  0  0  0
 12 13  1  0  0  0  0
 12 11  1  0  0  0  0
 14 17  1  0  0  0  0
 15 18  1  0  0  0  0
 15 14  2  0  0  0  0
 16 15  1  0  0  0  0
 18 19  1  0  0  0  0
 19 17  2  0  0  0  0
 19 13  1  0  0  0  0
 20 24  2  0  0  0  0
 21 25  1  0  0  0  0
 22 23  2  0  0  0  0
 23 27  1  0  0  0  0
 24 16  1  0  0  0  0
 25 20  1  0  0  0  0
 26 25  2  0  0  0  0
 26 22  1  0  0  0  0
 27 24  1  0  0  0  0
 28  6  1  0  0  0  0
 29 28  1  0  0  0  0
 30 31  1  1  0  0  0
 30 29  1  0  0  0  0
 32 30  1  0  0  0  0
 33 32  1  0  0  0  0
 34 33  1  0  0  0  0
 35 36  2  0  0  0  0
 36 37  1  0  0  0  0
 37 34  1  0  0  0  0
 39 38  1  1  0  0  0
 39 37  1  0  0  0  0
 39 41  1  0  0  0  0
 40 41  1  0  0  0  0
M  END
>  <MODEL>
8

>  <REMARK>
 VINA RESULT:      -7.6      3.185      8.783
  Name = 
  15 active torsions:
  status: ('A' for Active; 'I' for Inactive)
    1  A    between atoms: C_1  and  C_13
    2  A    between atoms: O_3  and  C_18
    3  A    between atoms: N_4  and  N_19
    4  A    between atoms: C_7  and  C_13
    5  A    between atoms: C_7  and  N_19
    6  A    between atoms: C_15  and  C_20
    7  A    between atoms: C_15  and  C_26
    8  A    between atoms: C_17  and  C_25
    9  A    between atoms: C_17  and  N_39
   10  A    between atoms: C_20  and  C_34
   11  A    between atoms: N_21  and  C_27
   12  A    between atoms: C_25  and  C_37
   13  A    between atoms: C_26  and  C_37
   14  A    between atoms: C_35  and  C_36
   15  A    between atoms: C_35  and  N_39
                            x       y       z     vdW  Elec       q    Type
                         _______ _______ _______ _____ _____    ______ ____

>  <TORSDO>
F 15

$$$$
=
 OpenBabel10222416533D

 41 43  0  0  1  0  0  0  0  0999 V2000
  185.8740  178.8140  144.2330 C   0  0  1  0  0  3  0  0  0  0  0  0
  183.0170  178.7410  144.2830 C   0  0  0  0  0  0  0  0  0  0  0  0
  181.7680  178.5900  144.3450 O   0  0  0  0  0  0  0  0  0  0  0  0
  185.0440  178.7880  142.9720 C   0  0  0  0  0  3  0  0  0  0  0  0
  185.0600  179.0850  145.4870 C   0  0  0  0  0  0  0  0  0  0  0  0
  183.7150  178.7030  142.9910 C   0  0  0  0  0  0  0  0  0  0  0  0
  183.7620  179.0010  145.4760 N   0  0  0  0  0  0  0  0  0  0  0  0
  185.6910  179.4100  146.6920 O   0  0  0  0  0  0  0  0  0  0  0  0
  186.3600  178.4450  147.4920 C   0  0  0  0  0  1  0  0  0  0  0  0
  186.6200  177.4970  144.3900 C   0  0  0  0  0  2  0  0  0  0  0  0
  188.1160  177.7390  144.4830 C   0  0  0  0  0  2  0  0  0  0  0  0
  188.8150  176.4680  144.4470 N   0  0  0  0  0  2  0  0  0  0  0  0
  190.1130  176.7370  143.9970 N   0  0  0  0  0  2  0  0  0  0  0  0
  191.6340  177.5220  140.8450 N   0  0  0  0  0  0  0  0  0  0  0  0
  190.4190  177.4050  140.2620 C   0  0  0  0  0  0  0  0  0  0  0  0
  190.2280  177.6150  138.8570 N   0  0  0  0  0  2  0  0  0  0  0  0
  191.6100  177.3050  142.1580 N   0  0  0  0  0  0  0  0  0  0  0  0
  189.2210  177.0350  141.3960 S   0  0  0  0  0  0  0  0  0  0  0  0
  190.3750  177.0250  142.6250 C   0  0  0  0  0  0  0  0  0  0  0  0
  188.9720  176.0750  137.5650 C   0  0  0  0  0  3  0  0  0  0  0  0
  187.6600  174.0750  136.7310 C   0  0  0  0  0  1  0  0  0  0  0  0
  187.2170  177.7360  135.6700 C   0  0  0  0  0  3  0  0  0  0  0  0
  187.5960  178.6260  136.5870 C   0  0  0  0  0  3  0  0  0  0  0  0
  189.0650  177.3050  138.0760 C   0  0  0  0  0  0  0  0  0  0  0  0
  187.8650  175.5480  136.7380 C   0  0  0  0  0  0  0  0  0  0  0  0
  187.1390  176.2770  135.8810 C   0  0  0  0  0  3  0  0  0  0  0  0
  187.9100  178.2550  137.9970 C   0  0  0  0  0  2  0  0  0  0  0  0
  182.9560  178.6700  141.7060 C   0  0  0  0  0  2  0  0  0  0  0  0
  183.7150  177.8500  140.6770 C   0  0  0  0  0  2  0  0  0  0  0  0
  183.8180  178.6120  139.3710 C   0  0  1  0  0  3  0  0  0  0  0  0
  184.5980  179.7570  139.5530 O   0  0  0  0  0  1  0  0  0  0  0  0
  184.4520  177.7170  138.3230 C   0  0  0  0  0  2  0  0  0  0  0  0
  183.5060  177.5240  137.1490 C   0  0  0  0  0  2  0  0  0  0  0  0
  182.0880  177.9070  137.5440 C   0  0  0  0  0  2  0  0  0  0  0  0
  180.6090  174.6890  136.6570 O   0  0  0  0  0  0  0  0  0  0  0  0
  181.3160  175.7290  136.6130 C   0  0  0  0  0  3  0  0  0  0  0  0
  181.2400  176.7270  137.6430 N   0  0  0  0  0  0  0  0  0  0  0  0
  181.0210  175.6180  139.8220 C   0  0  0  0  0  1  0  0  0  0  0  0
  180.3960  176.5830  138.8310 C   0  0  1  0  0  3  0  0  0  0  0  0
  179.3810  177.7280  140.8010 C   0  0  0  0  0  1  0  0  0  0  0  0
  180.1280  177.9260  139.4960 C   0  0  0  0  0  2  0  0  0  0  0  0
  1 10  1  1  0  0  0
  1  5  1  0  0  0  0
  2  3  2  0  0  0  0
  2  7  1  0  0  0  0
  4  6  2  0  0  0  0
  4  1  1  0  0  0  0
  5  8  1  0  0  0  0
  6  2  1  0  0  0  0
  7  5  2  0  0  0  0
  8  9  1  0  0  0  0
 10 11  1  0  0  0  0
 12 11  1  0  0  0  0
 13 12  1  0  0  0  0
 14 17  1  0  0  0  0
 15 14  2  0  0  0  0
 15 18  1  0  0  0  0
 16 15  1  0  0  0  0
 17 19  2  0  0  0  0
 18 19  1  0  0  0  0
 19 13  1  0  0  0  0
 20 24  2  0  0  0  0
 21 25  1  0  0  0  0
 22 26  1  0  0  0  0
 22 23  2  0  0  0  0
 23 27  1  0  0  0  0
 24 16  1  0  0  0  0
 25 20  1  0  0  0  0
 26 25  2  0  0  0  0
 27 24  1  0  0  0  0
 28  6  1  0  0  0  0
 29 28  1  0  0  0  0
 30 31  1  1  0  0  0
 30 29  1  0  0  0  0
 32 30  1  0  0  0  0
 33 34  1  0  0  0  0
 33 32  1  0  0  0  0
 34 37  1  0  0  0  0
 36 35  2  0  0  0  0
 36 37  1  0  0  0  0
 37 39  1  0  0  0  0
 39 41  1  0  0  0  0
 39 38  1  1  0  0  0
 41 40  1  0  0  0  0
M  END
>  <MODEL>
9

>  <REMARK>
 VINA RESULT:      -7.5      2.712      7.340
  Name = 
  15 active torsions:
  status: ('A' for Active; 'I' for Inactive)
    1  A    between atoms: C_1  and  C_13
    2  A    between atoms: O_3  and  C_18
    3  A    between atoms: N_4  and  N_19
    4  A    between atoms: C_7  and  C_13
    5  A    between atoms: C_7  and  N_19
    6  A    between atoms: C_15  and  C_20
    7  A    between atoms: C_15  and  C_26
    8  A    between atoms: C_17  and  C_25
    9  A    between atoms: C_17  and  N_39
   10  A    between atoms: C_20  and  C_34
   11  A    between atoms: N_21  and  C_27
   12  A    between atoms: C_25  and  C_37
   13  A    between atoms: C_26  and  C_37
   14  A    between atoms: C_35  and  C_36
   15  A    between atoms: C_35  and  N_39
                            x       y       z     vdW  Elec       q    Type
                         _______ _______ _______ _____ _____    ______ ____

>  <TORSDO>
F 15

$$$$
