=
 OpenBabel10222418093D

 25 27  0  0  1  0  0  0  0  0999 V2000
  188.1600  176.9990  143.7400 C   0  0  1  0  0  3  0  0  0  0  0  0
  185.4380  178.8760  146.7870 N   0  0  0  0  0  1  0  0  0  0  0  0
  189.3410  178.7390  149.0930 O   0  0  0  0  0  0  0  0  0  0  0  0
  189.1860  176.7090  146.0280 C   0  0  0  0  0  2  0  0  0  0  0  0
  188.1950  177.5140  145.1920 C   0  0  2  0  0  3  0  0  0  0  0  0
  188.8170  178.1150  148.1340 C   0  0  0  0  0  0  0  0  0  0  0  0
  186.8270  178.4690  146.6850 C   0  0  2  0  0  3  0  0  0  0  0  0
  186.9290  177.4000  145.7870 O   0  0  0  0  0  0  0  0  0  0  0  0
  189.6660  177.5040  147.1530 N   0  0  0  0  0  2  0  0  0  0  0  0
  187.3240  178.0310  148.0560 C   0  0  0  0  0  2  0  0  0  0  0  0
  186.6010  178.8260  140.7020 C   0  0  0  0  0  3  0  0  0  0  0  0
  187.4710  178.2310  141.5550 C   0  0  0  0  0  3  0  0  0  0  0  0
  185.1330  179.1780  140.8350 C   0  0  0  0  0  0  0  0  0  0  0  0
  183.8270  178.1170  144.1860 F   0  0  0  0  0  0  0  0  0  0  0  0
  187.1580  177.7640  142.9130 C   0  0  0  0  0  0  0  0  0  0  0  0
  185.9340  177.9400  143.2690 C   0  0  0  0  0  0  0  0  0  0  0  0
  184.3330  178.9450  141.9070 C   0  0  0  0  0  3  0  0  0  0  0  0
  184.7100  178.3040  143.1760 C   0  0  0  0  0  0  0  0  0  0  0  0
  183.2260  179.4360  139.2750 C   0  0  0  0  0  1  0  0  0  0  0  0
  184.5100  179.8100  139.7540 O   0  0  0  0  0  0  0  0  0  0  0  0
  189.5510  177.0380  143.0760 C   0  0  1  0  0  3  0  0  0  0  0  0
  191.6940  176.0610  143.3640 C   0  0  0  0  0  2  0  0  0  0  0  0
  190.3790  178.0010  143.6720 O   0  0  0  0  0  0  0  0  0  0  0  0
  191.6880  177.5710  143.4070 C   0  0  0  0  0  2  0  0  0  0  0  0
  190.2510  175.6990  143.1890 C   0  0  0  0  0  2  0  0  0  0  0  0
  1 15  1  6  0  0  0
  4  9  1  0  0  0  0
  5  1  1  6  0  0  0
  5  8  1  0  0  0  0
  5  4  1  0  0  0  0
  6  3  2  0  0  0  0
  7  2  1  1  0  0  0
  7 10  1  0  0  0  0
  8  7  1  0  0  0  0
  9  6  1  0  0  0  0
 10  6  1  0  0  0  0
 11 13  1  0  0  0  0
 11 12  2  0  0  0  0
 12 15  1  0  0  0  0
 13 17  2  0  0  0  0
 15 16  2  0  0  0  0
 17 18  1  0  0  0  0
 18 16  2  0  0  0  0
 18 14  1  0  0  0  0
 19 20  1  0  0  0  0
 20 13  1  0  0  0  0
 21 25  1  0  0  0  0
 21 23  1  0  0  0  0
 21  1  1  1  0  0  0
 22 24  1  0  0  0  0
 24 23  1  0  0  0  0
 25 22  1  0  0  0  0
M  END
>  <MODEL>
1

>  <REMARK>
 VINA RESULT:      -8.5      0.000      0.000
  Name = 
  4 active torsions:
  status: ('A' for Active; 'I' for Inactive)
    1  A    between atoms: C_1  and  C_6
    2  A    between atoms: C_1  and  C_13
    3  A    between atoms: C_1  and  C_14
    4  A    between atoms: C_11  and  O_17
                            x       y       z     vdW  Elec       q    Type
                         _______ _______ _______ _____ _____    ______ ____

>  <TORSDO>
F 4

$$$$
=
 OpenBabel10222418093D

 25 27  0  0  1  0  0  0  0  0999 V2000
  187.0630  177.5390  144.1400 C   0  0  1  0  0  3  0  0  0  0  0  0
  190.5840  176.0940  141.7450 N   0  0  0  0  0  1  0  0  0  0  0  0
  188.8050  179.1460  138.9000 O   0  0  0  0  0  0  0  0  0  0  0  0
  186.6730  178.1010  141.7110 C   0  0  0  0  0  2  0  0  0  0  0  0
  187.7220  177.7580  142.7650 C   0  0  2  0  0  3  0  0  0  0  0  0
  188.3980  178.4280  139.8490 C   0  0  0  0  0  0  0  0  0  0  0  0
  189.4940  177.0410  141.5990 C   0  0  2  0  0  3  0  0  0  0  0  0
  188.3970  176.6010  142.3490 O   0  0  0  0  0  0  0  0  0  0  0  0
  187.2730  178.8660  140.6240 N   0  0  0  0  0  2  0  0  0  0  0  0
  189.1020  177.1360  140.1310 C   0  0  0  0  0  2  0  0  0  0  0  0
  190.4940  176.8600  145.8030 C   0  0  0  0  0  3  0  0  0  0  0  0
  189.4710  176.9340  144.9170 C   0  0  0  0  0  3  0  0  0  0  0  0
  190.5770  177.1800  147.2830 C   0  0  0  0  0  0  0  0  0  0  0  0
  187.2680  178.4080  148.5480 F   0  0  0  0  0  0  0  0  0  0  0  0
  188.1010  177.3700  145.2210 C   0  0  0  0  0  0  0  0  0  0  0  0
  187.9120  177.7190  146.4450 C   0  0  0  0  0  0  0  0  0  0  0  0
  189.5770  177.6460  148.0730 C   0  0  0  0  0  3  0  0  0  0  0  0
  188.1920  177.9410  147.6740 C   0  0  0  0  0  0  0  0  0  0  0  0
  192.5150  175.7560  147.8800 C   0  0  0  0  0  1  0  0  0  0  0  0
  191.8030  176.9850  147.9270 O   0  0  0  0  0  0  0  0  0  0  0  0
  186.0820  178.6700  144.5030 C   0  0  1  0  0  3  0  0  0  0  0  0
  183.8520  178.9200  145.2740 C   0  0  0  0  0  2  0  0  0  0  0  0
  185.2920  179.0390  143.4030 O   0  0  0  0  0  0  0  0  0  0  0  0
  184.1350  179.6060  143.9590 C   0  0  0  0  0  2  0  0  0  0  0  0
  185.1460  178.2500  145.6190 C   0  0  0  0  0  2  0  0  0  0  0  0
  1 15  1  1  0  0  0
  3  6  2  0  0  0  0
  4  5  1  0  0  0  0
  5  1  1  1  0  0  0
  6 10  1  0  0  0  0
  6  9  1  0  0  0  0
  7  2  1  6  0  0  0
  7  8  1  0  0  0  0
  8  5  1  0  0  0  0
  9  4  1  0  0  0  0
 10  7  1  0  0  0  0
 11 13  1  0  0  0  0
 12 15  1  0  0  0  0
 12 11  2  0  0  0  0
 13 20  1  0  0  0  0
 13 17  2  0  0  0  0
 15 16  2  0  0  0  0
 16 18  2  0  0  0  0
 18 17  1  0  0  0  0
 18 14  1  0  0  0  0
 19 20  1  0  0  0  0
 21  1  1  6  0  0  0
 21 25  1  0  0  0  0
 22 25  1  0  0  0  0
 23 24  1  0  0  0  0
 23 21  1  0  0  0  0
 24 22  1  0  0  0  0
M  END
>  <MODEL>
2

>  <REMARK>
 VINA RESULT:      -8.3      2.919      7.047
  Name = 
  4 active torsions:
  status: ('A' for Active; 'I' for Inactive)
    1  A    between atoms: C_1  and  C_6
    2  A    between atoms: C_1  and  C_13
    3  A    between atoms: C_1  and  C_14
    4  A    between atoms: C_11  and  O_17
                            x       y       z     vdW  Elec       q    Type
                         _______ _______ _______ _____ _____    ______ ____

>  <TORSDO>
F 4

$$$$
=
 OpenBabel10222418093D

 25 27  0  0  1  0  0  0  0  0999 V2000
  187.3750  178.4100  145.1890 C   0  0  1  0  0  3  0  0  0  0  0  0
  191.6000  179.2730  143.9150 N   0  0  0  0  0  1  0  0  0  0  0  0
  190.3790  176.1990  140.8120 O   0  0  0  0  0  0  0  0  0  0  0  0
  188.1920  176.5000  143.7560 C   0  0  0  0  0  2  0  0  0  0  0  0
  188.3980  177.9660  144.1270 C   0  0  2  0  0  3  0  0  0  0  0  0
  190.0360  176.5100  141.9820 C   0  0  0  0  0  0  0  0  0  0  0  0
  190.4960  178.4290  143.4960 C   0  0  2  0  0  3  0  0  0  0  0  0
  189.7080  178.1150  144.6090 O   0  0  0  0  0  0  0  0  0  0  0  0
  188.6950  176.2400  142.4110 N   0  0  0  0  0  2  0  0  0  0  0  0
  191.0470  177.1470  142.8840 C   0  0  0  0  0  2  0  0  0  0  0  0
  183.5320  178.8640  145.0290 C   0  0  0  0  0  3  0  0  0  0  0  0
  184.8050  178.6990  145.4670 C   0  0  0  0  0  3  0  0  0  0  0  0
  182.9320  178.8620  143.6370 C   0  0  0  0  0  0  0  0  0  0  0  0
  185.5980  178.3170  141.0580 F   0  0  0  0  0  0  0  0  0  0  0  0
  185.9800  178.4550  144.6180 C   0  0  0  0  0  0  0  0  0  0  0  0
  185.7290  178.4240  143.3570 C   0  0  0  0  0  0  0  0  0  0  0  0
  183.5940  178.6940  142.4640 C   0  0  0  0  0  3  0  0  0  0  0  0
  185.0360  178.4710  142.2810 C   0  0  0  0  0  0  0  0  0  0  0  0
  180.8810  179.0940  142.2670 C   0  0  0  0  0  1  0  0  0  0  0  0
  181.5520  179.0550  143.5190 O   0  0  0  0  0  0  0  0  0  0  0  0
  187.4170  177.5200  146.4460 C   0  0  1  0  0  3  0  0  0  0  0  0
  187.9990  177.6970  148.7390 C   0  0  0  0  0  2  0  0  0  0  0  0
  188.6760  176.9230  146.6110 O   0  0  0  0  0  0  0  0  0  0  0  0
  188.7690  176.6410  147.9820 C   0  0  0  0  0  2  0  0  0  0  0  0
  187.1230  178.3230  147.6980 C   0  0  0  0  0  2  0  0  0  0  0  0
  1 15  1  6  0  0  0
  3  6  2  0  0  0  0
  4  5  1  0  0  0  0
  5  8  1  0  0  0  0
  5  1  1  1  0  0  0
  6  9  1  0  0  0  0
  6 10  1  0  0  0  0
  7  2  1  1  0  0  0
  7  8  1  0  0  0  0
  9  4  1  0  0  0  0
 10  7  1  0  0  0  0
 11 12  2  0  0  0  0
 13 11  1  0  0  0  0
 14 18  1  0  0  0  0
 15 12  1  0  0  0  0
 16 15  2  0  0  0  0
 17 13  2  0  0  0  0
 18 17  1  0  0  0  0
 18 16  2  0  0  0  0
 19 20  1  0  0  0  0
 20 13  1  0  0  0  0
 21  1  1  6  0  0  0
 21 23  1  0  0  0  0
 21 25  1  0  0  0  0
 23 24  1  0  0  0  0
 24 22  1  0  0  0  0
 25 22  1  0  0  0  0
M  END
>  <MODEL>
3

>  <REMARK>
 VINA RESULT:      -8.2      2.450      4.644
  Name = 
  4 active torsions:
  status: ('A' for Active; 'I' for Inactive)
    1  A    between atoms: C_1  and  C_6
    2  A    between atoms: C_1  and  C_13
    3  A    between atoms: C_1  and  C_14
    4  A    between atoms: C_11  and  O_17
                            x       y       z     vdW  Elec       q    Type
                         _______ _______ _______ _____ _____    ______ ____

>  <TORSDO>
F 4

$$$$
=
 OpenBabel10222418093D

 25 27  0  0  1  0  0  0  0  0999 V2000
  188.4530  178.5980  141.2730 C   0  0  1  0  0  3  0  0  0  0  0  0
  184.4110  179.6560  139.6100 N   0  0  0  0  0  1  0  0  0  0  0  0
  183.3660  178.8320  143.9450 O   0  0  0  0  0  0  0  0  0  0  0  0
  186.6790  177.6910  142.8220 C   0  0  0  0  0  2  0  0  0  0  0  0
  186.9850  178.7080  141.7260 C   0  0  2  0  0  3  0  0  0  0  0  0
  184.2700  178.4950  143.1380 C   0  0  0  0  0  0  0  0  0  0  0  0
  184.9860  179.2620  140.8830 C   0  0  2  0  0  3  0  0  0  0  0  0
  186.1150  178.4680  140.6520 O   0  0  0  0  0  0  0  0  0  0  0  0
  185.5660  178.1490  143.6460 N   0  0  0  0  0  2  0  0  0  0  0  0
  183.9570  178.4650  141.6740 C   0  0  0  0  0  2  0  0  0  0  0  0
  190.3270  175.9600  143.3990 C   0  0  0  0  0  3  0  0  0  0  0  0
  189.4880  176.5670  142.5240 C   0  0  0  0  0  3  0  0  0  0  0  0
  191.3020  176.5160  144.4180 C   0  0  0  0  0  0  0  0  0  0  0  0
  191.2760  180.2650  144.3510 F   0  0  0  0  0  0  0  0  0  0  0  0
  189.3190  178.0180  142.3620 C   0  0  0  0  0  0  0  0  0  0  0  0
  190.0690  178.7310  143.1250 C   0  0  0  0  0  0  0  0  0  0  0  0
  191.5570  177.8250  144.6730 C   0  0  0  0  0  3  0  0  0  0  0  0
  190.9450  178.9930  144.0220 C   0  0  0  0  0  0  0  0  0  0  0  0
  192.1000  175.6780  146.6090 C   0  0  0  0  0  1  0  0  0  0  0  0
  192.0310  175.6070  145.1910 O   0  0  0  0  0  0  0  0  0  0  0  0
  188.6010  177.7850  139.9720 C   0  0  1  0  0  3  0  0  0  0  0  0
  190.1480  177.5310  138.1910 C   0  0  0  0  0  2  0  0  0  0  0  0
  188.0940  178.4860  138.8660 O   0  0  0  0  0  0  0  0  0  0  0  0
  188.7630  177.9500  137.7560 C   0  0  0  0  0  2  0  0  0  0  0  0
  190.0540  177.4660  139.6850 C   0  0  0  0  0  2  0  0  0  0  0  0
  1 15  1  1  0  0  0
  4  9  1  0  0  0  0
  5  1  1  6  0  0  0
  5  4  1  0  0  0  0
  6  9  1  0  0  0  0
  6  3  2  0  0  0  0
  7  2  1  6  0  0  0
  7 10  1  0  0  0  0
  8  7  1  0  0  0  0
  8  5  1  0  0  0  0
 10  6  1  0  0  0  0
 11 13  1  0  0  0  0
 12 11  2  0  0  0  0
 13 17  2  0  0  0  0
 13 20  1  0  0  0  0
 15 12  1  0  0  0  0
 15 16  2  0  0  0  0
 16 18  2  0  0  0  0
 18 14  1  0  0  0  0
 18 17  1  0  0  0  0
 20 19  1  0  0  0  0
 21  1  1  1  0  0  0
 22 25  1  0  0  0  0
 23 21  1  0  0  0  0
 24 22  1  0  0  0  0
 24 23  1  0  0  0  0
 25 21  1  0  0  0  0
M  END
>  <MODEL>
4

>  <REMARK>
 VINA RESULT:      -8.2      3.227      6.346
  Name = 
  4 active torsions:
  status: ('A' for Active; 'I' for Inactive)
    1  A    between atoms: C_1  and  C_6
    2  A    between atoms: C_1  and  C_13
    3  A    between atoms: C_1  and  C_14
    4  A    between atoms: C_11  and  O_17
                            x       y       z     vdW  Elec       q    Type
                         _______ _______ _______ _____ _____    ______ ____

>  <TORSDO>
F 4

$$$$
=
 OpenBabel10222418093D

 25 27  0  0  1  0  0  0  0  0999 V2000
  188.1160  178.4620  141.5430 C   0  0  1  0  0  3  0  0  0  0  0  0
  185.8790  177.6650  145.3620 N   0  0  0  0  0  1  0  0  0  0  0  0
  182.4430  178.3830  142.4880 O   0  0  0  0  0  0  0  0  0  0  0  0
  185.7820  179.3990  141.3230 C   0  0  0  0  0  2  0  0  0  0  0  0
  186.6690  178.4080  142.0720 C   0  0  2  0  0  3  0  0  0  0  0  0
  183.6580  178.7030  142.5680 C   0  0  0  0  0  0  0  0  0  0  0  0
  185.5750  177.9850  143.9790 C   0  0  2  0  0  3  0  0  0  0  0  0
  186.6290  178.7300  143.4370 O   0  0  0  0  0  0  0  0  0  0  0  0
  184.3900  178.9670  141.3630 N   0  0  0  0  0  2  0  0  0  0  0  0
  184.2910  178.8010  143.9210 C   0  0  0  0  0  2  0  0  0  0  0  0
  190.1890  175.9090  143.5870 C   0  0  0  0  0  3  0  0  0  0  0  0
  189.2650  176.4820  142.7780 C   0  0  0  0  0  3  0  0  0  0  0  0
  191.2710  176.5020  144.4680 C   0  0  0  0  0  0  0  0  0  0  0  0
  191.2620  180.2430  144.2180 F   0  0  0  0  0  0  0  0  0  0  0  0
  189.0890  177.9250  142.5620 C   0  0  0  0  0  0  0  0  0  0  0  0
  189.9210  178.6660  143.2050 C   0  0  0  0  0  0  0  0  0  0  0  0
  191.5600  177.8190  144.6280 C   0  0  0  0  0  3  0  0  0  0  0  0
  190.8900  178.9620  143.9890 C   0  0  0  0  0  0  0  0  0  0  0  0
  192.1550  175.6560  146.6220 C   0  0  0  0  0  1  0  0  0  0  0  0
  192.0720  175.6230  145.2040 O   0  0  0  0  0  0  0  0  0  0  0  0
  188.2730  177.7220  140.2010 C   0  0  1  0  0  3  0  0  0  0  0  0
  189.5290  177.9070  138.1970 C   0  0  0  0  0  2  0  0  0  0  0  0
  187.4250  178.2540  139.2170 O   0  0  0  0  0  0  0  0  0  0  0  0
  188.0320  177.9250  137.9960 C   0  0  0  0  0  2  0  0  0  0  0  0
  189.6940  177.8190  139.6830 C   0  0  0  0  0  2  0  0  0  0  0  0
  1 15  1  1  0  0  0
  3  6  2  0  0  0  0
  4  9  1  0  0  0  0
  4  5  1  0  0  0  0
  5  1  1  6  0  0  0
  5  8  1  0  0  0  0
  6 10  1  0  0  0  0
  7  2  1  1  0  0  0
  8  7  1  0  0  0  0
  9  6  1  0  0  0  0
 10  7  1  0  0  0  0
 11 13  1  0  0  0  0
 12 11  2  0  0  0  0
 13 17  2  0  0  0  0
 13 20  1  0  0  0  0
 15 12  1  0  0  0  0
 15 16  2  0  0  0  0
 16 18  2  0  0  0  0
 18 14  1  0  0  0  0
 18 17  1  0  0  0  0
 20 19  1  0  0  0  0
 21  1  1  1  0  0  0
 22 25  1  0  0  0  0
 23 21  1  0  0  0  0
 24 22  1  0  0  0  0
 24 23  1  0  0  0  0
 25 21  1  0  0  0  0
M  END
>  <MODEL>
5

>  <REMARK>
 VINA RESULT:      -8.0      3.029      6.269
  Name = 
  4 active torsions:
  status: ('A' for Active; 'I' for Inactive)
    1  A    between atoms: C_1  and  C_6
    2  A    between atoms: C_1  and  C_13
    3  A    between atoms: C_1  and  C_14
    4  A    between atoms: C_11  and  O_17
                            x       y       z     vdW  Elec       q    Type
                         _______ _______ _______ _____ _____    ______ ____

>  <TORSDO>
F 4

$$$$
=
 OpenBabel10222418093D

 25 27  0  0  1  0  0  0  0  0999 V2000
  187.7910  177.1570  144.9320 C   0  0  1  0  0  3  0  0  0  0  0  0
  183.8260  178.9890  146.0010 N   0  0  0  0  0  1  0  0  0  0  0  0
  183.3480  178.4620  141.5220 O   0  0  0  0  0  0  0  0  0  0  0  0
  186.7660  178.1390  142.8450 C   0  0  0  0  0  2  0  0  0  0  0  0
  186.4890  177.6240  144.2550 C   0  0  2  0  0  3  0  0  0  0  0  0
  184.2990  178.5880  142.3360 C   0  0  0  0  0  0  0  0  0  0  0  0
  184.5120  178.5150  144.8130 C   0  0  2  0  0  3  0  0  0  0  0  0
  185.8930  178.6600  144.9890 O   0  0  0  0  0  0  0  0  0  0  0  0
  185.5740  178.0160  142.0140 N   0  0  0  0  0  2  0  0  0  0  0  0
  184.0630  179.3360  143.6110 C   0  0  0  0  0  2  0  0  0  0  0  0
  190.0690  176.3580  141.9040 C   0  0  0  0  0  3  0  0  0  0  0  0
  189.1160  176.2950  142.8670 C   0  0  0  0  0  3  0  0  0  0  0  0
  191.1990  177.3390  141.6610 C   0  0  0  0  0  0  0  0  0  0  0  0
  191.1910  180.0260  144.2750 F   0  0  0  0  0  0  0  0  0  0  0  0
  188.9600  177.2390  143.9830 C   0  0  0  0  0  0  0  0  0  0  0  0
  189.8140  178.2000  143.9930 C   0  0  0  0  0  0  0  0  0  0  0  0
  191.5020  178.4340  142.4030 C   0  0  0  0  0  3  0  0  0  0  0  0
  190.8060  178.9120  143.6080 C   0  0  0  0  0  0  0  0  0  0  0  0
  191.5420  176.7450  139.2800 C   0  0  0  0  0  1  0  0  0  0  0  0
  192.0330  177.1170  140.5600 O   0  0  0  0  0  0  0  0  0  0  0  0
  188.0880  177.9410  146.2260 C   0  0  1  0  0  3  0  0  0  0  0  0
  189.2510  177.6360  148.2710 C   0  0  0  0  0  2  0  0  0  0  0  0
  187.1340  177.6730  147.2200 O   0  0  0  0  0  0  0  0  0  0  0  0
  187.7820  177.9520  148.4320 C   0  0  0  0  0  2  0  0  0  0  0  0
  189.4480  177.5800  146.7870 C   0  0  0  0  0  2  0  0  0  0  0  0
  1 15  1  6  0  0  0
  3  6  2  0  0  0  0
  4  5  1  0  0  0  0
  5  1  1  1  0  0  0
  5  8  1  0  0  0  0
  6 10  1  0  0  0  0
  7  8  1  0  0  0  0
  7  2  1  1  0  0  0
  9  6  1  0  0  0  0
  9  4  1  0  0  0  0
 10  7  1  0  0  0  0
 11 12  2  0  0  0  0
 12 15  1  0  0  0  0
 13 11  1  0  0  0  0
 13 17  2  0  0  0  0
 15 16  2  0  0  0  0
 17 18  1  0  0  0  0
 18 16  2  0  0  0  0
 18 14  1  0  0  0  0
 19 20  1  0  0  0  0
 20 13  1  0  0  0  0
 21  1  1  6  0  0  0
 21 25  1  0  0  0  0
 21 23  1  0  0  0  0
 22 24  1  0  0  0  0
 23 24  1  0  0  0  0
 25 22  1  0  0  0  0
M  END
>  <MODEL>
6

>  <REMARK>
 VINA RESULT:      -8.0      2.598      5.534
  Name = 
  4 active torsions:
  status: ('A' for Active; 'I' for Inactive)
    1  A    between atoms: C_1  and  C_6
    2  A    between atoms: C_1  and  C_13
    3  A    between atoms: C_1  and  C_14
    4  A    between atoms: C_11  and  O_17
                            x       y       z     vdW  Elec       q    Type
                         _______ _______ _______ _____ _____    ______ ____

>  <TORSDO>
F 4

$$$$
=
 OpenBabel10222418093D

 25 27  0  0  1  0  0  0  0  0999 V2000
  187.3960  177.4790  144.0320 C   0  0  1  0  0  3  0  0  0  0  0  0
  190.6830  176.3580  141.1760 N   0  0  0  0  0  1  0  0  0  0  0  0
  188.1160  179.0030  138.5330 O   0  0  0  0  0  0  0  0  0  0  0  0
  186.5790  177.8540  141.6730 C   0  0  0  0  0  2  0  0  0  0  0  0
  187.8090  177.7040  142.5650 C   0  0  2  0  0  3  0  0  0  0  0  0
  187.9520  178.2920  139.5590 C   0  0  0  0  0  0  0  0  0  0  0  0
  189.4690  177.1520  141.1670 C   0  0  2  0  0  3  0  0  0  0  0  0
  188.5630  176.6200  142.0910 O   0  0  0  0  0  0  0  0  0  0  0  0
  186.9060  178.6280  140.4810 N   0  0  0  0  0  2  0  0  0  0  0  0
  188.8550  177.1170  139.7740 C   0  0  0  0  0  2  0  0  0  0  0  0
  189.5580  176.7520  147.1610 C   0  0  0  0  0  3  0  0  0  0  0  0
  188.5130  176.9310  146.3160 C   0  0  0  0  0  3  0  0  0  0  0  0
  191.0470  176.9840  146.9940 C   0  0  0  0  0  0  0  0  0  0  0  0
  191.8000  178.2540  143.5480 F   0  0  0  0  0  0  0  0  0  0  0  0
  188.6000  177.4360  144.9380 C   0  0  0  0  0  0  0  0  0  0  0  0
  189.7950  177.6990  144.5410 C   0  0  0  0  0  0  0  0  0  0  0  0
  191.6820  177.4380  145.8840 C   0  0  0  0  0  3  0  0  0  0  0  0
  191.0690  177.8120  144.5990 C   0  0  0  0  0  0  0  0  0  0  0  0
  192.8050  175.6280  148.0930 C   0  0  0  0  0  1  0  0  0  0  0  0
  191.8790  176.7060  148.0830 O   0  0  0  0  0  0  0  0  0  0  0  0
  186.3880  178.5380  144.5220 C   0  0  1  0  0  3  0  0  0  0  0  0
  184.7350  178.7840  146.2060 C   0  0  0  0  0  2  0  0  0  0  0  0
  185.1340  178.3750  143.9130 O   0  0  0  0  0  0  0  0  0  0  0  0
  184.2190  178.9630  144.7980 C   0  0  0  0  0  2  0  0  0  0  0  0
  186.1840  178.4500  146.0210 C   0  0  0  0  0  2  0  0  0  0  0  0
  1 15  1  1  0  0  0
  3  6  2  0  0  0  0
  4  5  1  0  0  0  0
  5  1  1  1  0  0  0
  6 10  1  0  0  0  0
  6  9  1  0  0  0  0
  7  2  1  6  0  0  0
  7  8  1  0  0  0  0
  8  5  1  0  0  0  0
  9  4  1  0  0  0  0
 10  7  1  0  0  0  0
 12 11  2  0  0  0  0
 13 11  1  0  0  0  0
 13 20  1  0  0  0  0
 14 18  1  0  0  0  0
 15 12  1  0  0  0  0
 16 18  2  0  0  0  0
 16 15  2  0  0  0  0
 17 13  2  0  0  0  0
 18 17  1  0  0  0  0
 20 19  1  0  0  0  0
 21  1  1  6  0  0  0
 21 25  1  0  0  0  0
 23 21  1  0  0  0  0
 23 24  1  0  0  0  0
 24 22  1  0  0  0  0
 25 22  1  0  0  0  0
M  END
>  <MODEL>
7

>  <REMARK>
 VINA RESULT:      -7.9      3.177      7.331
  Name = 
  4 active torsions:
  status: ('A' for Active; 'I' for Inactive)
    1  A    between atoms: C_1  and  C_6
    2  A    between atoms: C_1  and  C_13
    3  A    between atoms: C_1  and  C_14
    4  A    between atoms: C_11  and  O_17
                            x       y       z     vdW  Elec       q    Type
                         _______ _______ _______ _____ _____    ______ ____

>  <TORSDO>
F 4

$$$$
=
 OpenBabel10222418093D

 25 27  0  0  1  0  0  0  0  0999 V2000
  188.6200  178.2030  142.0600 C   0  0  1  0  0  3  0  0  0  0  0  0
  186.8810  178.4250  137.9190 N   0  0  0  0  0  1  0  0  0  0  0  0
  190.1620  175.3540  137.3080 O   0  0  0  0  0  0  0  0  0  0  0  0
  190.3190  177.3090  140.4210 C   0  0  0  0  0  2  0  0  0  0  0  0
  188.8410  177.6070  140.6560 C   0  0  2  0  0  3  0  0  0  0  0  0
  189.9250  176.3000  138.1030 C   0  0  0  0  0  0  0  0  0  0  0  0
  187.9440  177.7160  138.6070 C   0  0  2  0  0  3  0  0  0  0  0  0
  188.4130  178.5040  139.6650 O   0  0  0  0  0  0  0  0  0  0  0  0
  190.4740  176.2530  139.4270 N   0  0  0  0  0  2  0  0  0  0  0  0
  189.0820  177.4440  137.6320 C   0  0  0  0  0  2  0  0  0  0  0  0
  185.3910  178.0630  144.1920 C   0  0  0  0  0  3  0  0  0  0  0  0
  186.6700  177.9400  143.7610 C   0  0  0  0  0  3  0  0  0  0  0  0
  184.1270  178.5280  143.4950 C   0  0  0  0  0  0  0  0  0  0  0  0
  184.8660  179.5020  139.9500 F   0  0  0  0  0  0  0  0  0  0  0  0
  187.1540  178.2510  142.4080 C   0  0  0  0  0  0  0  0  0  0  0  0
  186.2500  178.6920  141.6060 C   0  0  0  0  0  0  0  0  0  0  0  0
  184.0140  178.9550  142.2110 C   0  0  0  0  0  3  0  0  0  0  0  0
  185.0880  179.0580  141.2110 C   0  0  0  0  0  0  0  0  0  0  0  0
  181.6890  178.9300  143.6780 C   0  0  0  0  0  1  0  0  0  0  0  0
  182.9360  178.5300  144.2290 O   0  0  0  0  0  0  0  0  0  0  0  0
  189.4090  177.4450  143.1450 C   0  0  1  0  0  3  0  0  0  0  0  0
  191.6570  177.1660  143.8500 C   0  0  0  0  0  2  0  0  0  0  0  0
  189.8460  176.1940  142.6830 O   0  0  0  0  0  0  0  0  0  0  0  0
  190.9590  175.8800  143.4780 C   0  0  0  0  0  2  0  0  0  0  0  0
  190.6330  178.2250  143.5800 C   0  0  0  0  0  2  0  0  0  0  0  0
  1 15  1  1  0  0  0
  3  6  2  0  0  0  0
  4  5  1  0  0  0  0
  5  1  1  1  0  0  0
  6  9  1  0  0  0  0
  7  2  1  6  0  0  0
  7  8  1  0  0  0  0
  8  5  1  0  0  0  0
  9  4  1  0  0  0  0
 10  6  1  0  0  0  0
 10  7  1  0  0  0  0
 12 11  2  0  0  0  0
 13 11  1  0  0  0  0
 13 20  1  0  0  0  0
 14 18  1  0  0  0  0
 15 12  1  0  0  0  0
 16 15  2  0  0  0  0
 17 13  2  0  0  0  0
 18 16  2  0  0  0  0
 18 17  1  0  0  0  0
 19 20  1  0  0  0  0
 21  1  1  6  0  0  0
 21 25  1  0  0  0  0
 23 21  1  0  0  0  0
 23 24  1  0  0  0  0
 24 22  1  0  0  0  0
 25 22  1  0  0  0  0
M  END
>  <MODEL>
8

>  <REMARK>
 VINA RESULT:      -7.7      3.645      5.650
  Name = 
  4 active torsions:
  status: ('A' for Active; 'I' for Inactive)
    1  A    between atoms: C_1  and  C_6
    2  A    between atoms: C_1  and  C_13
    3  A    between atoms: C_1  and  C_14
    4  A    between atoms: C_11  and  O_17
                            x       y       z     vdW  Elec       q    Type
                         _______ _______ _______ _____ _____    ______ ____

>  <TORSDO>
F 4

$$$$
=
 OpenBabel10222418093D

 25 27  0  0  1  0  0  0  0  0999 V2000
  189.0860  177.9760  140.6880 C   0  0  1  0  0  3  0  0  0  0  0  0
  184.9350  179.1220  141.9800 N   0  0  0  0  0  1  0  0  0  0  0  0
  184.1710  177.8090  137.7060 O   0  0  0  0  0  0  0  0  0  0  0  0
  187.6860  178.3900  138.6300 C   0  0  0  0  0  2  0  0  0  0  0  0
  187.6570  178.0590  140.1190 C   0  0  2  0  0  3  0  0  0  0  0  0
  185.1440  178.2490  138.3730 C   0  0  0  0  0  0  0  0  0  0  0  0
  185.5940  178.6130  140.7920 C   0  0  2  0  0  3  0  0  0  0  0  0
  186.9210  179.0580  140.7750 O   0  0  0  0  0  0  0  0  0  0  0  0
  186.4770  177.9010  137.9760 N   0  0  0  0  0  2  0  0  0  0  0  0
  184.8690  179.1270  139.5540 C   0  0  0  0  0  2  0  0  0  0  0  0
  188.1310  176.7520  144.2350 C   0  0  0  0  0  3  0  0  0  0  0  0
  188.1430  176.9850  142.9000 C   0  0  0  0  0  3  0  0  0  0  0  0
  188.9970  177.2780  145.3630 C   0  0  0  0  0  0  0  0  0  0  0  0
  191.6100  179.6140  144.0310 F   0  0  0  0  0  0  0  0  0  0  0  0
  189.0710  177.8790  142.1930 C   0  0  0  0  0  0  0  0  0  0  0  0
  189.9400  178.4510  142.9480 C   0  0  0  0  0  0  0  0  0  0  0  0
  190.0390  178.1420  145.2560 C   0  0  0  0  0  3  0  0  0  0  0  0
  190.5570  178.7620  144.0260 C   0  0  0  0  0  0  0  0  0  0  0  0
  189.0120  177.6150  147.8180 C   0  0  0  0  0  1  0  0  0  0  0  0
  188.7170  176.8420  146.6620 O   0  0  0  0  0  0  0  0  0  0  0  0
  189.8880  176.8090  140.0790 C   0  0  1  0  0  3  0  0  0  0  0  0
  191.6960  176.4760  138.5790 C   0  0  0  0  0  2  0  0  0  0  0  0
  189.3490  176.4010  138.8490 O   0  0  0  0  0  0  0  0  0  0  0  0
  190.4130  175.7920  138.1680 C   0  0  0  0  0  2  0  0  0  0  0  0
  191.3320  177.2000  139.8380 C   0  0  0  0  0  2  0  0  0  0  0  0
  1 15  1  1  0  0  0
  3  6  2  0  0  0  0
  4  5  1  0  0  0  0
  5  1  1  1  0  0  0
  5  8  1  0  0  0  0
  6 10  1  0  0  0  0
  7  2  1  1  0  0  0
  8  7  1  0  0  0  0
  9  6  1  0  0  0  0
  9  4  1  0  0  0  0
 10  7  1  0  0  0  0
 11 13  1  0  0  0  0
 12 11  2  0  0  0  0
 13 20  1  0  0  0  0
 15 12  1  0  0  0  0
 15 16  2  0  0  0  0
 16 18  2  0  0  0  0
 17 13  2  0  0  0  0
 18 14  1  0  0  0  0
 18 17  1  0  0  0  0
 20 19  1  0  0  0  0
 21  1  1  6  0  0  0
 22 25  1  0  0  0  0
 23 21  1  0  0  0  0
 24 22  1  0  0  0  0
 24 23  1  0  0  0  0
 25 21  1  0  0  0  0
M  END
>  <MODEL>
9

>  <REMARK>
 VINA RESULT:      -7.7      3.550      6.752
  Name = 
  4 active torsions:
  status: ('A' for Active; 'I' for Inactive)
    1  A    between atoms: C_1  and  C_6
    2  A    between atoms: C_1  and  C_13
    3  A    between atoms: C_1  and  C_14
    4  A    between atoms: C_11  and  O_17
                            x       y       z     vdW  Elec       q    Type
                         _______ _______ _______ _____ _____    ______ ____

>  <TORSDO>
F 4

$$$$
