=
 OpenBabel10222417543D

 70 77  0  0  1  0  0  0  0  0999 V2000
  194.7130  174.1620  136.2020 C   0  0  0  0  0  0  0  0  0  0  0  0
  185.6810  173.2100  136.0190 C   0  0  0  0  0  2  0  0  0  0  0  0
  184.6200  173.7500  136.9550 C   0  0  0  0  0  2  0  0  0  0  0  0
  182.6920  178.7780  141.0470 C   0  0  0  0  0  2  0  0  0  0  0  0
  191.2330  175.0960  135.5760 C   0  0  0  0  0  2  0  0  0  0  0  0
  190.2860  175.9480  136.4120 C   0  0  1  0  0  3  0  0  0  0  0  0
  187.4490  178.0350  140.2190 C   0  0  0  0  0  2  0  0  0  0  0  0
  185.3810  177.7310  141.4100 O   0  0  0  0  0  0  0  0  0  0  0  0
  192.7000  175.4020  135.8970 C   0  0  1  0  0  3  0  0  0  0  0  0
  181.1840  177.6830  137.3860 C   0  0  1  0  0  3  0  0  0  0  0  0
  181.9350  176.8740  136.3130 C   0  0  1  0  0  3  0  0  0  0  0  0
  191.9600  175.7240  138.3510 C   0  0  0  0  0  2  0  0  0  0  0  0
  194.3720  176.0380  137.7730 C   0  0  0  0  0  2  0  0  0  0  0  0
  192.9290  176.1530  137.2440 C   0  0  1  0  0  3  0  0  0  0  0  0
  187.1330  177.0900  139.0630 C   0  0  2  0  0  3  0  0  0  0  0  0
  188.1550  173.2260  135.8280 C   0  0  0  0  0  0  0  0  0  0  0  0
  181.4970  175.5380  136.2660 O   0  0  0  0  0  0  0  0  0  0  0  0
  188.8270  175.7190  136.1130 C   0  0  0  0  0  0  0  0  0  0  0  0
  186.9920  173.1040  136.7680 C   0  0  0  0  0  2  0  0  0  0  0  0
  183.0200  179.5660  139.8260 C   0  0  0  0  0  3  0  0  0  0  0  0
  186.7650  177.5880  141.5050 C   0  0  0  0  0  2  0  0  0  0  0  0
  189.1800  172.3780  135.8660 C   0  0  0  0  0  3  0  0  0  0  0  0
  183.3670  174.0590  136.1710 C   0  0  0  0  0  2  0  0  0  0  0  0
  193.4770  174.1830  135.8310 N   0  0  0  0  0  0  0  0  0  0  0  0
  188.3120  176.9910  138.0860 C   0  0  1  0  0  3  0  0  0  0  0  0
  185.1000  178.9660  141.9990 C   0  0  0  0  0  2  0  0  0  0  0  0
  195.3360  175.4050  136.7680 C   0  0  0  0  0  2  0  0  0  0  0  0
  189.5700  176.4430  138.8040 C   0  0  0  0  0  2  0  0  0  0  0  0
  182.4090  179.3040  138.7090 C   0  0  0  0  0  0  0  0  0  0  0  0
  187.9470  176.1830  136.9340 N   0  0  0  0  0  0  0  0  0  0  0  0
  181.8030  179.0270  137.5870 C   0  0  0  0  0  3  0  0  0  0  0  0
  190.5010  175.6300  137.8930 C   0  0  1  0  0  3  0  0  0  0  0  0
  182.4040  174.8260  137.0530 C   0  0  0  0  0  2  0  0  0  0  0  0
  183.5930  179.1170  142.2400 C   0  0  1  0  0  3  0  0  0  0  0  0
  188.2700  174.6680  134.7620 S   0  0  0  0  0  0  0  0  0  0  0  0
  195.4010  170.0840  134.8020 O   0  0  0  0  0  1  0  0  0  0  0  0
  195.8180  172.4730  134.7500 C   0  0  0  0  0  2  0  0  0  0  0  0
  196.3840  171.0530  134.5930 C   0  0  1  0  0  3  0  0  0  0  0  0
  197.5560  170.8830  136.9030 C   0  0  1  0  0  3  0  0  0  0  0  0
  198.7190  171.5140  134.8990 O   0  0  0  0  0  1  0  0  0  0  0  0
  197.6660  170.7340  135.3800 C   0  0  2  0  0  3  0  0  0  0  0  0
  196.3660  170.3310  137.3900 O   0  0  0  0  0  0  0  0  0  0  0  0
  195.6250  171.4220  137.8610 C   0  0  2  0  0  3  0  0  0  0  0  0
  198.7370  170.2100  137.5770 C   0  0  0  0  0  1  0  0  0  0  0  0
  194.8130  171.0010  139.0700 C   0  0  0  0  0  1  0  0  0  0  0  0
  194.7650  171.8860  136.8590 O   0  0  0  0  0  0  0  0  0  0  0  0
  195.4870  172.8830  136.1900 C   0  0  2  0  0  3  0  0  0  0  0  0
  182.4210  178.9150  135.1030 C   0  0  2  0  0  3  0  0  0  0  0  0
  183.4550  178.0060  134.5950 N   0  0  0  0  0  2  0  0  0  0  0  0
  182.1030  177.5290  134.9180 C   0  0  1  0  0  0  0  0  0  0  0  0
  181.0930  178.5410  134.5980 N   0  0  0  0  0  2  0  0  0  0  0  0
  179.4660  179.0660  137.5500 C   0  0  0  0  0  1  0  0  0  0  0  0
  179.8300  177.8090  137.0670 O   0  0  0  0  0  0  0  0  0  0  0  0
  185.8280  177.4930  138.3660 C   0  0  0  0  0  2  0  0  0  0  0  0
  185.9200  178.8660  137.7160 C   0  0  0  0  0  1  0  0  0  0  0  0
  188.7120  170.0620  136.3550 C   0  0  0  0  0  2  0  0  0  0  0  0
  189.2190  171.2150  136.7560 C   0  0  0  0  0  3  0  0  0  0  0  0
  183.2180  180.3030  142.9130 O   0  0  0  0  0  0  0  0  0  0  0  0
  183.8900  180.3750  144.1450 C   0  0  0  0  0  2  0  0  0  0  0  0
  183.1860  179.5270  145.1900 C   0  0  2  0  0  3  0  0  0  0  0  0
  184.2500  178.8660  146.0510 C   0  0  0  0  0  2  0  0  0  0  0  0
  185.4440  178.4420  145.2170 C   0  0  0  0  0  2  0  0  0  0  0  0
  186.1640  177.3110  145.9250 C   0  0  0  0  0  2  0  0  0  0  0  0
  188.4630  176.8810  146.0280 C   0  0  0  0  0  2  0  0  0  0  0  0
  187.2980  176.8740  145.1310 N   0  0  0  0  0  0  0  0  0  0  0  0
  188.2490  177.9960  145.1200 C   0  0  0  0  0  2  0  0  0  0  0  0
  182.3270  178.4770  144.5030 C   0  0  0  0  0  2  0  0  0  0  0  0
  180.8640  178.8760  144.5240 C   0  0  0  0  0  2  0  0  0  0  0  0
  180.1960  178.2420  143.4770 O   0  0  0  0  0  0  0  0  0  0  0  0
  180.2130  176.8910  143.8190 C   0  0  0  0  0  1  0  0  0  0  0  0
  1 27  1  0  0  0  0
  2 19  1  0  0  0  0
  2  3  1  0  0  0  0
  4 34  1  0  0  0  0
  6  5  1  6  0  0  0
  6 32  1  0  0  0  0
  7 21  1  0  0  0  0
  8 21  1  0  0  0  0
  8 26  1  0  0  0  0
  9  5  1  1  0  0  0
  9 14  1  0  0  0  0
 10 53  1  6  0  0  0
 10 31  1  0  0  0  0
 11 17  1  6  0  0  0
 11 10  1  0  0  0  0
 14 13  1  1  0  0  0
 14 12  1  0  0  0  0
 15 54  1  6  0  0  0
 15  7  1  0  0  0  0
 16 22  2  0  0  0  0
 16 19  1  0  0  0  0
 17 33  1  0  0  0  0
 18  6  1  0  0  0  0
 18 30  2  0  0  0  0
 20  4  1  0  0  0  0
 22 57  1  0  0  0  0
 23  3  1  0  0  0  0
 23 33  1  0  0  0  0
 24  9  1  0  0  0  0
 24  1  2  0  0  0  0
 25 28  1  1  0  0  0
 25 15  1  0  0  0  0
 26 34  1  0  0  0  0
 27 13  1  0  0  0  0
 29 20  2  0  0  0  0
 30 25  1  0  0  0  0
 31 29  2  0  0  0  0
 32 12  1  1  0  0  0
 32 28  1  0  0  0  0
 34 58  1  6  0  0  0
 35 16  1  0  0  0  0
 35 18  1  0  0  0  0
 37 47  1  0  0  0  0
 38 37  1  0  0  0  0
 38 36  1  1  0  0  0
 38 41  1  0  0  0  0
 39 42  1  0  0  0  0
 39 44  1  1  0  0  0
 41 40  1  6  0  0  0
 41 39  1  0  0  0  0
 42 43  1  0  0  0  0
 43 45  1  1  0  0  0
 46 43  1  0  0  0  0
 47  1  1  6  0  0  0
 47 46  1  0  0  0  0
 48 49  1  6  0  0  0
 50 49  1  6  0  0  0
 50 48  1  0  0  0  0
 50 11  1  0  0  0  0
 51 50  1  0  0  0  0
 51 48  1  0  0  0  0
 53 52  1  0  0  0  0
 55 54  1  0  0  0  0
 56 57  2  0  0  0  0
 58 59  1  0  0  0  0
 60 59  1  6  0  0  0
 60 61  1  0  0  0  0
 62 63  1  0  0  0  0
 62 61  1  0  0  0  0
 65 63  1  0  0  0  0
 65 64  1  0  0  0  0
 66 65  1  0  0  0  0
 66 64  1  0  0  0  0
 67 68  1  0  0  0  0
 67 60  1  0  0  0  0
 69 70  1  0  0  0  0
 69 68  1  0  0  0  0
M  END
>  <MODEL>
1

>  <REMARK>
 VINA RESULT:       3.4      0.000      0.000
  Name = 
  15 active torsions:
  status: ('A' for Active; 'I' for Inactive)
    1  A    between atoms: C_1  and  C_6
    2  A    between atoms: C_1  and  C_18
    3  A    between atoms: O_2  and  C_44
    4  A    between atoms: C_5  and  C_34
    5  A    between atoms: C_6  and  C_11
    6  A    between atoms: C_7  and  C_70
    7  A    between atoms: C_11  and  N_57
    8  A    between atoms: C_18  and  C_54
    9  A    between atoms: C_18  and  C_58
   10  A    between atoms: C_24  and  O_36
   11  A    between atoms: C_25  and  C_50
   12  A    between atoms: O_31  and  C_54
   13  A    between atoms: O_31  and  C_65
   14  A    between atoms: C_38  and  C_43
   15  A    between atoms: C_44  and  C_58
                            x       y       z     vdW  Elec       q    Type
                         _______ _______ _______ _____ _____    ______ ____

>  <TORSDO>
F 15

$$$$
=
 OpenBabel10222417543D

 70 77  0  0  1  0  0  0  0  0999 V2000
  194.3410  175.0640  136.4870 C   0  0  0  0  0  0  0  0  0  0  0  0
  185.3520  173.7790  136.2750 C   0  0  0  0  0  2  0  0  0  0  0  0
  184.2810  174.1800  137.2690 C   0  0  0  0  0  2  0  0  0  0  0  0
  182.2080  178.6850  141.8680 C   0  0  0  0  0  2  0  0  0  0  0  0
  190.8210  175.9190  135.9850 C   0  0  0  0  0  2  0  0  0  0  0  0
  189.8520  176.6430  136.9110 C   0  0  1  0  0  3  0  0  0  0  0  0
  186.9810  178.2180  140.9330 C   0  0  0  0  0  2  0  0  0  0  0  0
  184.9400  177.7130  142.1030 O   0  0  0  0  0  0  0  0  0  0  0  0
  192.2790  176.2480  136.3250 C   0  0  1  0  0  3  0  0  0  0  0  0
  180.7020  177.9090  138.1260 C   0  0  1  0  0  3  0  0  0  0  0  0
  181.4700  177.2440  136.9700 C   0  0  1  0  0  3  0  0  0  0  0  0
  191.5550  176.2890  138.8050 C   0  0  0  0  0  2  0  0  0  0  0  0
  193.9470  176.7550  138.2430 C   0  0  0  0  0  2  0  0  0  0  0  0
  192.4950  176.8660  137.7400 C   0  0  1  0  0  3  0  0  0  0  0  0
  186.6880  177.3840  139.6890 C   0  0  2  0  0  3  0  0  0  0  0  0
  187.8200  173.9130  136.0680 C   0  0  0  0  0  0  0  0  0  0  0  0
  181.0840  175.9040  136.7900 O   0  0  0  0  0  0  0  0  0  0  0  0
  188.4000  176.3880  136.6010 C   0  0  0  0  0  0  0  0  0  0  0  0
  186.6740  173.6500  136.9990 C   0  0  0  0  0  2  0  0  0  0  0  0
  182.4920  179.6050  140.7320 C   0  0  0  0  0  3  0  0  0  0  0  0
  186.3290  177.6150  142.1710 C   0  0  0  0  0  2  0  0  0  0  0  0
  188.8780  173.1060  136.0110 C   0  0  0  0  0  3  0  0  0  0  0  0
  183.0090  174.5180  136.5300 C   0  0  0  0  0  2  0  0  0  0  0  0
  193.1010  175.0740  136.1290 N   0  0  0  0  0  0  0  0  0  0  0  0
  187.8590  177.4320  138.6980 C   0  0  1  0  0  3  0  0  0  0  0  0
  184.6180  178.8690  142.8160 C   0  0  0  0  0  2  0  0  0  0  0  0
  194.9230  176.2660  137.1710 C   0  0  0  0  0  2  0  0  0  0  0  0
  189.1450  176.8630  139.3460 C   0  0  0  0  0  2  0  0  0  0  0  0
  181.8780  179.4340  139.5990 C   0  0  0  0  0  0  0  0  0  0  0  0
  187.5120  176.7320  137.4720 N   0  0  0  0  0  0  0  0  0  0  0  0
  181.2700  179.2490  138.4590 C   0  0  0  0  0  3  0  0  0  0  0  0
  190.0950  176.1850  138.3500 C   0  0  1  0  0  3  0  0  0  0  0  0
  182.0270  175.1520  137.4930 C   0  0  0  0  0  2  0  0  0  0  0  0
  183.1100  178.9360  143.0830 C   0  0  1  0  0  3  0  0  0  0  0  0
  187.8680  175.4590  135.1550 S   0  0  0  0  0  0  0  0  0  0  0  0
  197.5330  172.7570  134.6000 O   0  0  0  0  0  1  0  0  0  0  0  0
  196.6580  174.1680  136.3680 C   0  0  0  0  0  2  0  0  0  0  0  0
  197.5970  173.0190  135.9700 C   0  0  1  0  0  3  0  0  0  0  0  0
  196.1130  171.0510  136.7850 C   0  0  1  0  0  3  0  0  0  0  0  0
  197.8890  171.9760  138.1110 O   0  0  0  0  0  1  0  0  0  0  0  0
  197.4910  171.7270  136.7970 C   0  0  2  0  0  3  0  0  0  0  0  0
  195.5650  171.0210  135.4970 O   0  0  0  0  0  0  0  0  0  0  0  0
  194.4520  171.8680  135.5560 C   0  0  2  0  0  3  0  0  0  0  0  0
  196.2240  169.6360  137.3190 C   0  0  0  0  0  1  0  0  0  0  0  0
  193.3630  171.3400  134.6440 C   0  0  0  0  0  1  0  0  0  0  0  0
  194.8110  173.1600  135.1560 O   0  0  0  0  0  0  0  0  0  0  0  0
  195.1640  173.8250  136.3380 C   0  0  2  0  0  3  0  0  0  0  0  0
  181.9890  177.1400  134.6070 C   0  0  2  0  0  3  0  0  0  0  0  0
  180.6330  177.6990  134.5960 N   0  0  0  0  0  2  0  0  0  0  0  0
  181.5980  178.0440  135.6490 C   0  0  1  0  0  0  0  0  0  0  0  0
  182.9610  178.1200  135.1150 N   0  0  0  0  0  2  0  0  0  0  0  0
  179.2790  178.8640  136.7280 C   0  0  0  0  0  1  0  0  0  0  0  0
  179.3400  178.0140  137.8320 O   0  0  0  0  0  0  0  0  0  0  0  0
  185.3600  177.8040  139.0460 C   0  0  0  0  0  2  0  0  0  0  0  0
  185.0830  179.2910  139.2130 C   0  0  0  0  0  1  0  0  0  0  0  0
  188.0580  170.9200  136.6170 C   0  0  0  0  0  2  0  0  0  0  0  0
  188.9720  171.8610  136.7780 C   0  0  0  0  0  3  0  0  0  0  0  0
  182.6960  180.0310  143.8760 O   0  0  0  0  0  0  0  0  0  0  0  0
  183.6630  180.2840  144.8650 C   0  0  0  0  0  2  0  0  0  0  0  0
  184.7790  179.2560  144.8000 C   0  0  2  0  0  3  0  0  0  0  0  0
  184.2850  177.9860  145.4740 C   0  0  0  0  0  2  0  0  0  0  0  0
  185.4430  177.0970  145.8840 C   0  0  0  0  0  2  0  0  0  0  0  0
  186.7320  177.6920  145.3550 C   0  0  0  0  0  2  0  0  0  0  0  0
  189.0360  177.2770  145.3900 C   0  0  0  0  0  2  0  0  0  0  0  0
  187.7250  176.6460  145.1840 N   0  0  0  0  0  0  0  0  0  0  0  0
  188.5530  177.0500  144.0370 C   0  0  0  0  0  2  0  0  0  0  0  0
  186.0110  179.7930  145.5110 C   0  0  0  0  0  2  0  0  0  0  0  0
  185.6250  180.5350  146.7760 C   0  0  0  0  0  2  0  0  0  0  0  0
  185.6240  179.6470  147.8510 O   0  0  0  0  0  0  0  0  0  0  0  0
  186.9530  179.2430  147.9710 C   0  0  0  0  0  1  0  0  0  0  0  0
  1 27  1  0  0  0  0
  2 19  1  0  0  0  0
  2  3  1  0  0  0  0
  4 34  1  0  0  0  0
  6  5  1  6  0  0  0
  6 32  1  0  0  0  0
  7 21  1  0  0  0  0
  8 21  1  0  0  0  0
  8 26  1  0  0  0  0
  9  5  1  1  0  0  0
  9 14  1  0  0  0  0
 10 53  1  6  0  0  0
 10 31  1  0  0  0  0
 11 17  1  6  0  0  0
 11 10  1  0  0  0  0
 14 13  1  1  0  0  0
 14 12  1  0  0  0  0
 15 54  1  6  0  0  0
 15  7  1  0  0  0  0
 16 19  1  0  0  0  0
 17 33  1  0  0  0  0
 18  6  1  0  0  0  0
 18 30  2  0  0  0  0
 20  4  1  0  0  0  0
 22 16  2  0  0  0  0
 22 57  1  0  0  0  0
 23  3  1  0  0  0  0
 23 33  1  0  0  0  0
 24  9  1  0  0  0  0
 24  1  2  0  0  0  0
 25 28  1  1  0  0  0
 25 15  1  0  0  0  0
 26 34  1  0  0  0  0
 27 13  1  0  0  0  0
 29 20  2  0  0  0  0
 30 25  1  0  0  0  0
 31 29  2  0  0  0  0
 32 12  1  1  0  0  0
 32 28  1  0  0  0  0
 34 58  1  6  0  0  0
 35 16  1  0  0  0  0
 35 18  1  0  0  0  0
 38 36  1  6  0  0  0
 38 37  1  0  0  0  0
 38 41  1  0  0  0  0
 39 41  1  0  0  0  0
 39 44  1  6  0  0  0
 41 40  1  1  0  0  0
 42 43  1  0  0  0  0
 42 39  1  0  0  0  0
 43 45  1  6  0  0  0
 46 43  1  0  0  0  0
 46 47  1  0  0  0  0
 47 37  1  0  0  0  0
 47  1  1  6  0  0  0
 48 49  1  6  0  0  0
 48 51  1  0  0  0  0
 48 50  1  0  0  0  0
 50 49  1  6  0  0  0
 50 11  1  0  0  0  0
 51 50  1  0  0  0  0
 52 53  1  0  0  0  0
 54 55  1  0  0  0  0
 56 57  2  0  0  0  0
 58 59  1  0  0  0  0
 60 59  1  1  0  0  0
 60 61  1  0  0  0  0
 60 67  1  0  0  0  0
 61 62  1  0  0  0  0
 63 62  1  0  0  0  0
 65 63  1  0  0  0  0
 65 64  1  0  0  0  0
 66 65  1  0  0  0  0
 66 64  1  0  0  0  0
 67 68  1  0  0  0  0
 68 69  1  0  0  0  0
 69 70  1  0  0  0  0
M  END
>  <MODEL>
2

>  <REMARK>
 VINA RESULT:       4.6      1.361      2.127
  Name = 
  15 active torsions:
  status: ('A' for Active; 'I' for Inactive)
    1  A    between atoms: C_1  and  C_6
    2  A    between atoms: C_1  and  C_18
    3  A    between atoms: O_2  and  C_44
    4  A    between atoms: C_5  and  C_34
    5  A    between atoms: C_6  and  C_11
    6  A    between atoms: C_7  and  C_70
    7  A    between atoms: C_11  and  N_57
    8  A    between atoms: C_18  and  C_54
    9  A    between atoms: C_18  and  C_58
   10  A    between atoms: C_24  and  O_36
   11  A    between atoms: C_25  and  C_50
   12  A    between atoms: O_31  and  C_54
   13  A    between atoms: O_31  and  C_65
   14  A    between atoms: C_38  and  C_43
   15  A    between atoms: C_44  and  C_58
                            x       y       z     vdW  Elec       q    Type
                         _______ _______ _______ _____ _____    ______ ____

>  <TORSDO>
F 15

$$$$
