=
 OpenBabel10222421093D

 29 31  0  0  1  0  0  0  0  0999 V2000
  187.0020  178.6600  138.5150 N   0  0  0  0  0  0  0  0  0  0  0  0
  183.0950  179.3700  138.6340 N   0  0  0  0  0  1  0  0  0  0  0  0
  183.0330  178.6000  142.2070 C   0  0  0  0  0  3  0  0  0  0  0  0
  185.0630  178.8200  139.8610 C   0  0  0  0  0  0  0  0  0  0  0  0
  182.7980  178.4260  140.9100 C   0  0  0  0  0  0  0  0  0  0  0  0
  187.7600  178.3370  139.5850 C   0  0  0  0  0  3  0  0  0  0  0  0
  185.5100  178.7480  142.2770 C   0  0  0  0  0  3  0  0  0  0  0  0
  184.2280  179.1550  142.7490 N   0  0  0  0  0  0  0  0  0  0  0  0
  185.6990  178.8960  138.6560 N   0  0  0  0  0  0  0  0  0  0  0  0
  185.8770  178.5750  141.0040 C   0  0  0  0  0  0  0  0  0  0  0  0
  183.7120  178.9260  139.8460 C   0  0  0  0  0  0  0  0  0  0  0  0
  187.1950  178.3070  140.8130 N   0  0  0  0  0  0  0  0  0  0  0  0
  184.1190  178.7590  146.2620 O   0  0  0  0  0  0  0  0  0  0  0  0
  185.4760  178.9880  145.9620 C   0  0  2  0  0  3  0  0  0  0  0  0
  183.4180  178.8460  145.0460 C   0  0  0  0  0  2  0  0  0  0  0  0
  184.1990  179.7260  144.0940 C   0  0  1  0  0  3  0  0  0  0  0  0
  185.5760  179.7980  144.6900 C   0  0  0  0  0  2  0  0  0  0  0  0
  186.2120  177.6650  145.7910 C   0  0  0  0  0  2  0  0  0  0  0  0
  187.7110  177.8280  146.0540 C   0  0  1  0  0  3  0  0  0  0  0  0
  188.0860  177.2330  147.4130 C   0  0  2  0  0  3  0  0  0  0  0  0
  187.9210  178.1900  148.4180 O   0  0  0  0  0  1  0  0  0  0  0  0
  189.4710  176.7950  147.4030 N   0  0  0  0  0  1  0  0  0  0  0  0
  188.5670  177.2320  144.9240 C   0  0  2  0  0  3  0  0  0  0  0  0
  189.3350  178.2260  144.3170 O   0  0  0  0  0  1  0  0  0  0  0  0
  188.2910  175.8880  143.0010 O   0  0  0  0  0  0  0  0  0  0  0  0
  187.7460  176.5120  143.8960 C   0  0  0  0  0  3  0  0  0  0  0  0
  180.3920  178.4110  140.6940 N   0  0  0  0  0  2  0  0  0  0  0  0
  181.5100  177.7820  140.5340 C   0  0  0  0  0  0  0  0  0  0  0  0
  181.4770  176.4480  139.8600 C   0  0  0  0  0  1  0  0  0  0  0  0
  1  9  2  0  0  0  0
  1  6  1  0  0  0  0
  2 11  1  0  0  0  0
  3  8  1  0  0  0  0
  4 10  1  0  0  0  0
  5  3  2  0  0  0  0
  6 12  2  0  0  0  0
  7  8  1  0  0  0  0
  9  4  1  0  0  0  0
 10  7  2  0  0  0  0
 11  4  2  0  0  0  0
 11  5  1  0  0  0  0
 12 10  1  0  0  0  0
 14 18  1  6  0  0  0
 14 13  1  0  0  0  0
 15 13  1  0  0  0  0
 16  8  1  6  0  0  0
 16 17  1  0  0  0  0
 16 15  1  0  0  0  0
 17 14  1  0  0  0  0
 19 18  1  6  0  0  0
 19 20  1  0  0  0  0
 20 22  1  6  0  0  0
 20 21  1  0  0  0  0
 23 24  1  6  0  0  0
 23 19  1  0  0  0  0
 25 26  2  0  0  0  0
 26 23  1  0  0  0  0
 28 27  2  0  0  0  0
 28  5  1  0  0  0  0
 29 28  1  0  0  0  0
M  END
>  <MODEL>
1

>  <REMARK>
 VINA RESULT:      -7.8      0.000      0.000
  Name = 
  7 active torsions:
  status: ('A' for Active; 'I' for Inactive)
    1  A    between atoms: C_2  and  C_14
    2  A    between atoms: C_5  and  C_17
    3  A    between atoms: C_7  and  C_14
    4  A    between atoms: C_7  and  C_24
    5  A    between atoms: C_8  and  C_13
    6  A    between atoms: C_13  and  C_14
    7  A    between atoms: C_19  and  N_23
                            x       y       z     vdW  Elec       q    Type
                         _______ _______ _______ _____ _____    ______ ____

>  <TORSDO>
F 7

$$$$
=
 OpenBabel10222421093D

 29 31  0  0  1  0  0  0  0  0999 V2000
  190.7780  176.4160  136.2830 N   0  0  0  0  0  0  0  0  0  0  0  0
  188.5860  179.3000  137.9130 N   0  0  0  0  0  1  0  0  0  0  0  0
  188.9900  177.7840  141.2140 C   0  0  0  0  0  3  0  0  0  0  0  0
  189.9080  177.3510  138.2750 C   0  0  0  0  0  0  0  0  0  0  0  0
  188.3610  178.1550  140.1040 C   0  0  0  0  0  0  0  0  0  0  0  0
  191.3740  175.4190  136.9700 C   0  0  0  0  0  3  0  0  0  0  0  0
  190.8200  176.3590  140.3300 C   0  0  0  0  0  3  0  0  0  0  0  0
  190.3350  177.3160  141.2690 N   0  0  0  0  0  0  0  0  0  0  0  0
  190.0740  177.3490  136.9200 N   0  0  0  0  0  0  0  0  0  0  0  0
  190.6140  176.3560  139.0110 C   0  0  0  0  0  0  0  0  0  0  0  0
  189.0410  178.2600  138.7830 C   0  0  0  0  0  0  0  0  0  0  0  0
  191.2940  175.4040  138.3200 N   0  0  0  0  0  0  0  0  0  0  0  0
  190.6650  178.5560  144.5640 O   0  0  0  0  0  0  0  0  0  0  0  0
  190.1020  177.2730  144.7110 C   0  0  2  0  0  3  0  0  0  0  0  0
  190.8910  178.7410  143.1900 C   0  0  0  0  0  2  0  0  0  0  0  0
  191.0600  177.3860  142.5360 C   0  0  1  0  0  3  0  0  0  0  0  0
  190.5090  176.4120  143.5380 C   0  0  0  0  0  2  0  0  0  0  0  0
  188.5820  177.3650  144.7820 C   0  0  0  0  0  2  0  0  0  0  0  0
  188.1200  177.8530  146.1560 C   0  0  1  0  0  3  0  0  0  0  0  0
  186.6130  177.6450  146.3220 C   0  0  2  0  0  3  0  0  0  0  0  0
  186.0360  177.3140  145.0940 O   0  0  0  0  0  1  0  0  0  0  0  0
  185.9920  178.8580  146.8250 N   0  0  0  0  0  1  0  0  0  0  0  0
  188.9080  177.1960  147.3010 C   0  0  2  0  0  3  0  0  0  0  0  0
  188.2340  176.0690  147.7740 O   0  0  0  0  0  1  0  0  0  0  0  0
  188.3210  178.3820  149.2580 O   0  0  0  0  0  0  0  0  0  0  0  0
  189.1840  178.1450  148.4290 C   0  0  0  0  0  3  0  0  0  0  0  0
  186.1470  178.5330  139.2140 N   0  0  0  0  0  2  0  0  0  0  0  0
  186.9380  178.5700  140.2350 C   0  0  0  0  0  0  0  0  0  0  0  0
  186.3540  178.9290  141.5640 C   0  0  0  0  0  1  0  0  0  0  0  0
  1  9  2  0  0  0  0
  1  6  1  0  0  0  0
  2 11  1  0  0  0  0
  3  8  1  0  0  0  0
  4 11  2  0  0  0  0
  4 10  1  0  0  0  0
  5 28  1  0  0  0  0
  5  3  2  0  0  0  0
  6 12  2  0  0  0  0
  7  8  1  0  0  0  0
  9  4  1  0  0  0  0
 10  7  2  0  0  0  0
 11  5  1  0  0  0  0
 12 10  1  0  0  0  0
 13 14  1  0  0  0  0
 14 18  1  6  0  0  0
 15 13  1  0  0  0  0
 16  8  1  6  0  0  0
 16 15  1  0  0  0  0
 16 17  1  0  0  0  0
 17 14  1  0  0  0  0
 19 18  1  6  0  0  0
 19 20  1  0  0  0  0
 19 23  1  0  0  0  0
 20 21  1  6  0  0  0
 20 22  1  0  0  0  0
 23 24  1  1  0  0  0
 23 26  1  0  0  0  0
 26 25  2  0  0  0  0
 27 28  2  0  0  0  0
 28 29  1  0  0  0  0
M  END
>  <MODEL>
2

>  <REMARK>
 VINA RESULT:      -7.2      2.912      5.370
  Name = 
  7 active torsions:
  status: ('A' for Active; 'I' for Inactive)
    1  A    between atoms: C_2  and  C_14
    2  A    between atoms: C_5  and  C_17
    3  A    between atoms: C_7  and  C_14
    4  A    between atoms: C_7  and  C_24
    5  A    between atoms: C_8  and  C_13
    6  A    between atoms: C_13  and  C_14
    7  A    between atoms: C_19  and  N_23
                            x       y       z     vdW  Elec       q    Type
                         _______ _______ _______ _____ _____    ______ ____

>  <TORSDO>
F 7

$$$$
=
 OpenBabel10222421093D

 29 31  0  0  1  0  0  0  0  0999 V2000
  184.0240  179.0140  140.7180 N   0  0  0  0  0  0  0  0  0  0  0  0
  186.2920  177.5670  137.7950 N   0  0  0  0  0  1  0  0  0  0  0  0
  189.2580  177.8590  139.9120 C   0  0  0  0  0  3  0  0  0  0  0  0
  186.1860  178.3220  140.0540 C   0  0  0  0  0  0  0  0  0  0  0  0
  188.4330  178.1460  138.9110 C   0  0  0  0  0  0  0  0  0  0  0  0
  184.4680  179.3380  141.9510 C   0  0  0  0  0  3  0  0  0  0  0  0
  187.8030  178.1750  141.8990 C   0  0  0  0  0  3  0  0  0  0  0  0
  188.8440  177.4760  141.2220 N   0  0  0  0  0  0  0  0  0  0  0  0
  184.8590  178.5200  139.8070 N   0  0  0  0  0  0  0  0  0  0  0  0
  186.6380  178.5720  141.3810 C   0  0  0  0  0  0  0  0  0  0  0  0
  186.9570  177.9650  138.9980 C   0  0  0  0  0  0  0  0  0  0  0  0
  185.7610  179.1070  142.2710 N   0  0  0  0  0  0  0  0  0  0  0  0
  191.0600  177.3690  143.9760 O   0  0  0  0  0  0  0  0  0  0  0  0
  189.8570  176.8140  144.4530 C   0  0  2  0  0  3  0  0  0  0  0  0
  190.8570  177.6620  142.6170 C   0  0  0  0  0  2  0  0  0  0  0  0
  189.7790  176.7460  142.0760 C   0  0  1  0  0  3  0  0  0  0  0  0
  189.0960  176.2040  143.2990 C   0  0  0  0  0  2  0  0  0  0  0  0
  189.0060  177.8860  145.1230 C   0  0  0  0  0  2  0  0  0  0  0  0
  188.2530  177.3220  146.3290 C   0  0  1  0  0  3  0  0  0  0  0  0
  188.7990  177.9150  147.6300 C   0  0  2  0  0  3  0  0  0  0  0  0
  190.1220  177.5130  147.8230 O   0  0  0  0  0  1  0  0  0  0  0  0
  188.0010  177.4680  148.7590 N   0  0  0  0  0  1  0  0  0  0  0  0
  186.7330  177.5280  146.2130 C   0  0  2  0  0  3  0  0  0  0  0  0
  186.2780  177.1100  144.9610 O   0  0  0  0  0  1  0  0  0  0  0  0
  185.1480  179.2710  146.3810 O   0  0  0  0  0  0  0  0  0  0  0  0
  186.3220  178.9470  146.4650 C   0  0  0  0  0  3  0  0  0  0  0  0
  189.0380  179.8200  137.2770 N   0  0  0  0  0  2  0  0  0  0  0  0
  189.0490  178.5750  137.6260 C   0  0  0  0  0  0  0  0  0  0  0  0
  189.7940  177.6090  136.7610 C   0  0  0  0  0  1  0  0  0  0  0  0
  1  6  1  0  0  0  0
  2 11  1  0  0  0  0
  3  8  1  0  0  0  0
  4 10  1  0  0  0  0
  5 11  1  0  0  0  0
  5  3  2  0  0  0  0
  6 12  2  0  0  0  0
  8  7  1  0  0  0  0
  9  4  1  0  0  0  0
  9  1  2  0  0  0  0
 10  7  2  0  0  0  0
 10 12  1  0  0  0  0
 11  4  2  0  0  0  0
 13 14  1  0  0  0  0
 14 18  1  6  0  0  0
 15 13  1  0  0  0  0
 16  8  1  6  0  0  0
 16 15  1  0  0  0  0
 16 17  1  0  0  0  0
 17 14  1  0  0  0  0
 19 18  1  6  0  0  0
 19 20  1  0  0  0  0
 20 21  1  1  0  0  0
 20 22  1  0  0  0  0
 23 24  1  6  0  0  0
 23 19  1  0  0  0  0
 23 26  1  0  0  0  0
 25 26  2  0  0  0  0
 27 28  2  0  0  0  0
 28  5  1  0  0  0  0
 29 28  1  0  0  0  0
M  END
>  <MODEL>
3

>  <REMARK>
 VINA RESULT:      -7.2      2.132      4.958
  Name = 
  7 active torsions:
  status: ('A' for Active; 'I' for Inactive)
    1  A    between atoms: C_2  and  C_14
    2  A    between atoms: C_5  and  C_17
    3  A    between atoms: C_7  and  C_14
    4  A    between atoms: C_7  and  C_24
    5  A    between atoms: C_8  and  C_13
    6  A    between atoms: C_13  and  C_14
    7  A    between atoms: C_19  and  N_23
                            x       y       z     vdW  Elec       q    Type
                         _______ _______ _______ _____ _____    ______ ____

>  <TORSDO>
F 7

$$$$
=
 OpenBabel10222421093D

 29 31  0  0  1  0  0  0  0  0999 V2000
  187.0660  177.9850  137.4770 N   0  0  0  0  0  0  0  0  0  0  0  0
  185.8840  179.5500  140.9320 N   0  0  0  0  0  1  0  0  0  0  0  0
  188.5060  177.7120  142.6960 C   0  0  0  0  0  3  0  0  0  0  0  0
  187.4670  178.1720  139.8020 C   0  0  0  0  0  0  0  0  0  0  0  0
  187.2720  178.0270  142.3160 C   0  0  0  0  0  0  0  0  0  0  0  0
  188.1250  177.1610  137.3260 C   0  0  0  0  0  3  0  0  0  0  0  0
  189.6130  177.2200  140.5290 C   0  0  0  0  0  3  0  0  0  0  0  0
  189.6520  177.7540  141.8500 N   0  0  0  0  0  0  0  0  0  0  0  0
  186.7560  178.4730  138.6760 N   0  0  0  0  0  0  0  0  0  0  0  0
  188.6390  177.3810  139.6290 C   0  0  0  0  0  0  0  0  0  0  0  0
  186.9560  178.6030  140.9800 C   0  0  0  0  0  0  0  0  0  0  0  0
  188.9010  176.8760  138.3960 N   0  0  0  0  0  0  0  0  0  0  0  0
  191.7280  178.4890  144.6170 O   0  0  0  0  0  0  0  0  0  0  0  0
  191.5910  177.0870  144.6250 C   0  0  2  0  0  3  0  0  0  0  0  0
  191.0290  178.9550  143.4910 C   0  0  0  0  0  2  0  0  0  0  0  0
  190.9780  177.8510  142.4570 C   0  0  1  0  0  3  0  0  0  0  0  0
  191.3250  176.6040  143.2180 C   0  0  0  0  0  2  0  0  0  0  0  0
  190.4450  176.6710  145.5400 C   0  0  0  0  0  2  0  0  0  0  0  0
  190.4900  177.4320  146.8660 C   0  0  1  0  0  3  0  0  0  0  0  0
  189.0750  177.7760  147.3370 C   0  0  2  0  0  3  0  0  0  0  0  0
  189.1310  178.6280  148.4430 O   0  0  0  0  0  1  0  0  0  0  0  0
  188.3630  176.5660  147.7100 N   0  0  0  0  0  1  0  0  0  0  0  0
  191.2730  176.6680  147.9470 C   0  0  2  0  0  3  0  0  0  0  0  0
  192.1670  177.5210  148.5970 O   0  0  0  0  0  1  0  0  0  0  0  0
  193.2080  175.3790  147.5330 O   0  0  0  0  0  0  0  0  0  0  0  0
  191.9990  175.4760  147.4000 C   0  0  0  0  0  3  0  0  0  0  0  0
  184.9500  177.8700  142.9660 N   0  0  0  0  0  2  0  0  0  0  0  0
  186.1910  177.8740  143.3280 C   0  0  0  0  0  0  0  0  0  0  0  0
  186.5050  177.6050  144.7650 C   0  0  0  0  0  1  0  0  0  0  0  0
  1  9  2  0  0  0  0
  2 11  1  0  0  0  0
  4 11  2  0  0  0  0
  5  3  2  0  0  0  0
  5 28  1  0  0  0  0
  6  1  1  0  0  0  0
  6 12  2  0  0  0  0
  7  8  1  0  0  0  0
  8  3  1  0  0  0  0
  9  4  1  0  0  0  0
 10  4  1  0  0  0  0
 10  7  2  0  0  0  0
 11  5  1  0  0  0  0
 12 10  1  0  0  0  0
 13 14  1  0  0  0  0
 14 18  1  1  0  0  0
 15 13  1  0  0  0  0
 16  8  1  1  0  0  0
 16 17  1  0  0  0  0
 16 15  1  0  0  0  0
 17 14  1  0  0  0  0
 19 18  1  6  0  0  0
 19 20  1  0  0  0  0
 19 23  1  0  0  0  0
 20 22  1  1  0  0  0
 20 21  1  0  0  0  0
 23 24  1  6  0  0  0
 26 25  2  0  0  0  0
 26 23  1  0  0  0  0
 27 28  2  0  0  0  0
 28 29  1  0  0  0  0
M  END
>  <MODEL>
4

>  <REMARK>
 VINA RESULT:      -7.1      3.017      4.877
  Name = 
  7 active torsions:
  status: ('A' for Active; 'I' for Inactive)
    1  A    between atoms: C_2  and  C_14
    2  A    between atoms: C_5  and  C_17
    3  A    between atoms: C_7  and  C_14
    4  A    between atoms: C_7  and  C_24
    5  A    between atoms: C_8  and  C_13
    6  A    between atoms: C_13  and  C_14
    7  A    between atoms: C_19  and  N_23
                            x       y       z     vdW  Elec       q    Type
                         _______ _______ _______ _____ _____    ______ ____

>  <TORSDO>
F 7

$$$$
=
 OpenBabel10222421093D

 29 31  0  0  1  0  0  0  0  0999 V2000
  183.9640  179.0580  140.6210 N   0  0  0  0  0  0  0  0  0  0  0  0
  186.2100  177.5570  137.7080 N   0  0  0  0  0  1  0  0  0  0  0  0
  189.1750  177.7880  139.8330 C   0  0  0  0  0  3  0  0  0  0  0  0
  186.1140  178.3180  139.9640 C   0  0  0  0  0  0  0  0  0  0  0  0
  188.3590  178.0910  138.8280 C   0  0  0  0  0  0  0  0  0  0  0  0
  184.4120  179.3750  141.8550 C   0  0  0  0  0  3  0  0  0  0  0  0
  187.7210  178.1390  141.8150 C   0  0  0  0  0  3  0  0  0  0  0  0
  188.7490  177.4170  141.1410 N   0  0  0  0  0  0  0  0  0  0  0  0
  184.7910  178.5440  139.7130 N   0  0  0  0  0  0  0  0  0  0  0  0
  186.5670  178.5610  141.2930 C   0  0  0  0  0  0  0  0  0  0  0  0
  186.8790  177.9430  138.9120 C   0  0  0  0  0  0  0  0  0  0  0  0
  185.6990  179.1160  142.1790 N   0  0  0  0  0  0  0  0  0  0  0  0
  191.1310  177.3130  143.7540 O   0  0  0  0  0  0  0  0  0  0  0  0
  189.9150  176.9280  144.3520 C   0  0  2  0  0  3  0  0  0  0  0  0
  190.8630  177.5100  142.3890 C   0  0  0  0  0  2  0  0  0  0  0  0
  189.6660  176.6690  142.0000 C   0  0  1  0  0  3  0  0  0  0  0  0
  189.0200  176.3050  143.3060 C   0  0  0  0  0  2  0  0  0  0  0  0
  189.2230  178.1350  144.9720 C   0  0  0  0  0  2  0  0  0  0  0  0
  188.8870  177.8850  146.4440 C   0  0  1  0  0  3  0  0  0  0  0  0
  187.3810  177.6790  146.6250 C   0  0  2  0  0  3  0  0  0  0  0  0
  186.7270  177.8170  145.3980 O   0  0  0  0  0  1  0  0  0  0  0  0
  186.8490  178.6600  147.5560 N   0  0  0  0  0  1  0  0  0  0  0  0
  189.6890  176.7130  147.0320 C   0  0  2  0  0  3  0  0  0  0  0  0
  188.9130  176.0010  147.9480 O   0  0  0  0  0  1  0  0  0  0  0  0
  192.0380  176.7080  147.2850 O   0  0  0  0  0  0  0  0  0  0  0  0
  190.9710  177.1540  147.6730 C   0  0  0  0  0  3  0  0  0  0  0  0
  189.0510  179.7540  137.2180 N   0  0  0  0  0  2  0  0  0  0  0  0
  188.9880  178.5050  137.5450 C   0  0  0  0  0  0  0  0  0  0  0  0
  189.6630  177.5100  136.6550 C   0  0  0  0  0  1  0  0  0  0  0  0
  1  6  1  0  0  0  0
  2 11  1  0  0  0  0
  3  8  1  0  0  0  0
  4 10  1  0  0  0  0
  5 11  1  0  0  0  0
  5  3  2  0  0  0  0
  6 12  2  0  0  0  0
  8  7  1  0  0  0  0
  9  4  1  0  0  0  0
  9  1  2  0  0  0  0
 10  7  2  0  0  0  0
 10 12  1  0  0  0  0
 11  4  2  0  0  0  0
 13 14  1  0  0  0  0
 14 18  1  6  0  0  0
 15 13  1  0  0  0  0
 16  8  1  6  0  0  0
 16 15  1  0  0  0  0
 16 17  1  0  0  0  0
 17 14  1  0  0  0  0
 19 18  1  6  0  0  0
 19 20  1  0  0  0  0
 19 23  1  0  0  0  0
 20 21  1  6  0  0  0
 20 22  1  0  0  0  0
 23 26  1  0  0  0  0
 23 24  1  1  0  0  0
 25 26  2  0  0  0  0
 27 28  2  0  0  0  0
 28  5  1  0  0  0  0
 29 28  1  0  0  0  0
M  END
>  <MODEL>
5

>  <REMARK>
 VINA RESULT:      -6.8      2.331      5.064
  Name = 
  7 active torsions:
  status: ('A' for Active; 'I' for Inactive)
    1  A    between atoms: C_2  and  C_14
    2  A    between atoms: C_5  and  C_17
    3  A    between atoms: C_7  and  C_14
    4  A    between atoms: C_7  and  C_24
    5  A    between atoms: C_8  and  C_13
    6  A    between atoms: C_13  and  C_14
    7  A    between atoms: C_19  and  N_23
                            x       y       z     vdW  Elec       q    Type
                         _______ _______ _______ _____ _____    ______ ____

>  <TORSDO>
F 7

$$$$
=
 OpenBabel10222421093D

 29 31  0  0  1  0  0  0  0  0999 V2000
  183.2660  179.1570  144.6160 N   0  0  0  0  0  0  0  0  0  0  0  0
  186.0940  179.7510  147.3420 N   0  0  0  0  0  1  0  0  0  0  0  0
  188.3720  177.5660  145.5000 C   0  0  0  0  0  3  0  0  0  0  0  0
  185.5030  178.7420  145.2660 C   0  0  0  0  0  0  0  0  0  0  0  0
  187.5670  177.9460  146.4860 C   0  0  0  0  0  0  0  0  0  0  0  0
  183.4180  178.4190  143.4960 C   0  0  0  0  0  3  0  0  0  0  0  0
  186.8700  177.6730  143.5260 C   0  0  0  0  0  3  0  0  0  0  0  0
  188.1540  177.8470  144.1200 N   0  0  0  0  0  0  0  0  0  0  0  0
  184.2790  179.3120  145.4660 N   0  0  0  0  0  0  0  0  0  0  0  0
  185.6940  178.0440  144.0380 C   0  0  0  0  0  0  0  0  0  0  0  0
  186.3970  178.8440  146.2790 C   0  0  0  0  0  0  0  0  0  0  0  0
  184.6260  177.8800  143.2160 N   0  0  0  0  0  0  0  0  0  0  0  0
  189.6320  176.7640  141.0940 O   0  0  0  0  0  0  0  0  0  0  0  0
  189.1960  178.0790  140.8380 C   0  0  2  0  0  3  0  0  0  0  0  0
  189.3350  176.4970  142.4410 C   0  0  0  0  0  2  0  0  0  0  0  0
  189.2900  177.8060  143.2000 C   0  0  1  0  0  3  0  0  0  0  0  0
  189.1690  178.8570  142.1330 C   0  0  0  0  0  2  0  0  0  0  0  0
  187.8050  178.0660  140.2150 C   0  0  0  0  0  2  0  0  0  0  0  0
  187.8740  177.7860  138.7120 C   0  0  1  0  0  3  0  0  0  0  0  0
  186.5860  178.2410  138.0210 C   0  0  2  0  0  3  0  0  0  0  0  0
  185.6790  178.7250  138.9660 O   0  0  0  0  0  1  0  0  0  0  0  0
  185.9790  177.1280  137.3110 N   0  0  0  0  0  1  0  0  0  0  0  0
  189.1150  178.4190  138.0600 C   0  0  2  0  0  3  0  0  0  0  0  0
  188.7730  179.6040  137.4070 O   0  0  0  0  0  1  0  0  0  0  0  0
  189.4340  177.4010  135.9520 O   0  0  0  0  0  0  0  0  0  0  0  0
  189.8060  177.4860  137.1110 C   0  0  0  0  0  3  0  0  0  0  0  0
  187.4340  176.4350  148.3660 N   0  0  0  0  0  2  0  0  0  0  0  0
  187.9320  177.5170  147.8640 C   0  0  0  0  0  0  0  0  0  0  0  0
  188.9630  178.2520  148.6590 C   0  0  0  0  0  1  0  0  0  0  0  0
  1  9  2  0  0  0  0
  3  5  2  0  0  0  0
  4  9  1  0  0  0  0
  4 11  2  0  0  0  0
  5 28  1  0  0  0  0
  6  1  1  0  0  0  0
  7 10  2  0  0  0  0
  7  8  1  0  0  0  0
  8  3  1  0  0  0  0
 10  4  1  0  0  0  0
 11  5  1  0  0  0  0
 11  2  1  0  0  0  0
 12  6  2  0  0  0  0
 12 10  1  0  0  0  0
 13 15  1  0  0  0  0
 14 18  1  1  0  0  0
 14 13  1  0  0  0  0
 14 17  1  0  0  0  0
 15 16  1  0  0  0  0
 16 17  1  6  0  0  0
 16  8  1  0  0  0  0
 19 18  1  1  0  0  0
 20 22  1  1  0  0  0
 20 19  1  0  0  0  0
 20 21  1  0  0  0  0
 23 24  1  6  0  0  0
 23 19  1  0  0  0  0
 25 26  2  0  0  0  0
 26 23  1  0  0  0  0
 28 27  2  0  0  0  0
 28 29  1  0  0  0  0
M  END
>  <MODEL>
6

>  <REMARK>
 VINA RESULT:      -6.7      3.124      7.364
  Name = 
  7 active torsions:
  status: ('A' for Active; 'I' for Inactive)
    1  A    between atoms: C_2  and  C_14
    2  A    between atoms: C_5  and  C_17
    3  A    between atoms: C_7  and  C_14
    4  A    between atoms: C_7  and  C_24
    5  A    between atoms: C_8  and  C_13
    6  A    between atoms: C_13  and  C_14
    7  A    between atoms: C_19  and  N_23
                            x       y       z     vdW  Elec       q    Type
                         _______ _______ _______ _____ _____    ______ ____

>  <TORSDO>
F 7

$$$$
=
 OpenBabel10222421093D

 29 31  0  0  1  0  0  0  0  0999 V2000
  190.5810  176.5050  136.2950 N   0  0  0  0  0  0  0  0  0  0  0  0
  188.3340  179.3940  137.8400 N   0  0  0  0  0  1  0  0  0  0  0  0
  188.4490  177.7730  141.1150 C   0  0  0  0  0  3  0  0  0  0  0  0
  189.5810  177.4030  138.2430 C   0  0  0  0  0  0  0  0  0  0  0  0
  187.9160  178.1920  139.9720 C   0  0  0  0  0  0  0  0  0  0  0  0
  191.1000  175.4740  136.9950 C   0  0  0  0  0  3  0  0  0  0  0  0
  190.3100  176.3300  140.3300 C   0  0  0  0  0  3  0  0  0  0  0  0
  189.7750  177.2710  141.2570 N   0  0  0  0  0  0  0  0  0  0  0  0
  189.8500  177.4360  136.9050 N   0  0  0  0  0  0  0  0  0  0  0  0
  190.2070  176.3710  138.9990 C   0  0  0  0  0  0  0  0  0  0  0  0
  188.6980  178.3180  138.7100 C   0  0  0  0  0  0  0  0  0  0  0  0
  190.9160  175.4220  138.3340 N   0  0  0  0  0  0  0  0  0  0  0  0
  190.0880  178.6420  144.5030 O   0  0  0  0  0  0  0  0  0  0  0  0
  189.2780  177.5020  144.6640 C   0  0  2  0  0  3  0  0  0  0  0  0
  190.4490  178.6900  143.1450 C   0  0  0  0  0  2  0  0  0  0  0  0
  190.4020  177.2880  142.5780 C   0  0  1  0  0  3  0  0  0  0  0  0
  189.5990  176.5030  143.5760 C   0  0  0  0  0  2  0  0  0  0  0  0
  187.8040  177.8830  144.5980 C   0  0  0  0  0  2  0  0  0  0  0  0
  187.1220  177.6970  145.9550 C   0  0  1  0  0  3  0  0  0  0  0  0
  188.1320  177.8670  147.0920 C   0  0  2  0  0  3  0  0  0  0  0  0
  188.4960  176.6200  147.6030 O   0  0  0  0  0  1  0  0  0  0  0  0
  187.5540  178.6640  148.1600 N   0  0  0  0  0  1  0  0  0  0  0  0
  185.9140  178.6310  146.1310 C   0  0  2  0  0  3  0  0  0  0  0  0
  184.8680  177.9630  146.7690 O   0  0  0  0  0  1  0  0  0  0  0  0
  184.5220  178.6910  144.2240 O   0  0  0  0  0  0  0  0  0  0  0  0
  185.4410  179.2130  144.8320 C   0  0  0  0  0  3  0  0  0  0  0  0
  186.0630  179.3680  140.9810 N   0  0  0  0  0  2  0  0  0  0  0  0
  186.4970  178.6370  140.0070 C   0  0  0  0  0  0  0  0  0  0  0  0
  185.5660  178.3530  138.8720 C   0  0  0  0  0  1  0  0  0  0  0  0
  1  9  2  0  0  0  0
  1  6  1  0  0  0  0
  2 11  1  0  0  0  0
  3  8  1  0  0  0  0
  4 11  2  0  0  0  0
  4 10  1  0  0  0  0
  5 28  1  0  0  0  0
  5  3  2  0  0  0  0
  6 12  2  0  0  0  0
  7  8  1  0  0  0  0
  9  4  1  0  0  0  0
 10  7  2  0  0  0  0
 11  5  1  0  0  0  0
 12 10  1  0  0  0  0
 13 14  1  0  0  0  0
 14 18  1  6  0  0  0
 15 13  1  0  0  0  0
 16  8  1  6  0  0  0
 16 15  1  0  0  0  0
 16 17  1  0  0  0  0
 17 14  1  0  0  0  0
 19 18  1  6  0  0  0
 19 23  1  0  0  0  0
 19 20  1  0  0  0  0
 20 21  1  1  0  0  0
 20 22  1  0  0  0  0
 23 24  1  6  0  0  0
 25 26  2  0  0  0  0
 26 23  1  0  0  0  0
 28 27  2  0  0  0  0
 29 28  1  0  0  0  0
M  END
>  <MODEL>
7

>  <REMARK>
 VINA RESULT:      -6.5      2.513      4.875
  Name = 
  7 active torsions:
  status: ('A' for Active; 'I' for Inactive)
    1  A    between atoms: C_2  and  C_14
    2  A    between atoms: C_5  and  C_17
    3  A    between atoms: C_7  and  C_14
    4  A    between atoms: C_7  and  C_24
    5  A    between atoms: C_8  and  C_13
    6  A    between atoms: C_13  and  C_14
    7  A    between atoms: C_19  and  N_23
                            x       y       z     vdW  Elec       q    Type
                         _______ _______ _______ _____ _____    ______ ____

>  <TORSDO>
F 7

$$$$
=
 OpenBabel10222421093D

 29 31  0  0  1  0  0  0  0  0999 V2000
  183.5560  179.0790  138.3870 N   0  0  0  0  0  0  0  0  0  0  0  0
  180.4480  180.1310  140.6260 N   0  0  0  0  0  1  0  0  0  0  0  0
  182.1340  178.8680  143.6140 C   0  0  0  0  0  3  0  0  0  0  0  0
  182.6530  179.2280  140.5690 C   0  0  0  0  0  0  0  0  0  0  0  0
  181.2360  178.9040  142.6350 C   0  0  0  0  0  0  0  0  0  0  0  0
  184.6990  178.5370  138.8600 C   0  0  0  0  0  3  0  0  0  0  0  0
  184.2740  178.7700  142.3590 C   0  0  0  0  0  3  0  0  0  0  0  0
  183.5060  179.2250  143.4700 N   0  0  0  0  0  0  0  0  0  0  0  0
  182.5730  179.4140  139.2190 N   0  0  0  0  0  0  0  0  0  0  0  0
  183.8930  178.7460  141.0790 C   0  0  0  0  0  0  0  0  0  0  0  0
  181.5280  179.4620  141.2860 C   0  0  0  0  0  0  0  0  0  0  0  0
  184.8580  178.3850  140.1940 N   0  0  0  0  0  0  0  0  0  0  0  0
  185.2030  178.3410  146.4450 O   0  0  0  0  0  0  0  0  0  0  0  0
  186.2160  178.5020  145.4800 C   0  0  2  0  0  3  0  0  0  0  0  0
  183.9890  178.6550  145.8100 C   0  0  0  0  0  2  0  0  0  0  0  0
  184.2700  179.5980  144.6590 C   0  0  1  0  0  3  0  0  0  0  0  0
  185.7490  179.4750  144.4230 C   0  0  0  0  0  2  0  0  0  0  0  0
  186.5550  177.1630  144.8370 C   0  0  0  0  0  2  0  0  0  0  0  0
  188.0680  176.9480  144.7690 C   0  0  1  0  0  3  0  0  0  0  0  0
  188.5740  177.1270  143.3360 C   0  0  2  0  0  3  0  0  0  0  0  0
  187.4950  177.2110  142.4530 O   0  0  0  0  0  1  0  0  0  0  0  0
  189.4100  176.0020  142.9550 N   0  0  0  0  0  1  0  0  0  0  0  0
  188.8290  177.8560  145.7510 C   0  0  2  0  0  3  0  0  0  0  0  0
  189.9090  178.4680  145.1130 O   0  0  0  0  0  1  0  0  0  0  0  0
  189.2960  177.6730  148.0590 O   0  0  0  0  0  0  0  0  0  0  0  0
  189.2970  177.1210  146.9710 C   0  0  0  0  0  3  0  0  0  0  0  0
  179.3070  177.4910  142.2860 N   0  0  0  0  0  2  0  0  0  0  0  0
  179.8580  178.4460  142.9620 C   0  0  0  0  0  0  0  0  0  0  0  0
  179.1180  178.9890  144.1420 C   0  0  0  0  0  1  0  0  0  0  0  0
  1  6  1  0  0  0  0
  1  9  2  0  0  0  0
  2 11  1  0  0  0  0
  4 10  1  0  0  0  0
  4 11  2  0  0  0  0
  5 28  1  0  0  0  0
  5  3  2  0  0  0  0
  6 12  2  0  0  0  0
  7  8  1  0  0  0  0
  8  3  1  0  0  0  0
  9  4  1  0  0  0  0
 10  7  2  0  0  0  0
 11  5  1  0  0  0  0
 12 10  1  0  0  0  0
 14 18  1  6  0  0  0
 14 13  1  0  0  0  0
 15 13  1  0  0  0  0
 16  8  1  6  0  0  0
 16 15  1  0  0  0  0
 17 16  1  0  0  0  0
 17 14  1  0  0  0  0
 19 18  1  6  0  0  0
 19 23  1  0  0  0  0
 20 21  1  6  0  0  0
 20 19  1  0  0  0  0
 22 20  1  0  0  0  0
 23 24  1  6  0  0  0
 23 26  1  0  0  0  0
 26 25  2  0  0  0  0
 27 28  2  0  0  0  0
 28 29  1  0  0  0  0
M  END
>  <MODEL>
8

>  <REMARK>
 VINA RESULT:      -6.5      1.764      2.926
  Name = 
  7 active torsions:
  status: ('A' for Active; 'I' for Inactive)
    1  A    between atoms: C_2  and  C_14
    2  A    between atoms: C_5  and  C_17
    3  A    between atoms: C_7  and  C_14
    4  A    between atoms: C_7  and  C_24
    5  A    between atoms: C_8  and  C_13
    6  A    between atoms: C_13  and  C_14
    7  A    between atoms: C_19  and  N_23
                            x       y       z     vdW  Elec       q    Type
                         _______ _______ _______ _____ _____    ______ ____

>  <TORSDO>
F 7

$$$$
=
 OpenBabel10222421093D

 29 31  0  0  1  0  0  0  0  0999 V2000
  186.3440  177.2420  137.2910 N   0  0  0  0  0  0  0  0  0  0  0  0
  189.5060  174.8490  137.0550 N   0  0  0  0  0  1  0  0  0  0  0  0
  191.1820  176.7540  139.6870 C   0  0  0  0  0  3  0  0  0  0  0  0
  188.4690  176.6830  138.1690 C   0  0  0  0  0  0  0  0  0  0  0  0
  190.9490  176.3000  138.4600 C   0  0  0  0  0  0  0  0  0  0  0  0
  186.2090  178.2570  138.1710 C   0  0  0  0  0  3  0  0  0  0  0  0
  189.0280  177.8480  140.2590 C   0  0  0  0  0  3  0  0  0  0  0  0
  190.1710  177.0840  140.6360 N   0  0  0  0  0  0  0  0  0  0  0  0
  187.4370  176.4820  137.2980 N   0  0  0  0  0  0  0  0  0  0  0  0
  188.2880  177.6910  139.1590 C   0  0  0  0  0  0  0  0  0  0  0  0
  189.5880  175.9460  137.9700 C   0  0  0  0  0  0  0  0  0  0  0  0
  187.1730  178.4650  139.0960 N   0  0  0  0  0  0  0  0  0  0  0  0
  189.5020  178.1340  143.9470 O   0  0  0  0  0  0  0  0  0  0  0  0
  189.0060  176.8180  143.8730 C   0  0  2  0  0  3  0  0  0  0  0  0
  190.0830  178.4150  142.6980 C   0  0  0  0  0  2  0  0  0  0  0  0
  190.5140  177.1130  142.0570 C   0  0  1  0  0  3  0  0  0  0  0  0
  189.7750  176.0520  142.8210 C   0  0  0  0  0  2  0  0  0  0  0  0
  187.5230  176.8270  143.5230 C   0  0  0  0  0  2  0  0  0  0  0  0
  186.7680  177.8790  144.3390 C   0  0  1  0  0  3  0  0  0  0  0  0
  185.4560  178.2560  143.6480 C   0  0  2  0  0  3  0  0  0  0  0  0
  185.4960  177.8810  142.3030 O   0  0  0  0  0  1  0  0  0  0  0  0
  185.2390  179.6900  143.7320 N   0  0  0  0  0  1  0  0  0  0  0  0
  186.5300  177.4280  145.7900 C   0  0  2  0  0  3  0  0  0  0  0  0
  185.2920  177.8840  146.2460 O   0  0  0  0  0  1  0  0  0  0  0  0
  187.3500  178.2540  147.8460 O   0  0  0  0  0  0  0  0  0  0  0  0
  187.6200  177.8720  146.7190 C   0  0  0  0  0  3  0  0  0  0  0  0
  192.1060  176.3830  136.3400 N   0  0  0  0  0  2  0  0  0  0  0  0
  192.1330  176.0560  137.5910 C   0  0  0  0  0  0  0  0  0  0  0  0
  193.4170  175.5380  138.1560 C   0  0  0  0  0  1  0  0  0  0  0  0
  1  9  2  0  0  0  0
  1  6  1  0  0  0  0
  2 11  1  0  0  0  0
  3  8  1  0  0  0  0
  4 10  1  0  0  0  0
  5  3  2  0  0  0  0
  6 12  2  0  0  0  0
  7  8  1  0  0  0  0
  9  4  1  0  0  0  0
 10  7  2  0  0  0  0
 11  4  2  0  0  0  0
 11  5  1  0  0  0  0
 12 10  1  0  0  0  0
 14 18  1  6  0  0  0
 14 13  1  0  0  0  0
 15 13  1  0  0  0  0
 16  8  1  6  0  0  0
 16 15  1  0  0  0  0
 16 17  1  0  0  0  0
 17 14  1  0  0  0  0
 19 18  1  6  0  0  0
 19 23  1  0  0  0  0
 20 21  1  6  0  0  0
 20 22  1  0  0  0  0
 20 19  1  0  0  0  0
 23 24  1  1  0  0  0
 23 26  1  0  0  0  0
 26 25  2  0  0  0  0
 27 28  2  0  0  0  0
 28 29  1  0  0  0  0
 28  5  1  0  0  0  0
M  END
>  <MODEL>
9

>  <REMARK>
 VINA RESULT:      -6.5      2.963      6.383
  Name = 
  7 active torsions:
  status: ('A' for Active; 'I' for Inactive)
    1  A    between atoms: C_2  and  C_14
    2  A    between atoms: C_5  and  C_17
    3  A    between atoms: C_7  and  C_14
    4  A    between atoms: C_7  and  C_24
    5  A    between atoms: C_8  and  C_13
    6  A    between atoms: C_13  and  C_14
    7  A    between atoms: C_19  and  N_23
                            x       y       z     vdW  Elec       q    Type
                         _______ _______ _______ _____ _____    ______ ____

>  <TORSDO>
F 7

$$$$
