=
 OpenBabel10222415323D

 54 62  0  0  1  0  0  0  0  0999 V2000
  187.4710  177.1050  136.3230 C   0  0  1  0  0  0  0  0  0  0  0  0
  188.8490  177.3850  134.8990 C   0  0  0  0  0  2  0  0  0  0  0  0
  188.9290  175.5820  136.6350 C   0  0  1  0  0  3  0  0  0  0  0  0
  188.1660  178.2150  135.8070 O   0  0  0  0  0  0  0  0  0  0  0  0
  188.1690  176.1330  135.4160 C   0  0  1  0  0  3  0  0  0  0  0  0
  188.0820  176.4520  137.5640 C   0  0  1  0  0  3  0  0  0  0  0  0
  189.5570  172.1060  134.9170 N   0  0  0  0  0  0  0  0  0  0  0  0
  185.5720  173.4550  137.3750 C   0  0  0  0  0  1  0  0  0  0  0  0
  188.7250  174.0800  136.9210 C   0  0  2  0  0  3  0  0  0  0  0  0
  190.5430  173.0250  135.4730 C   0  0  1  0  0  3  0  0  0  0  0  0
  191.0870  174.0940  137.5860 O   0  0  0  0  0  1  0  0  0  0  0  0
  190.1060  173.3620  136.9080 C   0  0  1  0  0  3  0  0  0  0  0  0
  187.7480  173.4800  135.8730 C   0  0  2  0  0  3  0  0  0  0  0  0
  186.5320  172.8120  136.4350 C   0  0  0  0  0  0  0  0  0  0  0  0
  186.3020  171.6510  135.9050 N   0  0  0  0  0  0  0  0  0  0  0  0
  187.3340  171.2880  135.0300 N   0  0  0  0  0  2  0  0  0  0  0  0
  188.2880  172.3330  135.0790 C   0  0  0  0  0  0  0  0  0  0  0  0
  191.9040  172.3450  135.4910 C   0  0  0  0  0  2  0  0  0  0  0  0
  192.9960  173.2540  134.9370 C   0  0  0  0  0  2  0  0  0  0  0  0
  195.1040  171.8970  135.4530 C   0  0  0  0  0  3  0  0  0  0  0  0
  196.1150  172.0830  136.3840 C   0  0  0  0  0  3  0  0  0  0  0  0
  194.3220  173.0310  135.5870 C   0  0  0  0  0  0  0  0  0  0  0  0
  195.9090  173.2610  137.0070 N   0  0  0  0  0  0  0  0  0  0  0  0
  194.8060  173.8310  136.5510 N   0  0  0  0  0  0  0  0  0  0  0  0
  197.7760  174.6880  137.7520 C   0  0  0  0  0  2  0  0  0  0  0  0
  196.6660  173.7300  138.1690 C   0  0  1  0  0  3  0  0  0  0  0  0
  196.5800  175.1050  140.2680 C   0  0  0  0  0  3  0  0  0  0  0  0
  195.7670  174.4410  139.1840 C   0  0  0  0  0  2  0  0  0  0  0  0
  198.6360  174.9720  138.9830 C   0  0  0  0  0  2  0  0  0  0  0  0
  197.8380  175.3690  140.1340 N   0  0  0  0  0  0  0  0  0  0  0  0
  189.1860  176.8860  139.6320 O   0  0  0  0  0  1  0  0  0  0  0  0
  188.9520  177.4130  138.3630 C   0  0  0  0  0  2  0  0  0  0  0  0
  185.9540  177.2240  136.1910 C   0  0  0  0  0  2  0  0  0  0  0  0
  185.1920  176.9400  137.4720 C   0  0  0  0  0  2  0  0  0  0  0  0
  184.7700  178.2700  138.0640 C   0  0  0  0  0  2  0  0  0  0  0  0
  185.3890  178.4630  139.4380 C   0  0  0  0  0  2  0  0  0  0  0  0
  184.4920  179.3220  140.3210 C   0  0  0  0  0  2  0  0  0  0  0  0
  183.6780  178.4630  141.2940 C   0  0  2  0  0  3  0  0  0  0  0  0
  180.9030  178.8600  139.0630 C   0  0  0  0  0  2  0  0  0  0  0  0
  181.2740  177.4920  138.5650 C   0  0  0  0  0  2  0  0  0  0  0  0
  181.3530  178.3650  141.8820 O   0  0  0  0  0  1  0  0  0  0  0  0
  181.9340  179.3280  139.8870 O   0  0  0  0  0  0  0  0  0  0  0  0
  182.2320  178.2950  140.7960 C   0  0  1  0  0  0  0  0  0  0  0  0
  182.0450  176.6730  139.9690 S   0  0  0  0  0  0  0  0  0  0  0  0
  183.7210  179.1010  142.6840 C   0  0  0  0  0  2  0  0  0  0  0  0
  186.6670  177.4510  144.1670 C   0  0  1  0  0  3  0  0  0  0  0  0
  186.0210  178.0250  145.4500 C   0  0  0  0  0  2  0  0  0  0  0  0
  183.8690  179.0980  145.6090 O   0  0  0  0  0  0  0  0  0  0  0  0
  185.8920  177.8840  142.9890 N   0  0  0  0  0  2  0  0  0  0  0  0
  184.7210  178.4410  143.5160 N   0  0  0  0  0  0  0  0  0  0  0  0
  184.7750  178.5730  144.9140 C   0  0  0  0  0  0  0  0  0  0  0  0
  188.1640  177.7400  143.9460 C   0  0  0  0  0  3  0  0  0  0  0  0
  189.0360  177.2290  145.0770 C   0  0  0  0  0  2  0  0  0  0  0  0
  188.9770  176.4690  143.7650 C   0  0  0  0  0  2  0  0  0  0  0  0
  1 33  1  6  0  0  0
  1  6  1  0  0  0  0
  2  4  1  0  0  0  0
  3  9  1  1  0  0  0
  3  6  1  0  0  0  0
  4  1  1  0  0  0  0
  5  2  1  6  0  0  0
  5  1  1  0  0  0  0
  5  3  1  0  0  0  0
  6 32  1  1  0  0  0
  7 17  2  0  0  0  0
  7 10  1  0  0  0  0
 10 18  1  0  0  0  0
 10 12  1  0  0  0  0
 12  9  1  0  0  0  0
 12 11  1  0  0  0  0
 13 14  1  0  0  0  0
 13  9  1  0  0  0  0
 14  8  1  0  0  0  0
 15 14  2  0  0  0  0
 16 17  1  0  0  0  0
 16 15  1  0  0  0  0
 17 13  1  0  0  0  0
 19 18  1  0  0  0  0
 19 22  1  0  0  0  0
 20 22  1  0  0  0  0
 20 21  2  0  0  0  0
 21 23  1  0  0  0  0
 22 24  2  0  0  0  0
 23 26  1  0  0  0  0
 24 23  1  0  0  0  0
 25 26  1  0  0  0  0
 25 29  1  0  0  0  0
 26 28  1  0  0  0  0
 28 27  1  0  0  0  0
 29 30  1  0  0  0  0
 30 27  2  0  0  0  0
 32 31  1  0  0  0  0
 33 34  1  0  0  0  0
 34 35  1  0  0  0  0
 35 36  1  0  0  0  0
 36 37  1  0  0  0  0
 37 38  1  0  0  0  0
 38 45  1  0  0  0  0
 39 42  1  0  0  0  0
 40 39  1  0  0  0  0
 40 44  1  0  0  0  0
 42 43  1  0  0  0  0
 43 38  1  0  0  0  0
 43 41  1  0  0  0  0
 44 43  1  0  0  0  0
 45 50  1  0  0  0  0
 46 47  1  0  0  0  0
 49 50  1  0  0  0  0
 49 46  1  0  0  0  0
 50 51  1  0  0  0  0
 51 47  1  0  0  0  0
 51 48  2  0  0  0  0
 52 46  1  0  0  0  0
 52 53  1  0  0  0  0
 54 52  1  0  0  0  0
 54 53  1  0  0  0  0
M  END
>  <MODEL>
1

>  <REMARK>
 VINA RESULT:      -7.3      0.000      0.000
  Name = 
  16 active torsions:
  status: ('A' for Active; 'I' for Inactive)
    1  A    between atoms: C_4  and  C_23
    2  A    between atoms: C_6  and  C_19
    3  A    between atoms: C_6  and  C_44
    4  A    between atoms: C_10  and  N_46
    5  A    between atoms: C_12  and  C_20
    6  A    between atoms: C_14  and  C_37
    7  A    between atoms: C_14  and  C_45
    8  A    between atoms: C_16  and  C_32
    9  A    between atoms: C_17  and  C_45
   10  A    between atoms: C_19  and  C_32
   11  A    between atoms: C_24  and  C_53
   12  A    between atoms: C_25  and  C_36
   13  A    between atoms: C_29  and  C_36
   14  A    between atoms: C_29  and  N_42
   15  A    between atoms: C_30  and  C_36
   16  A    between atoms: C_30  and  C_44
                            x       y       z     vdW  Elec       q    Type
                         _______ _______ _______ _____ _____    ______ ____

>  <TORSDO>
F 16

$$$$
=
 OpenBabel10222415323D

 54 62  0  0  1  0  0  0  0  0999 V2000
  187.7120  177.3070  137.3200 C   0  0  1  0  0  0  0  0  0  0  0  0
  186.3970  178.7110  137.8720 C   0  0  0  0  0  2  0  0  0  0  0  0
  185.9740  176.9550  136.1380 C   0  0  1  0  0  3  0  0  0  0  0  0
  187.7640  178.6960  137.5390 O   0  0  0  0  0  0  0  0  0  0  0  0
  186.2450  177.2230  137.6280 C   0  0  1  0  0  3  0  0  0  0  0  0
  187.4770  176.8670  135.8740 C   0  0  1  0  0  3  0  0  0  0  0  0
  183.3170  174.5400  137.7310 N   0  0  0  0  0  0  0  0  0  0  0  0
  187.4490  173.2460  135.4970 C   0  0  0  0  0  1  0  0  0  0  0  0
  185.2620  175.6230  135.8210 C   0  0  2  0  0  3  0  0  0  0  0  0
  183.0980  175.8620  137.1550 C   0  0  1  0  0  3  0  0  0  0  0  0
  183.4070  177.0330  135.0490 O   0  0  0  0  0  1  0  0  0  0  0  0
  183.7260  175.8660  135.7510 C   0  0  1  0  0  3  0  0  0  0  0  0
  185.6350  174.5670  136.8980 C   0  0  2  0  0  3  0  0  0  0  0  0
  186.2470  173.3040  136.3740 C   0  0  0  0  0  0  0  0  0  0  0  0
  185.7150  172.2370  136.8840 N   0  0  0  0  0  0  0  0  0  0  0  0
  184.6240  172.5620  137.6990 N   0  0  0  0  0  2  0  0  0  0  0  0
  184.4800  173.9690  137.6350 C   0  0  0  0  0  0  0  0  0  0  0  0
  181.6030  176.1230  137.0570 C   0  0  0  0  0  2  0  0  0  0  0  0
  181.0220  176.5860  138.3880 C   0  0  0  0  0  2  0  0  0  0  0  0
  179.7600  178.6840  139.1330 C   0  0  0  0  0  3  0  0  0  0  0  0
  179.8330  180.0020  138.7100 C   0  0  0  0  0  3  0  0  0  0  0  0
  180.7780  178.0580  138.4340 C   0  0  0  0  0  0  0  0  0  0  0  0
  180.8390  180.1090  137.8200 N   0  0  0  0  0  0  0  0  0  0  0  0
  181.4010  178.9270  137.6230 N   0  0  0  0  0  0  0  0  0  0  0  0
  180.2620  181.3420  135.7640 C   0  0  0  0  0  2  0  0  0  0  0  0
  181.1220  181.3040  137.0220 C   0  0  1  0  0  3  0  0  0  0  0  0
  180.9630  183.8080  136.9310 C   0  0  0  0  0  3  0  0  0  0  0  0
  180.8770  182.5900  137.8170 C   0  0  0  0  0  2  0  0  0  0  0  0
  180.7530  182.4990  134.8960 C   0  0  0  0  0  2  0  0  0  0  0  0
  180.8600  183.7440  135.6440 N   0  0  0  0  0  0  0  0  0  0  0  0
  189.2910  177.7940  134.6350 O   0  0  0  0  0  1  0  0  0  0  0  0
  187.9210  177.9150  134.8630 C   0  0  0  0  0  2  0  0  0  0  0  0
  188.6640  176.5150  138.2140 C   0  0  0  0  0  2  0  0  0  0  0  0
  190.0740  177.0720  138.2710 C   0  0  0  0  0  2  0  0  0  0  0  0
  190.3540  177.4770  139.7050 C   0  0  0  0  0  2  0  0  0  0  0  0
  189.0980  177.3460  140.5510 C   0  0  0  0  0  2  0  0  0  0  0  0
  189.4180  176.7170  141.9010 C   0  0  0  0  0  2  0  0  0  0  0  0
  188.9330  177.5980  143.0560 C   0  0  2  0  0  3  0  0  0  0  0  0
  190.7560  177.0860  146.0980 C   0  0  0  0  0  2  0  0  0  0  0  0
  191.6370  176.1970  145.2670 C   0  0  0  0  0  2  0  0  0  0  0  0
  190.3820  179.1810  144.1320 O   0  0  0  0  0  1  0  0  0  0  0  0
  189.6130  177.4010  145.3510 O   0  0  0  0  0  0  0  0  0  0  0  0
  190.0570  177.8220  144.0830 C   0  0  1  0  0  0  0  0  0  0  0  0
  191.5380  176.8610  143.5980 S   0  0  0  0  0  0  0  0  0  0  0  0
  187.7060  176.9500  143.7030 C   0  0  0  0  0  2  0  0  0  0  0  0
  184.7500  178.9560  142.7880 C   0  0  1  0  0  3  0  0  0  0  0  0
  184.5590  178.9010  144.3220 C   0  0  0  0  0  2  0  0  0  0  0  0
  186.1200  178.0080  145.9250 O   0  0  0  0  0  0  0  0  0  0  0  0
  185.9220  178.1440  142.4080 N   0  0  0  0  0  2  0  0  0  0  0  0
  186.5560  177.8430  143.6190 N   0  0  0  0  0  0  0  0  0  0  0  0
  185.7880  178.2250  144.7330 C   0  0  0  0  0  0  0  0  0  0  0  0
  183.5400  178.5730  141.9150 C   0  0  0  0  0  3  0  0  0  0  0  0
  183.6410  179.1070  140.4990 C   0  0  0  0  0  2  0  0  0  0  0  0
  183.9200  177.6410  140.7760 C   0  0  0  0  0  2  0  0  0  0  0  0
  1  4  1  0  0  0  0
  1  5  1  0  0  0  0
  1 33  1  1  0  0  0
  3  9  1  1  0  0  0
  3  5  1  0  0  0  0
  4  2  1  0  0  0  0
  5  2  1  6  0  0  0
  6 32  1  6  0  0  0
  6  3  1  0  0  0  0
  6  1  1  0  0  0  0
  8 14  1  0  0  0  0
  9 13  1  0  0  0  0
 10  7  1  0  0  0  0
 11 12  1  0  0  0  0
 12  9  1  0  0  0  0
 12 10  1  0  0  0  0
 13 17  1  0  0  0  0
 14 15  2  0  0  0  0
 14 13  1  0  0  0  0
 15 16  1  0  0  0  0
 17 16  1  0  0  0  0
 17  7  2  0  0  0  0
 18 10  1  0  0  0  0
 18 19  1  0  0  0  0
 19 22  1  0  0  0  0
 21 20  2  0  0  0  0
 22 20  1  0  0  0  0
 23 21  1  0  0  0  0
 24 23  1  0  0  0  0
 24 22  2  0  0  0  0
 25 26  1  0  0  0  0
 26 28  1  0  0  0  0
 26 23  1  0  0  0  0
 27 28  1  0  0  0  0
 29 30  1  0  0  0  0
 29 25  1  0  0  0  0
 30 27  2  0  0  0  0
 31 32  1  0  0  0  0
 33 34  1  0  0  0  0
 34 35  1  0  0  0  0
 35 36  1  0  0  0  0
 36 37  1  0  0  0  0
 37 38  1  0  0  0  0
 38 45  1  0  0  0  0
 38 43  1  0  0  0  0
 40 39  1  0  0  0  0
 42 39  1  0  0  0  0
 43 41  1  0  0  0  0
 43 42  1  0  0  0  0
 44 43  1  0  0  0  0
 44 40  1  0  0  0  0
 46 47  1  0  0  0  0
 47 51  1  0  0  0  0
 49 46  1  0  0  0  0
 49 50  1  0  0  0  0
 50 45  1  0  0  0  0
 50 51  1  0  0  0  0
 51 48  2  0  0  0  0
 52 46  1  0  0  0  0
 53 54  1  0  0  0  0
 53 52  1  0  0  0  0
 54 52  1  0  0  0  0
M  END
>  <MODEL>
2

>  <REMARK>
 VINA RESULT:      -7.3      4.590      9.654
  Name = 
  16 active torsions:
  status: ('A' for Active; 'I' for Inactive)
    1  A    between atoms: C_4  and  C_23
    2  A    between atoms: C_6  and  C_19
    3  A    between atoms: C_6  and  C_44
    4  A    between atoms: C_10  and  N_46
    5  A    between atoms: C_12  and  C_20
    6  A    between atoms: C_14  and  C_37
    7  A    between atoms: C_14  and  C_45
    8  A    between atoms: C_16  and  C_32
    9  A    between atoms: C_17  and  C_45
   10  A    between atoms: C_19  and  C_32
   11  A    between atoms: C_24  and  C_53
   12  A    between atoms: C_25  and  C_36
   13  A    between atoms: C_29  and  C_36
   14  A    between atoms: C_29  and  N_42
   15  A    between atoms: C_30  and  C_36
   16  A    between atoms: C_30  and  C_44
                            x       y       z     vdW  Elec       q    Type
                         _______ _______ _______ _____ _____    ______ ____

>  <TORSDO>
F 16

$$$$
=
 OpenBabel10222415323D

 54 62  0  0  1  0  0  0  0  0999 V2000
  189.2550  177.9430  138.5480 C   0  0  1  0  0  0  0  0  0  0  0  0
  187.6160  178.2260  139.6620 C   0  0  0  0  0  2  0  0  0  0  0  0
  187.6230  177.3170  137.3290 C   0  0  1  0  0  3  0  0  0  0  0  0
  188.7630  178.9830  139.3610 O   0  0  0  0  0  0  0  0  0  0  0  0
  188.0560  177.0710  138.7840 C   0  0  1  0  0  3  0  0  0  0  0  0
  188.9360  178.0530  137.0570 C   0  0  1  0  0  3  0  0  0  0  0  0
  185.2100  174.2540  136.8650 N   0  0  0  0  0  0  0  0  0  0  0  0
  190.0810  174.1420  136.8550 C   0  0  0  0  0  1  0  0  0  0  0  0
  187.4880  176.0540  136.4530 C   0  0  2  0  0  3  0  0  0  0  0  0
  184.9680  175.6490  136.5150 C   0  0  1  0  0  3  0  0  0  0  0  0
  185.9230  177.3940  135.1200 O   0  0  0  0  0  1  0  0  0  0  0  0
  186.1530  176.1220  135.6560 C   0  0  1  0  0  3  0  0  0  0  0  0
  187.5650  174.7890  137.3520 C   0  0  2  0  0  3  0  0  0  0  0  0
  188.6360  173.8070  136.9900 C   0  0  0  0  0  0  0  0  0  0  0  0
  188.2060  172.5840  136.9490 N   0  0  0  0  0  0  0  0  0  0  0  0
  186.8190  172.5340  137.1380 N   0  0  0  0  0  2  0  0  0  0  0  0
  186.3840  173.8750  137.2710 C   0  0  0  0  0  0  0  0  0  0  0  0
  183.6770  175.7470  135.7180 C   0  0  0  0  0  2  0  0  0  0  0  0
  182.9000  177.0150  136.0550 C   0  0  0  0  0  2  0  0  0  0  0  0
  181.6670  175.7540  137.9100 C   0  0  0  0  0  3  0  0  0  0  0  0
  180.9150  176.2010  138.9850 C   0  0  0  0  0  3  0  0  0  0  0  0
  182.1660  176.9180  137.3520 C   0  0  0  0  0  0  0  0  0  0  0  0
  180.9880  177.5460  139.0270 N   0  0  0  0  0  0  0  0  0  0  0  0
  181.7220  177.9940  138.0210 N   0  0  0  0  0  0  0  0  0  0  0  0
  180.5210  178.1210  141.3780 C   0  0  0  0  0  2  0  0  0  0  0  0
  180.1930  178.3960  139.9150 C   0  0  1  0  0  3  0  0  0  0  0  0
  179.7710  180.7470  140.6880 C   0  0  0  0  0  3  0  0  0  0  0  0
  180.4240  179.8840  139.6370 C   0  0  0  0  0  2  0  0  0  0  0  0
  179.5180  178.8930  142.2350 C   0  0  0  0  0  2  0  0  0  0  0  0
  179.4210  180.2920  141.8470 N   0  0  0  0  0  0  0  0  0  0  0  0
  187.3100  179.7380  136.6070 O   0  0  0  0  0  1  0  0  0  0  0  0
  188.6810  179.4880  136.6160 C   0  0  0  0  0  2  0  0  0  0  0  0
  190.6130  177.4090  139.0020 C   0  0  0  0  0  2  0  0  0  0  0  0
  190.5380  176.3820  140.1150 C   0  0  0  0  0  2  0  0  0  0  0  0
  190.9820  177.0560  141.3980 C   0  0  0  0  0  2  0  0  0  0  0  0
  189.7860  177.3430  142.2910 C   0  0  0  0  0  2  0  0  0  0  0  0
  189.8080  176.4540  143.5280 C   0  0  0  0  0  2  0  0  0  0  0  0
  189.6990  177.2820  144.8120 C   0  0  2  0  0  3  0  0  0  0  0  0
  191.8000  176.6680  147.6490 C   0  0  0  0  0  2  0  0  0  0  0  0
  192.1140  175.3640  146.9710 C   0  0  0  0  0  2  0  0  0  0  0  0
  191.8070  178.3320  145.2780 O   0  0  0  0  0  1  0  0  0  0  0  0
  190.7190  177.2640  146.9870 O   0  0  0  0  0  0  0  0  0  0  0  0
  191.0140  177.2300  145.6100 C   0  0  1  0  0  0  0  0  0  0  0  0
  191.9190  175.6890  145.2120 S   0  0  0  0  0  0  0  0  0  0  0  0
  188.5200  176.7690  145.6430 C   0  0  0  0  0  2  0  0  0  0  0  0
  185.5320  178.7130  144.6990 C   0  0  1  0  0  3  0  0  0  0  0  0
  185.4780  178.8870  146.2350 C   0  0  0  0  0  2  0  0  0  0  0  0
  187.1590  178.1880  147.8130 O   0  0  0  0  0  0  0  0  0  0  0  0
  186.6500  177.8180  144.3440 N   0  0  0  0  0  2  0  0  0  0  0  0
  187.3830  177.6760  145.5270 N   0  0  0  0  0  0  0  0  0  0  0  0
  186.7260  178.2400  146.6340 C   0  0  0  0  0  0  0  0  0  0  0  0
  184.2420  178.2460  144.0000 C   0  0  0  0  0  3  0  0  0  0  0  0
  183.0530  179.1410  144.2950 C   0  0  0  0  0  2  0  0  0  0  0  0
  183.7590  179.2370  142.9540 C   0  0  0  0  0  2  0  0  0  0  0  0
  1  5  1  0  0  0  0
  1 33  1  1  0  0  0
  1  4  1  0  0  0  0
  3  9  1  6  0  0  0
  3  5  1  0  0  0  0
  4  2  1  0  0  0  0
  5  2  1  1  0  0  0
  6 32  1  1  0  0  0
  6  3  1  0  0  0  0
  6  1  1  0  0  0  0
  7 17  2  0  0  0  0
  8 14  1  0  0  0  0
  9 13  1  0  0  0  0
 10  7  1  0  0  0  0
 11 12  1  0  0  0  0
 12  9  1  0  0  0  0
 12 10  1  0  0  0  0
 14 13  1  0  0  0  0
 15 14  2  0  0  0  0
 15 16  1  0  0  0  0
 16 17  1  0  0  0  0
 17 13  1  0  0  0  0
 18 19  1  0  0  0  0
 18 10  1  0  0  0  0
 19 22  1  0  0  0  0
 20 21  2  0  0  0  0
 21 23  1  0  0  0  0
 22 20  1  0  0  0  0
 22 24  2  0  0  0  0
 23 26  1  0  0  0  0
 24 23  1  0  0  0  0
 25 29  1  0  0  0  0
 26 25  1  0  0  0  0
 27 30  2  0  0  0  0
 28 26  1  0  0  0  0
 28 27  1  0  0  0  0
 30 29  1  0  0  0  0
 31 32  1  0  0  0  0
 33 34  1  0  0  0  0
 34 35  1  0  0  0  0
 35 36  1  0  0  0  0
 36 37  1  0  0  0  0
 37 38  1  0  0  0  0
 38 43  1  0  0  0  0
 38 45  1  0  0  0  0
 40 39  1  0  0  0  0
 41 43  1  0  0  0  0
 42 39  1  0  0  0  0
 43 42  1  0  0  0  0
 44 43  1  0  0  0  0
 44 40  1  0  0  0  0
 46 47  1  0  0  0  0
 47 51  1  0  0  0  0
 49 46  1  0  0  0  0
 49 50  1  0  0  0  0
 50 45  1  0  0  0  0
 50 51  1  0  0  0  0
 51 48  2  0  0  0  0
 52 53  1  0  0  0  0
 52 46  1  0  0  0  0
 54 52  1  0  0  0  0
 54 53  1  0  0  0  0
M  END
>  <MODEL>
3

>  <REMARK>
 VINA RESULT:      -7.0      4.200      9.413
  Name = 
  16 active torsions:
  status: ('A' for Active; 'I' for Inactive)
    1  A    between atoms: C_4  and  C_23
    2  A    between atoms: C_6  and  C_19
    3  A    between atoms: C_6  and  C_44
    4  A    between atoms: C_10  and  N_46
    5  A    between atoms: C_12  and  C_20
    6  A    between atoms: C_14  and  C_37
    7  A    between atoms: C_14  and  C_45
    8  A    between atoms: C_16  and  C_32
    9  A    between atoms: C_17  and  C_45
   10  A    between atoms: C_19  and  C_32
   11  A    between atoms: C_24  and  C_53
   12  A    between atoms: C_25  and  C_36
   13  A    between atoms: C_29  and  C_36
   14  A    between atoms: C_29  and  N_42
   15  A    between atoms: C_30  and  C_36
   16  A    between atoms: C_30  and  C_44
                            x       y       z     vdW  Elec       q    Type
                         _______ _______ _______ _____ _____    ______ ____

>  <TORSDO>
F 16

$$$$
=
 OpenBabel10222415323D

 54 62  0  0  1  0  0  0  0  0999 V2000
  190.2970  177.7940  142.8270 C   0  0  1  0  0  0  0  0  0  0  0  0
  190.9040  179.5020  143.6740 C   0  0  0  0  0  2  0  0  0  0  0  0
  188.7800  178.3010  144.2350 C   0  0  1  0  0  3  0  0  0  0  0  0
  190.8220  179.0130  142.3580 O   0  0  0  0  0  0  0  0  0  0  0  0
  190.3160  178.2340  144.2620 C   0  0  1  0  0  3  0  0  0  0  0  0
  188.7720  177.6830  142.8370 C   0  0  1  0  0  3  0  0  0  0  0  0
  186.0080  178.5630  147.0060 N   0  0  0  0  0  0  0  0  0  0  0  0
  190.2100  176.1170  147.3220 C   0  0  0  0  0  1  0  0  0  0  0  0
  188.0580  177.4010  145.2590 C   0  0  2  0  0  3  0  0  0  0  0  0
  185.8410  178.6320  145.5580 C   0  0  1  0  0  3  0  0  0  0  0  0
  186.2670  177.2810  143.5850 O   0  0  0  0  0  1  0  0  0  0  0  0
  186.5310  177.3980  144.9530 C   0  0  1  0  0  3  0  0  0  0  0  0
  188.3620  177.9030  146.6970 C   0  0  2  0  0  3  0  0  0  0  0  0
  188.9710  176.8900  147.6160 C   0  0  0  0  0  0  0  0  0  0  0  0
  188.3960  176.8520  148.7780 N   0  0  0  0  0  0  0  0  0  0  0  0
  187.2760  177.6920  148.8100 N   0  0  0  0  0  2  0  0  0  0  0  0
  187.1620  178.2580  147.5170 C   0  0  0  0  0  0  0  0  0  0  0  0
  184.3570  178.6130  145.2250 C   0  0  0  0  0  2  0  0  0  0  0  0
  183.9790  179.7380  144.2690 C   0  0  0  0  0  2  0  0  0  0  0  0
  181.8580  179.0530  143.0120 C   0  0  0  0  0  3  0  0  0  0  0  0
  181.6730  178.4270  141.7880 C   0  0  0  0  0  3  0  0  0  0  0  0
  183.2260  179.2560  143.0740 C   0  0  0  0  0  0  0  0  0  0  0  0
  182.8760  178.2870  141.1960 N   0  0  0  0  0  0  0  0  0  0  0  0
  183.8290  178.7600  141.9810 N   0  0  0  0  0  0  0  0  0  0  0  0
  182.0140  176.4960  139.7370 C   0  0  0  0  0  2  0  0  0  0  0  0
  183.1150  177.5230  139.9700 C   0  0  1  0  0  3  0  0  0  0  0  0
  183.2320  177.6270  137.4640 C   0  0  0  0  0  3  0  0  0  0  0  0
  183.2000  178.4310  138.7400 C   0  0  0  0  0  2  0  0  0  0  0  0
  182.4360  175.6130  138.5630 C   0  0  0  0  0  2  0  0  0  0  0  0
  182.8460  176.3940  137.4050 N   0  0  0  0  0  0  0  0  0  0  0  0
  188.0350  177.9790  140.5890 O   0  0  0  0  0  1  0  0  0  0  0  0
  188.1100  178.6120  141.8280 C   0  0  0  0  0  2  0  0  0  0  0  0
  191.1480  176.5820  142.4530 C   0  0  0  0  0  2  0  0  0  0  0  0
  192.1870  176.8560  141.3820 C   0  0  0  0  0  2  0  0  0  0  0  0
  191.4720  177.4560  140.1870 C   0  0  0  0  0  2  0  0  0  0  0  0
  190.7930  176.3680  139.3710 C   0  0  0  0  0  2  0  0  0  0  0  0
  191.7590  175.7710  138.3550 C   0  0  0  0  0  2  0  0  0  0  0  0
  191.0350  175.3740  137.0640 C   0  0  2  0  0  3  0  0  0  0  0  0
  194.2140  175.4530  135.4120 C   0  0  0  0  0  2  0  0  0  0  0  0
  194.3620  174.0430  135.9110 C   0  0  0  0  0  2  0  0  0  0  0  0
  191.4120  175.3020  134.6940 O   0  0  0  0  0  1  0  0  0  0  0  0
  193.1090  176.0350  136.0460 O   0  0  0  0  0  0  0  0  0  0  0  0
  192.0430  175.1210  135.9290 C   0  0  1  0  0  0  0  0  0  0  0  0
  192.6830  173.4100  136.0380 S   0  0  0  0  0  0  0  0  0  0  0  0
  190.0360  176.4720  136.6900 C   0  0  0  0  0  2  0  0  0  0  0  0
  186.9780  174.4210  136.4810 C   0  0  1  0  0  3  0  0  0  0  0  0
  186.3750  175.7240  137.0560 C   0  0  0  0  0  2  0  0  0  0  0  0
  187.5230  177.8230  137.3470 O   0  0  0  0  0  0  0  0  0  0  0  0
  188.4420  174.5620  136.3710 N   0  0  0  0  0  2  0  0  0  0  0  0
  188.6880  175.9220  136.5960 N   0  0  0  0  0  0  0  0  0  0  0  0
  187.5400  176.6080  137.0270 C   0  0  0  0  0  0  0  0  0  0  0  0
  186.6300  173.1080  137.2060 C   0  0  0  0  0  3  0  0  0  0  0  0
  185.2040  173.0790  137.7230 C   0  0  0  0  0  2  0  0  0  0  0  0
  185.5700  172.3040  136.4700 C   0  0  0  0  0  2  0  0  0  0  0  0
  1 33  1  6  0  0  0
  1  6  1  0  0  0  0
  1  5  1  0  0  0  0
  3  5  1  0  0  0  0
  3  9  1  1  0  0  0
  4  1  1  0  0  0  0
  4  2  1  0  0  0  0
  5  2  1  6  0  0  0
  6 32  1  6  0  0  0
  6  3  1  0  0  0  0
  7 17  2  0  0  0  0
  8 14  1  0  0  0  0
  9 13  1  0  0  0  0
 10  7  1  0  0  0  0
 11 12  1  0  0  0  0
 12  9  1  0  0  0  0
 12 10  1  0  0  0  0
 13 17  1  0  0  0  0
 13 14  1  0  0  0  0
 14 15  2  0  0  0  0
 15 16  1  0  0  0  0
 17 16  1  0  0  0  0
 18 10  1  0  0  0  0
 19 18  1  0  0  0  0
 20 22  1  0  0  0  0
 21 20  2  0  0  0  0
 22 19  1  0  0  0  0
 23 21  1  0  0  0  0
 23 24  1  0  0  0  0
 24 22  2  0  0  0  0
 25 26  1  0  0  0  0
 26 23  1  0  0  0  0
 27 28  1  0  0  0  0
 28 26  1  0  0  0  0
 29 25  1  0  0  0  0
 30 27  2  0  0  0  0
 30 29  1  0  0  0  0
 31 32  1  0  0  0  0
 34 33  1  0  0  0  0
 35 34  1  0  0  0  0
 36 35  1  0  0  0  0
 37 36  1  0  0  0  0
 38 37  1  0  0  0  0
 39 40  1  0  0  0  0
 39 42  1  0  0  0  0
 40 44  1  0  0  0  0
 41 43  1  0  0  0  0
 43 44  1  0  0  0  0
 43 42  1  0  0  0  0
 43 38  1  0  0  0  0
 45 38  1  0  0  0  0
 46 47  1  0  0  0  0
 46 52  1  0  0  0  0
 49 46  1  0  0  0  0
 49 50  1  0  0  0  0
 50 45  1  0  0  0  0
 50 51  1  0  0  0  0
 51 47  1  0  0  0  0
 51 48  2  0  0  0  0
 52 53  1  0  0  0  0
 54 52  1  0  0  0  0
 54 53  1  0  0  0  0
M  END
>  <MODEL>
4

>  <REMARK>
 VINA RESULT:      -6.7      3.526     11.384
  Name = 
  16 active torsions:
  status: ('A' for Active; 'I' for Inactive)
    1  A    between atoms: C_4  and  C_23
    2  A    between atoms: C_6  and  C_19
    3  A    between atoms: C_6  and  C_44
    4  A    between atoms: C_10  and  N_46
    5  A    between atoms: C_12  and  C_20
    6  A    between atoms: C_14  and  C_37
    7  A    between atoms: C_14  and  C_45
    8  A    between atoms: C_16  and  C_32
    9  A    between atoms: C_17  and  C_45
   10  A    between atoms: C_19  and  C_32
   11  A    between atoms: C_24  and  C_53
   12  A    between atoms: C_25  and  C_36
   13  A    between atoms: C_29  and  C_36
   14  A    between atoms: C_29  and  N_42
   15  A    between atoms: C_30  and  C_36
   16  A    between atoms: C_30  and  C_44
                            x       y       z     vdW  Elec       q    Type
                         _______ _______ _______ _____ _____    ______ ____

>  <TORSDO>
F 16

$$$$
=
 OpenBabel10222415323D

 54 62  0  0  1  0  0  0  0  0999 V2000
  180.7820  179.5130  142.6200 C   0  0  1  0  0  0  0  0  0  0  0  0
  178.9910  179.0080  143.3560 C   0  0  0  0  0  2  0  0  0  0  0  0
  179.9950  178.0700  141.2640 C   0  0  1  0  0  3  0  0  0  0  0  0
  179.6750  180.2160  143.1320 O   0  0  0  0  0  0  0  0  0  0  0  0
  180.1240  178.1750  142.7930 C   0  0  1  0  0  3  0  0  0  0  0  0
  180.8230  179.3450  141.1010 C   0  0  1  0  0  3  0  0  0  0  0  0
  180.7210  176.5910  137.6980 N   0  0  0  0  0  0  0  0  0  0  0  0
  179.2990  174.1050  141.6400 C   0  0  0  0  0  1  0  0  0  0  0  0
  180.6930  176.8540  140.6200 C   0  0  2  0  0  3  0  0  0  0  0  0
  181.3130  177.7710  138.3190 C   0  0  1  0  0  3  0  0  0  0  0  0
  182.5920  178.3730  140.2940 O   0  0  0  0  0  1  0  0  0  0  0  0
  181.8460  177.3510  139.6990 C   0  0  1  0  0  3  0  0  0  0  0  0
  179.6480  176.0100  139.8380 C   0  0  2  0  0  3  0  0  0  0  0  0
  179.5460  174.5730  140.2480 C   0  0  0  0  0  0  0  0  0  0  0  0
  179.5440  173.7600  139.2380 N   0  0  0  0  0  0  0  0  0  0  0  0
  179.7620  174.4500  138.0390 N   0  0  0  0  0  2  0  0  0  0  0  0
  179.9440  175.8100  138.3860 C   0  0  0  0  0  0  0  0  0  0  0  0
  182.4570  178.2720  137.4510 C   0  0  0  0  0  2  0  0  0  0  0  0
  183.2430  177.1210  136.8340 C   0  0  0  0  0  2  0  0  0  0  0  0
  185.3240  178.0980  137.9570 C   0  0  0  0  0  3  0  0  0  0  0  0
  186.6470  177.6840  137.9650 C   0  0  0  0  0  3  0  0  0  0  0  0
  184.6680  177.0860  137.2780 C   0  0  0  0  0  0  0  0  0  0  0  0
  186.7280  176.5020  137.3230 N   0  0  0  0  0  0  0  0  0  0  0  0
  185.5350  176.1440  136.8750 N   0  0  0  0  0  0  0  0  0  0  0  0
  189.0940  176.2020  137.9460 C   0  0  0  0  0  2  0  0  0  0  0  0
  187.9800  175.8270  136.9760 C   0  0  1  0  0  3  0  0  0  0  0  0
  189.1610  173.6150  136.8330 C   0  0  0  0  0  3  0  0  0  0  0  0
  187.8260  174.3030  136.9800 C   0  0  0  0  0  2  0  0  0  0  0  0
  190.4010  175.6230  137.4050 C   0  0  0  0  0  2  0  0  0  0  0  0
  190.2830  174.2110  137.0710 N   0  0  0  0  0  0  0  0  0  0  0  0
  180.8940  181.1630  139.5610 O   0  0  0  0  0  1  0  0  0  0  0  0
  180.0340  180.4240  140.3710 C   0  0  0  0  0  2  0  0  0  0  0  0
  182.0730  179.7660  143.3960 C   0  0  0  0  0  2  0  0  0  0  0  0
  182.5380  178.5910  144.2350 C   0  0  0  0  0  2  0  0  0  0  0  0
  183.7860  179.0190  144.9810 C   0  0  0  0  0  2  0  0  0  0  0  0
  184.8610  179.4720  144.0060 C   0  0  0  0  0  2  0  0  0  0  0  0
  185.6400  178.2780  143.4670 C   0  0  0  0  0  2  0  0  0  0  0  0
  186.9680  178.0980  144.2090 C   0  0  2  0  0  3  0  0  0  0  0  0
  190.3770  177.8230  143.1380 C   0  0  0  0  0  2  0  0  0  0  0  0
  190.1690  176.3430  143.2920 C   0  0  0  0  0  2  0  0  0  0  0  0
  187.7940  178.4420  141.9810 O   0  0  0  0  0  1  0  0  0  0  0  0
  189.2870  178.4870  143.7170 O   0  0  0  0  0  0  0  0  0  0  0  0
  188.1220  177.8730  143.2150 C   0  0  1  0  0  0  0  0  0  0  0  0
  188.4140  176.0790  142.9990 S   0  0  0  0  0  0  0  0  0  0  0  0
  186.8410  176.9310  145.1910 C   0  0  0  0  0  2  0  0  0  0  0  0
  189.5700  177.1240  147.6640 C   0  0  1  0  0  3  0  0  0  0  0  0
  188.6810  178.2840  148.1710 C   0  0  0  0  0  2  0  0  0  0  0  0
  186.4800  178.8520  147.3710 O   0  0  0  0  0  0  0  0  0  0  0  0
  188.9880  176.5600  146.4310 N   0  0  0  0  0  2  0  0  0  0  0  0
  187.7160  177.1360  146.3400 N   0  0  0  0  0  0  0  0  0  0  0  0
  187.5200  178.1510  147.2920 C   0  0  0  0  0  0  0  0  0  0  0  0
  191.0640  177.4270  147.4500 C   0  0  0  0  0  3  0  0  0  0  0  0
  191.9730  176.3980  148.0960 C   0  0  0  0  0  2  0  0  0  0  0  0
  191.7510  176.3750  146.5950 C   0  0  0  0  0  2  0  0  0  0  0  0
  1  5  1  0  0  0  0
  1  4  1  0  0  0  0
  1 33  1  1  0  0  0
  3  9  1  6  0  0  0
  3  5  1  0  0  0  0
  4  2  1  0  0  0  0
  5  2  1  1  0  0  0
  6 32  1  6  0  0  0
  6  3  1  0  0  0  0
  6  1  1  0  0  0  0
  7 10  1  0  0  0  0
  7 17  2  0  0  0  0
 10 12  1  0  0  0  0
 12 11  1  0  0  0  0
 12  9  1  0  0  0  0
 13 14  1  0  0  0  0
 13  9  1  0  0  0  0
 14  8  1  0  0  0  0
 15 14  2  0  0  0  0
 16 17  1  0  0  0  0
 16 15  1  0  0  0  0
 17 13  1  0  0  0  0
 18 10  1  0  0  0  0
 19 22  1  0  0  0  0
 19 18  1  0  0  0  0
 20 21  2  0  0  0  0
 22 20  1  0  0  0  0
 23 21  1  0  0  0  0
 24 22  2  0  0  0  0
 24 23  1  0  0  0  0
 26 28  1  0  0  0  0
 26 23  1  0  0  0  0
 26 25  1  0  0  0  0
 27 28  1  0  0  0  0
 27 30  2  0  0  0  0
 29 25  1  0  0  0  0
 30 29  1  0  0  0  0
 31 32  1  0  0  0  0
 33 34  1  0  0  0  0
 34 35  1  0  0  0  0
 36 35  1  0  0  0  0
 37 36  1  0  0  0  0
 37 38  1  0  0  0  0
 38 45  1  0  0  0  0
 39 40  1  0  0  0  0
 39 42  1  0  0  0  0
 41 43  1  0  0  0  0
 43 42  1  0  0  0  0
 43 38  1  0  0  0  0
 44 43  1  0  0  0  0
 44 40  1  0  0  0  0
 45 50  1  0  0  0  0
 46 47  1  0  0  0  0
 49 46  1  0  0  0  0
 50 49  1  0  0  0  0
 50 51  1  0  0  0  0
 51 48  2  0  0  0  0
 51 47  1  0  0  0  0
 52 46  1  0  0  0  0
 52 53  1  0  0  0  0
 54 52  1  0  0  0  0
 54 53  1  0  0  0  0
M  END
>  <MODEL>
5

>  <REMARK>
 VINA RESULT:      -6.3      3.941      8.471
  Name = 
  16 active torsions:
  status: ('A' for Active; 'I' for Inactive)
    1  A    between atoms: C_4  and  C_23
    2  A    between atoms: C_6  and  C_19
    3  A    between atoms: C_6  and  C_44
    4  A    between atoms: C_10  and  N_46
    5  A    between atoms: C_12  and  C_20
    6  A    between atoms: C_14  and  C_37
    7  A    between atoms: C_14  and  C_45
    8  A    between atoms: C_16  and  C_32
    9  A    between atoms: C_17  and  C_45
   10  A    between atoms: C_19  and  C_32
   11  A    between atoms: C_24  and  C_53
   12  A    between atoms: C_25  and  C_36
   13  A    between atoms: C_29  and  C_36
   14  A    between atoms: C_29  and  N_42
   15  A    between atoms: C_30  and  C_36
   16  A    between atoms: C_30  and  C_44
                            x       y       z     vdW  Elec       q    Type
                         _______ _______ _______ _____ _____    ______ ____

>  <TORSDO>
F 16

$$$$
=
 OpenBabel10222415323D

 54 62  0  0  1  0  0  0  0  0999 V2000
  183.4330  176.6880  135.9160 C   0  0  1  0  0  0  0  0  0  0  0  0
  181.5330  176.4380  135.3390 C   0  0  0  0  0  2  0  0  0  0  0  0
  182.2490  177.5380  137.4710 C   0  0  1  0  0  3  0  0  0  0  0  0
  182.6790  175.6240  135.3850 O   0  0  0  0  0  0  0  0  0  0  0  0
  182.2610  177.6260  135.9350 C   0  0  1  0  0  3  0  0  0  0  0  0
  183.5470  176.7300  137.4400 C   0  0  1  0  0  3  0  0  0  0  0  0
  181.7660  179.0430  141.0660 N   0  0  0  0  0  0  0  0  0  0  0  0
  180.5840  181.1690  136.8440 C   0  0  0  0  0  1  0  0  0  0  0  0
  182.4320  178.8780  138.2140 C   0  0  2  0  0  3  0  0  0  0  0  0
  182.7770  178.0920  140.6190 C   0  0  1  0  0  3  0  0  0  0  0  0
  184.5620  177.9300  138.9790 O   0  0  0  0  0  1  0  0  0  0  0  0
  183.4540  178.6870  139.3730 C   0  0  1  0  0  3  0  0  0  0  0  0
  181.0540  179.3760  138.7310 C   0  0  2  0  0  3  0  0  0  0  0  0
  180.6490  180.7420  138.2700 C   0  0  0  0  0  0  0  0  0  0  0  0
  180.2090  181.4900  139.2330 N   0  0  0  0  0  0  0  0  0  0  0  0
  180.3480  180.8470  140.4700 N   0  0  0  0  0  2  0  0  0  0  0  0
  180.9680  179.6020  140.2070 C   0  0  0  0  0  0  0  0  0  0  0  0
  183.8030  177.8970  141.7250 C   0  0  0  0  0  2  0  0  0  0  0  0
  183.7670  179.0370  142.7360 C   0  0  0  0  0  2  0  0  0  0  0  0
  183.9220  178.8350  145.2830 C   0  0  0  0  0  3  0  0  0  0  0  0
  184.9970  178.5930  146.1240 C   0  0  0  0  0  3  0  0  0  0  0  0
  184.4610  178.7020  144.0140 C   0  0  0  0  0  0  0  0  0  0  0  0
  186.0820  178.3370  145.3660 N   0  0  0  0  0  0  0  0  0  0  0  0
  185.7740  178.4300  144.0830 N   0  0  0  0  0  0  0  0  0  0  0  0
  187.4440  177.6040  147.2860 C   0  0  0  0  0  2  0  0  0  0  0  0
  187.4450  178.2000  145.8830 C   0  0  1  0  0  3  0  0  0  0  0  0
  189.6400  177.0080  145.6250 C   0  0  0  0  0  3  0  0  0  0  0  0
  188.3110  177.3170  144.9810 C   0  0  0  0  0  2  0  0  0  0  0  0
  188.8700  177.6810  147.8280 C   0  0  0  0  0  2  0  0  0  0  0  0
  189.8460  177.1360  146.8960 N   0  0  0  0  0  0  0  0  0  0  0  0
  182.1200  175.3100  138.7170 O   0  0  0  0  0  1  0  0  0  0  0  0
  183.3590  175.3610  138.0800 C   0  0  0  0  0  2  0  0  0  0  0  0
  184.6300  177.0760  135.0490 C   0  0  0  0  0  2  0  0  0  0  0  0
  185.7720  177.7180  135.8130 C   0  0  0  0  0  2  0  0  0  0  0  0
  186.9410  176.7540  135.7940 C   0  0  0  0  0  2  0  0  0  0  0  0
  188.1770  177.4280  135.2210 C   0  0  0  0  0  2  0  0  0  0  0  0
  189.2230  177.6530  136.3060 C   0  0  0  0  0  2  0  0  0  0  0  0
  188.8250  176.9650  137.6160 C   0  0  2  0  0  3  0  0  0  0  0  0
  187.7900  178.3930  140.7350 C   0  0  0  0  0  2  0  0  0  0  0  0
  188.9460  177.6300  141.3190 C   0  0  0  0  0  2  0  0  0  0  0  0
  189.1040  179.2490  138.2990 O   0  0  0  0  0  1  0  0  0  0  0  0
  187.5860  177.9530  139.4210 O   0  0  0  0  0  0  0  0  0  0  0  0
  188.8430  177.9650  138.7860 C   0  0  1  0  0  0  0  0  0  0  0  0
  190.1440  177.4940  139.9840 S   0  0  0  0  0  0  0  0  0  0  0  0
  189.7690  175.7880  137.8730 C   0  0  0  0  0  2  0  0  0  0  0  0
  192.7910  175.8890  135.7620 C   0  0  1  0  0  3  0  0  0  0  0  0
  192.0040  174.7750  135.0320 C   0  0  0  0  0  2  0  0  0  0  0  0
  189.7360  174.0970  135.4820 O   0  0  0  0  0  0  0  0  0  0  0  0
  192.0440  176.3140  136.9610 N   0  0  0  0  0  2  0  0  0  0  0  0
  190.7870  175.7140  136.8300 N   0  0  0  0  0  0  0  0  0  0  0  0
  190.7390  174.8010  135.7630 C   0  0  0  0  0  0  0  0  0  0  0  0
  194.2540  175.5860  136.1340 C   0  0  0  0  0  3  0  0  0  0  0  0
  195.0340  174.9550  134.9960 C   0  0  0  0  0  2  0  0  0  0  0  0
  195.2400  176.4200  135.3330 C   0  0  0  0  0  2  0  0  0  0  0  0
  1 33  1  6  0  0  0
  1  5  1  0  0  0  0
  1  6  1  0  0  0  0
  2  4  1  0  0  0  0
  3  9  1  1  0  0  0
  4  1  1  0  0  0  0
  5  2  1  6  0  0  0
  5  3  1  0  0  0  0
  6  3  1  0  0  0  0
  6 32  1  1  0  0  0
  8 14  1  0  0  0  0
  9 13  1  0  0  0  0
  9 12  1  0  0  0  0
 10  7  1  0  0  0  0
 10 18  1  0  0  0  0
 11 12  1  0  0  0  0
 12 10  1  0  0  0  0
 13 17  1  0  0  0  0
 14 13  1  0  0  0  0
 14 15  2  0  0  0  0
 15 16  1  0  0  0  0
 17 16  1  0  0  0  0
 17  7  2  0  0  0  0
 18 19  1  0  0  0  0
 19 22  1  0  0  0  0
 20 21  2  0  0  0  0
 22 24  2  0  0  0  0
 22 20  1  0  0  0  0
 23 26  1  0  0  0  0
 23 21  1  0  0  0  0
 24 23  1  0  0  0  0
 25 29  1  0  0  0  0
 26 25  1  0  0  0  0
 27 30  2  0  0  0  0
 28 27  1  0  0  0  0
 28 26  1  0  0  0  0
 30 29  1  0  0  0  0
 32 31  1  0  0  0  0
 33 34  1  0  0  0  0
 35 34  1  0  0  0  0
 36 35  1  0  0  0  0
 36 37  1  0  0  0  0
 37 38  1  0  0  0  0
 38 45  1  0  0  0  0
 38 43  1  0  0  0  0
 39 40  1  0  0  0  0
 41 43  1  0  0  0  0
 42 39  1  0  0  0  0
 43 42  1  0  0  0  0
 43 44  1  0  0  0  0
 44 40  1  0  0  0  0
 46 52  1  0  0  0  0
 46 49  1  0  0  0  0
 47 46  1  0  0  0  0
 47 51  1  0  0  0  0
 48 51  2  0  0  0  0
 50 49  1  0  0  0  0
 50 45  1  0  0  0  0
 51 50  1  0  0  0  0
 53 54  1  0  0  0  0
 53 52  1  0  0  0  0
 54 52  1  0  0  0  0
M  END
>  <MODEL>
6

>  <REMARK>
 VINA RESULT:      -6.3      3.206      9.951
  Name = 
  16 active torsions:
  status: ('A' for Active; 'I' for Inactive)
    1  A    between atoms: C_4  and  C_23
    2  A    between atoms: C_6  and  C_19
    3  A    between atoms: C_6  and  C_44
    4  A    between atoms: C_10  and  N_46
    5  A    between atoms: C_12  and  C_20
    6  A    between atoms: C_14  and  C_37
    7  A    between atoms: C_14  and  C_45
    8  A    between atoms: C_16  and  C_32
    9  A    between atoms: C_17  and  C_45
   10  A    between atoms: C_19  and  C_32
   11  A    between atoms: C_24  and  C_53
   12  A    between atoms: C_25  and  C_36
   13  A    between atoms: C_29  and  C_36
   14  A    between atoms: C_29  and  N_42
   15  A    between atoms: C_30  and  C_36
   16  A    between atoms: C_30  and  C_44
                            x       y       z     vdW  Elec       q    Type
                         _______ _______ _______ _____ _____    ______ ____

>  <TORSDO>
F 16

$$$$
=
 OpenBabel10222415323D

 54 62  0  0  1  0  0  0  0  0999 V2000
  184.2540  176.9540  135.9600 C   0  0  1  0  0  0  0  0  0  0  0  0
  182.5110  176.6770  135.0150 C   0  0  0  0  0  2  0  0  0  0  0  0
  182.7560  177.6150  137.3230 C   0  0  1  0  0  3  0  0  0  0  0  0
  183.6740  175.9110  135.2140 O   0  0  0  0  0  0  0  0  0  0  0  0
  183.0470  177.8380  135.8300 C   0  0  1  0  0  3  0  0  0  0  0  0
  184.0810  176.8680  137.4760 C   0  0  1  0  0  3  0  0  0  0  0  0
  182.2600  178.6570  141.0780 N   0  0  0  0  0  0  0  0  0  0  0  0
  180.3440  180.8570  137.1750 C   0  0  0  0  0  1  0  0  0  0  0  0
  182.7200  178.8910  138.1900 C   0  0  2  0  0  3  0  0  0  0  0  0
  183.4050  177.9830  140.4760 C   0  0  1  0  0  3  0  0  0  0  0  0
  185.0520  178.3470  138.7270 O   0  0  0  0  0  1  0  0  0  0  0  0
  183.8470  178.8160  139.2610 C   0  0  1  0  0  3  0  0  0  0  0  0
  181.3150  179.0410  138.8350 C   0  0  2  0  0  3  0  0  0  0  0  0
  180.6060  180.3270  138.5420 C   0  0  0  0  0  0  0  0  0  0  0  0
  180.1000  180.8770  139.6020 N   0  0  0  0  0  0  0  0  0  0  0  0
  180.4640  180.1700  140.7550 N   0  0  0  0  0  2  0  0  0  0  0  0
  181.3010  179.1110  140.3290 C   0  0  0  0  0  0  0  0  0  0  0  0
  184.5330  177.9100  141.4940 C   0  0  0  0  0  2  0  0  0  0  0  0
  184.4240  179.0160  142.5380 C   0  0  0  0  0  2  0  0  0  0  0  0
  183.8900  178.6760  145.0170 C   0  0  0  0  0  3  0  0  0  0  0  0
  184.6790  178.2690  146.0820 C   0  0  0  0  0  3  0  0  0  0  0  0
  184.7250  178.5410  143.9210 C   0  0  0  0  0  0  0  0  0  0  0  0
  185.8930  177.9250  145.6070 N   0  0  0  0  0  0  0  0  0  0  0  0
  185.9400  178.1150  144.2980 N   0  0  0  0  0  0  0  0  0  0  0  0
  188.3360  177.5960  145.6180 C   0  0  0  0  0  2  0  0  0  0  0  0
  187.0530  177.6050  146.4410 C   0  0  1  0  0  3  0  0  0  0  0  0
  188.5290  178.3950  148.3120 C   0  0  0  0  0  3  0  0  0  0  0  0
  187.2210  178.6030  147.5900 C   0  0  0  0  0  2  0  0  0  0  0  0
  189.4580  177.0620  146.5070 C   0  0  0  0  0  2  0  0  0  0  0  0
  189.5190  177.7470  147.7900 N   0  0  0  0  0  0  0  0  0  0  0  0
  184.9410  174.6480  137.5940 O   0  0  0  0  0  1  0  0  0  0  0  0
  183.8560  175.4420  137.9600 C   0  0  0  0  0  2  0  0  0  0  0  0
  185.5660  177.4660  135.3680 C   0  0  0  0  0  2  0  0  0  0  0  0
  186.5500  176.3740  134.9940 C   0  0  0  0  0  2  0  0  0  0  0  0
  187.8520  176.6570  135.7170 C   0  0  0  0  0  2  0  0  0  0  0  0
  188.4420  175.3720  136.2740 C   0  0  0  0  0  2  0  0  0  0  0  0
  189.3970  175.6690  137.4240 C   0  0  0  0  0  2  0  0  0  0  0  0
  190.5150  176.6220  136.9890 C   0  0  2  0  0  3  0  0  0  0  0  0
  193.9030  175.4650  136.8430 C   0  0  0  0  0  2  0  0  0  0  0  0
  193.3790  174.2440  137.5440 C   0  0  0  0  0  2  0  0  0  0  0  0
  191.6720  175.8430  135.0350 O   0  0  0  0  0  1  0  0  0  0  0  0
  192.9080  176.4510  136.8650 O   0  0  0  0  0  0  0  0  0  0  0  0
  191.7160  175.8370  136.4320 C   0  0  1  0  0  0  0  0  0  0  0  0
  191.6600  174.1090  137.0340 S   0  0  0  0  0  0  0  0  0  0  0  0
  190.9210  177.4970  138.1770 C   0  0  0  0  0  2  0  0  0  0  0  0
  189.0700  176.8080  141.2910 C   0  0  1  0  0  3  0  0  0  0  0  0
  188.2280  177.9860  140.7470 C   0  0  0  0  0  2  0  0  0  0  0  0
  188.4610  179.0320  138.5880 O   0  0  0  0  0  0  0  0  0  0  0  0
  190.2220  176.5730  140.4010 N   0  0  0  0  0  2  0  0  0  0  0  0
  189.9620  177.3510  139.2670 N   0  0  0  0  0  0  0  0  0  0  0  0
  188.8550  178.1990  139.4430 C   0  0  0  0  0  0  0  0  0  0  0  0
  189.5450  176.9020  142.7520 C   0  0  0  0  0  3  0  0  0  0  0  0
  190.7890  176.0760  143.0220 C   0  0  0  0  0  2  0  0  0  0  0  0
  190.8980  177.5830  142.8780 C   0  0  0  0  0  2  0  0  0  0  0  0
  1 33  1  6  0  0  0
  1  6  1  0  0  0  0
  2  4  1  0  0  0  0
  3  6  1  0  0  0  0
  3  9  1  1  0  0  0
  4  1  1  0  0  0  0
  5  2  1  6  0  0  0
  5  1  1  0  0  0  0
  5  3  1  0  0  0  0
  6 32  1  6  0  0  0
  8 14  1  0  0  0  0
  9 13  1  0  0  0  0
  9 12  1  0  0  0  0
 10  7  1  0  0  0  0
 10 18  1  0  0  0  0
 11 12  1  0  0  0  0
 12 10  1  0  0  0  0
 13 17  1  0  0  0  0
 14 13  1  0  0  0  0
 14 15  2  0  0  0  0
 15 16  1  0  0  0  0
 17 16  1  0  0  0  0
 17  7  2  0  0  0  0
 18 19  1  0  0  0  0
 19 22  1  0  0  0  0
 20 21  2  0  0  0  0
 22 24  2  0  0  0  0
 22 20  1  0  0  0  0
 23 21  1  0  0  0  0
 23 26  1  0  0  0  0
 24 23  1  0  0  0  0
 25 26  1  0  0  0  0
 25 29  1  0  0  0  0
 26 28  1  0  0  0  0
 28 27  1  0  0  0  0
 29 30  1  0  0  0  0
 30 27  2  0  0  0  0
 31 32  1  0  0  0  0
 34 33  1  0  0  0  0
 34 35  1  0  0  0  0
 35 36  1  0  0  0  0
 36 37  1  0  0  0  0
 38 37  1  0  0  0  0
 38 45  1  0  0  0  0
 39 42  1  0  0  0  0
 39 40  1  0  0  0  0
 41 43  1  0  0  0  0
 43 42  1  0  0  0  0
 43 38  1  0  0  0  0
 43 44  1  0  0  0  0
 44 40  1  0  0  0  0
 45 50  1  0  0  0  0
 46 52  1  0  0  0  0
 47 46  1  0  0  0  0
 48 51  2  0  0  0  0
 49 46  1  0  0  0  0
 50 51  1  0  0  0  0
 50 49  1  0  0  0  0
 51 47  1  0  0  0  0
 52 54  1  0  0  0  0
 52 53  1  0  0  0  0
 54 53  1  0  0  0  0
M  END
>  <MODEL>
7

>  <REMARK>
 VINA RESULT:      -6.3      3.759      9.582
  Name = 
  16 active torsions:
  status: ('A' for Active; 'I' for Inactive)
    1  A    between atoms: C_4  and  C_23
    2  A    between atoms: C_6  and  C_19
    3  A    between atoms: C_6  and  C_44
    4  A    between atoms: C_10  and  N_46
    5  A    between atoms: C_12  and  C_20
    6  A    between atoms: C_14  and  C_37
    7  A    between atoms: C_14  and  C_45
    8  A    between atoms: C_16  and  C_32
    9  A    between atoms: C_17  and  C_45
   10  A    between atoms: C_19  and  C_32
   11  A    between atoms: C_24  and  C_53
   12  A    between atoms: C_25  and  C_36
   13  A    between atoms: C_29  and  C_36
   14  A    between atoms: C_29  and  N_42
   15  A    between atoms: C_30  and  C_36
   16  A    between atoms: C_30  and  C_44
                            x       y       z     vdW  Elec       q    Type
                         _______ _______ _______ _____ _____    ______ ____

>  <TORSDO>
F 16

$$$$
=
 OpenBabel10222415323D

 54 62  0  0  1  0  0  0  0  0999 V2000
  187.7120  177.4900  136.6420 C   0  0  1  0  0  0  0  0  0  0  0  0
  189.1360  177.8660  135.2870 C   0  0  0  0  0  2  0  0  0  0  0  0
  189.0860  175.8680  136.7950 C   0  0  1  0  0  3  0  0  0  0  0  0
  188.4730  178.6160  136.2740 O   0  0  0  0  0  0  0  0  0  0  0  0
  188.3830  176.5980  135.6380 C   0  0  1  0  0  3  0  0  0  0  0  0
  188.2610  176.6640  137.8060 C   0  0  1  0  0  3  0  0  0  0  0  0
  189.5700  172.5950  134.6780 N   0  0  0  0  0  0  0  0  0  0  0  0
  185.6140  173.8440  137.2340 C   0  0  0  0  0  1  0  0  0  0  0  0
  188.8020  174.3550  136.8950 C   0  0  2  0  0  3  0  0  0  0  0  0
  190.5910  173.3880  135.3530 C   0  0  1  0  0  3  0  0  0  0  0  0
  191.1500  174.1670  137.5850 O   0  0  0  0  0  1  0  0  0  0  0  0
  190.1460  173.5730  136.8130 C   0  0  1  0  0  3  0  0  0  0  0  0
  187.8160  173.9360  135.7710 C   0  0  2  0  0  3  0  0  0  0  0  0
  186.5570  173.2690  136.2340 C   0  0  0  0  0  0  0  0  0  0  0  0
  186.2800  172.1940  135.5650 N   0  0  0  0  0  0  0  0  0  0  0  0
  187.3080  171.8850  134.6660 N   0  0  0  0  0  2  0  0  0  0  0  0
  188.3120  172.8660  134.8510 C   0  0  0  0  0  0  0  0  0  0  0  0
  191.9160  172.6410  135.3040 C   0  0  0  0  0  2  0  0  0  0  0  0
  193.0430  173.5240  134.7800 C   0  0  0  0  0  2  0  0  0  0  0  0
  195.0550  172.0050  135.2170 C   0  0  0  0  0  3  0  0  0  0  0  0
  196.1070  172.1050  136.1140 C   0  0  0  0  0  3  0  0  0  0  0  0
  194.3670  173.1950  135.3840 C   0  0  0  0  0  0  0  0  0  0  0  0
  196.0130  173.2890  136.7510 N   0  0  0  0  0  0  0  0  0  0  0  0
  194.9430  173.9470  136.3360 N   0  0  0  0  0  0  0  0  0  0  0  0
  197.9360  174.6590  137.4620 C   0  0  0  0  0  2  0  0  0  0  0  0
  196.8420  173.6890  137.8910 C   0  0  1  0  0  3  0  0  0  0  0  0
  196.8940  174.9490  140.0620 C   0  0  0  0  0  3  0  0  0  0  0  0
  196.0110  174.3520  138.9940 C   0  0  0  0  0  2  0  0  0  0  0  0
  198.8700  174.8680  138.6530 C   0  0  0  0  0  2  0  0  0  0  0  0
  198.1450  175.2090  139.8690 N   0  0  0  0  0  0  0  0  0  0  0  0
  189.4890  176.7150  139.8490 O   0  0  0  0  0  1  0  0  0  0  0  0
  189.1580  177.4770  138.7300 C   0  0  0  0  0  2  0  0  0  0  0  0
  186.2060  177.7010  136.4980 C   0  0  0  0  0  2  0  0  0  0  0  0
  185.3820  177.1010  137.6210 C   0  0  0  0  0  2  0  0  0  0  0  0
  183.9870  177.6890  137.5360 C   0  0  0  0  0  2  0  0  0  0  0  0
  183.8090  178.7890  138.5700 C   0  0  0  0  0  2  0  0  0  0  0  0
  182.3310  179.0680  138.8140 C   0  0  0  0  0  2  0  0  0  0  0  0
  181.7630  178.1530  139.9040 C   0  0  2  0  0  3  0  0  0  0  0  0
  180.0930  175.0820  139.1170 C   0  0  0  0  0  2  0  0  0  0  0  0
  179.3050  175.3410  140.3710 C   0  0  0  0  0  2  0  0  0  0  0  0
  180.1600  177.8120  138.1500 O   0  0  0  0  0  1  0  0  0  0  0  0
  181.1700  175.9770  139.0770 O   0  0  0  0  0  0  0  0  0  0  0  0
  180.6460  177.2590  139.3380 C   0  0  1  0  0  0  0  0  0  0  0  0
  179.2810  177.1310  140.5510 S   0  0  0  0  0  0  0  0  0  0  0  0
  181.2580  179.0100  141.0670 C   0  0  0  0  0  2  0  0  0  0  0  0
  183.7980  178.3350  143.6550 C   0  0  1  0  0  3  0  0  0  0  0  0
  182.6790  178.9290  144.5420 C   0  0  0  0  0  2  0  0  0  0  0  0
  180.4410  179.4830  143.8390 O   0  0  0  0  0  0  0  0  0  0  0  0
  183.3870  178.3930  142.2390 N   0  0  0  0  0  2  0  0  0  0  0  0
  182.0310  178.7350  142.2740 N   0  0  0  0  0  0  0  0  0  0  0  0
  181.6010  179.0850  143.5650 C   0  0  0  0  0  0  0  0  0  0  0  0
  185.2100  178.9280  143.8170 C   0  0  0  0  0  3  0  0  0  0  0  0
  185.5830  179.1750  145.2660 C   0  0  0  0  0  2  0  0  0  0  0  0
  186.1570  177.9780  144.5310 C   0  0  0  0  0  2  0  0  0  0  0  0
  1 33  1  6  0  0  0
  1  6  1  0  0  0  0
  2  4  1  0  0  0  0
  3  9  1  6  0  0  0
  3  6  1  0  0  0  0
  4  1  1  0  0  0  0
  5  2  1  6  0  0  0
  5  1  1  0  0  0  0
  5  3  1  0  0  0  0
  6 32  1  1  0  0  0
  7 17  2  0  0  0  0
  7 10  1  0  0  0  0
 10 12  1  0  0  0  0
 12  9  1  0  0  0  0
 12 11  1  0  0  0  0
 13 14  1  0  0  0  0
 13  9  1  0  0  0  0
 14  8  1  0  0  0  0
 15 14  2  0  0  0  0
 16 17  1  0  0  0  0
 16 15  1  0  0  0  0
 17 13  1  0  0  0  0
 18 10  1  0  0  0  0
 19 18  1  0  0  0  0
 19 22  1  0  0  0  0
 20 22  1  0  0  0  0
 20 21  2  0  0  0  0
 21 23  1  0  0  0  0
 22 24  2  0  0  0  0
 23 26  1  0  0  0  0
 24 23  1  0  0  0  0
 25 26  1  0  0  0  0
 25 29  1  0  0  0  0
 26 28  1  0  0  0  0
 28 27  1  0  0  0  0
 29 30  1  0  0  0  0
 30 27  2  0  0  0  0
 32 31  1  0  0  0  0
 33 34  1  0  0  0  0
 35 34  1  0  0  0  0
 35 36  1  0  0  0  0
 36 37  1  0  0  0  0
 37 38  1  0  0  0  0
 38 45  1  0  0  0  0
 39 40  1  0  0  0  0
 40 44  1  0  0  0  0
 41 43  1  0  0  0  0
 42 39  1  0  0  0  0
 42 43  1  0  0  0  0
 43 38  1  0  0  0  0
 43 44  1  0  0  0  0
 45 50  1  0  0  0  0
 46 52  1  0  0  0  0
 46 47  1  0  0  0  0
 49 50  1  0  0  0  0
 49 46  1  0  0  0  0
 50 51  1  0  0  0  0
 51 48  2  0  0  0  0
 51 47  1  0  0  0  0
 52 54  1  0  0  0  0
 52 53  1  0  0  0  0
 54 53  1  0  0  0  0
M  END
>  <MODEL>
8

>  <REMARK>
 VINA RESULT:      -6.2      1.370      1.940
  Name = 
  16 active torsions:
  status: ('A' for Active; 'I' for Inactive)
    1  A    between atoms: C_4  and  C_23
    2  A    between atoms: C_6  and  C_19
    3  A    between atoms: C_6  and  C_44
    4  A    between atoms: C_10  and  N_46
    5  A    between atoms: C_12  and  C_20
    6  A    between atoms: C_14  and  C_37
    7  A    between atoms: C_14  and  C_45
    8  A    between atoms: C_16  and  C_32
    9  A    between atoms: C_17  and  C_45
   10  A    between atoms: C_19  and  C_32
   11  A    between atoms: C_24  and  C_53
   12  A    between atoms: C_25  and  C_36
   13  A    between atoms: C_29  and  C_36
   14  A    between atoms: C_29  and  N_42
   15  A    between atoms: C_30  and  C_36
   16  A    between atoms: C_30  and  C_44
                            x       y       z     vdW  Elec       q    Type
                         _______ _______ _______ _____ _____    ______ ____

>  <TORSDO>
F 16

$$$$
=
 OpenBabel10222415323D

 54 62  0  0  1  0  0  0  0  0999 V2000
  190.0890  178.0700  141.9230 C   0  0  1  0  0  0  0  0  0  0  0  0
  190.9530  176.4320  141.1660 C   0  0  0  0  0  2  0  0  0  0  0  0
  190.4990  176.8190  143.5970 C   0  0  1  0  0  3  0  0  0  0  0  0
  191.1070  177.8180  140.9840 O   0  0  0  0  0  0  0  0  0  0  0  0
  189.8690  176.6130  142.2090 C   0  0  1  0  0  3  0  0  0  0  0  0
  190.5510  178.3280  143.3570 C   0  0  1  0  0  3  0  0  0  0  0  0
  187.4390  178.3000  145.5640 N   0  0  0  0  0  0  0  0  0  0  0  0
  191.3830  176.1860  147.4910 C   0  0  0  0  0  1  0  0  0  0  0  0
  189.5950  176.4650  144.7960 C   0  0  2  0  0  3  0  0  0  0  0  0
  187.4540  177.7310  144.2210 C   0  0  1  0  0  3  0  0  0  0  0  0
  188.0160  175.6480  143.1040 O   0  0  0  0  0  1  0  0  0  0  0  0
  188.1200  176.3480  144.3110 C   0  0  1  0  0  3  0  0  0  0  0  0
  189.7580  177.5410  145.9040 C   0  0  2  0  0  3  0  0  0  0  0  0
  190.1770  177.0250  147.2460 C   0  0  0  0  0  0  0  0  0  0  0  0
  189.4640  177.5060  148.2170 N   0  0  0  0  0  0  0  0  0  0  0  0
  188.4130  178.2890  147.7260 N   0  0  0  0  0  2  0  0  0  0  0  0
  188.4980  178.2350  146.3130 C   0  0  0  0  0  0  0  0  0  0  0  0
  186.0230  177.5870  143.7240 C   0  0  0  0  0  2  0  0  0  0  0  0
  185.0650  178.4920  144.4910 C   0  0  0  0  0  2  0  0  0  0  0  0
  182.5600  178.9790  144.3050 C   0  0  0  0  0  3  0  0  0  0  0  0
  181.7040  179.0030  143.2140 C   0  0  0  0  0  3  0  0  0  0  0  0
  183.8070  178.7750  143.7390 C   0  0  0  0  0  0  0  0  0  0  0  0
  182.4340  178.8220  142.0960 N   0  0  0  0  0  0  0  0  0  0  0  0
  183.7090  178.6530  142.4060 N   0  0  0  0  0  0  0  0  0  0  0  0
  182.2190  177.2340  140.2230 C   0  0  0  0  0  2  0  0  0  0  0  0
  181.8730  178.6180  140.7590 C   0  0  1  0  0  3  0  0  0  0  0  0
  179.7610  178.3550  139.4270 C   0  0  0  0  0  3  0  0  0  0  0  0
  180.3500  178.7740  140.7510 C   0  0  0  0  0  2  0  0  0  0  0  0
  181.7750  177.1740  138.7620 C   0  0  0  0  0  2  0  0  0  0  0  0
  180.3980  177.6090  138.5850 N   0  0  0  0  0  0  0  0  0  0  0  0
  192.1450  179.6060  144.5860 O   0  0  0  0  0  1  0  0  0  0  0  0
  191.9810  178.8480  143.4280 C   0  0  0  0  0  2  0  0  0  0  0  0
  188.9130  178.8580  141.3460 C   0  0  0  0  0  2  0  0  0  0  0  0
  187.7980  177.9940  140.7870 C   0  0  0  0  0  2  0  0  0  0  0  0
  187.6960  178.2750  139.3010 C   0  0  0  0  0  2  0  0  0  0  0  0
  189.0580  178.6390  138.7320 C   0  0  0  0  0  2  0  0  0  0  0  0
  189.0290  178.6270  137.2090 C   0  0  0  0  0  2  0  0  0  0  0  0
  189.3450  177.2340  136.6550 C   0  0  2  0  0  3  0  0  0  0  0  0
  186.1750  175.5660  136.7390 C   0  0  0  0  0  2  0  0  0  0  0  0
  185.5940  176.9400  136.5520 C   0  0  0  0  0  2  0  0  0  0  0  0
  188.4120  175.8600  134.9220 O   0  0  0  0  0  1  0  0  0  0  0  0
  187.5380  175.6970  137.0330 O   0  0  0  0  0  0  0  0  0  0  0  0
  188.0800  176.5770  136.0750 C   0  0  1  0  0  0  0  0  0  0  0  0
  186.8490  177.8650  135.6550 S   0  0  0  0  0  0  0  0  0  0  0  0
  189.9600  176.3790  137.7650 C   0  0  0  0  0  2  0  0  0  0  0  0
  193.1690  174.9040  136.7040 C   0  0  1  0  0  3  0  0  0  0  0  0
  192.3090  173.6200  136.7830 C   0  0  0  0  0  2  0  0  0  0  0  0
  189.9320  173.5140  137.1640 O   0  0  0  0  0  0  0  0  0  0  0  0
  192.3710  176.0600  137.1540 N   0  0  0  0  0  2  0  0  0  0  0  0
  191.0600  175.5770  137.2400 N   0  0  0  0  0  0  0  0  0  0  0  0
  190.9910  174.1840  137.0720 C   0  0  0  0  0  0  0  0  0  0  0  0
  194.5250  174.8860  137.4320 C   0  0  0  0  0  3  0  0  0  0  0  0
  195.2880  173.5900  137.2270 C   0  0  0  0  0  2  0  0  0  0  0  0
  195.6990  174.8380  136.4670 C   0  0  0  0  0  2  0  0  0  0  0  0
  1 33  1  6  0  0  0
  1  5  1  0  0  0  0
  1  6  1  0  0  0  0
  3  9  1  1  0  0  0
  4  2  1  0  0  0  0
  4  1  1  0  0  0  0
  5  2  1  6  0  0  0
  5  3  1  0  0  0  0
  6 32  1  6  0  0  0
  6  3  1  0  0  0  0
  7 17  2  0  0  0  0
  9 13  1  0  0  0  0
 10 12  1  0  0  0  0
 10  7  1  0  0  0  0
 11 12  1  0  0  0  0
 12  9  1  0  0  0  0
 13 17  1  0  0  0  0
 13 14  1  0  0  0  0
 14  8  1  0  0  0  0
 14 15  2  0  0  0  0
 16 15  1  0  0  0  0
 17 16  1  0  0  0  0
 18 10  1  0  0  0  0
 18 19  1  0  0  0  0
 21 20  2  0  0  0  0
 22 20  1  0  0  0  0
 22 19  1  0  0  0  0
 23 24  1  0  0  0  0
 23 21  1  0  0  0  0
 24 22  2  0  0  0  0
 25 26  1  0  0  0  0
 26 23  1  0  0  0  0
 27 28  1  0  0  0  0
 28 26  1  0  0  0  0
 29 25  1  0  0  0  0
 30 29  1  0  0  0  0
 30 27  2  0  0  0  0
 32 31  1  0  0  0  0
 34 33  1  0  0  0  0
 35 34  1  0  0  0  0
 36 35  1  0  0  0  0
 37 36  1  0  0  0  0
 38 37  1  0  0  0  0
 38 45  1  0  0  0  0
 39 42  1  0  0  0  0
 40 39  1  0  0  0  0
 41 43  1  0  0  0  0
 43 38  1  0  0  0  0
 43 42  1  0  0  0  0
 44 43  1  0  0  0  0
 44 40  1  0  0  0  0
 46 47  1  0  0  0  0
 46 49  1  0  0  0  0
 46 52  1  0  0  0  0
 47 51  1  0  0  0  0
 49 50  1  0  0  0  0
 50 45  1  0  0  0  0
 51 48  2  0  0  0  0
 51 50  1  0  0  0  0
 53 52  1  0  0  0  0
 54 53  1  0  0  0  0
 54 52  1  0  0  0  0
M  END
>  <MODEL>
9

>  <REMARK>
 VINA RESULT:      -6.1      3.116     10.960
  Name = 
  16 active torsions:
  status: ('A' for Active; 'I' for Inactive)
    1  A    between atoms: C_4  and  C_23
    2  A    between atoms: C_6  and  C_19
    3  A    between atoms: C_6  and  C_44
    4  A    between atoms: C_10  and  N_46
    5  A    between atoms: C_12  and  C_20
    6  A    between atoms: C_14  and  C_37
    7  A    between atoms: C_14  and  C_45
    8  A    between atoms: C_16  and  C_32
    9  A    between atoms: C_17  and  C_45
   10  A    between atoms: C_19  and  C_32
   11  A    between atoms: C_24  and  C_53
   12  A    between atoms: C_25  and  C_36
   13  A    between atoms: C_29  and  C_36
   14  A    between atoms: C_29  and  N_42
   15  A    between atoms: C_30  and  C_36
   16  A    between atoms: C_30  and  C_44
                            x       y       z     vdW  Elec       q    Type
                         _______ _______ _______ _____ _____    ______ ____

>  <TORSDO>
F 16

$$$$
