=
 OpenBabel10222421093D

 29 31  0  0  1  0  0  0  0  0999 V2000
  191.5440  176.7600  146.2830 C   0  0  0  0  0  0  0  0  0  0  0  0
  191.2640  175.6600  143.6910 C   0  0  0  0  0  3  0  0  0  0  0  0
  192.6270  173.8790  144.3230 F   0  0  0  0  0  0  0  0  0  0  0  0
  191.9610  175.0150  144.6350 C   0  0  0  0  0  0  0  0  0  0  0  0
  190.4460  176.8990  144.0170 C   0  0  2  0  0  0  0  0  0  0  0  0
  191.9920  175.5310  146.0150 C   0  0  0  0  0  3  0  0  0  0  0  0
  191.1240  177.6730  145.1630 C   0  0  0  0  0  2  0  0  0  0  0  0
  185.0700  179.2170  145.3320 C   0  0  0  0  0  3  0  0  0  0  0  0
  187.0320  177.8400  145.0290 C   0  0  0  0  0  0  0  0  0  0  0  0
  185.4500  178.0960  143.2130 C   0  0  0  0  0  3  0  0  0  0  0  0
  188.2960  175.8340  143.5570 O   0  0  0  0  0  0  0  0  0  0  0  0
  187.4300  176.6890  142.9580 O   0  0  0  0  0  0  0  0  0  0  0  0
  188.8020  177.4840  146.5800 O   0  0  0  0  0  0  0  0  0  0  0  0
  183.4960  179.4790  143.5200 O   0  0  0  0  0  1  0  0  0  0  0  0
  184.6700  178.9310  144.0210 C   0  0  0  0  0  0  0  0  0  0  0  0
  188.3350  177.3090  145.4230 C   0  0  0  0  0  0  0  0  0  0  0  0
  186.6250  177.5410  143.7260 C   0  0  0  0  0  0  0  0  0  0  0  0
  186.2580  178.6770  145.8390 C   0  0  0  0  0  3  0  0  0  0  0  0
  189.0570  176.5800  144.4130 N   0  0  0  0  0  0  0  0  0  0  0  0
  191.5130  177.6210  148.7280 N   0  0  0  0  0  0  0  0  0  0  0  0
  191.5250  177.2360  147.6370 C   0  0  0  0  0  0  0  0  0  0  0  0
  190.4350  177.8200  142.7930 C   0  0  0  0  0  2  0  0  0  0  0  0
  192.0570  177.7280  140.9740 N   0  0  0  0  0  1  0  0  0  0  0  0
  190.8510  177.1140  141.5060 C   0  0  2  0  0  3  0  0  0  0  0  0
  189.7300  177.2300  140.4890 C   0  0  0  0  0  2  0  0  0  0  0  0
  190.1280  176.6240  139.2270 N   0  0  0  0  0  2  0  0  0  0  0  0
  189.4550  177.3480  138.1590 C   0  0  0  0  0  2  0  0  0  0  0  0
  189.0200  178.7190  138.6460 C   0  0  0  0  0  2  0  0  0  0  0  0
  189.0040  179.6180  137.5810 O   0  0  0  0  0  1  0  0  0  0  0  0
  1 21  1  0  0  0  0
  2  5  1  0  0  0  0
  2  4  2  0  0  0  0
  3  4  1  0  0  0  0
  4  6  1  0  0  0  0
  5 22  1  6  0  0  0
  5 19  1  0  0  0  0
  5  7  1  0  0  0  0
  6  1  2  0  0  0  0
  7  1  1  0  0  0  0
  8 18  1  0  0  0  0
  9 16  1  0  0  0  0
  9 18  2  0  0  0  0
 10 17  2  0  0  0  0
 10 15  1  0  0  0  0
 11 19  1  0  0  0  0
 12 11  1  0  0  0  0
 12 17  1  0  0  0  0
 14 15  1  0  0  0  0
 15  8  2  0  0  0  0
 16 13  2  0  0  0  0
 17  9  1  0  0  0  0
 19 16  1  0  0  0  0
 21 20  3  0  0  0  0
 24 23  1  6  0  0  0
 24 22  1  0  0  0  0
 25 24  1  0  0  0  0
 26 25  1  0  0  0  0
 27 28  1  0  0  0  0
 27 26  1  0  0  0  0
 29 28  1  0  0  0  0
M  END
>  <MODEL>
1

>  <REMARK>
 VINA RESULT:      -7.4      0.000      0.000
  Name = 
  8 active torsions:
  status: ('A' for Active; 'I' for Inactive)
    1  A    between atoms: C_1  and  C_16
    2  A    between atoms: N_9  and  C_27
    3  A    between atoms: N_9  and  C_29
    4  A    between atoms: C_15  and  C_20
    5  A    between atoms: C_15  and  N_24
    6  A    between atoms: C_20  and  C_25
    7  A    between atoms: C_22  and  C_29
    8  A    between atoms: C_25  and  C_27
                            x       y       z     vdW  Elec       q    Type
                         _______ _______ _______ _____ _____    ______ ____

>  <TORSDO>
F 8

$$$$
=
 OpenBabel10222421093D

 29 31  0  0  1  0  0  0  0  0999 V2000
  191.0960  176.4810  144.6830 C   0  0  0  0  0  0  0  0  0  0  0  0
  189.4140  178.7380  144.3900 C   0  0  0  0  0  3  0  0  0  0  0  0
  191.3010  180.0880  144.1710 F   0  0  0  0  0  0  0  0  0  0  0  0
  190.7440  178.8610  144.2990 C   0  0  0  0  0  0  0  0  0  0  0  0
  188.7480  177.3740  144.4640 C   0  0  2  0  0  0  0  0  0  0  0  0
  191.6030  177.6630  144.3240 C   0  0  0  0  0  3  0  0  0  0  0  0
  189.6810  176.3860  145.1880 C   0  0  0  0  0  2  0  0  0  0  0  0
  189.3190  178.1920  138.5470 C   0  0  0  0  0  3  0  0  0  0  0  0
  188.7070  177.5130  140.7830 C   0  0  0  0  0  0  0  0  0  0  0  0
  190.6030  176.4770  139.6890 C   0  0  0  0  0  3  0  0  0  0  0  0
  188.9060  175.5930  142.7980 O   0  0  0  0  0  0  0  0  0  0  0  0
  189.9330  175.7990  141.9380 O   0  0  0  0  0  0  0  0  0  0  0  0
  186.9740  178.4140  142.1430 O   0  0  0  0  0  0  0  0  0  0  0  0
  191.2140  177.1650  137.4570 O   0  0  0  0  0  1  0  0  0  0  0  0
  190.3810  177.2770  138.5630 C   0  0  0  0  0  0  0  0  0  0  0  0
  187.9600  177.6370  142.0330 C   0  0  0  0  0  0  0  0  0  0  0  0
  189.7560  176.5890  140.7930 C   0  0  0  0  0  0  0  0  0  0  0  0
  188.4820  178.3180  139.6610 C   0  0  0  0  0  3  0  0  0  0  0  0
  188.4160  176.8260  143.1310 N   0  0  0  0  0  0  0  0  0  0  0  0
  192.5890  174.3620  144.6290 N   0  0  0  0  0  0  0  0  0  0  0  0
  191.9230  175.3080  144.6520 C   0  0  0  0  0  0  0  0  0  0  0  0
  187.4730  177.4920  145.3050 C   0  0  0  0  0  2  0  0  0  0  0  0
  188.2110  177.0710  147.5910 N   0  0  0  0  0  1  0  0  0  0  0  0
  187.7170  178.0950  146.6850 C   0  0  2  0  0  3  0  0  0  0  0  0
  186.4120  178.6600  147.2180 C   0  0  0  0  0  2  0  0  0  0  0  0
  185.6640  179.3000  146.1460 N   0  0  0  0  0  2  0  0  0  0  0  0
  184.3560  178.6650  146.0830 C   0  0  0  0  0  2  0  0  0  0  0  0
  183.6220  179.0970  144.8250 C   0  0  0  0  0  2  0  0  0  0  0  0
  184.0870  178.3690  143.7300 O   0  0  0  0  0  1  0  0  0  0  0  0
  1  7  1  0  0  0  0
  2  5  1  0  0  0  0
  3  4  1  0  0  0  0
  4  6  1  0  0  0  0
  4  2  2  0  0  0  0
  5  7  1  0  0  0  0
  5 22  1  1  0  0  0
  6  1  2  0  0  0  0
  8 15  2  0  0  0  0
  8 18  1  0  0  0  0
  9 17  1  0  0  0  0
  9 16  1  0  0  0  0
 10 17  2  0  0  0  0
 11 19  1  0  0  0  0
 12 11  1  0  0  0  0
 14 15  1  0  0  0  0
 15 10  1  0  0  0  0
 16 13  2  0  0  0  0
 16 19  1  0  0  0  0
 17 12  1  0  0  0  0
 18  9  2  0  0  0  0
 19  5  1  0  0  0  0
 20 21  3  0  0  0  0
 21  1  1  0  0  0  0
 22 24  1  0  0  0  0
 24 25  1  0  0  0  0
 24 23  1  1  0  0  0
 26 25  1  0  0  0  0
 27 26  1  0  0  0  0
 28 27  1  0  0  0  0
 29 28  1  0  0  0  0
M  END
>  <MODEL>
2

>  <REMARK>
 VINA RESULT:      -7.4      2.408      5.871
  Name = 
  8 active torsions:
  status: ('A' for Active; 'I' for Inactive)
    1  A    between atoms: C_1  and  C_16
    2  A    between atoms: N_9  and  C_27
    3  A    between atoms: N_9  and  C_29
    4  A    between atoms: C_15  and  C_20
    5  A    between atoms: C_15  and  N_24
    6  A    between atoms: C_20  and  C_25
    7  A    between atoms: C_22  and  C_29
    8  A    between atoms: C_25  and  C_27
                            x       y       z     vdW  Elec       q    Type
                         _______ _______ _______ _____ _____    ______ ____

>  <TORSDO>
F 8

$$$$
=
 OpenBabel10222421093D

 29 31  0  0  1  0  0  0  0  0999 V2000
  191.7270  177.6500  142.2880 C   0  0  0  0  0  0  0  0  0  0  0  0
  190.5160  178.3270  144.7560 C   0  0  0  0  0  3  0  0  0  0  0  0
  190.9380  180.5770  144.3200 F   0  0  0  0  0  0  0  0  0  0  0  0
  190.9650  179.2810  143.9310 C   0  0  0  0  0  0  0  0  0  0  0  0
  190.4650  176.8700  144.3270 C   0  0  2  0  0  0  0  0  0  0  0  0
  191.4740  178.9260  142.5940 C   0  0  0  0  0  3  0  0  0  0  0  0
  191.6140  176.5840  143.3440 C   0  0  0  0  0  2  0  0  0  0  0  0
  185.1240  178.9330  142.5330 C   0  0  0  0  0  3  0  0  0  0  0  0
  187.0430  177.6210  143.1900 C   0  0  0  0  0  0  0  0  0  0  0  0
  186.8660  178.4380  140.9170 C   0  0  0  0  0  3  0  0  0  0  0  0
  189.2150  176.0620  142.3900 O   0  0  0  0  0  0  0  0  0  0  0  0
  188.7750  177.0830  141.6140 O   0  0  0  0  0  0  0  0  0  0  0  0
  187.5420  176.7760  145.3590 O   0  0  0  0  0  0  0  0  0  0  0  0
  184.9500  179.7550  140.2690 O   0  0  0  0  0  1  0  0  0  0  0  0
  185.6450  179.0430  141.2380 C   0  0  0  0  0  0  0  0  0  0  0  0
  187.9020  176.9510  144.1640 C   0  0  0  0  0  0  0  0  0  0  0  0
  187.5560  177.7170  141.8940 C   0  0  0  0  0  0  0  0  0  0  0  0
  185.8250  178.2270  143.5170 C   0  0  0  0  0  3  0  0  0  0  0  0
  189.1840  176.5070  143.6820 N   0  0  0  0  0  0  0  0  0  0  0  0
  192.5240  177.0240  139.9030 N   0  0  0  0  0  0  0  0  0  0  0  0
  192.1690  177.3040  140.9680 C   0  0  0  0  0  0  0  0  0  0  0  0
  190.6910  175.9850  145.5580 C   0  0  0  0  0  2  0  0  0  0  0  0
  192.0900  176.2730  147.5340 N   0  0  0  0  0  1  0  0  0  0  0  0
  190.9210  176.7840  146.8370 C   0  0  2  0  0  3  0  0  0  0  0  0
  189.7000  176.6550  147.7310 C   0  0  0  0  0  2  0  0  0  0  0  0
  189.3080  177.9610  148.2410 N   0  0  0  0  0  2  0  0  0  0  0  0
  187.8920  177.8980  148.5700 C   0  0  0  0  0  2  0  0  0  0  0  0
  187.1290  178.9740  147.8160 C   0  0  0  0  0  2  0  0  0  0  0  0
  185.8710  178.4960  147.4520 O   0  0  0  0  0  1  0  0  0  0  0  0
  1  6  2  0  0  0  0
  1  7  1  0  0  0  0
  4  3  1  0  0  0  0
  4  2  2  0  0  0  0
  5  2  1  0  0  0  0
  5 22  1  1  0  0  0
  6  4  1  0  0  0  0
  7  5  1  0  0  0  0
  8 18  1  0  0  0  0
  9 18  2  0  0  0  0
  9 16  1  0  0  0  0
 10 15  1  0  0  0  0
 10 17  2  0  0  0  0
 11 19  1  0  0  0  0
 12 17  1  0  0  0  0
 12 11  1  0  0  0  0
 14 15  1  0  0  0  0
 15  8  2  0  0  0  0
 16 13  2  0  0  0  0
 17  9  1  0  0  0  0
 19 16  1  0  0  0  0
 19  5  1  0  0  0  0
 20 21  3  0  0  0  0
 21  1  1  0  0  0  0
 22 24  1  0  0  0  0
 24 23  1  1  0  0  0
 24 25  1  0  0  0  0
 25 26  1  0  0  0  0
 26 27  1  0  0  0  0
 28 27  1  0  0  0  0
 29 28  1  0  0  0  0
M  END
>  <MODEL>
3

>  <REMARK>
 VINA RESULT:      -7.3      2.395      5.370
  Name = 
  8 active torsions:
  status: ('A' for Active; 'I' for Inactive)
    1  A    between atoms: C_1  and  C_16
    2  A    between atoms: N_9  and  C_27
    3  A    between atoms: N_9  and  C_29
    4  A    between atoms: C_15  and  C_20
    5  A    between atoms: C_15  and  N_24
    6  A    between atoms: C_20  and  C_25
    7  A    between atoms: C_22  and  C_29
    8  A    between atoms: C_25  and  C_27
                            x       y       z     vdW  Elec       q    Type
                         _______ _______ _______ _____ _____    ______ ____

>  <TORSDO>
F 8

$$$$
=
 OpenBabel10222421093D

 29 31  0  0  1  0  0  0  0  0999 V2000
  180.7600  179.6000  140.7440 C   0  0  0  0  0  0  0  0  0  0  0  0
  182.4850  179.0720  138.5630 C   0  0  0  0  0  3  0  0  0  0  0  0
  181.3460  180.6680  137.3040 F   0  0  0  0  0  0  0  0  0  0  0  0
  181.5470  180.0220  138.4770 C   0  0  0  0  0  0  0  0  0  0  0  0
  182.7870  178.3740  139.8790 C   0  0  2  0  0  0  0  0  0  0  0  0
  180.7410  180.3780  139.6590 C   0  0  0  0  0  3  0  0  0  0  0  0
  181.5020  178.2900  140.7220 C   0  0  0  0  0  2  0  0  0  0  0  0
  187.4840  177.6100  143.5340 C   0  0  0  0  0  3  0  0  0  0  0  0
  185.6140  178.4250  142.2410 C   0  0  0  0  0  0  0  0  0  0  0  0
  187.8100  178.2910  141.2270 C   0  0  0  0  0  3  0  0  0  0  0  0
  184.7390  179.8400  140.0000 O   0  0  0  0  0  0  0  0  0  0  0  0
  185.8970  179.1370  139.9640 O   0  0  0  0  0  0  0  0  0  0  0  0
  183.3380  178.5710  142.9250 O   0  0  0  0  0  0  0  0  0  0  0  0
  189.6730  177.4680  142.5230 O   0  0  0  0  0  1  0  0  0  0  0  0
  188.3250  177.7890  142.4280 C   0  0  0  0  0  0  0  0  0  0  0  0
  184.1940  178.6830  142.0070 C   0  0  0  0  0  0  0  0  0  0  0  0
  186.4540  178.6190  141.1420 C   0  0  0  0  0  0  0  0  0  0  0  0
  186.1220  177.9200  143.4420 C   0  0  0  0  0  3  0  0  0  0  0  0
  183.8300  179.0660  140.6680 N   0  0  0  0  0  0  0  0  0  0  0  0
  179.4210  180.2880  142.8540 N   0  0  0  0  0  0  0  0  0  0  0  0
  180.0180  179.9800  141.9110 C   0  0  0  0  0  0  0  0  0  0  0  0
  183.2320  176.9370  139.5860 C   0  0  0  0  0  2  0  0  0  0  0  0
  182.0770  175.4620  138.0260 N   0  0  0  0  0  1  0  0  0  0  0  0
  183.0490  176.5380  138.1260 C   0  0  2  0  0  3  0  0  0  0  0  0
  184.3820  176.0730  137.5660 C   0  0  0  0  0  2  0  0  0  0  0  0
  185.0250  177.1530  136.8310 N   0  0  0  0  0  2  0  0  0  0  0  0
  186.4300  177.1660  137.2070 C   0  0  0  0  0  2  0  0  0  0  0  0
  187.0910  178.4470  136.7300 C   0  0  0  0  0  2  0  0  0  0  0  0
  188.0830  178.8330  137.6310 O   0  0  0  0  0  1  0  0  0  0  0  0
  1 21  1  0  0  0  0
  2  5  1  0  0  0  0
  3  4  1  0  0  0  0
  4  2  2  0  0  0  0
  4  6  1  0  0  0  0
  5 22  1  6  0  0  0
  5 19  1  0  0  0  0
  5  7  1  0  0  0  0
  6  1  2  0  0  0  0
  7  1  1  0  0  0  0
  9 18  2  0  0  0  0
 10 15  1  0  0  0  0
 11 19  1  0  0  0  0
 12 11  1  0  0  0  0
 12 17  1  0  0  0  0
 15 14  1  0  0  0  0
 15  8  2  0  0  0  0
 16  9  1  0  0  0  0
 16 13  2  0  0  0  0
 17 10  2  0  0  0  0
 17  9  1  0  0  0  0
 18  8  1  0  0  0  0
 19 16  1  0  0  0  0
 21 20  3  0  0  0  0
 24 23  1  1  0  0  0
 24 22  1  0  0  0  0
 25 24  1  0  0  0  0
 26 27  1  0  0  0  0
 26 25  1  0  0  0  0
 28 27  1  0  0  0  0
 28 29  1  0  0  0  0
M  END
>  <MODEL>
4

>  <REMARK>
 VINA RESULT:      -7.3      5.380      8.370
  Name = 
  8 active torsions:
  status: ('A' for Active; 'I' for Inactive)
    1  A    between atoms: C_1  and  C_16
    2  A    between atoms: N_9  and  C_27
    3  A    between atoms: N_9  and  C_29
    4  A    between atoms: C_15  and  C_20
    5  A    between atoms: C_15  and  N_24
    6  A    between atoms: C_20  and  C_25
    7  A    between atoms: C_22  and  C_29
    8  A    between atoms: C_25  and  C_27
                            x       y       z     vdW  Elec       q    Type
                         _______ _______ _______ _____ _____    ______ ____

>  <TORSDO>
F 8

$$$$
=
 OpenBabel10222421093D

 29 31  0  0  1  0  0  0  0  0999 V2000
  180.7610  179.6770  140.7590 C   0  0  0  0  0  0  0  0  0  0  0  0
  182.4220  178.8100  138.6380 C   0  0  0  0  0  3  0  0  0  0  0  0
  181.3360  180.2960  137.2090 F   0  0  0  0  0  0  0  0  0  0  0  0
  181.5270  179.7870  138.4490 C   0  0  0  0  0  0  0  0  0  0  0  0
  182.7150  178.2620  140.0250 C   0  0  2  0  0  0  0  0  0  0  0  0
  180.7590  180.3200  139.5890 C   0  0  0  0  0  3  0  0  0  0  0  0
  181.4410  178.3400  140.8860 C   0  0  0  0  0  2  0  0  0  0  0  0
  187.6590  177.6800  143.3750 C   0  0  0  0  0  3  0  0  0  0  0  0
  185.6960  178.4290  142.1830 C   0  0  0  0  0  0  0  0  0  0  0  0
  187.8180  178.2730  141.0260 C   0  0  0  0  0  3  0  0  0  0  0  0
  184.6540  179.7470  139.9540 O   0  0  0  0  0  0  0  0  0  0  0  0
  185.8150  179.0530  139.8650 O   0  0  0  0  0  0  0  0  0  0  0  0
  183.4710  178.5830  143.0150 O   0  0  0  0  0  0  0  0  0  0  0  0
  189.7740  177.5180  142.2210 O   0  0  0  0  0  1  0  0  0  0  0  0
  188.4200  177.8230  142.2070 C   0  0  0  0  0  0  0  0  0  0  0  0
  184.2610  178.6660  142.0370 C   0  0  0  0  0  0  0  0  0  0  0  0
  186.4570  178.5870  141.0220 C   0  0  0  0  0  0  0  0  0  0  0  0
  186.2910  177.9760  143.3650 C   0  0  0  0  0  3  0  0  0  0  0  0
  183.8010  178.9930  140.7130 N   0  0  0  0  0  0  0  0  0  0  0  0
  179.4880  180.6760  142.7840 N   0  0  0  0  0  0  0  0  0  0  0  0
  180.0570  180.2290  141.8810 C   0  0  0  0  0  0  0  0  0  0  0  0
  183.0880  176.7810  139.9020 C   0  0  0  0  0  2  0  0  0  0  0  0
  181.2140  175.3610  139.2550 N   0  0  0  0  0  1  0  0  0  0  0  0
  182.3760  176.0750  138.7520 C   0  0  2  0  0  3  0  0  0  0  0  0
  183.3340  175.0930  138.1010 C   0  0  0  0  0  2  0  0  0  0  0  0
  184.2890  175.8010  137.2610 N   0  0  0  0  0  2  0  0  0  0  0  0
  185.3860  174.8880  136.9760 C   0  0  0  0  0  2  0  0  0  0  0  0
  185.0670  173.5010  137.5070 C   0  0  0  0  0  2  0  0  0  0  0  0
  186.2380  172.8750  137.9310 O   0  0  0  0  0  1  0  0  0  0  0  0
  1  7  1  0  0  0  0
  1 21  1  0  0  0  0
  2  5  1  0  0  0  0
  3  4  1  0  0  0  0
  4  2  2  0  0  0  0
  4  6  1  0  0  0  0
  5 22  1  6  0  0  0
  5 19  1  0  0  0  0
  5  7  1  0  0  0  0
  6  1  2  0  0  0  0
  9 18  2  0  0  0  0
 10 15  1  0  0  0  0
 11 19  1  0  0  0  0
 12 11  1  0  0  0  0
 12 17  1  0  0  0  0
 15 14  1  0  0  0  0
 15  8  2  0  0  0  0
 16  9  1  0  0  0  0
 16 13  2  0  0  0  0
 17 10  2  0  0  0  0
 17  9  1  0  0  0  0
 18  8  1  0  0  0  0
 19 16  1  0  0  0  0
 21 20  3  0  0  0  0
 24 23  1  1  0  0  0
 24 22  1  0  0  0  0
 25 24  1  0  0  0  0
 26 25  1  0  0  0  0
 27 26  1  0  0  0  0
 27 28  1  0  0  0  0
 28 29  1  0  0  0  0
M  END
>  <MODEL>
5

>  <REMARK>
 VINA RESULT:      -7.2      5.717      8.657
  Name = 
  8 active torsions:
  status: ('A' for Active; 'I' for Inactive)
    1  A    between atoms: C_1  and  C_16
    2  A    between atoms: N_9  and  C_27
    3  A    between atoms: N_9  and  C_29
    4  A    between atoms: C_15  and  C_20
    5  A    between atoms: C_15  and  N_24
    6  A    between atoms: C_20  and  C_25
    7  A    between atoms: C_22  and  C_29
    8  A    between atoms: C_25  and  C_27
                            x       y       z     vdW  Elec       q    Type
                         _______ _______ _______ _____ _____    ______ ____

>  <TORSDO>
F 8

$$$$
=
 OpenBabel10222421093D

 29 31  0  0  1  0  0  0  0  0999 V2000
  183.5630  176.9920  138.0130 C   0  0  0  0  0  0  0  0  0  0  0  0
  181.2170  177.4420  139.5320 C   0  0  0  0  0  3  0  0  0  0  0  0
  181.1770  175.1830  140.1000 F   0  0  0  0  0  0  0  0  0  0  0  0
  181.7840  176.2310  139.4940 C   0  0  0  0  0  0  0  0  0  0  0  0
  181.9020  178.6560  138.9250 C   0  0  2  0  0  0  0  0  0  0  0  0
  183.0740  176.0360  138.8080 C   0  0  0  0  0  3  0  0  0  0  0  0
  182.7420  178.2170  137.7120 C   0  0  0  0  0  2  0  0  0  0  0  0
  185.9930  177.9360  143.2540 C   0  0  0  0  0  3  0  0  0  0  0  0
  184.3190  178.7280  141.7030 C   0  0  0  0  0  0  0  0  0  0  0  0
  186.6500  178.6970  141.0450 C   0  0  0  0  0  3  0  0  0  0  0  0
  183.7540  180.1810  139.3880 O   0  0  0  0  0  0  0  0  0  0  0  0
  184.9290  179.5180  139.5170 O   0  0  0  0  0  0  0  0  0  0  0  0
  181.9610  178.7780  142.0220 O   0  0  0  0  0  0  0  0  0  0  0  0
  188.3160  177.8980  142.5970 O   0  0  0  0  0  1  0  0  0  0  0  0
  186.9890  178.1770  142.2990 C   0  0  0  0  0  0  0  0  0  0  0  0
  182.9450  178.9460  141.2540 C   0  0  0  0  0  0  0  0  0  0  0  0
  185.3140  178.9830  140.7550 C   0  0  0  0  0  0  0  0  0  0  0  0
  184.6520  178.2040  142.9560 C   0  0  0  0  0  3  0  0  0  0  0  0
  182.7810  179.3580  139.8850 N   0  0  0  0  0  0  0  0  0  0  0  0
  185.8780  176.6800  136.8900 N   0  0  0  0  0  0  0  0  0  0  0  0
  184.8440  176.8210  137.3910 C   0  0  0  0  0  0  0  0  0  0  0  0
  180.8290  179.6210  138.4080 C   0  0  0  0  0  2  0  0  0  0  0  0
  179.2880  180.2380  140.1940 N   0  0  0  0  0  1  0  0  0  0  0  0
  180.4380  180.6860  139.4270 C   0  0  2  0  0  3  0  0  0  0  0  0
  180.0920  181.9710  138.6940 C   0  0  0  0  0  2  0  0  0  0  0  0
  181.2220  182.4150  137.8910 N   0  0  0  0  0  2  0  0  0  0  0  0
  180.6910  183.1420  136.7480 C   0  0  0  0  0  2  0  0  0  0  0  0
  181.3190  184.5220  136.6660 C   0  0  0  0  0  2  0  0  0  0  0  0
  182.3680  184.6230  137.5790 O   0  0  0  0  0  1  0  0  0  0  0  0
  1  6  2  0  0  0  0
  4  2  2  0  0  0  0
  4  3  1  0  0  0  0
  5 22  1  6  0  0  0
  5  2  1  0  0  0  0
  5 19  1  0  0  0  0
  6  4  1  0  0  0  0
  7  1  1  0  0  0  0
  7  5  1  0  0  0  0
  9 18  2  0  0  0  0
 10 15  1  0  0  0  0
 11 12  1  0  0  0  0
 11 19  1  0  0  0  0
 12 17  1  0  0  0  0
 15 14  1  0  0  0  0
 15  8  2  0  0  0  0
 16  9  1  0  0  0  0
 16 13  2  0  0  0  0
 17 10  2  0  0  0  0
 17  9  1  0  0  0  0
 18  8  1  0  0  0  0
 19 16  1  0  0  0  0
 20 21  3  0  0  0  0
 21  1  1  0  0  0  0
 22 24  1  0  0  0  0
 24 23  1  6  0  0  0
 25 24  1  0  0  0  0
 26 25  1  0  0  0  0
 27 26  1  0  0  0  0
 28 27  1  0  0  0  0
 28 29  1  0  0  0  0
M  END
>  <MODEL>
6

>  <REMARK>
 VINA RESULT:      -7.1      6.325      9.286
  Name = 
  8 active torsions:
  status: ('A' for Active; 'I' for Inactive)
    1  A    between atoms: C_1  and  C_16
    2  A    between atoms: N_9  and  C_27
    3  A    between atoms: N_9  and  C_29
    4  A    between atoms: C_15  and  C_20
    5  A    between atoms: C_15  and  N_24
    6  A    between atoms: C_20  and  C_25
    7  A    between atoms: C_22  and  C_29
    8  A    between atoms: C_25  and  C_27
                            x       y       z     vdW  Elec       q    Type
                         _______ _______ _______ _____ _____    ______ ____

>  <TORSDO>
F 8

$$$$
=
 OpenBabel10222421093D

 29 31  0  0  1  0  0  0  0  0999 V2000
  191.3320  176.5300  144.5450 C   0  0  0  0  0  0  0  0  0  0  0  0
  190.0960  179.0120  143.9730 C   0  0  0  0  0  3  0  0  0  0  0  0
  192.1990  179.9600  143.6480 F   0  0  0  0  0  0  0  0  0  0  0  0
  191.4250  178.8770  143.8970 C   0  0  0  0  0  0  0  0  0  0  0  0
  189.1890  177.8100  144.1810 C   0  0  2  0  0  0  0  0  0  0  0  0
  192.0480  177.5520  144.0690 C   0  0  0  0  0  3  0  0  0  0  0  0
  189.9230  176.7540  145.0270 C   0  0  0  0  0  2  0  0  0  0  0  0
  189.5720  178.1210  138.2010 C   0  0  0  0  0  3  0  0  0  0  0  0
  189.0050  177.6670  140.5050 C   0  0  0  0  0  0  0  0  0  0  0  0
  190.7710  176.4040  139.4300 C   0  0  0  0  0  3  0  0  0  0  0  0
  189.1430  175.8990  142.6590 O   0  0  0  0  0  0  0  0  0  0  0  0
  190.1450  175.9570  141.7490 O   0  0  0  0  0  0  0  0  0  0  0  0
  187.4030  178.8030  141.8490 O   0  0  0  0  0  0  0  0  0  0  0  0
  191.3380  176.8680  137.1300 O   0  0  0  0  0  1  0  0  0  0  0  0
  190.5620  177.1300  138.2520 C   0  0  0  0  0  0  0  0  0  0  0  0
  188.3220  177.9450  141.7670 C   0  0  0  0  0  0  0  0  0  0  0  0
  189.9800  176.6680  140.5520 C   0  0  0  0  0  0  0  0  0  0  0  0
  188.7940  178.3980  139.3310 C   0  0  0  0  0  3  0  0  0  0  0  0
  188.7610  177.1880  142.9090 N   0  0  0  0  0  0  0  0  0  0  0  0
  192.4050  174.1800  144.7480 N   0  0  0  0  0  0  0  0  0  0  0  0
  191.9270  175.2300  144.6580 C   0  0  0  0  0  0  0  0  0  0  0  0
  187.9570  178.2530  144.9780 C   0  0  0  0  0  2  0  0  0  0  0  0
  185.7030  177.5560  144.3630 N   0  0  0  0  0  1  0  0  0  0  0  0
  186.8950  177.1650  145.0960 C   0  0  2  0  0  3  0  0  0  0  0  0
  186.5490  176.9650  146.5610 C   0  0  0  0  0  2  0  0  0  0  0  0
  187.0200  178.0950  147.3500 N   0  0  0  0  0  2  0  0  0  0  0  0
  187.8320  177.5660  148.4350 C   0  0  0  0  0  2  0  0  0  0  0  0
  189.1480  178.3190  148.5220 C   0  0  0  0  0  2  0  0  0  0  0  0
  190.1930  177.5000  148.0950 O   0  0  0  0  0  1  0  0  0  0  0  0
  1 21  1  0  0  0  0
  1  7  1  0  0  0  0
  2  5  1  0  0  0  0
  3  4  1  0  0  0  0
  4  2  2  0  0  0  0
  4  6  1  0  0  0  0
  5 22  1  1  0  0  0
  5  7  1  0  0  0  0
  6  1  2  0  0  0  0
  8 15  2  0  0  0  0
  8 18  1  0  0  0  0
  9 17  1  0  0  0  0
  9 16  1  0  0  0  0
 10 17  2  0  0  0  0
 11 19  1  0  0  0  0
 12 11  1  0  0  0  0
 14 15  1  0  0  0  0
 15 10  1  0  0  0  0
 16 13  2  0  0  0  0
 16 19  1  0  0  0  0
 17 12  1  0  0  0  0
 18  9  2  0  0  0  0
 19  5  1  0  0  0  0
 21 20  3  0  0  0  0
 22 24  1  0  0  0  0
 24 23  1  6  0  0  0
 24 25  1  0  0  0  0
 25 26  1  0  0  0  0
 26 27  1  0  0  0  0
 27 28  1  0  0  0  0
 29 28  1  0  0  0  0
M  END
>  <MODEL>
7

>  <REMARK>
 VINA RESULT:      -6.6      2.548      6.184
  Name = 
  8 active torsions:
  status: ('A' for Active; 'I' for Inactive)
    1  A    between atoms: C_1  and  C_16
    2  A    between atoms: N_9  and  C_27
    3  A    between atoms: N_9  and  C_29
    4  A    between atoms: C_15  and  C_20
    5  A    between atoms: C_15  and  N_24
    6  A    between atoms: C_20  and  C_25
    7  A    between atoms: C_22  and  C_29
    8  A    between atoms: C_25  and  C_27
                            x       y       z     vdW  Elec       q    Type
                         _______ _______ _______ _____ _____    ______ ____

>  <TORSDO>
F 8

$$$$
=
 OpenBabel10222421093D

 29 31  0  0  1  0  0  0  0  0999 V2000
  186.1290  178.6850  141.8810 C   0  0  0  0  0  0  0  0  0  0  0  0
  188.1550  177.5100  143.4710 C   0  0  0  0  0  3  0  0  0  0  0  0
  186.5250  176.7590  144.9560 F   0  0  0  0  0  0  0  0  0  0  0  0
  186.8650  177.3740  143.7990 C   0  0  0  0  0  0  0  0  0  0  0  0
  188.5750  178.1310  142.1480 C   0  0  2  0  0  0  0  0  0  0  0  0
  185.8130  177.8770  142.8970 C   0  0  0  0  0  3  0  0  0  0  0  0
  187.5390  179.1890  141.7270 C   0  0  0  0  0  2  0  0  0  0  0  0
  190.9290  177.0580  136.7340 C   0  0  0  0  0  3  0  0  0  0  0  0
  189.6820  177.0560  138.8030 C   0  0  0  0  0  0  0  0  0  0  0  0
  191.8760  176.0330  138.7210 C   0  0  0  0  0  3  0  0  0  0  0  0
  189.3370  175.9530  141.3430 O   0  0  0  0  0  0  0  0  0  0  0  0
  190.5700  176.0270  140.7850 O   0  0  0  0  0  0  0  0  0  0  0  0
  187.5660  178.0660  139.2160 O   0  0  0  0  0  0  0  0  0  0  0  0
  193.1200  176.0450  136.6520 O   0  0  0  0  0  1  0  0  0  0  0  0
  191.9770  176.3780  137.3680 C   0  0  0  0  0  0  0  0  0  0  0  0
  188.5750  177.4610  139.6680 C   0  0  0  0  0  0  0  0  0  0  0  0
  190.7200  176.3640  139.4320 C   0  0  0  0  0  0  0  0  0  0  0  0
  189.7800  177.4060  137.4530 C   0  0  0  0  0  3  0  0  0  0  0  0
  188.7060  177.1330  141.0640 N   0  0  0  0  0  0  0  0  0  0  0  0
  184.2890  179.4850  140.2400 N   0  0  0  0  0  0  0  0  0  0  0  0
  185.1100  179.1270  140.9740 C   0  0  0  0  0  0  0  0  0  0  0  0
  189.9100  178.8560  142.3450 C   0  0  0  0  0  2  0  0  0  0  0  0
  191.0570  179.8300  144.2640 N   0  0  0  0  0  1  0  0  0  0  0  0
  190.5440  178.5900  143.7060 C   0  0  2  0  0  3  0  0  0  0  0  0
  191.6820  177.5980  143.5400 C   0  0  0  0  0  2  0  0  0  0  0  0
  191.3820  176.3630  144.2500 N   0  0  0  0  0  2  0  0  0  0  0  0
  191.0620  176.7120  145.6260 C   0  0  0  0  0  2  0  0  0  0  0  0
  192.0550  176.0670  146.5770 C   0  0  0  0  0  2  0  0  0  0  0  0
  192.0630  176.7530  147.7910 O   0  0  0  0  0  1  0  0  0  0  0  0
  1  6  2  0  0  0  0
  2  4  2  0  0  0  0
  4  3  1  0  0  0  0
  5 22  1  1  0  0  0
  5  2  1  0  0  0  0
  6  4  1  0  0  0  0
  7  1  1  0  0  0  0
  7  5  1  0  0  0  0
  8 15  2  0  0  0  0
  8 18  1  0  0  0  0
  9 17  1  0  0  0  0
  9 16  1  0  0  0  0
 10 17  2  0  0  0  0
 12 11  1  0  0  0  0
 13 16  2  0  0  0  0
 14 15  1  0  0  0  0
 15 10  1  0  0  0  0
 16 19  1  0  0  0  0
 17 12  1  0  0  0  0
 18  9  2  0  0  0  0
 19 11  1  0  0  0  0
 19  5  1  0  0  0  0
 20 21  3  0  0  0  0
 21  1  1  0  0  0  0
 22 24  1  0  0  0  0
 24 23  1  6  0  0  0
 25 24  1  0  0  0  0
 25 26  1  0  0  0  0
 26 27  1  0  0  0  0
 27 28  1  0  0  0  0
 28 29  1  0  0  0  0
M  END
>  <MODEL>
8

>  <REMARK>
 VINA RESULT:      -6.5      2.876      7.187
  Name = 
  8 active torsions:
  status: ('A' for Active; 'I' for Inactive)
    1  A    between atoms: C_1  and  C_16
    2  A    between atoms: N_9  and  C_27
    3  A    between atoms: N_9  and  C_29
    4  A    between atoms: C_15  and  C_20
    5  A    between atoms: C_15  and  N_24
    6  A    between atoms: C_20  and  C_25
    7  A    between atoms: C_22  and  C_29
    8  A    between atoms: C_25  and  C_27
                            x       y       z     vdW  Elec       q    Type
                         _______ _______ _______ _____ _____    ______ ____

>  <TORSDO>
F 8

$$$$
=
 OpenBabel10222421093D

 29 31  0  0  1  0  0  0  0  0999 V2000
  182.1820  179.8140  138.9620 C   0  0  0  0  0  0  0  0  0  0  0  0
  182.9740  177.2940  139.9790 C   0  0  0  0  0  3  0  0  0  0  0  0
  183.9740  176.8060  137.9320 F   0  0  0  0  0  0  0  0  0  0  0  0
  183.3240  177.6730  138.7440 C   0  0  0  0  0  0  0  0  0  0  0  0
  182.3080  178.2610  140.9450 C   0  0  2  0  0  0  0  0  0  0  0  0
  183.0190  179.0350  138.2720 C   0  0  0  0  0  3  0  0  0  0  0  0
  181.4470  179.2620  140.1540 C   0  0  0  0  0  2  0  0  0  0  0  0
  185.1060  178.4860  146.2470 C   0  0  0  0  0  3  0  0  0  0  0  0
  184.1520  178.9020  144.0670 C   0  0  0  0  0  0  0  0  0  0  0  0
  186.2950  177.7870  144.2490 C   0  0  0  0  0  3  0  0  0  0  0  0
  184.5690  179.1090  141.3160 O   0  0  0  0  0  0  0  0  0  0  0  0
  185.3090  178.2540  142.0630 O   0  0  0  0  0  0  0  0  0  0  0  0
  182.0360  179.8750  143.5780 O   0  0  0  0  0  0  0  0  0  0  0  0
  187.2390  177.3670  146.4310 O   0  0  0  0  0  1  0  0  0  0  0  0
  186.2150  177.8790  145.6440 C   0  0  0  0  0  0  0  0  0  0  0  0
  183.0800  179.3060  143.1600 C   0  0  0  0  0  0  0  0  0  0  0  0
  185.2660  178.3120  143.4640 C   0  0  0  0  0  0  0  0  0  0  0  0
  184.0660  178.9940  145.4600 C   0  0  0  0  0  3  0  0  0  0  0  0
  183.2810  179.0120  141.7660 N   0  0  0  0  0  0  0  0  0  0  0  0
  181.7290  182.2410  138.1750 N   0  0  0  0  0  0  0  0  0  0  0  0
  181.9310  181.1580  138.5280 C   0  0  0  0  0  0  0  0  0  0  0  0
  181.3620  177.4730  141.8580 C   0  0  0  0  0  2  0  0  0  0  0  0
  179.3050  177.9760  143.0670 N   0  0  0  0  0  1  0  0  0  0  0  0
  179.9080  177.9190  141.7460 C   0  0  2  0  0  3  0  0  0  0  0  0
  179.1490  176.9260  140.8830 C   0  0  0  0  0  2  0  0  0  0  0  0
  179.3050  175.5770  141.4090 N   0  0  0  0  0  2  0  0  0  0  0  0
  179.1990  174.6540  140.2890 C   0  0  0  0  0  2  0  0  0  0  0  0
  179.7320  175.2990  139.0220 C   0  0  0  0  0  2  0  0  0  0  0  0
  180.9670  174.7430  138.6900 O   0  0  0  0  0  1  0  0  0  0  0  0
  1  7  1  0  0  0  0
  2  5  1  0  0  0  0
  3  4  1  0  0  0  0
  4  2  2  0  0  0  0
  5 19  1  0  0  0  0
  5 22  1  1  0  0  0
  6  4  1  0  0  0  0
  6  1  2  0  0  0  0
  7  5  1  0  0  0  0
  9 18  1  0  0  0  0
 10 15  2  0  0  0  0
 11 19  1  0  0  0  0
 11 12  1  0  0  0  0
 12 17  1  0  0  0  0
 15  8  1  0  0  0  0
 15 14  1  0  0  0  0
 16 13  2  0  0  0  0
 16  9  1  0  0  0  0
 17  9  2  0  0  0  0
 17 10  1  0  0  0  0
 18  8  2  0  0  0  0
 19 16  1  0  0  0  0
 20 21  3  0  0  0  0
 21  1  1  0  0  0  0
 24 22  1  0  0  0  0
 24 23  1  1  0  0  0
 25 26  1  0  0  0  0
 25 24  1  0  0  0  0
 27 26  1  0  0  0  0
 28 27  1  0  0  0  0
 29 28  1  0  0  0  0
M  END
>  <MODEL>
9

>  <REMARK>
 VINA RESULT:      -6.5      5.728      9.083
  Name = 
  8 active torsions:
  status: ('A' for Active; 'I' for Inactive)
    1  A    between atoms: C_1  and  C_16
    2  A    between atoms: N_9  and  C_27
    3  A    between atoms: N_9  and  C_29
    4  A    between atoms: C_15  and  C_20
    5  A    between atoms: C_15  and  N_24
    6  A    between atoms: C_20  and  C_25
    7  A    between atoms: C_22  and  C_29
    8  A    between atoms: C_25  and  C_27
                            x       y       z     vdW  Elec       q    Type
                         _______ _______ _______ _____ _____    ______ ____

>  <TORSDO>
F 8

$$$$
