=
 OpenBabel10222415103D

 69 74  0  0  1  0  0  0  0  0999 V2000
  190.4670  174.8620  135.2100 C   0  0  0  0  0  0  0  0  0  0  0  0
  190.3570  173.4600  135.1290 C   0  0  0  0  0  3  0  0  0  0  0  0
  188.0340  175.0160  135.1970 C   0  0  0  0  0  3  0  0  0  0  0  0
  189.2940  175.6390  135.2490 C   0  0  0  0  0  3  0  0  0  0  0  0
  187.9290  173.6350  135.1020 C   0  0  0  0  0  0  0  0  0  0  0  0
  189.0990  172.8530  135.0660 C   0  0  0  0  0  0  0  0  0  0  0  0
  189.0460  171.3440  135.0290 C   0  0  0  0  0  1  0  0  0  0  0  0
  192.8550  174.7870  134.9750 O   0  0  0  0  0  1  0  0  0  0  0  0
  191.7960  175.5370  135.5010 C   0  0  2  0  0  3  0  0  0  0  0  0
  193.2420  175.6040  137.4660 C   0  0  0  0  0  2  0  0  0  0  0  0
  192.0480  175.8520  136.9520 C   0  0  0  0  0  0  0  0  0  0  0  0
  190.9420  175.8830  137.8640 N   0  0  0  0  0  2  0  0  0  0  0  0
  189.5350  178.2990  140.1830 N   0  0  0  0  0  0  0  0  0  0  0  0
  190.3780  177.1800  138.2860 C   0  0  1  0  0  3  0  0  0  0  0  0
  188.4250  178.1410  139.2270 C   0  0  0  0  0  2  0  0  0  0  0  0
  188.8670  177.1420  138.1860 C   0  0  0  0  0  2  0  0  0  0  0  0
  190.6330  177.4480  139.7450 C   0  0  0  0  0  2  0  0  0  0  0  0
  189.1610  177.8740  141.5400 C   0  0  2  0  0  3  0  0  0  0  0  0
  189.5860  176.5500  141.8170 O   0  0  0  0  0  0  0  0  0  0  0  0
  190.9310  176.5840  142.2560 C   0  0  0  0  0  2  0  0  0  0  0  0
  191.7340  178.1640  143.9990 C   0  0  0  0  0  1  0  0  0  0  0  0
  190.9860  176.8730  143.7570 C   0  0  2  0  0  3  0  0  0  0  0  0
  192.0630  176.2000  145.9070 C   0  0  0  0  0  1  0  0  0  0  0  0
  191.6510  175.7220  144.5210 C   0  0  0  0  0  2  0  0  0  0  0  0
  187.6580  178.1300  141.7560 C   0  0  0  0  0  2  0  0  0  0  0  0
  186.1410  178.0370  143.6420 C   0  0  0  0  0  0  0  0  0  0  0  0
  185.0900  178.7880  142.8910 C   0  0  0  0  0  1  0  0  0  0  0  0
  187.2920  177.7510  143.1120 N   0  0  0  0  0  0  0  0  0  0  0  0
  185.8520  177.5790  145.0340 C   0  0  0  0  0  2  0  0  0  0  0  0
  186.9570  177.9360  145.9090 N   0  0  0  0  0  0  0  0  0  0  0  0
  188.8740  176.9670  147.1460 C   0  0  0  0  0  2  0  0  0  0  0  0
  187.4140  178.7040  148.2460 C   0  0  0  0  0  2  0  0  0  0  0  0
  186.3660  178.4740  147.1290 C   0  0  0  0  0  2  0  0  0  0  0  0
  187.6780  176.6920  146.2180 C   0  0  0  0  0  2  0  0  0  0  0  0
  188.8340  178.3700  147.7640 C   0  0  0  0  0  2  0  0  0  0  0  0
  185.5770  173.7550  134.5990 O   0  0  0  0  0  1  0  0  0  0  0  0
  186.5730  172.9710  135.1700 C   0  0  2  0  0  3  0  0  0  0  0  0
  186.6040  171.3730  136.9160 O   0  0  0  0  0  0  0  0  0  0  0  0
  186.1980  172.4620  136.5330 C   0  0  0  0  0  0  0  0  0  0  0  0
  185.0640  173.1050  137.2550 C   0  0  0  0  0  2  0  0  0  0  0  0
  185.2630  174.6170  137.2410 C   0  0  0  0  0  2  0  0  0  0  0  0
  183.9850  175.4580  137.2440 C   0  0  0  0  0  2  0  0  0  0  0  0
  183.8250  176.5870  136.2190 C   0  0  2  0  0  0  0  0  0  0  0  0
  185.1620  176.9890  135.6180 C   0  0  0  0  0  1  0  0  0  0  0  0
  183.2440  177.6880  136.8780 O   0  0  0  0  0  0  0  0  0  0  0  0
  182.9610  176.0790  135.1260 N   0  0  0  0  0  2  0  0  0  0  0  0
  181.6930  176.8120  134.9930 C   0  0  1  0  0  3  0  0  0  0  0  0
  180.6130  175.9320  135.2420 O   0  0  0  0  0  0  0  0  0  0  0  0
  181.1150  174.6690  135.6490 C   0  0  1  0  0  3  0  0  0  0  0  0
  180.7400  174.3210  137.1120 C   0  0  0  0  0  2  0  0  0  0  0  0
  180.7940  173.5600  134.6150 C   0  0  0  0  0  2  0  0  0  0  0  0
  179.8820  172.6990  138.5820 C   0  0  0  0  0  1  0  0  0  0  0  0
  180.1110  173.0010  137.1830 N   0  0  0  0  0  0  0  0  0  0  0  0
  181.0750  172.0520  136.6540 C   0  0  0  0  0  2  0  0  0  0  0  0
  181.1720  172.1610  135.1300 C   0  0  0  0  0  2  0  0  0  0  0  0
  181.6730  177.9410  136.0250 C   0  0  1  0  0  3  0  0  0  0  0  0
  179.3390  177.9930  135.3730 O   0  0  0  0  0  1  0  0  0  0  0  0
  180.2250  178.3240  136.4260 C   0  0  2  0  0  3  0  0  0  0  0  0
  180.1500  179.6970  136.7720 O   0  0  0  0  0  0  0  0  0  0  0  0
  180.4990  179.8410  138.1270 C   0  0  2  0  0  3  0  0  0  0  0  0
  180.1930  181.9490  139.1920 C   0  0  0  0  0  2  0  0  0  0  0  0
  181.1100  181.1770  138.3170 N   0  0  0  0  0  0  0  0  0  0  0  0
  180.1700  182.1590  137.7480 C   0  0  0  0  0  2  0  0  0  0  0  0
  181.4490  178.7280  138.6050 C   0  0  0  0  0  2  0  0  0  0  0  0
  181.9370  177.8270  140.7620 O   0  0  0  0  0  0  0  0  0  0  0  0
  181.0880  178.1970  139.9670 C   0  0  0  0  0  0  0  0  0  0  0  0
  179.5090  177.9800  141.7070 O   0  0  0  0  0  1  0  0  0  0  0  0
  179.6350  178.1410  140.3210 C   0  0  2  0  0  3  0  0  0  0  0  0
  178.9800  177.0410  139.6230 N   0  0  0  0  0  1  0  0  0  0  0  0
  1  4  1  0  0  0  0
  1  9  1  0  0  0  0
  2  1  2  0  0  0  0
  3  4  2  0  0  0  0
  5 37  1  0  0  0  0
  5  3  1  0  0  0  0
  6  5  2  0  0  0  0
  6  2  1  0  0  0  0
  7  6  1  0  0  0  0
  9  8  1  1  0  0  0
  9 11  1  0  0  0  0
 11 10  2  0  0  0  0
 11 12  1  0  0  0  0
 13 18  1  0  0  0  0
 14 12  1  1  0  0  0
 14 17  1  0  0  0  0
 15 13  1  0  0  0  0
 16 14  1  0  0  0  0
 16 15  1  0  0  0  0
 17 13  1  0  0  0  0
 18 25  1  6  0  0  0
 18 19  1  0  0  0  0
 19 20  1  0  0  0  0
 20 22  1  0  0  0  0
 22 21  1  6  0  0  0
 22 24  1  0  0  0  0
 24 23  1  0  0  0  0
 25 28  1  0  0  0  0
 26 29  1  0  0  0  0
 27 26  1  0  0  0  0
 28 26  2  0  0  0  0
 29 30  1  0  0  0  0
 30 34  1  0  0  0  0
 30 33  1  0  0  0  0
 31 35  1  0  0  0  0
 33 32  1  0  0  0  0
 34 31  1  0  0  0  0
 35 32  1  0  0  0  0
 37 36  1  1  0  0  0
 37 39  1  0  0  0  0
 39 38  2  0  0  0  0
 39 40  1  0  0  0  0
 41 42  1  0  0  0  0
 41 40  1  0  0  0  0
 43 44  1  6  0  0  0
 43 45  1  0  0  0  0
 43 42  1  0  0  0  0
 46 43  1  0  0  0  0
 47 46  1  0  0  0  0
 47 48  1  1  0  0  0
 47 56  1  0  0  0  0
 49 48  1  6  0  0  0
 49 50  1  0  0  0  0
 50 53  1  0  0  0  0
 51 55  1  0  0  0  0
 51 49  1  0  0  0  0
 53 52  1  0  0  0  0
 54 53  1  0  0  0  0
 55 54  1  0  0  0  0
 56 58  1  1  0  0  0
 56 45  1  0  0  0  0
 58 57  1  6  0  0  0
 58 59  1  0  0  0  0
 59 60  1  0  0  0  0
 60 62  1  0  0  0  0
 60 64  1  6  0  0  0
 62 61  1  0  0  0  0
 63 62  1  0  0  0  0
 63 61  1  0  0  0  0
 64 66  1  0  0  0  0
 66 68  1  0  0  0  0
 66 65  2  0  0  0  0
 68 69  1  6  0  0  0
 68 67  1  0  0  0  0
M  END
>  <MODEL>
1

>  <REMARK>
 VINA RESULT:      -4.9      0.000      0.000
  Name = 
  31 active torsions:
  status: ('A' for Active; 'I' for Inactive)
    1  A    between atoms: C_2  and  C_11
    2  A    between atoms: C_2  and  C_42
    3  A    between atoms: N_3  and  C_30
    4  A    between atoms: C_5  and  C_39
    5  A    between atoms: C_5  and  C_48
    6  A    between atoms: C_6  and  C_29
    7  A    between atoms: C_6  and  N_60
    8  A    between atoms: C_7  and  O_19
    9  A    between atoms: N_9  and  C_29
   10  A    between atoms: C_11  and  C_55
   11  A    between atoms: O_12  and  C_48
   12  A    between atoms: O_12  and  C_54
   13  A    between atoms: C_14  and  N_15
   14  A    between atoms: N_15  and  C_31
   15  A    between atoms: N_17  and  C_20
   16  A    between atoms: N_17  and  C_39
   17  A    between atoms: C_18  and  C_40
   18  A    between atoms: O_19  and  C_39
   19  A    between atoms: C_20  and  C_55
   20  A    between atoms: C_21  and  C_37
   21  A    between atoms: C_21  and  C_42
   22  A    between atoms: C_27  and  C_54
   23  A    between atoms: C_27  and  C_68
   24  A    between atoms: C_29  and  O_57
   25  A    between atoms: C_30  and  C_41
   26  A    between atoms: C_31  and  C_40
   27  A    between atoms: C_34  and  C_68
   28  A    between atoms: N_38  and  C_54
   29  A    between atoms: C_43  and  C_56
   30  A    between atoms: C_56  and  C_69
   31  A    between atoms: O_57  and  C_69
                            x       y       z     vdW  Elec       q    Type
                         _______ _______ _______ _____ _____    ______ ____

>  <TORSDO>
F 31

$$$$
=
 OpenBabel10222415103D

 69 73  0  0  1  0  0  0  0  0999 V2000
  189.2760  176.7030  145.0400 C   0  0  0  0  0  0  0  0  0  0  0  0
  188.4390  177.6200  145.7060 C   0  0  0  0  0  3  0  0  0  0  0  0
  187.6740  176.6360  143.2030 C   0  0  0  0  0  3  0  0  0  0  0  0
  188.8870  176.2160  143.7770 C   0  0  0  0  0  3  0  0  0  0  0  0
  186.8440  177.5270  143.8690 C   0  0  0  0  0  0  0  0  0  0  0  0
  187.2300  178.0200  145.1300 C   0  0  0  0  0  0  0  0  0  0  0  0
  186.4000  179.0400  145.8720 C   0  0  0  0  0  1  0  0  0  0  0  0
  190.8980  176.9950  146.7840 O   0  0  0  0  0  1  0  0  0  0  0  0
  190.6850  176.4180  145.5260 C   0  0  2  0  0  3  0  0  0  0  0  0
  192.4350  177.9510  144.7850 C   0  0  0  0  0  2  0  0  0  0  0  0
  191.7830  176.8190  144.5750 C   0  0  0  0  0  0  0  0  0  0  0  0
  191.7570  176.3240  143.2300 N   0  0  0  0  0  2  0  0  0  0  0  0
  191.3230  177.5990  139.8560 N   0  0  0  0  0  0  0  0  0  0  0  0
  191.9530  177.2570  142.1030 C   0  0  1  0  0  3  0  0  0  0  0  0
  192.7740  177.3430  139.8800 C   0  0  0  0  0  2  0  0  0  0  0  0
  193.1100  176.7920  141.2440 C   0  0  0  0  0  2  0  0  0  0  0  0
  190.7800  177.2430  141.1600 C   0  0  0  0  0  2  0  0  0  0  0  0
  190.6320  176.7790  138.8500 C   0  0  2  0  0  3  0  0  0  0  0  0
  191.4540  176.5190  137.7240 O   0  0  0  0  0  0  0  0  0  0  0  0
  191.7920  175.1450  137.7130 C   0  0  0  0  0  2  0  0  0  0  0  0
  192.8750  174.2010  135.6840 C   0  0  0  0  0  1  0  0  0  0  0  0
  193.1190  174.9370  136.9820 C   0  0  2  0  0  3  0  0  0  0  0  0
  195.3970  174.9770  138.0060 C   0  0  0  0  0  1  0  0  0  0  0  0
  194.1180  174.1640  137.8520 C   0  0  0  0  0  2  0  0  0  0  0  0
  189.2690  177.4170  138.5230 C   0  0  0  0  0  2  0  0  0  0  0  0
  187.6650  176.9260  136.7760 C   0  0  0  0  0  0  0  0  0  0  0  0
  187.4240  178.3790  136.5270 C   0  0  0  0  0  1  0  0  0  0  0  0
  188.5010  176.5130  137.6810 N   0  0  0  0  0  0  0  0  0  0  0  0
  186.9440  175.9160  135.9450 C   0  0  0  0  0  2  0  0  0  0  0  0
  187.6950  174.6730  135.9170 N   0  0  0  0  0  0  0  0  0  0  0  0
  188.0140  172.5990  134.5970 C   0  0  0  0  0  2  0  0  0  0  0  0
  187.8690  172.4810  137.1110 C   0  0  0  0  0  2  0  0  0  0  0  0
  187.3090  173.9250  137.1080 C   0  0  0  0  0  2  0  0  0  0  0  0
  187.2690  173.9410  134.7150 C   0  0  0  0  0  2  0  0  0  0  0  0
  188.7540  172.2170  135.8840 C   0  0  0  0  0  2  0  0  0  0  0  0
  184.6400  177.0780  143.0080 O   0  0  0  0  0  1  0  0  0  0  0  0
  185.6050  178.0630  143.1900 C   0  0  2  0  0  3  0  0  0  0  0  0
  186.5450  179.8700  141.9830 O   0  0  0  0  0  0  0  0  0  0  0  0
  185.8730  178.8480  141.9370 C   0  0  0  0  0  0  0  0  0  0  0  0
  185.0400  178.5850  140.7300 C   0  0  0  0  0  2  0  0  0  0  0  0
  183.8360  179.5230  140.7470 C   0  0  0  0  0  2  0  0  0  0  0  0
  182.8170  179.3180  139.6250 C   0  0  0  0  0  2  0  0  0  0  0  0
  181.8080  178.1680  139.7260 C   0  0  2  0  0  0  0  0  0  0  0  0
  180.7710  178.4270  140.8070 C   0  0  0  0  0  1  0  0  0  0  0  0
  182.5240  176.9910  140.0230 O   0  0  0  0  0  1  0  0  0  0  0  0
  181.1050  178.0730  138.4240 N   0  0  0  0  0  2  0  0  0  0  0  0
  179.6440  178.2070  138.5360 C   0  0  1  0  0  3  0  0  0  0  0  0
  179.2970  179.5790  138.5630 O   0  0  0  0  0  0  0  0  0  0  0  0
  180.1330  180.2950  137.6670 C   0  0  1  0  0  3  0  0  0  0  0  0
  179.4070  180.6770  136.3520 C   0  0  0  0  0  2  0  0  0  0  0  0
  180.8620  181.4680  138.3700 C   0  0  0  0  0  2  0  0  0  0  0  0
  178.9350  182.3760  134.7970 C   0  0  0  0  0  1  0  0  0  0  0  0
  179.5440  182.1100  136.0850 N   0  0  0  0  0  0  0  0  0  0  0  0
  180.9670  182.3810  135.9910 C   0  0  0  0  0  2  0  0  0  0  0  0
  181.6230  182.3580  137.3740 C   0  0  0  0  0  2  0  0  0  0  0  0
  179.0000  177.5480  137.3140 C   0  0  0  0  0  2  0  0  0  0  0  0
  179.4500  176.2280  135.3320 O   0  0  0  0  0  1  0  0  0  0  0  0
  179.9910  176.6050  136.5840 C   0  0  2  0  0  3  0  0  0  0  0  0
  180.2960  175.4800  137.3920 O   0  0  0  0  0  0  0  0  0  0  0  0
  180.8140  174.4620  136.5710 C   0  0  2  0  0  3  0  0  0  0  0  0
  180.0800  172.2130  136.2980 C   0  0  0  0  0  2  0  0  0  0  0  0
  180.6630  173.1660  137.2740 N   0  0  0  0  0  0  0  0  0  0  0  0
  179.2230  172.8560  137.2890 C   0  0  0  0  0  2  0  0  0  0  0  0
  182.2830  174.7130  136.1880 C   0  0  0  0  0  2  0  0  0  0  0  0
  183.8740  174.7160  137.9700 O   0  0  0  0  0  0  0  0  0  0  0  0
  183.2550  174.0680  137.1410 C   0  0  0  0  0  0  0  0  0  0  0  0
  184.6390  172.2290  137.6600 O   0  0  0  0  0  1  0  0  0  0  0  0
  183.4340  172.5860  137.0420 C   0  0  2  0  0  3  0  0  0  0  0  0
  183.4380  172.1630  135.6460 N   0  0  0  0  0  1  0  0  0  0  0  0
  1  9  1  0  0  0  0
  1  2  1  0  0  0  0
  3  4  1  0  0  0  0
  3  5  2  0  0  0  0
  4  1  2  0  0  0  0
  5  6  1  0  0  0  0
  6  2  2  0  0  0  0
  6  7  1  0  0  0  0
  9  8  1  1  0  0  0
 11 10  2  0  0  0  0
 11  9  1  0  0  0  0
 12 11  1  0  0  0  0
 13 15  1  0  0  0  0
 13 17  1  0  0  0  0
 14 12  1  1  0  0  0
 15 16  1  0  0  0  0
 16 14  1  0  0  0  0
 17 14  1  0  0  0  0
 18 25  1  6  0  0  0
 18 13  1  0  0  0  0
 19 18  1  0  0  0  0
 20 19  1  0  0  0  0
 22 21  1  6  0  0  0
 22 20  1  0  0  0  0
 22 24  1  0  0  0  0
 24 23  1  0  0  0  0
 26 28  2  0  0  0  0
 27 26  1  0  0  0  0
 28 25  1  0  0  0  0
 29 26  1  0  0  0  0
 30 29  1  0  0  0  0
 30 33  1  0  0  0  0
 31 34  1  0  0  0  0
 31 35  1  0  0  0  0
 33 32  1  0  0  0  0
 34 30  1  0  0  0  0
 35 32  1  0  0  0  0
 37 36  1  6  0  0  0
 37  5  1  0  0  0  0
 39 38  2  0  0  0  0
 39 37  1  0  0  0  0
 40 41  1  0  0  0  0
 40 39  1  0  0  0  0
 42 43  1  0  0  0  0
 42 41  1  0  0  0  0
 43 45  1  0  0  0  0
 43 44  1  1  0  0  0
 46 47  1  0  0  0  0
 46 43  1  0  0  0  0
 47 56  1  6  0  0  0
 47 48  1  0  0  0  0
 49 51  1  0  0  0  0
 49 48  1  1  0  0  0
 50 49  1  0  0  0  0
 52 53  1  0  0  0  0
 53 50  1  0  0  0  0
 54 53  1  0  0  0  0
 54 55  1  0  0  0  0
 55 51  1  0  0  0  0
 58 57  1  6  0  0  0
 58 56  1  0  0  0  0
 58 59  1  0  0  0  0
 60 64  1  1  0  0  0
 60 62  1  0  0  0  0
 60 59  1  0  0  0  0
 61 62  1  0  0  0  0
 61 63  1  0  0  0  0
 62 63  1  0  0  0  0
 64 66  1  0  0  0  0
 66 65  2  0  0  0  0
 68 69  1  6  0  0  0
 68 66  1  0  0  0  0
 68 67  1  0  0  0  0
M  END
>  <MODEL>
2

>  <REMARK>
 VINA RESULT:      -4.9      2.115      8.016
  Name = 
  31 active torsions:
  status: ('A' for Active; 'I' for Inactive)
    1  A    between atoms: C_2  and  C_11
    2  A    between atoms: C_2  and  C_42
    3  A    between atoms: N_3  and  C_30
    4  A    between atoms: C_5  and  C_39
    5  A    between atoms: C_5  and  C_48
    6  A    between atoms: C_6  and  C_29
    7  A    between atoms: C_6  and  N_60
    8  A    between atoms: C_7  and  O_19
    9  A    between atoms: N_9  and  C_29
   10  A    between atoms: C_11  and  C_55
   11  A    between atoms: O_12  and  C_48
   12  A    between atoms: O_12  and  C_54
   13  A    between atoms: C_14  and  N_15
   14  A    between atoms: N_15  and  C_31
   15  A    between atoms: N_17  and  C_20
   16  A    between atoms: N_17  and  C_39
   17  A    between atoms: C_18  and  C_40
   18  A    between atoms: O_19  and  C_39
   19  A    between atoms: C_20  and  C_55
   20  A    between atoms: C_21  and  C_37
   21  A    between atoms: C_21  and  C_42
   22  A    between atoms: C_27  and  C_54
   23  A    between atoms: C_27  and  C_68
   24  A    between atoms: C_29  and  O_57
   25  A    between atoms: C_30  and  C_41
   26  A    between atoms: C_31  and  C_40
   27  A    between atoms: C_34  and  C_68
   28  A    between atoms: N_38  and  C_54
   29  A    between atoms: C_43  and  C_56
   30  A    between atoms: C_56  and  C_69
   31  A    between atoms: O_57  and  C_69
                            x       y       z     vdW  Elec       q    Type
                         _______ _______ _______ _____ _____    ______ ____

>  <TORSDO>
F 31

$$$$
=
 OpenBabel10222415103D

 69 73  0  0  1  0  0  0  0  0999 V2000
  180.9530  175.9340  137.1640 C   0  0  0  0  0  0  0  0  0  0  0  0
  182.1490  175.2990  137.5500 C   0  0  0  0  0  3  0  0  0  0  0  0
  180.6820  174.2710  135.4030 C   0  0  0  0  0  3  0  0  0  0  0  0
  180.2160  175.4080  136.0860 C   0  0  0  0  0  3  0  0  0  0  0  0
  181.8690  173.6560  135.7760 C   0  0  0  0  0  0  0  0  0  0  0  0
  182.6080  174.1750  136.8550 C   0  0  0  0  0  0  0  0  0  0  0  0
  183.8720  173.5110  137.3470 C   0  0  0  0  0  1  0  0  0  0  0  0
  179.2950  177.6630  137.3200 O   0  0  0  0  0  1  0  0  0  0  0  0
  180.3150  177.0110  138.0230 C   0  0  2  0  0  3  0  0  0  0  0  0
  181.8850  178.8660  137.7930 C   0  0  0  0  0  2  0  0  0  0  0  0
  181.2740  178.0170  138.6040 C   0  0  0  0  0  0  0  0  0  0  0  0
  181.9220  177.7280  139.8500 N   0  0  0  0  0  2  0  0  0  0  0  0
  184.4850  179.2670  141.9130 N   0  0  0  0  0  0  0  0  0  0  0  0
  182.5750  178.8150  140.6040 C   0  0  1  0  0  3  0  0  0  0  0  0
  183.3030  179.3870  142.7870 C   0  0  0  0  0  2  0  0  0  0  0  0
  182.1380  178.7720  142.0530 C   0  0  0  0  0  2  0  0  0  0  0  0
  184.0670  178.6220  140.6760 C   0  0  0  0  0  2  0  0  0  0  0  0
  185.5350  178.4330  142.5140 C   0  0  2  0  0  3  0  0  0  0  0  0
  185.3390  178.2550  143.9080 O   0  0  0  0  0  0  0  0  0  0  0  0
  186.3360  177.3810  144.4010 C   0  0  0  0  0  2  0  0  0  0  0  0
  185.1090  178.1490  146.4230 C   0  0  0  0  0  1  0  0  0  0  0  0
  186.2840  177.3360  145.9290 C   0  0  2  0  0  3  0  0  0  0  0  0
  187.2720  178.6870  147.7830 C   0  0  0  0  0  1  0  0  0  0  0  0
  187.5880  177.8570  146.5460 C   0  0  0  0  0  2  0  0  0  0  0  0
  186.9150  178.9930  142.1220 C   0  0  0  0  0  2  0  0  0  0  0  0
  188.4220  177.2600  141.3520 C   0  0  0  0  0  0  0  0  0  0  0  0
  187.9800  177.4420  139.9360 C   0  0  0  0  0  1  0  0  0  0  0  0
  187.9290  177.9680  142.3230 N   0  0  0  0  0  0  0  0  0  0  0  0
  189.4790  176.2500  141.6590 C   0  0  0  0  0  2  0  0  0  0  0  0
  190.0980  176.5590  142.9370 N   0  0  0  0  0  0  0  0  0  0  0  0
  191.6560  178.1470  144.0320 C   0  0  0  0  0  2  0  0  0  0  0  0
  191.8220  175.6790  144.5230 C   0  0  0  0  0  2  0  0  0  0  0  0
  190.9290  175.4120  143.2860 C   0  0  0  0  0  2  0  0  0  0  0  0
  190.9500  177.7390  142.7260 C   0  0  0  0  0  2  0  0  0  0  0  0
  191.5570  177.0700  145.1190 C   0  0  0  0  0  2  0  0  0  0  0  0
  181.3080  171.3890  135.1860 O   0  0  0  0  0  1  0  0  0  0  0  0
  182.2960  172.3650  135.1150 C   0  0  2  0  0  3  0  0  0  0  0  0
  183.7200  170.9220  136.3370 O   0  0  0  0  0  0  0  0  0  0  0  0
  183.6410  171.8580  135.5530 C   0  0  0  0  0  0  0  0  0  0  0  0
  184.8430  172.7080  135.3190 C   0  0  0  0  0  2  0  0  0  0  0  0
  186.0650  171.8070  135.1750 C   0  0  0  0  0  2  0  0  0  0  0  0
  187.4160  172.5230  135.1080 C   0  0  0  0  0  2  0  0  0  0  0  0
  188.6590  171.8410  135.6920 C   0  0  2  0  0  0  0  0  0  0  0  0
  189.5680  171.3040  134.5980 C   0  0  0  0  0  1  0  0  0  0  0  0
  188.2220  170.7830  136.5150 O   0  0  0  0  0  1  0  0  0  0  0  0
  189.4110  172.8630  136.4590 N   0  0  0  0  0  2  0  0  0  0  0  0
  190.1150  173.8340  135.6070 C   0  0  1  0  0  3  0  0  0  0  0  0
  190.3280  175.0290  136.3330 O   0  0  0  0  0  0  0  0  0  0  0  0
  189.6210  176.0910  135.7140 C   0  0  1  0  0  3  0  0  0  0  0  0
  188.3310  175.6120  135.0000 C   0  0  0  0  0  2  0  0  0  0  0  0
  189.4210  177.2900  136.6750 C   0  0  0  0  0  2  0  0  0  0  0  0
  186.0320  175.9670  134.6590 C   0  0  0  0  0  1  0  0  0  0  0  0
  187.1760  176.3970  135.4380 N   0  0  0  0  0  0  0  0  0  0  0  0
  187.4660  177.7820  135.1120 C   0  0  0  0  0  2  0  0  0  0  0  0
  188.5010  178.3670  136.0770 C   0  0  0  0  0  2  0  0  0  0  0  0
  191.4670  173.2390  135.2060 C   0  0  0  0  0  2  0  0  0  0  0  0
  193.5520  174.4740  135.2050 O   0  0  0  0  0  1  0  0  0  0  0  0
  192.6240  173.8260  136.0550 C   0  0  2  0  0  3  0  0  0  0  0  0
  193.2350  172.8110  136.8340 O   0  0  0  0  0  0  0  0  0  0  0  0
  194.5840  172.6980  136.4510 C   0  0  2  0  0  3  0  0  0  0  0  0
  195.2680  171.2320  134.7030 C   0  0  0  0  0  2  0  0  0  0  0  0
  194.8660  171.2790  136.1310 N   0  0  0  0  0  0  0  0  0  0  0  0
  193.9050  170.8790  135.0890 C   0  0  0  0  0  2  0  0  0  0  0  0
  195.5430  173.2200  137.5360 C   0  0  0  0  0  2  0  0  0  0  0  0
  196.2090  175.4570  137.0310 O   0  0  0  0  0  0  0  0  0  0  0  0
  196.4920  174.2710  137.0210 C   0  0  0  0  0  0  0  0  0  0  0  0
  198.1910  172.6400  137.1750 O   0  0  0  0  0  1  0  0  0  0  0  0
  197.8130  173.8060  136.4960 C   0  0  2  0  0  3  0  0  0  0  0  0
  198.8260  174.8410  136.6700 N   0  0  0  0  0  1  0  0  0  0  0  0
  1  2  1  0  0  0  0
  1  9  1  0  0  0  0
  3  5  2  0  0  0  0
  3  4  1  0  0  0  0
  4  1  2  0  0  0  0
  5  6  1  0  0  0  0
  6  7  1  0  0  0  0
  6  2  2  0  0  0  0
  9  8  1  6  0  0  0
  9 11  1  0  0  0  0
 10 11  2  0  0  0  0
 11 12  1  0  0  0  0
 13 18  1  0  0  0  0
 13 15  1  0  0  0  0
 14 12  1  6  0  0  0
 14 17  1  0  0  0  0
 14 16  1  0  0  0  0
 16 15  1  0  0  0  0
 17 13  1  0  0  0  0
 18 25  1  1  0  0  0
 18 19  1  0  0  0  0
 19 20  1  0  0  0  0
 20 22  1  0  0  0  0
 22 21  1  1  0  0  0
 22 24  1  0  0  0  0
 24 23  1  0  0  0  0
 25 28  1  0  0  0  0
 26 29  1  0  0  0  0
 26 28  2  0  0  0  0
 27 26  1  0  0  0  0
 29 30  1  0  0  0  0
 30 33  1  0  0  0  0
 31 35  1  0  0  0  0
 32 35  1  0  0  0  0
 33 32  1  0  0  0  0
 34 30  1  0  0  0  0
 34 31  1  0  0  0  0
 37 36  1  1  0  0  0
 37 39  1  0  0  0  0
 37  5  1  0  0  0  0
 39 38  2  0  0  0  0
 40 39  1  0  0  0  0
 41 40  1  0  0  0  0
 42 41  1  0  0  0  0
 42 43  1  0  0  0  0
 43 44  1  6  0  0  0
 43 46  1  0  0  0  0
 43 45  1  0  0  0  0
 47 56  1  1  0  0  0
 47 48  1  0  0  0  0
 47 46  1  0  0  0  0
 49 48  1  1  0  0  0
 49 51  1  0  0  0  0
 50 53  1  0  0  0  0
 50 49  1  0  0  0  0
 52 53  1  0  0  0  0
 54 53  1  0  0  0  0
 54 55  1  0  0  0  0
 55 51  1  0  0  0  0
 56 58  1  0  0  0  0
 58 57  1  6  0  0  0
 58 59  1  0  0  0  0
 60 59  1  0  0  0  0
 60 64  1  1  0  0  0
 61 63  1  0  0  0  0
 61 62  1  0  0  0  0
 62 60  1  0  0  0  0
 63 62  1  0  0  0  0
 66 65  2  0  0  0  0
 66 64  1  0  0  0  0
 68 69  1  1  0  0  0
 68 66  1  0  0  0  0
 68 67  1  0  0  0  0
M  END
>  <MODEL>
3

>  <REMARK>
 VINA RESULT:      -4.9      2.690      9.828
  Name = 
  31 active torsions:
  status: ('A' for Active; 'I' for Inactive)
    1  A    between atoms: C_2  and  C_11
    2  A    between atoms: C_2  and  C_42
    3  A    between atoms: N_3  and  C_30
    4  A    between atoms: C_5  and  C_39
    5  A    between atoms: C_5  and  C_48
    6  A    between atoms: C_6  and  C_29
    7  A    between atoms: C_6  and  N_60
    8  A    between atoms: C_7  and  O_19
    9  A    between atoms: N_9  and  C_29
   10  A    between atoms: C_11  and  C_55
   11  A    between atoms: O_12  and  C_48
   12  A    between atoms: O_12  and  C_54
   13  A    between atoms: C_14  and  N_15
   14  A    between atoms: N_15  and  C_31
   15  A    between atoms: N_17  and  C_20
   16  A    between atoms: N_17  and  C_39
   17  A    between atoms: C_18  and  C_40
   18  A    between atoms: O_19  and  C_39
   19  A    between atoms: C_20  and  C_55
   20  A    between atoms: C_21  and  C_37
   21  A    between atoms: C_21  and  C_42
   22  A    between atoms: C_27  and  C_54
   23  A    between atoms: C_27  and  C_68
   24  A    between atoms: C_29  and  O_57
   25  A    between atoms: C_30  and  C_41
   26  A    between atoms: C_31  and  C_40
   27  A    between atoms: C_34  and  C_68
   28  A    between atoms: N_38  and  C_54
   29  A    between atoms: C_43  and  C_56
   30  A    between atoms: C_56  and  C_69
   31  A    between atoms: O_57  and  C_69
                            x       y       z     vdW  Elec       q    Type
                         _______ _______ _______ _____ _____    ______ ____

>  <TORSDO>
F 31

$$$$
=
 OpenBabel10222415103D

 69 74  0  0  1  0  0  0  0  0999 V2000
  190.0050  175.3440  135.6640 C   0  0  0  0  0  0  0  0  0  0  0  0
  189.7650  173.9660  135.5000 C   0  0  0  0  0  3  0  0  0  0  0  0
  187.6090  175.7460  135.4690 C   0  0  0  0  0  3  0  0  0  0  0  0
  188.9140  176.2340  135.6530 C   0  0  0  0  0  3  0  0  0  0  0  0
  187.3760  174.3890  135.2930 C   0  0  0  0  0  0  0  0  0  0  0  0
  188.4630  173.4940  135.3070 C   0  0  0  0  0  0  0  0  0  0  0  0
  188.2650  172.0020  135.1850 C   0  0  0  0  0  1  0  0  0  0  0  0
  192.3750  174.9670  135.7290 O   0  0  0  0  0  1  0  0  0  0  0  0
  191.3650  175.8660  136.0940 C   0  0  2  0  0  3  0  0  0  0  0  0
  192.6330  176.0180  138.1740 C   0  0  0  0  0  2  0  0  0  0  0  0
  191.4810  176.2180  137.5540 C   0  0  0  0  0  0  0  0  0  0  0  0
  190.3000  176.2340  138.3660 N   0  0  0  0  0  2  0  0  0  0  0  0
  188.5990  178.6640  140.4630 N   0  0  0  0  0  0  0  0  0  0  0  0
  189.6530  177.5200  138.6900 C   0  0  1  0  0  3  0  0  0  0  0  0
  187.5870  178.4320  139.4160 C   0  0  0  0  0  2  0  0  0  0  0  0
  188.1600  177.4190  138.4550 C   0  0  0  0  0  2  0  0  0  0  0  0
  189.7620  177.8440  140.1560 C   0  0  0  0  0  2  0  0  0  0  0  0
  188.1170  178.2670  141.7950 C   0  0  2  0  0  3  0  0  0  0  0  0
  188.7450  177.0810  142.2540 O   0  0  0  0  0  0  0  0  0  0  0  0
  190.1180  177.3450  142.4700 C   0  0  0  0  0  2  0  0  0  0  0  0
  191.1490  179.1880  143.7810 C   0  0  0  0  0  1  0  0  0  0  0  0
  190.3270  177.9220  143.8700 C   0  0  2  0  0  3  0  0  0  0  0  0
  191.3940  175.6670  143.9970 C   0  0  0  0  0  1  0  0  0  0  0  0
  191.0120  176.9080  144.7940 C   0  0  0  0  0  2  0  0  0  0  0  0
  186.5780  178.2230  141.7860 C   0  0  0  0  0  2  0  0  0  0  0  0
  184.8200  178.2920  143.4510 C   0  0  0  0  0  0  0  0  0  0  0  0
  183.7610  178.2950  142.3970 C   0  0  0  0  0  1  0  0  0  0  0  0
  186.0850  178.2590  143.1540 N   0  0  0  0  0  0  0  0  0  0  0  0
  184.4160  178.3010  144.8890 C   0  0  0  0  0  2  0  0  0  0  0  0
  185.5830  178.5190  145.7280 N   0  0  0  0  0  0  0  0  0  0  0  0
  187.7940  177.5590  146.3040 C   0  0  0  0  0  2  0  0  0  0  0  0
  186.2920  178.4450  148.1250 C   0  0  0  0  0  2  0  0  0  0  0  0
  185.1230  178.4430  147.1100 C   0  0  0  0  0  2  0  0  0  0  0  0
  186.5170  177.4170  145.4560 C   0  0  0  0  0  2  0  0  0  0  0  0
  187.6490  178.5980  147.4220 C   0  0  0  0  0  2  0  0  0  0  0  0
  185.0490  174.8640  134.8960 O   0  0  0  0  0  1  0  0  0  0  0  0
  185.9610  173.8650  135.2180 C   0  0  2  0  0  3  0  0  0  0  0  0
  185.7750  171.8580  136.4600 O   0  0  0  0  0  0  0  0  0  0  0  0
  185.5340  173.0560  136.4120 C   0  0  0  0  0  0  0  0  0  0  0  0
  184.5240  173.6290  137.3460 C   0  0  0  0  0  2  0  0  0  0  0  0
  184.8850  175.0830  137.6330 C   0  0  0  0  0  2  0  0  0  0  0  0
  183.7050  176.0300  137.8580 C   0  0  0  0  0  2  0  0  0  0  0  0
  183.6470  177.3550  137.0860 C   0  0  2  0  0  0  0  0  0  0  0  0
  184.9950  177.7080  136.4800 C   0  0  0  0  0  1  0  0  0  0  0  0
  183.2490  178.3620  137.9890 O   0  0  0  0  0  0  0  0  0  0  0  0
  182.6730  177.1860  135.9820 N   0  0  0  0  0  2  0  0  0  0  0  0
  181.4840  178.0430  136.1130 C   0  0  1  0  0  3  0  0  0  0  0  0
  180.3900  177.2640  136.5590 O   0  0  0  0  0  0  0  0  0  0  0  0
  180.6380  175.8960  136.2810 C   0  0  1  0  0  3  0  0  0  0  0  0
  180.2150  174.9640  137.4450 C   0  0  0  0  0  2  0  0  0  0  0  0
  180.0970  175.4820  134.8890 C   0  0  0  0  0  2  0  0  0  0  0  0
  179.0680  173.0100  138.0730 C   0  0  0  0  0  1  0  0  0  0  0  0
  179.3400  173.8960  136.9590 N   0  0  0  0  0  0  0  0  0  0  0  0
  180.0940  173.1650  135.9570 C   0  0  0  0  0  2  0  0  0  0  0  0
  180.1980  173.9650  134.6560 C   0  0  0  0  0  2  0  0  0  0  0  0
  181.7810  179.1330  137.1450 C   0  0  2  0  0  3  0  0  0  0  0  0
  180.8020  180.8030  135.6870 O   0  0  0  0  0  1  0  0  0  0  0  0
  180.7970  180.3240  137.0190 C   0  0  2  0  0  3  0  0  0  0  0  0
  181.1240  181.3420  137.9510 O   0  0  0  0  0  0  0  0  0  0  0  0
  179.9570  182.0630  138.2600 C   0  0  2  0  0  3  0  0  0  0  0  0
  178.9460  181.4040  140.3140 C   0  0  0  0  0  2  0  0  0  0  0  0
  178.9700  181.1320  138.8550 N   0  0  0  0  0  0  0  0  0  0  0  0
  179.7100  180.2730  139.7970 C   0  0  0  0  0  2  0  0  0  0  0  0
  179.3690  182.7750  137.0290 C   0  0  0  0  0  2  0  0  0  0  0  0
  181.0880  183.7320  135.6740 O   0  0  0  0  0  0  0  0  0  0  0  0
  180.2390  183.9010  136.5340 C   0  0  0  0  0  0  0  0  0  0  0  0
  181.2590  185.7900  137.5130 O   0  0  0  0  0  1  0  0  0  0  0  0
  180.0210  185.2530  137.1350 C   0  0  2  0  0  3  0  0  0  0  0  0
  179.1370  185.1630  138.2920 N   0  0  0  0  0  1  0  0  0  0  0  0
  1  9  1  0  0  0  0
  2  1  2  0  0  0  0
  3  4  2  0  0  0  0
  4  1  1  0  0  0  0
  5  6  2  0  0  0  0
  5  3  1  0  0  0  0
  6  2  1  0  0  0  0
  7  6  1  0  0  0  0
  9  8  1  1  0  0  0
  9 11  1  0  0  0  0
 11 10  2  0  0  0  0
 11 12  1  0  0  0  0
 13 18  1  0  0  0  0
 14 12  1  1  0  0  0
 14 17  1  0  0  0  0
 15 13  1  0  0  0  0
 16 14  1  0  0  0  0
 16 15  1  0  0  0  0
 17 13  1  0  0  0  0
 18 25  1  6  0  0  0
 18 19  1  0  0  0  0
 19 20  1  0  0  0  0
 20 22  1  0  0  0  0
 22 21  1  6  0  0  0
 22 24  1  0  0  0  0
 23 24  1  0  0  0  0
 25 28  1  0  0  0  0
 26 29  1  0  0  0  0
 27 26  1  0  0  0  0
 28 26  2  0  0  0  0
 29 30  1  0  0  0  0
 30 33  1  0  0  0  0
 31 35  1  0  0  0  0
 33 32  1  0  0  0  0
 34 30  1  0  0  0  0
 34 31  1  0  0  0  0
 35 32  1  0  0  0  0
 37 36  1  1  0  0  0
 37  5  1  0  0  0  0
 37 39  1  0  0  0  0
 39 38  2  0  0  0  0
 39 40  1  0  0  0  0
 40 41  1  0  0  0  0
 41 42  1  0  0  0  0
 43 44  1  6  0  0  0
 43 42  1  0  0  0  0
 43 45  1  0  0  0  0
 46 47  1  0  0  0  0
 46 43  1  0  0  0  0
 47 48  1  1  0  0  0
 47 56  1  0  0  0  0
 49 48  1  1  0  0  0
 49 50  1  0  0  0  0
 51 49  1  0  0  0  0
 53 50  1  0  0  0  0
 53 52  1  0  0  0  0
 54 53  1  0  0  0  0
 55 51  1  0  0  0  0
 55 54  1  0  0  0  0
 56 58  1  6  0  0  0
 56 45  1  0  0  0  0
 58 57  1  6  0  0  0
 58 59  1  0  0  0  0
 59 60  1  0  0  0  0
 60 64  1  6  0  0  0
 60 62  1  0  0  0  0
 62 63  1  0  0  0  0
 62 61  1  0  0  0  0
 63 61  1  0  0  0  0
 65 66  2  0  0  0  0
 66 64  1  0  0  0  0
 66 68  1  0  0  0  0
 68 67  1  1  0  0  0
 68 69  1  0  0  0  0
M  END
>  <MODEL>
4

>  <REMARK>
 VINA RESULT:      -4.6      1.613      2.605
  Name = 
  31 active torsions:
  status: ('A' for Active; 'I' for Inactive)
    1  A    between atoms: C_2  and  C_11
    2  A    between atoms: C_2  and  C_42
    3  A    between atoms: N_3  and  C_30
    4  A    between atoms: C_5  and  C_39
    5  A    between atoms: C_5  and  C_48
    6  A    between atoms: C_6  and  C_29
    7  A    between atoms: C_6  and  N_60
    8  A    between atoms: C_7  and  O_19
    9  A    between atoms: N_9  and  C_29
   10  A    between atoms: C_11  and  C_55
   11  A    between atoms: O_12  and  C_48
   12  A    between atoms: O_12  and  C_54
   13  A    between atoms: C_14  and  N_15
   14  A    between atoms: N_15  and  C_31
   15  A    between atoms: N_17  and  C_20
   16  A    between atoms: N_17  and  C_39
   17  A    between atoms: C_18  and  C_40
   18  A    between atoms: O_19  and  C_39
   19  A    between atoms: C_20  and  C_55
   20  A    between atoms: C_21  and  C_37
   21  A    between atoms: C_21  and  C_42
   22  A    between atoms: C_27  and  C_54
   23  A    between atoms: C_27  and  C_68
   24  A    between atoms: C_29  and  O_57
   25  A    between atoms: C_30  and  C_41
   26  A    between atoms: C_31  and  C_40
   27  A    between atoms: C_34  and  C_68
   28  A    between atoms: N_38  and  C_54
   29  A    between atoms: C_43  and  C_56
   30  A    between atoms: C_56  and  C_69
   31  A    between atoms: O_57  and  C_69
                            x       y       z     vdW  Elec       q    Type
                         _______ _______ _______ _____ _____    ______ ____

>  <TORSDO>
F 31

$$$$
=
 OpenBabel10222415103D

 69 73  0  0  1  0  0  0  0  0999 V2000
  183.4070  172.0380  137.3710 C   0  0  0  0  0  0  0  0  0  0  0  0
  184.0080  171.0050  136.6270 C   0  0  0  0  0  3  0  0  0  0  0  0
  185.4750  173.3180  137.1920 C   0  0  0  0  0  3  0  0  0  0  0  0
  184.1500  173.2020  137.6470 C   0  0  0  0  0  3  0  0  0  0  0  0
  186.0690  172.2910  136.4710 C   0  0  0  0  0  0  0  0  0  0  0  0
  185.3310  171.1260  136.1890 C   0  0  0  0  0  0  0  0  0  0  0  0
  185.9020  170.0050  135.3550 C   0  0  0  0  0  1  0  0  0  0  0  0
  181.2120  171.3870  136.6520 O   0  0  0  0  0  1  0  0  0  0  0  0
  181.9190  172.0380  137.6700 C   0  0  2  0  0  3  0  0  0  0  0  0
  181.9620  174.2360  138.7310 C   0  0  0  0  0  2  0  0  0  0  0  0
  181.3200  173.3940  137.9370 C   0  0  0  0  0  0  0  0  0  0  0  0
  179.9030  173.5690  137.8150 N   0  0  0  0  0  2  0  0  0  0  0  0
  179.9870  176.8300  136.2160 N   0  0  0  0  0  0  0  0  0  0  0  0
  179.3620  174.8660  137.3640 C   0  0  1  0  0  3  0  0  0  0  0  0
  179.6860  177.2030  137.6100 C   0  0  0  0  0  2  0  0  0  0  0  0
  179.6250  175.9270  138.4130 C   0  0  0  0  0  2  0  0  0  0  0  0
  180.0890  175.3790  136.1490 C   0  0  0  0  0  2  0  0  0  0  0  0
  181.2690  177.3850  135.7590 C   0  0  2  0  0  3  0  0  0  0  0  0
  182.2730  177.2930  136.7580 O   0  0  0  0  0  0  0  0  0  0  0  0
  183.3230  176.4770  136.2750 C   0  0  0  0  0  2  0  0  0  0  0  0
  185.3020  176.5280  134.7720 C   0  0  0  0  0  1  0  0  0  0  0  0
  184.4470  177.3470  135.7120 C   0  0  2  0  0  3  0  0  0  0  0  0
  186.7170  178.1990  136.3150 C   0  0  0  0  0  1  0  0  0  0  0  0
  185.3080  177.9400  136.8340 C   0  0  0  0  0  2  0  0  0  0  0  0
  181.0400  178.8020  135.2020 C   0  0  0  0  0  2  0  0  0  0  0  0
  179.9070  180.7980  135.9760 C   0  0  0  0  0  0  0  0  0  0  0  0
  179.9120  181.3880  134.6040 C   0  0  0  0  0  1  0  0  0  0  0  0
  180.4210  179.6310  136.2250 N   0  0  0  0  0  0  0  0  0  0  0  0
  179.2710  181.5600  137.0930 C   0  0  0  0  0  2  0  0  0  0  0  0
  180.0680  182.7350  137.4040 N   0  0  0  0  0  0  0  0  0  0  0  0
  181.0370  184.7770  136.3860 C   0  0  0  0  0  2  0  0  0  0  0  0
  182.4100  183.3940  137.9880 C   0  0  0  0  0  2  0  0  0  0  0  0
  181.3780  182.2510  137.8240 C   0  0  0  0  0  2  0  0  0  0  0  0
  180.2020  183.5040  136.1580 C   0  0  0  0  0  2  0  0  0  0  0  0
  181.7730  184.7690  137.7310 C   0  0  0  0  0  2  0  0  0  0  0  0
  188.4270  171.8270  136.6290 O   0  0  0  0  0  1  0  0  0  0  0  0
  187.4490  172.4760  135.8830 C   0  0  2  0  0  3  0  0  0  0  0  0
  188.4860  174.1690  134.5940 O   0  0  0  0  0  0  0  0  0  0  0  0
  187.8090  173.9030  135.5770 C   0  0  0  0  0  0  0  0  0  0  0  0
  187.6500  174.9300  136.6450 C   0  0  0  0  0  2  0  0  0  0  0  0
  188.8540  174.8620  137.5790 C   0  0  0  0  0  2  0  0  0  0  0  0
  188.8920  175.9090  138.6940 C   0  0  0  0  0  2  0  0  0  0  0  0
  190.2350  176.5320  139.0950 C   0  0  2  0  0  0  0  0  0  0  0  0
  190.2140  178.0450  138.9540 C   0  0  0  0  0  1  0  0  0  0  0  0
  191.2300  175.9860  138.2600 O   0  0  0  0  0  1  0  0  0  0  0  0
  190.4710  176.2040  140.5220 N   0  0  0  0  0  2  0  0  0  0  0  0
  190.1040  177.2910  141.4420 C   0  0  1  0  0  3  0  0  0  0  0  0
  189.2000  176.8000  142.4140 O   0  0  0  0  0  0  0  0  0  0  0  0
  187.8900  177.2550  142.1150 C   0  0  1  0  0  3  0  0  0  0  0  0
  186.9300  177.1470  143.3260 C   0  0  0  0  0  2  0  0  0  0  0  0
  187.9050  178.6400  141.4200 C   0  0  0  0  0  2  0  0  0  0  0  0
  185.3120  178.2270  144.6470 C   0  0  0  0  0  1  0  0  0  0  0  0
  186.2650  178.4280  143.5730 N   0  0  0  0  0  0  0  0  0  0  0  0
  185.5360  178.7580  142.3610 C   0  0  0  0  0  2  0  0  0  0  0  0
  186.4910  179.2210  141.2570 C   0  0  0  0  0  2  0  0  0  0  0  0
  191.3720  177.7890  142.1380 C   0  0  0  0  0  2  0  0  0  0  0  0
  192.2060  179.0030  144.0630 O   0  0  0  0  0  1  0  0  0  0  0  0
  191.0720  178.3180  143.5640 C   0  0  2  0  0  3  0  0  0  0  0  0
  190.6750  177.2580  144.4170 O   0  0  0  0  0  0  0  0  0  0  0  0
  190.6860  177.7180  145.7460 C   0  0  2  0  0  3  0  0  0  0  0  0
  192.3560  176.4130  146.8330 C   0  0  0  0  0  2  0  0  0  0  0  0
  190.8910  176.5590  146.6450 N   0  0  0  0  0  0  0  0  0  0  0  0
  191.6550  175.5570  145.8810 C   0  0  0  0  0  2  0  0  0  0  0  0
  189.3980  178.4770  146.1100 C   0  0  0  0  0  2  0  0  0  0  0  0
  188.1540  176.4770  146.5060 O   0  0  0  0  0  0  0  0  0  0  0  0
  188.4030  177.6210  146.8500 C   0  0  0  0  0  0  0  0  0  0  0  0
  187.1520  177.2030  148.8060 O   0  0  0  0  0  1  0  0  0  0  0  0
  187.7270  178.2250  148.0390 C   0  0  2  0  0  3  0  0  0  0  0  0
  186.7030  179.1760  147.6180 N   0  0  0  0  0  1  0  0  0  0  0  0
  1  4  1  0  0  0  0
  1  9  1  0  0  0  0
  2  1  2  0  0  0  0
  3  4  2  0  0  0  0
  5  3  1  0  0  0  0
  6  5  2  0  0  0  0
  6  2  1  0  0  0  0
  7  6  1  0  0  0  0
  9  8  1  6  0  0  0
  9 11  1  0  0  0  0
 11 10  2  0  0  0  0
 12 11  1  0  0  0  0
 13 15  1  0  0  0  0
 14 12  1  1  0  0  0
 14 16  1  0  0  0  0
 15 16  1  0  0  0  0
 17 13  1  0  0  0  0
 17 14  1  0  0  0  0
 18 25  1  1  0  0  0
 18 13  1  0  0  0  0
 18 19  1  0  0  0  0
 20 19  1  0  0  0  0
 22 21  1  6  0  0  0
 22 20  1  0  0  0  0
 22 24  1  0  0  0  0
 23 24  1  0  0  0  0
 25 28  1  0  0  0  0
 26 28  2  0  0  0  0
 26 29  1  0  0  0  0
 27 26  1  0  0  0  0
 29 30  1  0  0  0  0
 30 33  1  0  0  0  0
 31 35  1  0  0  0  0
 33 32  1  0  0  0  0
 34 31  1  0  0  0  0
 34 30  1  0  0  0  0
 35 32  1  0  0  0  0
 37  5  1  0  0  0  0
 37 36  1  1  0  0  0
 38 39  2  0  0  0  0
 39 37  1  0  0  0  0
 39 40  1  0  0  0  0
 40 41  1  0  0  0  0
 41 42  1  0  0  0  0
 42 43  1  0  0  0  0
 43 44  1  6  0  0  0
 43 46  1  0  0  0  0
 45 43  1  0  0  0  0
 46 47  1  0  0  0  0
 47 56  1  1  0  0  0
 47 48  1  0  0  0  0
 49 48  1  1  0  0  0
 49 50  1  0  0  0  0
 50 53  1  0  0  0  0
 51 49  1  0  0  0  0
 53 52  1  0  0  0  0
 54 53  1  0  0  0  0
 55 51  1  0  0  0  0
 55 54  1  0  0  0  0
 56 58  1  0  0  0  0
 58 57  1  1  0  0  0
 58 59  1  0  0  0  0
 59 60  1  0  0  0  0
 60 64  1  1  0  0  0
 60 62  1  0  0  0  0
 62 61  1  0  0  0  0
 63 62  1  0  0  0  0
 63 61  1  0  0  0  0
 64 66  1  0  0  0  0
 65 66  2  0  0  0  0
 66 68  1  0  0  0  0
 68 69  1  6  0  0  0
 68 67  1  0  0  0  0
M  END
>  <MODEL>
5

>  <REMARK>
 VINA RESULT:      -4.5      2.236     10.198
  Name = 
  31 active torsions:
  status: ('A' for Active; 'I' for Inactive)
    1  A    between atoms: C_2  and  C_11
    2  A    between atoms: C_2  and  C_42
    3  A    between atoms: N_3  and  C_30
    4  A    between atoms: C_5  and  C_39
    5  A    between atoms: C_5  and  C_48
    6  A    between atoms: C_6  and  C_29
    7  A    between atoms: C_6  and  N_60
    8  A    between atoms: C_7  and  O_19
    9  A    between atoms: N_9  and  C_29
   10  A    between atoms: C_11  and  C_55
   11  A    between atoms: O_12  and  C_48
   12  A    between atoms: O_12  and  C_54
   13  A    between atoms: C_14  and  N_15
   14  A    between atoms: N_15  and  C_31
   15  A    between atoms: N_17  and  C_20
   16  A    between atoms: N_17  and  C_39
   17  A    between atoms: C_18  and  C_40
   18  A    between atoms: O_19  and  C_39
   19  A    between atoms: C_20  and  C_55
   20  A    between atoms: C_21  and  C_37
   21  A    between atoms: C_21  and  C_42
   22  A    between atoms: C_27  and  C_54
   23  A    between atoms: C_27  and  C_68
   24  A    between atoms: C_29  and  O_57
   25  A    between atoms: C_30  and  C_41
   26  A    between atoms: C_31  and  C_40
   27  A    between atoms: C_34  and  C_68
   28  A    between atoms: N_38  and  C_54
   29  A    between atoms: C_43  and  C_56
   30  A    between atoms: C_56  and  C_69
   31  A    between atoms: O_57  and  C_69
                            x       y       z     vdW  Elec       q    Type
                         _______ _______ _______ _____ _____    ______ ____

>  <TORSDO>
F 31

$$$$
=
 OpenBabel10222415103D

 69 74  0  0  1  0  0  0  0  0999 V2000
  184.1640  173.2180  135.8680 C   0  0  0  0  0  0  0  0  0  0  0  0
  183.6740  174.4770  135.4700 C   0  0  0  0  0  3  0  0  0  0  0  0
  182.1590  172.9080  137.2200 C   0  0  0  0  0  3  0  0  0  0  0  0
  183.3930  172.4310  136.7450 C   0  0  0  0  0  3  0  0  0  0  0  0
  181.6860  174.1560  136.8380 C   0  0  0  0  0  0  0  0  0  0  0  0
  182.4510  174.9460  135.9590 C   0  0  0  0  0  0  0  0  0  0  0  0
  181.9580  176.2820  135.4580 C   0  0  0  0  0  1  0  0  0  0  0  0
  185.4480  171.2230  135.5020 O   0  0  0  0  0  1  0  0  0  0  0  0
  185.3680  172.5860  135.1930 C   0  0  2  0  0  3  0  0  0  0  0  0
  186.6880  174.5260  135.8660 C   0  0  0  0  0  2  0  0  0  0  0  0
  186.6850  173.2630  135.4720 C   0  0  0  0  0  0  0  0  0  0  0  0
  187.8700  172.7820  134.8240 N   0  0  0  0  0  2  0  0  0  0  0  0
  190.5280  173.6030  137.1590 N   0  0  0  0  0  0  0  0  0  0  0  0
  189.0920  172.5450  135.6170 C   0  0  1  0  0  3  0  0  0  0  0  0
  191.2970  173.3610  135.9250 C   0  0  0  0  0  2  0  0  0  0  0  0
  190.3080  173.0090  134.8420 C   0  0  0  0  0  2  0  0  0  0  0  0
  189.1190  173.3900  136.8620 C   0  0  0  0  0  2  0  0  0  0  0  0
  190.6750  174.9840  137.6410 C   0  0  2  0  0  3  0  0  0  0  0  0
  190.3400  175.9320  136.6400 O   0  0  0  0  0  0  0  0  0  0  0  0
  189.2480  176.7090  137.0950 C   0  0  0  0  0  2  0  0  0  0  0  0
  189.5390  177.4440  134.7380 C   0  0  0  0  0  1  0  0  0  0  0  0
  188.5950  177.4350  135.9180 C   0  0  2  0  0  3  0  0  0  0  0  0
  189.1210  179.3740  137.4020 C   0  0  0  0  0  1  0  0  0  0  0  0
  188.2030  178.8690  136.2970 C   0  0  0  0  0  2  0  0  0  0  0  0
  192.0750  175.1610  138.2570 C   0  0  0  0  0  2  0  0  0  0  0  0
  194.2490  175.2220  137.1910 C   0  0  0  0  0  0  0  0  0  0  0  0
  194.8280  174.3020  138.2160 C   0  0  0  0  0  1  0  0  0  0  0  0
  193.0060  175.5970  137.2270 N   0  0  0  0  0  0  0  0  0  0  0  0
  195.1180  175.7050  136.0750 C   0  0  0  0  0  2  0  0  0  0  0  0
  196.4630  175.1790  136.2350 N   0  0  0  0  0  0  0  0  0  0  0  0
  198.7310  175.2520  135.2370 C   0  0  0  0  0  2  0  0  0  0  0  0
  197.7580  173.0520  135.9920 C   0  0  0  0  0  2  0  0  0  0  0  0
  196.3690  173.7340  136.0610 C   0  0  0  0  0  2  0  0  0  0  0  0
  197.2780  175.7540  135.1540 C   0  0  0  0  0  2  0  0  0  0  0  0
  198.8940  174.0660  136.1950 C   0  0  0  0  0  2  0  0  0  0  0  0
  180.0420  175.9160  136.8700 O   0  0  0  0  0  1  0  0  0  0  0  0
  180.3060  174.6060  137.2570 C   0  0  2  0  0  3  0  0  0  0  0  0
  178.9320  173.8100  139.0130 O   0  0  0  0  0  0  0  0  0  0  0  0
  179.9830  174.3560  138.7040 C   0  0  0  0  0  0  0  0  0  0  0  0
  180.7570  175.0800  139.7500 C   0  0  0  0  0  2  0  0  0  0  0  0
  179.9880  176.3350  140.1540 C   0  0  0  0  0  3  0  0  0  0  0  0
  180.5210  177.6530  139.5900 C   0  0  0  0  0  3  0  0  0  0  0  0
  180.1160  178.9740  140.2560 C   0  0  2  0  0  0  0  0  0  0  0  0
  178.9380  178.7870  141.1980 C   0  0  0  0  0  1  0  0  0  0  0  0
  179.7740  179.8840  139.2360 O   0  0  0  0  0  1  0  0  0  0  0  0
  181.2750  179.4460  141.0520 N   0  0  0  0  0  2  0  0  0  0  0  0
  182.0120  178.3600  141.7160 C   0  0  1  0  0  3  0  0  0  0  0  0
  182.3700  177.3810  140.7590 O   0  0  0  0  0  0  0  0  0  0  0  0
  183.7360  177.5400  140.4090 C   0  0  1  0  0  3  0  0  0  0  0  0
  184.0540  177.0050  138.9900 C   0  0  0  0  0  2  0  0  0  0  0  0
  184.2390  178.9790  140.6870 C   0  0  2  0  0  3  0  0  0  0  0  0
  185.0970  177.4250  136.9250 C   0  0  0  0  0  1  0  0  0  0  0  0
  184.7410  178.0250  138.1960 N   0  0  0  0  0  0  0  0  0  0  0  0
  185.9610  178.3560  138.9110 C   0  0  0  0  0  2  0  0  0  0  0  0
  185.6580  179.2120  140.1440 C   0  0  0  0  0  2  0  0  0  0  0  0
  183.2800  178.9440  142.3400 C   0  0  2  0  0  3  0  0  0  0  0  0
  182.3310  178.9450  144.5700 O   0  0  0  0  0  1  0  0  0  0  0  0
  183.4460  178.5040  143.8180 C   0  0  2  0  0  3  0  0  0  0  0  0
  184.6700  178.9870  144.3480 O   0  0  0  0  0  0  0  0  0  0  0  0
  185.5480  177.9010  144.5160 C   0  0  2  0  0  3  0  0  0  0  0  0
  184.9710  178.3140  146.7900 C   0  0  0  0  0  2  0  0  0  0  0  0
  186.0940  177.9440  145.8930 N   0  0  0  0  0  0  0  0  0  0  0  0
  185.9330  179.3290  146.3710 C   0  0  0  0  0  2  0  0  0  0  0  0
  186.6810  177.9020  143.4740 C   0  0  0  0  0  2  0  0  0  0  0  0
  188.0600  176.3730  144.6840 O   0  0  0  0  0  0  0  0  0  0  0  0
  187.9880  177.4010  144.0300 C   0  0  0  0  0  0  0  0  0  0  0  0
  189.3040  178.4310  142.3650 O   0  0  0  0  0  1  0  0  0  0  0  0
  189.2130  178.2110  143.7450 C   0  0  2  0  0  3  0  0  0  0  0  0
  190.4050  177.5220  144.2250 N   0  0  0  0  0  1  0  0  0  0  0  0
  1  4  1  0  0  0  0
  2  1  2  0  0  0  0
  2  6  1  0  0  0  0
  4  3  2  0  0  0  0
  5  3  1  0  0  0  0
  5 37  1  0  0  0  0
  6  5  2  0  0  0  0
  7  6  1  0  0  0  0
  9 11  1  0  0  0  0
  9  8  1  1  0  0  0
  9  1  1  0  0  0  0
 11 10  2  0  0  0  0
 12 11  1  0  0  0  0
 13 18  1  0  0  0  0
 14 12  1  6  0  0  0
 14 17  1  0  0  0  0
 15 13  1  0  0  0  0
 16 14  1  0  0  0  0
 16 15  1  0  0  0  0
 17 13  1  0  0  0  0
 18 25  1  6  0  0  0
 19 20  1  0  0  0  0
 19 18  1  0  0  0  0
 22 21  1  6  0  0  0
 22 24  1  0  0  0  0
 22 20  1  0  0  0  0
 24 23  1  0  0  0  0
 26 28  2  0  0  0  0
 26 27  1  0  0  0  0
 28 25  1  0  0  0  0
 29 30  1  0  0  0  0
 29 26  1  0  0  0  0
 31 35  1  0  0  0  0
 32 33  1  0  0  0  0
 32 35  1  0  0  0  0
 33 30  1  0  0  0  0
 34 31  1  0  0  0  0
 34 30  1  0  0  0  0
 37 36  1  1  0  0  0
 37 39  1  0  0  0  0
 39 38  2  0  0  0  0
 39 40  1  0  0  0  0
 40 41  1  0  0  0  0
 42 41  2  0  0  0  0
 42 43  1  0  0  0  0
 43 46  1  0  0  0  0
 43 44  1  1  0  0  0
 45 43  1  0  0  0  0
 47 46  1  6  0  0  0
 47 56  1  0  0  0  0
 48 47  1  0  0  0  0
 49 50  1  6  0  0  0
 49 51  1  0  0  0  0
 49 48  1  0  0  0  0
 51 55  1  1  0  0  0
 51 56  1  0  0  0  0
 52 53  1  0  0  0  0
 53 54  1  0  0  0  0
 53 50  1  0  0  0  0
 54 55  1  0  0  0  0
 56 58  1  1  0  0  0
 58 59  1  0  0  0  0
 58 57  1  1  0  0  0
 59 60  1  0  0  0  0
 60 64  1  6  0  0  0
 60 62  1  0  0  0  0
 62 63  1  0  0  0  0
 62 61  1  0  0  0  0
 63 61  1  0  0  0  0
 64 66  1  0  0  0  0
 66 65  2  0  0  0  0
 68 67  1  6  0  0  0
 68 66  1  0  0  0  0
 68 69  1  0  0  0  0
M  END
>  <MODEL>
6

>  <REMARK>
 VINA RESULT:      -3.3      2.655      8.736
  Name = 
  31 active torsions:
  status: ('A' for Active; 'I' for Inactive)
    1  A    between atoms: C_2  and  C_11
    2  A    between atoms: C_2  and  C_42
    3  A    between atoms: N_3  and  C_30
    4  A    between atoms: C_5  and  C_39
    5  A    between atoms: C_5  and  C_48
    6  A    between atoms: C_6  and  C_29
    7  A    between atoms: C_6  and  N_60
    8  A    between atoms: C_7  and  O_19
    9  A    between atoms: N_9  and  C_29
   10  A    between atoms: C_11  and  C_55
   11  A    between atoms: O_12  and  C_48
   12  A    between atoms: O_12  and  C_54
   13  A    between atoms: C_14  and  N_15
   14  A    between atoms: N_15  and  C_31
   15  A    between atoms: N_17  and  C_20
   16  A    between atoms: N_17  and  C_39
   17  A    between atoms: C_18  and  C_40
   18  A    between atoms: O_19  and  C_39
   19  A    between atoms: C_20  and  C_55
   20  A    between atoms: C_21  and  C_37
   21  A    between atoms: C_21  and  C_42
   22  A    between atoms: C_27  and  C_54
   23  A    between atoms: C_27  and  C_68
   24  A    between atoms: C_29  and  O_57
   25  A    between atoms: C_30  and  C_41
   26  A    between atoms: C_31  and  C_40
   27  A    between atoms: C_34  and  C_68
   28  A    between atoms: N_38  and  C_54
   29  A    between atoms: C_43  and  C_56
   30  A    between atoms: C_56  and  C_69
   31  A    between atoms: O_57  and  C_69
                            x       y       z     vdW  Elec       q    Type
                         _______ _______ _______ _____ _____    ______ ____

>  <TORSDO>
F 31

$$$$
=
 OpenBabel10222415103D

 69 73  0  0  1  0  0  0  0  0999 V2000
  181.4410  177.0960  139.6150 C   0  0  0  0  0  0  0  0  0  0  0  0
  181.5990  177.7710  138.3890 C   0  0  0  0  0  3  0  0  0  0  0  0
  183.1980  175.5450  138.9450 C   0  0  0  0  0  3  0  0  0  0  0  0
  182.2530  175.9800  139.8910 C   0  0  0  0  0  3  0  0  0  0  0  0
  183.3420  176.2030  137.7310 C   0  0  0  0  0  0  0  0  0  0  0  0
  182.5350  177.3220  137.4520 C   0  0  0  0  0  0  0  0  0  0  0  0
  182.6910  178.1160  136.1770 C   0  0  0  0  0  1  0  0  0  0  0  0
  179.4280  178.2510  140.2300 O   0  0  0  0  0  1  0  0  0  0  0  0
  180.6010  177.6790  140.7380 C   0  0  2  0  0  3  0  0  0  0  0  0
  180.7480  179.8260  141.8910 C   0  0  0  0  0  2  0  0  0  0  0  0
  181.3180  178.6600  141.6280 C   0  0  0  0  0  0  0  0  0  0  0  0
  182.7460  178.5970  141.7310 N   0  0  0  0  0  2  0  0  0  0  0  0
  185.3220  179.2300  144.2130 N   0  0  0  0  0  0  0  0  0  0  0  0
  183.4360  179.3430  142.8020 C   0  0  1  0  0  3  0  0  0  0  0  0
  184.1210  179.1440  145.0630 C   0  0  0  0  0  2  0  0  0  0  0  0
  182.9470  178.8720  144.1560 C   0  0  0  0  0  2  0  0  0  0  0  0
  184.9100  179.0400  142.8300 C   0  0  0  0  0  2  0  0  0  0  0  0
  186.3020  178.1810  144.5310 C   0  0  2  0  0  3  0  0  0  0  0  0
  186.3000  177.1440  143.5640 O   0  0  0  0  0  0  0  0  0  0  0  0
  187.5280  176.4450  143.6410 C   0  0  0  0  0  2  0  0  0  0  0  0
  189.8640  176.4900  142.7920 C   0  0  0  0  0  1  0  0  0  0  0  0
  188.4290  176.8350  142.4680 C   0  0  2  0  0  3  0  0  0  0  0  0
  187.5600  178.5010  140.8220 C   0  0  0  0  0  1  0  0  0  0  0  0
  188.3020  178.3280  142.1410 C   0  0  0  0  0  2  0  0  0  0  0  0
  186.0910  177.7120  145.9820 C   0  0  0  0  0  2  0  0  0  0  0  0
  187.9280  177.1930  147.4730 C   0  0  0  0  0  0  0  0  0  0  0  0
  187.5980  178.3520  148.3560 C   0  0  0  0  0  1  0  0  0  0  0  0
  187.2360  176.9220  146.4080 N   0  0  0  0  0  0  0  0  0  0  0  0
  189.0710  176.3030  147.8380 C   0  0  0  0  0  2  0  0  0  0  0  0
  189.9950  176.2050  146.7210 N   0  0  0  0  0  0  0  0  0  0  0  0
  192.2480  175.3760  146.1030 C   0  0  0  0  0  2  0  0  0  0  0  0
  191.4700  177.6320  145.2890 C   0  0  0  0  0  2  0  0  0  0  0  0
  190.3270  177.5710  146.3330 C   0  0  0  0  0  2  0  0  0  0  0  0
  191.2010  175.5280  147.2210 C   0  0  0  0  0  2  0  0  0  0  0  0
  191.9240  176.2260  144.8690 C   0  0  0  0  0  2  0  0  0  0  0  0
  183.9850  174.9460  135.7800 O   0  0  0  0  0  1  0  0  0  0  0  0
  184.4420  175.8030  136.7760 C   0  0  2  0  0  3  0  0  0  0  0  0
  185.7740  174.1280  137.7890 O   0  0  0  0  0  0  0  0  0  0  0  0
  185.6920  175.2990  137.4420 C   0  0  0  0  0  0  0  0  0  0  0  0
  186.6620  176.2860  137.9940 C   0  0  0  0  0  2  0  0  0  0  0  0
  187.8740  176.3570  137.0700 C   0  0  0  0  0  3  0  0  0  0  0  0
  188.2370  175.0590  136.3470 C   0  0  0  0  0  3  0  0  0  0  0  0
  189.5670  174.9680  135.5870 C   0  0  2  0  0  0  0  0  0  0  0  0
  189.8640  176.2500  134.8260 C   0  0  0  0  0  1  0  0  0  0  0  0
  189.4770  173.8860  134.6890 O   0  0  0  0  0  1  0  0  0  0  0  0
  190.6410  174.7650  136.5890 N   0  0  0  0  0  2  0  0  0  0  0  0
  191.9620  175.2240  136.1330 C   0  0  1  0  0  3  0  0  0  0  0  0
  192.8530  175.2600  137.2330 O   0  0  0  0  0  0  0  0  0  0  0  0
  192.1710  175.7450  138.3780 C   0  0  1  0  0  3  0  0  0  0  0  0
  193.1350  176.1140  139.5340 C   0  0  0  0  0  2  0  0  0  0  0  0
  191.1420  176.8450  138.0150 C   0  0  0  0  0  2  0  0  0  0  0  0
  193.7370  177.7130  141.1490 C   0  0  0  0  0  1  0  0  0  0  0  0
  192.8760  177.4750  140.0080 N   0  0  0  0  0  0  0  0  0  0  0  0
  191.4940  177.5030  140.4550 C   0  0  0  0  0  2  0  0  0  0  0  0
  190.5320  177.5040  139.2630 C   0  0  0  0  0  2  0  0  0  0  0  0
  192.4870  174.2340  135.0910 C   0  0  0  0  0  2  0  0  0  0  0  0
  191.0980  172.6810  136.3290 O   0  0  0  0  0  1  0  0  0  0  0  0
  192.2660  172.7650  135.5350 C   0  0  2  0  0  3  0  0  0  0  0  0
  193.4080  172.2730  136.2160 O   0  0  0  0  0  0  0  0  0  0  0  0
  194.5620  172.7380  135.5590 C   0  0  2  0  0  3  0  0  0  0  0  0
  194.5000  170.3880  135.1750 C   0  0  0  0  0  2  0  0  0  0  0  0
  195.0640  171.6650  134.6700 N   0  0  0  0  0  0  0  0  0  0  0  0
  195.8720  170.7610  135.5070 C   0  0  0  0  0  2  0  0  0  0  0  0
  195.6520  173.1900  136.5470 C   0  0  0  0  0  2  0  0  0  0  0  0
  197.6750  173.2690  135.2790 O   0  0  0  0  0  0  0  0  0  0  0  0
  196.8030  173.8860  135.8690 C   0  0  0  0  0  0  0  0  0  0  0  0
  195.6890  175.8950  135.3280 O   0  0  0  0  0  1  0  0  0  0  0  0
  196.8400  175.3800  135.9380 C   0  0  2  0  0  3  0  0  0  0  0  0
  198.0340  175.8940  135.2770 N   0  0  0  0  0  1  0  0  0  0  0  0
  1  4  1  0  0  0  0
  1  9  1  0  0  0  0
  2  1  2  0  0  0  0
  3  4  2  0  0  0  0
  5  3  1  0  0  0  0
  6  5  2  0  0  0  0
  6  2  1  0  0  0  0
  7  6  1  0  0  0  0
  9  8  1  6  0  0  0
  9 11  1  0  0  0  0
 11 12  1  0  0  0  0
 11 10  2  0  0  0  0
 13 18  1  0  0  0  0
 13 15  1  0  0  0  0
 14 12  1  6  0  0  0
 14 17  1  0  0  0  0
 14 16  1  0  0  0  0
 16 15  1  0  0  0  0
 17 13  1  0  0  0  0
 18 25  1  1  0  0  0
 19 20  1  0  0  0  0
 19 18  1  0  0  0  0
 22 21  1  1  0  0  0
 22 20  1  0  0  0  0
 23 24  1  0  0  0  0
 24 22  1  0  0  0  0
 25 28  1  0  0  0  0
 26 29  1  0  0  0  0
 26 27  1  0  0  0  0
 28 26  2  0  0  0  0
 30 34  1  0  0  0  0
 30 29  1  0  0  0  0
 31 34  1  0  0  0  0
 32 33  1  0  0  0  0
 33 30  1  0  0  0  0
 35 32  1  0  0  0  0
 35 31  1  0  0  0  0
 37 36  1  6  0  0  0
 37 39  1  0  0  0  0
 37  5  1  0  0  0  0
 39 38  2  0  0  0  0
 39 40  1  0  0  0  0
 41 40  1  0  0  0  0
 42 41  2  0  0  0  0
 43 44  1  6  0  0  0
 43 42  1  0  0  0  0
 43 46  1  0  0  0  0
 45 43  1  0  0  0  0
 47 56  1  6  0  0  0
 47 46  1  0  0  0  0
 47 48  1  0  0  0  0
 49 48  1  6  0  0  0
 49 50  1  0  0  0  0
 50 53  1  0  0  0  0
 51 49  1  0  0  0  0
 51 55  1  0  0  0  0
 53 54  1  0  0  0  0
 53 52  1  0  0  0  0
 55 54  1  0  0  0  0
 56 58  1  0  0  0  0
 58 59  1  0  0  0  0
 58 57  1  1  0  0  0
 60 59  1  0  0  0  0
 60 64  1  1  0  0  0
 61 63  1  0  0  0  0
 62 61  1  0  0  0  0
 62 63  1  0  0  0  0
 62 60  1  0  0  0  0
 65 66  2  0  0  0  0
 66 68  1  0  0  0  0
 66 64  1  0  0  0  0
 67 68  1  0  0  0  0
 68 69  1  6  0  0  0
M  END
>  <MODEL>
7

>  <REMARK>
 VINA RESULT:      -3.1      2.767     10.372
  Name = 
  31 active torsions:
  status: ('A' for Active; 'I' for Inactive)
    1  A    between atoms: C_2  and  C_11
    2  A    between atoms: C_2  and  C_42
    3  A    between atoms: N_3  and  C_30
    4  A    between atoms: C_5  and  C_39
    5  A    between atoms: C_5  and  C_48
    6  A    between atoms: C_6  and  C_29
    7  A    between atoms: C_6  and  N_60
    8  A    between atoms: C_7  and  O_19
    9  A    between atoms: N_9  and  C_29
   10  A    between atoms: C_11  and  C_55
   11  A    between atoms: O_12  and  C_48
   12  A    between atoms: O_12  and  C_54
   13  A    between atoms: C_14  and  N_15
   14  A    between atoms: N_15  and  C_31
   15  A    between atoms: N_17  and  C_20
   16  A    between atoms: N_17  and  C_39
   17  A    between atoms: C_18  and  C_40
   18  A    between atoms: O_19  and  C_39
   19  A    between atoms: C_20  and  C_55
   20  A    between atoms: C_21  and  C_37
   21  A    between atoms: C_21  and  C_42
   22  A    between atoms: C_27  and  C_54
   23  A    between atoms: C_27  and  C_68
   24  A    between atoms: C_29  and  O_57
   25  A    between atoms: C_30  and  C_41
   26  A    between atoms: C_31  and  C_40
   27  A    between atoms: C_34  and  C_68
   28  A    between atoms: N_38  and  C_54
   29  A    between atoms: C_43  and  C_56
   30  A    between atoms: C_56  and  C_69
   31  A    between atoms: O_57  and  C_69
                            x       y       z     vdW  Elec       q    Type
                         _______ _______ _______ _____ _____    ______ ____

>  <TORSDO>
F 31

$$$$
=
 OpenBabel10222415103D

 69 73  0  0  1  0  0  0  0  0999 V2000
  189.1870  176.7500  145.4800 C   0  0  0  0  0  0  0  0  0  0  0  0
  188.3560  177.5630  146.2740 C   0  0  0  0  0  3  0  0  0  0  0  0
  187.4980  176.8040  143.7240 C   0  0  0  0  0  3  0  0  0  0  0  0
  188.7510  176.3760  144.1950 C   0  0  0  0  0  3  0  0  0  0  0  0
  186.6740  177.5920  144.5150 C   0  0  0  0  0  0  0  0  0  0  0  0
  187.1060  177.9720  145.8000 C   0  0  0  0  0  0  0  0  0  0  0  0
  186.2810  178.8820  146.6790 C   0  0  0  0  0  1  0  0  0  0  0  0
  190.9960  177.2410  146.9790 O   0  0  0  0  0  1  0  0  0  0  0  0
  190.6290  176.4730  145.8680 C   0  0  2  0  0  3  0  0  0  0  0  0
  192.5620  177.5810  144.8710 C   0  0  0  0  0  2  0  0  0  0  0  0
  191.6340  176.6450  144.7590 C   0  0  0  0  0  0  0  0  0  0  0  0
  191.2880  176.2290  143.4310 N   0  0  0  0  0  2  0  0  0  0  0  0
  190.7200  177.4790  140.0680 N   0  0  0  0  0  0  0  0  0  0  0  0
  191.3660  177.1950  142.3180 C   0  0  1  0  0  3  0  0  0  0  0  0
  192.1920  177.4210  140.1070 C   0  0  0  0  0  2  0  0  0  0  0  0
  192.5860  176.9040  141.4680 C   0  0  0  0  0  2  0  0  0  0  0  0
  190.2170  177.0340  141.3600 C   0  0  0  0  0  2  0  0  0  0  0  0
  190.1580  176.5860  139.0440 C   0  0  2  0  0  3  0  0  0  0  0  0
  191.1300  176.2010  138.0850 O   0  0  0  0  0  0  0  0  0  0  0  0
  191.3090  174.7990  138.1550 C   0  0  0  0  0  2  0  0  0  0  0  0
  193.6860  174.1110  137.9090 C   0  0  0  0  0  1  0  0  0  0  0  0
  192.3910  174.3580  137.1680 C   0  0  2  0  0  3  0  0  0  0  0  0
  193.4010  174.7940  134.9250 C   0  0  0  0  0  1  0  0  0  0  0  0
  192.6000  175.4060  136.0670 C   0  0  0  0  0  2  0  0  0  0  0  0
  188.8870  177.2250  138.4540 C   0  0  0  0  0  2  0  0  0  0  0  0
  187.7620  176.9480  136.3270 C   0  0  0  0  0  0  0  0  0  0  0  0
  187.4000  178.3970  136.2790 C   0  0  0  0  0  1  0  0  0  0  0  0
  188.4320  176.4400  137.3170 N   0  0  0  0  0  0  0  0  0  0  0  0
  187.3630  176.0610  135.1930 C   0  0  0  0  0  2  0  0  0  0  0  0
  187.6650  174.6770  135.5210 N   0  0  0  0  0  0  0  0  0  0  0  0
  189.3470  172.8940  135.1530 C   0  0  0  0  0  2  0  0  0  0  0  0
  186.8880  172.3510  135.0280 C   0  0  0  0  0  2  0  0  0  0  0  0
  186.5960  173.8690  134.9440 C   0  0  0  0  0  2  0  0  0  0  0  0
  188.9400  174.3500  134.8640 C   0  0  0  0  0  2  0  0  0  0  0  0
  188.2070  172.0700  135.7630 C   0  0  0  0  0  2  0  0  0  0  0  0
  184.4650  177.1420  143.6670 O   0  0  0  0  0  1  0  0  0  0  0  0
  185.3840  178.1450  143.9530 C   0  0  2  0  0  3  0  0  0  0  0  0
  185.9880  180.2350  143.0180 O   0  0  0  0  0  0  0  0  0  0  0  0
  185.5650  179.1060  142.8110 C   0  0  0  0  0  0  0  0  0  0  0  0
  184.9040  178.8090  141.5090 C   0  0  0  0  0  2  0  0  0  0  0  0
  183.7060  179.7380  141.3400 C   0  0  0  0  0  2  0  0  0  0  0  0
  182.6180  179.2540  140.3800 C   0  0  0  0  0  2  0  0  0  0  0  0
  181.9840  177.8740  140.5960 C   0  0  2  0  0  0  0  0  0  0  0  0
  180.9500  177.9020  141.7100 C   0  0  0  0  0  1  0  0  0  0  0  0
  183.0160  176.9720  140.9230 O   0  0  0  0  0  1  0  0  0  0  0  0
  181.2970  177.4960  139.3380 N   0  0  0  0  0  2  0  0  0  0  0  0
  179.8330  177.6170  139.4090 C   0  0  1  0  0  3  0  0  0  0  0  0
  179.4710  178.9850  139.3650 O   0  0  0  0  0  0  0  0  0  0  0  0
  180.0340  179.5850  138.2090 C   0  0  1  0  0  3  0  0  0  0  0  0
  179.8710  178.7080  136.9420 C   0  0  0  0  0  2  0  0  0  0  0  0
  179.5780  181.0570  138.0420 C   0  0  0  0  0  2  0  0  0  0  0  0
  179.2400  178.6330  134.6790 C   0  0  0  0  0  1  0  0  0  0  0  0
  179.2670  179.4790  135.8540 N   0  0  0  0  0  0  0  0  0  0  0  0
  180.1530  180.6010  135.5990 C   0  0  0  0  0  2  0  0  0  0  0  0
  180.0330  181.6570  136.7020 C   0  0  0  0  0  2  0  0  0  0  0  0
  179.2250  176.8950  138.2050 C   0  0  0  0  0  2  0  0  0  0  0  0
  179.6820  175.4300  136.3300 O   0  0  0  0  0  1  0  0  0  0  0  0
  180.2810  176.0420  137.4570 C   0  0  2  0  0  3  0  0  0  0  0  0
  180.8620  175.0890  138.3320 O   0  0  0  0  0  0  0  0  0  0  0  0
  181.6690  174.2170  137.5790 C   0  0  2  0  0  3  0  0  0  0  0  0
  184.0470  174.3030  137.6880 C   0  0  0  0  0  2  0  0  0  0  0  0
  182.8550  174.9650  137.1010 N   0  0  0  0  0  0  0  0  0  0  0  0
  183.5170  175.5200  138.2950 C   0  0  0  0  0  2  0  0  0  0  0  0
  180.9030  173.5870  136.4020 C   0  0  0  0  0  2  0  0  0  0  0  0
  182.7730  172.8050  135.1380 O   0  0  0  0  0  0  0  0  0  0  0  0
  181.7080  172.5430  135.6720 C   0  0  0  0  0  0  0  0  0  0  0  0
  179.7890  171.1970  135.9390 O   0  0  0  0  0  1  0  0  0  0  0  0
  181.1540  171.1540  135.6290 C   0  0  2  0  0  3  0  0  0  0  0  0
  181.8590  170.2930  136.5720 N   0  0  0  0  0  1  0  0  0  0  0  0
  1  9  1  0  0  0  0
  1  2  1  0  0  0  0
  3  4  1  0  0  0  0
  3  5  2  0  0  0  0
  4  1  2  0  0  0  0
  5  6  1  0  0  0  0
  6  2  2  0  0  0  0
  6  7  1  0  0  0  0
  9  8  1  1  0  0  0
 11 10  2  0  0  0  0
 11  9  1  0  0  0  0
 12 11  1  0  0  0  0
 13 15  1  0  0  0  0
 13 17  1  0  0  0  0
 14 12  1  1  0  0  0
 15 16  1  0  0  0  0
 16 14  1  0  0  0  0
 17 14  1  0  0  0  0
 18 25  1  6  0  0  0
 18 13  1  0  0  0  0
 19 20  1  0  0  0  0
 19 18  1  0  0  0  0
 22 21  1  1  0  0  0
 22 20  1  0  0  0  0
 23 24  1  0  0  0  0
 24 22  1  0  0  0  0
 26 28  2  0  0  0  0
 27 26  1  0  0  0  0
 28 25  1  0  0  0  0
 29 30  1  0  0  0  0
 29 26  1  0  0  0  0
 31 35  1  0  0  0  0
 32 35  1  0  0  0  0
 33 32  1  0  0  0  0
 33 30  1  0  0  0  0
 34 31  1  0  0  0  0
 34 30  1  0  0  0  0
 37 36  1  6  0  0  0
 37  5  1  0  0  0  0
 39 38  2  0  0  0  0
 39 37  1  0  0  0  0
 40 39  1  0  0  0  0
 41 40  1  0  0  0  0
 42 43  1  0  0  0  0
 42 41  1  0  0  0  0
 43 45  1  0  0  0  0
 43 44  1  1  0  0  0
 46 47  1  0  0  0  0
 46 43  1  0  0  0  0
 47 56  1  6  0  0  0
 48 47  1  0  0  0  0
 49 48  1  1  0  0  0
 50 49  1  0  0  0  0
 51 49  1  0  0  0  0
 52 53  1  0  0  0  0
 53 50  1  0  0  0  0
 54 53  1  0  0  0  0
 54 55  1  0  0  0  0
 55 51  1  0  0  0  0
 58 57  1  6  0  0  0
 58 56  1  0  0  0  0
 58 59  1  0  0  0  0
 60 64  1  6  0  0  0
 60 59  1  0  0  0  0
 61 63  1  0  0  0  0
 62 60  1  0  0  0  0
 62 61  1  0  0  0  0
 62 63  1  0  0  0  0
 65 66  2  0  0  0  0
 66 64  1  0  0  0  0
 68 66  1  0  0  0  0
 68 67  1  1  0  0  0
 68 69  1  0  0  0  0
M  END
>  <MODEL>
8

>  <REMARK>
 VINA RESULT:      -1.9      2.178      8.190
  Name = 
  31 active torsions:
  status: ('A' for Active; 'I' for Inactive)
    1  A    between atoms: C_2  and  C_11
    2  A    between atoms: C_2  and  C_42
    3  A    between atoms: N_3  and  C_30
    4  A    between atoms: C_5  and  C_39
    5  A    between atoms: C_5  and  C_48
    6  A    between atoms: C_6  and  C_29
    7  A    between atoms: C_6  and  N_60
    8  A    between atoms: C_7  and  O_19
    9  A    between atoms: N_9  and  C_29
   10  A    between atoms: C_11  and  C_55
   11  A    between atoms: O_12  and  C_48
   12  A    between atoms: O_12  and  C_54
   13  A    between atoms: C_14  and  N_15
   14  A    between atoms: N_15  and  C_31
   15  A    between atoms: N_17  and  C_20
   16  A    between atoms: N_17  and  C_39
   17  A    between atoms: C_18  and  C_40
   18  A    between atoms: O_19  and  C_39
   19  A    between atoms: C_20  and  C_55
   20  A    between atoms: C_21  and  C_37
   21  A    between atoms: C_21  and  C_42
   22  A    between atoms: C_27  and  C_54
   23  A    between atoms: C_27  and  C_68
   24  A    between atoms: C_29  and  O_57
   25  A    between atoms: C_30  and  C_41
   26  A    between atoms: C_31  and  C_40
   27  A    between atoms: C_34  and  C_68
   28  A    between atoms: N_38  and  C_54
   29  A    between atoms: C_43  and  C_56
   30  A    between atoms: C_56  and  C_69
   31  A    between atoms: O_57  and  C_69
                            x       y       z     vdW  Elec       q    Type
                         _______ _______ _______ _____ _____    ______ ____

>  <TORSDO>
F 31

$$$$
