=
 OpenBabel10222421183D

 37 42  0  0  1  0  0  0  0  0999 V2000
  187.9290  176.8240  135.3210 N   0  0  0  0  0  2  0  0  0  0  0  0
  187.4510  177.5130  137.5850 C   0  0  1  0  0  0  0  0  0  0  0  0
  187.3540  176.0010  137.4960 C   0  0  0  0  0  2  0  0  0  0  0  0
  187.3620  175.6810  136.0130 C   0  0  0  0  0  2  0  0  0  0  0  0
  187.5830  177.9760  136.1400 C   0  0  0  0  0  2  0  0  0  0  0  0
  184.3710  179.0640  142.0520 C   0  0  0  0  0  3  0  0  0  0  0  0
  181.7220  178.4000  141.1200 C   0  0  0  0  0  0  0  0  0  0  0  0
  181.9800  178.5300  142.6070 C   0  0  1  0  0  3  0  0  0  0  0  0
  184.1660  178.5160  138.5010 C   0  0  0  0  0  0  0  0  0  0  0  0
  183.4210  178.8530  142.9860 C   0  0  0  0  0  0  0  0  0  0  0  0
  184.8640  178.9440  139.5460 C   0  0  0  0  0  0  0  0  0  0  0  0
  186.1770  178.0400  138.2060 C   0  0  0  0  0  0  0  0  0  0  0  0
  184.9520  177.8970  137.6100 N   0  0  0  0  0  0  0  0  0  0  0  0
  184.0290  178.9850  140.6220 C   0  0  0  0  0  0  0  0  0  0  0  0
  186.1540  178.6350  139.4380 N   0  0  0  0  0  2  0  0  0  0  0  0
  182.8000  178.6180  140.1970 N   0  0  0  0  0  0  0  0  0  0  0  0
  182.8630  178.2610  138.8830 C   0  0  0  0  0  3  0  0  0  0  0  0
  180.5780  178.0750  140.7170 O   0  0  0  0  0  0  0  0  0  0  0  0
  181.0840  179.5200  143.1980 N   0  0  0  0  0  1  0  0  0  0  0  0
  183.7400  178.8970  144.3540 O   0  0  0  0  0  0  0  0  0  0  0  0
  185.0440  178.6660  144.8610 C   0  0  0  0  0  1  0  0  0  0  0  0
  189.0310  179.1400  138.2890 O   0  0  0  0  0  0  0  0  0  0  0  0
  188.6890  177.9670  138.3390 C   0  0  0  0  0  0  0  0  0  0  0  0
  189.5820  176.9480  139.0260 C   0  0  2  0  0  3  0  0  0  0  0  0
  189.5180  176.9550  140.5560 C   0  0  1  0  0  3  0  0  0  0  0  0
  190.7000  177.5790  139.8390 C   0  0  0  0  0  2  0  0  0  0  0  0
  188.6720  178.0140  141.1030 N   0  0  0  0  0  2  0  0  0  0  0  0
  188.0900  177.4790  142.3220 C   0  0  0  0  0  2  0  0  0  0  0  0
  189.1820  176.8440  143.1690 C   0  0  0  0  0  2  0  0  0  0  0  0
  191.9910  177.0060  142.9620 O   0  0  0  0  0  0  0  0  0  0  0  0
  191.9720  179.2000  144.2200 O   0  0  0  0  0  0  0  0  0  0  0  0
  191.4050  177.8150  144.0860 S   0  0  0  0  0  0  0  0  0  0  0  0
  189.6800  177.8120  144.1380 N   0  0  0  0  0  0  0  0  0  0  0  0
  189.6770  177.1530  145.4550 C   0  0  1  0  0  3  0  0  0  0  0  0
  191.1940  176.9870  145.6190 C   0  0  0  0  0  2  0  0  0  0  0  0
  188.1710  177.3470  147.0750 C   0  0  0  0  0  1  0  0  0  0  0  0
  189.2000  178.0480  146.4130 O   0  0  0  0  0  0  0  0  0  0  0  0
  1  4  1  0  0  0  0
  1  5  1  0  0  0  0
  2 12  1  0  0  0  0
  2 23  1  1  0  0  0
  3  2  1  0  0  0  0
  4  3  1  0  0  0  0
  5  2  1  0  0  0  0
  6 10  2  0  0  0  0
  7  8  1  0  0  0  0
  8 10  1  0  0  0  0
  8 19  1  6  0  0  0
  9 17  2  0  0  0  0
  9 11  1  0  0  0  0
 10 20  1  0  0  0  0
 11 14  2  0  0  0  0
 12 15  1  0  0  0  0
 13 12  2  0  0  0  0
 13  9  1  0  0  0  0
 14  6  1  0  0  0  0
 15 11  1  0  0  0  0
 16 14  1  0  0  0  0
 16  7  1  0  0  0  0
 17 16  1  0  0  0  0
 18  7  2  0  0  0  0
 20 21  1  0  0  0  0
 22 23  2  0  0  0  0
 24 23  1  6  0  0  0
 24 26  1  0  0  0  0
 24 25  1  0  0  0  0
 25 27  1  6  0  0  0
 26 25  1  0  0  0  0
 27 28  1  0  0  0  0
 28 29  1  0  0  0  0
 29 33  1  0  0  0  0
 30 32  2  0  0  0  0
 32 33  1  0  0  0  0
 32 31  2  0  0  0  0
 32 35  1  0  0  0  0
 33 34  1  0  0  0  0
 34 35  1  0  0  0  0
 34 37  1  1  0  0  0
 37 36  1  0  0  0  0
M  END
>  <MODEL>
1

>  <REMARK>
 VINA RESULT:      -7.8      0.000      0.000
  Name = 
  9 active torsions:
  status: ('A' for Active; 'I' for Inactive)
    1  A    between atoms: C_6  and  C_35
    2  A    between atoms: C_7  and  N_14
    3  A    between atoms: C_7  and  C_22
    4  A    between atoms: C_8  and  C_18
    5  A    between atoms: C_8  and  C_35
    6  A    between atoms: C_9  and  N_33
    7  A    between atoms: C_13  and  O_17
    8  A    between atoms: C_20  and  O_28
    9  A    between atoms: C_22  and  N_33
                            x       y       z     vdW  Elec       q    Type
                         _______ _______ _______ _____ _____    ______ ____

>  <TORSDO>
F 9

$$$$
=
 OpenBabel10222421183D

 37 42  0  0  1  0  0  0  0  0999 V2000
  192.0690  178.0660  144.8320 N   0  0  0  0  0  2  0  0  0  0  0  0
  190.1720  177.6210  143.4060 C   0  0  1  0  0  0  0  0  0  0  0  0
  190.5700  179.0780  143.2610 C   0  0  0  0  0  2  0  0  0  0  0  0
  191.5460  179.3460  144.3920 C   0  0  0  0  0  2  0  0  0  0  0  0
  191.0030  177.1100  144.5760 C   0  0  0  0  0  2  0  0  0  0  0  0
  184.7470  178.1400  141.9430 C   0  0  0  0  0  3  0  0  0  0  0  0
  183.5970  178.9430  144.4640 C   0  0  0  0  0  0  0  0  0  0  0  0
  182.8580  179.2440  143.1770 C   0  0  1  0  0  3  0  0  0  0  0  0
  186.8920  177.5670  144.7750 C   0  0  0  0  0  0  0  0  0  0  0  0
  183.5720  178.8040  141.9050 C   0  0  0  0  0  0  0  0  0  0  0  0
  186.6330  177.3730  143.4870 C   0  0  0  0  0  0  0  0  0  0  0  0
  188.6950  177.5560  143.7230 C   0  0  0  0  0  0  0  0  0  0  0  0
  188.2050  177.7210  144.9910 N   0  0  0  0  0  0  0  0  0  0  0  0
  185.3730  177.8250  143.2370 C   0  0  0  0  0  0  0  0  0  0  0  0
  187.7440  177.3940  142.7530 N   0  0  0  0  0  2  0  0  0  0  0  0
  184.8560  178.2540  144.4090 N   0  0  0  0  0  0  0  0  0  0  0  0
  185.8030  178.1610  145.3840 C   0  0  0  0  0  3  0  0  0  0  0  0
  183.1130  179.3240  145.5590 O   0  0  0  0  0  0  0  0  0  0  0  0
  181.5170  178.6700  143.2090 N   0  0  0  0  0  1  0  0  0  0  0  0
  182.9780  179.1370  140.6750 O   0  0  0  0  0  0  0  0  0  0  0  0
  183.7160  179.3620  139.4850 C   0  0  0  0  0  1  0  0  0  0  0  0
  190.3780  175.5880  142.1960 O   0  0  0  0  0  0  0  0  0  0  0  0
  190.5340  176.8000  142.1790 C   0  0  0  0  0  0  0  0  0  0  0  0
  191.2240  177.4590  140.9960 C   0  0  2  0  0  3  0  0  0  0  0  0
  190.3310  177.7010  139.7760 C   0  0  1  0  0  3  0  0  0  0  0  0
  191.3250  176.5540  139.7800 C   0  0  0  0  0  2  0  0  0  0  0  0
  188.9790  177.1660  139.9230 N   0  0  0  0  0  2  0  0  0  0  0  0
  188.1390  177.9340  139.0200 C   0  0  0  0  0  2  0  0  0  0  0  0
  188.1880  177.3120  137.6310 C   0  0  0  0  0  2  0  0  0  0  0  0
  190.4020  176.2190  136.2670 O   0  0  0  0  0  0  0  0  0  0  0  0
  190.0880  174.0250  137.4840 O   0  0  0  0  0  0  0  0  0  0  0  0
  189.4390  175.1970  136.8040 S   0  0  0  0  0  0  0  0  0  0  0  0
  188.1500  175.8590  137.7410 N   0  0  0  0  0  0  0  0  0  0  0  0
  187.1440  175.3750  136.7810 C   0  0  1  0  0  3  0  0  0  0  0  0
  188.1030  174.7540  135.7560 C   0  0  0  0  0  2  0  0  0  0  0  0
  185.0710  174.5930  136.9290 C   0  0  0  0  0  1  0  0  0  0  0  0
  186.3870  174.3680  137.3810 O   0  0  0  0  0  0  0  0  0  0  0  0
  2 23  1  6  0  0  0
  2 12  1  0  0  0  0
  2  5  1  0  0  0  0
  3  2  1  0  0  0  0
  3  4  1  0  0  0  0
  4  1  1  0  0  0  0
  5  1  1  0  0  0  0
  6 14  1  0  0  0  0
  7 18  2  0  0  0  0
  8 19  1  1  0  0  0
  8  7  1  0  0  0  0
  9 13  1  0  0  0  0
  9 17  2  0  0  0  0
 10  6  2  0  0  0  0
 10  8  1  0  0  0  0
 11  9  1  0  0  0  0
 12 13  2  0  0  0  0
 14 11  2  0  0  0  0
 14 16  1  0  0  0  0
 15 11  1  0  0  0  0
 15 12  1  0  0  0  0
 16  7  1  0  0  0  0
 16 17  1  0  0  0  0
 20 10  1  0  0  0  0
 21 20  1  0  0  0  0
 23 22  2  0  0  0  0
 24 23  1  1  0  0  0
 25 26  1  0  0  0  0
 25 27  1  1  0  0  0
 25 24  1  0  0  0  0
 26 24  1  0  0  0  0
 28 27  1  0  0  0  0
 29 33  1  0  0  0  0
 29 28  1  0  0  0  0
 30 32  2  0  0  0  0
 32 31  2  0  0  0  0
 32 33  1  0  0  0  0
 34 37  1  1  0  0  0
 34 33  1  0  0  0  0
 35 34  1  0  0  0  0
 35 32  1  0  0  0  0
 36 37  1  0  0  0  0
M  END
>  <MODEL>
2

>  <REMARK>
 VINA RESULT:      -7.4      2.572      6.394
  Name = 
  9 active torsions:
  status: ('A' for Active; 'I' for Inactive)
    1  A    between atoms: C_6  and  C_35
    2  A    between atoms: C_7  and  N_14
    3  A    between atoms: C_7  and  C_22
    4  A    between atoms: C_8  and  C_18
    5  A    between atoms: C_8  and  C_35
    6  A    between atoms: C_9  and  N_33
    7  A    between atoms: C_13  and  O_17
    8  A    between atoms: C_20  and  O_28
    9  A    between atoms: C_22  and  N_33
                            x       y       z     vdW  Elec       q    Type
                         _______ _______ _______ _____ _____    ______ ____

>  <TORSDO>
F 9

$$$$
=
 OpenBabel10222421183D

 37 42  0  0  1  0  0  0  0  0999 V2000
  187.8110  179.2930  136.8600 N   0  0  0  0  0  2  0  0  0  0  0  0
  188.9330  177.3970  137.8450 C   0  0  1  0  0  0  0  0  0  0  0  0
  187.4340  177.1750  137.9140 C   0  0  0  0  0  2  0  0  0  0  0  0
  186.8100  178.5140  137.5660 C   0  0  0  0  0  2  0  0  0  0  0  0
  189.0890  178.8410  137.3870 C   0  0  0  0  0  2  0  0  0  0  0  0
  188.3910  176.9970  143.4480 C   0  0  0  0  0  3  0  0  0  0  0  0
  190.9370  178.0550  144.2990 C   0  0  0  0  0  0  0  0  0  0  0  0
  189.7710  178.0470  145.2650 C   0  0  1  0  0  3  0  0  0  0  0  0
  190.8530  177.1650  140.8280 C   0  0  0  0  0  0  0  0  0  0  0  0
  188.4680  177.4950  144.6990 C   0  0  0  0  0  0  0  0  0  0  0  0
  189.6710  176.7310  141.2510 C   0  0  0  0  0  0  0  0  0  0  0  0
  189.5120  177.2030  139.2280 C   0  0  0  0  0  0  0  0  0  0  0  0
  190.8100  177.5120  139.5350 N   0  0  0  0  0  0  0  0  0  0  0  0
  189.5860  176.9770  142.5890 C   0  0  0  0  0  0  0  0  0  0  0  0
  188.7570  176.7680  140.2840 N   0  0  0  0  0  2  0  0  0  0  0  0
  190.7590  177.5260  142.9750 N   0  0  0  0  0  0  0  0  0  0  0  0
  191.5550  177.7120  141.8850 C   0  0  0  0  0  3  0  0  0  0  0  0
  192.0350  178.5480  144.6580 O   0  0  0  0  0  0  0  0  0  0  0  0
  190.1210  177.3250  146.4850 N   0  0  0  0  0  1  0  0  0  0  0  0
  187.3290  177.5460  145.5200 O   0  0  0  0  0  0  0  0  0  0  0  0
  186.0680  178.0260  145.0810 C   0  0  0  0  0  1  0  0  0  0  0  0
  189.6750  176.8740  135.6500 O   0  0  0  0  0  0  0  0  0  0  0  0
  189.6010  176.5030  136.8120 C   0  0  0  0  0  0  0  0  0  0  0  0
  190.0390  175.0970  137.1880 C   0  0  2  0  0  3  0  0  0  0  0  0
  191.5480  174.8460  137.1160 C   0  0  1  0  0  3  0  0  0  0  0  0
  190.6340  174.3220  136.0240 C   0  0  0  0  0  2  0  0  0  0  0  0
  192.3080  175.9840  136.6030 N   0  0  0  0  0  2  0  0  0  0  0  0
  193.3540  175.4260  135.7620 C   0  0  0  0  0  2  0  0  0  0  0  0
  194.6940  176.0330  136.1500 C   0  0  0  0  0  2  0  0  0  0  0  0
  197.4480  176.4600  135.7090 O   0  0  0  0  0  0  0  0  0  0  0  0
  198.0020  175.1270  137.7860 O   0  0  0  0  0  0  0  0  0  0  0  0
  197.1350  175.2640  136.5670 S   0  0  0  0  0  0  0  0  0  0  0  0
  195.4600  175.0740  136.9350 N   0  0  0  0  0  0  0  0  0  0  0  0
  195.4050  173.7850  136.2240 C   0  0  1  0  0  3  0  0  0  0  0  0
  196.8560  173.7500  135.7250 C   0  0  0  0  0  2  0  0  0  0  0  0
  194.2590  171.9100  136.5440 C   0  0  0  0  0  1  0  0  0  0  0  0
  195.2060  172.7600  137.1510 O   0  0  0  0  0  0  0  0  0  0  0  0
  1  5  1  0  0  0  0
  1  4  1  0  0  0  0
  2 23  1  6  0  0  0
  2  3  1  0  0  0  0
  2 12  1  0  0  0  0
  4  3  1  0  0  0  0
  5  2  1  0  0  0  0
  6 10  2  0  0  0  0
  7 18  2  0  0  0  0
  7  8  1  0  0  0  0
  8 19  1  1  0  0  0
  9 11  1  0  0  0  0
  9 17  2  0  0  0  0
 10  8  1  0  0  0  0
 10 20  1  0  0  0  0
 11 14  2  0  0  0  0
 12 13  2  0  0  0  0
 12 15  1  0  0  0  0
 13  9  1  0  0  0  0
 14 16  1  0  0  0  0
 14  6  1  0  0  0  0
 15 11  1  0  0  0  0
 16  7  1  0  0  0  0
 17 16  1  0  0  0  0
 21 20  1  0  0  0  0
 22 23  2  0  0  0  0
 24 23  1  6  0  0  0
 25 27  1  6  0  0  0
 25 24  1  0  0  0  0
 26 25  1  0  0  0  0
 26 24  1  0  0  0  0
 28 29  1  0  0  0  0
 28 27  1  0  0  0  0
 29 33  1  0  0  0  0
 30 32  2  0  0  0  0
 32 33  1  0  0  0  0
 32 31  2  0  0  0  0
 34 33  1  0  0  0  0
 34 37  1  1  0  0  0
 35 34  1  0  0  0  0
 35 32  1  0  0  0  0
 36 37  1  0  0  0  0
M  END
>  <MODEL>
3

>  <REMARK>
 VINA RESULT:      -7.0      4.419      7.484
  Name = 
  9 active torsions:
  status: ('A' for Active; 'I' for Inactive)
    1  A    between atoms: C_6  and  C_35
    2  A    between atoms: C_7  and  N_14
    3  A    between atoms: C_7  and  C_22
    4  A    between atoms: C_8  and  C_18
    5  A    between atoms: C_8  and  C_35
    6  A    between atoms: C_9  and  N_33
    7  A    between atoms: C_13  and  O_17
    8  A    between atoms: C_20  and  O_28
    9  A    between atoms: C_22  and  N_33
                            x       y       z     vdW  Elec       q    Type
                         _______ _______ _______ _____ _____    ______ ____

>  <TORSDO>
F 9

$$$$
=
 OpenBabel10222421183D

 37 42  0  0  1  0  0  0  0  0999 V2000
  187.7910  176.5940  135.0710 N   0  0  0  0  0  2  0  0  0  0  0  0
  187.3300  177.3590  137.3140 C   0  0  1  0  0  0  0  0  0  0  0  0
  187.2870  175.8430  137.2880 C   0  0  0  0  0  2  0  0  0  0  0  0
  187.2800  175.4610  135.8200 C   0  0  0  0  0  2  0  0  0  0  0  0
  187.4190  177.7650  135.8490 C   0  0  0  0  0  2  0  0  0  0  0  0
  184.3840  179.3440  141.6980 C   0  0  0  0  0  3  0  0  0  0  0  0
  181.7650  178.3020  141.0870 C   0  0  0  0  0  0  0  0  0  0  0  0
  182.0970  178.6980  142.5100 C   0  0  1  0  0  3  0  0  0  0  0  0
  184.0220  178.2030  138.3050 C   0  0  0  0  0  0  0  0  0  0  0  0
  183.5180  179.2060  142.7240 C   0  0  0  0  0  0  0  0  0  0  0  0
  184.7350  178.8580  139.2140 C   0  0  0  0  0  0  0  0  0  0  0  0
  186.0500  177.8650  137.9380 C   0  0  0  0  0  0  0  0  0  0  0  0
  184.8110  177.5180  137.4660 N   0  0  0  0  0  0  0  0  0  0  0  0
  183.9670  179.0010  140.3300 C   0  0  0  0  0  0  0  0  0  0  0  0
  186.0410  178.6510  139.0580 N   0  0  0  0  0  2  0  0  0  0  0  0
  182.7580  178.4600  140.0610 N   0  0  0  0  0  0  0  0  0  0  0  0
  182.7770  177.8990  138.8200 C   0  0  0  0  0  3  0  0  0  0  0  0
  180.6360  177.8150  140.8280 O   0  0  0  0  0  0  0  0  0  0  0  0
  181.1440  179.6880  143.0030 N   0  0  0  0  0  1  0  0  0  0  0  0
  183.9130  179.5030  144.0390 O   0  0  0  0  0  0  0  0  0  0  0  0
  183.5550  178.7120  145.1610 C   0  0  0  0  0  1  0  0  0  0  0  0
  188.8680  179.0670  137.9110 O   0  0  0  0  0  0  0  0  0  0  0  0
  188.5650  177.8880  138.0240 C   0  0  0  0  0  0  0  0  0  0  0  0
  189.5000  176.9320  138.7450 C   0  0  2  0  0  3  0  0  0  0  0  0
  189.3070  176.8560  140.2630 C   0  0  1  0  0  3  0  0  0  0  0  0
  190.4720  177.6330  139.6790 C   0  0  0  0  0  2  0  0  0  0  0  0
  188.3100  177.7950  140.7750 N   0  0  0  0  0  2  0  0  0  0  0  0
  188.6930  178.0820  142.1470 C   0  0  0  0  0  2  0  0  0  0  0  0
  187.7870  177.3120  143.0970 C   0  0  0  0  0  2  0  0  0  0  0  0
  186.9710  178.5020  145.5210 O   0  0  0  0  0  0  0  0  0  0  0  0
  188.0920  176.6480  146.8260 O   0  0  0  0  0  0  0  0  0  0  0  0
  188.1530  177.5810  145.6500 S   0  0  0  0  0  0  0  0  0  0  0  0
  188.5760  176.7610  144.1910 N   0  0  0  0  0  0  0  0  0  0  0  0
  189.8940  177.4180  144.1530 C   0  0  1  0  0  3  0  0  0  0  0  0
  189.7350  178.2990  145.4000 C   0  0  0  0  0  2  0  0  0  0  0  0
  191.7070  176.5230  143.2350 C   0  0  0  0  0  1  0  0  0  0  0  0
  190.8860  176.4640  144.3810 O   0  0  0  0  0  0  0  0  0  0  0  0
  1  4  1  0  0  0  0
  1  5  1  0  0  0  0
  2 12  1  0  0  0  0
  2 23  1  1  0  0  0
  3  2  1  0  0  0  0
  4  3  1  0  0  0  0
  5  2  1  0  0  0  0
  6 10  2  0  0  0  0
  7  8  1  0  0  0  0
  8 10  1  0  0  0  0
  8 19  1  6  0  0  0
  9 17  2  0  0  0  0
  9 11  1  0  0  0  0
 10 20  1  0  0  0  0
 11 14  2  0  0  0  0
 12 15  1  0  0  0  0
 13 12  2  0  0  0  0
 13  9  1  0  0  0  0
 14  6  1  0  0  0  0
 15 11  1  0  0  0  0
 16 14  1  0  0  0  0
 16  7  1  0  0  0  0
 17 16  1  0  0  0  0
 18  7  2  0  0  0  0
 20 21  1  0  0  0  0
 22 23  2  0  0  0  0
 24 23  1  6  0  0  0
 24 26  1  0  0  0  0
 24 25  1  0  0  0  0
 25 27  1  6  0  0  0
 26 25  1  0  0  0  0
 27 28  1  0  0  0  0
 28 29  1  0  0  0  0
 29 33  1  0  0  0  0
 30 32  2  0  0  0  0
 32 31  2  0  0  0  0
 33 32  1  0  0  0  0
 34 33  1  0  0  0  0
 34 37  1  1  0  0  0
 34 35  1  0  0  0  0
 35 32  1  0  0  0  0
 36 37  1  0  0  0  0
M  END
>  <MODEL>
4

>  <REMARK>
 VINA RESULT:      -6.9      1.172      1.872
  Name = 
  9 active torsions:
  status: ('A' for Active; 'I' for Inactive)
    1  A    between atoms: C_6  and  C_35
    2  A    between atoms: C_7  and  N_14
    3  A    between atoms: C_7  and  C_22
    4  A    between atoms: C_8  and  C_18
    5  A    between atoms: C_8  and  C_35
    6  A    between atoms: C_9  and  N_33
    7  A    between atoms: C_13  and  O_17
    8  A    between atoms: C_20  and  O_28
    9  A    between atoms: C_22  and  N_33
                            x       y       z     vdW  Elec       q    Type
                         _______ _______ _______ _____ _____    ______ ____

>  <TORSDO>
F 9

$$$$
=
 OpenBabel10222421183D

 37 42  0  0  1  0  0  0  0  0999 V2000
  192.0540  175.7250  146.1990 N   0  0  0  0  0  2  0  0  0  0  0  0
  190.5180  177.3070  145.2160 C   0  0  1  0  0  0  0  0  0  0  0  0
  190.9780  177.8350  146.5620 C   0  0  0  0  0  2  0  0  0  0  0  0
  191.6800  176.6710  147.2350 C   0  0  0  0  0  2  0  0  0  0  0  0
  191.0470  175.8800  145.1610 C   0  0  0  0  0  2  0  0  0  0  0  0
  185.6090  178.1950  142.5770 C   0  0  0  0  0  3  0  0  0  0  0  0
  183.9560  179.0000  144.8000 C   0  0  0  0  0  0  0  0  0  0  0  0
  183.5490  179.3790  143.3920 C   0  0  1  0  0  3  0  0  0  0  0  0
  187.0130  177.4180  145.7990 C   0  0  0  0  0  0  0  0  0  0  0  0
  184.5120  178.9300  142.2990 C   0  0  0  0  0  0  0  0  0  0  0  0
  187.0470  177.2730  144.4790 C   0  0  0  0  0  0  0  0  0  0  0  0
  189.0060  177.3240  145.1850 C   0  0  0  0  0  0  0  0  0  0  0  0
  188.2480  177.4850  146.3140 N   0  0  0  0  0  0  0  0  0  0  0  0
  185.9030  177.8080  143.9670 C   0  0  0  0  0  0  0  0  0  0  0  0
  188.2960  177.2460  144.0190 N   0  0  0  0  0  2  0  0  0  0  0  0
  185.1550  178.2370  145.0060 N   0  0  0  0  0  0  0  0  0  0  0  0
  185.8470  178.0610  146.1670 C   0  0  0  0  0  3  0  0  0  0  0  0
  183.2550  179.3820  145.7700 O   0  0  0  0  0  0  0  0  0  0  0  0
  182.2070  178.8880  143.0960 N   0  0  0  0  0  1  0  0  0  0  0  0
  184.2350  179.3300  140.9810 O   0  0  0  0  0  0  0  0  0  0  0  0
  184.9310  178.8350  139.8490 C   0  0  0  0  0  1  0  0  0  0  0  0
  191.0000  179.2940  144.0070 O   0  0  0  0  0  0  0  0  0  0  0  0
  191.1250  178.0780  144.0560 C   0  0  0  0  0  0  0  0  0  0  0  0
  191.7530  177.3340  142.8890 C   0  0  2  0  0  3  0  0  0  0  0  0
  191.0430  177.5170  141.5450 C   0  0  1  0  0  3  0  0  0  0  0  0
  190.8670  176.2320  142.3330 C   0  0  0  0  0  2  0  0  0  0  0  0
  189.8160  178.3070  141.6320 N   0  0  0  0  0  2  0  0  0  0  0  0
  188.8650  177.6760  140.7340 C   0  0  0  0  0  2  0  0  0  0  0  0
  189.3170  177.8760  139.2940 C   0  0  0  0  0  2  0  0  0  0  0  0
  191.7460  176.7410  138.4170 O   0  0  0  0  0  0  0  0  0  0  0  0
  190.5670  174.5570  137.9310 O   0  0  0  0  0  0  0  0  0  0  0  0
  190.5150  176.0580  137.8870 S   0  0  0  0  0  0  0  0  0  0  0  0
  189.0330  176.6750  138.5180 N   0  0  0  0  0  0  0  0  0  0  0  0
  188.5960  177.1130  137.1820 C   0  0  1  0  0  3  0  0  0  0  0  0
  189.8470  176.6980  136.3960 C   0  0  0  0  0  2  0  0  0  0  0  0
  186.5060  177.2630  136.4460 C   0  0  0  0  0  1  0  0  0  0  0  0
  187.5110  176.3320  136.7780 O   0  0  0  0  0  0  0  0  0  0  0  0
  1  4  1  0  0  0  0
  2 23  1  6  0  0  0
  2  3  1  0  0  0  0
  3  4  1  0  0  0  0
  5  2  1  0  0  0  0
  5  1  1  0  0  0  0
  6 14  1  0  0  0  0
  7 16  1  0  0  0  0
  7 18  2  0  0  0  0
  8 19  1  6  0  0  0
  8  7  1  0  0  0  0
  9 17  2  0  0  0  0
  9 13  1  0  0  0  0
 10  6  2  0  0  0  0
 10  8  1  0  0  0  0
 11  9  1  0  0  0  0
 12  2  1  0  0  0  0
 12 13  2  0  0  0  0
 14 11  2  0  0  0  0
 14 16  1  0  0  0  0
 15 11  1  0  0  0  0
 15 12  1  0  0  0  0
 16 17  1  0  0  0  0
 20 10  1  0  0  0  0
 21 20  1  0  0  0  0
 22 23  2  0  0  0  0
 24 23  1  1  0  0  0
 25 27  1  1  0  0  0
 25 26  1  0  0  0  0
 25 24  1  0  0  0  0
 26 24  1  0  0  0  0
 28 27  1  0  0  0  0
 29 28  1  0  0  0  0
 32 31  2  0  0  0  0
 32 30  2  0  0  0  0
 32 33  1  0  0  0  0
 33 29  1  0  0  0  0
 34 37  1  6  0  0  0
 34 33  1  0  0  0  0
 35 34  1  0  0  0  0
 35 32  1  0  0  0  0
 36 37  1  0  0  0  0
M  END
>  <MODEL>
5

>  <REMARK>
 VINA RESULT:      -6.9      2.431      6.733
  Name = 
  9 active torsions:
  status: ('A' for Active; 'I' for Inactive)
    1  A    between atoms: C_6  and  C_35
    2  A    between atoms: C_7  and  N_14
    3  A    between atoms: C_7  and  C_22
    4  A    between atoms: C_8  and  C_18
    5  A    between atoms: C_8  and  C_35
    6  A    between atoms: C_9  and  N_33
    7  A    between atoms: C_13  and  O_17
    8  A    between atoms: C_20  and  O_28
    9  A    between atoms: C_22  and  N_33
                            x       y       z     vdW  Elec       q    Type
                         _______ _______ _______ _____ _____    ______ ____

>  <TORSDO>
F 9

$$$$
=
 OpenBabel10222421183D

 37 42  0  0  1  0  0  0  0  0999 V2000
  187.6970  177.1200  147.0660 N   0  0  0  0  0  2  0  0  0  0  0  0
  187.6320  177.4880  144.6810 C   0  0  1  0  0  0  0  0  0  0  0  0
  188.4720  178.5740  145.3270 C   0  0  0  0  0  2  0  0  0  0  0  0
  188.2140  178.4540  146.8170 C   0  0  0  0  0  2  0  0  0  0  0  0
  186.9900  176.7520  145.8500 C   0  0  0  0  0  2  0  0  0  0  0  0
  182.2640  178.6950  143.4280 C   0  0  0  0  0  3  0  0  0  0  0  0
  182.4220  178.8730  140.5530 C   0  0  0  0  0  0  0  0  0  0  0  0
  181.0840  178.6160  141.2120 C   0  0  1  0  0  3  0  0  0  0  0  0
  185.6210  178.9930  142.1660 C   0  0  0  0  0  0  0  0  0  0  0  0
  181.1230  178.5090  142.7320 C   0  0  0  0  0  0  0  0  0  0  0  0
  184.7900  179.0130  143.2020 C   0  0  0  0  0  0  0  0  0  0  0  0
  186.5820  178.1440  143.8140 C   0  0  0  0  0  0  0  0  0  0  0  0
  186.7880  178.4190  142.4880 N   0  0  0  0  0  0  0  0  0  0  0  0
  183.5150  179.0090  142.7200 C   0  0  0  0  0  0  0  0  0  0  0  0
  185.3310  178.4470  144.2790 N   0  0  0  0  0  2  0  0  0  0  0  0
  183.5920  179.0340  141.3710 N   0  0  0  0  0  0  0  0  0  0  0  0
  184.8980  178.9660  140.9890 C   0  0  0  0  0  3  0  0  0  0  0  0
  182.4970  178.9150  139.3000 O   0  0  0  0  0  0  0  0  0  0  0  0
  180.1130  179.6310  140.8160 N   0  0  0  0  0  1  0  0  0  0  0  0
  179.9270  178.1810  143.3930 O   0  0  0  0  0  0  0  0  0  0  0  0
  179.3040  179.0240  144.3490 C   0  0  0  0  0  1  0  0  0  0  0  0
  187.9300  175.6420  143.2170 O   0  0  0  0  0  0  0  0  0  0  0  0
  188.4770  176.4900  143.9060 C   0  0  0  0  0  0  0  0  0  0  0  0
  189.9830  176.4510  144.1020 C   0  0  2  0  0  3  0  0  0  0  0  0
  190.8000  177.1270  142.9960 C   0  0  1  0  0  3  0  0  0  0  0  0
  190.7030  175.6140  143.0570 C   0  0  0  0  0  2  0  0  0  0  0  0
  189.9880  177.6170  141.8830 N   0  0  0  0  0  2  0  0  0  0  0  0
  190.8100  177.4820  140.6930 C   0  0  0  0  0  2  0  0  0  0  0  0
  190.0200  176.7620  139.6100 C   0  0  0  0  0  2  0  0  0  0  0  0
  187.7960  178.4590  139.2460 O   0  0  0  0  0  0  0  0  0  0  0  0
  189.0560  179.7560  137.4780 O   0  0  0  0  0  0  0  0  0  0  0  0
  188.7400  178.4140  138.0760 S   0  0  0  0  0  0  0  0  0  0  0  0
  190.1600  177.4720  138.3450 N   0  0  0  0  0  0  0  0  0  0  0  0
  189.7920  176.5310  137.2740 C   0  0  1  0  0  3  0  0  0  0  0  0
  188.4480  177.1610  136.8830 C   0  0  0  0  0  2  0  0  0  0  0  0
  191.2210  175.3710  136.0310 C   0  0  0  0  0  1  0  0  0  0  0  0
  190.6940  176.6660  136.2170 O   0  0  0  0  0  0  0  0  0  0  0  0
  2 23  1  6  0  0  0
  2  3  1  0  0  0  0
  2  5  1  0  0  0  0
  3  4  1  0  0  0  0
  4  1  1  0  0  0  0
  5  1  1  0  0  0  0
  7  8  1  0  0  0  0
  7 16  1  0  0  0  0
  8 19  1  1  0  0  0
  8 10  1  0  0  0  0
  9 13  1  0  0  0  0
  9 11  1  0  0  0  0
 10 20  1  0  0  0  0
 10  6  2  0  0  0  0
 11 15  1  0  0  0  0
 12 15  1  0  0  0  0
 12  2  1  0  0  0  0
 13 12  2  0  0  0  0
 14 11  2  0  0  0  0
 14  6  1  0  0  0  0
 16 14  1  0  0  0  0
 17 16  1  0  0  0  0
 17  9  2  0  0  0  0
 18  7  2  0  0  0  0
 20 21  1  0  0  0  0
 22 23  2  0  0  0  0
 24 23  1  6  0  0  0
 25 27  1  6  0  0  0
 25 26  1  0  0  0  0
 25 24  1  0  0  0  0
 26 24  1  0  0  0  0
 28 27  1  0  0  0  0
 29 28  1  0  0  0  0
 31 32  2  0  0  0  0
 32 33  1  0  0  0  0
 32 30  2  0  0  0  0
 33 29  1  0  0  0  0
 34 37  1  6  0  0  0
 34 33  1  0  0  0  0
 35 34  1  0  0  0  0
 35 32  1  0  0  0  0
 36 37  1  0  0  0  0
M  END
>  <MODEL>
6

>  <REMARK>
 VINA RESULT:      -6.9      2.579      6.129
  Name = 
  9 active torsions:
  status: ('A' for Active; 'I' for Inactive)
    1  A    between atoms: C_6  and  C_35
    2  A    between atoms: C_7  and  N_14
    3  A    between atoms: C_7  and  C_22
    4  A    between atoms: C_8  and  C_18
    5  A    between atoms: C_8  and  C_35
    6  A    between atoms: C_9  and  N_33
    7  A    between atoms: C_13  and  O_17
    8  A    between atoms: C_20  and  O_28
    9  A    between atoms: C_22  and  N_33
                            x       y       z     vdW  Elec       q    Type
                         _______ _______ _______ _____ _____    ______ ____

>  <TORSDO>
F 9

$$$$
=
 OpenBabel10222421183D

 37 42  0  0  1  0  0  0  0  0999 V2000
  189.5310  177.2710  137.0980 N   0  0  0  0  0  2  0  0  0  0  0  0
  187.2610  177.5900  137.8540 C   0  0  1  0  0  0  0  0  0  0  0  0
  187.6460  178.7400  136.9440 C   0  0  0  0  0  2  0  0  0  0  0  0
  189.1480  178.6310  136.7640 C   0  0  0  0  0  2  0  0  0  0  0  0
  188.5630  176.8350  138.0910 C   0  0  0  0  0  2  0  0  0  0  0  0
  187.2960  178.0450  143.4790 C   0  0  0  0  0  3  0  0  0  0  0  0
  184.5030  178.5610  143.9820 C   0  0  0  0  0  0  0  0  0  0  0  0
  185.3740  178.0200  145.0960 C   0  0  1  0  0  3  0  0  0  0  0  0
  185.4410  179.0180  140.5530 C   0  0  0  0  0  0  0  0  0  0  0  0
  186.8240  177.7540  144.7100 C   0  0  0  0  0  0  0  0  0  0  0  0
  186.6150  178.7890  141.1310 C   0  0  0  0  0  0  0  0  0  0  0  0
  186.7250  178.1600  139.1480 C   0  0  0  0  0  0  0  0  0  0  0  0
  185.4370  178.6090  139.2770 N   0  0  0  0  0  0  0  0  0  0  0  0
  186.4030  178.6320  142.4680 C   0  0  0  0  0  0  0  0  0  0  0  0
  187.4700  178.2030  140.2950 N   0  0  0  0  0  2  0  0  0  0  0  0
  185.0840  178.8180  142.6940 N   0  0  0  0  0  0  0  0  0  0  0  0
  184.4410  179.0040  141.5070 C   0  0  0  0  0  3  0  0  0  0  0  0
  183.2790  178.7520  144.1910 O   0  0  0  0  0  0  0  0  0  0  0  0
  185.3290  178.9030  146.2570 N   0  0  0  0  0  1  0  0  0  0  0  0
  187.6580  177.1660  145.6760 O   0  0  0  0  0  0  0  0  0  0  0  0
  189.0750  177.2040  145.6140 C   0  0  0  0  0  1  0  0  0  0  0  0
  186.3780  175.4340  137.3930 O   0  0  0  0  0  0  0  0  0  0  0  0
  186.2790  176.6360  137.1950 C   0  0  0  0  0  0  0  0  0  0  0  0
  185.2750  177.1560  136.1790 C   0  0  2  0  0  3  0  0  0  0  0  0
  183.8050  177.0020  136.5810 C   0  0  1  0  0  3  0  0  0  0  0  0
  184.4220  176.0600  135.5630 C   0  0  0  0  0  2  0  0  0  0  0  0
  183.6140  176.2890  137.8420 N   0  0  0  0  0  2  0  0  0  0  0  0
  182.2680  176.6070  138.2870 C   0  0  0  0  0  2  0  0  0  0  0  0
  182.1660  176.3950  139.7900 C   0  0  0  0  0  2  0  0  0  0  0  0
  179.5980  175.5350  140.5790 O   0  0  0  0  0  0  0  0  0  0  0  0
  179.3660  177.5570  142.0800 O   0  0  0  0  0  0  0  0  0  0  0  0
  179.8440  177.0070  140.7670 S   0  0  0  0  0  0  0  0  0  0  0  0
  181.4530  177.5110  140.3970 N   0  0  0  0  0  0  0  0  0  0  0  0
  180.9780  178.3730  139.3020 C   0  0  1  0  0  3  0  0  0  0  0  0
  179.4830  178.0410  139.3950 C   0  0  0  0  0  2  0  0  0  0  0  0
  182.1240  180.1830  138.7170 C   0  0  0  0  0  1  0  0  0  0  0  0
  181.1810  179.7090  139.6520 O   0  0  0  0  0  0  0  0  0  0  0  0
  1  5  1  0  0  0  0
  2 23  1  6  0  0  0
  2  5  1  0  0  0  0
  2 12  1  0  0  0  0
  3  2  1  0  0  0  0
  4  3  1  0  0  0  0
  4  1  1  0  0  0  0
  6 10  2  0  0  0  0
  7 18  2  0  0  0  0
  7  8  1  0  0  0  0
  8 19  1  1  0  0  0
  9 11  1  0  0  0  0
  9 17  2  0  0  0  0
 10  8  1  0  0  0  0
 10 20  1  0  0  0  0
 11 14  2  0  0  0  0
 12 13  2  0  0  0  0
 12 15  1  0  0  0  0
 13  9  1  0  0  0  0
 14 16  1  0  0  0  0
 14  6  1  0  0  0  0
 15 11  1  0  0  0  0
 16  7  1  0  0  0  0
 17 16  1  0  0  0  0
 21 20  1  0  0  0  0
 23 22  2  0  0  0  0
 24 25  1  0  0  0  0
 24 23  1  1  0  0  0
 25 27  1  1  0  0  0
 26 24  1  0  0  0  0
 26 25  1  0  0  0  0
 27 28  1  0  0  0  0
 28 29  1  0  0  0  0
 29 33  1  0  0  0  0
 30 32  2  0  0  0  0
 32 31  2  0  0  0  0
 33 32  1  0  0  0  0
 34 35  1  0  0  0  0
 34 37  1  1  0  0  0
 34 33  1  0  0  0  0
 35 32  1  0  0  0  0
 36 37  1  0  0  0  0
M  END
>  <MODEL>
7

>  <REMARK>
 VINA RESULT:      -6.8      3.033      6.618
  Name = 
  9 active torsions:
  status: ('A' for Active; 'I' for Inactive)
    1  A    between atoms: C_6  and  C_35
    2  A    between atoms: C_7  and  N_14
    3  A    between atoms: C_7  and  C_22
    4  A    between atoms: C_8  and  C_18
    5  A    between atoms: C_8  and  C_35
    6  A    between atoms: C_9  and  N_33
    7  A    between atoms: C_13  and  O_17
    8  A    between atoms: C_20  and  O_28
    9  A    between atoms: C_22  and  N_33
                            x       y       z     vdW  Elec       q    Type
                         _______ _______ _______ _____ _____    ______ ____

>  <TORSDO>
F 9

$$$$
=
 OpenBabel10222421183D

 37 42  0  0  1  0  0  0  0  0999 V2000
  191.2500  174.5200  137.6170 N   0  0  0  0  0  2  0  0  0  0  0  0
  190.3690  176.6580  138.3080 C   0  0  1  0  0  0  0  0  0  0  0  0
  191.8830  176.7410  138.2510 C   0  0  0  0  0  2  0  0  0  0  0  0
  192.3630  175.3090  138.1140 C   0  0  0  0  0  2  0  0  0  0  0  0
  190.0580  175.1790  138.1260 C   0  0  0  0  0  2  0  0  0  0  0  0
  191.1520  177.3920  143.8480 C   0  0  0  0  0  3  0  0  0  0  0  0
  188.4300  177.2320  144.7890 C   0  0  0  0  0  0  0  0  0  0  0  0
  189.5690  176.9780  145.7540 C   0  0  1  0  0  3  0  0  0  0  0  0
  188.6860  177.7310  141.2490 C   0  0  0  0  0  0  0  0  0  0  0  0
  190.9630  177.0580  145.1420 C   0  0  0  0  0  0  0  0  0  0  0  0
  189.9540  177.8260  141.6330 C   0  0  0  0  0  0  0  0  0  0  0  0
  189.9120  177.1440  139.6650 C   0  0  0  0  0  0  0  0  0  0  0  0
  188.5890  177.2690  139.9960 N   0  0  0  0  0  0  0  0  0  0  0  0
  189.9960  177.6910  142.9880 C   0  0  0  0  0  0  0  0  0  0  0  0
  190.7890  177.4270  140.6760 N   0  0  0  0  0  2  0  0  0  0  0  0
  188.7230  177.5570  143.4220 N   0  0  0  0  0  0  0  0  0  0  0  0
  187.8800  177.5200  142.3520 C   0  0  0  0  0  3  0  0  0  0  0  0
  187.2440  177.1270  145.1910 O   0  0  0  0  0  0  0  0  0  0  0  0
  189.4840  177.8810  146.8970 N   0  0  0  0  0  1  0  0  0  0  0  0
  192.0550  176.7420  145.9670 O   0  0  0  0  0  0  0  0  0  0  0  0
  192.0560  175.6640  146.8880 C   0  0  0  0  0  1  0  0  0  0  0  0
  189.9920  177.1470  136.0140 O   0  0  0  0  0  0  0  0  0  0  0  0
  189.7080  177.4210  137.1710 C   0  0  0  0  0  0  0  0  0  0  0  0
  188.8140  178.6130  137.4700 C   0  0  2  0  0  3  0  0  0  0  0  0
  187.3100  178.3280  137.4130 C   0  0  1  0  0  3  0  0  0  0  0  0
  187.9930  179.0620  136.2740 C   0  0  0  0  0  2  0  0  0  0  0  0
  186.9870  176.9690  136.9850 N   0  0  0  0  0  2  0  0  0  0  0  0
  185.5370  176.9000  136.9170 C   0  0  0  0  0  2  0  0  0  0  0  0
  184.9460  177.3580  138.2430 C   0  0  0  0  0  2  0  0  0  0  0  0
  184.9670  179.4260  140.1620 O   0  0  0  0  0  0  0  0  0  0  0  0
  183.4110  180.8010  138.7190 O   0  0  0  0  0  0  0  0  0  0  0  0
  183.7750  179.4420  139.2460 S   0  0  0  0  0  0  0  0  0  0  0  0
  183.8220  178.2520  137.9970 N   0  0  0  0  0  0  0  0  0  0  0  0
  182.6150  177.5910  138.5220 C   0  0  1  0  0  3  0  0  0  0  0  0
  182.3900  178.4870  139.7480 C   0  0  0  0  0  2  0  0  0  0  0  0
  180.9860  176.4890  137.4920 C   0  0  0  0  0  1  0  0  0  0  0  0
  181.5670  177.7670  137.6170 O   0  0  0  0  0  0  0  0  0  0  0  0
  1  4  1  0  0  0  0
  1  5  1  0  0  0  0
  2 23  1  6  0  0  0
  2 12  1  0  0  0  0
  3  2  1  0  0  0  0
  4  3  1  0  0  0  0
  5  2  1  0  0  0  0
  6 10  2  0  0  0  0
  7 18  2  0  0  0  0
  7  8  1  0  0  0  0
  8 19  1  1  0  0  0
  9 11  1  0  0  0  0
  9 17  2  0  0  0  0
 10  8  1  0  0  0  0
 10 20  1  0  0  0  0
 11 14  2  0  0  0  0
 12 13  2  0  0  0  0
 12 15  1  0  0  0  0
 13  9  1  0  0  0  0
 14 16  1  0  0  0  0
 14  6  1  0  0  0  0
 15 11  1  0  0  0  0
 16  7  1  0  0  0  0
 17 16  1  0  0  0  0
 20 21  1  0  0  0  0
 22 23  2  0  0  0  0
 24 23  1  6  0  0  0
 25 27  1  6  0  0  0
 25 24  1  0  0  0  0
 26 25  1  0  0  0  0
 26 24  1  0  0  0  0
 28 27  1  0  0  0  0
 28 29  1  0  0  0  0
 31 32  2  0  0  0  0
 32 35  1  0  0  0  0
 32 30  2  0  0  0  0
 33 29  1  0  0  0  0
 33 34  1  0  0  0  0
 33 32  1  0  0  0  0
 34 37  1  6  0  0  0
 34 35  1  0  0  0  0
 36 37  1  0  0  0  0
M  END
>  <MODEL>
8

>  <REMARK>
 VINA RESULT:      -6.8      2.767      7.091
  Name = 
  9 active torsions:
  status: ('A' for Active; 'I' for Inactive)
    1  A    between atoms: C_6  and  C_35
    2  A    between atoms: C_7  and  N_14
    3  A    between atoms: C_7  and  C_22
    4  A    between atoms: C_8  and  C_18
    5  A    between atoms: C_8  and  C_35
    6  A    between atoms: C_9  and  N_33
    7  A    between atoms: C_13  and  O_17
    8  A    between atoms: C_20  and  O_28
    9  A    between atoms: C_22  and  N_33
                            x       y       z     vdW  Elec       q    Type
                         _______ _______ _______ _____ _____    ______ ____

>  <TORSDO>
F 9

$$$$
=
 OpenBabel10222421183D

 37 42  0  0  1  0  0  0  0  0999 V2000
  190.3980  175.1510  137.8710 N   0  0  0  0  0  2  0  0  0  0  0  0
  189.7370  177.2710  138.8190 C   0  0  1  0  0  0  0  0  0  0  0  0
  191.2510  177.2120  138.7450 C   0  0  0  0  0  2  0  0  0  0  0  0
  191.5860  175.7650  138.4360 C   0  0  0  0  0  2  0  0  0  0  0  0
  189.2800  175.8600  138.4740 C   0  0  0  0  0  2  0  0  0  0  0  0
  190.8230  177.6830  144.3420 C   0  0  0  0  0  3  0  0  0  0  0  0
  188.1770  177.3010  145.4270 C   0  0  0  0  0  0  0  0  0  0  0  0
  189.3860  177.0520  146.3030 C   0  0  1  0  0  3  0  0  0  0  0  0
  188.1840  178.0470  141.9210 C   0  0  0  0  0  0  0  0  0  0  0  0
  190.7330  177.2540  145.6180 C   0  0  0  0  0  0  0  0  0  0  0  0
  189.4660  178.1910  142.2350 C   0  0  0  0  0  0  0  0  0  0  0  0
  189.3400  177.6380  140.2310 C   0  0  0  0  0  0  0  0  0  0  0  0
  188.0350  177.6630  140.6460 N   0  0  0  0  0  0  0  0  0  0  0  0
  189.6010  177.9690  143.5730 C   0  0  0  0  0  0  0  0  0  0  0  0
  190.2610  177.9050  141.2060 N   0  0  0  0  0  2  0  0  0  0  0  0
  188.3670  177.7330  144.0700 N   0  0  0  0  0  0  0  0  0  0  0  0
  187.4620  177.7170  143.0520 C   0  0  0  0  0  3  0  0  0  0  0  0
  187.0260  177.1000  145.8890 O   0  0  0  0  0  0  0  0  0  0  0  0
  189.3230  177.8710  147.5100 N   0  0  0  0  0  1  0  0  0  0  0  0
  191.8900  176.9500  146.3540 O   0  0  0  0  0  0  0  0  0  0  0  0
  192.0240  175.7900  147.1590 C   0  0  0  0  0  1  0  0  0  0  0  0
  189.1840  179.4260  137.9880 O   0  0  0  0  0  0  0  0  0  0  0  0
  189.1470  178.2210  137.7900 C   0  0  0  0  0  0  0  0  0  0  0  0
  188.3830  177.6740  136.5950 C   0  0  2  0  0  3  0  0  0  0  0  0
  186.8910  178.0160  136.5670 C   0  0  1  0  0  3  0  0  0  0  0  0
  187.3480  176.6270  136.9720 C   0  0  0  0  0  2  0  0  0  0  0  0
  186.4310  178.7370  137.7530 N   0  0  0  0  0  2  0  0  0  0  0  0
  185.1670  178.1290  138.1310 C   0  0  0  0  0  2  0  0  0  0  0  0
  184.5400  178.9270  139.2650 C   0  0  0  0  0  2  0  0  0  0  0  0
  181.9920  178.1060  138.3780 O   0  0  0  0  0  0  0  0  0  0  0  0
  182.0310  176.1720  140.0080 O   0  0  0  0  0  0  0  0  0  0  0  0
  182.3570  177.6160  139.7520 S   0  0  0  0  0  0  0  0  0  0  0  0
  183.9610  178.0180  140.2450 N   0  0  0  0  0  0  0  0  0  0  0  0
  183.4600  178.8390  141.3600 C   0  0  1  0  0  3  0  0  0  0  0  0
  181.9580  178.6780  141.0920 C   0  0  0  0  0  2  0  0  0  0  0  0
  184.3250  179.2500  143.3640 C   0  0  0  0  0  1  0  0  0  0  0  0
  183.7870  178.2180  142.5670 O   0  0  0  0  0  0  0  0  0  0  0  0
  1  4  1  0  0  0  0
  1  5  1  0  0  0  0
  2 23  1  6  0  0  0
  2 12  1  0  0  0  0
  3  2  1  0  0  0  0
  4  3  1  0  0  0  0
  5  2  1  0  0  0  0
  6 10  2  0  0  0  0
  7 18  2  0  0  0  0
  7  8  1  0  0  0  0
  8 19  1  1  0  0  0
  9 11  1  0  0  0  0
  9 17  2  0  0  0  0
 10  8  1  0  0  0  0
 10 20  1  0  0  0  0
 11 14  2  0  0  0  0
 12 13  2  0  0  0  0
 12 15  1  0  0  0  0
 13  9  1  0  0  0  0
 14 16  1  0  0  0  0
 14  6  1  0  0  0  0
 15 11  1  0  0  0  0
 16  7  1  0  0  0  0
 17 16  1  0  0  0  0
 20 21  1  0  0  0  0
 23 22  2  0  0  0  0
 24 26  1  0  0  0  0
 24 23  1  1  0  0  0
 25 24  1  0  0  0  0
 25 26  1  0  0  0  0
 25 27  1  1  0  0  0
 27 28  1  0  0  0  0
 28 29  1  0  0  0  0
 29 33  1  0  0  0  0
 30 32  2  0  0  0  0
 32 31  2  0  0  0  0
 32 33  1  0  0  0  0
 32 35  1  0  0  0  0
 33 34  1  0  0  0  0
 34 37  1  1  0  0  0
 35 34  1  0  0  0  0
 37 36  1  0  0  0  0
M  END
>  <MODEL>
9

>  <REMARK>
 VINA RESULT:      -6.7      2.359      6.637
  Name = 
  9 active torsions:
  status: ('A' for Active; 'I' for Inactive)
    1  A    between atoms: C_6  and  C_35
    2  A    between atoms: C_7  and  N_14
    3  A    between atoms: C_7  and  C_22
    4  A    between atoms: C_8  and  C_18
    5  A    between atoms: C_8  and  C_35
    6  A    between atoms: C_9  and  N_33
    7  A    between atoms: C_13  and  O_17
    8  A    between atoms: C_20  and  O_28
    9  A    between atoms: C_22  and  N_33
                            x       y       z     vdW  Elec       q    Type
                         _______ _______ _______ _____ _____    ______ ____

>  <TORSDO>
F 9

$$$$
