=
 OpenBabel10222419463D

 33 36  0  0  1  0  0  0  0  0999 V2000
  187.3280  178.2510  142.2540 C   0  0  0  0  0  3  0  0  0  0  0  0
  186.6610  178.6550  141.0820 C   0  0  0  0  0  0  0  0  0  0  0  0
  189.3530  177.1590  143.1600 O   0  0  0  0  0  0  0  0  0  0  0  0
  190.4450  176.7050  141.1050 C   0  0  0  0  0  2  0  0  0  0  0  0
  187.2520  178.4120  139.8260 C   0  0  0  0  0  3  0  0  0  0  0  0
  188.5620  177.6180  142.1300 C   0  0  0  0  0  0  0  0  0  0  0  0
  190.5370  176.5540  142.6400 C   0  0  1  0  0  3  0  0  0  0  0  0
  189.1360  177.3850  140.9150 C   0  0  0  0  0  0  0  0  0  0  0  0
  188.4980  177.7710  139.7250 C   0  0  0  0  0  0  0  0  0  0  0  0
  188.7620  176.1520  137.8650 C   0  0  0  0  0  3  0  0  0  0  0  0
  188.7050  178.6150  137.3870 C   0  0  0  0  0  0  0  0  0  0  0  0
  187.6510  177.0720  135.8930 C   0  0  0  0  0  0  0  0  0  0  0  0
  189.0910  177.5350  138.3660 C   0  0  1  0  0  3  0  0  0  0  0  0
  189.0430  179.8080  137.6040 O   0  0  0  0  0  0  0  0  0  0  0  0
  186.9030  176.8140  134.7120 N   0  0  0  0  0  1  0  0  0  0  0  0
  187.9550  178.2950  136.2080 N   0  0  0  0  0  0  0  0  0  0  0  0
  188.0900  175.9440  136.7320 C   0  0  0  0  0  3  0  0  0  0  0  0
  185.3870  179.3120  141.1260 N   0  0  0  0  0  2  0  0  0  0  0  0
  184.0730  180.0320  139.1660 N   0  0  0  0  0  0  0  0  0  0  0  0
  184.3290  179.1760  140.1700 C   0  0  0  0  0  0  0  0  0  0  0  0
  183.0260  179.5340  138.5290 N   0  0  0  0  0  2  0  0  0  0  0  0
  182.6160  178.4050  139.0880 N   0  0  0  0  0  0  0  0  0  0  0  0
  183.4220  178.1430  140.1370 C   0  0  0  0  0  3  0  0  0  0  0  0
  191.7590  177.2840  143.1730 C   0  0  0  0  0  2  0  0  0  0  0  0
  191.4170  177.9940  144.3930 N   0  0  0  0  0  2  0  0  0  0  0  0
  189.6030  177.6350  146.5760 N   0  0  0  0  0  2  0  0  0  0  0  0
  191.7590  177.1560  145.4610 N   0  0  0  0  0  2  0  0  0  0  0  0
  190.8640  176.9610  146.5530 C   0  0  0  0  0  0  0  0  0  0  0  0
  191.1910  176.1870  147.4930 O   0  0  0  0  0  0  0  0  0  0  0  0
  188.6540  177.4860  147.6700 C   0  0  1  0  0  3  0  0  0  0  0  0
  189.0670  178.2590  148.7550 O   0  0  0  0  0  1  0  0  0  0  0  0
  187.0130  177.5080  145.7970 C   0  0  0  0  0  1  0  0  0  0  0  0
  187.2790  177.9470  147.2240 C   0  0  0  0  0  2  0  0  0  0  0  0
  2 18  1  0  0  0  0
  2  1  2  0  0  0  0
  4  7  1  0  0  0  0
  5  2  1  0  0  0  0
  6  1  1  0  0  0  0
  6  3  1  0  0  0  0
  7  3  1  0  0  0  0
  7 24  1  1  0  0  0
  8  4  1  0  0  0  0
  8  6  2  0  0  0  0
  9  5  2  0  0  0  0
  9  8  1  0  0  0  0
 10 13  1  0  0  0  0
 11 14  2  0  0  0  0
 11 13  1  0  0  0  0
 12 16  2  0  0  0  0
 12 17  1  0  0  0  0
 13  9  1  1  0  0  0
 15 12  1  0  0  0  0
 16 11  1  0  0  0  0
 17 10  2  0  0  0  0
 19 20  2  0  0  0  0
 20 18  1  0  0  0  0
 21 22  1  0  0  0  0
 21 19  1  0  0  0  0
 22 23  2  0  0  0  0
 23 20  1  0  0  0  0
 24 25  1  0  0  0  0
 25 27  1  0  0  0  0
 26 30  1  0  0  0  0
 27 28  1  0  0  0  0
 28 26  1  0  0  0  0
 28 29  2  0  0  0  0
 30 31  1  1  0  0  0
 32 33  1  0  0  0  0
 33 30  1  0  0  0  0
M  END
>  <MODEL>
1

>  <REMARK>
 VINA RESULT:      -8.6      0.000      0.000
  Name = 
  8 active torsions:
  status: ('A' for Active; 'I' for Inactive)
    1  A    between atoms: N_1  and  C_20
    2  A    between atoms: C_4  and  N_12
    3  A    between atoms: N_7  and  N_25
    4  A    between atoms: C_11  and  N_12
    5  A    between atoms: C_17  and  C_22
    6  A    between atoms: C_17  and  N_25
    7  A    between atoms: C_19  and  C_28
    8  A    between atoms: C_20  and  C_32
                            x       y       z     vdW  Elec       q    Type
                         _______ _______ _______ _____ _____    ______ ____

>  <TORSDO>
F 8

$$$$
=
 OpenBabel10222419463D

 33 36  0  0  1  0  0  0  0  0999 V2000
  186.0410  178.3450  141.7350 C   0  0  0  0  0  3  0  0  0  0  0  0
  186.4620  178.1120  143.0580 C   0  0  0  0  0  0  0  0  0  0  0  0
  186.7730  178.5610  139.3830 O   0  0  0  0  0  0  0  0  0  0  0  0
  189.0940  178.2040  139.7120 C   0  0  0  0  0  2  0  0  0  0  0  0
  187.8290  177.8970  143.3250 C   0  0  0  0  0  3  0  0  0  0  0  0
  187.0000  178.3530  140.7250 C   0  0  0  0  0  0  0  0  0  0  0  0
  188.0030  178.5120  138.6610 C   0  0  1  0  0  3  0  0  0  0  0  0
  188.3230  178.1420  140.9830 C   0  0  0  0  0  0  0  0  0  0  0  0
  188.7800  177.9100  142.2900 C   0  0  0  0  0  0  0  0  0  0  0  0
  190.7690  178.7780  143.4890 C   0  0  0  0  0  3  0  0  0  0  0  0
  190.4500  176.3050  143.2140 C   0  0  0  0  0  0  0  0  0  0  0  0
  191.3530  177.1850  145.2470 C   0  0  0  0  0  0  0  0  0  0  0  0
  190.2250  177.6730  142.6220 C   0  0  1  0  0  3  0  0  0  0  0  0
  190.1750  175.2770  142.5410 O   0  0  0  0  0  0  0  0  0  0  0  0
  191.8660  176.9840  146.5580 N   0  0  0  0  0  1  0  0  0  0  0  0
  190.9760  176.1630  144.5400 N   0  0  0  0  0  0  0  0  0  0  0  0
  191.2780  178.5500  144.7010 C   0  0  0  0  0  3  0  0  0  0  0  0
  185.5360  178.0890  144.1520 N   0  0  0  0  0  2  0  0  0  0  0  0
  185.3350  179.4640  146.1910 N   0  0  0  0  0  0  0  0  0  0  0  0
  185.8280  178.4110  145.5180 C   0  0  0  0  0  0  0  0  0  0  0  0
  185.8500  179.3850  147.4070 N   0  0  0  0  0  2  0  0  0  0  0  0
  186.6410  178.3280  147.5250 N   0  0  0  0  0  0  0  0  0  0  0  0
  186.6520  177.6810  146.3420 C   0  0  0  0  0  3  0  0  0  0  0  0
  187.9420  177.4050  137.6220 C   0  0  0  0  0  2  0  0  0  0  0  0
  189.2530  177.2160  137.0240 N   0  0  0  0  0  2  0  0  0  0  0  0
  191.8940  176.4600  137.8250 N   0  0  0  0  0  2  0  0  0  0  0  0
  189.5800  175.8630  137.1810 N   0  0  0  0  0  2  0  0  0  0  0  0
  190.8890  175.4710  137.5860 C   0  0  0  0  0  0  0  0  0  0  0  0
  191.1500  174.2470  137.7360 O   0  0  0  0  0  0  0  0  0  0  0  0
  193.2500  176.1190  138.2270 C   0  0  1  0  0  3  0  0  0  0  0  0
  194.1060  176.2360  137.1310 O   0  0  0  0  0  1  0  0  0  0  0  0
  192.5720  177.3650  140.2740 C   0  0  0  0  0  1  0  0  0  0  0  0
  193.7140  177.0600  139.3230 C   0  0  0  0  0  2  0  0  0  0  0  0
  1  2  1  0  0  0  0
  2  5  2  0  0  0  0
  2 18  1  0  0  0  0
  3  6  1  0  0  0  0
  4  8  1  0  0  0  0
  6  8  1  0  0  0  0
  6  1  2  0  0  0  0
  7 24  1  6  0  0  0
  7  3  1  0  0  0  0
  7  4  1  0  0  0  0
  8  9  2  0  0  0  0
  9  5  1  0  0  0  0
 10 17  2  0  0  0  0
 11 16  1  0  0  0  0
 12 15  1  0  0  0  0
 13  9  1  1  0  0  0
 13 11  1  0  0  0  0
 13 10  1  0  0  0  0
 14 11  2  0  0  0  0
 16 12  2  0  0  0  0
 17 12  1  0  0  0  0
 18 20  1  0  0  0  0
 19 21  1  0  0  0  0
 20 19  2  0  0  0  0
 20 23  1  0  0  0  0
 21 22  1  0  0  0  0
 23 22  2  0  0  0  0
 25 27  1  0  0  0  0
 25 24  1  0  0  0  0
 26 30  1  0  0  0  0
 27 28  1  0  0  0  0
 28 29  2  0  0  0  0
 28 26  1  0  0  0  0
 30 31  1  6  0  0  0
 30 33  1  0  0  0  0
 33 32  1  0  0  0  0
M  END
>  <MODEL>
2

>  <REMARK>
 VINA RESULT:      -8.3      2.906      7.531
  Name = 
  8 active torsions:
  status: ('A' for Active; 'I' for Inactive)
    1  A    between atoms: N_1  and  C_20
    2  A    between atoms: C_4  and  N_12
    3  A    between atoms: N_7  and  N_25
    4  A    between atoms: C_11  and  N_12
    5  A    between atoms: C_17  and  C_22
    6  A    between atoms: C_17  and  N_25
    7  A    between atoms: C_19  and  C_28
    8  A    between atoms: C_20  and  C_32
                            x       y       z     vdW  Elec       q    Type
                         _______ _______ _______ _____ _____    ______ ____

>  <TORSDO>
F 8

$$$$
=
 OpenBabel10222419463D

 33 36  0  0  1  0  0  0  0  0999 V2000
  186.3310  178.3250  141.5400 C   0  0  0  0  0  3  0  0  0  0  0  0
  186.6640  178.0350  142.8770 C   0  0  0  0  0  0  0  0  0  0  0  0
  187.2110  178.6050  139.2460 O   0  0  0  0  0  0  0  0  0  0  0  0
  189.4980  178.1740  139.7030 C   0  0  0  0  0  2  0  0  0  0  0  0
  188.0060  177.7740  143.2190 C   0  0  0  0  0  3  0  0  0  0  0  0
  187.3500  178.3440  140.5910 C   0  0  0  0  0  0  0  0  0  0  0  0
  188.4820  178.5480  138.6000 C   0  0  1  0  0  3  0  0  0  0  0  0
  188.6490  178.0880  140.9210 C   0  0  0  0  0  0  0  0  0  0  0  0
  189.0180  177.7980  142.2440 C   0  0  0  0  0  0  0  0  0  0  0  0
  190.9960  178.6360  143.4830 C   0  0  0  0  0  3  0  0  0  0  0  0
  190.5640  176.1690  143.3300 C   0  0  0  0  0  0  0  0  0  0  0  0
  191.4220  177.1190  145.3510 C   0  0  0  0  0  0  0  0  0  0  0  0
  190.4340  177.5100  142.6540 C   0  0  1  0  0  3  0  0  0  0  0  0
  190.2660  175.1180  142.7030 O   0  0  0  0  0  0  0  0  0  0  0  0
  191.8670  176.9690  146.6920 N   0  0  0  0  0  1  0  0  0  0  0  0
  191.0250  176.0770  144.6840 N   0  0  0  0  0  0  0  0  0  0  0  0
  191.4400  178.4530  144.7280 C   0  0  0  0  0  3  0  0  0  0  0  0
  185.6710  177.9980  143.9120 N   0  0  0  0  0  2  0  0  0  0  0  0
  185.3500  179.4620  145.8710 N   0  0  0  0  0  0  0  0  0  0  0  0
  185.8610  178.3670  145.2830 C   0  0  0  0  0  0  0  0  0  0  0  0
  185.7610  179.4180  147.1280 N   0  0  0  0  0  2  0  0  0  0  0  0
  186.5050  178.3450  147.3520 N   0  0  0  0  0  0  0  0  0  0  0  0
  186.5920  177.6490  146.2000 C   0  0  0  0  0  3  0  0  0  0  0  0
  188.4570  177.4810  137.5180 C   0  0  0  0  0  2  0  0  0  0  0  0
  187.2850  177.6570  136.6780 N   0  0  0  0  0  2  0  0  0  0  0  0
  184.6120  177.4650  137.6810 N   0  0  0  0  0  2  0  0  0  0  0  0
  186.6120  176.4290  136.6550 N   0  0  0  0  0  2  0  0  0  0  0  0
  185.2780  176.3180  137.1450 C   0  0  0  0  0  0  0  0  0  0  0  0
  184.6910  175.2040  137.0970 O   0  0  0  0  0  0  0  0  0  0  0  0
  183.2570  177.4100  138.2070 C   0  0  1  0  0  3  0  0  0  0  0  0
  183.2830  176.9330  139.5180 O   0  0  0  0  0  1  0  0  0  0  0  0
  183.4240  179.7280  139.1040 C   0  0  0  0  0  1  0  0  0  0  0  0
  182.6430  178.7980  138.1950 C   0  0  0  0  0  2  0  0  0  0  0  0
  1  2  1  0  0  0  0
  2  5  2  0  0  0  0
  2 18  1  0  0  0  0
  3  6  1  0  0  0  0
  4  8  1  0  0  0  0
  6  8  1  0  0  0  0
  6  1  2  0  0  0  0
  7 24  1  6  0  0  0
  7  3  1  0  0  0  0
  7  4  1  0  0  0  0
  8  9  2  0  0  0  0
  9  5  1  0  0  0  0
 10 17  2  0  0  0  0
 11 16  1  0  0  0  0
 12 15  1  0  0  0  0
 13  9  1  1  0  0  0
 13 11  1  0  0  0  0
 13 10  1  0  0  0  0
 14 11  2  0  0  0  0
 16 12  2  0  0  0  0
 17 12  1  0  0  0  0
 18 20  1  0  0  0  0
 19 21  1  0  0  0  0
 20 19  2  0  0  0  0
 20 23  1  0  0  0  0
 21 22  1  0  0  0  0
 23 22  2  0  0  0  0
 25 24  1  0  0  0  0
 26 30  1  0  0  0  0
 27 25  1  0  0  0  0
 27 28  1  0  0  0  0
 28 26  1  0  0  0  0
 29 28  2  0  0  0  0
 30 31  1  1  0  0  0
 33 30  1  0  0  0  0
 33 32  1  0  0  0  0
M  END
>  <MODEL>
3

>  <REMARK>
 VINA RESULT:      -8.1      2.547      7.747
  Name = 
  8 active torsions:
  status: ('A' for Active; 'I' for Inactive)
    1  A    between atoms: N_1  and  C_20
    2  A    between atoms: C_4  and  N_12
    3  A    between atoms: N_7  and  N_25
    4  A    between atoms: C_11  and  N_12
    5  A    between atoms: C_17  and  C_22
    6  A    between atoms: C_17  and  N_25
    7  A    between atoms: C_19  and  C_28
    8  A    between atoms: C_20  and  C_32
                            x       y       z     vdW  Elec       q    Type
                         _______ _______ _______ _____ _____    ______ ____

>  <TORSDO>
F 8

$$$$
=
 OpenBabel10222419463D

 33 36  0  0  1  0  0  0  0  0999 V2000
  187.5300  177.4540  141.8880 C   0  0  0  0  0  3  0  0  0  0  0  0
  188.9320  177.5490  141.7880 C   0  0  0  0  0  0  0  0  0  0  0  0
  185.5950  177.5650  143.4230 O   0  0  0  0  0  0  0  0  0  0  0  0
  186.7760  178.0120  145.4310 C   0  0  0  0  0  2  0  0  0  0  0  0
  189.6950  177.8090  142.9440 C   0  0  0  0  0  3  0  0  0  0  0  0
  186.9410  177.6220  143.1390 C   0  0  0  0  0  0  0  0  0  0  0  0
  185.3770  177.7720  144.8190 C   0  0  1  0  0  3  0  0  0  0  0  0
  187.6800  177.8770  144.2570 C   0  0  0  0  0  0  0  0  0  0  0  0
  189.0790  177.9750  144.1960 C   0  0  0  0  0  0  0  0  0  0  0  0
  189.3670  177.5880  146.6280 C   0  0  0  0  0  3  0  0  0  0  0  0
  191.3780  177.8970  145.1610 C   0  0  0  0  0  0  0  0  0  0  0  0
  191.4290  176.3200  146.9580 C   0  0  0  0  0  0  0  0  0  0  0  0
  189.9330  178.2530  145.4000 C   0  0  1  0  0  3  0  0  0  0  0  0
  192.0260  178.4820  144.2530 O   0  0  0  0  0  0  0  0  0  0  0  0
  192.1180  175.3320  147.7140 N   0  0  0  0  0  1  0  0  0  0  0  0
  192.0240  176.8960  145.9580 N   0  0  0  0  0  0  0  0  0  0  0  0
  190.0550  176.6920  147.3370 C   0  0  0  0  0  3  0  0  0  0  0  0
  189.6120  177.3870  140.5370 N   0  0  0  0  0  2  0  0  0  0  0  0
  188.9630  179.0540  138.8380 N   0  0  0  0  0  0  0  0  0  0  0  0
  189.1270  177.7850  139.2490 C   0  0  0  0  0  0  0  0  0  0  0  0
  188.5040  178.9730  137.6000 N   0  0  0  0  0  2  0  0  0  0  0  0
  188.3750  177.7100  137.2180 N   0  0  0  0  0  0  0  0  0  0  0  0
  188.7630  176.9230  138.2420 C   0  0  0  0  0  3  0  0  0  0  0  0
  184.4920  178.9900  145.0230 C   0  0  0  0  0  2  0  0  0  0  0  0
  184.2730  179.6590  143.7520 N   0  0  0  0  0  2  0  0  0  0  0  0
  184.1120  179.3870  140.9080 N   0  0  0  0  0  2  0  0  0  0  0  0
  183.1510  179.0600  143.1650 N   0  0  0  0  0  2  0  0  0  0  0  0
  183.0590  178.9110  141.7510 C   0  0  0  0  0  0  0  0  0  0  0  0
  182.0450  178.3530  141.2510 O   0  0  0  0  0  0  0  0  0  0  0  0
  184.0670  179.2750  139.4580 C   0  0  1  0  0  3  0  0  0  0  0  0
  184.1520  180.5450  138.8880 O   0  0  0  0  0  1  0  0  0  0  0  0
  184.7840  177.5160  137.8470 C   0  0  0  0  0  1  0  0  0  0  0  0
  185.2310  178.4320  138.9710 C   0  0  0  0  0  2  0  0  0  0  0  0
  1  6  1  0  0  0  0
  2  1  2  0  0  0  0
  2  5  1  0  0  0  0
  3  7  1  0  0  0  0
  5  9  2  0  0  0  0
  6  3  1  0  0  0  0
  6  8  2  0  0  0  0
  7 24  1  6  0  0  0
  7  4  1  0  0  0  0
  8  4  1  0  0  0  0
  9  8  1  0  0  0  0
 10 17  2  0  0  0  0
 11 13  1  0  0  0  0
 11 16  1  0  0  0  0
 12 17  1  0  0  0  0
 12 15  1  0  0  0  0
 13  9  1  6  0  0  0
 13 10  1  0  0  0  0
 14 11  2  0  0  0  0
 16 12  2  0  0  0  0
 18  2  1  0  0  0  0
 19 20  2  0  0  0  0
 20 18  1  0  0  0  0
 21 19  1  0  0  0  0
 22 21  1  0  0  0  0
 22 23  2  0  0  0  0
 23 20  1  0  0  0  0
 25 24  1  0  0  0  0
 26 28  1  0  0  0  0
 27 25  1  0  0  0  0
 28 27  1  0  0  0  0
 29 28  2  0  0  0  0
 30 31  1  6  0  0  0
 30 26  1  0  0  0  0
 32 33  1  0  0  0  0
 33 30  1  0  0  0  0
M  END
>  <MODEL>
4

>  <REMARK>
 VINA RESULT:      -7.9      2.580      7.730
  Name = 
  8 active torsions:
  status: ('A' for Active; 'I' for Inactive)
    1  A    between atoms: N_1  and  C_20
    2  A    between atoms: C_4  and  N_12
    3  A    between atoms: N_7  and  N_25
    4  A    between atoms: C_11  and  N_12
    5  A    between atoms: C_17  and  C_22
    6  A    between atoms: C_17  and  N_25
    7  A    between atoms: C_19  and  C_28
    8  A    between atoms: C_20  and  C_32
                            x       y       z     vdW  Elec       q    Type
                         _______ _______ _______ _____ _____    ______ ____

>  <TORSDO>
F 8

$$$$
=
 OpenBabel10222419463D

 33 36  0  0  1  0  0  0  0  0999 V2000
  186.5250  178.2600  141.5800 C   0  0  0  0  0  3  0  0  0  0  0  0
  186.8330  177.8970  142.9050 C   0  0  0  0  0  0  0  0  0  0  0  0
  187.4420  178.6250  139.3130 O   0  0  0  0  0  0  0  0  0  0  0  0
  189.7120  178.1130  139.7750 C   0  0  0  0  0  2  0  0  0  0  0  0
  188.1640  177.5860  143.2500 C   0  0  0  0  0  3  0  0  0  0  0  0
  187.5570  178.2960  140.6450 C   0  0  0  0  0  0  0  0  0  0  0  0
  188.7200  178.5650  138.6790 C   0  0  1  0  0  3  0  0  0  0  0  0
  188.8450  177.9920  140.9780 C   0  0  0  0  0  0  0  0  0  0  0  0
  189.1890  177.6300  142.2900 C   0  0  0  0  0  0  0  0  0  0  0  0
  191.2160  178.4140  143.4840 C   0  0  0  0  0  3  0  0  0  0  0  0
  190.6590  175.9680  143.4300 C   0  0  0  0  0  0  0  0  0  0  0  0
  191.5800  176.9500  145.4070 C   0  0  0  0  0  0  0  0  0  0  0  0
  190.5920  177.2870  142.7020 C   0  0  1  0  0  3  0  0  0  0  0  0
  190.3030  174.9100  142.8450 O   0  0  0  0  0  0  0  0  0  0  0  0
  192.0280  176.8300  146.7500 N   0  0  0  0  0  1  0  0  0  0  0  0
  191.1250  175.9050  144.7830 N   0  0  0  0  0  0  0  0  0  0  0  0
  191.6610  178.2570  144.7320 C   0  0  0  0  0  3  0  0  0  0  0  0
  185.8270  177.8370  143.9250 N   0  0  0  0  0  2  0  0  0  0  0  0
  185.3060  179.3310  145.8180 N   0  0  0  0  0  0  0  0  0  0  0  0
  185.9620  178.2900  145.2780 C   0  0  0  0  0  0  0  0  0  0  0  0
  185.7160  179.4000  147.0740 N   0  0  0  0  0  2  0  0  0  0  0  0
  186.5970  178.4480  147.3430 N   0  0  0  0  0  0  0  0  0  0  0  0
  186.7800  177.7190  146.2240 C   0  0  0  0  0  3  0  0  0  0  0  0
  188.6830  177.5520  137.5470 C   0  0  0  0  0  2  0  0  0  0  0  0
  187.3550  176.9680  137.4520 N   0  0  0  0  0  2  0  0  0  0  0  0
  187.2100  174.1800  136.8250 N   0  0  0  0  0  2  0  0  0  0  0  0
  187.1880  176.5540  136.1240 N   0  0  0  0  0  2  0  0  0  0  0  0
  187.1080  175.1690  135.7960 C   0  0  0  0  0  0  0  0  0  0  0  0
  186.9400  174.8250  134.5950 O   0  0  0  0  0  0  0  0  0  0  0  0
  187.1480  172.7530  136.5480 C   0  0  1  0  0  3  0  0  0  0  0  0
  187.8080  172.0520  137.5580 O   0  0  0  0  0  1  0  0  0  0  0  0
  184.9420  172.8170  137.7020 C   0  0  0  0  0  1  0  0  0  0  0  0
  185.7000  172.3020  136.4940 C   0  0  0  0  0  2  0  0  0  0  0  0
  1  2  1  0  0  0  0
  2  5  2  0  0  0  0
  2 18  1  0  0  0  0
  3  6  1  0  0  0  0
  4  8  1  0  0  0  0
  6  8  1  0  0  0  0
  6  1  2  0  0  0  0
  7 24  1  6  0  0  0
  7  3  1  0  0  0  0
  7  4  1  0  0  0  0
  8  9  2  0  0  0  0
  9  5  1  0  0  0  0
 10 17  2  0  0  0  0
 11 16  1  0  0  0  0
 12 15  1  0  0  0  0
 13  9  1  1  0  0  0
 13 11  1  0  0  0  0
 13 10  1  0  0  0  0
 14 11  2  0  0  0  0
 16 12  2  0  0  0  0
 17 12  1  0  0  0  0
 18 20  1  0  0  0  0
 19 21  1  0  0  0  0
 20 19  2  0  0  0  0
 20 23  1  0  0  0  0
 21 22  1  0  0  0  0
 23 22  2  0  0  0  0
 25 24  1  0  0  0  0
 27 25  1  0  0  0  0
 28 27  1  0  0  0  0
 28 26  1  0  0  0  0
 29 28  2  0  0  0  0
 30 26  1  0  0  0  0
 30 31  1  1  0  0  0
 33 30  1  0  0  0  0
 33 32  1  0  0  0  0
M  END
>  <MODEL>
5

>  <REMARK>
 VINA RESULT:      -7.8      2.836      8.149
  Name = 
  8 active torsions:
  status: ('A' for Active; 'I' for Inactive)
    1  A    between atoms: N_1  and  C_20
    2  A    between atoms: C_4  and  N_12
    3  A    between atoms: N_7  and  N_25
    4  A    between atoms: C_11  and  N_12
    5  A    between atoms: C_17  and  C_22
    6  A    between atoms: C_17  and  N_25
    7  A    between atoms: C_19  and  C_28
    8  A    between atoms: C_20  and  C_32
                            x       y       z     vdW  Elec       q    Type
                         _______ _______ _______ _____ _____    ______ ____

>  <TORSDO>
F 8

$$$$
=
 OpenBabel10222419463D

 33 36  0  0  1  0  0  0  0  0999 V2000
  187.4570  177.4480  141.9770 C   0  0  0  0  0  3  0  0  0  0  0  0
  188.8640  177.4040  141.9160 C   0  0  0  0  0  0  0  0  0  0  0  0
  185.5030  177.8070  143.4480 O   0  0  0  0  0  0  0  0  0  0  0  0
  186.6680  178.2200  145.4720 C   0  0  0  0  0  2  0  0  0  0  0  0
  189.6180  177.6360  143.0830 C   0  0  0  0  0  3  0  0  0  0  0  0
  186.8550  177.7230  143.2020 C   0  0  0  0  0  0  0  0  0  0  0  0
  185.2690  178.0900  144.8280 C   0  0  1  0  0  3  0  0  0  0  0  0
  187.5850  177.9510  144.3320 C   0  0  0  0  0  0  0  0  0  0  0  0
  188.9890  177.9110  144.3090 C   0  0  0  0  0  0  0  0  0  0  0  0
  189.3550  177.3260  146.6910 C   0  0  0  0  0  3  0  0  0  0  0  0
  191.3020  177.9640  145.2420 C   0  0  0  0  0  0  0  0  0  0  0  0
  191.5340  176.2360  146.8800 C   0  0  0  0  0  0  0  0  0  0  0  0
  189.8330  178.1550  145.5270 C   0  0  1  0  0  3  0  0  0  0  0  0
  191.8750  178.6920  144.3890 O   0  0  0  0  0  0  0  0  0  0  0  0
  192.3270  175.2520  147.5310 N   0  0  0  0  0  1  0  0  0  0  0  0
  192.0530  176.9590  145.9340 N   0  0  0  0  0  0  0  0  0  0  0  0
  190.1380  176.4370  147.3040 C   0  0  0  0  0  3  0  0  0  0  0  0
  189.5580  177.1270  140.6930 N   0  0  0  0  0  2  0  0  0  0  0  0
  188.8280  178.9970  139.2600 N   0  0  0  0  0  0  0  0  0  0  0  0
  189.3410  177.7670  139.4300 C   0  0  0  0  0  0  0  0  0  0  0  0
  188.8040  179.1980  137.9530 N   0  0  0  0  0  2  0  0  0  0  0  0
  189.2790  178.1480  137.2970 N   0  0  0  0  0  0  0  0  0  0  0  0
  189.6330  177.2160  138.2040 C   0  0  0  0  0  3  0  0  0  0  0  0
  184.5020  179.3950  144.9580 C   0  0  0  0  0  2  0  0  0  0  0  0
  183.5060  179.4900  143.9040 N   0  0  0  0  0  2  0  0  0  0  0  0
  181.0080  179.7380  142.5310 N   0  0  0  0  0  2  0  0  0  0  0  0
  182.3950  178.7500  144.3280 N   0  0  0  0  0  2  0  0  0  0  0  0
  181.1450  178.8570  143.6510 C   0  0  0  0  0  0  0  0  0  0  0  0
  180.1660  178.1670  144.0430 O   0  0  0  0  0  0  0  0  0  0  0  0
  179.7550  179.8990  141.8100 C   0  0  1  0  0  3  0  0  0  0  0  0
  179.4560  181.2560  141.6880 O   0  0  0  0  0  1  0  0  0  0  0  0
  179.6110  177.7970  140.4810 C   0  0  0  0  0  1  0  0  0  0  0  0
  179.8770  179.2890  140.4250 C   0  0  0  0  0  2  0  0  0  0  0  0
  1  6  1  0  0  0  0
  2  1  2  0  0  0  0
  2  5  1  0  0  0  0
  3  7  1  0  0  0  0
  5  9  2  0  0  0  0
  6  3  1  0  0  0  0
  6  8  2  0  0  0  0
  7 24  1  6  0  0  0
  7  4  1  0  0  0  0
  8  4  1  0  0  0  0
  9  8  1  0  0  0  0
 10 17  2  0  0  0  0
 11 13  1  0  0  0  0
 11 16  1  0  0  0  0
 12 17  1  0  0  0  0
 12 15  1  0  0  0  0
 13  9  1  6  0  0  0
 13 10  1  0  0  0  0
 14 11  2  0  0  0  0
 16 12  2  0  0  0  0
 18  2  1  0  0  0  0
 19 20  2  0  0  0  0
 20 18  1  0  0  0  0
 21 19  1  0  0  0  0
 22 21  1  0  0  0  0
 22 23  2  0  0  0  0
 23 20  1  0  0  0  0
 25 27  1  0  0  0  0
 25 24  1  0  0  0  0
 26 28  1  0  0  0  0
 28 29  2  0  0  0  0
 28 27  1  0  0  0  0
 30 31  1  6  0  0  0
 30 26  1  0  0  0  0
 33 32  1  0  0  0  0
 33 30  1  0  0  0  0
M  END
>  <MODEL>
6

>  <REMARK>
 VINA RESULT:      -7.8      3.565      8.125
  Name = 
  8 active torsions:
  status: ('A' for Active; 'I' for Inactive)
    1  A    between atoms: N_1  and  C_20
    2  A    between atoms: C_4  and  N_12
    3  A    between atoms: N_7  and  N_25
    4  A    between atoms: C_11  and  N_12
    5  A    between atoms: C_17  and  C_22
    6  A    between atoms: C_17  and  N_25
    7  A    between atoms: C_19  and  C_28
    8  A    between atoms: C_20  and  C_32
                            x       y       z     vdW  Elec       q    Type
                         _______ _______ _______ _____ _____    ______ ____

>  <TORSDO>
F 8

$$$$
=
 OpenBabel10222419463D

 33 36  0  0  1  0  0  0  0  0999 V2000
  188.9890  178.2310  141.9780 C   0  0  0  0  0  3  0  0  0  0  0  0
  190.0950  177.6470  141.3300 C   0  0  0  0  0  0  0  0  0  0  0  0
  186.6570  179.0060  141.7050 O   0  0  0  0  0  0  0  0  0  0  0  0
  186.3820  178.4650  139.4130 C   0  0  0  0  0  2  0  0  0  0  0  0
  190.0020  177.3060  139.9660 C   0  0  0  0  0  3  0  0  0  0  0  0
  187.8290  178.4510  141.2400 C   0  0  0  0  0  0  0  0  0  0  0  0
  185.6970  179.0830  140.6520 C   0  0  1  0  0  3  0  0  0  0  0  0
  187.7360  178.1170  139.9210 C   0  0  0  0  0  0  0  0  0  0  0  0
  188.8200  177.5370  139.2410 C   0  0  0  0  0  0  0  0  0  0  0  0
  187.8570  175.9700  137.5790 C   0  0  0  0  0  3  0  0  0  0  0  0
  188.4060  178.3250  136.9110 C   0  0  0  0  0  0  0  0  0  0  0  0
  186.4490  177.2540  136.0490 C   0  0  0  0  0  0  0  0  0  0  0  0
  188.7650  177.1540  137.7910 C   0  0  1  0  0  3  0  0  0  0  0  0
  189.1580  179.3350  136.8750 O   0  0  0  0  0  0  0  0  0  0  0  0
  185.2790  177.2860  135.2430 N   0  0  0  0  0  1  0  0  0  0  0  0
  187.2160  178.3000  136.1130 N   0  0  0  0  0  0  0  0  0  0  0  0
  186.7870  176.0230  136.7840 C   0  0  0  0  0  3  0  0  0  0  0  0
  191.3250  177.3900  142.0200 N   0  0  0  0  0  2  0  0  0  0  0  0
  191.5860  178.1420  144.3550 N   0  0  0  0  0  0  0  0  0  0  0  0
  191.4790  177.1750  143.4280 C   0  0  0  0  0  0  0  0  0  0  0  0
  191.7070  177.5160  145.5140 N   0  0  0  0  0  2  0  0  0  0  0  0
  191.6780  176.2000  145.3530 N   0  0  0  0  0  0  0  0  0  0  0  0
  191.5340  175.9440  144.0380 C   0  0  0  0  0  3  0  0  0  0  0  0
  184.4600  178.2830  141.0280 C   0  0  0  0  0  2  0  0  0  0  0  0
  184.6170  177.7310  142.3630 N   0  0  0  0  0  2  0  0  0  0  0  0
  185.4410  178.4030  145.0200 N   0  0  0  0  0  2  0  0  0  0  0  0
  183.7600  178.4520  143.2040 N   0  0  0  0  0  2  0  0  0  0  0  0
  184.1580  178.8000  144.5280 C   0  0  0  0  0  0  0  0  0  0  0  0
  183.3730  179.4630  145.2570 O   0  0  0  0  0  0  0  0  0  0  0  0
  185.8960  178.7170  146.3650 C   0  0  1  0  0  3  0  0  0  0  0  0
  184.9030  178.3810  147.2860 O   0  0  0  0  0  1  0  0  0  0  0  0
  187.8780  177.5590  145.4000 C   0  0  0  0  0  1  0  0  0  0  0  0
  187.1540  177.9290  146.6800 C   0  0  0  0  0  2  0  0  0  0  0  0
  2  1  1  0  0  0  0
  2 18  1  0  0  0  0
  4  8  1  0  0  0  0
  4  7  1  0  0  0  0
  5  2  2  0  0  0  0
  6  3  1  0  0  0  0
  6  1  2  0  0  0  0
  7 24  1  1  0  0  0
  7  3  1  0  0  0  0
  8  6  1  0  0  0  0
  9  8  2  0  0  0  0
  9  5  1  0  0  0  0
 10 13  1  0  0  0  0
 11 13  1  0  0  0  0
 12 16  2  0  0  0  0
 12 17  1  0  0  0  0
 13  9  1  1  0  0  0
 14 11  2  0  0  0  0
 15 12  1  0  0  0  0
 16 11  1  0  0  0  0
 17 10  2  0  0  0  0
 18 20  1  0  0  0  0
 19 21  1  0  0  0  0
 20 23  1  0  0  0  0
 20 19  2  0  0  0  0
 22 21  1  0  0  0  0
 23 22  2  0  0  0  0
 24 25  1  0  0  0  0
 25 27  1  0  0  0  0
 26 30  1  0  0  0  0
 27 28  1  0  0  0  0
 28 26  1  0  0  0  0
 28 29  2  0  0  0  0
 30 33  1  0  0  0  0
 30 31  1  1  0  0  0
 32 33  1  0  0  0  0
M  END
>  <MODEL>
7

>  <REMARK>
 VINA RESULT:      -7.8      2.278      5.513
  Name = 
  8 active torsions:
  status: ('A' for Active; 'I' for Inactive)
    1  A    between atoms: N_1  and  C_20
    2  A    between atoms: C_4  and  N_12
    3  A    between atoms: N_7  and  N_25
    4  A    between atoms: C_11  and  N_12
    5  A    between atoms: C_17  and  C_22
    6  A    between atoms: C_17  and  N_25
    7  A    between atoms: C_19  and  C_28
    8  A    between atoms: C_20  and  C_32
                            x       y       z     vdW  Elec       q    Type
                         _______ _______ _______ _____ _____    ______ ____

>  <TORSDO>
F 8

$$$$
=
 OpenBabel10222419463D

 33 36  0  0  1  0  0  0  0  0999 V2000
  186.1230  178.2710  146.7200 C   0  0  0  0  0  3  0  0  0  0  0  0
  187.3690  177.6340  146.5600 C   0  0  0  0  0  0  0  0  0  0  0  0
  184.1590  179.2050  145.5450 O   0  0  0  0  0  0  0  0  0  0  0  0
  184.8410  178.7500  143.3200 C   0  0  0  0  0  2  0  0  0  0  0  0
  187.8380  177.3390  145.2640 C   0  0  0  0  0  3  0  0  0  0  0  0
  185.3890  178.5880  145.5800 C   0  0  0  0  0  0  0  0  0  0  0  0
  183.7310  179.3760  144.1940 C   0  0  1  0  0  3  0  0  0  0  0  0
  185.8410  178.2990  144.3250 C   0  0  0  0  0  0  0  0  0  0  0  0
  187.0800  177.6690  144.1280 C   0  0  0  0  0  0  0  0  0  0  0  0
  188.1920  178.5530  142.0950 C   0  0  0  0  0  3  0  0  0  0  0  0
  188.5920  176.1820  142.8140 C   0  0  0  0  0  0  0  0  0  0  0  0
  190.3800  177.4820  141.8990 C   0  0  0  0  0  0  0  0  0  0  0  0
  187.6180  177.3320  142.7670 C   0  0  1  0  0  3  0  0  0  0  0  0
  188.2100  175.0530  143.2190 O   0  0  0  0  0  0  0  0  0  0  0  0
  191.7410  177.6050  141.5080 N   0  0  0  0  0  1  0  0  0  0  0  0
  189.9530  176.3630  142.4010 N   0  0  0  0  0  0  0  0  0  0  0  0
  189.4660  178.6210  141.7070 C   0  0  0  0  0  3  0  0  0  0  0  0
  188.1850  177.2760  147.6840 N   0  0  0  0  0  2  0  0  0  0  0  0
  190.4520  177.9490  148.3860 N   0  0  0  0  0  0  0  0  0  0  0  0
  189.6130  177.1600  147.6930 C   0  0  0  0  0  0  0  0  0  0  0  0
  191.6670  177.5000  148.1180 N   0  0  0  0  0  2  0  0  0  0  0  0
  191.6250  176.4650  147.2910 N   0  0  0  0  0  0  0  0  0  0  0  0
  190.3330  176.2180  146.9980 C   0  0  0  0  0  3  0  0  0  0  0  0
  182.4140  178.6490  143.9790 C   0  0  0  0  0  2  0  0  0  0  0  0
  181.6590  179.2990  142.9210 N   0  0  0  0  0  2  0  0  0  0  0  0
  183.1730  179.2770  140.4930 N   0  0  0  0  0  2  0  0  0  0  0  0
  181.4090  178.3270  141.9450 N   0  0  0  0  0  2  0  0  0  0  0  0
  182.1580  178.2980  140.7330 C   0  0  0  0  0  0  0  0  0  0  0  0
  181.9230  177.4010  139.8790 O   0  0  0  0  0  0  0  0  0  0  0  0
  183.9610  179.3060  139.2700 C   0  0  1  0  0  3  0  0  0  0  0  0
  184.1810  180.6290  138.8870 O   0  0  0  0  0  1  0  0  0  0  0  0
  185.8590  178.1070  138.1930 C   0  0  0  0  0  1  0  0  0  0  0  0
  185.2970  178.6260  139.5030 C   0  0  0  0  0  2  0  0  0  0  0  0
  2  1  1  0  0  0  0
  2 18  1  0  0  0  0
  3  6  1  0  0  0  0
  4  7  1  0  0  0  0
  4  8  1  0  0  0  0
  5  2  2  0  0  0  0
  6  1  2  0  0  0  0
  7 24  1  1  0  0  0
  7  3  1  0  0  0  0
  8  6  1  0  0  0  0
  9  8  2  0  0  0  0
  9  5  1  0  0  0  0
 10 13  1  0  0  0  0
 11 14  2  0  0  0  0
 12 16  2  0  0  0  0
 13 11  1  0  0  0  0
 13  9  1  1  0  0  0
 15 12  1  0  0  0  0
 16 11  1  0  0  0  0
 17 12  1  0  0  0  0
 17 10  2  0  0  0  0
 18 20  1  0  0  0  0
 20 19  2  0  0  0  0
 21 19  1  0  0  0  0
 22 21  1  0  0  0  0
 23 22  2  0  0  0  0
 23 20  1  0  0  0  0
 25 24  1  0  0  0  0
 26 28  1  0  0  0  0
 27 25  1  0  0  0  0
 28 27  1  0  0  0  0
 29 28  2  0  0  0  0
 30 31  1  1  0  0  0
 30 33  1  0  0  0  0
 30 26  1  0  0  0  0
 32 33  1  0  0  0  0
M  END
>  <MODEL>
8

>  <REMARK>
 VINA RESULT:      -7.8      3.042      8.356
  Name = 
  8 active torsions:
  status: ('A' for Active; 'I' for Inactive)
    1  A    between atoms: N_1  and  C_20
    2  A    between atoms: C_4  and  N_12
    3  A    between atoms: N_7  and  N_25
    4  A    between atoms: C_11  and  N_12
    5  A    between atoms: C_17  and  C_22
    6  A    between atoms: C_17  and  N_25
    7  A    between atoms: C_19  and  C_28
    8  A    between atoms: C_20  and  C_32
                            x       y       z     vdW  Elec       q    Type
                         _______ _______ _______ _____ _____    ______ ____

>  <TORSDO>
F 8

$$$$
=
 OpenBabel10222419463D

 33 36  0  0  1  0  0  0  0  0999 V2000
  187.3720  178.2270  142.1930 C   0  0  0  0  0  3  0  0  0  0  0  0
  186.8050  178.6780  140.9850 C   0  0  0  0  0  0  0  0  0  0  0  0
  189.2510  176.9840  143.2100 O   0  0  0  0  0  0  0  0  0  0  0  0
  190.4190  176.4390  141.2200 C   0  0  0  0  0  2  0  0  0  0  0  0
  187.4440  178.3840  139.7640 C   0  0  0  0  0  3  0  0  0  0  0  0
  188.5580  177.5000  142.1380 C   0  0  0  0  0  0  0  0  0  0  0  0
  190.4120  176.2870  142.7570 C   0  0  1  0  0  3  0  0  0  0  0  0
  189.1790  177.2180  140.9570 C   0  0  0  0  0  0  0  0  0  0  0  0
  188.6410  177.6490  139.7330 C   0  0  0  0  0  0  0  0  0  0  0  0
  190.7810  177.5700  138.4820 C   0  0  0  0  0  3  0  0  0  0  0  0
  188.9170  176.0000  137.8820 C   0  0  0  0  0  0  0  0  0  0  0  0
  191.1890  175.2530  137.8190 C   0  0  0  0  0  0  0  0  0  0  0  0
  189.2900  177.3620  138.4090 C   0  0  1  0  0  3  0  0  0  0  0  0
  187.7120  175.7310  137.6340 O   0  0  0  0  0  0  0  0  0  0  0  0
  192.1440  174.2270  137.5850 N   0  0  0  0  0  1  0  0  0  0  0  0
  189.9250  175.0050  137.6590 N   0  0  0  0  0  0  0  0  0  0  0  0
  191.6510  176.5930  138.2190 C   0  0  0  0  0  3  0  0  0  0  0  0
  185.5850  179.4310  140.9580 N   0  0  0  0  0  2  0  0  0  0  0  0
  184.0450  180.0360  139.1290 N   0  0  0  0  0  0  0  0  0  0  0  0
  184.4650  179.2020  140.0940 C   0  0  0  0  0  0  0  0  0  0  0  0
  182.9970  179.4460  138.5770 N   0  0  0  0  0  2  0  0  0  0  0  0
  182.7450  178.2800  139.1530 N   0  0  0  0  0  0  0  0  0  0  0  0
  183.6590  178.0890  140.1250 C   0  0  0  0  0  3  0  0  0  0  0  0
  191.6550  176.9210  143.3580 C   0  0  0  0  0  2  0  0  0  0  0  0
  191.2770  177.8470  144.4120 N   0  0  0  0  0  2  0  0  0  0  0  0
  189.0870  177.5640  146.2320 N   0  0  0  0  0  2  0  0  0  0  0  0
  191.4550  177.1750  145.6280 N   0  0  0  0  0  2  0  0  0  0  0  0
  190.3730  177.0200  146.5420 C   0  0  0  0  0  0  0  0  0  0  0  0
  190.5580  176.3960  147.6210 O   0  0  0  0  0  0  0  0  0  0  0  0
  187.9500  177.4480  147.1320 C   0  0  1  0  0  3  0  0  0  0  0  0
  188.0330  178.4290  148.1200 O   0  0  0  0  0  1  0  0  0  0  0  0
  185.8530  178.7780  146.9360 C   0  0  0  0  0  1  0  0  0  0  0  0
  186.6590  177.6320  146.3550 C   0  0  0  0  0  2  0  0  0  0  0  0
  2  1  2  0  0  0  0
  4  7  1  0  0  0  0
  5  2  1  0  0  0  0
  6  1  1  0  0  0  0
  6  3  1  0  0  0  0
  7  3  1  0  0  0  0
  7 24  1  1  0  0  0
  8  4  1  0  0  0  0
  8  6  2  0  0  0  0
  9  5  2  0  0  0  0
  9  8  1  0  0  0  0
 11 13  1  0  0  0  0
 12 17  1  0  0  0  0
 13 10  1  0  0  0  0
 13  9  1  1  0  0  0
 14 11  2  0  0  0  0
 15 12  1  0  0  0  0
 16 12  2  0  0  0  0
 16 11  1  0  0  0  0
 17 10  2  0  0  0  0
 18  2  1  0  0  0  0
 19 20  2  0  0  0  0
 20 23  1  0  0  0  0
 20 18  1  0  0  0  0
 21 19  1  0  0  0  0
 21 22  1  0  0  0  0
 22 23  2  0  0  0  0
 24 25  1  0  0  0  0
 25 27  1  0  0  0  0
 26 28  1  0  0  0  0
 26 30  1  0  0  0  0
 27 28  1  0  0  0  0
 28 29  2  0  0  0  0
 30 31  1  1  0  0  0
 33 32  1  0  0  0  0
 33 30  1  0  0  0  0
M  END
>  <MODEL>
9

>  <REMARK>
 VINA RESULT:      -7.8      1.704      2.030
  Name = 
  8 active torsions:
  status: ('A' for Active; 'I' for Inactive)
    1  A    between atoms: N_1  and  C_20
    2  A    between atoms: C_4  and  N_12
    3  A    between atoms: N_7  and  N_25
    4  A    between atoms: C_11  and  N_12
    5  A    between atoms: C_17  and  C_22
    6  A    between atoms: C_17  and  N_25
    7  A    between atoms: C_19  and  C_28
    8  A    between atoms: C_20  and  C_32
                            x       y       z     vdW  Elec       q    Type
                         _______ _______ _______ _____ _____    ______ ____

>  <TORSDO>
F 8

$$$$
