=
 OpenBabel10222415523D

 29 31  0  0  1  0  0  0  0  0999 V2000
  185.9890  178.7360  141.1520 N   0  0  0  0  0  2  0  0  0  0  0  0
  185.3890  178.0460  142.2840 C   0  0  1  0  0  3  0  0  0  0  0  0
  186.4600  177.6810  143.2970 C   0  0  0  0  0  2  0  0  0  0  0  0
  184.4150  178.9740  142.9840 C   0  0  0  0  0  2  0  0  0  0  0  0
  186.1300  178.4350  144.5720 C   0  0  1  0  0  3  0  0  0  0  0  0
  184.6690  178.7980  144.4640 C   0  0  0  0  0  2  0  0  0  0  0  0
  186.3590  177.5590  145.7890 C   0  0  0  0  0  2  0  0  0  0  0  0
  186.3250  178.5640  147.3030 S   0  0  0  0  0  0  0  0  0  0  0  0
  188.2220  177.9350  149.0010 O   0  0  0  0  0  0  0  0  0  0  0  0
  187.9440  177.9930  147.8140 C   0  0  0  0  0  0  0  0  0  0  0  0
  188.9580  177.6080  146.7910 C   0  0  0  0  0  2  0  0  0  0  0  0
  192.2820  175.7590  147.4960 C   0  0  0  0  0  1  0  0  0  0  0  0
  191.2730  176.6160  146.8210 C   0  0  0  0  0  0  0  0  0  0  0  0
  191.5670  177.1950  145.7420 O   0  0  0  0  0  0  0  0  0  0  0  0
  189.9790  176.7740  147.4030 N   0  0  0  0  0  2  0  0  0  0  0  0
  183.5990  180.3150  138.9630 O   0  0  0  0  0  0  0  0  0  0  0  0
  184.2570  179.3740  139.4770 C   0  0  0  0  0  0  0  0  0  0  0  0
  185.0370  179.6370  140.6510 N   0  0  0  0  0  2  0  0  0  0  0  0
  181.9230  175.8390  137.8490 C   0  0  1  0  0  3  0  0  0  0  0  0
  182.1580  177.2480  139.7600 N   0  0  0  0  0  2  0  0  0  0  0  0
  181.2180  176.3470  139.1150 C   0  0  0  0  0  2  0  0  0  0  0  0
  183.4120  176.0240  138.1130 C   0  0  2  0  0  3  0  0  0  0  0  0
  184.2350  178.0440  138.8330 C   0  0  2  0  0  3  0  0  0  0  0  0
  184.8310  177.7670  137.4970 C   0  0  2  0  0  3  0  0  0  0  0  0
  183.4140  177.0610  139.1370 C   0  0  1  0  0  3  0  0  0  0  0  0
  181.5560  174.1180  137.5950 Cl  0  0  0  0  0  0  0  0  0  0  0  0
  184.1140  176.6000  136.9650 N   0  0  0  0  0  2  0  0  0  0  0  0
  186.2600  177.4610  137.6290 C   0  0  0  0  0  0  0  0  0  0  0  0
  187.3870  177.2200  137.7330 N   0  0  0  0  0  0  0  0  0  0  0  0
  2  1  1  6  0  0  0
  2  4  1  0  0  0  0
  2  3  1  0  0  0  0
  3  5  1  0  0  0  0
  4  6  1  0  0  0  0
  5  7  1  1  0  0  0
  6  5  1  0  0  0  0
  7  8  1  0  0  0  0
  8 10  1  0  0  0  0
 10  9  2  0  0  0  0
 11 15  1  0  0  0  0
 11 10  1  0  0  0  0
 13 15  1  0  0  0  0
 13 12  1  0  0  0  0
 14 13  2  0  0  0  0
 16 17  2  0  0  0  0
 17 18  1  0  0  0  0
 18  1  1  0  0  0  0
 19 26  1  1  0  0  0
 19 22  1  0  0  0  0
 19 21  1  0  0  0  0
 21 20  1  0  0  0  0
 22 27  1  6  0  0  0
 22 25  1  0  0  0  0
 23 25  1  0  0  0  0
 23 17  1  6  0  0  0
 24 28  1  1  0  0  0
 24 23  1  0  0  0  0
 25 20  1  6  0  0  0
 27 24  1  0  0  0  0
 28 29  3  0  0  0  0
M  END
>  <MODEL>
1

>  <REMARK>
 VINA RESULT:      -7.2      0.000      0.000
  Name = 
  9 active torsions:
  status: ('A' for Active; 'I' for Inactive)
    1  A    between atoms: C_1  and  N_12
    2  A    between atoms: C_7  and  C_16
    3  A    between atoms: C_11  and  C_20
    4  A    between atoms: C_11  and  S_21
    5  A    between atoms: N_12  and  N_29
    6  A    between atoms: C_13  and  C_18
    7  A    between atoms: C_14  and  S_21
    8  A    between atoms: C_14  and  C_25
    9  A    between atoms: N_24  and  C_25
                            x       y       z     vdW  Elec       q    Type
                         _______ _______ _______ _____ _____    ______ ____

>  <TORSDO>
F 9

$$$$
=
 OpenBabel10222415523D

 29 31  0  0  1  0  0  0  0  0999 V2000
  185.6830  178.2200  141.2940 N   0  0  0  0  0  2  0  0  0  0  0  0
  186.8180  178.5400  142.1470 C   0  0  1  0  0  3  0  0  0  0  0  0
  187.0120  177.4470  143.1840 C   0  0  0  0  0  2  0  0  0  0  0  0
  188.0820  178.5880  141.3120 C   0  0  0  0  0  2  0  0  0  0  0  0
  188.3730  176.8320  142.9190 C   0  0  1  0  0  3  0  0  0  0  0  0
  189.1350  177.8570  142.1140 C   0  0  0  0  0  2  0  0  0  0  0  0
  189.0990  176.5520  144.2210 C   0  0  0  0  0  2  0  0  0  0  0  0
  189.4440  178.1060  145.0970 S   0  0  0  0  0  0  0  0  0  0  0  0
  189.8910  176.5460  147.1570 O   0  0  0  0  0  0  0  0  0  0  0  0
  189.1180  177.3710  146.6970 C   0  0  0  0  0  0  0  0  0  0  0  0
  187.8940  177.7520  147.4590 C   0  0  0  0  0  2  0  0  0  0  0  0
  184.5920  178.7110  145.6870 C   0  0  0  0  0  1  0  0  0  0  0  0
  185.7430  178.7620  146.6250 C   0  0  0  0  0  0  0  0  0  0  0  0
  185.8260  179.7020  147.4600 O   0  0  0  0  0  0  0  0  0  0  0  0
  186.7430  177.7450  146.5720 N   0  0  0  0  0  2  0  0  0  0  0  0
  184.1270  180.4680  138.9430 O   0  0  0  0  0  0  0  0  0  0  0  0
  184.2490  179.4420  139.6620 C   0  0  0  0  0  0  0  0  0  0  0  0
  185.3100  179.3970  140.6250 N   0  0  0  0  0  2  0  0  0  0  0  0
  180.1620  177.5590  140.2520 C   0  0  1  0  0  3  0  0  0  0  0  0
  181.9470  178.6400  141.4110 N   0  0  0  0  0  2  0  0  0  0  0  0
  180.5310  178.3350  141.5250 C   0  0  0  0  0  2  0  0  0  0  0  0
  181.4740  176.9750  139.7420 C   0  0  2  0  0  3  0  0  0  0  0  0
  183.3230  178.3080  139.4610 C   0  0  2  0  0  3  0  0  0  0  0  0
  182.9380  177.7880  138.1200 C   0  0  2  0  0  3  0  0  0  0  0  0
  182.4600  177.8600  140.3480 C   0  0  1  0  0  3  0  0  0  0  0  0
  179.0220  176.2520  140.6430 Cl  0  0  0  0  0  0  0  0  0  0  0  0
  181.6310  177.1390  138.2960 N   0  0  0  0  0  2  0  0  0  0  0  0
  183.9250  176.8090  137.6490 C   0  0  0  0  0  0  0  0  0  0  0  0
  184.7030  176.0380  137.2780 N   0  0  0  0  0  0  0  0  0  0  0  0
  2  1  1  6  0  0  0
  2  3  1  0  0  0  0
  4  6  1  0  0  0  0
  4  2  1  0  0  0  0
  5  3  1  0  0  0  0
  5  7  1  1  0  0  0
  6  5  1  0  0  0  0
  7  8  1  0  0  0  0
  8 10  1  0  0  0  0
 10  9  2  0  0  0  0
 10 11  1  0  0  0  0
 12 13  1  0  0  0  0
 13 14  2  0  0  0  0
 15 13  1  0  0  0  0
 15 11  1  0  0  0  0
 16 17  2  0  0  0  0
 17 18  1  0  0  0  0
 18  1  1  0  0  0  0
 19 26  1  1  0  0  0
 19 21  1  0  0  0  0
 20 21  1  0  0  0  0
 22 27  1  6  0  0  0
 22 19  1  0  0  0  0
 22 25  1  0  0  0  0
 23 17  1  6  0  0  0
 23 25  1  0  0  0  0
 24 28  1  1  0  0  0
 24 27  1  0  0  0  0
 24 23  1  0  0  0  0
 25 20  1  6  0  0  0
 29 28  3  0  0  0  0
M  END
>  <MODEL>
2

>  <REMARK>
 VINA RESULT:      -7.1      2.115      3.431
  Name = 
  9 active torsions:
  status: ('A' for Active; 'I' for Inactive)
    1  A    between atoms: C_1  and  N_12
    2  A    between atoms: C_7  and  C_16
    3  A    between atoms: C_11  and  C_20
    4  A    between atoms: C_11  and  S_21
    5  A    between atoms: N_12  and  N_29
    6  A    between atoms: C_13  and  C_18
    7  A    between atoms: C_14  and  S_21
    8  A    between atoms: C_14  and  C_25
    9  A    between atoms: N_24  and  C_25
                            x       y       z     vdW  Elec       q    Type
                         _______ _______ _______ _____ _____    ______ ____

>  <TORSDO>
F 9

$$$$
=
 OpenBabel10222415523D

 29 31  0  0  1  0  0  0  0  0999 V2000
  185.7790  178.5750  141.0370 N   0  0  0  0  0  2  0  0  0  0  0  0
  185.2180  177.8940  142.1940 C   0  0  1  0  0  3  0  0  0  0  0  0
  186.3120  177.6120  143.2100 C   0  0  0  0  0  2  0  0  0  0  0  0
  184.2070  178.7970  142.8730 C   0  0  0  0  0  2  0  0  0  0  0  0
  185.9560  178.3890  144.4630 C   0  0  1  0  0  3  0  0  0  0  0  0
  184.4780  178.6800  144.3550 C   0  0  0  0  0  2  0  0  0  0  0  0
  186.2330  177.5640  145.7040 C   0  0  0  0  0  2  0  0  0  0  0  0
  186.4230  178.6470  147.1520 S   0  0  0  0  0  0  0  0  0  0  0  0
  188.1000  177.5780  148.8600 O   0  0  0  0  0  0  0  0  0  0  0  0
  187.9200  177.8180  147.6770 C   0  0  0  0  0  0  0  0  0  0  0  0
  188.9560  177.4380  146.6740 C   0  0  0  0  0  2  0  0  0  0  0  0
  192.3080  175.7150  147.5460 C   0  0  0  0  0  1  0  0  0  0  0  0
  191.3190  176.5870  146.8600 C   0  0  0  0  0  0  0  0  0  0  0  0
  191.6870  177.3090  145.8950 O   0  0  0  0  0  0  0  0  0  0  0  0
  189.9620  176.5980  147.3020 N   0  0  0  0  0  2  0  0  0  0  0  0
  183.5800  180.5060  138.9290 O   0  0  0  0  0  0  0  0  0  0  0  0
  184.2270  179.4980  139.3180 C   0  0  0  0  0  0  0  0  0  0  0  0
  184.8420  179.5320  140.6130 N   0  0  0  0  0  2  0  0  0  0  0  0
  186.8000  176.2800  137.4170 C   0  0  1  0  0  3  0  0  0  0  0  0
  186.6760  178.6290  137.8180 N   0  0  0  0  0  2  0  0  0  0  0  0
  187.6240  177.5720  137.5090 C   0  0  0  0  0  2  0  0  0  0  0  0
  185.3740  176.7300  137.1250 C   0  0  2  0  0  3  0  0  0  0  0  0
  184.3600  178.3350  138.4170 C   0  0  2  0  0  3  0  0  0  0  0  0
  183.5890  177.0730  138.5830 C   0  0  2  0  0  3  0  0  0  0  0  0
  185.3790  178.1010  137.6170 C   0  0  1  0  0  3  0  0  0  0  0  0
  187.4050  175.2630  136.0900 Cl  0  0  0  0  0  0  0  0  0  0  0  0
  184.3870  176.0200  137.9410 N   0  0  0  0  0  2  0  0  0  0  0  0
  182.2810  177.1830  137.9260 C   0  0  0  0  0  0  0  0  0  0  0  0
  181.2500  177.2700  137.4080 N   0  0  0  0  0  0  0  0  0  0  0  0
  2  1  1  6  0  0  0
  2  4  1  0  0  0  0
  2  3  1  0  0  0  0
  3  5  1  0  0  0  0
  4  6  1  0  0  0  0
  5  7  1  1  0  0  0
  6  5  1  0  0  0  0
  7  8  1  0  0  0  0
  8 10  1  0  0  0  0
 10  9  2  0  0  0  0
 11 15  1  0  0  0  0
 11 10  1  0  0  0  0
 13 15  1  0  0  0  0
 13 12  1  0  0  0  0
 14 13  2  0  0  0  0
 16 17  2  0  0  0  0
 17 18  1  0  0  0  0
 18  1  1  0  0  0  0
 19 26  1  6  0  0  0
 19 21  1  0  0  0  0
 21 20  1  0  0  0  0
 22 19  1  0  0  0  0
 22 25  1  0  0  0  0
 22 27  1  1  0  0  0
 23 24  1  0  0  0  0
 23 17  1  1  0  0  0
 24 28  1  6  0  0  0
 25 20  1  1  0  0  0
 25 23  1  0  0  0  0
 27 24  1  0  0  0  0
 29 28  3  0  0  0  0
M  END
>  <MODEL>
3

>  <REMARK>
 VINA RESULT:      -7.0      1.410      2.660
  Name = 
  9 active torsions:
  status: ('A' for Active; 'I' for Inactive)
    1  A    between atoms: C_1  and  N_12
    2  A    between atoms: C_7  and  C_16
    3  A    between atoms: C_11  and  C_20
    4  A    between atoms: C_11  and  S_21
    5  A    between atoms: N_12  and  N_29
    6  A    between atoms: C_13  and  C_18
    7  A    between atoms: C_14  and  S_21
    8  A    between atoms: C_14  and  C_25
    9  A    between atoms: N_24  and  C_25
                            x       y       z     vdW  Elec       q    Type
                         _______ _______ _______ _____ _____    ______ ____

>  <TORSDO>
F 9

$$$$
=
 OpenBabel10222415523D

 29 31  0  0  1  0  0  0  0  0999 V2000
  188.5900  177.6110  140.3500 N   0  0  0  0  0  2  0  0  0  0  0  0
  189.5040  177.9650  141.4250 C   0  0  1  0  0  3  0  0  0  0  0  0
  189.0310  177.3540  142.7330 C   0  0  0  0  0  2  0  0  0  0  0  0
  190.8750  177.3850  141.1360 C   0  0  0  0  0  2  0  0  0  0  0  0
  190.1100  176.3840  143.1770 C   0  0  1  0  0  3  0  0  0  0  0  0
  191.3610  176.8030  142.4440 C   0  0  0  0  0  2  0  0  0  0  0  0
  190.3310  176.4750  144.6740 C   0  0  0  0  0  2  0  0  0  0  0  0
  189.7010  178.0580  145.3090 S   0  0  0  0  0  0  0  0  0  0  0  0
  189.7510  176.5330  147.4420 O   0  0  0  0  0  0  0  0  0  0  0  0
  189.0530  177.2970  146.7950 C   0  0  0  0  0  0  0  0  0  0  0  0
  187.6560  177.5810  147.2320 C   0  0  0  0  0  2  0  0  0  0  0  0
  184.9380  179.0390  144.8980 C   0  0  0  0  0  1  0  0  0  0  0  0
  185.7470  178.7890  146.1190 C   0  0  0  0  0  0  0  0  0  0  0  0
  185.4730  179.4020  147.1850 O   0  0  0  0  0  0  0  0  0  0  0  0
  186.8260  177.8570  146.0710 N   0  0  0  0  0  2  0  0  0  0  0  0
  188.7950  179.4860  137.2770 O   0  0  0  0  0  0  0  0  0  0  0  0
  188.5810  178.4910  138.0180 C   0  0  0  0  0  0  0  0  0  0  0  0
  188.5710  178.6800  139.4400 N   0  0  0  0  0  2  0  0  0  0  0  0
  186.3610  175.7970  135.1190 C   0  0  1  0  0  3  0  0  0  0  0  0
  186.0390  177.3630  136.8900 N   0  0  0  0  0  2  0  0  0  0  0  0
  185.3510  176.7570  135.7640 C   0  0  0  0  0  2  0  0  0  0  0  0
  187.3710  175.4790  136.2140 C   0  0  2  0  0  3  0  0  0  0  0  0
  188.3860  177.1630  137.4020 C   0  0  2  0  0  3  0  0  0  0  0  0
  189.4490  176.4400  136.6510 C   0  0  2  0  0  3  0  0  0  0  0  0
  187.2230  176.6200  137.1080 C   0  0  1  0  0  3  0  0  0  0  0  0
  185.5400  174.3100  134.5940 Cl  0  0  0  0  0  0  0  0  0  0  0  0
  188.7520  175.5320  135.7300 N   0  0  0  0  0  2  0  0  0  0  0  0
  190.2920  175.6700  137.5740 C   0  0  0  0  0  0  0  0  0  0  0  0
  190.9560  175.0630  138.3020 N   0  0  0  0  0  0  0  0  0  0  0  0
  2  1  1  6  0  0  0
  2  3  1  0  0  0  0
  3  5  1  0  0  0  0
  4  2  1  0  0  0  0
  4  6  1  0  0  0  0
  5  7  1  1  0  0  0
  6  5  1  0  0  0  0
  7  8  1  0  0  0  0
  8 10  1  0  0  0  0
 10 11  1  0  0  0  0
 10  9  2  0  0  0  0
 12 13  1  0  0  0  0
 13 14  2  0  0  0  0
 15 13  1  0  0  0  0
 15 11  1  0  0  0  0
 16 17  2  0  0  0  0
 17 18  1  0  0  0  0
 18  1  1  0  0  0  0
 19 26  1  1  0  0  0
 19 21  1  0  0  0  0
 19 22  1  0  0  0  0
 21 20  1  0  0  0  0
 22 27  1  6  0  0  0
 22 25  1  0  0  0  0
 23 17  1  6  0  0  0
 24 23  1  0  0  0  0
 24 28  1  1  0  0  0
 25 20  1  6  0  0  0
 25 23  1  0  0  0  0
 27 24  1  0  0  0  0
 28 29  3  0  0  0  0
M  END
>  <MODEL>
4

>  <REMARK>
 VINA RESULT:      -7.0      3.232      4.841
  Name = 
  9 active torsions:
  status: ('A' for Active; 'I' for Inactive)
    1  A    between atoms: C_1  and  N_12
    2  A    between atoms: C_7  and  C_16
    3  A    between atoms: C_11  and  C_20
    4  A    between atoms: C_11  and  S_21
    5  A    between atoms: N_12  and  N_29
    6  A    between atoms: C_13  and  C_18
    7  A    between atoms: C_14  and  S_21
    8  A    between atoms: C_14  and  C_25
    9  A    between atoms: N_24  and  C_25
                            x       y       z     vdW  Elec       q    Type
                         _______ _______ _______ _____ _____    ______ ____

>  <TORSDO>
F 9

$$$$
=
 OpenBabel10222415523D

 29 31  0  0  1  0  0  0  0  0999 V2000
  188.6990  177.4780  140.1390 N   0  0  0  0  0  2  0  0  0  0  0  0
  189.4770  177.8730  141.3030 C   0  0  1  0  0  3  0  0  0  0  0  0
  188.9330  177.1900  142.5470 C   0  0  0  0  0  2  0  0  0  0  0  0
  190.9110  177.4090  141.1350 C   0  0  0  0  0  2  0  0  0  0  0  0
  190.0390  176.2950  143.0730 C   0  0  1  0  0  3  0  0  0  0  0  0
  191.3170  176.8300  142.4720 C   0  0  0  0  0  2  0  0  0  0  0  0
  190.1110  176.3620  144.5860 C   0  0  0  0  0  2  0  0  0  0  0  0
  189.7050  178.0370  145.1630 S   0  0  0  0  0  0  0  0  0  0  0  0
  189.8110  176.7790  147.4620 O   0  0  0  0  0  0  0  0  0  0  0  0
  189.0850  177.4340  146.7310 C   0  0  0  0  0  0  0  0  0  0  0  0
  187.6770  177.7150  147.1360 C   0  0  0  0  0  2  0  0  0  0  0  0
  184.9070  179.0320  144.7790 C   0  0  0  0  0  1  0  0  0  0  0  0
  185.6840  178.7750  146.0190 C   0  0  0  0  0  0  0  0  0  0  0  0
  185.2860  179.2530  147.1150 O   0  0  0  0  0  0  0  0  0  0  0  0
  186.8740  177.9900  145.9560 N   0  0  0  0  0  2  0  0  0  0  0  0
  188.8440  179.6500  137.2640 O   0  0  0  0  0  0  0  0  0  0  0  0
  188.7550  178.5650  137.8960 C   0  0  0  0  0  0  0  0  0  0  0  0
  188.5640  178.6080  139.3160 N   0  0  0  0  0  2  0  0  0  0  0  0
  190.7810  174.5400  137.3560 C   0  0  1  0  0  3  0  0  0  0  0  0
  191.2170  176.8710  137.6230 N   0  0  0  0  0  2  0  0  0  0  0  0
  191.8420  175.5680  137.7730 C   0  0  0  0  0  2  0  0  0  0  0  0
  189.8080  175.3030  136.4660 C   0  0  2  0  0  3  0  0  0  0  0  0
  188.8890  177.2900  137.1620 C   0  0  2  0  0  3  0  0  0  0  0  0
  187.7770  176.3140  136.9990 C   0  0  2  0  0  3  0  0  0  0  0  0
  190.0240  176.6810  136.8870 C   0  0  1  0  0  3  0  0  0  0  0  0
  191.5390  173.2180  136.4400 Cl  0  0  0  0  0  0  0  0  0  0  0  0
  188.4110  175.0060  136.7850 N   0  0  0  0  0  2  0  0  0  0  0  0
  186.9520  176.6690  135.8380 C   0  0  0  0  0  0  0  0  0  0  0  0
  186.3020  176.9480  134.9220 N   0  0  0  0  0  0  0  0  0  0  0  0
  2  1  1  6  0  0  0
  2  3  1  0  0  0  0
  3  5  1  0  0  0  0
  4  2  1  0  0  0  0
  4  6  1  0  0  0  0
  5  7  1  1  0  0  0
  6  5  1  0  0  0  0
  7  8  1  0  0  0  0
  8 10  1  0  0  0  0
 10 11  1  0  0  0  0
 10  9  2  0  0  0  0
 12 13  1  0  0  0  0
 13 14  2  0  0  0  0
 15 13  1  0  0  0  0
 15 11  1  0  0  0  0
 16 17  2  0  0  0  0
 17 18  1  0  0  0  0
 18  1  1  0  0  0  0
 19 26  1  6  0  0  0
 19 21  1  0  0  0  0
 20 21  1  0  0  0  0
 22 27  1  1  0  0  0
 22 25  1  0  0  0  0
 22 19  1  0  0  0  0
 23 17  1  1  0  0  0
 24 28  1  6  0  0  0
 24 23  1  0  0  0  0
 25 23  1  0  0  0  0
 25 20  1  1  0  0  0
 27 24  1  0  0  0  0
 29 28  3  0  0  0  0
M  END
>  <MODEL>
5

>  <REMARK>
 VINA RESULT:      -7.0      4.009      5.831
  Name = 
  9 active torsions:
  status: ('A' for Active; 'I' for Inactive)
    1  A    between atoms: C_1  and  N_12
    2  A    between atoms: C_7  and  C_16
    3  A    between atoms: C_11  and  C_20
    4  A    between atoms: C_11  and  S_21
    5  A    between atoms: N_12  and  N_29
    6  A    between atoms: C_13  and  C_18
    7  A    between atoms: C_14  and  S_21
    8  A    between atoms: C_14  and  C_25
    9  A    between atoms: N_24  and  C_25
                            x       y       z     vdW  Elec       q    Type
                         _______ _______ _______ _____ _____    ______ ____

>  <TORSDO>
F 9

$$$$
=
 OpenBabel10222415523D

 29 31  0  0  1  0  0  0  0  0999 V2000
  188.2610  177.5010  139.8200 N   0  0  0  0  0  2  0  0  0  0  0  0
  189.0960  177.9440  140.9260 C   0  0  1  0  0  3  0  0  0  0  0  0
  188.7240  177.1890  142.1910 C   0  0  0  0  0  2  0  0  0  0  0  0
  190.5460  177.6190  140.6280 C   0  0  0  0  0  2  0  0  0  0  0  0
  189.9480  176.3910  142.5990 C   0  0  1  0  0  3  0  0  0  0  0  0
  191.1160  177.0550  141.9100 C   0  0  0  0  0  2  0  0  0  0  0  0
  190.1410  176.4350  144.1030 C   0  0  0  0  0  2  0  0  0  0  0  0
  189.8190  178.1090  144.7320 S   0  0  0  0  0  0  0  0  0  0  0  0
  189.9620  176.7510  146.9710 O   0  0  0  0  0  0  0  0  0  0  0  0
  189.2490  177.4930  146.3140 C   0  0  0  0  0  0  0  0  0  0  0  0
  187.8980  177.8700  146.8200 C   0  0  0  0  0  2  0  0  0  0  0  0
  184.7700  178.6460  144.6800 C   0  0  0  0  0  1  0  0  0  0  0  0
  185.6760  178.5600  145.8550 C   0  0  0  0  0  0  0  0  0  0  0  0
  185.2970  179.0070  146.9700 O   0  0  0  0  0  0  0  0  0  0  0  0
  186.9680  177.9720  145.7080 N   0  0  0  0  0  2  0  0  0  0  0  0
  187.5610  179.3780  136.8210 O   0  0  0  0  0  0  0  0  0  0  0  0
  187.3210  178.6350  137.8090 C   0  0  0  0  0  0  0  0  0  0  0  0
  188.3270  178.4840  138.8190 N   0  0  0  0  0  2  0  0  0  0  0  0
  182.7990  178.7120  138.1780 C   0  0  1  0  0  3  0  0  0  0  0  0
  184.8050  179.5270  139.1800 N   0  0  0  0  0  2  0  0  0  0  0  0
  183.3810  179.8010  139.0910 C   0  0  0  0  0  2  0  0  0  0  0  0
  183.7930  177.5590  138.2400 C   0  0  2  0  0  3  0  0  0  0  0  0
  186.0320  177.9160  137.8720 C   0  0  2  0  0  3  0  0  0  0  0  0
  185.5380  177.0150  136.7950 C   0  0  2  0  0  3  0  0  0  0  0  0
  185.0180  178.2330  138.6500 C   0  0  1  0  0  3  0  0  0  0  0  0
  181.2140  178.1870  138.7900 Cl  0  0  0  0  0  0  0  0  0  0  0  0
  184.0740  176.9950  136.9190 N   0  0  0  0  0  2  0  0  0  0  0  0
  186.0760  175.6620  136.9760 C   0  0  0  0  0  0  0  0  0  0  0  0
  186.5010  174.5940  137.1190 N   0  0  0  0  0  0  0  0  0  0  0  0
  2  1  1  6  0  0  0
  2  3  1  0  0  0  0
  3  5  1  0  0  0  0
  4  2  1  0  0  0  0
  4  6  1  0  0  0  0
  5  7  1  1  0  0  0
  6  5  1  0  0  0  0
  7  8  1  0  0  0  0
  8 10  1  0  0  0  0
 10 11  1  0  0  0  0
 10  9  2  0  0  0  0
 12 13  1  0  0  0  0
 13 14  2  0  0  0  0
 15 13  1  0  0  0  0
 15 11  1  0  0  0  0
 16 17  2  0  0  0  0
 17 18  1  0  0  0  0
 18  1  1  0  0  0  0
 19 22  1  0  0  0  0
 19 26  1  1  0  0  0
 19 21  1  0  0  0  0
 21 20  1  0  0  0  0
 22 27  1  6  0  0  0
 22 25  1  0  0  0  0
 23 17  1  6  0  0  0
 23 25  1  0  0  0  0
 24 27  1  0  0  0  0
 24 28  1  1  0  0  0
 24 23  1  0  0  0  0
 25 20  1  6  0  0  0
 28 29  3  0  0  0  0
M  END
>  <MODEL>
6

>  <REMARK>
 VINA RESULT:      -6.9      2.726      4.140
  Name = 
  9 active torsions:
  status: ('A' for Active; 'I' for Inactive)
    1  A    between atoms: C_1  and  N_12
    2  A    between atoms: C_7  and  C_16
    3  A    between atoms: C_11  and  C_20
    4  A    between atoms: C_11  and  S_21
    5  A    between atoms: N_12  and  N_29
    6  A    between atoms: C_13  and  C_18
    7  A    between atoms: C_14  and  S_21
    8  A    between atoms: C_14  and  C_25
    9  A    between atoms: N_24  and  C_25
                            x       y       z     vdW  Elec       q    Type
                         _______ _______ _______ _____ _____    ______ ____

>  <TORSDO>
F 9

$$$$
=
 OpenBabel10222415523D

 29 31  0  0  1  0  0  0  0  0999 V2000
  190.5400  176.4070  140.5460 N   0  0  0  0  0  2  0  0  0  0  0  0
  190.1330  176.5280  141.9370 C   0  0  1  0  0  3  0  0  0  0  0  0
  191.3580  176.6740  142.8250 C   0  0  0  0  0  2  0  0  0  0  0  0
  189.3050  177.7860  142.1160 C   0  0  0  0  0  2  0  0  0  0  0  0
  191.2600  178.0370  143.4830 C   0  0  1  0  0  3  0  0  0  0  0  0
  189.8060  178.4330  143.3870 C   0  0  0  0  0  2  0  0  0  0  0  0
  191.6830  177.9630  144.9370 C   0  0  0  0  0  2  0  0  0  0  0  0
  191.4860  176.2690  145.5660 S   0  0  0  0  0  0  0  0  0  0  0  0
  192.0180  177.0810  148.0020 O   0  0  0  0  0  0  0  0  0  0  0  0
  191.1110  176.8400  147.2210 C   0  0  0  0  0  0  0  0  0  0  0  0
  189.6930  177.0020  147.6520 C   0  0  0  0  0  2  0  0  0  0  0  0
  186.7070  177.5580  145.2580 C   0  0  0  0  0  1  0  0  0  0  0  0
  187.5530  177.6210  146.4770 C   0  0  0  0  0  0  0  0  0  0  0  0
  187.1460  178.2530  147.4880 O   0  0  0  0  0  0  0  0  0  0  0  0
  188.8210  176.9650  146.4910 N   0  0  0  0  0  2  0  0  0  0  0  0
  189.4280  178.4840  137.8150 O   0  0  0  0  0  0  0  0  0  0  0  0
  189.8260  177.4370  138.3910 C   0  0  0  0  0  0  0  0  0  0  0  0
  189.8850  177.4180  139.8230 N   0  0  0  0  0  2  0  0  0  0  0  0
  192.9150  174.2670  137.3870 C   0  0  1  0  0  3  0  0  0  0  0  0
  192.6360  176.6110  137.7370 N   0  0  0  0  0  2  0  0  0  0  0  0
  193.6490  175.5690  137.7390 C   0  0  0  0  0  2  0  0  0  0  0  0
  191.6480  174.7020  136.6610 C   0  0  2  0  0  3  0  0  0  0  0  0
  190.2550  176.2840  137.5730 C   0  0  2  0  0  3  0  0  0  0  0  0
  189.4890  175.0100  137.4820 C   0  0  2  0  0  3  0  0  0  0  0  0
  191.4770  176.0690  137.1340 C   0  0  1  0  0  3  0  0  0  0  0  0
  193.9220  173.2690  136.3150 Cl  0  0  0  0  0  0  0  0  0  0  0  0
  190.4640  173.9730  137.1200 N   0  0  0  0  0  2  0  0  0  0  0  0
  188.4540  175.1100  136.4460 C   0  0  0  0  0  0  0  0  0  0  0  0
  187.6380  175.1880  135.6290 N   0  0  0  0  0  0  0  0  0  0  0  0
  2  1  1  6  0  0  0
  2  4  1  0  0  0  0
  2  3  1  0  0  0  0
  3  5  1  0  0  0  0
  4  6  1  0  0  0  0
  5  7  1  1  0  0  0
  6  5  1  0  0  0  0
  7  8  1  0  0  0  0
  8 10  1  0  0  0  0
 10 11  1  0  0  0  0
 10  9  2  0  0  0  0
 12 13  1  0  0  0  0
 13 15  1  0  0  0  0
 13 14  2  0  0  0  0
 15 11  1  0  0  0  0
 16 17  2  0  0  0  0
 17 18  1  0  0  0  0
 18  1  1  0  0  0  0
 19 26  1  6  0  0  0
 19 21  1  0  0  0  0
 20 21  1  0  0  0  0
 22 27  1  1  0  0  0
 22 25  1  0  0  0  0
 22 19  1  0  0  0  0
 23 17  1  1  0  0  0
 24 28  1  6  0  0  0
 24 23  1  0  0  0  0
 25 23  1  0  0  0  0
 25 20  1  1  0  0  0
 27 24  1  0  0  0  0
 29 28  3  0  0  0  0
M  END
>  <MODEL>
7

>  <REMARK>
 VINA RESULT:      -6.8      4.833      6.605
  Name = 
  9 active torsions:
  status: ('A' for Active; 'I' for Inactive)
    1  A    between atoms: C_1  and  N_12
    2  A    between atoms: C_7  and  C_16
    3  A    between atoms: C_11  and  C_20
    4  A    between atoms: C_11  and  S_21
    5  A    between atoms: N_12  and  N_29
    6  A    between atoms: C_13  and  C_18
    7  A    between atoms: C_14  and  S_21
    8  A    between atoms: C_14  and  C_25
    9  A    between atoms: N_24  and  C_25
                            x       y       z     vdW  Elec       q    Type
                         _______ _______ _______ _____ _____    ______ ____

>  <TORSDO>
F 9

$$$$
=
 OpenBabel10222415523D

 29 31  0  0  1  0  0  0  0  0999 V2000
  190.2280  176.5950  141.0430 N   0  0  0  0  0  2  0  0  0  0  0  0
  190.1890  177.6110  142.0830 C   0  0  1  0  0  3  0  0  0  0  0  0
  189.0670  177.3090  143.0620 C   0  0  0  0  0  2  0  0  0  0  0  0
  191.4840  177.5800  142.8710 C   0  0  0  0  0  2  0  0  0  0  0  0
  189.7190  177.0580  144.4090 C   0  0  1  0  0  3  0  0  0  0  0  0
  191.0860  177.6940  144.3250 C   0  0  0  0  0  2  0  0  0  0  0  0
  188.9150  177.7010  145.5230 C   0  0  0  0  0  2  0  0  0  0  0  0
  187.1550  177.2840  145.3510 S   0  0  0  0  0  0  0  0  0  0  0  0
  187.2110  178.0530  147.8570 O   0  0  0  0  0  0  0  0  0  0  0  0
  186.6980  178.2740  146.7720 C   0  0  0  0  0  0  0  0  0  0  0  0
  185.6800  179.3540  146.6340 C   0  0  0  0  0  2  0  0  0  0  0  0
  182.7500  178.6280  144.2150 C   0  0  0  0  0  1  0  0  0  0  0  0
  183.9930  179.2250  144.7680 C   0  0  0  0  0  0  0  0  0  0  0  0
  184.6210  180.0900  144.1000 O   0  0  0  0  0  0  0  0  0  0  0  0
  184.4650  178.8110  146.0490 N   0  0  0  0  0  2  0  0  0  0  0  0
  189.4420  177.6360  137.6810 O   0  0  0  0  0  0  0  0  0  0  0  0
  190.0040  176.9690  138.5880 C   0  0  0  0  0  0  0  0  0  0  0  0
  189.5270  177.0950  139.9340 N   0  0  0  0  0  2  0  0  0  0  0  0
  191.8510  173.7360  135.9940 C   0  0  1  0  0  3  0  0  0  0  0  0
  189.9330  174.2520  137.3160 N   0  0  0  0  0  2  0  0  0  0  0  0
  190.3790  173.3780  136.2440 C   0  0  0  0  0  2  0  0  0  0  0  0
  192.3340  174.3860  137.2840 C   0  0  2  0  0  3  0  0  0  0  0  0
  191.1560  176.1100  138.2430 C   0  0  2  0  0  3  0  0  0  0  0  0
  192.4890  176.6420  137.8490 C   0  0  2  0  0  3  0  0  0  0  0  0
  191.0860  174.8470  137.8800 C   0  0  1  0  0  3  0  0  0  0  0  0
  192.7890  172.2610  135.6650 Cl  0  0  0  0  0  0  0  0  0  0  0  0
  193.1230  175.5940  137.0380 N   0  0  0  0  0  2  0  0  0  0  0  0
  193.3020  176.9140  139.0410 C   0  0  0  0  0  0  0  0  0  0  0  0
  193.9420  177.1290  139.9810 N   0  0  0  0  0  0  0  0  0  0  0  0
  2  1  1  6  0  0  0
  2  4  1  0  0  0  0
  2  3  1  0  0  0  0
  3  5  1  0  0  0  0
  4  6  1  0  0  0  0
  5  7  1  1  0  0  0
  6  5  1  0  0  0  0
  8  7  1  0  0  0  0
  8 10  1  0  0  0  0
 10  9  2  0  0  0  0
 11 10  1  0  0  0  0
 12 13  1  0  0  0  0
 13 15  1  0  0  0  0
 14 13  2  0  0  0  0
 15 11  1  0  0  0  0
 16 17  2  0  0  0  0
 17 18  1  0  0  0  0
 18  1  1  0  0  0  0
 19 26  1  1  0  0  0
 19 21  1  0  0  0  0
 19 22  1  0  0  0  0
 21 20  1  0  0  0  0
 22 27  1  6  0  0  0
 22 25  1  0  0  0  0
 23 17  1  6  0  0  0
 24 23  1  0  0  0  0
 24 28  1  1  0  0  0
 25 20  1  6  0  0  0
 25 23  1  0  0  0  0
 27 24  1  0  0  0  0
 28 29  3  0  0  0  0
M  END
>  <MODEL>
8

>  <REMARK>
 VINA RESULT:      -6.8      4.999      7.026
  Name = 
  9 active torsions:
  status: ('A' for Active; 'I' for Inactive)
    1  A    between atoms: C_1  and  N_12
    2  A    between atoms: C_7  and  C_16
    3  A    between atoms: C_11  and  C_20
    4  A    between atoms: C_11  and  S_21
    5  A    between atoms: N_12  and  N_29
    6  A    between atoms: C_13  and  C_18
    7  A    between atoms: C_14  and  S_21
    8  A    between atoms: C_14  and  C_25
    9  A    between atoms: N_24  and  C_25
                            x       y       z     vdW  Elec       q    Type
                         _______ _______ _______ _____ _____    ______ ____

>  <TORSDO>
F 9

$$$$
=
 OpenBabel10222415523D

 29 31  0  0  1  0  0  0  0  0999 V2000
  189.1620  177.7660  140.3540 N   0  0  0  0  0  2  0  0  0  0  0  0
  188.8780  178.1920  141.7160 C   0  0  1  0  0  3  0  0  0  0  0  0
  187.4630  177.7940  142.1000 C   0  0  0  0  0  2  0  0  0  0  0  0
  189.8130  177.4820  142.6750 C   0  0  0  0  0  2  0  0  0  0  0  0
  187.5830  176.8170  143.2540 C   0  0  1  0  0  3  0  0  0  0  0  0
  188.9550  177.0440  143.8400 C   0  0  0  0  0  2  0  0  0  0  0  0
  186.5200  177.0880  144.3010 C   0  0  0  0  0  2  0  0  0  0  0  0
  187.2730  177.8060  145.7910 S   0  0  0  0  0  0  0  0  0  0  0  0
  185.4230  178.9200  147.2800 O   0  0  0  0  0  0  0  0  0  0  0  0
  185.8300  178.8110  146.1350 C   0  0  0  0  0  0  0  0  0  0  0  0
  185.1160  179.4980  145.0210 C   0  0  0  0  0  2  0  0  0  0  0  0
  181.4550  178.6190  144.1340 C   0  0  0  0  0  1  0  0  0  0  0  0
  182.9080  178.8880  143.9750 C   0  0  0  0  0  0  0  0  0  0  0  0
  183.4360  178.8070  142.8340 O   0  0  0  0  0  0  0  0  0  0  0  0
  183.6900  179.2350  145.1170 N   0  0  0  0  0  2  0  0  0  0  0  0
  188.7820  179.7620  137.3750 O   0  0  0  0  0  0  0  0  0  0  0  0
  188.8100  178.7180  138.0770 C   0  0  0  0  0  0  0  0  0  0  0  0
  188.8790  178.8460  139.5030 N   0  0  0  0  0  2  0  0  0  0  0  0
  190.6580  174.6140  137.4910 C   0  0  1  0  0  3  0  0  0  0  0  0
  191.1730  176.9430  137.5540 N   0  0  0  0  0  2  0  0  0  0  0  0
  191.7880  175.6340  137.6900 C   0  0  0  0  0  2  0  0  0  0  0  0
  189.5810  175.3530  136.7060 C   0  0  2  0  0  3  0  0  0  0  0  0
  188.8120  177.4000  137.4080 C   0  0  2  0  0  3  0  0  0  0  0  0
  187.6690  176.4480  137.4650 C   0  0  2  0  0  3  0  0  0  0  0  0
  189.8820  176.7460  137.0100 C   0  0  1  0  0  3  0  0  0  0  0  0
  191.2490  173.2220  136.5560 Cl  0  0  0  0  0  0  0  0  0  0  0  0
  188.2390  175.1130  137.2400 N   0  0  0  0  0  2  0  0  0  0  0  0
  186.6910  176.7600  136.4160 C   0  0  0  0  0  0  0  0  0  0  0  0
  185.9210  177.0060  135.5880 N   0  0  0  0  0  0  0  0  0  0  0  0
  2  1  1  6  0  0  0
  2  3  1  0  0  0  0
  2  4  1  0  0  0  0
  3  5  1  0  0  0  0
  4  6  1  0  0  0  0
  5  6  1  0  0  0  0
  5  7  1  1  0  0  0
  7  8  1  0  0  0  0
  8 10  1  0  0  0  0
 10  9  2  0  0  0  0
 11 15  1  0  0  0  0
 11 10  1  0  0  0  0
 13 12  1  0  0  0  0
 13 15  1  0  0  0  0
 14 13  2  0  0  0  0
 16 17  2  0  0  0  0
 17 18  1  0  0  0  0
 18  1  1  0  0  0  0
 19 26  1  6  0  0  0
 19 21  1  0  0  0  0
 20 21  1  0  0  0  0
 22 25  1  0  0  0  0
 22 27  1  1  0  0  0
 22 19  1  0  0  0  0
 23 24  1  0  0  0  0
 23 17  1  1  0  0  0
 24 28  1  6  0  0  0
 25 23  1  0  0  0  0
 25 20  1  1  0  0  0
 27 24  1  0  0  0  0
 29 28  3  0  0  0  0
M  END
>  <MODEL>
9

>  <REMARK>
 VINA RESULT:      -6.8      4.126      6.085
  Name = 
  9 active torsions:
  status: ('A' for Active; 'I' for Inactive)
    1  A    between atoms: C_1  and  N_12
    2  A    between atoms: C_7  and  C_16
    3  A    between atoms: C_11  and  C_20
    4  A    between atoms: C_11  and  S_21
    5  A    between atoms: N_12  and  N_29
    6  A    between atoms: C_13  and  C_18
    7  A    between atoms: C_14  and  S_21
    8  A    between atoms: C_14  and  C_25
    9  A    between atoms: N_24  and  C_25
                            x       y       z     vdW  Elec       q    Type
                         _______ _______ _______ _____ _____    ______ ____

>  <TORSDO>
F 9

$$$$
