=
 OpenBabel10222416313D

 32 36  0  0  1  0  0  0  0  0999 V2000
  190.1160  176.4140  141.4740 C   0  0  0  0  0  3  0  0  0  0  0  0
  190.9750  178.0130  142.7560 C   0  0  0  0  0  0  0  0  0  0  0  0
  191.1850  178.9130  143.9330 C   0  0  0  0  0  2  0  0  0  0  0  0
  191.6130  178.0730  141.6160 O   0  0  0  0  0  0  0  0  0  0  0  0
  190.5800  178.2870  145.1970 C   0  0  0  0  0  2  0  0  0  0  0  0
  189.1790  176.6240  143.8740 C   0  0  0  0  0  2  0  0  0  0  0  0
  191.1250  177.1310  140.8340 C   0  0  0  0  0  0  0  0  0  0  0  0
  189.1670  177.7430  144.9290 C   0  0  1  0  0  3  0  0  0  0  0  0
  190.0300  177.0220  142.7100 C   0  0  0  0  0  0  0  0  0  0  0  0
  194.0920  176.8840  139.9360 C   0  0  0  0  0  1  0  0  0  0  0  0
  191.6020  176.5180  137.2510 C   0  0  0  0  0  3  0  0  0  0  0  0
  194.0360  176.3860  136.9410 O   0  0  0  0  0  1  0  0  0  0  0  0
  192.8770  176.7820  139.0740 C   0  0  0  0  0  0  0  0  0  0  0  0
  190.8270  176.7330  138.3860 C   0  0  0  0  0  0  0  0  0  0  0  0
  192.8980  176.5540  137.7190 C   0  0  0  0  0  0  0  0  0  0  0  0
  191.5960  176.8930  139.4910 N   0  0  0  0  0  0  0  0  0  0  0  0
  187.8660  176.2120  136.6080 C   0  0  0  0  0  0  0  0  0  0  0  0
  189.3270  176.7840  138.3840 C   0  0  1  0  0  3  0  0  0  0  0  0
  188.8190  178.0730  137.7170 C   0  0  0  0  0  2  0  0  0  0  0  0
  187.9130  177.5820  136.6580 C   0  0  0  0  0  0  0  0  0  0  0  0
  186.3620  177.7200  134.8250 C   0  0  0  0  0  3  0  0  0  0  0  0
  186.3150  176.3150  134.7730 C   0  0  0  0  0  3  0  0  0  0  0  0
  188.7340  175.5850  137.6250 C   0  0  0  0  0  2  0  0  0  0  0  0
  187.0740  175.5490  135.6710 C   0  0  0  0  0  3  0  0  0  0  0  0
  187.1690  178.3650  135.7740 C   0  0  0  0  0  3  0  0  0  0  0  0
  188.5340  177.2590  146.1970 C   0  0  0  0  0  0  0  0  0  0  0  0
  189.2460  176.7260  147.0900 O   0  0  0  0  0  0  0  0  0  0  0  0
  187.1280  177.3870  146.4090 N   0  0  0  0  0  2  0  0  0  0  0  0
  186.2420  177.9880  145.4230 C   0  0  0  0  0  2  0  0  0  0  0  0
  184.0330  179.0750  145.0660 C   0  0  0  0  0  1  0  0  0  0  0  0
  185.2800  179.4180  147.0570 O   0  0  0  0  0  1  0  0  0  0  0  0
  184.9660  178.4620  146.0930 C   0  0  2  0  0  3  0  0  0  0  0  0
  1  9  1  0  0  0  0
  2  3  1  0  0  0  0
  3  5  1  0  0  0  0
  4  2  1  0  0  0  0
  6  8  1  0  0  0  0
  7  1  2  0  0  0  0
  7  4  1  0  0  0  0
  8  5  1  0  0  0  0
  8 26  1  1  0  0  0
  9  2  2  0  0  0  0
  9  6  1  0  0  0  0
 11 15  1  0  0  0  0
 11 14  2  0  0  0  0
 12 15  1  0  0  0  0
 13 16  1  0  0  0  0
 13 10  1  0  0  0  0
 14 16  1  0  0  0  0
 15 13  2  0  0  0  0
 16  7  1  0  0  0  0
 17 20  1  0  0  0  0
 17 23  1  0  0  0  0
 18 14  1  6  0  0  0
 19 18  1  0  0  0  0
 20 19  1  0  0  0  0
 21 25  1  0  0  0  0
 22 21  2  0  0  0  0
 22 24  1  0  0  0  0
 23 18  1  0  0  0  0
 24 17  2  0  0  0  0
 25 20  2  0  0  0  0
 26 28  1  0  0  0  0
 26 27  2  0  0  0  0
 29 32  1  0  0  0  0
 29 28  1  0  0  0  0
 32 30  1  6  0  0  0
 32 31  1  0  0  0  0
M  END
>  <MODEL>
1

>  <REMARK>
 VINA RESULT:      -8.5      0.000      0.000
  Name = 
  5 active torsions:
  status: ('A' for Active; 'I' for Inactive)
    1  A    between atoms: C_3  and  C_25
    2  A    between atoms: C_6  and  C_19
    3  A    between atoms: C_14  and  N_18
    4  A    between atoms: C_14  and  C_30
    5  A    between atoms: C_16  and  N_31
                            x       y       z     vdW  Elec       q    Type
                         _______ _______ _______ _____ _____    ______ ____

>  <TORSDO>
F 5

$$$$
=
 OpenBabel10222416313D

 32 36  0  0  1  0  0  0  0  0999 V2000
  185.7420  177.2980  143.3770 C   0  0  0  0  0  3  0  0  0  0  0  0
  187.2200  178.3020  142.0560 C   0  0  0  0  0  0  0  0  0  0  0  0
  188.5320  178.6840  141.4460 C   0  0  0  0  0  2  0  0  0  0  0  0
  186.0540  178.8120  141.7580 O   0  0  0  0  0  0  0  0  0  0  0  0
  189.5860  177.6040  141.7270 C   0  0  0  0  0  2  0  0  0  0  0  0
  188.2060  176.5420  143.5840 C   0  0  0  0  0  2  0  0  0  0  0  0
  185.1540  178.2330  142.5270 C   0  0  0  0  0  0  0  0  0  0  0  0
  189.5580  177.1680  143.2020 C   0  0  1  0  0  3  0  0  0  0  0  0
  187.0830  177.3800  143.0600 C   0  0  0  0  0  0  0  0  0  0  0  0
  183.3620  179.1080  144.9130 C   0  0  0  0  0  1  0  0  0  0  0  0
  181.6470  178.8640  141.6660 C   0  0  0  0  0  3  0  0  0  0  0  0
  180.5760  179.5220  143.7780 O   0  0  0  0  0  1  0  0  0  0  0  0
  182.9450  178.9240  143.4920 C   0  0  0  0  0  0  0  0  0  0  0  0
  182.9590  178.5070  141.3690 C   0  0  0  0  0  0  0  0  0  0  0  0
  181.6700  179.1240  143.0200 C   0  0  0  0  0  0  0  0  0  0  0  0
  183.7460  178.5420  142.4720 N   0  0  0  0  0  0  0  0  0  0  0  0
  182.2480  178.2980  137.9550 C   0  0  0  0  0  0  0  0  0  0  0  0
  183.4370  178.1280  139.9980 C   0  0  1  0  0  3  0  0  0  0  0  0
  182.9230  176.7350  139.5990 C   0  0  0  0  0  2  0  0  0  0  0  0
  182.2300  176.9740  138.3160 C   0  0  0  0  0  0  0  0  0  0  0  0
  180.9900  176.4310  136.3280 C   0  0  0  0  0  3  0  0  0  0  0  0
  181.0070  177.7880  135.9590 C   0  0  0  0  0  3  0  0  0  0  0  0
  182.9540  179.1380  138.9450 C   0  0  0  0  0  2  0  0  0  0  0  0
  181.6410  178.7350  136.7790 C   0  0  0  0  0  3  0  0  0  0  0  0
  181.6060  176.0150  137.5190 C   0  0  0  0  0  3  0  0  0  0  0  0
  190.6760  176.2160  143.4960 C   0  0  0  0  0  0  0  0  0  0  0  0
  190.9360  175.2850  142.6880 O   0  0  0  0  0  0  0  0  0  0  0  0
  191.4520  176.3450  144.6870 N   0  0  0  0  0  2  0  0  0  0  0  0
  191.2080  177.3920  145.6690 C   0  0  0  0  0  2  0  0  0  0  0  0
  189.4920  177.3360  147.4690 C   0  0  0  0  0  1  0  0  0  0  0  0
  191.8020  177.0650  147.9460 O   0  0  0  0  0  1  0  0  0  0  0  0
  190.8200  176.7740  146.9990 C   0  0  2  0  0  3  0  0  0  0  0  0
  2  9  2  0  0  0  0
  3  5  1  0  0  0  0
  3  2  1  0  0  0  0
  4  2  1  0  0  0  0
  4  7  1  0  0  0  0
  5  8  1  0  0  0  0
  7  1  2  0  0  0  0
  8 26  1  6  0  0  0
  8  6  1  0  0  0  0
  9  1  1  0  0  0  0
  9  6  1  0  0  0  0
 11 15  1  0  0  0  0
 13 10  1  0  0  0  0
 14 11  2  0  0  0  0
 14 16  1  0  0  0  0
 15 13  2  0  0  0  0
 15 12  1  0  0  0  0
 16  7  1  0  0  0  0
 16 13  1  0  0  0  0
 17 20  1  0  0  0  0
 17 23  1  0  0  0  0
 18 14  1  1  0  0  0
 19 18  1  0  0  0  0
 20 19  1  0  0  0  0
 21 25  1  0  0  0  0
 22 21  2  0  0  0  0
 22 24  1  0  0  0  0
 23 18  1  0  0  0  0
 24 17  2  0  0  0  0
 25 20  2  0  0  0  0
 26 28  1  0  0  0  0
 27 26  2  0  0  0  0
 28 29  1  0  0  0  0
 29 32  1  0  0  0  0
 32 30  1  1  0  0  0
 32 31  1  0  0  0  0
M  END
>  <MODEL>
2

>  <REMARK>
 VINA RESULT:      -8.3      3.957      7.164
  Name = 
  5 active torsions:
  status: ('A' for Active; 'I' for Inactive)
    1  A    between atoms: C_3  and  C_25
    2  A    between atoms: C_6  and  C_19
    3  A    between atoms: C_14  and  N_18
    4  A    between atoms: C_14  and  C_30
    5  A    between atoms: C_16  and  N_31
                            x       y       z     vdW  Elec       q    Type
                         _______ _______ _______ _____ _____    ______ ____

>  <TORSDO>
F 5

$$$$
=
 OpenBabel10222416313D

 32 36  0  0  1  0  0  0  0  0999 V2000
  184.0980  178.6260  140.7410 C   0  0  0  0  0  3  0  0  0  0  0  0
  182.7250  178.6360  142.4880 C   0  0  0  0  0  0  0  0  0  0  0  0
  182.2540  178.6280  143.9090 C   0  0  0  0  0  2  0  0  0  0  0  0
  181.9660  178.6010  141.4250 O   0  0  0  0  0  0  0  0  0  0  0  0
  183.3770  179.0980  144.8450 C   0  0  0  0  0  2  0  0  0  0  0  0
  185.1820  178.7540  143.0840 C   0  0  0  0  0  2  0  0  0  0  0  0
  182.7550  178.5970  140.3690 C   0  0  0  0  0  0  0  0  0  0  0  0
  184.7100  178.4110  144.5070 C   0  0  1  0  0  3  0  0  0  0  0  0
  184.0450  178.6320  142.1200 C   0  0  0  0  0  0  0  0  0  0  0  0
  182.9450  176.2080  138.3860 C   0  0  0  0  0  1  0  0  0  0  0  0
  181.2910  179.2190  137.0660 C   0  0  0  0  0  3  0  0  0  0  0  0
  181.6320  177.1350  135.8100 O   0  0  0  0  0  1  0  0  0  0  0  0
  182.3350  177.5460  138.1310 C   0  0  0  0  0  0  0  0  0  0  0  0
  181.6320  179.5790  138.3660 C   0  0  0  0  0  0  0  0  0  0  0  0
  181.7480  177.9240  136.9470 C   0  0  0  0  0  0  0  0  0  0  0  0
  182.2650  178.5690  139.0130 N   0  0  0  0  0  0  0  0  0  0  0  0
  179.9870  182.6470  138.0740 C   0  0  0  0  0  0  0  0  0  0  0  0
  181.3400  180.9210  138.9720 C   0  0  1  0  0  3  0  0  0  0  0  0
  182.2460  182.0080  138.3720 C   0  0  0  0  0  2  0  0  0  0  0  0
  181.2920  183.0200  137.8750 C   0  0  0  0  0  0  0  0  0  0  0  0
  180.5660  185.0700  136.8460 C   0  0  0  0  0  3  0  0  0  0  0  0
  179.2280  184.6860  137.0490 C   0  0  0  0  0  3  0  0  0  0  0  0
  179.8780  181.3280  138.7320 C   0  0  0  0  0  2  0  0  0  0  0  0
  178.9310  183.4610  137.6690 C   0  0  0  0  0  3  0  0  0  0  0  0
  181.6120  184.2310  137.2600 C   0  0  0  0  0  3  0  0  0  0  0  0
  185.7630  178.7730  145.5080 C   0  0  0  0  0  0  0  0  0  0  0  0
  185.5580  179.7090  146.3260 O   0  0  0  0  0  0  0  0  0  0  0  0
  187.0070  178.0720  145.5470 N   0  0  0  0  0  2  0  0  0  0  0  0
  187.3190  176.9840  144.6330 C   0  0  0  0  0  2  0  0  0  0  0  0
  189.5960  177.8290  145.1700 C   0  0  0  0  0  1  0  0  0  0  0  0
  188.7540  177.8520  142.9500 O   0  0  0  0  0  1  0  0  0  0  0  0
  188.7460  177.1180  144.1350 C   0  0  2  0  0  3  0  0  0  0  0  0
  1  9  1  0  0  0  0
  2  3  1  0  0  0  0
  3  5  1  0  0  0  0
  4  2  1  0  0  0  0
  6  8  1  0  0  0  0
  7  1  2  0  0  0  0
  7  4  1  0  0  0  0
  8  5  1  0  0  0  0
  8 26  1  1  0  0  0
  9  2  2  0  0  0  0
  9  6  1  0  0  0  0
 11 14  2  0  0  0  0
 12 15  1  0  0  0  0
 13 10  1  0  0  0  0
 13 16  1  0  0  0  0
 14 16  1  0  0  0  0
 15 11  1  0  0  0  0
 15 13  2  0  0  0  0
 16  7  1  0  0  0  0
 17 23  1  0  0  0  0
 18 14  1  6  0  0  0
 19 18  1  0  0  0  0
 20 17  1  0  0  0  0
 20 19  1  0  0  0  0
 21 22  2  0  0  0  0
 21 25  1  0  0  0  0
 22 24  1  0  0  0  0
 23 18  1  0  0  0  0
 24 17  2  0  0  0  0
 25 20  2  0  0  0  0
 26 28  1  0  0  0  0
 26 27  2  0  0  0  0
 29 28  1  0  0  0  0
 31 32  1  0  0  0  0
 32 29  1  0  0  0  0
 32 30  1  1  0  0  0
M  END
>  <MODEL>
3

>  <REMARK>
 VINA RESULT:      -8.3      5.976      8.441
  Name = 
  5 active torsions:
  status: ('A' for Active; 'I' for Inactive)
    1  A    between atoms: C_3  and  C_25
    2  A    between atoms: C_6  and  C_19
    3  A    between atoms: C_14  and  N_18
    4  A    between atoms: C_14  and  C_30
    5  A    between atoms: C_16  and  N_31
                            x       y       z     vdW  Elec       q    Type
                         _______ _______ _______ _____ _____    ______ ____

>  <TORSDO>
F 5

$$$$
=
 OpenBabel10222416313D

 32 36  0  0  1  0  0  0  0  0999 V2000
  187.3880  177.4820  143.9390 C   0  0  0  0  0  3  0  0  0  0  0  0
  186.1300  178.5330  145.4400 C   0  0  0  0  0  0  0  0  0  0  0  0
  184.9530  179.2230  146.0560 C   0  0  0  0  0  2  0  0  0  0  0  0
  187.2990  178.3560  145.9990 O   0  0  0  0  0  0  0  0  0  0  0  0
  183.6680  178.8670  145.2940 C   0  0  0  0  0  2  0  0  0  0  0  0
  184.9420  177.9870  143.2740 C   0  0  0  0  0  2  0  0  0  0  0  0
  188.0680  177.7320  145.1300 C   0  0  0  0  0  0  0  0  0  0  0  0
  183.8730  178.9740  143.7740 C   0  0  1  0  0  3  0  0  0  0  0  0
  186.1420  178.0300  144.1660 C   0  0  0  0  0  0  0  0  0  0  0  0
  189.1290  176.3690  147.7160 C   0  0  0  0  0  1  0  0  0  0  0  0
  191.6740  177.0690  145.1520 C   0  0  0  0  0  3  0  0  0  0  0  0
  192.1180  176.0060  147.3230 O   0  0  0  0  0  1  0  0  0  0  0  0
  189.9220  176.7700  146.5170 C   0  0  0  0  0  0  0  0  0  0  0  0
  190.4970  177.5410  144.5790 C   0  0  0  0  0  0  0  0  0  0  0  0
  191.2770  176.5850  146.3810 C   0  0  0  0  0  0  0  0  0  0  0  0
  189.4350  177.3610  145.4040 N   0  0  0  0  0  0  0  0  0  0  0  0
  190.4480  177.0830  141.1170 C   0  0  0  0  0  0  0  0  0  0  0  0
  190.4170  178.1730  143.2210 C   0  0  1  0  0  3  0  0  0  0  0  0
  191.8150  178.3240  142.5980 C   0  0  0  0  0  2  0  0  0  0  0  0
  191.6930  177.6310  141.2990 C   0  0  0  0  0  0  0  0  0  0  0  0
  192.3900  176.8020  139.1520 C   0  0  0  0  0  3  0  0  0  0  0  0
  191.1140  176.2390  138.9660 C   0  0  0  0  0  3  0  0  0  0  0  0
  189.5550  177.3290  142.2680 C   0  0  0  0  0  2  0  0  0  0  0  0
  190.1300  176.3780  139.9560 C   0  0  0  0  0  3  0  0  0  0  0  0
  192.6880  177.5040  140.3290 C   0  0  0  0  0  3  0  0  0  0  0  0
  182.5820  178.7580  143.0480 C   0  0  0  0  0  0  0  0  0  0  0  0
  181.5020  178.6840  143.6940 O   0  0  0  0  0  0  0  0  0  0  0  0
  182.5540  178.6280  141.6260 N   0  0  0  0  0  2  0  0  0  0  0  0
  183.7590  178.6970  140.8120 C   0  0  0  0  0  2  0  0  0  0  0  0
  183.1520  178.3330  138.4280 C   0  0  0  0  0  1  0  0  0  0  0  0
  184.5550  180.1290  139.0920 O   0  0  0  0  0  1  0  0  0  0  0  0
  183.4530  179.3730  139.4890 C   0  0  2  0  0  3  0  0  0  0  0  0
  1  9  1  0  0  0  0
  1  7  2  0  0  0  0
  2  4  1  0  0  0  0
  2  3  1  0  0  0  0
  5  3  1  0  0  0  0
  6  8  1  0  0  0  0
  6  9  1  0  0  0  0
  7 16  1  0  0  0  0
  7  4  1  0  0  0  0
  8 26  1  6  0  0  0
  8  5  1  0  0  0  0
  9  2  2  0  0  0  0
 11 15  1  0  0  0  0
 13 10  1  0  0  0  0
 14 11  2  0  0  0  0
 14 16  1  0  0  0  0
 15 13  2  0  0  0  0
 15 12  1  0  0  0  0
 16 13  1  0  0  0  0
 17 20  1  0  0  0  0
 17 23  1  0  0  0  0
 18 14  1  1  0  0  0
 19 18  1  0  0  0  0
 20 19  1  0  0  0  0
 21 25  1  0  0  0  0
 22 21  2  0  0  0  0
 22 24  1  0  0  0  0
 23 18  1  0  0  0  0
 24 17  2  0  0  0  0
 25 20  2  0  0  0  0
 26 27  2  0  0  0  0
 28 26  1  0  0  0  0
 29 28  1  0  0  0  0
 31 32  1  0  0  0  0
 32 30  1  6  0  0  0
 32 29  1  0  0  0  0
M  END
>  <MODEL>
4

>  <REMARK>
 VINA RESULT:      -8.3      3.458      6.687
  Name = 
  5 active torsions:
  status: ('A' for Active; 'I' for Inactive)
    1  A    between atoms: C_3  and  C_25
    2  A    between atoms: C_6  and  C_19
    3  A    between atoms: C_14  and  N_18
    4  A    between atoms: C_14  and  C_30
    5  A    between atoms: C_16  and  N_31
                            x       y       z     vdW  Elec       q    Type
                         _______ _______ _______ _____ _____    ______ ____

>  <TORSDO>
F 5

$$$$
=
 OpenBabel10222416313D

 32 36  0  0  1  0  0  0  0  0999 V2000
  187.7520  177.3650  142.5700 C   0  0  0  0  0  3  0  0  0  0  0  0
  189.6550  178.5020  142.7160 C   0  0  0  0  0  0  0  0  0  0  0  0
  190.9460  179.0230  143.2680 C   0  0  0  0  0  2  0  0  0  0  0  0
  189.1010  178.8580  141.5870 O   0  0  0  0  0  0  0  0  0  0  0  0
  191.4730  178.0880  144.3650 C   0  0  0  0  0  2  0  0  0  0  0  0
  189.2270  176.9220  144.6450 C   0  0  0  0  0  2  0  0  0  0  0  0
  187.9670  178.1960  141.4720 C   0  0  0  0  0  0  0  0  0  0  0  0
  190.3560  177.6950  145.3470 C   0  0  1  0  0  3  0  0  0  0  0  0
  188.8540  177.6010  143.3660 C   0  0  0  0  0  0  0  0  0  0  0  0
  184.9060  178.7400  141.5750 C   0  0  0  0  0  1  0  0  0  0  0  0
  186.3330  178.4230  138.1980 C   0  0  0  0  0  3  0  0  0  0  0  0
  183.9640  178.8510  138.6910 O   0  0  0  0  0  1  0  0  0  0  0  0
  185.7510  178.5650  140.3570 C   0  0  0  0  0  0  0  0  0  0  0  0
  187.4310  178.2450  139.0330 C   0  0  0  0  0  0  0  0  0  0  0  0
  185.2810  178.6250  139.0670 C   0  0  0  0  0  0  0  0  0  0  0  0
  187.0820  178.3300  140.3400 N   0  0  0  0  0  0  0  0  0  0  0  0
  189.4810  177.1020  136.4450 C   0  0  0  0  0  0  0  0  0  0  0  0
  188.8270  177.9870  138.5440 C   0  0  1  0  0  3  0  0  0  0  0  0
  189.2090  176.5080  138.7200 C   0  0  0  0  0  2  0  0  0  0  0  0
  189.6140  176.0900  137.3620 C   0  0  0  0  0  0  0  0  0  0  0  0
  190.4130  174.6120  135.6400 C   0  0  0  0  0  3  0  0  0  0  0  0
  190.2750  175.6500  134.7000 C   0  0  0  0  0  3  0  0  0  0  0  0
  188.9660  178.3450  137.0560 C   0  0  0  0  0  2  0  0  0  0  0  0
  189.8030  176.9090  135.1020 C   0  0  0  0  0  3  0  0  0  0  0  0
  190.0790  174.8290  136.9860 C   0  0  0  0  0  3  0  0  0  0  0  0
  190.9080  176.8960  146.4870 C   0  0  0  0  0  0  0  0  0  0  0  0
  191.7790  176.0120  146.2700 O   0  0  0  0  0  0  0  0  0  0  0  0
  190.4550  177.1170  147.8230 N   0  0  0  0  0  2  0  0  0  0  0  0
  189.4490  178.1160  148.1510 C   0  0  0  0  0  2  0  0  0  0  0  0
  187.1390  178.2460  147.2370 C   0  0  0  0  0  1  0  0  0  0  0  0
  187.5580  177.5060  149.4530 O   0  0  0  0  0  1  0  0  0  0  0  0
  188.0700  177.4820  148.1570 C   0  0  2  0  0  3  0  0  0  0  0  0
  1  9  1  0  0  0  0
  2  3  1  0  0  0  0
  2  9  2  0  0  0  0
  3  5  1  0  0  0  0
  4  2  1  0  0  0  0
  5  8  1  0  0  0  0
  6  8  1  0  0  0  0
  7  4  1  0  0  0  0
  7  1  2  0  0  0  0
  8 26  1  1  0  0  0
  9  6  1  0  0  0  0
 11 14  2  0  0  0  0
 11 15  1  0  0  0  0
 12 15  1  0  0  0  0
 13 10  1  0  0  0  0
 14 16  1  0  0  0  0
 15 13  2  0  0  0  0
 16 13  1  0  0  0  0
 16  7  1  0  0  0  0
 17 23  1  0  0  0  0
 17 20  1  0  0  0  0
 18 19  1  0  0  0  0
 18 14  1  6  0  0  0
 20 19  1  0  0  0  0
 21 25  1  0  0  0  0
 22 24  1  0  0  0  0
 22 21  2  0  0  0  0
 23 18  1  0  0  0  0
 24 17  2  0  0  0  0
 25 20  2  0  0  0  0
 26 28  1  0  0  0  0
 27 26  2  0  0  0  0
 28 29  1  0  0  0  0
 29 32  1  0  0  0  0
 32 30  1  6  0  0  0
 32 31  1  0  0  0  0
M  END
>  <MODEL>
5

>  <REMARK>
 VINA RESULT:      -8.1      2.882      4.370
  Name = 
  5 active torsions:
  status: ('A' for Active; 'I' for Inactive)
    1  A    between atoms: C_3  and  C_25
    2  A    between atoms: C_6  and  C_19
    3  A    between atoms: C_14  and  N_18
    4  A    between atoms: C_14  and  C_30
    5  A    between atoms: C_16  and  N_31
                            x       y       z     vdW  Elec       q    Type
                         _______ _______ _______ _____ _____    ______ ____

>  <TORSDO>
F 5

$$$$
=
 OpenBabel10222416313D

 32 36  0  0  1  0  0  0  0  0999 V2000
  183.9350  178.9060  139.8380 C   0  0  0  0  0  3  0  0  0  0  0  0
  183.7960  176.9760  138.7470 C   0  0  0  0  0  0  0  0  0  0  0  0
  184.0500  175.9170  137.7190 C   0  0  0  0  0  2  0  0  0  0  0  0
  182.9230  176.9130  139.7180 O   0  0  0  0  0  0  0  0  0  0  0  0
  185.4000  176.1590  137.0280 C   0  0  0  0  0  2  0  0  0  0  0  0
  185.5480  178.5650  137.8470 C   0  0  0  0  0  2  0  0  0  0  0  0
  182.9840  178.0470  140.3860 C   0  0  0  0  0  0  0  0  0  0  0  0
  185.5630  177.6340  136.6230 C   0  0  1  0  0  3  0  0  0  0  0  0
  184.4290  178.1910  138.7670 C   0  0  0  0  0  0  0  0  0  0  0  0
  179.9240  177.5550  140.6410 C   0  0  0  0  0  1  0  0  0  0  0  0
  181.5350  179.0140  143.6120 C   0  0  0  0  0  3  0  0  0  0  0  0
  179.1430  178.4800  143.4260 O   0  0  0  0  0  1  0  0  0  0  0  0
  180.8350  178.1320  141.6740 C   0  0  0  0  0  0  0  0  0  0  0  0
  182.5850  178.8680  142.7110 C   0  0  0  0  0  0  0  0  0  0  0  0
  180.4370  178.5370  142.9260 C   0  0  0  0  0  0  0  0  0  0  0  0
  182.1640  178.3340  141.5370 N   0  0  0  0  0  0  0  0  0  0  0  0
  185.6010  178.0490  144.2710 C   0  0  0  0  0  0  0  0  0  0  0  0
  184.0050  179.2570  143.0040 C   0  0  1  0  0  3  0  0  0  0  0  0
  184.1260  179.8950  144.3970 C   0  0  0  0  0  2  0  0  0  0  0  0
  185.1550  179.0730  145.0670 C   0  0  0  0  0  0  0  0  0  0  0  0
  186.6310  178.3690  146.8300 C   0  0  0  0  0  3  0  0  0  0  0  0
  187.0870  177.3180  146.0150 C   0  0  0  0  0  3  0  0  0  0  0  0
  184.9340  178.0340  142.9530 C   0  0  0  0  0  2  0  0  0  0  0  0
  186.5690  177.1510  144.7210 C   0  0  0  0  0  3  0  0  0  0  0  0
  185.6540  179.2580  146.3570 C   0  0  0  0  0  3  0  0  0  0  0  0
  186.8180  177.8320  135.8310 C   0  0  0  0  0  0  0  0  0  0  0  0
  186.7500  178.1950  134.6270 O   0  0  0  0  0  0  0  0  0  0  0  0
  188.0990  177.6090  136.4220 N   0  0  0  0  0  2  0  0  0  0  0  0
  188.2580  177.1850  137.8060 C   0  0  0  0  0  2  0  0  0  0  0  0
  188.5180  178.3450  139.9900 C   0  0  0  0  0  1  0  0  0  0  0  0
  188.9510  179.4530  137.9360 O   0  0  0  0  0  1  0  0  0  0  0  0
  189.0540  178.2200  138.5770 C   0  0  2  0  0  3  0  0  0  0  0  0
  1  7  2  0  0  0  0
  2  9  2  0  0  0  0
  2  4  1  0  0  0  0
  3  2  1  0  0  0  0
  4  7  1  0  0  0  0
  5  3  1  0  0  0  0
  6  9  1  0  0  0  0
  7 16  1  0  0  0  0
  8 26  1  1  0  0  0
  8  5  1  0  0  0  0
  8  6  1  0  0  0  0
  9  1  1  0  0  0  0
 10 13  1  0  0  0  0
 13 15  2  0  0  0  0
 14 11  2  0  0  0  0
 15 12  1  0  0  0  0
 15 11  1  0  0  0  0
 16 13  1  0  0  0  0
 16 14  1  0  0  0  0
 17 24  2  0  0  0  0
 17 20  1  0  0  0  0
 18 14  1  1  0  0  0
 18 19  1  0  0  0  0
 19 20  1  0  0  0  0
 20 25  2  0  0  0  0
 22 21  2  0  0  0  0
 23 18  1  0  0  0  0
 23 17  1  0  0  0  0
 24 22  1  0  0  0  0
 25 21  1  0  0  0  0
 26 28  1  0  0  0  0
 27 26  2  0  0  0  0
 28 29  1  0  0  0  0
 29 32  1  0  0  0  0
 31 32  1  0  0  0  0
 32 30  1  1  0  0  0
M  END
>  <MODEL>
6

>  <REMARK>
 VINA RESULT:      -8.0      4.015     10.058
  Name = 
  5 active torsions:
  status: ('A' for Active; 'I' for Inactive)
    1  A    between atoms: C_3  and  C_25
    2  A    between atoms: C_6  and  C_19
    3  A    between atoms: C_14  and  N_18
    4  A    between atoms: C_14  and  C_30
    5  A    between atoms: C_16  and  N_31
                            x       y       z     vdW  Elec       q    Type
                         _______ _______ _______ _____ _____    ______ ____

>  <TORSDO>
F 5

$$$$
=
 OpenBabel10222416313D

 32 36  0  0  1  0  0  0  0  0999 V2000
  187.2480  178.4100  141.4170 C   0  0  0  0  0  3  0  0  0  0  0  0
  188.5100  176.9260  142.4850 C   0  0  0  0  0  0  0  0  0  0  0  0
  189.6600  176.0210  142.7970 C   0  0  0  0  0  2  0  0  0  0  0  0
  187.4060  177.0350  143.1770 O   0  0  0  0  0  0  0  0  0  0  0  0
  190.9130  176.4680  142.0320 C   0  0  0  0  0  2  0  0  0  0  0  0
  189.5820  177.9220  140.4210 C   0  0  0  0  0  2  0  0  0  0  0  0
  186.6350  177.9130  142.5660 C   0  0  0  0  0  0  0  0  0  0  0  0
  190.5900  176.7680  140.5590 C   0  0  1  0  0  3  0  0  0  0  0  0
  188.4510  177.7370  141.3830 C   0  0  0  0  0  0  0  0  0  0  0  0
  185.9040  178.6890  145.4880 C   0  0  0  0  0  1  0  0  0  0  0  0
  183.1130  178.7840  143.0910 C   0  0  0  0  0  3  0  0  0  0  0  0
  182.9360  179.3280  145.4810 O   0  0  0  0  0  1  0  0  0  0  0  0
  184.9870  178.6370  144.3110 C   0  0  0  0  0  0  0  0  0  0  0  0
  184.1960  178.3860  142.3130 C   0  0  0  0  0  0  0  0  0  0  0  0
  183.6460  178.9360  144.3540 C   0  0  0  0  0  0  0  0  0  0  0  0
  185.3310  178.2960  143.0500 N   0  0  0  0  0  0  0  0  0  0  0  0
  182.7900  179.1990  139.2210 C   0  0  0  0  0  0  0  0  0  0  0  0
  184.1130  178.0910  140.8440 C   0  0  1  0  0  3  0  0  0  0  0  0
  182.8840  177.2250  140.5230 C   0  0  0  0  0  2  0  0  0  0  0  0
  182.1670  178.0090  139.4960 C   0  0  0  0  0  0  0  0  0  0  0  0
  180.4430  178.5210  137.8990 C   0  0  0  0  0  3  0  0  0  0  0  0
  181.0810  179.7430  137.6180 C   0  0  0  0  0  3  0  0  0  0  0  0
  184.0150  179.3880  140.0250 C   0  0  0  0  0  2  0  0  0  0  0  0
  182.2670  180.0900  138.2840 C   0  0  0  0  0  3  0  0  0  0  0  0
  180.9870  177.6420  138.8480 C   0  0  0  0  0  3  0  0  0  0  0  0
  191.8400  177.0720  139.7920 C   0  0  0  0  0  0  0  0  0  0  0  0
  192.7250  177.8090  140.3000 O   0  0  0  0  0  0  0  0  0  0  0  0
  192.0420  176.5390  138.4820 N   0  0  0  0  0  2  0  0  0  0  0  0
  191.0640  175.6830  137.8280 C   0  0  0  0  0  2  0  0  0  0  0  0
  188.7500  176.3650  137.2210 C   0  0  0  0  0  1  0  0  0  0  0  0
  190.4230  176.0430  135.5690 O   0  0  0  0  0  1  0  0  0  0  0  0
  190.2190  176.5010  136.8690 C   0  0  2  0  0  3  0  0  0  0  0  0
  1  7  2  0  0  0  0
  2  3  1  0  0  0  0
  2  4  1  0  0  0  0
  5  3  1  0  0  0  0
  6  8  1  0  0  0  0
  6  9  1  0  0  0  0
  7 16  1  0  0  0  0
  7  4  1  0  0  0  0
  8 26  1  6  0  0  0
  8  5  1  0  0  0  0
  9  1  1  0  0  0  0
  9  2  2  0  0  0  0
 11 15  1  0  0  0  0
 13 15  2  0  0  0  0
 13 10  1  0  0  0  0
 14 16  1  0  0  0  0
 14 11  2  0  0  0  0
 15 12  1  0  0  0  0
 16 13  1  0  0  0  0
 17 20  1  0  0  0  0
 17 23  1  0  0  0  0
 18 14  1  1  0  0  0
 19 18  1  0  0  0  0
 20 19  1  0  0  0  0
 21 25  1  0  0  0  0
 22 21  2  0  0  0  0
 22 24  1  0  0  0  0
 23 18  1  0  0  0  0
 24 17  2  0  0  0  0
 25 20  2  0  0  0  0
 26 27  2  0  0  0  0
 28 26  1  0  0  0  0
 29 28  1  0  0  0  0
 31 32  1  0  0  0  0
 32 30  1  1  0  0  0
 32 29  1  0  0  0  0
M  END
>  <MODEL>
7

>  <REMARK>
 VINA RESULT:      -8.0      3.605      7.806
  Name = 
  5 active torsions:
  status: ('A' for Active; 'I' for Inactive)
    1  A    between atoms: C_3  and  C_25
    2  A    between atoms: C_6  and  C_19
    3  A    between atoms: C_14  and  N_18
    4  A    between atoms: C_14  and  C_30
    5  A    between atoms: C_16  and  N_31
                            x       y       z     vdW  Elec       q    Type
                         _______ _______ _______ _____ _____    ______ ____

>  <TORSDO>
F 5

$$$$
=
 OpenBabel10222416313D

 32 36  0  0  1  0  0  0  0  0999 V2000
  184.0110  178.6580  140.7590 C   0  0  0  0  0  3  0  0  0  0  0  0
  182.6680  178.7240  142.5280 C   0  0  0  0  0  0  0  0  0  0  0  0
  182.2200  178.7350  143.9570 C   0  0  0  0  0  2  0  0  0  0  0  0
  181.8910  178.7200  141.4770 O   0  0  0  0  0  0  0  0  0  0  0  0
  183.3760  179.1600  144.8740 C   0  0  0  0  0  2  0  0  0  0  0  0
  185.1370  178.7420  143.0840 C   0  0  0  0  0  2  0  0  0  0  0  0
  182.6620  178.6830  140.4090 C   0  0  0  0  0  0  0  0  0  0  0  0
  184.6750  178.4190  144.5150 C   0  0  1  0  0  3  0  0  0  0  0  0
  183.9810  178.6660  142.1380 C   0  0  0  0  0  0  0  0  0  0  0  0
  181.9860  181.1750  138.6760 C   0  0  0  0  0  1  0  0  0  0  0  0
  181.3930  177.9250  137.0540 C   0  0  0  0  0  3  0  0  0  0  0  0
  180.9820  180.1130  136.0140 O   0  0  0  0  0  1  0  0  0  0  0  0
  181.8470  179.7410  138.2870 C   0  0  0  0  0  0  0  0  0  0  0  0
  181.8740  177.5780  138.3130 C   0  0  0  0  0  0  0  0  0  0  0  0
  181.3880  179.3040  137.0670 C   0  0  0  0  0  0  0  0  0  0  0  0
  182.1490  178.6750  139.0610 N   0  0  0  0  0  0  0  0  0  0  0  0
  183.0210  174.3600  137.5830 C   0  0  0  0  0  0  0  0  0  0  0  0
  182.0600  176.1640  138.7810 C   0  0  1  0  0  3  0  0  0  0  0  0
  180.9360  175.2550  138.2560 C   0  0  0  0  0  2  0  0  0  0  0  0
  181.6620  174.1740  137.5580 C   0  0  0  0  0  0  0  0  0  0  0  0
  181.9460  172.1410  136.3040 C   0  0  0  0  0  3  0  0  0  0  0  0
  183.3390  172.3330  136.3280 C   0  0  0  0  0  3  0  0  0  0  0  0
  183.4030  175.5940  138.2990 C   0  0  0  0  0  2  0  0  0  0  0  0
  183.8870  173.4530  136.9720 C   0  0  0  0  0  3  0  0  0  0  0  0
  181.0940  173.0690  136.9230 C   0  0  0  0  0  3  0  0  0  0  0  0
  185.7580  178.7370  145.4990 C   0  0  0  0  0  0  0  0  0  0  0  0
  185.5680  179.6190  146.3780 O   0  0  0  0  0  0  0  0  0  0  0  0
  187.0120  178.0570  145.4520 N   0  0  0  0  0  2  0  0  0  0  0  0
  187.3080  177.0310  144.4620 C   0  0  0  0  0  2  0  0  0  0  0  0
  189.5770  177.8360  145.0870 C   0  0  0  0  0  1  0  0  0  0  0  0
  188.8240  177.8680  142.8360 O   0  0  0  0  0  1  0  0  0  0  0  0
  188.7550  177.1370  144.0210 C   0  0  2  0  0  3  0  0  0  0  0  0
  1  9  1  0  0  0  0
  2  3  1  0  0  0  0
  3  5  1  0  0  0  0
  4  2  1  0  0  0  0
  6  8  1  0  0  0  0
  7  1  2  0  0  0  0
  7  4  1  0  0  0  0
  8  5  1  0  0  0  0
  8 26  1  1  0  0  0
  9  2  2  0  0  0  0
  9  6  1  0  0  0  0
 11 15  1  0  0  0  0
 11 14  2  0  0  0  0
 12 15  1  0  0  0  0
 13 10  1  0  0  0  0
 13 16  1  0  0  0  0
 14 16  1  0  0  0  0
 15 13  2  0  0  0  0
 16  7  1  0  0  0  0
 17 23  1  0  0  0  0
 18 14  1  6  0  0  0
 19 18  1  0  0  0  0
 20 17  1  0  0  0  0
 20 19  1  0  0  0  0
 21 22  2  0  0  0  0
 21 25  1  0  0  0  0
 22 24  1  0  0  0  0
 23 18  1  0  0  0  0
 24 17  2  0  0  0  0
 25 20  2  0  0  0  0
 26 27  2  0  0  0  0
 28 26  1  0  0  0  0
 29 28  1  0  0  0  0
 31 32  1  0  0  0  0
 32 29  1  0  0  0  0
 32 30  1  1  0  0  0
M  END
>  <MODEL>
8

>  <REMARK>
 VINA RESULT:      -7.8      4.997      7.739
  Name = 
  5 active torsions:
  status: ('A' for Active; 'I' for Inactive)
    1  A    between atoms: C_3  and  C_25
    2  A    between atoms: C_6  and  C_19
    3  A    between atoms: C_14  and  N_18
    4  A    between atoms: C_14  and  C_30
    5  A    between atoms: C_16  and  N_31
                            x       y       z     vdW  Elec       q    Type
                         _______ _______ _______ _____ _____    ______ ____

>  <TORSDO>
F 5

$$$$
=
 OpenBabel10222416313D

 32 36  0  0  1  0  0  0  0  0999 V2000
  188.8040  177.0360  140.8130 C   0  0  0  0  0  3  0  0  0  0  0  0
  190.6950  177.5060  141.8810 C   0  0  0  0  0  0  0  0  0  0  0  0
  191.6460  177.7940  143.0010 C   0  0  0  0  0  2  0  0  0  0  0  0
  190.9800  177.5200  140.6050 O   0  0  0  0  0  0  0  0  0  0  0  0
  191.0770  177.2750  144.3290 C   0  0  0  0  0  2  0  0  0  0  0  0
  188.7180  177.0560  143.3960 C   0  0  0  0  0  2  0  0  0  0  0  0
  189.8740  177.2420  139.9450 C   0  0  0  0  0  0  0  0  0  0  0  0
  189.6000  177.6710  144.4960 C   0  0  1  0  0  3  0  0  0  0  0  0
  189.3640  177.2330  142.0580 C   0  0  0  0  0  0  0  0  0  0  0  0
  187.7790  178.6280  138.1110 C   0  0  0  0  0  1  0  0  0  0  0  0
  190.3070  176.6060  136.3600 C   0  0  0  0  0  3  0  0  0  0  0  0
  188.4930  177.8500  135.2640 O   0  0  0  0  0  1  0  0  0  0  0  0
  188.9110  177.7520  137.6860 C   0  0  0  0  0  0  0  0  0  0  0  0
  190.6530  176.4700  137.7010 C   0  0  0  0  0  0  0  0  0  0  0  0
  189.1990  177.4270  136.3830 C   0  0  0  0  0  0  0  0  0  0  0  0
  189.8090  177.1620  138.5060 N   0  0  0  0  0  0  0  0  0  0  0  0
  193.8630  175.2420  137.0770 C   0  0  0  0  0  0  0  0  0  0  0  0
  191.8130  175.6530  138.1910 C   0  0  1  0  0  3  0  0  0  0  0  0
  191.7840  174.2370  137.5930 C   0  0  0  0  0  2  0  0  0  0  0  0
  193.1100  174.1020  136.9570 C   0  0  0  0  0  0  0  0  0  0  0  0
  194.8890  173.0340  135.7400 C   0  0  0  0  0  3  0  0  0  0  0  0
  195.6610  174.2040  135.8620 C   0  0  0  0  0  3  0  0  0  0  0  0
  193.1500  176.3080  137.8100 C   0  0  0  0  0  2  0  0  0  0  0  0
  195.1460  175.3230  136.5350 C   0  0  0  0  0  3  0  0  0  0  0  0
  193.6000  172.9780  136.2900 C   0  0  0  0  0  3  0  0  0  0  0  0
  189.0950  177.2800  145.8510 C   0  0  0  0  0  0  0  0  0  0  0  0
  189.8580  176.6860  146.6580 O   0  0  0  0  0  0  0  0  0  0  0  0
  187.7520  177.5670  146.2420 N   0  0  0  0  0  2  0  0  0  0  0  0
  186.8110  178.2450  145.3630 C   0  0  0  0  0  2  0  0  0  0  0  0
  184.4540  179.0040  145.1200 C   0  0  0  0  0  1  0  0  0  0  0  0
  185.6800  179.3780  147.1180 O   0  0  0  0  0  1  0  0  0  0  0  0
  185.4940  178.4630  146.0830 C   0  0  2  0  0  3  0  0  0  0  0  0
  1  9  1  0  0  0  0
  2  9  2  0  0  0  0
  2  3  1  0  0  0  0
  3  5  1  0  0  0  0
  4  2  1  0  0  0  0
  5  8  1  0  0  0  0
  6  8  1  0  0  0  0
  7  4  1  0  0  0  0
  7  1  2  0  0  0  0
  8 26  1  1  0  0  0
  9  6  1  0  0  0  0
 11 15  1  0  0  0  0
 11 14  2  0  0  0  0
 12 15  1  0  0  0  0
 13 10  1  0  0  0  0
 13 16  1  0  0  0  0
 14 16  1  0  0  0  0
 15 13  2  0  0  0  0
 16  7  1  0  0  0  0
 17 23  1  0  0  0  0
 18 14  1  6  0  0  0
 19 18  1  0  0  0  0
 20 17  1  0  0  0  0
 20 19  1  0  0  0  0
 21 22  2  0  0  0  0
 21 25  1  0  0  0  0
 22 24  1  0  0  0  0
 23 18  1  0  0  0  0
 24 17  2  0  0  0  0
 25 20  2  0  0  0  0
 26 28  1  0  0  0  0
 26 27  2  0  0  0  0
 29 32  1  0  0  0  0
 29 28  1  0  0  0  0
 32 30  1  6  0  0  0
 32 31  1  0  0  0  0
M  END
>  <MODEL>
9

>  <REMARK>
 VINA RESULT:      -7.8      2.078      4.305
  Name = 
  5 active torsions:
  status: ('A' for Active; 'I' for Inactive)
    1  A    between atoms: C_3  and  C_25
    2  A    between atoms: C_6  and  C_19
    3  A    between atoms: C_14  and  N_18
    4  A    between atoms: C_14  and  C_30
    5  A    between atoms: C_16  and  N_31
                            x       y       z     vdW  Elec       q    Type
                         _______ _______ _______ _____ _____    ______ ____

>  <TORSDO>
F 5

$$$$
