=
 OpenBabel10222420213D

 47 51  0  0  1  0  0  0  0  0999 V2000
  192.2220  177.5040  140.7970 O   0  0  0  0  0  0  0  0  0  0  0  0
  185.4070  175.8380  136.2160 S   0  0  0  0  0  0  0  0  0  0  0  0
  190.9370  176.0070  139.5120 C   0  0  0  0  0  2  0  0  0  0  0  0
  184.3440  178.8000  142.3840 C   0  0  2  0  0  3  0  0  0  0  0  0
  185.9400  177.1160  143.2270 N   0  0  0  0  0  2  0  0  0  0  0  0
  181.6490  175.7800  139.2490 C   0  0  0  0  0  0  0  0  0  0  0  0
  183.5870  174.1780  137.6090 C   0  0  0  0  0  0  0  0  0  0  0  0
  184.4850  178.1800  137.6270 S   0  0  0  0  0  0  0  0  0  0  0  0
  187.3290  176.9940  143.2000 N   0  0  0  0  0  0  0  0  0  0  0  0
  191.2710  176.3510  138.0960 C   0  0  0  0  0  3  0  0  0  0  0  0
  188.9690  177.0490  137.4440 C   0  0  0  0  0  0  0  0  0  0  0  0
  190.4150  176.8430  137.1930 C   0  0  0  0  0  0  0  0  0  0  0  0
  183.2280  178.7990  140.2470 N   0  0  0  0  0  0  0  0  0  0  0  0
  189.2830  177.4010  141.9430 N   0  0  0  0  0  2  0  0  0  0  0  0
  185.3830  177.7320  142.0340 C   0  0  2  0  0  3  0  0  0  0  0  0
  184.5360  173.0470  137.4020 C   0  0  0  0  0  1  0  0  0  0  0  0
  182.9420  177.4300  140.3510 N   0  0  0  0  0  2  0  0  0  0  0  0
  183.6230  176.6570  138.0320 C   0  0  0  0  0  0  0  0  0  0  0  0
  183.8360  179.4360  141.1710 N   0  0  0  0  0  0  0  0  0  0  0  0
  180.8460  175.7530  140.3430 F   0  0  0  0  0  0  0  0  0  0  0  0
  182.6960  176.6110  139.2050 C   0  0  0  0  0  0  0  0  0  0  0  0
  188.2320  177.9270  136.5740 N   0  0  0  0  0  0  0  0  0  0  0  0
  187.8850  177.5460  142.1850 C   0  0  0  0  0  0  0  0  0  0  0  0
  185.9680  177.2120  137.2530 C   0  0  2  0  0  3  0  0  0  0  0  0
  182.3630  173.8910  137.9420 N   0  0  0  0  0  0  0  0  0  0  0  0
  186.9390  178.0490  136.4870 C   0  0  0  0  0  3  0  0  0  0  0  0
  181.3110  174.8830  138.1050 C   0  0  0  0  0  2  0  0  0  0  0  0
  186.7830  178.3860  141.0540 S   0  0  0  0  0  0  0  0  0  0  0  0
  189.9240  178.0110  140.7910 C   0  0  0  0  0  2  0  0  0  0  0  0
  188.3940  176.4640  138.4020 O   0  0  0  0  0  0  0  0  0  0  0  0
  184.0410  175.5690  137.3500 C   0  0  0  0  0  0  0  0  0  0  0  0
  191.1100  177.2010  140.3910 C   0  0  0  0  0  0  0  0  0  0  0  0
  190.9620  177.1860  135.8420 C   0  0  0  0  0  2  0  0  0  0  0  0
  190.7190  176.0540  134.8490 C   0  0  0  0  0  2  0  0  0  0  0  0
  191.9970  175.2630  134.5940 C   0  0  0  0  0  3  0  0  0  0  0  0
  193.1840  176.1060  135.0190 C   0  0  0  0  0  1  0  0  0  0  0  0
  191.9770  173.9810  135.4160 C   0  0  0  0  0  1  0  0  0  0  0  0
  184.9250  179.8650  143.3130 C   0  0  0  0  0  2  0  0  0  0  0  0
  184.4680  179.6390  144.7450 C   0  0  0  0  0  2  0  0  0  0  0  0
  185.6640  179.6430  145.6850 C   0  0  0  0  0  2  0  0  0  0  0  0
  185.7010  178.3670  146.5240 C   0  0  0  0  0  2  0  0  0  0  0  0
  189.2790  177.0890  146.5170 C   0  0  0  0  0  3  0  0  0  0  0  0
  187.5120  178.3790  148.2680 C   0  0  0  0  0  3  0  0  0  0  0  0
  187.0870  178.0320  146.9800 C   0  0  0  0  0  0  0  0  0  0  0  0
  189.7040  177.4380  147.8020 C   0  0  0  0  0  3  0  0  0  0  0  0
  188.8200  178.0840  148.6780 C   0  0  0  0  0  3  0  0  0  0  0  0
  187.9720  177.3850  146.1070 C   0  0  0  0  0  3  0  0  0  0  0  0
  2 24  1  0  0  0  0
  2 31  1  0  0  0  0
  3 32  1  0  0  0  0
  4 38  1  1  0  0  0
  6 20  1  0  0  0  0
  7 25  2  0  0  0  0
  8 18  1  0  0  0  0
  9  5  1  0  0  0  0
 10  3  1  0  0  0  0
 11 30  2  0  0  0  0
 12 11  1  0  0  0  0
 12 10  2  0  0  0  0
 13 17  1  0  0  0  0
 13 19  2  0  0  0  0
 14 23  1  0  0  0  0
 15 28  1  1  0  0  0
 15  4  1  0  0  0  0
 15  5  1  0  0  0  0
 16  7  1  0  0  0  0
 18 21  1  0  0  0  0
 19  4  1  0  0  0  0
 21  6  2  0  0  0  0
 21 17  1  0  0  0  0
 22 11  1  0  0  0  0
 23  9  2  0  0  0  0
 24 26  1  6  0  0  0
 24  8  1  0  0  0  0
 25 27  1  0  0  0  0
 26 22  2  0  0  0  0
 27  6  1  0  0  0  0
 28 23  1  0  0  0  0
 29 14  1  0  0  0  0
 31  7  1  0  0  0  0
 31 18  2  0  0  0  0
 32 29  1  0  0  0  0
 32  1  2  0  0  0  0
 33 12  1  0  0  0  0
 34 33  1  0  0  0  0
 35 34  1  0  0  0  0
 35 36  1  0  0  0  0
 35 37  1  0  0  0  0
 38 39  1  0  0  0  0
 39 40  1  0  0  0  0
 40 41  1  0  0  0  0
 41 44  1  0  0  0  0
 42 45  1  0  0  0  0
 43 46  1  0  0  0  0
 44 43  2  0  0  0  0
 45 46  2  0  0  0  0
 47 42  2  0  0  0  0
 47 44  1  0  0  0  0
M  END
>  <MODEL>
1

>  <REMARK>
 VINA RESULT:      -7.3      0.000      0.000
  Name = 
  8 active torsions:
  status: ('A' for Active; 'I' for Inactive)
    1  A    between atoms: C_3  and  C_6
    2  A    between atoms: C_3  and  C_25
    3  A    between atoms: C_5  and  C_40
    4  A    between atoms: C_10  and  C_33
    5  A    between atoms: C_10  and  C_40
    6  A    between atoms: C_19  and  C_25
    7  A    between atoms: C_23  and  C_46
    8  A    between atoms: C_33  and  C_46
                            x       y       z     vdW  Elec       q    Type
                         _______ _______ _______ _____ _____    ______ ____

>  <TORSDO>
F 8

$$$$
=
 OpenBabel10222420213D

 47 51  0  0  1  0  0  0  0  0999 V2000
  179.8390  174.0480  137.6750 O   0  0  0  0  0  0  0  0  0  0  0  0
  185.4320  179.1000  141.3370 S   0  0  0  0  0  0  0  0  0  0  0  0
  180.8310  174.9330  139.6170 C   0  0  0  0  0  2  0  0  0  0  0  0
  187.8230  174.9250  136.3560 C   0  0  2  0  0  3  0  0  0  0  0  0
  186.5250  173.1680  137.5040 N   0  0  0  0  0  2  0  0  0  0  0  0
  189.7980  177.2210  140.4840 C   0  0  0  0  0  0  0  0  0  0  0  0
  187.5800  177.6430  142.4630 C   0  0  0  0  0  0  0  0  0  0  0  0
  186.5850  178.9280  138.6980 S   0  0  0  0  0  0  0  0  0  0  0  0
  185.1740  172.8260  137.5440 N   0  0  0  0  0  0  0  0  0  0  0  0
  180.1620  176.2570  139.8080 C   0  0  0  0  0  3  0  0  0  0  0  0
  182.2220  177.6340  139.5440 C   0  0  0  0  0  0  0  0  0  0  0  0
  180.7660  177.4480  139.7410 C   0  0  0  0  0  0  0  0  0  0  0  0
  188.4030  177.0990  137.2220 N   0  0  0  0  0  0  0  0  0  0  0  0
  182.9660  173.6580  137.5190 N   0  0  0  0  0  2  0  0  0  0  0  0
  186.7660  174.5980  137.4130 C   0  0  2  0  0  3  0  0  0  0  0  0
  186.6460  177.1840  143.5300 C   0  0  0  0  0  1  0  0  0  0  0  0
  188.7490  176.5560  138.4670 N   0  0  0  0  0  2  0  0  0  0  0  0
  187.5660  178.1890  140.0080 C   0  0  0  0  0  0  0  0  0  0  0  0
  188.0100  176.3700  136.2500 N   0  0  0  0  0  0  0  0  0  0  0  0
  190.8370  176.4140  140.1490 F   0  0  0  0  0  0  0  0  0  0  0  0
  188.7440  177.3330  139.6680 C   0  0  0  0  0  0  0  0  0  0  0  0
  182.7050  178.9150  139.1000 N   0  0  0  0  0  0  0  0  0  0  0  0
  184.3760  173.8170  137.3790 C   0  0  0  0  0  0  0  0  0  0  0  0
  185.0870  178.5580  139.6440 C   0  0  2  0  0  3  0  0  0  0  0  0
  188.8570  177.5180  142.6780 N   0  0  0  0  0  0  0  0  0  0  0  0
  183.9370  179.3370  139.0960 C   0  0  0  0  0  3  0  0  0  0  0  0
  189.8860  177.9880  141.7620 C   0  0  0  0  0  2  0  0  0  0  0  0
  185.1530  175.4010  137.0890 S   0  0  0  0  0  0  0  0  0  0  0  0
  182.0530  174.7730  137.3460 C   0  0  0  0  0  2  0  0  0  0  0  0
  183.0250  176.6860  139.7620 O   0  0  0  0  0  0  0  0  0  0  0  0
  187.0340  178.2950  141.2440 C   0  0  0  0  0  0  0  0  0  0  0  0
  180.8320  174.5540  138.1730 C   0  0  0  0  0  0  0  0  0  0  0  0
  179.9040  178.6640  139.8940 C   0  0  0  0  0  2  0  0  0  0  0  0
  179.4050  178.8030  141.3290 C   0  0  0  0  0  2  0  0  0  0  0  0
  180.3430  179.6740  142.1560 C   0  0  0  0  0  3  0  0  0  0  0  0
  179.5140  180.6610  142.9550 C   0  0  0  0  0  1  0  0  0  0  0  0
  181.1400  178.8000  143.1160 C   0  0  0  0  0  1  0  0  0  0  0  0
  187.4430  174.3600  134.9880 C   0  0  0  0  0  2  0  0  0  0  0  0
  188.3750  173.2250  134.5970 C   0  0  0  0  0  2  0  0  0  0  0  0
  189.4900  173.0830  135.6220 C   0  0  0  0  0  2  0  0  0  0  0  0
  190.8450  173.4270  135.0050 C   0  0  0  0  0  2  0  0  0  0  0  0
  192.3250  176.1720  137.1740 C   0  0  0  0  0  3  0  0  0  0  0  0
  192.7870  173.4680  136.6010 C   0  0  0  0  0  3  0  0  0  0  0  0
  191.7380  174.1450  135.9690 C   0  0  0  0  0  0  0  0  0  0  0  0
  193.3710  175.4950  137.8070 C   0  0  0  0  0  3  0  0  0  0  0  0
  193.6030  174.1420  137.5210 C   0  0  0  0  0  3  0  0  0  0  0  0
  191.5100  175.4980  136.2560 C   0  0  0  0  0  3  0  0  0  0  0  0
  1 32  2  0  0  0  0
  3 10  1  0  0  0  0
  4 38  1  6  0  0  0
  4 15  1  0  0  0  0
  5  9  1  0  0  0  0
  6 27  1  0  0  0  0
  7 25  2  0  0  0  0
  7 16  1  0  0  0  0
  8 24  1  0  0  0  0
  8 18  1  0  0  0  0
 11 12  1  0  0  0  0
 11 30  2  0  0  0  0
 12 10  2  0  0  0  0
 12 33  1  0  0  0  0
 13 17  1  0  0  0  0
 15 28  1  6  0  0  0
 15  5  1  0  0  0  0
 17 21  1  0  0  0  0
 18 31  2  0  0  0  0
 19  4  1  0  0  0  0
 19 13  2  0  0  0  0
 20  6  1  0  0  0  0
 21 18  1  0  0  0  0
 21  6  2  0  0  0  0
 22 11  1  0  0  0  0
 23 14  1  0  0  0  0
 23  9  2  0  0  0  0
 24 26  1  6  0  0  0
 24  2  1  0  0  0  0
 26 22  2  0  0  0  0
 27 25  1  0  0  0  0
 28 23  1  0  0  0  0
 29 14  1  0  0  0  0
 29 32  1  0  0  0  0
 31  2  1  0  0  0  0
 31  7  1  0  0  0  0
 32  3  1  0  0  0  0
 33 34  1  0  0  0  0
 34 35  1  0  0  0  0
 35 36  1  0  0  0  0
 35 37  1  0  0  0  0
 39 38  1  0  0  0  0
 39 40  1  0  0  0  0
 41 40  1  0  0  0  0
 41 44  1  0  0  0  0
 42 45  1  0  0  0  0
 43 46  1  0  0  0  0
 44 47  1  0  0  0  0
 44 43  2  0  0  0  0
 46 45  2  0  0  0  0
 47 42  2  0  0  0  0
M  END
>  <MODEL>
2

>  <REMARK>
 VINA RESULT:      -6.9      3.242      9.635
  Name = 
  8 active torsions:
  status: ('A' for Active; 'I' for Inactive)
    1  A    between atoms: C_3  and  C_6
    2  A    between atoms: C_3  and  C_25
    3  A    between atoms: C_5  and  C_40
    4  A    between atoms: C_10  and  C_33
    5  A    between atoms: C_10  and  C_40
    6  A    between atoms: C_19  and  C_25
    7  A    between atoms: C_23  and  C_46
    8  A    between atoms: C_33  and  C_46
                            x       y       z     vdW  Elec       q    Type
                         _______ _______ _______ _____ _____    ______ ____

>  <TORSDO>
F 8

$$$$
=
 OpenBabel10222420213D

 47 51  0  0  1  0  0  0  0  0999 V2000
  189.1050  178.9540  142.2800 O   0  0  0  0  0  0  0  0  0  0  0  0
  186.3780  174.7400  135.5710 S   0  0  0  0  0  0  0  0  0  0  0  0
  188.8780  176.9390  141.0840 C   0  0  0  0  0  2  0  0  0  0  0  0
  181.7800  178.8400  138.7340 C   0  0  2  0  0  3  0  0  0  0  0  0
  182.6200  177.8140  140.8150 N   0  0  0  0  0  2  0  0  0  0  0  0
  181.5580  174.6160  135.8490 C   0  0  0  0  0  0  0  0  0  0  0  0
  184.1390  173.1230  136.1890 C   0  0  0  0  0  0  0  0  0  0  0  0
  184.7270  177.0980  135.3700 S   0  0  0  0  0  0  0  0  0  0  0  0
  183.7580  177.9970  141.6000 N   0  0  0  0  0  0  0  0  0  0  0  0
  189.9740  176.9830  140.0680 C   0  0  0  0  0  3  0  0  0  0  0  0
  188.4840  176.9720  138.0710 C   0  0  0  0  0  0  0  0  0  0  0  0
  189.8020  177.0330  138.7430 C   0  0  0  0  0  0  0  0  0  0  0  0
  182.1450  178.0600  136.4820 N   0  0  0  0  0  0  0  0  0  0  0  0
  186.0640  178.4970  141.5760 N   0  0  0  0  0  2  0  0  0  0  0  0
  182.8570  177.9740  139.3910 C   0  0  2  0  0  3  0  0  0  0  0  0
  185.0610  172.2130  136.9270 C   0  0  0  0  0  1  0  0  0  0  0  0
  181.8960  176.7320  136.8580 N   0  0  0  0  0  2  0  0  0  0  0  0
  183.8410  175.5740  135.7110 C   0  0  0  0  0  0  0  0  0  0  0  0
  182.0680  179.0260  137.3140 N   0  0  0  0  0  0  0  0  0  0  0  0
  180.2640  174.6880  136.2550 F   0  0  0  0  0  0  0  0  0  0  0  0
  182.4020  175.6190  136.1150 C   0  0  0  0  0  0  0  0  0  0  0  0
  188.3760  177.4200  136.7080 N   0  0  0  0  0  0  0  0  0  0  0  0
  184.7900  178.3870  140.9440 C   0  0  0  0  0  0  0  0  0  0  0  0
  186.1740  176.4180  136.2200 C   0  0  2  0  0  3  0  0  0  0  0  0
  182.9650  172.6660  135.8650 N   0  0  0  0  0  0  0  0  0  0  0  0
  187.3820  177.2300  135.8890 C   0  0  0  0  0  3  0  0  0  0  0  0
  181.9900  173.4100  135.0830 C   0  0  0  0  0  2  0  0  0  0  0  0
  184.5450  178.6540  139.1930 S   0  0  0  0  0  0  0  0  0  0  0  0
  187.2420  178.9260  140.8440 C   0  0  0  0  0  2  0  0  0  0  0  0
  187.4710  176.5330  138.6830 O   0  0  0  0  0  0  0  0  0  0  0  0
  184.6150  174.4700  135.7780 C   0  0  0  0  0  0  0  0  0  0  0  0
  188.4600  178.3230  141.4580 C   0  0  0  0  0  0  0  0  0  0  0  0
  191.0320  177.1400  137.8940 C   0  0  0  0  0  2  0  0  0  0  0  0
  191.8970  175.8900  138.0250 C   0  0  0  0  0  2  0  0  0  0  0  0
  191.7900  175.0150  136.7820 C   0  0  0  0  0  3  0  0  0  0  0  0
  190.6910  173.9940  136.9990 C   0  0  0  0  0  1  0  0  0  0  0  0
  191.4370  175.8780  135.5780 C   0  0  0  0  0  1  0  0  0  0  0  0
  181.6650  180.2040  139.4120 C   0  0  0  0  0  2  0  0  0  0  0  0
  180.2850  180.3900  140.0210 C   0  0  0  0  0  2  0  0  0  0  0  0
  179.6350  181.6520  139.4750 C   0  0  0  0  0  2  0  0  0  0  0  0
  179.3230  181.5050  137.9870 C   0  0  0  0  0  2  0  0  0  0  0  0
  180.5240  184.9730  137.0070 C   0  0  0  0  0  3  0  0  0  0  0  0
  180.3120  182.4220  135.8660 C   0  0  0  0  0  3  0  0  0  0  0  0
  179.8780  182.6370  137.1790 C   0  0  0  0  0  0  0  0  0  0  0  0
  180.9600  184.7580  135.6960 C   0  0  0  0  0  3  0  0  0  0  0  0
  180.8550  183.4820  135.1250 C   0  0  0  0  0  3  0  0  0  0  0  0
  179.9830  183.9140  137.7470 C   0  0  0  0  0  3  0  0  0  0  0  0
  2 31  1  0  0  0  0
  2 24  1  0  0  0  0
  3 32  1  0  0  0  0
  4 15  1  0  0  0  0
  4 38  1  1  0  0  0
  5  9  1  0  0  0  0
  6 21  2  0  0  0  0
  6 20  1  0  0  0  0
  7 16  1  0  0  0  0
  8 18  1  0  0  0  0
  8 24  1  0  0  0  0
 10  3  1  0  0  0  0
 11 30  2  0  0  0  0
 11 12  1  0  0  0  0
 12 10  2  0  0  0  0
 13 17  1  0  0  0  0
 13 19  2  0  0  0  0
 15 28  1  1  0  0  0
 15  5  1  0  0  0  0
 18 31  2  0  0  0  0
 18 21  1  0  0  0  0
 19  4  1  0  0  0  0
 21 17  1  0  0  0  0
 22 11  1  0  0  0  0
 23 14  1  0  0  0  0
 23  9  2  0  0  0  0
 24 26  1  6  0  0  0
 25  7  2  0  0  0  0
 26 22  2  0  0  0  0
 27  6  1  0  0  0  0
 27 25  1  0  0  0  0
 28 23  1  0  0  0  0
 29 32  1  0  0  0  0
 29 14  1  0  0  0  0
 31  7  1  0  0  0  0
 32  1  2  0  0  0  0
 33 34  1  0  0  0  0
 33 12  1  0  0  0  0
 35 36  1  0  0  0  0
 35 34  1  0  0  0  0
 37 35  1  0  0  0  0
 38 39  1  0  0  0  0
 40 39  1  0  0  0  0
 41 40  1  0  0  0  0
 42 47  1  0  0  0  0
 43 44  1  0  0  0  0
 44 47  2  0  0  0  0
 44 41  1  0  0  0  0
 45 42  2  0  0  0  0
 46 45  1  0  0  0  0
 46 43  2  0  0  0  0
M  END
>  <MODEL>
3

>  <REMARK>
 VINA RESULT:      -6.7      3.692      6.426
  Name = 
  8 active torsions:
  status: ('A' for Active; 'I' for Inactive)
    1  A    between atoms: C_3  and  C_6
    2  A    between atoms: C_3  and  C_25
    3  A    between atoms: C_5  and  C_40
    4  A    between atoms: C_10  and  C_33
    5  A    between atoms: C_10  and  C_40
    6  A    between atoms: C_19  and  C_25
    7  A    between atoms: C_23  and  C_46
    8  A    between atoms: C_33  and  C_46
                            x       y       z     vdW  Elec       q    Type
                         _______ _______ _______ _____ _____    ______ ____

>  <TORSDO>
F 8

$$$$
=
 OpenBabel10222420213D

 47 51  0  0  1  0  0  0  0  0999 V2000
  185.9840  178.9630  144.7900 O   0  0  0  0  0  0  0  0  0  0  0  0
  188.5240  175.5700  137.5620 S   0  0  0  0  0  0  0  0  0  0  0  0
  186.9590  177.1830  143.5980 C   0  0  0  0  0  2  0  0  0  0  0  0
  182.0960  178.1440  137.6860 C   0  0  2  0  0  3  0  0  0  0  0  0
  181.8860  176.9380  139.8290 N   0  0  0  0  0  2  0  0  0  0  0  0
  184.5510  174.5240  135.0230 C   0  0  0  0  0  0  0  0  0  0  0  0
  186.8010  173.4890  136.7190 C   0  0  0  0  0  0  0  0  0  0  0  0
  186.7260  177.5860  136.5480 S   0  0  0  0  0  0  0  0  0  0  0  0
  182.3210  177.1840  141.1300 N   0  0  0  0  0  0  0  0  0  0  0  0
  188.3800  177.6030  143.3950 C   0  0  0  0  0  3  0  0  0  0  0  0
  188.2830  177.6720  140.9060 C   0  0  0  0  0  0  0  0  0  0  0  0
  188.9550  177.8540  142.2140 C   0  0  0  0  0  0  0  0  0  0  0  0
  183.8140  177.8520  136.0190 N   0  0  0  0  0  0  0  0  0  0  0  0
  184.0520  178.0920  142.4520 N   0  0  0  0  0  2  0  0  0  0  0  0
  182.8140  177.3860  138.8050 C   0  0  2  0  0  3  0  0  0  0  0  0
  187.3610  172.6470  137.8140 C   0  0  0  0  0  1  0  0  0  0  0  0
  183.7410  176.4550  136.1300 N   0  0  0  0  0  2  0  0  0  0  0  0
  186.2120  175.8900  136.2580 C   0  0  0  0  0  0  0  0  0  0  0  0
  183.0570  178.6250  136.6960 N   0  0  0  0  0  0  0  0  0  0  0  0
  183.2770  174.2870  134.6170 F   0  0  0  0  0  0  0  0  0  0  0  0
  184.8290  175.6010  135.7660 C   0  0  0  0  0  0  0  0  0  0  0  0
  188.8310  178.3260  139.7470 N   0  0  0  0  0  0  0  0  0  0  0  0
  183.4070  177.8640  141.2010 C   0  0  0  0  0  0  0  0  0  0  0  0
  187.5870  177.0420  138.0450 C   0  0  2  0  0  3  0  0  0  0  0  0
  186.1530  172.8900  135.7620 N   0  0  0  0  0  0  0  0  0  0  0  0
  188.5310  178.1050  138.5000 C   0  0  0  0  0  3  0  0  0  0  0  0
  185.6160  173.5710  134.5940 C   0  0  0  0  0  2  0  0  0  0  0  0
  184.1010  178.3860  139.6380 S   0  0  0  0  0  0  0  0  0  0  0  0
  185.2880  178.8490  142.5460 C   0  0  0  0  0  2  0  0  0  0  0  0
  187.2490  176.9560  140.8090 O   0  0  0  0  0  0  0  0  0  0  0  0
  187.0690  174.9510  136.7100 C   0  0  0  0  0  0  0  0  0  0  0  0
  186.0750  178.3800  143.7210 C   0  0  0  0  0  0  0  0  0  0  0  0
  190.3750  178.3300  142.2280 C   0  0  0  0  0  2  0  0  0  0  0  0
  191.2770  177.3380  142.9560 C   0  0  0  0  0  2  0  0  0  0  0  0
  191.8390  177.9440  144.2360 C   0  0  0  0  0  3  0  0  0  0  0  0
  191.4520  179.4090  144.2930 C   0  0  0  0  0  1  0  0  0  0  0  0
  191.2480  177.2260  145.4430 C   0  0  0  0  0  1  0  0  0  0  0  0
  181.2930  179.3240  138.2320 C   0  0  0  0  0  2  0  0  0  0  0  0
  179.8230  179.1860  137.8740 C   0  0  0  0  0  2  0  0  0  0  0  0
  179.3630  180.3930  137.0700 C   0  0  0  0  0  2  0  0  0  0  0  0
  180.4760  180.8930  136.1510 C   0  0  0  0  0  2  0  0  0  0  0  0
  180.2880  184.5190  135.0350 C   0  0  0  0  0  3  0  0  0  0  0  0
  181.0480  183.0540  137.3000 C   0  0  0  0  0  3  0  0  0  0  0  0
  180.5870  182.3860  136.1600 C   0  0  0  0  0  0  0  0  0  0  0  0
  180.7460  185.1870  136.1740 C   0  0  0  0  0  3  0  0  0  0  0  0
  181.1260  184.4540  137.3080 C   0  0  0  0  0  3  0  0  0  0  0  0
  180.2100  183.1200  135.0270 C   0  0  0  0  0  3  0  0  0  0  0  0
  2 24  1  0  0  0  0
  3 32  1  0  0  0  0
  4 38  1  1  0  0  0
  4 15  1  0  0  0  0
  5  9  1  0  0  0  0
  6 21  2  0  0  0  0
  7 16  1  0  0  0  0
  8 24  1  0  0  0  0
  9 23  2  0  0  0  0
 10  3  1  0  0  0  0
 11 12  1  0  0  0  0
 12 33  1  0  0  0  0
 12 10  2  0  0  0  0
 13 17  1  0  0  0  0
 13 19  2  0  0  0  0
 14 29  1  0  0  0  0
 15 28  1  1  0  0  0
 15  5  1  0  0  0  0
 18  8  1  0  0  0  0
 18 31  2  0  0  0  0
 19  4  1  0  0  0  0
 20  6  1  0  0  0  0
 21 17  1  0  0  0  0
 21 18  1  0  0  0  0
 22 11  1  0  0  0  0
 23 14  1  0  0  0  0
 24 26  1  6  0  0  0
 25  7  2  0  0  0  0
 26 22  2  0  0  0  0
 27  6  1  0  0  0  0
 27 25  1  0  0  0  0
 28 23  1  0  0  0  0
 29 32  1  0  0  0  0
 30 11  2  0  0  0  0
 31  7  1  0  0  0  0
 31  2  1  0  0  0  0
 32  1  2  0  0  0  0
 33 34  1  0  0  0  0
 34 35  1  0  0  0  0
 35 36  1  0  0  0  0
 35 37  1  0  0  0  0
 39 38  1  0  0  0  0
 40 39  1  0  0  0  0
 41 44  1  0  0  0  0
 41 40  1  0  0  0  0
 42 45  1  0  0  0  0
 43 46  1  0  0  0  0
 44 43  2  0  0  0  0
 45 46  2  0  0  0  0
 47 42  2  0  0  0  0
 47 44  1  0  0  0  0
M  END
>  <MODEL>
4

>  <REMARK>
 VINA RESULT:      -5.6      4.088      7.739
  Name = 
  8 active torsions:
  status: ('A' for Active; 'I' for Inactive)
    1  A    between atoms: C_3  and  C_6
    2  A    between atoms: C_3  and  C_25
    3  A    between atoms: C_5  and  C_40
    4  A    between atoms: C_10  and  C_33
    5  A    between atoms: C_10  and  C_40
    6  A    between atoms: C_19  and  C_25
    7  A    between atoms: C_23  and  C_46
    8  A    between atoms: C_33  and  C_46
                            x       y       z     vdW  Elec       q    Type
                         _______ _______ _______ _____ _____    ______ ____

>  <TORSDO>
F 8

$$$$
=
 OpenBabel10222420213D

 47 51  0  0  1  0  0  0  0  0999 V2000
  190.0390  177.2050  139.2830 O   0  0  0  0  0  0  0  0  0  0  0  0
  182.2530  180.0580  140.4900 S   0  0  0  0  0  0  0  0  0  0  0  0
  188.5520  178.9870  139.6720 C   0  0  0  0  0  2  0  0  0  0  0  0
  183.2110  175.8750  135.0560 C   0  0  2  0  0  3  0  0  0  0  0  0
  185.1880  177.2800  134.5960 N   0  0  0  0  0  2  0  0  0  0  0  0
  179.9160  179.5930  136.2900 C   0  0  0  0  0  0  0  0  0  0  0  0
  181.2810  181.4420  138.2210 C   0  0  0  0  0  0  0  0  0  0  0  0
  181.6550  177.5010  139.2950 S   0  0  0  0  0  0  0  0  0  0  0  0
  186.4730  177.3560  135.1320 N   0  0  0  0  0  0  0  0  0  0  0  0
  188.2960  178.9460  141.1450 C   0  0  0  0  0  3  0  0  0  0  0  0
  185.8530  178.4870  140.9770 C   0  0  0  0  0  0  0  0  0  0  0  0
  187.1170  178.6910  141.7220 C   0  0  0  0  0  0  0  0  0  0  0  0
  181.3930  176.3760  136.5570 N   0  0  0  0  0  0  0  0  0  0  0  0
  187.7630  177.1610  137.0970 N   0  0  0  0  0  2  0  0  0  0  0  0
  184.1630  176.9560  135.5730 C   0  0  2  0  0  3  0  0  0  0  0  0
  182.2100  182.5560  138.5630 C   0  0  0  0  0  1  0  0  0  0  0  0
  181.3250  177.6990  136.0980 N   0  0  0  0  0  2  0  0  0  0  0  0
  181.1860  178.9300  138.3140 C   0  0  0  0  0  0  0  0  0  0  0  0
  182.2210  175.5330  136.0750 N   0  0  0  0  0  0  0  0  0  0  0  0
  179.5820  179.4110  134.9860 F   0  0  0  0  0  0  0  0  0  0  0  0
  180.7690  178.7550  136.8880 C   0  0  0  0  0  0  0  0  0  0  0  0
  184.7510  177.8440  141.6430 N   0  0  0  0  0  0  0  0  0  0  0  0
  186.5470  177.0170  136.3670 C   0  0  0  0  0  0  0  0  0  0  0  0
  182.9960  178.4740  140.0240 C   0  0  2  0  0  3  0  0  0  0  0  0
  180.3080  181.6930  137.3950 N   0  0  0  0  0  0  0  0  0  0  0  0
  183.5120  177.7880  141.2460 C   0  0  0  0  0  3  0  0  0  0  0  0
  179.2840  180.7270  137.0270 C   0  0  0  0  0  2  0  0  0  0  0  0
  185.0170  176.4800  137.1200 S   0  0  0  0  0  0  0  0  0  0  0  0
  187.8600  176.7920  138.4980 C   0  0  0  0  0  2  0  0  0  0  0  0
  185.7440  178.8710  139.7810 O   0  0  0  0  0  0  0  0  0  0  0  0
  181.4440  180.1240  138.8890 C   0  0  0  0  0  0  0  0  0  0  0  0
  188.8990  177.6260  139.1660 C   0  0  0  0  0  0  0  0  0  0  0  0
  187.0840  178.6280  143.2180 C   0  0  0  0  0  2  0  0  0  0  0  0
  187.4330  177.2280  143.7150 C   0  0  0  0  0  2  0  0  0  0  0  0
  187.5220  177.1920  145.2360 C   0  0  0  0  0  3  0  0  0  0  0  0
  188.7680  177.9390  145.6690 C   0  0  0  0  0  1  0  0  0  0  0  0
  186.2990  177.8740  145.8360 C   0  0  0  0  0  1  0  0  0  0  0  0
  183.9680  174.6150  134.6380 C   0  0  0  0  0  2  0  0  0  0  0  0
  183.3260  173.3760  135.2410 C   0  0  0  0  0  2  0  0  0  0  0  0
  183.8970  172.1220  134.5970 C   0  0  0  0  0  2  0  0  0  0  0  0
  184.8240  171.3860  135.5630 C   0  0  0  0  0  2  0  0  0  0  0  0
  187.5350  173.4160  137.2830 C   0  0  0  0  0  3  0  0  0  0  0  0
  187.0680  172.2170  134.7940 C   0  0  0  0  0  3  0  0  0  0  0  0
  186.0990  172.1330  135.8010 C   0  0  0  0  0  0  0  0  0  0  0  0
  188.5040  173.4980  136.2780 C   0  0  0  0  0  3  0  0  0  0  0  0
  188.2700  172.8980  135.0330 C   0  0  0  0  0  3  0  0  0  0  0  0
  186.3340  172.7360  137.0440 C   0  0  0  0  0  3  0  0  0  0  0  0
  3 10  1  0  0  0  0
  4 38  1  1  0  0  0
  4 15  1  0  0  0  0
  4 19  1  0  0  0  0
  5  9  1  0  0  0  0
  6 21  2  0  0  0  0
  6 27  1  0  0  0  0
  7 16  1  0  0  0  0
  7 31  1  0  0  0  0
  8 24  1  0  0  0  0
  9 23  2  0  0  0  0
 10 12  2  0  0  0  0
 11 22  1  0  0  0  0
 11 12  1  0  0  0  0
 12 33  1  0  0  0  0
 14 29  1  0  0  0  0
 15  5  1  6  0  0  0
 15 28  1  0  0  0  0
 17 13  1  0  0  0  0
 17 21  1  0  0  0  0
 18 31  2  0  0  0  0
 18  8  1  0  0  0  0
 19 13  2  0  0  0  0
 20  6  1  0  0  0  0
 21 18  1  0  0  0  0
 23 14  1  0  0  0  0
 23 28  1  0  0  0  0
 24  2  1  0  0  0  0
 24 26  1  1  0  0  0
 25  7  2  0  0  0  0
 26 22  2  0  0  0  0
 27 25  1  0  0  0  0
 29 32  1  0  0  0  0
 30 11  2  0  0  0  0
 31  2  1  0  0  0  0
 32  1  2  0  0  0  0
 32  3  1  0  0  0  0
 33 34  1  0  0  0  0
 34 35  1  0  0  0  0
 35 36  1  0  0  0  0
 35 37  1  0  0  0  0
 38 39  1  0  0  0  0
 40 39  1  0  0  0  0
 40 41  1  0  0  0  0
 41 44  1  0  0  0  0
 43 46  2  0  0  0  0
 43 44  1  0  0  0  0
 44 47  2  0  0  0  0
 45 42  2  0  0  0  0
 46 45  1  0  0  0  0
 47 42  1  0  0  0  0
M  END
>  <MODEL>
5

>  <REMARK>
 VINA RESULT:      -5.6      3.144      8.278
  Name = 
  8 active torsions:
  status: ('A' for Active; 'I' for Inactive)
    1  A    between atoms: C_3  and  C_6
    2  A    between atoms: C_3  and  C_25
    3  A    between atoms: C_5  and  C_40
    4  A    between atoms: C_10  and  C_33
    5  A    between atoms: C_10  and  C_40
    6  A    between atoms: C_19  and  C_25
    7  A    between atoms: C_23  and  C_46
    8  A    between atoms: C_33  and  C_46
                            x       y       z     vdW  Elec       q    Type
                         _______ _______ _______ _____ _____    ______ ____

>  <TORSDO>
F 8

$$$$
=
 OpenBabel10222420213D

 47 51  0  0  1  0  0  0  0  0999 V2000
  180.8850  174.1640  136.4810 O   0  0  0  0  0  0  0  0  0  0  0  0
  185.7210  178.9700  141.3530 S   0  0  0  0  0  0  0  0  0  0  0  0
  181.5320  174.9140  138.6170 C   0  0  0  0  0  2  0  0  0  0  0  0
  188.9620  175.1710  136.5550 C   0  0  2  0  0  3  0  0  0  0  0  0
  187.5220  173.3310  137.3500 N   0  0  0  0  0  2  0  0  0  0  0  0
  190.1980  177.1770  141.1010 C   0  0  0  0  0  0  0  0  0  0  0  0
  187.6800  177.4460  142.7130 C   0  0  0  0  0  0  0  0  0  0  0  0
  187.2920  178.9920  138.9340 S   0  0  0  0  0  0  0  0  0  0  0  0
  186.1890  172.9800  137.1440 N   0  0  0  0  0  0  0  0  0  0  0  0
  180.8190  176.2180  138.7860 C   0  0  0  0  0  3  0  0  0  0  0  0
  182.8710  177.6200  138.9600 C   0  0  0  0  0  0  0  0  0  0  0  0
  181.4060  177.4140  138.9020 C   0  0  0  0  0  0  0  0  0  0  0  0
  189.3570  177.2810  137.6530 N   0  0  0  0  0  0  0  0  0  0  0  0
  184.0020  173.8010  136.8140 N   0  0  0  0  0  2  0  0  0  0  0  0
  187.7510  174.7640  137.3990 C   0  0  2  0  0  3  0  0  0  0  0  0
  186.5920  176.9080  143.5780 C   0  0  0  0  0  1  0  0  0  0  0  0
  189.5040  176.6520  138.8980 N   0  0  0  0  0  2  0  0  0  0  0  0
  188.0580  178.1660  140.3330 C   0  0  0  0  0  0  0  0  0  0  0  0
  189.1400  176.6210  136.5820 N   0  0  0  0  0  0  0  0  0  0  0  0
  191.2910  176.4010  140.8850 F   0  0  0  0  0  0  0  0  0  0  0  0
  189.2900  177.3410  140.1330 C   0  0  0  0  0  0  0  0  0  0  0  0
  183.4000  178.9310  138.6920 N   0  0  0  0  0  0  0  0  0  0  0  0
  185.4130  173.9770  136.9190 C   0  0  0  0  0  0  0  0  0  0  0  0
  185.6660  178.5480  139.5930 C   0  0  2  0  0  3  0  0  0  0  0  0
  188.9060  177.3130  143.1250 N   0  0  0  0  0  0  0  0  0  0  0  0
  184.6080  179.3580  138.9200 C   0  0  0  0  0  3  0  0  0  0  0  0
  190.0630  177.8510  142.4260 C   0  0  0  0  0  2  0  0  0  0  0  0
  186.2010  175.5810  136.8720 S   0  0  0  0  0  0  0  0  0  0  0  0
  183.1100  174.9220  136.5710 C   0  0  0  0  0  2  0  0  0  0  0  0
  183.6440  176.6630  139.2410 O   0  0  0  0  0  0  0  0  0  0  0  0
  187.3300  178.1810  141.4690 C   0  0  0  0  0  0  0  0  0  0  0  0
  181.7750  174.6390  137.1700 C   0  0  0  0  0  0  0  0  0  0  0  0
  180.5110  178.6120  138.9960 C   0  0  0  0  0  2  0  0  0  0  0  0
  179.7550  178.8340  137.6900 C   0  0  0  0  0  2  0  0  0  0  0  0
  180.7050  179.2210  136.5640 C   0  0  0  0  0  3  0  0  0  0  0  0
  180.5080  178.2600  135.4080 C   0  0  0  0  0  1  0  0  0  0  0  0
  180.3910  180.6360  136.0940 C   0  0  0  0  0  1  0  0  0  0  0  0
  188.8200  174.7020  135.1080 C   0  0  0  0  0  2  0  0  0  0  0  0
  190.1320  174.1310  134.5950 C   0  0  0  0  0  2  0  0  0  0  0  0
  190.8620  173.4060  135.7160 C   0  0  0  0  0  2  0  0  0  0  0  0
  192.2670  172.9970  135.2750 C   0  0  0  0  0  2  0  0  0  0  0  0
  194.2160  174.7540  138.0220 C   0  0  0  0  0  3  0  0  0  0  0  0
  194.2570  172.3110  136.6500 C   0  0  0  0  0  3  0  0  0  0  0  0
  193.2920  173.2740  136.3300 C   0  0  0  0  0  0  0  0  0  0  0  0
  195.1770  173.7910  138.3430 C   0  0  0  0  0  3  0  0  0  0  0  0
  195.1980  172.5690  137.6570 C   0  0  0  0  0  3  0  0  0  0  0  0
  193.2750  174.4960  137.0160 C   0  0  0  0  0  3  0  0  0  0  0  0
  1 32  2  0  0  0  0
  2 31  1  0  0  0  0
  3 10  1  0  0  0  0
  4 38  1  6  0  0  0
  4 19  1  0  0  0  0
  4 15  1  0  0  0  0
  5 15  1  0  0  0  0
  6 27  1  0  0  0  0
  7 25  2  0  0  0  0
  7 16  1  0  0  0  0
  8 24  1  0  0  0  0
  8 18  1  0  0  0  0
  9  5  1  0  0  0  0
 10 12  2  0  0  0  0
 11 30  2  0  0  0  0
 12 11  1  0  0  0  0
 12 33  1  0  0  0  0
 13 17  1  0  0  0  0
 14 23  1  0  0  0  0
 15 28  1  6  0  0  0
 17 21  1  0  0  0  0
 18 31  2  0  0  0  0
 19 13  2  0  0  0  0
 20  6  1  0  0  0  0
 21 18  1  0  0  0  0
 21  6  2  0  0  0  0
 22 26  2  0  0  0  0
 22 11  1  0  0  0  0
 23  9  2  0  0  0  0
 24 26  1  6  0  0  0
 24  2  1  0  0  0  0
 27 25  1  0  0  0  0
 28 23  1  0  0  0  0
 29 14  1  0  0  0  0
 29 32  1  0  0  0  0
 31  7  1  0  0  0  0
 32  3  1  0  0  0  0
 34 33  1  0  0  0  0
 35 34  1  0  0  0  0
 36 35  1  0  0  0  0
 37 35  1  0  0  0  0
 39 38  1  0  0  0  0
 39 40  1  0  0  0  0
 41 40  1  0  0  0  0
 41 44  1  0  0  0  0
 42 45  1  0  0  0  0
 43 46  1  0  0  0  0
 44 43  2  0  0  0  0
 44 47  1  0  0  0  0
 46 45  2  0  0  0  0
 47 42  2  0  0  0  0
M  END
>  <MODEL>
6

>  <REMARK>
 VINA RESULT:      -5.5      3.333      9.448
  Name = 
  8 active torsions:
  status: ('A' for Active; 'I' for Inactive)
    1  A    between atoms: C_3  and  C_6
    2  A    between atoms: C_3  and  C_25
    3  A    between atoms: C_5  and  C_40
    4  A    between atoms: C_10  and  C_33
    5  A    between atoms: C_10  and  C_40
    6  A    between atoms: C_19  and  C_25
    7  A    between atoms: C_23  and  C_46
    8  A    between atoms: C_33  and  C_46
                            x       y       z     vdW  Elec       q    Type
                         _______ _______ _______ _____ _____    ______ ____

>  <TORSDO>
F 8

$$$$
=
 OpenBabel10222420213D

 47 51  0  0  1  0  0  0  0  0999 V2000
  183.3970  173.2140  135.2050 O   0  0  0  0  0  0  0  0  0  0  0  0
  186.9190  178.6290  140.5420 S   0  0  0  0  0  0  0  0  0  0  0  0
  183.6050  174.1050  137.3740 C   0  0  0  0  0  2  0  0  0  0  0  0
  191.2330  174.9420  136.5740 C   0  0  2  0  0  3  0  0  0  0  0  0
  189.8330  173.0140  137.2180 N   0  0  0  0  0  2  0  0  0  0  0  0
  191.5030  177.2350  141.1440 C   0  0  0  0  0  0  0  0  0  0  0  0
  188.7330  177.3450  142.2940 C   0  0  0  0  0  0  0  0  0  0  0  0
  188.8750  178.6920  138.4230 S   0  0  0  0  0  0  0  0  0  0  0  0
  188.5880  172.5370  136.8120 N   0  0  0  0  0  0  0  0  0  0  0  0
  182.7710  175.3460  137.3480 C   0  0  0  0  0  3  0  0  0  0  0  0
  184.6420  176.9320  137.7850 C   0  0  0  0  0  0  0  0  0  0  0  0
  183.2300  176.5940  137.4940 C   0  0  0  0  0  0  0  0  0  0  0  0
  191.2610  177.1220  137.6030 N   0  0  0  0  0  0  0  0  0  0  0  0
  186.4300  173.1450  136.0750 N   0  0  0  0  0  2  0  0  0  0  0  0
  189.9330  174.4630  137.2250 C   0  0  2  0  0  3  0  0  0  0  0  0
  187.5600  176.7470  142.9930 C   0  0  0  0  0  1  0  0  0  0  0  0
  191.2430  176.5600  138.8890 N   0  0  0  0  0  2  0  0  0  0  0  0
  189.4540  177.9960  139.9740 C   0  0  0  0  0  0  0  0  0  0  0  0
  191.2860  176.4020  136.5500 N   0  0  0  0  0  0  0  0  0  0  0  0
  192.6770  176.5520  141.1580 F   0  0  0  0  0  0  0  0  0  0  0  0
  190.7650  177.2780  140.0300 C   0  0  0  0  0  0  0  0  0  0  0  0
  185.1000  178.2740  137.5360 N   0  0  0  0  0  0  0  0  0  0  0  0
  187.7830  173.4500  136.4050 C   0  0  0  0  0  0  0  0  0  0  0  0
  187.2010  178.1320  138.8240 C   0  0  2  0  0  3  0  0  0  0  0  0
  189.8770  177.3390  142.9130 N   0  0  0  0  0  0  0  0  0  0  0  0
  186.2130  178.8160  137.9390 C   0  0  0  0  0  3  0  0  0  0  0  0
  191.0890  177.9490  142.3880 C   0  0  0  0  0  2  0  0  0  0  0  0
  188.4350  175.1150  136.4010 S   0  0  0  0  0  0  0  0  0  0  0  0
  185.5060  174.1700  135.6240 C   0  0  0  0  0  2  0  0  0  0  0  0
  185.4300  176.0610  138.2440 O   0  0  0  0  0  0  0  0  0  0  0  0
  188.5430  177.9940  140.9700 C   0  0  0  0  0  0  0  0  0  0  0  0
  184.1150  173.7940  136.0050 C   0  0  0  0  0  0  0  0  0  0  0  0
  182.2380  177.7090  137.3700 C   0  0  0  0  0  2  0  0  0  0  0  0
  181.4290  177.8680  138.6540 C   0  0  0  0  0  2  0  0  0  0  0  0
  181.9260  179.0530  139.4730 C   0  0  0  0  0  3  0  0  0  0  0  0
  181.3370  180.3250  138.8940 C   0  0  0  0  0  1  0  0  0  0  0  0
  181.4660  178.9050  140.9180 C   0  0  0  0  0  1  0  0  0  0  0  0
  191.3800  174.4030  135.1520 C   0  0  0  0  0  2  0  0  0  0  0  0
  192.6870  173.6430  134.9970 C   0  0  0  0  0  2  0  0  0  0  0  0
  193.7750  174.2900  135.8400 C   0  0  0  0  0  2  0  0  0  0  0  0
  194.4280  173.2660  136.7670 C   0  0  0  0  0  2  0  0  0  0  0  0
  196.6210  174.5480  139.5910 C   0  0  0  0  0  3  0  0  0  0  0  0
  196.7780  174.1580  136.8200 C   0  0  0  0  0  3  0  0  0  0  0  0
  195.5990  173.8380  137.5040 C   0  0  0  0  0  0  0  0  0  0  0  0
  197.8000  174.8650  138.9080 C   0  0  0  0  0  3  0  0  0  0  0  0
  197.8780  174.6690  137.5220 C   0  0  0  0  0  3  0  0  0  0  0  0
  195.5220  174.0360  138.8890 C   0  0  0  0  0  3  0  0  0  0  0  0
  1 32  2  0  0  0  0
  2 31  1  0  0  0  0
  4 38  1  6  0  0  0
  4 15  1  0  0  0  0
  5 15  1  0  0  0  0
  6 20  1  0  0  0  0
  6 27  1  0  0  0  0
  7 25  2  0  0  0  0
  7 16  1  0  0  0  0
  8 24  1  0  0  0  0
  8 18  1  0  0  0  0
  9  5  1  0  0  0  0
 10  3  1  0  0  0  0
 10 12  2  0  0  0  0
 11 30  2  0  0  0  0
 12 11  1  0  0  0  0
 13 17  1  0  0  0  0
 14 23  1  0  0  0  0
 15 28  1  6  0  0  0
 17 21  1  0  0  0  0
 18 21  1  0  0  0  0
 18 31  2  0  0  0  0
 19  4  1  0  0  0  0
 19 13  2  0  0  0  0
 21  6  2  0  0  0  0
 22 11  1  0  0  0  0
 22 26  2  0  0  0  0
 23  9  2  0  0  0  0
 24 26  1  6  0  0  0
 24  2  1  0  0  0  0
 27 25  1  0  0  0  0
 28 23  1  0  0  0  0
 29 32  1  0  0  0  0
 29 14  1  0  0  0  0
 31  7  1  0  0  0  0
 32  3  1  0  0  0  0
 33 12  1  0  0  0  0
 33 34  1  0  0  0  0
 34 35  1  0  0  0  0
 35 37  1  0  0  0  0
 36 35  1  0  0  0  0
 39 38  1  0  0  0  0
 39 40  1  0  0  0  0
 40 41  1  0  0  0  0
 41 44  1  0  0  0  0
 43 44  2  0  0  0  0
 43 46  1  0  0  0  0
 44 47  1  0  0  0  0
 45 42  1  0  0  0  0
 46 45  2  0  0  0  0
 47 42  2  0  0  0  0
M  END
>  <MODEL>
7

>  <REMARK>
 VINA RESULT:      -5.5      3.604      9.595
  Name = 
  8 active torsions:
  status: ('A' for Active; 'I' for Inactive)
    1  A    between atoms: C_3  and  C_6
    2  A    between atoms: C_3  and  C_25
    3  A    between atoms: C_5  and  C_40
    4  A    between atoms: C_10  and  C_33
    5  A    between atoms: C_10  and  C_40
    6  A    between atoms: C_19  and  C_25
    7  A    between atoms: C_23  and  C_46
    8  A    between atoms: C_33  and  C_46
                            x       y       z     vdW  Elec       q    Type
                         _______ _______ _______ _____ _____    ______ ____

>  <TORSDO>
F 8

$$$$
=
 OpenBabel10222420213D

 47 51  0  0  1  0  0  0  0  0999 V2000
  192.3540  177.5530  140.8210 O   0  0  0  0  0  0  0  0  0  0  0  0
  185.6560  175.6760  136.1480 S   0  0  0  0  0  0  0  0  0  0  0  0
  191.1170  176.0070  139.5470 C   0  0  0  0  0  2  0  0  0  0  0  0
  184.4280  178.7680  142.2220 C   0  0  2  0  0  3  0  0  0  0  0  0
  186.0320  177.1290  143.1350 N   0  0  0  0  0  2  0  0  0  0  0  0
  181.8410  175.6330  139.1080 C   0  0  0  0  0  0  0  0  0  0  0  0
  183.8340  174.0220  137.5460 C   0  0  0  0  0  0  0  0  0  0  0  0
  184.6720  178.0360  137.4840 S   0  0  0  0  0  0  0  0  0  0  0  0
  187.4220  177.0270  143.1390 N   0  0  0  0  0  0  0  0  0  0  0  0
  191.4740  176.3220  138.1290 C   0  0  0  0  0  3  0  0  0  0  0  0
  189.1760  176.9690  137.4160 C   0  0  0  0  0  0  0  0  0  0  0  0
  190.6290  176.7790  137.1990 C   0  0  0  0  0  0  0  0  0  0  0  0
  183.3550  178.6990  140.0640 N   0  0  0  0  0  0  0  0  0  0  0  0
  189.3950  177.4340  141.9100 N   0  0  0  0  0  2  0  0  0  0  0  0
  185.4890  177.7070  141.9180 C   0  0  2  0  0  3  0  0  0  0  0  0
  184.8030  172.9010  137.3850 C   0  0  0  0  0  1  0  0  0  0  0  0
  183.0870  177.3280  140.1950 N   0  0  0  0  0  2  0  0  0  0  0  0
  183.8250  176.5100  137.9090 C   0  0  0  0  0  0  0  0  0  0  0  0
  183.9350  179.3670  140.9840 N   0  0  0  0  0  0  0  0  0  0  0  0
  181.0160  175.6200  140.1870 F   0  0  0  0  0  0  0  0  0  0  0  0
  182.8760  176.4780  139.0640 C   0  0  0  0  0  0  0  0  0  0  0  0
  188.4430  177.8140  136.5110 N   0  0  0  0  0  0  0  0  0  0  0  0
  187.9910  177.5630  142.1210 C   0  0  0  0  0  0  0  0  0  0  0  0
  186.1770  177.0820  137.1630 C   0  0  2  0  0  3  0  0  0  0  0  0
  182.6080  173.7250  137.8610 N   0  0  0  0  0  0  0  0  0  0  0  0
  187.1500  177.9150  136.3960 C   0  0  0  0  0  3  0  0  0  0  0  0
  181.5380  174.7040  137.9800 C   0  0  0  0  0  2  0  0  0  0  0  0
  186.8990  178.3590  140.9500 S   0  0  0  0  0  0  0  0  0  0  0  0
  190.0500  178.0250  140.7570 C   0  0  0  0  0  2  0  0  0  0  0  0
  188.5900  176.3990  138.3770 O   0  0  0  0  0  0  0  0  0  0  0  0
  184.2720  175.4130  137.2620 C   0  0  0  0  0  0  0  0  0  0  0  0
  191.2550  177.2240  140.4000 C   0  0  0  0  0  0  0  0  0  0  0  0
  191.1980  177.0980  135.8510 C   0  0  0  0  0  2  0  0  0  0  0  0
  191.0110  175.9300  134.8870 C   0  0  0  0  0  2  0  0  0  0  0  0
  192.3390  175.2420  134.5940 C   0  0  0  0  0  3  0  0  0  0  0  0
  193.4680  176.1800  134.9770 C   0  0  0  0  0  1  0  0  0  0  0  0
  192.4490  173.9680  135.4210 C   0  0  0  0  0  1  0  0  0  0  0  0
  184.9750  179.8630  143.1350 C   0  0  0  0  0  2  0  0  0  0  0  0
  184.0860  180.0410  144.3550 C   0  0  0  0  0  2  0  0  0  0  0  0
  182.9810  178.9960  144.3570 C   0  0  0  0  0  2  0  0  0  0  0  0
  181.6040  179.6570  144.3130 C   0  0  0  0  0  2  0  0  0  0  0  0
  179.7840  179.7170  140.9800 C   0  0  0  0  0  3  0  0  0  0  0  0
  180.3630  177.8910  143.0240 C   0  0  0  0  0  3  0  0  0  0  0  0
  180.8040  179.2160  143.1270 C   0  0  0  0  0  0  0  0  0  0  0  0
  179.3460  178.3940  140.8760 C   0  0  0  0  0  3  0  0  0  0  0  0
  179.6360  177.4800  141.8980 C   0  0  0  0  0  3  0  0  0  0  0  0
  180.5110  180.1280  142.1040 C   0  0  0  0  0  3  0  0  0  0  0  0
  2 24  1  0  0  0  0
  2 31  1  0  0  0  0
  3 32  1  0  0  0  0
  4 38  1  1  0  0  0
  5  9  1  0  0  0  0
  6 20  1  0  0  0  0
  7 25  2  0  0  0  0
  8 18  1  0  0  0  0
 10  3  1  0  0  0  0
 11 30  2  0  0  0  0
 12 11  1  0  0  0  0
 12 10  2  0  0  0  0
 13 17  1  0  0  0  0
 13 19  2  0  0  0  0
 14 23  1  0  0  0  0
 15 28  1  1  0  0  0
 15  4  1  0  0  0  0
 15  5  1  0  0  0  0
 16  7  1  0  0  0  0
 18 21  1  0  0  0  0
 19  4  1  0  0  0  0
 21  6  2  0  0  0  0
 21 17  1  0  0  0  0
 22 11  1  0  0  0  0
 23  9  2  0  0  0  0
 24 26  1  6  0  0  0
 24  8  1  0  0  0  0
 25 27  1  0  0  0  0
 26 22  2  0  0  0  0
 27  6  1  0  0  0  0
 28 23  1  0  0  0  0
 29 14  1  0  0  0  0
 31  7  1  0  0  0  0
 31 18  2  0  0  0  0
 32 29  1  0  0  0  0
 32  1  2  0  0  0  0
 33 12  1  0  0  0  0
 34 33  1  0  0  0  0
 35 34  1  0  0  0  0
 35 36  1  0  0  0  0
 35 37  1  0  0  0  0
 38 39  1  0  0  0  0
 39 40  1  0  0  0  0
 41 40  1  0  0  0  0
 42 47  1  0  0  0  0
 43 44  1  0  0  0  0
 44 41  1  0  0  0  0
 45 42  2  0  0  0  0
 45 46  1  0  0  0  0
 46 43  2  0  0  0  0
 47 44  2  0  0  0  0
M  END
>  <MODEL>
8

>  <REMARK>
 VINA RESULT:      -5.3      1.975      3.758
  Name = 
  8 active torsions:
  status: ('A' for Active; 'I' for Inactive)
    1  A    between atoms: C_3  and  C_6
    2  A    between atoms: C_3  and  C_25
    3  A    between atoms: C_5  and  C_40
    4  A    between atoms: C_10  and  C_33
    5  A    between atoms: C_10  and  C_40
    6  A    between atoms: C_19  and  C_25
    7  A    between atoms: C_23  and  C_46
    8  A    between atoms: C_33  and  C_46
                            x       y       z     vdW  Elec       q    Type
                         _______ _______ _______ _____ _____    ______ ____

>  <TORSDO>
F 8

$$$$
=
 OpenBabel10222420213D

 47 51  0  0  1  0  0  0  0  0999 V2000
  186.2590  178.6480  145.6120 O   0  0  0  0  0  0  0  0  0  0  0  0
  188.2440  176.1100  137.8770 S   0  0  0  0  0  0  0  0  0  0  0  0
  187.0400  176.9830  144.1440 C   0  0  0  0  0  2  0  0  0  0  0  0
  182.0580  179.1230  138.6560 C   0  0  2  0  0  3  0  0  0  0  0  0
  181.8290  177.6500  140.6240 N   0  0  0  0  0  2  0  0  0  0  0  0
  184.1080  175.7330  135.4130 C   0  0  0  0  0  0  0  0  0  0  0  0
  186.3280  174.3040  136.8430 C   0  0  0  0  0  0  0  0  0  0  0  0
  186.5820  178.3790  137.2340 S   0  0  0  0  0  0  0  0  0  0  0  0
  182.3300  177.6790  141.9240 N   0  0  0  0  0  0  0  0  0  0  0  0
  188.4820  177.3180  143.9330 C   0  0  0  0  0  3  0  0  0  0  0  0
  188.3000  177.7400  141.4840 C   0  0  0  0  0  0  0  0  0  0  0  0
  189.0320  177.6860  142.7710 C   0  0  0  0  0  0  0  0  0  0  0  0
  183.6830  178.9350  136.8860 N   0  0  0  0  0  0  0  0  0  0  0  0
  184.1770  178.2600  143.2720 N   0  0  0  0  0  2  0  0  0  0  0  0
  182.7520  178.1650  139.6270 C   0  0  2  0  0  3  0  0  0  0  0  0
  186.8570  173.2780  137.7860 C   0  0  0  0  0  1  0  0  0  0  0  0
  183.5000  177.5470  136.8090 N   0  0  0  0  0  2  0  0  0  0  0  0
  185.9200  176.7830  136.7410 C   0  0  0  0  0  0  0  0  0  0  0  0
  183.0170  179.6630  137.6960 N   0  0  0  0  0  0  0  0  0  0  0  0
  182.8050  175.6520  135.0400 F   0  0  0  0  0  0  0  0  0  0  0  0
  184.5010  176.6720  136.2810 C   0  0  0  0  0  0  0  0  0  0  0  0
  188.8560  178.5050  140.4000 N   0  0  0  0  0  0  0  0  0  0  0  0
  183.4700  178.2580  142.0340 C   0  0  0  0  0  0  0  0  0  0  0  0
  187.4500  177.5680  138.6000 C   0  0  2  0  0  3  0  0  0  0  0  0
  185.5980  173.8950  135.8460 N   0  0  0  0  0  0  0  0  0  0  0  0
  188.4940  178.4830  139.1500 C   0  0  0  0  0  3  0  0  0  0  0  0
  185.0760  174.7700  134.8080 C   0  0  0  0  0  2  0  0  0  0  0  0
  184.1460  178.9380  140.5250 S   0  0  0  0  0  0  0  0  0  0  0  0
  185.4730  178.9010  143.4090 C   0  0  0  0  0  2  0  0  0  0  0  0
  187.2080  177.1250  141.3400 O   0  0  0  0  0  0  0  0  0  0  0  0
  186.7140  175.7280  137.0200 C   0  0  0  0  0  0  0  0  0  0  0  0
  186.2620  178.2140  144.4710 C   0  0  0  0  0  0  0  0  0  0  0  0
  190.4860  178.0460  142.7810 C   0  0  0  0  0  2  0  0  0  0  0  0
  190.9500  178.4040  144.1900 C   0  0  0  0  0  2  0  0  0  0  0  0
  191.7370  177.2590  144.8160 C   0  0  0  0  0  3  0  0  0  0  0  0
  191.1070  176.9080  146.1500 C   0  0  0  0  0  1  0  0  0  0  0  0
  191.6800  176.0400  143.9040 C   0  0  0  0  0  1  0  0  0  0  0  0
  181.3750  180.2720  139.3950 C   0  0  0  0  0  2  0  0  0  0  0  0
  179.8660  180.1970  139.2310 C   0  0  0  0  0  2  0  0  0  0  0  0
  179.5050  179.2120  138.1300 C   0  0  0  0  0  2  0  0  0  0  0  0
  178.9570  177.9130  138.7190 C   0  0  0  0  0  2  0  0  0  0  0  0
  180.3000  174.5060  137.7090 C   0  0  0  0  0  3  0  0  0  0  0  0
  178.9740  176.6750  136.5310 C   0  0  0  0  0  3  0  0  0  0  0  0
  179.3160  176.7210  137.8870 C   0  0  0  0  0  0  0  0  0  0  0  0
  179.9560  174.4590  136.3550 C   0  0  0  0  0  3  0  0  0  0  0  0
  179.2920  175.5450  135.7650 C   0  0  0  0  0  3  0  0  0  0  0  0
  179.9810  175.6360  138.4740 C   0  0  0  0  0  3  0  0  0  0  0  0
  2 24  1  0  0  0  0
  3 32  1  0  0  0  0
  4 38  1  1  0  0  0
  4 15  1  0  0  0  0
  5  9  1  0  0  0  0
  6 21  2  0  0  0  0
  7 31  1  0  0  0  0
  7 16  1  0  0  0  0
  8 24  1  0  0  0  0
  9 23  2  0  0  0  0
 10  3  1  0  0  0  0
 11 12  1  0  0  0  0
 12 33  1  0  0  0  0
 12 10  2  0  0  0  0
 13 19  2  0  0  0  0
 14 29  1  0  0  0  0
 15 28  1  1  0  0  0
 15  5  1  0  0  0  0
 17 13  1  0  0  0  0
 18 31  2  0  0  0  0
 18  8  1  0  0  0  0
 19  4  1  0  0  0  0
 20  6  1  0  0  0  0
 21 18  1  0  0  0  0
 21 17  1  0  0  0  0
 22 11  1  0  0  0  0
 23 14  1  0  0  0  0
 24 26  1  6  0  0  0
 25  7  2  0  0  0  0
 26 22  2  0  0  0  0
 27  6  1  0  0  0  0
 27 25  1  0  0  0  0
 28 23  1  0  0  0  0
 29 32  1  0  0  0  0
 30 11  2  0  0  0  0
 31  2  1  0  0  0  0
 32  1  2  0  0  0  0
 33 34  1  0  0  0  0
 34 35  1  0  0  0  0
 35 36  1  0  0  0  0
 37 35  1  0  0  0  0
 39 38  1  0  0  0  0
 40 41  1  0  0  0  0
 40 39  1  0  0  0  0
 42 47  1  0  0  0  0
 43 44  1  0  0  0  0
 44 47  2  0  0  0  0
 44 41  1  0  0  0  0
 45 42  2  0  0  0  0
 46 45  1  0  0  0  0
 46 43  2  0  0  0  0
M  END
>  <MODEL>
9

>  <REMARK>
 VINA RESULT:      -4.5      3.084      7.306
  Name = 
  8 active torsions:
  status: ('A' for Active; 'I' for Inactive)
    1  A    between atoms: C_3  and  C_6
    2  A    between atoms: C_3  and  C_25
    3  A    between atoms: C_5  and  C_40
    4  A    between atoms: C_10  and  C_33
    5  A    between atoms: C_10  and  C_40
    6  A    between atoms: C_19  and  C_25
    7  A    between atoms: C_23  and  C_46
    8  A    between atoms: C_33  and  C_46
                            x       y       z     vdW  Elec       q    Type
                         _______ _______ _______ _____ _____    ______ ____

>  <TORSDO>
F 8

$$$$
