=
 OpenBabel10222417583D

 33 36  0  0  1  0  0  0  0  0999 V2000
  184.1810  178.9810  143.1310 C   0  0  0  0  0  3  0  0  0  0  0  0
  186.5800  177.9100  141.1480 C   0  0  0  0  0  2  0  0  0  0  0  0
  187.5360  178.0990  142.3280 C   0  0  1  0  0  3  0  0  0  0  0  0
  185.1200  178.4810  143.8760 C   0  0  0  0  0  0  0  0  0  0  0  0
  187.1260  177.2360  143.5240 C   0  0  0  0  0  2  0  0  0  0  0  0
  186.1770  177.9640  144.4300 C   0  0  0  0  0  0  0  0  0  0  0  0
  184.2240  178.6950  141.6620 C   0  0  0  0  0  2  0  0  0  0  0  0
  185.5760  179.0610  141.0390 C   0  0  0  0  0  2  0  0  0  0  0  0
  189.9020  177.6170  142.7760 N   0  0  0  0  0  0  0  0  0  0  0  0
  191.1350  177.3720  142.0320 C   0  0  0  0  0  2  0  0  0  0  0  0
  189.4160  177.6930  140.5650 C   0  0  0  0  0  0  0  0  0  0  0  0
  188.9420  177.7890  141.9320 C   0  0  0  0  0  0  0  0  0  0  0  0
  190.7120  177.4400  140.5940 C   0  0  0  0  0  3  0  0  0  0  0  0
  188.6400  176.5410  138.5410 C   0  0  0  0  0  3  0  0  0  0  0  0
  187.4440  178.6990  136.7120 C   0  0  0  0  0  3  0  0  0  0  0  0
  187.9540  176.3630  137.4150 C   0  0  0  0  0  3  0  0  0  0  0  0
  188.5590  179.3220  137.3740 N   0  0  0  0  0  0  0  0  0  0  0  0
  188.6060  177.8170  139.3140 C   0  0  2  0  0  3  0  0  0  0  0  0
  187.1310  177.3940  136.7380 C   0  0  0  0  0  0  0  0  0  0  0  0
  189.1130  178.9530  138.4890 C   0  0  0  0  0  3  0  0  0  0  0  0
  186.0150  176.9820  135.9450 N   0  0  0  0  0  2  0  0  0  0  0  0
  184.6620  177.0980  136.3830 C   0  0  0  0  0  3  0  0  0  0  0  0
  184.3790  177.0540  137.6750 C   0  0  0  0  0  2  0  0  0  0  0  0
  185.3340  178.2720  146.6430 O   0  0  0  0  0  1  0  0  0  0  0  0
  186.4990  178.2540  145.8700 C   0  0  1  0  0  3  0  0  0  0  0  0
  189.3830  178.5720  145.9820 O   0  0  0  0  0  0  0  0  0  0  0  0
  188.8730  177.5490  146.5130 C   0  0  0  0  0  0  0  0  0  0  0  0
  187.4640  177.3050  146.4260 N   0  0  0  0  0  2  0  0  0  0  0  0
  189.7400  176.6180  147.2850 C   0  0  0  0  0  2  0  0  0  0  0  0
  192.4930  175.2570  146.4740 C   0  0  0  0  0  2  0  0  0  0  0  0
  191.2010  176.8980  146.9730 C   0  0  0  0  0  3  0  0  0  0  0  0
  192.0840  175.9470  147.7580 C   0  0  0  0  0  2  0  0  0  0  0  0
  191.6040  176.2020  145.6900 C   0  0  0  0  0  2  0  0  0  0  0  0
  1  4  2  0  0  0  0
  2  3  1  0  0  0  0
  3 12  1  6  0  0  0
  3  5  1  0  0  0  0
  4  6  2  0  0  0  0
  5  6  1  0  0  0  0
  6 25  1  0  0  0  0
  7  1  1  0  0  0  0
  8  2  1  0  0  0  0
  8  7  1  0  0  0  0
 10  9  1  0  0  0  0
 11 13  2  0  0  0  0
 11 12  1  0  0  0  0
 12  9  2  0  0  0  0
 13 10  1  0  0  0  0
 14 18  1  0  0  0  0
 15 19  2  0  0  0  0
 15 17  1  0  0  0  0
 16 14  2  0  0  0  0
 17 20  2  0  0  0  0
 18 11  1  1  0  0  0
 19 16  1  0  0  0  0
 20 18  1  0  0  0  0
 21 22  1  0  0  0  0
 21 19  1  0  0  0  0
 22 23  2  0  0  0  0
 25 28  1  0  0  0  0
 25 24  1  1  0  0  0
 26 27  2  0  0  0  0
 27 29  1  0  0  0  0
 28 27  1  0  0  0  0
 30 32  1  0  0  0  0
 31 29  1  0  0  0  0
 31 32  1  0  0  0  0
 33 30  1  0  0  0  0
 33 31  1  0  0  0  0
M  END
>  <MODEL>
1

>  <REMARK>
 VINA RESULT:      -8.6      0.000      0.000
  Name = 
  8 active torsions:
  status: ('A' for Active; 'I' for Inactive)
    1  A    between atoms: C_7  and  C_18
    2  A    between atoms: N_8  and  C_16
    3  A    between atoms: N_8  and  C_26
    4  A    between atoms: C_12  and  C_27
    5  A    between atoms: C_14  and  C_31
    6  A    between atoms: C_19  and  N_23
    7  A    between atoms: C_19  and  C_24
    8  A    between atoms: C_21  and  C_31
                            x       y       z     vdW  Elec       q    Type
                         _______ _______ _______ _____ _____    ______ ____

>  <TORSDO>
F 8

$$$$
=
 OpenBabel10222417583D

 33 36  0  0  1  0  0  0  0  0999 V2000
  184.5320  178.2500  146.2260 C   0  0  0  0  0  3  0  0  0  0  0  0
  187.1650  178.5340  144.2720 C   0  0  0  0  0  2  0  0  0  0  0  0
  186.2170  178.3200  143.0890 C   0  0  1  0  0  3  0  0  0  0  0  0
  184.1210  178.6480  145.0590 C   0  0  0  0  0  0  0  0  0  0  0  0
  185.1380  179.4040  143.0350 C   0  0  0  0  0  2  0  0  0  0  0  0
  183.9240  179.0130  143.8270 C   0  0  0  0  0  0  0  0  0  0  0  0
  185.9990  178.3170  146.5130 C   0  0  0  0  0  2  0  0  0  0  0  0
  186.8340  177.6050  145.4420 C   0  0  0  0  0  2  0  0  0  0  0  0
  186.4650  178.6370  140.6670 N   0  0  0  0  0  0  0  0  0  0  0  0
  187.4710  178.4320  139.6280 C   0  0  0  0  0  3  0  0  0  0  0  0
  188.3290  177.8030  141.6470 C   0  0  0  0  0  0  0  0  0  0  0  0
  186.9690  178.2840  141.8000 C   0  0  2  0  0  3  0  0  0  0  0  0
  188.6540  177.8860  140.3700 C   0  0  0  0  0  3  0  0  0  0  0  0
  190.1600  178.4190  143.1600 C   0  0  0  0  0  3  0  0  0  0  0  0
  191.2300  175.7970  144.3500 C   0  0  0  0  0  3  0  0  0  0  0  0
  191.0410  178.2740  144.1480 C   0  0  0  0  0  3  0  0  0  0  0  0
  190.8570  175.4880  142.9960 N   0  0  0  0  0  0  0  0  0  0  0  0
  189.2470  177.3230  142.7250 C   0  0  2  0  0  3  0  0  0  0  0  0
  191.2890  177.0210  144.9000 C   0  0  0  0  0  0  0  0  0  0  0  0
  190.0230  176.1410  142.2450 C   0  0  0  0  0  3  0  0  0  0  0  0
  191.7560  177.1000  146.2490 N   0  0  0  0  0  2  0  0  0  0  0  0
  190.9620  176.7230  147.3720 C   0  0  0  0  0  3  0  0  0  0  0  0
  189.7630  177.2550  147.5440 C   0  0  0  0  0  2  0  0  0  0  0  0
  181.7610  179.9690  143.4950 O   0  0  0  0  0  1  0  0  0  0  0  0
  182.5650  178.8640  143.1990 C   0  0  1  0  0  3  0  0  0  0  0  0
  180.4630  177.8460  141.4740 O   0  0  0  0  0  0  0  0  0  0  0  0
  181.5440  178.2180  140.9440 C   0  0  0  0  0  0  0  0  0  0  0  0
  182.6400  178.6610  141.7520 N   0  0  0  0  0  2  0  0  0  0  0  0
  181.6580  178.2470  139.4600 C   0  0  0  0  0  2  0  0  0  0  0  0
  182.4650  175.5820  137.9320 C   0  0  0  0  0  2  0  0  0  0  0  0
  182.8390  177.3960  139.0190 C   0  0  0  0  0  3  0  0  0  0  0  0
  182.5940  175.9470  139.3960 C   0  0  0  0  0  2  0  0  0  0  0  0
  182.7010  177.0320  137.5560 C   0  0  0  0  0  2  0  0  0  0  0  0
  1  7  1  0  0  0  0
  2  8  1  0  0  0  0
  3  5  1  6  0  0  0
  3  2  1  0  0  0  0
  4  1  2  0  0  0  0
  5  6  1  0  0  0  0
  6  4  2  0  0  0  0
  8  7  1  0  0  0  0
 10 13  1  0  0  0  0
 10  9  2  0  0  0  0
 11 12  1  0  0  0  0
 12  9  1  6  0  0  0
 12  3  1  0  0  0  0
 13 11  2  0  0  0  0
 14 16  2  0  0  0  0
 15 19  2  0  0  0  0
 16 19  1  0  0  0  0
 17 15  1  0  0  0  0
 18 11  1  6  0  0  0
 18 14  1  0  0  0  0
 19 21  1  0  0  0  0
 20 18  1  0  0  0  0
 20 17  2  0  0  0  0
 21 22  1  0  0  0  0
 22 23  2  0  0  0  0
 25 24  1  6  0  0  0
 25  6  1  0  0  0  0
 27 26  2  0  0  0  0
 27 28  1  0  0  0  0
 28 25  1  0  0  0  0
 29 27  1  0  0  0  0
 30 32  1  0  0  0  0
 31 32  1  0  0  0  0
 31 29  1  0  0  0  0
 33 30  1  0  0  0  0
 33 31  1  0  0  0  0
M  END
>  <MODEL>
2

>  <REMARK>
 VINA RESULT:      -8.5      2.678      7.641
  Name = 
  8 active torsions:
  status: ('A' for Active; 'I' for Inactive)
    1  A    between atoms: C_7  and  C_18
    2  A    between atoms: N_8  and  C_16
    3  A    between atoms: N_8  and  C_26
    4  A    between atoms: C_12  and  C_27
    5  A    between atoms: C_14  and  C_31
    6  A    between atoms: C_19  and  N_23
    7  A    between atoms: C_19  and  C_24
    8  A    between atoms: C_21  and  C_31
                            x       y       z     vdW  Elec       q    Type
                         _______ _______ _______ _____ _____    ______ ____

>  <TORSDO>
F 8

$$$$
=
 OpenBabel10222417583D

 33 36  0  0  1  0  0  0  0  0999 V2000
  184.4560  178.2970  145.7900 C   0  0  0  0  0  3  0  0  0  0  0  0
  187.2380  178.5920  144.0550 C   0  0  0  0  0  2  0  0  0  0  0  0
  186.4030  178.2880  142.8090 C   0  0  1  0  0  3  0  0  0  0  0  0
  184.1350  178.6260  144.5750 C   0  0  0  0  0  0  0  0  0  0  0  0
  185.2970  179.3260  142.6100 C   0  0  0  0  0  2  0  0  0  0  0  0
  184.0320  178.9260  143.3140 C   0  0  0  0  0  0  0  0  0  0  0  0
  185.8900  178.4330  146.1980 C   0  0  0  0  0  2  0  0  0  0  0  0
  186.8380  177.7050  145.2380 C   0  0  0  0  0  2  0  0  0  0  0  0
  186.8580  178.5310  140.4070 N   0  0  0  0  0  0  0  0  0  0  0  0
  187.9530  178.3070  139.4670 C   0  0  0  0  0  3  0  0  0  0  0  0
  188.6390  177.7560  141.5730 C   0  0  0  0  0  0  0  0  0  0  0  0
  187.2650  178.2210  141.5910 C   0  0  2  0  0  3  0  0  0  0  0  0
  189.0740  177.8030  140.3270 C   0  0  0  0  0  3  0  0  0  0  0  0
  190.3670  178.4300  143.1810 C   0  0  0  0  0  3  0  0  0  0  0  0
  191.2930  175.8650  144.5940 C   0  0  0  0  0  3  0  0  0  0  0  0
  191.1690  178.3280  144.2380 C   0  0  0  0  0  3  0  0  0  0  0  0
  191.0140  175.4840  143.2360 N   0  0  0  0  0  0  0  0  0  0  0  0
  189.4660  177.3250  142.7420 C   0  0  2  0  0  3  0  0  0  0  0  0
  191.3360  177.1170  145.0770 C   0  0  0  0  0  0  0  0  0  0  0  0
  190.2510  176.1050  142.3890 C   0  0  0  0  0  3  0  0  0  0  0  0
  191.7040  177.2670  146.4500 N   0  0  0  0  0  2  0  0  0  0  0  0
  190.8580  176.8790  147.5310 C   0  0  0  0  0  3  0  0  0  0  0  0
  189.6160  177.3310  147.5960 C   0  0  0  0  0  2  0  0  0  0  0  0
  181.7130  179.4640  143.1390 O   0  0  0  0  0  1  0  0  0  0  0  0
  182.7400  178.6970  142.5800 C   0  0  1  0  0  3  0  0  0  0  0  0
  181.0320  177.6670  140.4700 O   0  0  0  0  0  0  0  0  0  0  0  0
  181.9400  178.4830  140.1590 C   0  0  0  0  0  0  0  0  0  0  0  0
  182.8570  178.9680  141.1480 N   0  0  0  0  0  2  0  0  0  0  0  0
  182.0230  178.9880  138.7620 C   0  0  0  0  0  2  0  0  0  0  0  0
  180.9970  181.7660  137.6120 C   0  0  0  0  0  2  0  0  0  0  0  0
  180.7760  179.7930  138.4310 C   0  0  0  0  0  3  0  0  0  0  0  0
  180.9010  181.1900  139.0090 C   0  0  0  0  0  2  0  0  0  0  0  0
  180.8820  180.3680  137.0340 C   0  0  0  0  0  2  0  0  0  0  0  0
  1  7  1  0  0  0  0
  2  8  1  0  0  0  0
  3  5  1  6  0  0  0
  3  2  1  0  0  0  0
  4  1  2  0  0  0  0
  5  6  1  0  0  0  0
  6  4  2  0  0  0  0
  8  7  1  0  0  0  0
 10 13  1  0  0  0  0
 10  9  2  0  0  0  0
 11 12  1  0  0  0  0
 12  9  1  6  0  0  0
 12  3  1  0  0  0  0
 13 11  2  0  0  0  0
 14 16  2  0  0  0  0
 15 19  2  0  0  0  0
 16 19  1  0  0  0  0
 17 15  1  0  0  0  0
 18 11  1  6  0  0  0
 18 14  1  0  0  0  0
 19 21  1  0  0  0  0
 20 18  1  0  0  0  0
 20 17  2  0  0  0  0
 21 22  1  0  0  0  0
 22 23  2  0  0  0  0
 25 24  1  1  0  0  0
 25  6  1  0  0  0  0
 27 26  2  0  0  0  0
 27 28  1  0  0  0  0
 28 25  1  0  0  0  0
 29 27  1  0  0  0  0
 30 32  1  0  0  0  0
 31 29  1  0  0  0  0
 31 32  1  0  0  0  0
 33 30  1  0  0  0  0
 33 31  1  0  0  0  0
M  END
>  <MODEL>
3

>  <REMARK>
 VINA RESULT:      -8.3      3.081      8.196
  Name = 
  8 active torsions:
  status: ('A' for Active; 'I' for Inactive)
    1  A    between atoms: C_7  and  C_18
    2  A    between atoms: N_8  and  C_16
    3  A    between atoms: N_8  and  C_26
    4  A    between atoms: C_12  and  C_27
    5  A    between atoms: C_14  and  C_31
    6  A    between atoms: C_19  and  N_23
    7  A    between atoms: C_19  and  C_24
    8  A    between atoms: C_21  and  C_31
                            x       y       z     vdW  Elec       q    Type
                         _______ _______ _______ _____ _____    ______ ____

>  <TORSDO>
F 8

$$$$
=
 OpenBabel10222417583D

 33 36  0  0  1  0  0  0  0  0999 V2000
  189.1510  174.6720  137.3180 C   0  0  0  0  0  3  0  0  0  0  0  0
  186.1290  174.5300  136.0220 C   0  0  0  0  0  2  0  0  0  0  0  0
  185.8570  175.8760  136.7000 C   0  0  1  0  0  3  0  0  0  0  0  0
  188.7070  175.8880  137.2090 C   0  0  0  0  0  0  0  0  0  0  0  0
  186.8220  176.9560  136.2050 C   0  0  0  0  0  2  0  0  0  0  0  0
  188.0680  177.0080  137.0410 C   0  0  0  0  0  0  0  0  0  0  0  0
  188.4120  173.5880  136.5960 C   0  0  0  0  0  2  0  0  0  0  0  0
  186.9160  173.5840  136.9320 C   0  0  0  0  0  2  0  0  0  0  0  0
  183.7770  176.0530  135.4070 N   0  0  0  0  0  0  0  0  0  0  0  0
  182.4570  176.6660  135.5250 C   0  0  0  0  0  3  0  0  0  0  0  0
  183.6720  177.1160  137.4040 C   0  0  0  0  0  0  0  0  0  0  0  0
  184.4460  176.3110  136.4780 C   0  0  2  0  0  3  0  0  0  0  0  0
  182.4860  177.3360  136.8670 C   0  0  0  0  0  3  0  0  0  0  0  0
  183.0660  177.2550  139.7780 C   0  0  0  0  0  3  0  0  0  0  0  0
  185.0120  179.2560  141.0610 C   0  0  0  0  0  3  0  0  0  0  0  0
  183.2200  177.5230  141.0730 C   0  0  0  0  0  3  0  0  0  0  0  0
  184.7570  179.7530  139.7360 N   0  0  0  0  0  0  0  0  0  0  0  0
  184.0930  177.6020  138.7540 C   0  0  2  0  0  3  0  0  0  0  0  0
  184.3690  178.2460  141.6700 C   0  0  0  0  0  0  0  0  0  0  0  0
  184.3290  179.0760  138.7130 C   0  0  0  0  0  3  0  0  0  0  0  0
  184.7400  177.9660  143.0210 N   0  0  0  0  0  2  0  0  0  0  0  0
  184.3430  178.7800  144.1230 C   0  0  0  0  0  3  0  0  0  0  0  0
  183.0590  179.0030  144.3520 C   0  0  0  0  0  2  0  0  0  0  0  0
  188.0290  179.3920  137.1580 O   0  0  0  0  0  1  0  0  0  0  0  0
  188.4730  178.2370  137.8080 C   0  0  1  0  0  3  0  0  0  0  0  0
  189.9850  177.4510  140.1590 O   0  0  0  0  0  0  0  0  0  0  0  0
  188.8110  177.8800  140.3190 C   0  0  0  0  0  0  0  0  0  0  0  0
  187.9940  178.2130  139.1900 N   0  0  0  0  0  2  0  0  0  0  0  0
  188.2910  178.0910  141.6970 C   0  0  0  0  0  2  0  0  0  0  0  0
  188.3790  177.1180  144.7200 C   0  0  0  0  0  2  0  0  0  0  0  0
  188.9800  177.1350  142.6580 C   0  0  0  0  0  3  0  0  0  0  0  0
  189.4040  177.8820  143.9080 C   0  0  0  0  0  2  0  0  0  0  0  0
  187.9480  176.3780  143.4690 C   0  0  0  0  0  2  0  0  0  0  0  0
  2  8  1  0  0  0  0
  3  2  1  6  0  0  0
  4  1  2  0  0  0  0
  5  3  1  0  0  0  0
  5  6  1  0  0  0  0
  6  4  2  0  0  0  0
  6 25  1  0  0  0  0
  7  8  1  0  0  0  0
  7  1  1  0  0  0  0
  9 10  2  0  0  0  0
 10 13  1  0  0  0  0
 12  9  1  6  0  0  0
 12  3  1  0  0  0  0
 12 11  1  0  0  0  0
 13 11  2  0  0  0  0
 14 16  2  0  0  0  0
 15 19  2  0  0  0  0
 16 19  1  0  0  0  0
 17 15  1  0  0  0  0
 18 11  1  6  0  0  0
 18 14  1  0  0  0  0
 19 21  1  0  0  0  0
 20 18  1  0  0  0  0
 20 17  2  0  0  0  0
 21 22  1  0  0  0  0
 22 23  2  0  0  0  0
 25 24  1  6  0  0  0
 25 28  1  0  0  0  0
 26 27  2  0  0  0  0
 27 29  1  0  0  0  0
 28 27  1  0  0  0  0
 29 31  1  0  0  0  0
 31 33  1  0  0  0  0
 31 32  1  0  0  0  0
 32 30  1  0  0  0  0
 33 30  1  0  0  0  0
M  END
>  <MODEL>
4

>  <REMARK>
 VINA RESULT:      -8.1      2.853      7.002
  Name = 
  8 active torsions:
  status: ('A' for Active; 'I' for Inactive)
    1  A    between atoms: C_7  and  C_18
    2  A    between atoms: N_8  and  C_16
    3  A    between atoms: N_8  and  C_26
    4  A    between atoms: C_12  and  C_27
    5  A    between atoms: C_14  and  C_31
    6  A    between atoms: C_19  and  N_23
    7  A    between atoms: C_19  and  C_24
    8  A    between atoms: C_21  and  C_31
                            x       y       z     vdW  Elec       q    Type
                         _______ _______ _______ _____ _____    ______ ____

>  <TORSDO>
F 8

$$$$
=
 OpenBabel10222417583D

 33 36  0  0  1  0  0  0  0  0999 V2000
  184.7190  178.1890  144.3640 C   0  0  0  0  0  3  0  0  0  0  0  0
  187.9090  178.0660  143.5630 C   0  0  0  0  0  2  0  0  0  0  0  0
  187.4600  177.9440  142.1050 C   0  0  1  0  0  3  0  0  0  0  0  0
  184.8390  178.6050  143.1390 C   0  0  0  0  0  0  0  0  0  0  0  0
  186.6380  179.1590  141.6700 C   0  0  0  0  0  2  0  0  0  0  0  0
  185.1730  178.9560  141.9330 C   0  0  0  0  0  0  0  0  0  0  0  0
  185.9630  178.0700  145.1890 C   0  0  0  0  0  2  0  0  0  0  0  0
  187.0380  177.2230  144.4980 C   0  0  0  0  0  2  0  0  0  0  0  0
  188.5910  177.9790  139.9250 N   0  0  0  0  0  0  0  0  0  0  0  0
  189.9030  177.6720  139.3610 C   0  0  0  0  0  3  0  0  0  0  0  0
  189.9410  177.3030  141.6130 C   0  0  0  0  0  0  0  0  0  0  0  0
  188.6330  177.7710  141.1970 C   0  0  2  0  0  3  0  0  0  0  0  0
  190.7160  177.2410  140.5450 C   0  0  0  0  0  3  0  0  0  0  0  0
  190.9510  178.1790  143.6720 C   0  0  0  0  0  3  0  0  0  0  0  0
  191.6700  175.7420  145.3970 C   0  0  0  0  0  3  0  0  0  0  0  0
  191.3690  178.1730  144.9350 C   0  0  0  0  0  3  0  0  0  0  0  0
  191.9000  175.3390  144.0360 N   0  0  0  0  0  0  0  0  0  0  0  0
  190.3860  176.9720  143.0020 C   0  0  2  0  0  3  0  0  0  0  0  0
  191.3990  176.9860  145.8240 C   0  0  0  0  0  0  0  0  0  0  0  0
  191.3870  175.8640  142.9660 C   0  0  0  0  0  3  0  0  0  0  0  0
  191.2760  177.1720  147.2360 N   0  0  0  0  0  2  0  0  0  0  0  0
  190.0850  177.6510  147.8580 C   0  0  0  0  0  3  0  0  0  0  0  0
  188.9340  177.0320  147.6510 C   0  0  0  0  0  2  0  0  0  0  0  0
  184.6360  179.6500  139.7120 O   0  0  0  0  0  1  0  0  0  0  0  0
  184.1480  178.9700  140.8330 C   0  0  1  0  0  3  0  0  0  0  0  0
  181.5010  178.1880  139.9300 O   0  0  0  0  0  0  0  0  0  0  0  0
  182.4070  177.3120  139.9580 C   0  0  0  0  0  0  0  0  0  0  0  0
  183.7110  177.6240  140.4620 N   0  0  0  0  0  2  0  0  0  0  0  0
  182.1300  175.9560  139.4100 C   0  0  0  0  0  2  0  0  0  0  0  0
  179.7290  173.8780  139.3220 C   0  0  0  0  0  2  0  0  0  0  0  0
  180.6430  175.8120  139.1250 C   0  0  0  0  0  3  0  0  0  0  0  0
  180.4120  174.6320  138.2000 C   0  0  0  0  0  2  0  0  0  0  0  0
  179.9680  175.0540  140.2500 C   0  0  0  0  0  2  0  0  0  0  0  0
  1  7  1  0  0  0  0
  2  8  1  0  0  0  0
  3  5  1  6  0  0  0
  3  2  1  0  0  0  0
  4  1  2  0  0  0  0
  5  6  1  0  0  0  0
  6  4  2  0  0  0  0
  8  7  1  0  0  0  0
 10  9  2  0  0  0  0
 10 13  1  0  0  0  0
 12  9  1  6  0  0  0
 12 11  1  0  0  0  0
 12  3  1  0  0  0  0
 13 11  2  0  0  0  0
 14 16  2  0  0  0  0
 15 19  2  0  0  0  0
 16 19  1  0  0  0  0
 17 15  1  0  0  0  0
 18 11  1  6  0  0  0
 18 14  1  0  0  0  0
 19 21  1  0  0  0  0
 20 18  1  0  0  0  0
 20 17  2  0  0  0  0
 21 22  1  0  0  0  0
 23 22  2  0  0  0  0
 25 24  1  6  0  0  0
 25  6  1  0  0  0  0
 26 27  2  0  0  0  0
 27 28  1  0  0  0  0
 28 25  1  0  0  0  0
 29 27  1  0  0  0  0
 30 33  1  0  0  0  0
 31 29  1  0  0  0  0
 31 33  1  0  0  0  0
 32 31  1  0  0  0  0
 32 30  1  0  0  0  0
M  END
>  <MODEL>
5

>  <REMARK>
 VINA RESULT:      -8.0      3.110      8.112
  Name = 
  8 active torsions:
  status: ('A' for Active; 'I' for Inactive)
    1  A    between atoms: C_7  and  C_18
    2  A    between atoms: N_8  and  C_16
    3  A    between atoms: N_8  and  C_26
    4  A    between atoms: C_12  and  C_27
    5  A    between atoms: C_14  and  C_31
    6  A    between atoms: C_19  and  N_23
    7  A    between atoms: C_19  and  C_24
    8  A    between atoms: C_21  and  C_31
                            x       y       z     vdW  Elec       q    Type
                         _______ _______ _______ _____ _____    ______ ____

>  <TORSDO>
F 8

$$$$
=
 OpenBabel10222417583D

 33 36  0  0  1  0  0  0  0  0999 V2000
  185.1320  178.9120  146.0640 C   0  0  0  0  0  3  0  0  0  0  0  0
  184.3560  178.5920  142.8810 C   0  0  0  0  0  2  0  0  0  0  0  0
  185.8590  178.6180  142.5900 C   0  0  1  0  0  3  0  0  0  0  0  0
  186.1440  178.3660  145.4600 C   0  0  0  0  0  0  0  0  0  0  0  0
  186.5840  177.4680  143.2920 C   0  0  0  0  0  2  0  0  0  0  0  0
  187.0420  177.8610  144.6660 C   0  0  0  0  0  0  0  0  0  0  0  0
  183.8270  178.9700  145.3320 C   0  0  0  0  0  2  0  0  0  0  0  0
  183.9660  179.6170  143.9490 C   0  0  0  0  0  2  0  0  0  0  0  0
  187.2970  178.4480  140.6060 N   0  0  0  0  0  0  0  0  0  0  0  0
  187.1710  178.4730  139.1520 C   0  0  0  0  0  3  0  0  0  0  0  0
  185.1040  178.6920  140.0930 C   0  0  0  0  0  0  0  0  0  0  0  0
  186.1200  178.5660  141.1210 C   0  0  2  0  0  3  0  0  0  0  0  0
  185.6990  178.6340  138.9160 C   0  0  0  0  0  3  0  0  0  0  0  0
  182.9650  177.4960  140.2220 C   0  0  0  0  0  3  0  0  0  0  0  0
  180.7610  179.6320  140.1000 C   0  0  0  0  0  3  0  0  0  0  0  0
  181.6590  177.3290  140.4220 C   0  0  0  0  0  3  0  0  0  0  0  0
  181.8110  180.1040  139.2390 N   0  0  0  0  0  0  0  0  0  0  0  0
  183.6280  178.8300  140.2900 C   0  0  2  0  0  3  0  0  0  0  0  0
  180.6820  178.4170  140.6670 C   0  0  0  0  0  0  0  0  0  0  0  0
  183.0630  179.7600  139.2680 C   0  0  0  0  0  3  0  0  0  0  0  0
  179.5080  178.1370  141.4330 N   0  0  0  0  0  2  0  0  0  0  0  0
  179.3010  178.6380  142.7530 C   0  0  0  0  0  3  0  0  0  0  0  0
  180.2570  178.5270  143.6610 C   0  0  0  0  0  2  0  0  0  0  0  0
  188.7130  176.9480  146.1060 O   0  0  0  0  0  1  0  0  0  0  0  0
  188.4920  177.8540  145.0650 C   0  0  1  0  0  3  0  0  0  0  0  0
  191.3910  177.7030  145.1250 O   0  0  0  0  0  0  0  0  0  0  0  0
  190.8010  177.4340  144.0450 C   0  0  0  0  0  0  0  0  0  0  0  0
  189.3780  177.5620  143.9380 N   0  0  0  0  0  2  0  0  0  0  0  0
  191.5880  176.9270  142.8880 C   0  0  0  0  0  2  0  0  0  0  0  0
  191.3280  176.6940  139.7310 C   0  0  0  0  0  2  0  0  0  0  0  0
  191.2010  177.6880  141.6300 C   0  0  0  0  0  3  0  0  0  0  0  0
  192.2780  177.5160  140.5760 C   0  0  0  0  0  2  0  0  0  0  0  0
  190.2540  176.8580  140.7890 C   0  0  0  0  0  2  0  0  0  0  0  0
  2  8  1  0  0  0  0
  3  2  1  6  0  0  0
  3  5  1  0  0  0  0
  4  1  2  0  0  0  0
  5  6  1  0  0  0  0
  6 25  1  0  0  0  0
  6  4  2  0  0  0  0
  7  1  1  0  0  0  0
  8  7  1  0  0  0  0
  9 12  1  0  0  0  0
 10  9  2  0  0  0  0
 12 11  1  6  0  0  0
 12  3  1  0  0  0  0
 13 10  1  0  0  0  0
 13 11  2  0  0  0  0
 14 18  1  0  0  0  0
 14 16  2  0  0  0  0
 15 19  2  0  0  0  0
 16 19  1  0  0  0  0
 17 20  2  0  0  0  0
 17 15  1  0  0  0  0
 18 11  1  6  0  0  0
 19 21  1  0  0  0  0
 20 18  1  0  0  0  0
 21 22  1  0  0  0  0
 22 23  2  0  0  0  0
 25 24  1  1  0  0  0
 27 26  2  0  0  0  0
 28 27  1  0  0  0  0
 28 25  1  0  0  0  0
 29 27  1  0  0  0  0
 30 32  1  0  0  0  0
 30 33  1  0  0  0  0
 31 29  1  0  0  0  0
 32 31  1  0  0  0  0
 33 31  1  0  0  0  0
M  END
>  <MODEL>
6

>  <REMARK>
 VINA RESULT:      -8.0      2.818      5.184
  Name = 
  8 active torsions:
  status: ('A' for Active; 'I' for Inactive)
    1  A    between atoms: C_7  and  C_18
    2  A    between atoms: N_8  and  C_16
    3  A    between atoms: N_8  and  C_26
    4  A    between atoms: C_12  and  C_27
    5  A    between atoms: C_14  and  C_31
    6  A    between atoms: C_19  and  N_23
    7  A    between atoms: C_19  and  C_24
    8  A    between atoms: C_21  and  C_31
                            x       y       z     vdW  Elec       q    Type
                         _______ _______ _______ _____ _____    ______ ____

>  <TORSDO>
F 8

$$$$
=
 OpenBabel10222417583D

 33 36  0  0  1  0  0  0  0  0999 V2000
  191.9560  177.7300  142.2880 C   0  0  0  0  0  3  0  0  0  0  0  0
  188.8070  177.8780  143.2340 C   0  0  0  0  0  2  0  0  0  0  0  0
  188.4660  178.2260  141.7830 C   0  0  1  0  0  3  0  0  0  0  0  0
  191.2160  177.4960  141.2460 C   0  0  0  0  0  0  0  0  0  0  0  0
  188.8970  177.1120  140.8250 C   0  0  0  0  0  2  0  0  0  0  0  0
  190.3020  177.3170  140.3380 C   0  0  0  0  0  0  0  0  0  0  0  0
  191.3040  177.6900  143.6350 C   0  0  0  0  0  2  0  0  0  0  0  0
  190.0720  178.5990  143.7100 C   0  0  0  0  0  2  0  0  0  0  0  0
  186.4200  178.6300  140.4860 N   0  0  0  0  0  0  0  0  0  0  0  0
  185.0100  178.9250  140.7200 C   0  0  0  0  0  3  0  0  0  0  0  0
  186.0780  178.6950  142.7240 C   0  0  0  0  0  0  0  0  0  0  0  0
  187.0060  178.4960  141.6270 C   0  0  2  0  0  3  0  0  0  0  0  0
  184.8850  178.9440  142.2150 C   0  0  0  0  0  3  0  0  0  0  0  0
  186.5420  177.1830  144.6010 C   0  0  0  0  0  3  0  0  0  0  0  0
  186.3050  178.8670  147.1580 C   0  0  0  0  0  3  0  0  0  0  0  0
  186.8670  176.8270  145.8410 C   0  0  0  0  0  3  0  0  0  0  0  0
  185.3050  179.3780  146.2600 N   0  0  0  0  0  0  0  0  0  0  0  0
  186.3720  178.6060  144.1870 C   0  0  2  0  0  3  0  0  0  0  0  0
  187.0380  177.7560  146.9840 C   0  0  0  0  0  0  0  0  0  0  0  0
  185.2800  179.2620  144.9670 C   0  0  0  0  0  3  0  0  0  0  0  0
  187.9280  177.3970  148.0450 N   0  0  0  0  0  2  0  0  0  0  0  0
  189.3120  177.7410  148.0500 C   0  0  0  0  0  3  0  0  0  0  0  0
  190.1510  177.1240  147.2340 C   0  0  0  0  0  2  0  0  0  0  0  0
  191.5850  176.5560  138.4740 O   0  0  0  0  0  1  0  0  0  0  0  0
  190.6330  177.4950  138.8820 C   0  0  1  0  0  3  0  0  0  0  0  0
  189.0560  179.7250  137.8980 O   0  0  0  0  0  0  0  0  0  0  0  0
  188.7490  178.5630  137.5200 C   0  0  0  0  0  0  0  0  0  0  0  0
  189.4460  177.4200  138.0290 N   0  0  0  0  0  2  0  0  0  0  0  0
  187.6870  178.3850  136.4930 C   0  0  0  0  0  2  0  0  0  0  0  0
  184.9110  176.9280  135.9780 C   0  0  0  0  0  2  0  0  0  0  0  0
  186.8890  177.1250  136.7920 C   0  0  0  0  0  3  0  0  0  0  0  0
  185.4940  177.5000  137.2540 C   0  0  0  0  0  2  0  0  0  0  0  0
  186.3060  176.5610  135.5120 C   0  0  0  0  0  2  0  0  0  0  0  0
  1  7  1  0  0  0  0
  2  8  1  0  0  0  0
  3  5  1  6  0  0  0
  3  2  1  0  0  0  0
  4  1  2  0  0  0  0
  6  5  1  0  0  0  0
  6  4  2  0  0  0  0
  7  8  1  0  0  0  0
  9 10  2  0  0  0  0
 10 13  1  0  0  0  0
 12  9  1  6  0  0  0
 12  3  1  0  0  0  0
 12 11  1  0  0  0  0
 13 11  2  0  0  0  0
 14 16  2  0  0  0  0
 16 19  1  0  0  0  0
 17 15  1  0  0  0  0
 18 11  1  6  0  0  0
 18 14  1  0  0  0  0
 18 20  1  0  0  0  0
 19 15  2  0  0  0  0
 19 21  1  0  0  0  0
 20 17  2  0  0  0  0
 21 22  1  0  0  0  0
 23 22  2  0  0  0  0
 25 24  1  6  0  0  0
 25  6  1  0  0  0  0
 27 26  2  0  0  0  0
 27 28  1  0  0  0  0
 28 25  1  0  0  0  0
 29 31  1  0  0  0  0
 29 27  1  0  0  0  0
 30 32  1  0  0  0  0
 31 32  1  0  0  0  0
 33 30  1  0  0  0  0
 33 31  1  0  0  0  0
M  END
>  <MODEL>
7

>  <REMARK>
 VINA RESULT:      -7.8      2.750      8.540
  Name = 
  8 active torsions:
  status: ('A' for Active; 'I' for Inactive)
    1  A    between atoms: C_7  and  C_18
    2  A    between atoms: N_8  and  C_16
    3  A    between atoms: N_8  and  C_26
    4  A    between atoms: C_12  and  C_27
    5  A    between atoms: C_14  and  C_31
    6  A    between atoms: C_19  and  N_23
    7  A    between atoms: C_19  and  C_24
    8  A    between atoms: C_21  and  C_31
                            x       y       z     vdW  Elec       q    Type
                         _______ _______ _______ _____ _____    ______ ____

>  <TORSDO>
F 8

$$$$
=
 OpenBabel10222417583D

 33 36  0  0  1  0  0  0  0  0999 V2000
  191.5070  177.1290  141.9740 C   0  0  0  0  0  3  0  0  0  0  0  0
  189.8120  178.0930  139.3230 C   0  0  0  0  0  2  0  0  0  0  0  0
  188.5410  177.7470  140.1030 C   0  0  1  0  0  3  0  0  0  0  0  0
  190.3250  177.4970  142.3680 C   0  0  0  0  0  0  0  0  0  0  0  0
  188.4320  178.5720  141.3880 C   0  0  0  0  0  2  0  0  0  0  0  0
  189.0950  177.8810  142.5440 C   0  0  0  0  0  0  0  0  0  0  0  0
  191.9280  177.4970  140.5850 C   0  0  0  0  0  2  0  0  0  0  0  0
  190.9100  177.0470  139.5320 C   0  0  0  0  0  2  0  0  0  0  0  0
  186.2970  178.6330  139.6400 N   0  0  0  0  0  0  0  0  0  0  0  0
  185.2920  178.5830  138.5830 C   0  0  0  0  0  3  0  0  0  0  0  0
  187.1200  177.3740  137.9470 C   0  0  0  0  0  0  0  0  0  0  0  0
  187.3250  177.9510  139.2610 C   0  0  2  0  0  3  0  0  0  0  0  0
  185.9250  177.7370  137.5180 C   0  0  0  0  0  3  0  0  0  0  0  0
  188.6490  177.3190  136.0280 C   0  0  0  0  0  3  0  0  0  0  0  0
  189.3880  174.3710  135.5840 C   0  0  0  0  0  3  0  0  0  0  0  0
  189.5730  176.8280  135.2060 C   0  0  0  0  0  3  0  0  0  0  0  0
  188.0150  174.3690  136.0130 N   0  0  0  0  0  0  0  0  0  0  0  0
  188.0810  176.5370  137.1640 C   0  0  2  0  0  3  0  0  0  0  0  0
  190.1170  175.4490  135.2500 C   0  0  0  0  0  0  0  0  0  0  0  0
  187.4000  175.3020  136.6750 C   0  0  0  0  0  3  0  0  0  0  0  0
  191.4460  175.2090  134.7810 N   0  0  0  0  0  2  0  0  0  0  0  0
  192.6080  175.6880  135.4560 C   0  0  0  0  0  3  0  0  0  0  0  0
  192.7450  175.4940  136.7580 C   0  0  0  0  0  2  0  0  0  0  0  0
  187.3770  176.5120  143.4780 O   0  0  0  0  0  1  0  0  0  0  0  0
  188.3420  177.4780  143.7810 C   0  0  1  0  0  3  0  0  0  0  0  0
  188.0580  177.9500  146.6320 O   0  0  0  0  0  0  0  0  0  0  0  0
  188.9980  177.2070  146.2390 C   0  0  0  0  0  0  0  0  0  0  0  0
  189.2280  176.9980  144.8410 N   0  0  0  0  0  2  0  0  0  0  0  0
  189.8390  176.5000  147.2430 C   0  0  0  0  0  2  0  0  0  0  0  0
  192.8030  175.6260  147.9810 C   0  0  0  0  0  2  0  0  0  0  0  0
  191.3070  176.8050  146.9880 C   0  0  0  0  0  3  0  0  0  0  0  0
  192.0470  176.8970  148.3090 C   0  0  0  0  0  2  0  0  0  0  0  0
  192.0560  175.5280  146.6650 C   0  0  0  0  0  2  0  0  0  0  0  0
  1  4  2  0  0  0  0
  2  8  1  0  0  0  0
  3  2  1  6  0  0  0
  3  5  1  0  0  0  0
  4  6  2  0  0  0  0
  5  6  1  0  0  0  0
  6 25  1  0  0  0  0
  7  1  1  0  0  0  0
  8  7  1  0  0  0  0
 10  9  2  0  0  0  0
 12 11  1  1  0  0  0
 12  9  1  0  0  0  0
 12  3  1  0  0  0  0
 13 11  2  0  0  0  0
 13 10  1  0  0  0  0
 14 18  1  0  0  0  0
 15 17  1  0  0  0  0
 16 19  1  0  0  0  0
 16 14  2  0  0  0  0
 17 20  2  0  0  0  0
 18 11  1  6  0  0  0
 19 15  2  0  0  0  0
 20 18  1  0  0  0  0
 21 19  1  0  0  0  0
 21 22  1  0  0  0  0
 22 23  2  0  0  0  0
 25 24  1  6  0  0  0
 25 28  1  0  0  0  0
 27 26  2  0  0  0  0
 27 29  1  0  0  0  0
 28 27  1  0  0  0  0
 30 32  1  0  0  0  0
 31 29  1  0  0  0  0
 31 32  1  0  0  0  0
 33 31  1  0  0  0  0
 33 30  1  0  0  0  0
M  END
>  <MODEL>
8

>  <REMARK>
 VINA RESULT:      -7.8      2.308      4.507
  Name = 
  8 active torsions:
  status: ('A' for Active; 'I' for Inactive)
    1  A    between atoms: C_7  and  C_18
    2  A    between atoms: N_8  and  C_16
    3  A    between atoms: N_8  and  C_26
    4  A    between atoms: C_12  and  C_27
    5  A    between atoms: C_14  and  C_31
    6  A    between atoms: C_19  and  N_23
    7  A    between atoms: C_19  and  C_24
    8  A    between atoms: C_21  and  C_31
                            x       y       z     vdW  Elec       q    Type
                         _______ _______ _______ _____ _____    ______ ____

>  <TORSDO>
F 8

$$$$
=
 OpenBabel10222417583D

 33 36  0  0  1  0  0  0  0  0999 V2000
  184.5200  178.2550  144.0700 C   0  0  0  0  0  3  0  0  0  0  0  0
  187.7540  178.0590  143.4910 C   0  0  0  0  0  2  0  0  0  0  0  0
  187.4020  177.9030  142.0090 C   0  0  1  0  0  3  0  0  0  0  0  0
  184.7290  178.6340  142.8440 C   0  0  0  0  0  0  0  0  0  0  0  0
  186.6320  179.1190  141.4870 C   0  0  0  0  0  2  0  0  0  0  0  0
  185.1510  178.9460  141.6550 C   0  0  0  0  0  0  0  0  0  0  0  0
  185.7030  178.1390  144.9800 C   0  0  0  0  0  2  0  0  0  0  0  0
  186.8070  177.2560  144.3870 C   0  0  0  0  0  2  0  0  0  0  0  0
  188.6710  177.8330  139.9070 N   0  0  0  0  0  0  0  0  0  0  0  0
  190.0150  177.4990  139.4450 C   0  0  0  0  0  3  0  0  0  0  0  0
  189.9080  177.2380  141.7090 C   0  0  0  0  0  0  0  0  0  0  0  0
  188.6310  177.6860  141.1880 C   0  0  2  0  0  3  0  0  0  0  0  0
  190.7490  177.1240  140.6980 C   0  0  0  0  0  3  0  0  0  0  0  0
  190.6580  178.2370  143.8210 C   0  0  0  0  0  3  0  0  0  0  0  0
  191.4410  175.9070  145.6620 C   0  0  0  0  0  3  0  0  0  0  0  0
  190.9670  178.2910  145.1150 C   0  0  0  0  0  3  0  0  0  0  0  0
  191.8200  175.5010  144.3350 N   0  0  0  0  0  0  0  0  0  0  0  0
  190.2610  176.9720  143.1380 C   0  0  2  0  0  3  0  0  0  0  0  0
  191.0260  177.1290  146.0330 C   0  0  0  0  0  0  0  0  0  0  0  0
  191.3540  175.9590  143.2130 C   0  0  0  0  0  3  0  0  0  0  0  0
  190.7690  177.3280  147.4250 N   0  0  0  0  0  2  0  0  0  0  0  0
  189.5320  177.8340  147.9230 C   0  0  0  0  0  3  0  0  0  0  0  0
  188.4090  177.1660  147.7140 C   0  0  0  0  0  2  0  0  0  0  0  0
  184.6660  179.7890  139.4740 O   0  0  0  0  0  1  0  0  0  0  0  0
  184.2020  178.9450  140.4880 C   0  0  1  0  0  3  0  0  0  0  0  0
  181.6520  177.5660  140.3190 O   0  0  0  0  0  0  0  0  0  0  0  0
  182.6720  176.9980  139.8430 C   0  0  0  0  0  0  0  0  0  0  0  0
  183.9670  177.6000  139.9630 N   0  0  0  0  0  2  0  0  0  0  0  0
  182.5170  175.7170  139.1030 C   0  0  0  0  0  2  0  0  0  0  0  0
  183.0680  174.2930  136.3170 C   0  0  0  0  0  2  0  0  0  0  0  0
  183.4330  175.7110  137.8890 C   0  0  0  0  0  3  0  0  0  0  0  0
  183.8820  174.2920  137.5940 C   0  0  0  0  0  2  0  0  0  0  0  0
  182.6110  175.7080  136.6160 C   0  0  0  0  0  2  0  0  0  0  0  0
  1  7  1  0  0  0  0
  2  8  1  0  0  0  0
  3  5  1  6  0  0  0
  3  2  1  0  0  0  0
  4  1  2  0  0  0  0
  5  6  1  0  0  0  0
  6  4  2  0  0  0  0
  8  7  1  0  0  0  0
 10  9  2  0  0  0  0
 10 13  1  0  0  0  0
 12  9  1  6  0  0  0
 12 11  1  0  0  0  0
 12  3  1  0  0  0  0
 13 11  2  0  0  0  0
 14 16  2  0  0  0  0
 15 19  2  0  0  0  0
 16 19  1  0  0  0  0
 17 15  1  0  0  0  0
 18 11  1  6  0  0  0
 18 20  1  0  0  0  0
 18 14  1  0  0  0  0
 19 21  1  0  0  0  0
 20 17  2  0  0  0  0
 21 22  1  0  0  0  0
 23 22  2  0  0  0  0
 25 24  1  6  0  0  0
 25  6  1  0  0  0  0
 27 28  1  0  0  0  0
 27 26  2  0  0  0  0
 28 25  1  0  0  0  0
 29 27  1  0  0  0  0
 30 33  1  0  0  0  0
 30 32  1  0  0  0  0
 31 29  1  0  0  0  0
 32 31  1  0  0  0  0
 33 31  1  0  0  0  0
M  END
>  <MODEL>
9

>  <REMARK>
 VINA RESULT:      -7.8      2.764      7.900
  Name = 
  8 active torsions:
  status: ('A' for Active; 'I' for Inactive)
    1  A    between atoms: C_7  and  C_18
    2  A    between atoms: N_8  and  C_16
    3  A    between atoms: N_8  and  C_26
    4  A    between atoms: C_12  and  C_27
    5  A    between atoms: C_14  and  C_31
    6  A    between atoms: C_19  and  N_23
    7  A    between atoms: C_19  and  C_24
    8  A    between atoms: C_21  and  C_31
                            x       y       z     vdW  Elec       q    Type
                         _______ _______ _______ _____ _____    ______ ____

>  <TORSDO>
F 8

$$$$
