=
 OpenBabel10222415303D

 31 33  0  0  1  0  0  0  0  0999 V2000
  186.6390  177.6900  143.5280 N   0  0  0  0  0  0  0  0  0  0  0  0
  185.2050  179.2860  142.5840 O   0  0  0  0  0  0  0  0  0  0  0  0
  185.6530  178.7330  143.6260 C   0  0  0  0  0  0  0  0  0  0  0  0
  185.1200  179.1570  144.9550 C   0  0  0  0  0  2  0  0  0  0  0  0
  183.6150  178.9670  144.9920 C   0  0  0  0  0  1  0  0  0  0  0  0
  187.0450  176.9900  144.6760 N   0  0  0  0  0  2  0  0  0  0  0  0
  188.4420  176.8740  144.6180 N   0  0  0  0  0  2  0  0  0  0  0  0
  190.1290  178.6220  144.3790 C   0  0  0  0  0  2  0  0  0  0  0  0
  190.7160  176.8210  146.6170 C   0  0  0  0  0  0  0  0  0  0  0  0
  191.3290  177.7170  144.3730 C   0  0  0  0  0  0  0  0  0  0  0  0
  189.0040  178.0600  145.2500 C   0  0  2  0  0  3  0  0  0  0  0  0
  189.5240  177.7460  146.6660 C   0  0  1  0  0  3  0  0  0  0  0  0
  192.1280  177.7460  143.4020 O   0  0  0  0  0  0  0  0  0  0  0  0
  190.9900  176.0660  147.5910 O   0  0  0  0  0  0  0  0  0  0  0  0
  191.5930  176.8570  145.4860 N   0  0  0  0  0  2  0  0  0  0  0  0
  188.4440  177.9770  148.8900 C   0  0  0  0  0  2  0  0  0  0  0  0
  188.4120  177.2220  147.5750 C   0  0  0  0  0  3  0  0  0  0  0  0
  187.4050  178.3250  147.8480 C   0  0  0  0  0  2  0  0  0  0  0  0
  187.1300  177.2370  142.2300 C   0  0  0  0  0  2  0  0  0  0  0  0
  187.9920  178.3050  141.5610 C   0  0  0  0  0  2  0  0  0  0  0  0
  187.7590  178.7180  138.7240 F   0  0  0  0  0  0  0  0  0  0  0  0
  188.9250  177.7080  140.5600 C   0  0  0  0  0  0  0  0  0  0  0  0
  189.9720  176.8910  140.9970 C   0  0  0  0  0  2  0  0  0  0  0  0
  190.6870  176.5300  138.7550 C   0  0  0  0  0  0  0  0  0  0  0  0
  189.6440  177.3370  138.2810 C   0  0  0  0  0  2  0  0  0  0  0  0
  188.7640  177.9310  139.1870 C   0  0  0  0  0  0  0  0  0  0  0  0
  190.8210  176.3270  140.0960 N   0  0  0  0  0  0  0  0  0  0  0  0
  193.8310  175.5060  136.7100 C   0  0  0  0  0  1  0  0  0  0  0  0
  193.5770  177.0350  138.5060 O   0  0  0  0  0  0  0  0  0  0  0  0
  191.6210  175.9060  137.8580 N   0  0  0  0  0  2  0  0  0  0  0  0
  193.0180  176.2070  137.7390 C   0  0  0  0  0  0  0  0  0  0  0  0
  1  3  1  0  0  0  0
  1  6  1  0  0  0  0
  2  3  2  0  0  0  0
  3  4  1  0  0  0  0
  4  5  1  0  0  0  0
  7  6  1  0  0  0  0
  8 11  1  0  0  0  0
  9 12  1  0  0  0  0
  9 14  2  0  0  0  0
 10  8  1  0  0  0  0
 10 15  1  0  0  0  0
 11  7  1  6  0  0  0
 11 12  1  0  0  0  0
 12 17  1  1  0  0  0
 13 10  2  0  0  0  0
 15  9  1  0  0  0  0
 17 18  1  0  0  0  0
 17 16  1  0  0  0  0
 18 16  1  0  0  0  0
 19  1  1  0  0  0  0
 20 19  1  0  0  0  0
 21 26  1  0  0  0  0
 22 23  1  0  0  0  0
 22 20  1  0  0  0  0
 24 27  2  0  0  0  0
 25 24  1  0  0  0  0
 25 26  1  0  0  0  0
 26 22  2  0  0  0  0
 27 23  1  0  0  0  0
 28 31  1  0  0  0  0
 30 24  1  0  0  0  0
 31 30  1  0  0  0  0
 31 29  2  0  0  0  0
M  END
>  <MODEL>
1

>  <REMARK>
 VINA RESULT:      -8.3      0.000      0.000
  Name = 
  9 active torsions:
  status: ('A' for Active; 'I' for Inactive)
    1  A    between atoms: N_2  and  N_3
    2  A    between atoms: N_2  and  N_9
    3  A    between atoms: N_3  and  C_15
    4  A    between atoms: C_7  and  C_27
    5  A    between atoms: N_9  and  C_25
    6  A    between atoms: C_10  and  C_14
    7  A    between atoms: C_14  and  C_25
    8  A    between atoms: N_17  and  C_19
    9  A    between atoms: C_18  and  C_26
                            x       y       z     vdW  Elec       q    Type
                         _______ _______ _______ _____ _____    ______ ____

>  <TORSDO>
F 9

$$$$
=
 OpenBabel10222415303D

 31 33  0  0  1  0  0  0  0  0999 V2000
  188.0310  177.2480  142.1990 N   0  0  0  0  0  0  0  0  0  0  0  0
  187.8570  178.7460  140.4030 O   0  0  0  0  0  0  0  0  0  0  0  0
  187.3670  178.3030  141.4780 C   0  0  0  0  0  0  0  0  0  0  0  0
  186.0750  178.8670  141.9700 C   0  0  0  0  0  2  0  0  0  0  0  0
  185.0880  178.9710  140.8230 C   0  0  0  0  0  1  0  0  0  0  0  0
  187.4250  176.6700  143.3250 N   0  0  0  0  0  2  0  0  0  0  0  0
  188.4110  176.5630  144.3170 N   0  0  0  0  0  2  0  0  0  0  0  0
  190.0830  178.2000  145.0120 C   0  0  0  0  0  2  0  0  0  0  0  0
  188.5970  177.1050  147.2910 C   0  0  0  0  0  0  0  0  0  0  0  0
  190.7490  177.3470  146.0560 C   0  0  0  0  0  0  0  0  0  0  0  0
  188.5900  177.8870  144.8980 C   0  0  2  0  0  3  0  0  0  0  0  0
  187.9110  177.9890  146.2770 C   0  0  1  0  0  3  0  0  0  0  0  0
  191.9830  177.1160  145.9790 O   0  0  0  0  0  0  0  0  0  0  0  0
  187.9690  176.6570  148.2900 O   0  0  0  0  0  0  0  0  0  0  0  0
  189.9980  176.8370  147.1620 N   0  0  0  0  0  2  0  0  0  0  0  0
  185.6800  178.6610  147.1330 C   0  0  0  0  0  2  0  0  0  0  0  0
  186.4080  177.7230  146.1900 C   0  0  0  0  0  3  0  0  0  0  0  0
  185.6970  178.9510  145.6490 C   0  0  0  0  0  2  0  0  0  0  0  0
  189.2700  176.6590  141.6990 C   0  0  0  0  0  2  0  0  0  0  0  0
  190.3190  177.7320  141.4170 C   0  0  0  0  0  2  0  0  0  0  0  0
  189.4600  176.5230  138.9530 F   0  0  0  0  0  0  0  0  0  0  0  0
  191.2560  177.3100  140.3330 C   0  0  0  0  0  0  0  0  0  0  0  0
  192.6310  177.4920  140.5030 C   0  0  0  0  0  2  0  0  0  0  0  0
  193.0690  176.5200  138.3740 C   0  0  0  0  0  0  0  0  0  0  0  0
  191.6980  176.3150  138.1740 C   0  0  0  0  0  2  0  0  0  0  0  0
  190.7880  176.7160  139.1540 C   0  0  0  0  0  0  0  0  0  0  0  0
  193.4980  177.0990  139.5310 N   0  0  0  0  0  0  0  0  0  0  0  0
  195.6340  174.6040  136.1690 C   0  0  0  0  0  1  0  0  0  0  0  0
  194.1840  173.8390  137.8840 O   0  0  0  0  0  0  0  0  0  0  0  0
  194.0380  176.1310  137.3870 N   0  0  0  0  0  2  0  0  0  0  0  0
  194.5880  174.8190  137.2040 C   0  0  0  0  0  0  0  0  0  0  0  0
  1  6  1  0  0  0  0
  2  3  2  0  0  0  0
  3  4  1  0  0  0  0
  3  1  1  0  0  0  0
  5  4  1  0  0  0  0
  6  7  1  0  0  0  0
  8 10  1  0  0  0  0
  9 14  2  0  0  0  0
 10 15  1  0  0  0  0
 11  7  1  1  0  0  0
 11  8  1  0  0  0  0
 11 12  1  0  0  0  0
 12 17  1  6  0  0  0
 12  9  1  0  0  0  0
 13 10  2  0  0  0  0
 15  9  1  0  0  0  0
 17 16  1  0  0  0  0
 18 17  1  0  0  0  0
 18 16  1  0  0  0  0
 19  1  1  0  0  0  0
 20 19  1  0  0  0  0
 21 26  1  0  0  0  0
 22 23  1  0  0  0  0
 22 20  1  0  0  0  0
 24 27  2  0  0  0  0
 25 24  1  0  0  0  0
 25 26  1  0  0  0  0
 26 22  2  0  0  0  0
 27 23  1  0  0  0  0
 28 31  1  0  0  0  0
 30 24  1  0  0  0  0
 31 30  1  0  0  0  0
 31 29  2  0  0  0  0
M  END
>  <MODEL>
2

>  <REMARK>
 VINA RESULT:      -8.0      1.920      2.529
  Name = 
  9 active torsions:
  status: ('A' for Active; 'I' for Inactive)
    1  A    between atoms: N_2  and  N_3
    2  A    between atoms: N_2  and  N_9
    3  A    between atoms: N_3  and  C_15
    4  A    between atoms: C_7  and  C_27
    5  A    between atoms: N_9  and  C_25
    6  A    between atoms: C_10  and  C_14
    7  A    between atoms: C_14  and  C_25
    8  A    between atoms: N_17  and  C_19
    9  A    between atoms: C_18  and  C_26
                            x       y       z     vdW  Elec       q    Type
                         _______ _______ _______ _____ _____    ______ ____

>  <TORSDO>
F 9

$$$$
=
 OpenBabel10222415303D

 31 33  0  0  1  0  0  0  0  0999 V2000
  187.2300  177.9520  145.1560 N   0  0  0  0  0  0  0  0  0  0  0  0
  185.8050  177.6300  146.9910 O   0  0  0  0  0  0  0  0  0  0  0  0
  186.9190  178.0340  146.5590 C   0  0  0  0  0  0  0  0  0  0  0  0
  187.9190  178.5670  147.5320 C   0  0  0  0  0  2  0  0  0  0  0  0
  188.1670  177.5480  148.6280 C   0  0  0  0  0  1  0  0  0  0  0  0
  188.5130  178.2850  144.6940 N   0  0  0  0  0  2  0  0  0  0  0  0
  189.3580  177.2110  145.0120 N   0  0  0  0  0  2  0  0  0  0  0  0
  191.1430  178.4230  143.8700 C   0  0  0  0  0  2  0  0  0  0  0  0
  191.8900  175.6470  144.4520 C   0  0  0  0  0  0  0  0  0  0  0  0
  191.3730  177.4180  142.7750 C   0  0  0  0  0  0  0  0  0  0  0  0
  190.7030  177.7470  145.1700 C   0  0  2  0  0  3  0  0  0  0  0  0
  191.7020  176.6440  145.5690 C   0  0  1  0  0  3  0  0  0  0  0  0
  191.2770  177.7730  141.5720 O   0  0  0  0  0  0  0  0  0  0  0  0
  192.2420  174.4600  144.6950 O   0  0  0  0  0  0  0  0  0  0  0  0
  191.7480  176.0740  143.0920 N   0  0  0  0  0  2  0  0  0  0  0  0
  192.5700  175.6290  147.6620 C   0  0  0  0  0  2  0  0  0  0  0  0
  191.3120  175.9780  146.8890 C   0  0  0  0  0  3  0  0  0  0  0  0
  191.7580  176.8430  148.0550 C   0  0  0  0  0  2  0  0  0  0  0  0
  186.2760  177.3880  144.2060 C   0  0  0  0  0  2  0  0  0  0  0  0
  185.3670  178.4700  143.6250 C   0  0  0  0  0  2  0  0  0  0  0  0
  183.0930  178.3410  141.8680 F   0  0  0  0  0  0  0  0  0  0  0  0
  185.4690  178.5290  142.1360 C   0  0  0  0  0  0  0  0  0  0  0  0
  186.7270  178.6430  141.5370 C   0  0  0  0  0  2  0  0  0  0  0  0
  185.7460  178.6110  139.3680 C   0  0  0  0  0  0  0  0  0  0  0  0
  184.4710  178.4890  139.9350 C   0  0  0  0  0  2  0  0  0  0  0  0
  184.3320  178.4520  141.3230 C   0  0  0  0  0  0  0  0  0  0  0  0
  186.8370  178.6820  140.1820 N   0  0  0  0  0  0  0  0  0  0  0  0
  186.8310  177.9730  135.6900 C   0  0  0  0  0  1  0  0  0  0  0  0
  187.2090  176.7080  137.6610 O   0  0  0  0  0  0  0  0  0  0  0  0
  185.9330  178.6620  137.9440 N   0  0  0  0  0  2  0  0  0  0  0  0
  186.6880  177.7350  137.1500 C   0  0  0  0  0  0  0  0  0  0  0  0
  1  3  1  0  0  0  0
  3  2  2  0  0  0  0
  3  4  1  0  0  0  0
  4  5  1  0  0  0  0
  6  7  1  0  0  0  0
  6  1  1  0  0  0  0
  8 11  1  0  0  0  0
  9 14  2  0  0  0  0
  9 12  1  0  0  0  0
 10 15  1  0  0  0  0
 10  8  1  0  0  0  0
 11  7  1  6  0  0  0
 11 12  1  0  0  0  0
 12 17  1  1  0  0  0
 13 10  2  0  0  0  0
 15  9  1  0  0  0  0
 16 18  1  0  0  0  0
 17 16  1  0  0  0  0
 17 18  1  0  0  0  0
 19  1  1  0  0  0  0
 20 19  1  0  0  0  0
 22 20  1  0  0  0  0
 23 22  1  0  0  0  0
 24 25  1  0  0  0  0
 24 27  2  0  0  0  0
 25 26  1  0  0  0  0
 26 21  1  0  0  0  0
 26 22  2  0  0  0  0
 27 23  1  0  0  0  0
 28 31  1  0  0  0  0
 30 24  1  0  0  0  0
 31 29  2  0  0  0  0
 31 30  1  0  0  0  0
M  END
>  <MODEL>
3

>  <REMARK>
 VINA RESULT:      -7.8      3.018      4.231
  Name = 
  9 active torsions:
  status: ('A' for Active; 'I' for Inactive)
    1  A    between atoms: N_2  and  N_3
    2  A    between atoms: N_2  and  N_9
    3  A    between atoms: N_3  and  C_15
    4  A    between atoms: C_7  and  C_27
    5  A    between atoms: N_9  and  C_25
    6  A    between atoms: C_10  and  C_14
    7  A    between atoms: C_14  and  C_25
    8  A    between atoms: N_17  and  C_19
    9  A    between atoms: C_18  and  C_26
                            x       y       z     vdW  Elec       q    Type
                         _______ _______ _______ _____ _____    ______ ____

>  <TORSDO>
F 9

$$$$
=
 OpenBabel10222415303D

 31 33  0  0  1  0  0  0  0  0999 V2000
  190.4500  176.9920  144.2190 N   0  0  0  0  0  0  0  0  0  0  0  0
  191.9960  175.2420  144.4330 O   0  0  0  0  0  0  0  0  0  0  0  0
  191.4490  176.2550  144.9490 C   0  0  0  0  0  0  0  0  0  0  0  0
  191.8760  176.6930  146.3100 C   0  0  0  0  0  2  0  0  0  0  0  0
  192.2530  175.4840  147.1470 C   0  0  0  0  0  1  0  0  0  0  0  0
  189.9320  178.1880  144.7400 N   0  0  0  0  0  2  0  0  0  0  0  0
  188.6240  178.3200  144.2520 N   0  0  0  0  0  2  0  0  0  0  0  0
  186.7560  176.8080  143.8250 C   0  0  0  0  0  2  0  0  0  0  0  0
  186.1560  178.7270  145.9590 C   0  0  0  0  0  0  0  0  0  0  0  0
  185.6990  177.8640  143.6650 C   0  0  0  0  0  0  0  0  0  0  0  0
  187.8350  177.2360  144.8220 C   0  0  2  0  0  3  0  0  0  0  0  0
  187.1970  177.6520  146.1610 C   0  0  1  0  0  3  0  0  0  0  0  0
  185.0250  177.9180  142.6040 O   0  0  0  0  0  0  0  0  0  0  0  0
  185.8720  179.5360  146.8860 O   0  0  0  0  0  0  0  0  0  0  0  0
  185.4230  178.7790  144.7300 N   0  0  0  0  0  2  0  0  0  0  0  0
  187.7430  177.7100  148.5820 C   0  0  0  0  0  2  0  0  0  0  0  0
  188.2530  178.0460  147.1930 C   0  0  0  0  0  3  0  0  0  0  0  0
  188.7570  176.8080  147.9140 C   0  0  0  0  0  2  0  0  0  0  0  0
  190.0620  176.5990  142.8680 C   0  0  0  0  0  2  0  0  0  0  0  0
  190.6320  177.5590  141.8260 C   0  0  0  0  0  2  0  0  0  0  0  0
  188.1980  178.9360  141.1520 F   0  0  0  0  0  0  0  0  0  0  0  0
  189.9380  177.4150  140.5110 C   0  0  0  0  0  0  0  0  0  0  0  0
  190.4740  176.5630  139.5410 C   0  0  0  0  0  2  0  0  0  0  0  0
  188.6880  177.0660  138.0490 C   0  0  0  0  0  0  0  0  0  0  0  0
  188.1190  177.9220  139.0020 C   0  0  0  0  0  2  0  0  0  0  0  0
  188.7490  178.1000  140.2350 C   0  0  0  0  0  0  0  0  0  0  0  0
  189.8450  176.4100  138.3450 N   0  0  0  0  0  0  0  0  0  0  0  0
  186.7470  175.6670  134.9850 C   0  0  0  0  0  1  0  0  0  0  0  0
  186.9120  174.8700  137.2130 O   0  0  0  0  0  0  0  0  0  0  0  0
  188.0780  176.8610  136.7650 N   0  0  0  0  0  2  0  0  0  0  0  0
  187.2480  175.7550  136.3820 C   0  0  0  0  0  0  0  0  0  0  0  0
  1  6  1  0  0  0  0
  1  3  1  0  0  0  0
  2  3  2  0  0  0  0
  3  4  1  0  0  0  0
  4  5  1  0  0  0  0
  7  6  1  0  0  0  0
  8 11  1  0  0  0  0
  9 12  1  0  0  0  0
  9 14  2  0  0  0  0
 10  8  1  0  0  0  0
 10 15  1  0  0  0  0
 11  7  1  6  0  0  0
 11 12  1  0  0  0  0
 12 17  1  1  0  0  0
 13 10  2  0  0  0  0
 15  9  1  0  0  0  0
 17 18  1  0  0  0  0
 17 16  1  0  0  0  0
 18 16  1  0  0  0  0
 19  1  1  0  0  0  0
 20 19  1  0  0  0  0
 22 20  1  0  0  0  0
 23 22  1  0  0  0  0
 24 27  2  0  0  0  0
 24 25  1  0  0  0  0
 25 26  1  0  0  0  0
 26 22  2  0  0  0  0
 26 21  1  0  0  0  0
 27 23  1  0  0  0  0
 28 31  1  0  0  0  0
 30 24  1  0  0  0  0
 31 30  1  0  0  0  0
 31 29  2  0  0  0  0
M  END
>  <MODEL>
4

>  <REMARK>
 VINA RESULT:      -7.6      2.413      4.723
  Name = 
  9 active torsions:
  status: ('A' for Active; 'I' for Inactive)
    1  A    between atoms: N_2  and  N_3
    2  A    between atoms: N_2  and  N_9
    3  A    between atoms: N_3  and  C_15
    4  A    between atoms: C_7  and  C_27
    5  A    between atoms: N_9  and  C_25
    6  A    between atoms: C_10  and  C_14
    7  A    between atoms: C_14  and  C_25
    8  A    between atoms: N_17  and  C_19
    9  A    between atoms: C_18  and  C_26
                            x       y       z     vdW  Elec       q    Type
                         _______ _______ _______ _____ _____    ______ ____

>  <TORSDO>
F 9

$$$$
=
 OpenBabel10222415303D

 31 33  0  0  1  0  0  0  0  0999 V2000
  185.9330  178.6810  140.3590 N   0  0  0  0  0  0  0  0  0  0  0  0
  183.6980  178.9810  141.0060 O   0  0  0  0  0  0  0  0  0  0  0  0
  184.5210  178.7290  140.0830 C   0  0  0  0  0  0  0  0  0  0  0  0
  184.0070  178.5140  138.6970 C   0  0  0  0  0  2  0  0  0  0  0  0
  183.3940  177.1320  138.5820 C   0  0  0  0  0  1  0  0  0  0  0  0
  186.8540  178.5250  139.3120 N   0  0  0  0  0  2  0  0  0  0  0  0
  187.9190  177.7590  139.8080 N   0  0  0  0  0  2  0  0  0  0  0  0
  189.0410  178.9900  138.0240 C   0  0  0  0  0  2  0  0  0  0  0  0
  190.3120  176.3990  138.5460 C   0  0  0  0  0  0  0  0  0  0  0  0
  189.0320  177.8840  137.0070 C   0  0  0  0  0  0  0  0  0  0  0  0
  189.1540  178.4430  139.4490 C   0  0  2  0  0  3  0  0  0  0  0  0
  190.3690  177.5040  139.5720 C   0  0  1  0  0  3  0  0  0  0  0  0
  188.4950  178.0730  135.8840 O   0  0  0  0  0  0  0  0  0  0  0  0
  190.8840  175.2930  138.7520 O   0  0  0  0  0  0  0  0  0  0  0  0
  189.6710  176.6350  137.2870 N   0  0  0  0  0  2  0  0  0  0  0  0
  191.9770  177.1460  141.4290 C   0  0  0  0  0  2  0  0  0  0  0  0
  190.5340  176.9740  140.9960 C   0  0  0  0  0  3  0  0  0  0  0  0
  190.9220  178.1080  141.9280 C   0  0  0  0  0  2  0  0  0  0  0  0
  186.4460  178.9380  141.7020 C   0  0  0  0  0  2  0  0  0  0  0  0
  185.8580  177.9580  142.7150 C   0  0  0  0  0  2  0  0  0  0  0  0
  185.5160  178.8420  145.4310 F   0  0  0  0  0  0  0  0  0  0  0  0
  186.8280  177.6560  143.8110 C   0  0  0  0  0  0  0  0  0  0  0  0
  187.9780  176.9140  143.5260 C   0  0  0  0  0  3  0  0  0  0  0  0
  188.7000  177.0820  145.7890 C   0  0  0  0  0  0  0  0  0  0  0  0
  187.5620  177.8340  146.1080 C   0  0  0  0  0  3  0  0  0  0  0  0
  186.6210  178.1190  145.1160 C   0  0  0  0  0  0  0  0  0  0  0  0
  188.8780  176.6450  144.5100 N   0  0  0  0  0  0  0  0  0  0  0  0
  191.9850  176.2700  147.7040 C   0  0  0  0  0  1  0  0  0  0  0  0
  191.6260  176.9810  145.4690 O   0  0  0  0  0  0  0  0  0  0  0  0
  189.6880  176.7590  146.7800 N   0  0  0  0  0  2  0  0  0  0  0  0
  191.1060  176.6820  146.5770 C   0  0  0  0  0  0  0  0  0  0  0  0
  1 19  1  0  0  0  0
  3  1  1  0  0  0  0
  3  2  2  0  0  0  0
  4  3  1  0  0  0  0
  5  4  1  0  0  0  0
  6  7  1  0  0  0  0
  6  1  1  0  0  0  0
  8 11  1  0  0  0  0
  9 14  2  0  0  0  0
  9 12  1  0  0  0  0
 10 15  1  0  0  0  0
 10  8  1  0  0  0  0
 11 12  1  0  0  0  0
 11  7  1  6  0  0  0
 12 17  1  1  0  0  0
 13 10  2  0  0  0  0
 15  9  1  0  0  0  0
 16 18  1  0  0  0  0
 17 16  1  0  0  0  0
 17 18  1  0  0  0  0
 19 20  1  0  0  0  0
 20 22  1  0  0  0  0
 22 26  1  0  0  0  0
 23 22  2  0  0  0  0
 23 27  1  0  0  0  0
 24 25  1  0  0  0  0
 24 30  1  0  0  0  0
 26 21  1  0  0  0  0
 26 25  2  0  0  0  0
 27 24  2  0  0  0  0
 29 31  2  0  0  0  0
 31 30  1  0  0  0  0
 31 28  1  0  0  0  0
M  END
>  <MODEL>
5

>  <REMARK>
 VINA RESULT:      -7.4      2.865      6.761
  Name = 
  9 active torsions:
  status: ('A' for Active; 'I' for Inactive)
    1  A    between atoms: N_2  and  N_3
    2  A    between atoms: N_2  and  N_9
    3  A    between atoms: N_3  and  C_15
    4  A    between atoms: C_7  and  C_27
    5  A    between atoms: N_9  and  C_25
    6  A    between atoms: C_10  and  C_14
    7  A    between atoms: C_14  and  C_25
    8  A    between atoms: N_17  and  C_19
    9  A    between atoms: C_18  and  C_26
                            x       y       z     vdW  Elec       q    Type
                         _______ _______ _______ _____ _____    ______ ____

>  <TORSDO>
F 9

$$$$
=
 OpenBabel10222415303D

 31 33  0  0  1  0  0  0  0  0999 V2000
  183.7690  179.0080  140.3170 N   0  0  0  0  0  0  0  0  0  0  0  0
  181.4370  178.7530  140.3210 O   0  0  0  0  0  0  0  0  0  0  0  0
  182.4520  179.3090  139.8180 C   0  0  0  0  0  0  0  0  0  0  0  0
  182.2610  180.3050  138.7220 C   0  0  0  0  0  2  0  0  0  0  0  0
  181.5060  179.6690  137.5710 C   0  0  0  0  0  1  0  0  0  0  0  0
  184.8840  179.7170  139.8440 N   0  0  0  0  0  2  0  0  0  0  0  0
  185.1380  179.2670  138.5400 N   0  0  0  0  0  2  0  0  0  0  0  0
  187.2760  178.1210  138.8170 C   0  0  0  0  0  2  0  0  0  0  0  0
  186.1030  177.6460  136.1710 C   0  0  0  0  0  0  0  0  0  0  0  0
  187.9210  178.6350  137.5600 C   0  0  0  0  0  0  0  0  0  0  0  0
  185.7640  177.9560  138.6460 C   0  0  2  0  0  3  0  0  0  0  0  0
  185.4530  177.0860  137.4130 C   0  0  1  0  0  3  0  0  0  0  0  0
  189.0110  179.2600  137.6290 O   0  0  0  0  0  0  0  0  0  0  0  0
  185.6200  177.4180  135.0270 O   0  0  0  0  0  0  0  0  0  0  0  0
  187.3290  178.3770  136.2830 N   0  0  0  0  0  2  0  0  0  0  0  0
  183.6900  175.4010  136.9490 C   0  0  0  0  0  2  0  0  0  0  0  0
  183.9500  176.8670  137.2390 C   0  0  0  0  0  3  0  0  0  0  0  0
  183.4320  175.9510  138.3340 C   0  0  0  0  0  2  0  0  0  0  0  0
  183.9590  178.0710  141.4200 C   0  0  0  0  0  2  0  0  0  0  0  0
  184.1750  178.8080  142.7400 C   0  0  0  0  0  2  0  0  0  0  0  0
  184.3810  178.6650  145.6060 F   0  0  0  0  0  0  0  0  0  0  0  0
  185.3840  178.3030  143.4580 C   0  0  0  0  0  0  0  0  0  0  0  0
  186.4940  177.8800  142.7210 C   0  0  0  0  0  3  0  0  0  0  0  0
  187.6860  177.3800  144.7210 C   0  0  0  0  0  0  0  0  0  0  0  0
  186.5950  177.8030  145.4900 C   0  0  0  0  0  3  0  0  0  0  0  0
  185.4390  178.2620  144.8570 C   0  0  0  0  0  0  0  0  0  0  0  0
  187.6070  177.4320  143.3610 N   0  0  0  0  0  0  0  0  0  0  0  0
  191.3450  176.8340  145.9150 C   0  0  0  0  0  1  0  0  0  0  0  0
  190.3550  178.6260  144.7180 O   0  0  0  0  0  0  0  0  0  0  0  0
  188.8920  176.8920  145.3320 N   0  0  0  0  0  2  0  0  0  0  0  0
  190.1860  177.5100  145.2750 C   0  0  0  0  0  0  0  0  0  0  0  0
  1 19  1  0  0  0  0
  3  1  1  0  0  0  0
  3  2  2  0  0  0  0
  4  3  1  0  0  0  0
  5  4  1  0  0  0  0
  6  1  1  0  0  0  0
  7  6  1  0  0  0  0
  9 15  1  0  0  0  0
  9 12  1  0  0  0  0
 10 13  2  0  0  0  0
 10  8  1  0  0  0  0
 11  7  1  6  0  0  0
 11  8  1  0  0  0  0
 12 17  1  6  0  0  0
 12 11  1  0  0  0  0
 14  9  2  0  0  0  0
 15 10  1  0  0  0  0
 16 17  1  0  0  0  0
 16 18  1  0  0  0  0
 17 18  1  0  0  0  0
 19 20  1  0  0  0  0
 20 22  1  0  0  0  0
 22 26  1  0  0  0  0
 23 27  1  0  0  0  0
 23 22  2  0  0  0  0
 24 30  1  0  0  0  0
 24 25  1  0  0  0  0
 26 25  2  0  0  0  0
 26 21  1  0  0  0  0
 27 24  2  0  0  0  0
 29 31  2  0  0  0  0
 31 30  1  0  0  0  0
 31 28  1  0  0  0  0
M  END
>  <MODEL>
6

>  <REMARK>
 VINA RESULT:      -7.4      4.227      7.970
  Name = 
  9 active torsions:
  status: ('A' for Active; 'I' for Inactive)
    1  A    between atoms: N_2  and  N_3
    2  A    between atoms: N_2  and  N_9
    3  A    between atoms: N_3  and  C_15
    4  A    between atoms: C_7  and  C_27
    5  A    between atoms: N_9  and  C_25
    6  A    between atoms: C_10  and  C_14
    7  A    between atoms: C_14  and  C_25
    8  A    between atoms: N_17  and  C_19
    9  A    between atoms: C_18  and  C_26
                            x       y       z     vdW  Elec       q    Type
                         _______ _______ _______ _____ _____    ______ ____

>  <TORSDO>
F 9

$$$$
=
 OpenBabel10222415303D

 31 33  0  0  1  0  0  0  0  0999 V2000
  188.4110  177.0530  142.1180 N   0  0  0  0  0  0  0  0  0  0  0  0
  188.2230  177.8070  139.9060 O   0  0  0  0  0  0  0  0  0  0  0  0
  188.9640  177.3630  140.8260 C   0  0  0  0  0  0  0  0  0  0  0  0
  190.4240  177.1960  140.5610 C   0  0  0  0  0  2  0  0  0  0  0  0
  190.6590  176.9910  139.0770 C   0  0  0  0  0  1  0  0  0  0  0  0
  189.2520  176.6780  143.1770 N   0  0  0  0  0  2  0  0  0  0  0  0
  188.4750  176.6810  144.3450 N   0  0  0  0  0  2  0  0  0  0  0  0
  190.1960  178.1930  145.1880 C   0  0  0  0  0  2  0  0  0  0  0  0
  188.5890  177.0330  147.3500 C   0  0  0  0  0  0  0  0  0  0  0  0
  190.7880  177.2500  146.1970 C   0  0  0  0  0  0  0  0  0  0  0  0
  188.6940  177.9580  145.0120 C   0  0  2  0  0  3  0  0  0  0  0  0
  187.9760  178.0080  146.3740 C   0  0  1  0  0  3  0  0  0  0  0  0
  192.0130  176.9660  146.1420 O   0  0  0  0  0  0  0  0  0  0  0  0
  187.9100  176.5560  148.3010 O   0  0  0  0  0  0  0  0  0  0  0  0
  189.9800  176.7090  147.2470 N   0  0  0  0  0  2  0  0  0  0  0  0
  185.7520  178.6870  147.2430 C   0  0  0  0  0  2  0  0  0  0  0  0
  186.4660  177.8180  146.2250 C   0  0  0  0  0  3  0  0  0  0  0  0
  185.8210  179.1240  145.7970 C   0  0  0  0  0  2  0  0  0  0  0  0
  186.9930  177.2590  142.3990 C   0  0  0  0  0  2  0  0  0  0  0  0
  186.5740  178.6980  142.1050 C   0  0  0  0  0  2  0  0  0  0  0  0
  184.1910  178.0730  143.5890 F   0  0  0  0  0  0  0  0  0  0  0  0
  185.1990  178.7600  141.5240 C   0  0  0  0  0  0  0  0  0  0  0  0
  185.0330  179.1290  140.1870 C   0  0  0  0  0  3  0  0  0  0  0  0
  182.6730  178.8660  140.3600 C   0  0  0  0  0  0  0  0  0  0  0  0
  182.8030  178.4850  141.7020 C   0  0  0  0  0  3  0  0  0  0  0  0
  184.0700  178.4350  142.2870 C   0  0  0  0  0  0  0  0  0  0  0  0
  183.7880  179.1750  139.6400 N   0  0  0  0  0  0  0  0  0  0  0  0
  179.0080  179.6930  139.3610 C   0  0  0  0  0  1  0  0  0  0  0  0
  180.4170  180.6420  141.0170 O   0  0  0  0  0  0  0  0  0  0  0  0
  181.3880  178.9380  139.7210 N   0  0  0  0  0  2  0  0  0  0  0  0
  180.2970  179.7920  140.0960 C   0  0  0  0  0  0  0  0  0  0  0  0
  1 19  1  0  0  0  0
  1  6  1  0  0  0  0
  2  3  2  0  0  0  0
  3  1  1  0  0  0  0
  4  3  1  0  0  0  0
  5  4  1  0  0  0  0
  6  7  1  0  0  0  0
  8 10  1  0  0  0  0
  9 14  2  0  0  0  0
 10 15  1  0  0  0  0
 11  7  1  1  0  0  0
 11  8  1  0  0  0  0
 11 12  1  0  0  0  0
 12 17  1  6  0  0  0
 12  9  1  0  0  0  0
 13 10  2  0  0  0  0
 15  9  1  0  0  0  0
 17 16  1  0  0  0  0
 18 17  1  0  0  0  0
 18 16  1  0  0  0  0
 20 19  1  0  0  0  0
 22 20  1  0  0  0  0
 22 26  1  0  0  0  0
 23 22  2  0  0  0  0
 24 25  1  0  0  0  0
 25 26  2  0  0  0  0
 26 21  1  0  0  0  0
 27 23  1  0  0  0  0
 27 24  2  0  0  0  0
 28 31  1  0  0  0  0
 30 31  1  0  0  0  0
 30 24  1  0  0  0  0
 31 29  2  0  0  0  0
M  END
>  <MODEL>
7

>  <REMARK>
 VINA RESULT:      -7.3      3.293      6.460
  Name = 
  9 active torsions:
  status: ('A' for Active; 'I' for Inactive)
    1  A    between atoms: N_2  and  N_3
    2  A    between atoms: N_2  and  N_9
    3  A    between atoms: N_3  and  C_15
    4  A    between atoms: C_7  and  C_27
    5  A    between atoms: N_9  and  C_25
    6  A    between atoms: C_10  and  C_14
    7  A    between atoms: C_14  and  C_25
    8  A    between atoms: N_17  and  C_19
    9  A    between atoms: C_18  and  C_26
                            x       y       z     vdW  Elec       q    Type
                         _______ _______ _______ _____ _____    ______ ____

>  <TORSDO>
F 9

$$$$
=
 OpenBabel10222415303D

 31 33  0  0  1  0  0  0  0  0999 V2000
  184.4570  178.5540  140.6770 N   0  0  0  0  0  0  0  0  0  0  0  0
  186.0230  178.9830  138.9850 O   0  0  0  0  0  0  0  0  0  0  0  0
  184.8740  178.5670  139.2990 C   0  0  0  0  0  0  0  0  0  0  0  0
  183.9710  178.0590  138.2240 C   0  0  0  0  0  2  0  0  0  0  0  0
  184.7480  177.1680  137.2740 C   0  0  0  0  0  1  0  0  0  0  0  0
  183.2300  177.9770  141.0400 N   0  0  0  0  0  2  0  0  0  0  0  0
  182.2800  179.0080  141.0700 N   0  0  0  0  0  2  0  0  0  0  0  0
  180.5480  178.1240  139.5950 C   0  0  0  0  0  2  0  0  0  0  0  0
  179.6760  180.5520  140.9900 C   0  0  0  0  0  0  0  0  0  0  0  0
  180.2660  179.4040  138.8580 C   0  0  0  0  0  0  0  0  0  0  0  0
  180.9620  178.3890  141.0440 C   0  0  2  0  0  3  0  0  0  0  0  0
  179.9150  179.2710  141.7510 C   0  0  1  0  0  3  0  0  0  0  0  0
  180.3740  179.4390  137.6050 O   0  0  0  0  0  0  0  0  0  0  0  0
  179.2700  181.5910  141.5810 O   0  0  0  0  0  0  0  0  0  0  0  0
  179.8310  180.5690  139.5670 N   0  0  0  0  0  2  0  0  0  0  0  0
  179.0360  179.3690  144.0710 C   0  0  0  0  0  2  0  0  0  0  0  0
  180.2790  179.5180  143.2160 C   0  0  0  0  0  3  0  0  0  0  0  0
  180.0550  178.2530  144.0240 C   0  0  0  0  0  2  0  0  0  0  0  0
  185.3520  179.0030  141.7390 C   0  0  0  0  0  2  0  0  0  0  0  0
  184.8540  178.5520  143.1100 C   0  0  0  0  0  2  0  0  0  0  0  0
  185.0840  179.2090  145.9010 F   0  0  0  0  0  0  0  0  0  0  0  0
  185.9810  178.0930  143.9770 C   0  0  0  0  0  0  0  0  0  0  0  0
  186.9970  177.3080  143.4260 C   0  0  0  0  0  3  0  0  0  0  0  0
  188.1310  177.2260  145.5180 C   0  0  0  0  0  0  0  0  0  0  0  0
  187.1330  178.0170  146.1020 C   0  0  0  0  0  3  0  0  0  0  0  0
  186.0520  178.4480  145.3300 C   0  0  0  0  0  0  0  0  0  0  0  0
  188.0370  176.8960  144.1990 N   0  0  0  0  0  0  0  0  0  0  0  0
  191.6810  176.4370  146.8910 C   0  0  0  0  0  1  0  0  0  0  0  0
  190.9770  177.8830  145.1470 O   0  0  0  0  0  0  0  0  0  0  0  0
  189.2550  176.7530  146.2780 N   0  0  0  0  0  2  0  0  0  0  0  0
  190.6350  177.0650  146.0420 C   0  0  0  0  0  0  0  0  0  0  0  0
  1  6  1  0  0  0  0
  1 19  1  0  0  0  0
  2  3  2  0  0  0  0
  3  1  1  0  0  0  0
  4  3  1  0  0  0  0
  5  4  1  0  0  0  0
  6  7  1  0  0  0  0
  8 11  1  0  0  0  0
  9 14  2  0  0  0  0
  9 12  1  0  0  0  0
 10 15  1  0  0  0  0
 10  8  1  0  0  0  0
 11  7  1  6  0  0  0
 11 12  1  0  0  0  0
 12 17  1  1  0  0  0
 13 10  2  0  0  0  0
 15  9  1  0  0  0  0
 17 18  1  0  0  0  0
 17 16  1  0  0  0  0
 18 16  1  0  0  0  0
 19 20  1  0  0  0  0
 20 22  1  0  0  0  0
 22 26  1  0  0  0  0
 23 22  2  0  0  0  0
 23 27  1  0  0  0  0
 24 25  1  0  0  0  0
 24 30  1  0  0  0  0
 26 21  1  0  0  0  0
 26 25  2  0  0  0  0
 27 24  2  0  0  0  0
 29 31  2  0  0  0  0
 31 30  1  0  0  0  0
 31 28  1  0  0  0  0
M  END
>  <MODEL>
8

>  <REMARK>
 VINA RESULT:      -7.3      4.374      8.684
  Name = 
  9 active torsions:
  status: ('A' for Active; 'I' for Inactive)
    1  A    between atoms: N_2  and  N_3
    2  A    between atoms: N_2  and  N_9
    3  A    between atoms: N_3  and  C_15
    4  A    between atoms: C_7  and  C_27
    5  A    between atoms: N_9  and  C_25
    6  A    between atoms: C_10  and  C_14
    7  A    between atoms: C_14  and  C_25
    8  A    between atoms: N_17  and  C_19
    9  A    between atoms: C_18  and  C_26
                            x       y       z     vdW  Elec       q    Type
                         _______ _______ _______ _____ _____    ______ ____

>  <TORSDO>
F 9

$$$$
=
 OpenBabel10222415303D

 31 33  0  0  1  0  0  0  0  0999 V2000
  187.1360  178.6500  140.3130 N   0  0  0  0  0  0  0  0  0  0  0  0
  188.5300  177.2590  139.0390 O   0  0  0  0  0  0  0  0  0  0  0  0
  187.4590  177.9220  139.1140 C   0  0  0  0  0  0  0  0  0  0  0  0
  186.5200  177.9100  137.9530 C   0  0  0  0  0  2  0  0  0  0  0  0
  187.2370  178.3870  136.7040 C   0  0  0  0  0  1  0  0  0  0  0  0
  185.8900  179.2830  140.4430 N   0  0  0  0  0  2  0  0  0  0  0  0
  185.6180  179.3820  141.8150 N   0  0  0  0  0  2  0  0  0  0  0  0
  183.7750  177.7930  141.6210 C   0  0  0  0  0  2  0  0  0  0  0  0
  183.9620  178.9430  144.3130 C   0  0  0  0  0  0  0  0  0  0  0  0
  182.7030  178.6880  142.1760 C   0  0  0  0  0  0  0  0  0  0  0  0
  185.1360  178.0810  142.2600 C   0  0  2  0  0  3  0  0  0  0  0  0
  185.0360  178.0160  143.7960 C   0  0  1  0  0  3  0  0  0  0  0  0
  181.6780  178.9340  141.4900 O   0  0  0  0  0  0  0  0  0  0  0  0
  184.0220  179.4150  145.4820 O   0  0  0  0  0  0  0  0  0  0  0  0
  182.8190  179.2250  143.4980 N   0  0  0  0  0  2  0  0  0  0  0  0
  186.4360  177.5160  145.7840 C   0  0  0  0  0  2  0  0  0  0  0  0
  186.3900  178.2590  144.4620 C   0  0  0  0  0  3  0  0  0  0  0  0
  187.1500  176.9490  144.5780 C   0  0  0  0  0  2  0  0  0  0  0  0
  188.0260  178.6270  141.4700 C   0  0  0  0  0  2  0  0  0  0  0  0
  189.3510  177.9460  141.1350 C   0  0  0  0  0  2  0  0  0  0  0  0
  190.4400  179.7290  143.1120 F   0  0  0  0  0  0  0  0  0  0  0  0
  190.0560  177.4820  142.3680 C   0  0  0  0  0  0  0  0  0  0  0  0
  190.2170  176.1120  142.5930 C   0  0  0  0  0  3  0  0  0  0  0  0
  191.3850  176.5390  144.6240 C   0  0  0  0  0  0  0  0  0  0  0  0
  191.2480  177.9190  144.4250 C   0  0  0  0  0  3  0  0  0  0  0  0
  190.5770  178.3910  143.2960 C   0  0  0  0  0  0  0  0  0  0  0  0
  190.8700  175.6750  143.7040 N   0  0  0  0  0  0  0  0  0  0  0  0
  192.5180  175.6100  148.2250 C   0  0  0  0  0  1  0  0  0  0  0  0
  190.5980  176.7690  147.4530 O   0  0  0  0  0  0  0  0  0  0  0  0
  192.0600  176.0090  145.7770 N   0  0  0  0  0  2  0  0  0  0  0  0
  191.6660  176.1760  147.1460 C   0  0  0  0  0  0  0  0  0  0  0  0
  1  6  1  0  0  0  0
  1 19  1  0  0  0  0
  2  3  2  0  0  0  0
  3  1  1  0  0  0  0
  4  3  1  0  0  0  0
  5  4  1  0  0  0  0
  6  7  1  0  0  0  0
  8 10  1  0  0  0  0
  8 11  1  0  0  0  0
  9 14  2  0  0  0  0
 10 15  1  0  0  0  0
 11  7  1  1  0  0  0
 11 12  1  0  0  0  0
 12  9  1  0  0  0  0
 12 17  1  1  0  0  0
 13 10  2  0  0  0  0
 15  9  1  0  0  0  0
 17 18  1  0  0  0  0
 17 16  1  0  0  0  0
 18 16  1  0  0  0  0
 20 19  1  0  0  0  0
 20 22  1  0  0  0  0
 21 26  1  0  0  0  0
 22 23  2  0  0  0  0
 22 26  1  0  0  0  0
 23 27  1  0  0  0  0
 24 30  1  0  0  0  0
 25 24  1  0  0  0  0
 26 25  2  0  0  0  0
 27 24  2  0  0  0  0
 30 31  1  0  0  0  0
 31 29  2  0  0  0  0
 31 28  1  0  0  0  0
M  END
>  <MODEL>
9

>  <REMARK>
 VINA RESULT:      -7.3      3.133      6.512
  Name = 
  9 active torsions:
  status: ('A' for Active; 'I' for Inactive)
    1  A    between atoms: N_2  and  N_3
    2  A    between atoms: N_2  and  N_9
    3  A    between atoms: N_3  and  C_15
    4  A    between atoms: C_7  and  C_27
    5  A    between atoms: N_9  and  C_25
    6  A    between atoms: C_10  and  C_14
    7  A    between atoms: C_14  and  C_25
    8  A    between atoms: N_17  and  C_19
    9  A    between atoms: C_18  and  C_26
                            x       y       z     vdW  Elec       q    Type
                         _______ _______ _______ _____ _____    ______ ____

>  <TORSDO>
F 9

$$$$
