=
 OpenBabel10222417143D

 51 53  0  0  1  0  0  0  0  0999 V2000
  189.0840  177.2580  146.0460 C   0  0  0  0  0  0  0  0  0  0  0  0
  189.5400  176.6460  147.2290 C   0  0  0  0  0  3  0  0  0  0  0  0
  191.3690  177.1870  145.2000 C   0  0  0  0  0  3  0  0  0  0  0  0
  191.8010  176.5860  146.3810 C   0  0  0  0  0  3  0  0  0  0  0  0
  190.0190  177.5310  145.0150 C   0  0  0  0  0  0  0  0  0  0  0  0
  190.8850  176.3130  147.3960 C   0  0  0  0  0  3  0  0  0  0  0  0
  187.1210  178.5900  146.6640 C   0  0  0  0  0  3  0  0  0  0  0  0
  187.6420  177.6100  145.9230 C   0  0  0  0  0  0  0  0  0  0  0  0
  186.8240  176.9270  145.0240 O   0  0  0  0  0  1  0  0  0  0  0  0
  185.6810  178.9740  146.5730 C   0  0  0  0  0  2  0  0  0  0  0  0
  183.9740  179.0290  144.7160 C   0  0  0  0  0  0  0  0  0  0  0  0
  185.3180  179.1720  145.1800 N   0  0  0  0  0  2  0  0  0  0  0  0
  183.0450  178.7570  145.5230 O   0  0  0  0  0  0  0  0  0  0  0  0
  183.6880  179.2340  143.3330 N   0  0  0  0  0  2  0  0  0  0  0  0
  180.8270  175.9480  137.7710 C   0  0  1  0  0  3  0  0  0  0  0  0
  180.9660  177.1570  140.0240 C   0  0  2  0  0  3  0  0  0  0  0  0
  183.0560  176.2040  138.9990 C   0  0  0  0  0  2  0  0  0  0  0  0
  182.3880  177.4540  139.5800 C   0  0  2  0  0  3  0  0  0  0  0  0
  180.0820  176.8260  138.8110 C   0  0  1  0  0  3  0  0  0  0  0  0
  180.4040  178.5600  141.0320 S   0  0  0  0  0  0  0  0  0  0  0  0
  179.6440  178.0000  138.1870 O   0  0  0  0  0  1  0  0  0  0  0  0
  182.3550  179.1940  142.8190 C   0  0  0  0  0  3  0  0  0  0  0  0
  182.0390  175.2200  138.3790 C   0  0  0  0  0  2  0  0  0  0  0  0
  182.0880  178.6670  141.6270 C   0  0  0  0  0  0  0  0  0  0  0  0
  183.1310  178.0130  140.7770 C   0  0  0  0  0  2  0  0  0  0  0  0
  179.8560  173.7540  137.8480 O   0  0  0  0  0  1  0  0  0  0  0  0
  179.8740  174.9450  137.1140 C   0  0  2  0  0  3  0  0  0  0  0  0
  180.1430  173.2870  135.6690 C   0  0  0  0  0  1  0  0  0  0  0  0
  180.2900  174.6680  135.8080 O   0  0  0  0  0  0  0  0  0  0  0  0
  189.5810  178.0990  143.7700 N   0  0  0  0  0  2  0  0  0  0  0  0
  189.4130  176.1450  142.4770 O   0  0  0  0  0  0  0  0  0  0  0  0
  189.2230  177.3860  142.5770 C   0  0  0  0  0  0  0  0  0  0  0  0
  188.6420  178.1270  141.4230 C   0  0  0  0  0  2  0  0  0  0  0  0
  189.1490  177.5580  140.1050 C   0  0  0  0  0  2  0  0  0  0  0  0
  188.6370  178.3980  138.9450 C   0  0  0  0  0  2  0  0  0  0  0  0
  186.2300  178.6590  138.8200 O   0  0  0  0  0  1  0  0  0  0  0  0
  187.3120  177.8900  138.3840 C   0  0  1  0  0  3  0  0  0  0  0  0
  187.3240  177.7050  136.8610 C   0  0  1  0  0  3  0  0  0  0  0  0
  188.9470  177.5720  135.3680 C   0  0  0  0  0  1  0  0  0  0  0  0
  188.4360  176.9420  136.5000 O   0  0  0  0  0  0  0  0  0  0  0  0
  186.0630  177.0340  136.3270 C   0  0  0  0  0  2  0  0  0  0  0  0
  186.5270  174.7070  134.7710 O   0  0  0  0  0  0  0  0  0  0  0  0
  185.9650  175.6710  136.8220 N   0  0  0  0  0  2  0  0  0  0  0  0
  186.2750  174.5470  135.9970 C   0  0  0  0  0  0  0  0  0  0  0  0
  186.2230  173.1720  136.5860 C   0  0  0  0  0  2  0  0  0  0  0  0
  186.8000  170.1000  134.6620 O   0  0  0  0  0  0  0  0  0  0  0  0
  184.7050  170.7970  135.3520 N   0  0  0  0  0  2  0  0  0  0  0  0
  186.1180  170.9990  135.2130 C   0  0  0  0  0  0  0  0  0  0  0  0
  186.7830  172.1850  135.6740 N   0  0  0  0  0  2  0  0  0  0  0  0
  183.7400  171.8310  135.6970 C   0  0  0  0  0  2  0  0  0  0  0  0
  183.1620  171.5630  137.0730 C   0  0  0  0  0  1  0  0  0  0  0  0
  1  2  1  0  0  0  0
  2  6  2  0  0  0  0
  3  4  2  0  0  0  0
  4  6  1  0  0  0  0
  5  3  1  0  0  0  0
  5  1  2  0  0  0  0
  8  1  1  0  0  0  0
  8  7  2  0  0  0  0
  9  8  1  0  0  0  0
 10  7  1  0  0  0  0
 11 12  1  0  0  0  0
 11 13  2  0  0  0  0
 12 10  1  0  0  0  0
 14 11  1  0  0  0  0
 15 27  1  1  0  0  0
 15 23  1  0  0  0  0
 15 19  1  0  0  0  0
 16 20  1  6  0  0  0
 18 17  1  1  0  0  0
 18 16  1  0  0  0  0
 18 25  1  0  0  0  0
 19 21  1  6  0  0  0
 19 16  1  0  0  0  0
 20 24  1  0  0  0  0
 22 14  1  0  0  0  0
 23 17  1  0  0  0  0
 24 22  2  0  0  0  0
 25 24  1  0  0  0  0
 27 26  1  1  0  0  0
 28 29  1  0  0  0  0
 29 27  1  0  0  0  0
 30  5  1  0  0  0  0
 31 32  2  0  0  0  0
 32 30  1  0  0  0  0
 33 32  1  0  0  0  0
 34 33  1  0  0  0  0
 35 34  1  0  0  0  0
 37 36  1  6  0  0  0
 37 35  1  0  0  0  0
 38 41  1  1  0  0  0
 38 37  1  0  0  0  0
 39 40  1  0  0  0  0
 40 38  1  0  0  0  0
 41 43  1  0  0  0  0
 42 44  2  0  0  0  0
 44 45  1  0  0  0  0
 44 43  1  0  0  0  0
 46 48  2  0  0  0  0
 47 50  1  0  0  0  0
 48 47  1  0  0  0  0
 48 49  1  0  0  0  0
 49 45  1  0  0  0  0
 50 51  1  0  0  0  0
M  END
>  <MODEL>
1

>  <REMARK>
 VINA RESULT:      -7.2      0.000      0.000
  Name = 
  18 active torsions:
  status: ('A' for Active; 'I' for Inactive)
    1  A    between atoms: C_1  and  C_51
    2  A    between atoms: C_2  and  C_23
    3  A    between atoms: C_2  and  N_49
    4  A    between atoms: C_3  and  C_45
    5  A    between atoms: C_6  and  N_34
    6  A    between atoms: C_6  and  C_41
    7  A    between atoms: N_7  and  C_32
    8  A    between atoms: C_8  and  N_22
    9  A    between atoms: C_13  and  C_17
   10  A    between atoms: C_13  and  C_31
   11  A    between atoms: N_15  and  C_38
   12  A    between atoms: C_17  and  C_47
   13  A    between atoms: C_26  and  N_40
   14  A    between atoms: O_27  and  C_51
   15  A    between atoms: C_28  and  C_29
   16  A    between atoms: C_28  and  O_30
   17  A    between atoms: C_28  and  C_32
   18  A    between atoms: C_29  and  C_31
                            x       y       z     vdW  Elec       q    Type
                         _______ _______ _______ _____ _____    ______ ____

>  <TORSDO>
F 18

$$$$
=
 OpenBabel10222417143D

 51 53  0  0  1  0  0  0  0  0999 V2000
  189.4590  177.6420  146.7620 C   0  0  0  0  0  0  0  0  0  0  0  0
  189.8430  178.0160  148.0630 C   0  0  0  0  0  3  0  0  0  0  0  0
  187.1320  177.7520  147.4790 C   0  0  0  0  0  3  0  0  0  0  0  0
  187.5330  178.1170  148.7640 C   0  0  0  0  0  3  0  0  0  0  0  0
  188.0780  177.5090  146.4690 C   0  0  0  0  0  0  0  0  0  0  0  0
  188.8900  178.2520  149.0560 C   0  0  0  0  0  3  0  0  0  0  0  0
  190.6310  178.1760  144.6750 C   0  0  0  0  0  3  0  0  0  0  0  0
  190.5150  177.3840  145.7430 C   0  0  0  0  0  0  0  0  0  0  0  0
  191.4010  176.3200  145.9010 O   0  0  0  0  0  1  0  0  0  0  0  0
  191.6720  177.9540  143.6300 C   0  0  0  0  0  2  0  0  0  0  0  0
  190.7300  177.2210  141.4060 C   0  0  0  0  0  0  0  0  0  0  0  0
  191.1170  178.2500  142.3200 N   0  0  0  0  0  2  0  0  0  0  0  0
  190.8290  176.0080  141.7310 O   0  0  0  0  0  0  0  0  0  0  0  0
  190.1940  177.5840  140.1340 N   0  0  0  0  0  2  0  0  0  0  0  0
  193.4760  173.1090  135.7610 C   0  0  1  0  0  3  0  0  0  0  0  0
  191.6050  174.1190  137.1880 C   0  0  2  0  0  3  0  0  0  0  0  0
  193.9770  174.8820  137.5350 C   0  0  0  0  0  2  0  0  0  0  0  0
  192.5370  175.3180  137.2500 C   0  0  2  0  0  3  0  0  0  0  0  0
  191.9450  173.2360  135.9780 C   0  0  1  0  0  3  0  0  0  0  0  0
  189.9020  174.7490  137.2350 S   0  0  0  0  0  0  0  0  0  0  0  0
  191.3620  173.7510  134.8140 O   0  0  0  0  0  1  0  0  0  0  0  0
  189.7070  176.6090  139.2100 C   0  0  0  0  0  3  0  0  0  0  0  0
  194.2780  173.4530  137.0300 C   0  0  0  0  0  2  0  0  0  0  0  0
  190.5160  176.0190  138.3350 C   0  0  0  0  0  0  0  0  0  0  0  0
  191.9910  176.2640  138.3000 C   0  0  0  0  0  2  0  0  0  0  0  0
  193.1690  170.7410  136.0040 O   0  0  0  0  0  1  0  0  0  0  0  0
  193.8470  171.7100  135.2580 C   0  0  2  0  0  3  0  0  0  0  0  0
  195.4000  170.1320  135.1790 C   0  0  0  0  0  1  0  0  0  0  0  0
  195.2230  171.5020  135.3830 O   0  0  0  0  0  0  0  0  0  0  0  0
  187.6470  177.1880  145.1360 N   0  0  0  0  0  2  0  0  0  0  0  0
  185.8450  178.6810  144.9280 O   0  0  0  0  0  0  0  0  0  0  0  0
  186.6040  177.8320  144.3900 C   0  0  0  0  0  0  0  0  0  0  0  0
  186.3910  177.4710  142.9600 C   0  0  0  0  0  2  0  0  0  0  0  0
  186.6410  178.6710  142.0580 C   0  0  0  0  0  2  0  0  0  0  0  0
  185.3300  179.3860  141.7680 C   0  0  0  0  0  2  0  0  0  0  0  0
  183.3050  178.6300  142.8670 O   0  0  0  0  0  1  0  0  0  0  0  0
  184.1300  178.4430  141.7550 C   0  0  1  0  0  3  0  0  0  0  0  0
  183.3490  178.4660  140.4350 C   0  0  1  0  0  3  0  0  0  0  0  0
  181.1920  178.3280  139.9760 C   0  0  0  0  0  1  0  0  0  0  0  0
  182.1310  179.1180  140.6340 O   0  0  0  0  0  0  0  0  0  0  0  0
  184.1040  179.1540  139.3020 C   0  0  0  0  0  2  0  0  0  0  0  0
  186.7150  178.3180  138.5690 O   0  0  0  0  0  0  0  0  0  0  0  0
  184.4050  178.2040  138.2430 N   0  0  0  0  0  2  0  0  0  0  0  0
  185.7420  177.7810  137.9710 C   0  0  0  0  0  0  0  0  0  0  0  0
  185.9790  176.7470  136.9150 C   0  0  0  0  0  2  0  0  0  0  0  0
  183.5400  175.2730  134.6010 O   0  0  0  0  0  0  0  0  0  0  0  0
  185.2460  174.0660  135.5940 N   0  0  0  0  0  2  0  0  0  0  0  0
  184.4880  175.2720  135.4260 C   0  0  0  0  0  0  0  0  0  0  0  0
  184.7630  176.4730  136.1620 N   0  0  0  0  0  2  0  0  0  0  0  0
  186.1710  173.8040  136.6860 C   0  0  0  0  0  2  0  0  0  0  0  0
  185.4750  173.0120  137.7770 C   0  0  0  0  0  1  0  0  0  0  0  0
  1  2  1  0  0  0  0
  2  6  2  0  0  0  0
  3  4  2  0  0  0  0
  4  6  1  0  0  0  0
  5  1  2  0  0  0  0
  5  3  1  0  0  0  0
  7  8  2  0  0  0  0
  8  9  1  0  0  0  0
  8  1  1  0  0  0  0
 10  7  1  0  0  0  0
 11 13  2  0  0  0  0
 11 12  1  0  0  0  0
 12 10  1  0  0  0  0
 14 11  1  0  0  0  0
 15 27  1  1  0  0  0
 15 19  1  0  0  0  0
 15 23  1  0  0  0  0
 16 20  1  6  0  0  0
 16 18  1  0  0  0  0
 18 17  1  1  0  0  0
 18 25  1  0  0  0  0
 19 21  1  6  0  0  0
 19 16  1  0  0  0  0
 20 24  1  0  0  0  0
 22 14  1  0  0  0  0
 23 17  1  0  0  0  0
 24 22  2  0  0  0  0
 25 24  1  0  0  0  0
 27 29  1  0  0  0  0
 27 26  1  1  0  0  0
 28 29  1  0  0  0  0
 30  5  1  0  0  0  0
 32 31  2  0  0  0  0
 32 30  1  0  0  0  0
 33 32  1  0  0  0  0
 34 33  1  0  0  0  0
 35 34  1  0  0  0  0
 37 35  1  0  0  0  0
 37 36  1  1  0  0  0
 38 41  1  6  0  0  0
 38 40  1  0  0  0  0
 38 37  1  0  0  0  0
 39 40  1  0  0  0  0
 43 41  1  0  0  0  0
 44 43  1  0  0  0  0
 44 42  2  0  0  0  0
 45 44  1  0  0  0  0
 46 48  2  0  0  0  0
 47 50  1  0  0  0  0
 48 47  1  0  0  0  0
 48 49  1  0  0  0  0
 49 45  1  0  0  0  0
 50 51  1  0  0  0  0
M  END
>  <MODEL>
2

>  <REMARK>
 VINA RESULT:      -7.0      3.922      7.875
  Name = 
  18 active torsions:
  status: ('A' for Active; 'I' for Inactive)
    1  A    between atoms: C_1  and  C_51
    2  A    between atoms: C_2  and  C_23
    3  A    between atoms: C_2  and  N_49
    4  A    between atoms: C_3  and  C_45
    5  A    between atoms: C_6  and  N_34
    6  A    between atoms: C_6  and  C_41
    7  A    between atoms: N_7  and  C_32
    8  A    between atoms: C_8  and  N_22
    9  A    between atoms: C_13  and  C_17
   10  A    between atoms: C_13  and  C_31
   11  A    between atoms: N_15  and  C_38
   12  A    between atoms: C_17  and  C_47
   13  A    between atoms: C_26  and  N_40
   14  A    between atoms: O_27  and  C_51
   15  A    between atoms: C_28  and  C_29
   16  A    between atoms: C_28  and  O_30
   17  A    between atoms: C_28  and  C_32
   18  A    between atoms: C_29  and  C_31
                            x       y       z     vdW  Elec       q    Type
                         _______ _______ _______ _____ _____    ______ ____

>  <TORSDO>
F 18

$$$$
=
 OpenBabel10222417143D

 51 53  0  0  1  0  0  0  0  0999 V2000
  181.5910  178.1280  138.7340 C   0  0  0  0  0  0  0  0  0  0  0  0
  180.7490  178.2360  137.6110 C   0  0  0  0  0  3  0  0  0  0  0  0
  183.4480  177.6670  137.2240 C   0  0  0  0  0  3  0  0  0  0  0  0
  182.5970  177.7730  136.1250 C   0  0  0  0  0  3  0  0  0  0  0  0
  182.9650  177.8380  138.5330 C   0  0  0  0  0  0  0  0  0  0  0  0
  181.2470  178.0610  136.3180 C   0  0  0  0  0  3  0  0  0  0  0  0
  181.1410  179.4670  140.7380 C   0  0  0  0  0  3  0  0  0  0  0  0
  181.0090  178.3060  140.0930 C   0  0  0  0  0  0  0  0  0  0  0  0
  180.3090  177.2650  140.7020 O   0  0  0  0  0  1  0  0  0  0  0  0
  180.5740  179.6880  142.1010 C   0  0  0  0  0  2  0  0  0  0  0  0
  182.3230  179.2960  143.8780 C   0  0  0  0  0  0  0  0  0  0  0  0
  181.2530  178.8270  143.0540 N   0  0  0  0  0  2  0  0  0  0  0  0
  182.6900  180.5010  143.8230 O   0  0  0  0  0  0  0  0  0  0  0  0
  182.9470  178.3940  144.7910 N   0  0  0  0  0  2  0  0  0  0  0  0
  189.8360  176.9030  145.2880 C   0  0  1  0  0  3  0  0  0  0  0  0
  187.6270  178.1540  145.6340 C   0  0  2  0  0  3  0  0  0  0  0  0
  187.7960  176.4130  143.8250 C   0  0  0  0  0  2  0  0  0  0  0  0
  187.0200  176.8850  145.0600 C   0  0  2  0  0  3  0  0  0  0  0  0
  189.0300  177.8720  146.1950 C   0  0  1  0  0  3  0  0  0  0  0  0
  186.4390  178.8360  146.8270 S   0  0  0  0  0  0  0  0  0  0  0  0
  188.9460  177.3270  147.4810 O   0  0  0  0  0  1  0  0  0  0  0  0
  183.9610  178.8200  145.7040 C   0  0  0  0  0  3  0  0  0  0  0  0
  189.2790  176.8440  143.8540 C   0  0  0  0  0  2  0  0  0  0  0  0
  185.1590  178.2420  145.7260 C   0  0  0  0  0  0  0  0  0  0  0  0
  185.5630  177.1730  144.7610 C   0  0  0  0  0  2  0  0  0  0  0  0
  192.0120  176.4350  144.3900 O   0  0  0  0  0  1  0  0  0  0  0  0
  191.3220  177.2740  145.2710 C   0  0  2  0  0  3  0  0  0  0  0  0
  192.0600  175.7650  146.7160 C   0  0  0  0  0  1  0  0  0  0  0  0
  191.8680  177.1380  146.5510 O   0  0  0  0  0  0  0  0  0  0  0  0
  183.8660  177.7810  139.6510 N   0  0  0  0  0  2  0  0  0  0  0  0
  184.6140  180.0070  139.6750 O   0  0  0  0  0  0  0  0  0  0  0  0
  184.5950  178.8750  140.2250 C   0  0  0  0  0  0  0  0  0  0  0  0
  185.3680  178.6650  141.4820 C   0  0  0  0  0  2  0  0  0  0  0  0
  186.8470  178.9460  141.2590 C   0  0  0  0  0  2  0  0  0  0  0  0
  187.4340  177.9130  140.3080 C   0  0  0  0  0  2  0  0  0  0  0  0
  189.8430  177.8150  140.5670 O   0  0  0  0  0  1  0  0  0  0  0  0
  188.8060  178.3110  139.7720 C   0  0  1  0  0  3  0  0  0  0  0  0
  189.0010  177.9850  138.2860 C   0  0  1  0  0  3  0  0  0  0  0  0
  190.6620  176.7500  137.5130 C   0  0  0  0  0  1  0  0  0  0  0  0
  189.4320  176.6630  138.1590 O   0  0  0  0  0  0  0  0  0  0  0  0
  187.7350  178.1800  137.4570 C   0  0  0  0  0  2  0  0  0  0  0  0
  187.5010  177.2390  134.7900 O   0  0  0  0  0  0  0  0  0  0  0  0
  187.1750  176.8940  137.0770 N   0  0  0  0  0  2  0  0  0  0  0  0
  187.1460  176.4590  135.7170 C   0  0  0  0  0  0  0  0  0  0  0  0
  186.6200  175.0950  135.3980 C   0  0  0  0  0  2  0  0  0  0  0  0
  185.1240  172.9050  137.9360 O   0  0  0  0  0  0  0  0  0  0  0  0
  187.3110  172.7030  137.2070 N   0  0  0  0  0  2  0  0  0  0  0  0
  186.0470  173.3810  137.2290 C   0  0  0  0  0  0  0  0  0  0  0  0
  185.7950  174.5800  136.4820 N   0  0  0  0  0  2  0  0  0  0  0  0
  188.5510  173.2580  136.6850 C   0  0  0  0  0  2  0  0  0  0  0  0
  188.9820  172.4900  135.4500 C   0  0  0  0  0  1  0  0  0  0  0  0
  1  8  1  0  0  0  0
  2  1  2  0  0  0  0
  3  5  2  0  0  0  0
  4  6  2  0  0  0  0
  4  3  1  0  0  0  0
  5  1  1  0  0  0  0
  5 30  1  0  0  0  0
  6  2  1  0  0  0  0
  7 10  1  0  0  0  0
  8  9  1  0  0  0  0
  8  7  2  0  0  0  0
 10 12  1  0  0  0  0
 11 14  1  0  0  0  0
 12 11  1  0  0  0  0
 13 11  2  0  0  0  0
 14 22  1  0  0  0  0
 15 27  1  6  0  0  0
 15 19  1  0  0  0  0
 16 19  1  0  0  0  0
 16 20  1  1  0  0  0
 17 23  1  0  0  0  0
 18 17  1  6  0  0  0
 18 16  1  0  0  0  0
 19 21  1  1  0  0  0
 22 24  2  0  0  0  0
 23 15  1  0  0  0  0
 24 20  1  0  0  0  0
 25 18  1  0  0  0  0
 25 24  1  0  0  0  0
 27 26  1  6  0  0  0
 27 29  1  0  0  0  0
 29 28  1  0  0  0  0
 30 32  1  0  0  0  0
 31 32  2  0  0  0  0
 32 33  1  0  0  0  0
 34 33  1  0  0  0  0
 35 34  1  0  0  0  0
 37 35  1  0  0  0  0
 37 36  1  1  0  0  0
 38 41  1  6  0  0  0
 38 37  1  0  0  0  0
 39 40  1  0  0  0  0
 40 38  1  0  0  0  0
 42 44  2  0  0  0  0
 43 41  1  0  0  0  0
 44 43  1  0  0  0  0
 45 44  1  0  0  0  0
 45 49  1  0  0  0  0
 47 48  1  0  0  0  0
 48 46  2  0  0  0  0
 49 48  1  0  0  0  0
 50 47  1  0  0  0  0
 51 50  1  0  0  0  0
M  END
>  <MODEL>
3

>  <REMARK>
 VINA RESULT:      -6.9      2.754      8.037
  Name = 
  18 active torsions:
  status: ('A' for Active; 'I' for Inactive)
    1  A    between atoms: C_1  and  C_51
    2  A    between atoms: C_2  and  C_23
    3  A    between atoms: C_2  and  N_49
    4  A    between atoms: C_3  and  C_45
    5  A    between atoms: C_6  and  N_34
    6  A    between atoms: C_6  and  C_41
    7  A    between atoms: N_7  and  C_32
    8  A    between atoms: C_8  and  N_22
    9  A    between atoms: C_13  and  C_17
   10  A    between atoms: C_13  and  C_31
   11  A    between atoms: N_15  and  C_38
   12  A    between atoms: C_17  and  C_47
   13  A    between atoms: C_26  and  N_40
   14  A    between atoms: O_27  and  C_51
   15  A    between atoms: C_28  and  C_29
   16  A    between atoms: C_28  and  O_30
   17  A    between atoms: C_28  and  C_32
   18  A    between atoms: C_29  and  C_31
                            x       y       z     vdW  Elec       q    Type
                         _______ _______ _______ _____ _____    ______ ____

>  <TORSDO>
F 18

$$$$
=
 OpenBabel10222417143D

 51 53  0  0  1  0  0  0  0  0999 V2000
  190.3930  175.2490  137.3840 C   0  0  0  0  0  0  0  0  0  0  0  0
  191.6290  174.6910  137.0080 C   0  0  0  0  0  3  0  0  0  0  0  0
  191.6020  176.8330  138.7890 C   0  0  0  0  0  3  0  0  0  0  0  0
  192.8160  176.2630  138.4080 C   0  0  0  0  0  3  0  0  0  0  0  0
  190.3830  176.3400  138.2910 C   0  0  0  0  0  0  0  0  0  0  0  0
  192.8300  175.1920  137.5140 C   0  0  0  0  0  3  0  0  0  0  0  0
  188.7240  173.4610  137.2190 C   0  0  0  0  0  3  0  0  0  0  0  0
  189.1390  174.6680  136.8300 C   0  0  0  0  0  0  0  0  0  0  0  0
  188.3780  175.3840  135.9060 O   0  0  0  0  0  1  0  0  0  0  0  0
  187.4750  172.8400  136.6880 C   0  0  0  0  0  2  0  0  0  0  0  0
  185.1760  173.8100  137.0660 C   0  0  0  0  0  0  0  0  0  0  0  0
  186.3590  173.1750  137.5570 N   0  0  0  0  0  2  0  0  0  0  0  0
  185.0520  174.0680  135.8390 O   0  0  0  0  0  0  0  0  0  0  0  0
  184.1190  174.1130  137.9760 N   0  0  0  0  0  2  0  0  0  0  0  0
  181.2460  180.5290  138.6880 C   0  0  1  0  0  3  0  0  0  0  0  0
  181.6500  178.1780  137.7540 C   0  0  2  0  0  3  0  0  0  0  0  0
  183.3780  179.2310  139.2490 C   0  0  0  0  0  2  0  0  0  0  0  0
  182.4830  178.0100  139.0140 C   0  0  2  0  0  3  0  0  0  0  0  0
  180.6360  179.3200  137.9280 C   0  0  1  0  0  3  0  0  0  0  0  0
  180.9310  176.5580  137.3550 S   0  0  0  0  0  0  0  0  0  0  0  0
  179.5050  178.8720  138.6200 O   0  0  0  0  0  1  0  0  0  0  0  0
  182.8760  174.6650  137.5380 C   0  0  0  0  0  3  0  0  0  0  0  0
  182.7850  180.5270  138.6520 C   0  0  0  0  0  2  0  0  0  0  0  0
  182.4550  175.8510  137.9690 C   0  0  0  0  0  0  0  0  0  0  0  0
  183.2720  176.7240  138.8690 C   0  0  0  0  0  2  0  0  0  0  0  0
  180.4450  181.7350  136.7740 O   0  0  0  0  0  1  0  0  0  0  0  0
  180.7000  181.8530  138.1440 C   0  0  2  0  0  3  0  0  0  0  0  0
  181.5020  183.7060  137.2310 C   0  0  0  0  0  1  0  0  0  0  0  0
  181.6280  182.8770  138.3480 O   0  0  0  0  0  0  0  0  0  0  0  0
  189.1450  176.9740  138.6500 N   0  0  0  0  0  2  0  0  0  0  0  0
  189.4970  177.2650  140.9540 O   0  0  0  0  0  0  0  0  0  0  0  0
  188.7790  177.4790  139.9420 C   0  0  0  0  0  0  0  0  0  0  0  0
  187.5120  178.2470  140.1000 C   0  0  0  0  0  2  0  0  0  0  0  0
  187.1670  178.4210  141.5730 C   0  0  0  0  0  2  0  0  0  0  0  0
  185.9970  179.3830  141.7220 C   0  0  0  0  0  2  0  0  0  0  0  0
  184.5410  177.5820  142.4360 O   0  0  0  0  0  1  0  0  0  0  0  0
  184.9460  178.8910  142.7120 C   0  0  1  0  0  3  0  0  0  0  0  0
  185.3490  179.0830  144.1790 C   0  0  1  0  0  3  0  0  0  0  0  0
  183.1550  179.3350  144.2470 C   0  0  0  0  0  1  0  0  0  0  0  0
  184.3340  179.7690  144.8480 O   0  0  0  0  0  0  0  0  0  0  0  0
  185.6270  177.7700  144.9030 C   0  0  0  0  0  2  0  0  0  0  0  0
  187.0120  178.2120  147.3410 O   0  0  0  0  0  0  0  0  0  0  0  0
  187.0560  177.5860  145.0910 N   0  0  0  0  0  2  0  0  0  0  0  0
  187.6770  177.7670  146.3650 C   0  0  0  0  0  0  0  0  0  0  0  0
  189.1410  177.4930  146.5080 C   0  0  0  0  0  2  0  0  0  0  0  0
  191.6290  177.1400  143.8320 O   0  0  0  0  0  0  0  0  0  0  0  0
  192.0340  176.5580  146.0340 N   0  0  0  0  0  2  0  0  0  0  0  0
  191.1600  177.0050  144.9900 C   0  0  0  0  0  0  0  0  0  0  0  0
  189.7720  177.3010  145.2100 N   0  0  0  0  0  2  0  0  0  0  0  0
  191.6050  176.0810  147.3410 C   0  0  0  0  0  2  0  0  0  0  0  0
  192.8060  175.6260  148.1470 C   0  0  0  0  0  1  0  0  0  0  0  0
  1  5  1  0  0  0  0
  2  1  2  0  0  0  0
  2  6  1  0  0  0  0
  4  3  1  0  0  0  0
  5 30  1  0  0  0  0
  5  3  2  0  0  0  0
  6  4  2  0  0  0  0
  8  7  2  0  0  0  0
  8  1  1  0  0  0  0
  9  8  1  0  0  0  0
 10  7  1  0  0  0  0
 10 12  1  0  0  0  0
 11 12  1  0  0  0  0
 11 14  1  0  0  0  0
 13 11  2  0  0  0  0
 15 27  1  6  0  0  0
 16 20  1  1  0  0  0
 16 19  1  0  0  0  0
 16 18  1  0  0  0  0
 18 25  1  6  0  0  0
 18 17  1  0  0  0  0
 19 21  1  1  0  0  0
 19 15  1  0  0  0  0
 20 24  1  0  0  0  0
 22 24  2  0  0  0  0
 22 14  1  0  0  0  0
 23 15  1  0  0  0  0
 23 17  1  0  0  0  0
 24 25  1  0  0  0  0
 27 26  1  6  0  0  0
 27 29  1  0  0  0  0
 28 29  1  0  0  0  0
 30 32  1  0  0  0  0
 32 33  1  0  0  0  0
 32 31  2  0  0  0  0
 33 34  1  0  0  0  0
 34 35  1  0  0  0  0
 35 37  1  0  0  0  0
 37 36  1  1  0  0  0
 37 38  1  0  0  0  0
 38 40  1  0  0  0  0
 38 41  1  1  0  0  0
 39 40  1  0  0  0  0
 41 43  1  0  0  0  0
 43 44  1  0  0  0  0
 44 45  1  0  0  0  0
 44 42  2  0  0  0  0
 46 48  2  0  0  0  0
 47 50  1  0  0  0  0
 48 49  1  0  0  0  0
 48 47  1  0  0  0  0
 49 45  1  0  0  0  0
 50 51  1  0  0  0  0
M  END
>  <MODEL>
4

>  <REMARK>
 VINA RESULT:      -6.7      2.805      8.568
  Name = 
  18 active torsions:
  status: ('A' for Active; 'I' for Inactive)
    1  A    between atoms: C_1  and  C_51
    2  A    between atoms: C_2  and  C_23
    3  A    between atoms: C_2  and  N_49
    4  A    between atoms: C_3  and  C_45
    5  A    between atoms: C_6  and  N_34
    6  A    between atoms: C_6  and  C_41
    7  A    between atoms: N_7  and  C_32
    8  A    between atoms: C_8  and  N_22
    9  A    between atoms: C_13  and  C_17
   10  A    between atoms: C_13  and  C_31
   11  A    between atoms: N_15  and  C_38
   12  A    between atoms: C_17  and  C_47
   13  A    between atoms: C_26  and  N_40
   14  A    between atoms: O_27  and  C_51
   15  A    between atoms: C_28  and  C_29
   16  A    between atoms: C_28  and  O_30
   17  A    between atoms: C_28  and  C_32
   18  A    between atoms: C_29  and  C_31
                            x       y       z     vdW  Elec       q    Type
                         _______ _______ _______ _____ _____    ______ ____

>  <TORSDO>
F 18

$$$$
=
 OpenBabel10222417143D

 51 53  0  0  1  0  0  0  0  0999 V2000
  181.7070  178.0960  138.6140 C   0  0  0  0  0  0  0  0  0  0  0  0
  180.8920  178.2190  137.4720 C   0  0  0  0  0  3  0  0  0  0  0  0
  183.5750  177.5460  137.1480 C   0  0  0  0  0  3  0  0  0  0  0  0
  182.7500  177.6670  136.0310 C   0  0  0  0  0  3  0  0  0  0  0  0
  183.0730  177.7530  138.4440 C   0  0  0  0  0  0  0  0  0  0  0  0
  181.4080  178.0070  136.1930 C   0  0  0  0  0  3  0  0  0  0  0  0
  181.3100  179.4610  140.6120 C   0  0  0  0  0  3  0  0  0  0  0  0
  181.1050  178.3150  139.9580 C   0  0  0  0  0  0  0  0  0  0  0  0
  180.3120  177.3300  140.5440 O   0  0  0  0  0  1  0  0  0  0  0  0
  180.7280  179.7220  141.9610 C   0  0  0  0  0  2  0  0  0  0  0  0
  182.3740  179.3170  143.8310 C   0  0  0  0  0  0  0  0  0  0  0  0
  181.3580  178.8510  142.9380 N   0  0  0  0  0  2  0  0  0  0  0  0
  182.7300  180.5260  143.8170 O   0  0  0  0  0  0  0  0  0  0  0  0
  182.9520  178.4060  144.7640 N   0  0  0  0  0  2  0  0  0  0  0  0
  189.8090  176.9540  145.6550 C   0  0  1  0  0  3  0  0  0  0  0  0
  187.5750  178.1850  145.8840 C   0  0  2  0  0  3  0  0  0  0  0  0
  187.8650  176.4700  144.0660 C   0  0  0  0  0  2  0  0  0  0  0  0
  187.0130  176.9200  145.2580 C   0  0  2  0  0  3  0  0  0  0  0  0
  188.9430  177.9050  146.5250 C   0  0  1  0  0  3  0  0  0  0  0  0
  186.3120  178.8430  147.0120 S   0  0  0  0  0  0  0  0  0  0  0  0
  188.7860  177.3430  147.7960 O   0  0  0  0  0  1  0  0  0  0  0  0
  183.9060  178.8260  145.7420 C   0  0  0  0  0  3  0  0  0  0  0  0
  189.3400  176.9100  144.1900 C   0  0  0  0  0  2  0  0  0  0  0  0
  185.1050  178.2560  145.8290 C   0  0  0  0  0  0  0  0  0  0  0  0
  185.5740  177.2020  144.8760 C   0  0  0  0  0  2  0  0  0  0  0  0
  191.7170  177.8400  144.5000 O   0  0  0  0  0  1  0  0  0  0  0  0
  191.2910  177.3350  145.7320 C   0  0  2  0  0  3  0  0  0  0  0  0
  192.2690  176.3050  147.4330 C   0  0  0  0  0  1  0  0  0  0  0  0
  192.0610  176.2140  146.0560 O   0  0  0  0  0  0  0  0  0  0  0  0
  183.9490  177.6800  139.5810 N   0  0  0  0  0  2  0  0  0  0  0  0
  184.8800  179.8340  139.5080 O   0  0  0  0  0  0  0  0  0  0  0  0
  184.7580  178.7370  140.1140 C   0  0  0  0  0  0  0  0  0  0  0  0
  185.4920  178.5290  141.3940 C   0  0  0  0  0  2  0  0  0  0  0  0
  186.9120  179.0710  141.2970 C   0  0  0  0  0  2  0  0  0  0  0  0
  187.8760  177.9430  140.9590 C   0  0  0  0  0  2  0  0  0  0  0  0
  190.1840  177.8320  140.2250 O   0  0  0  0  0  1  0  0  0  0  0  0
  188.9210  178.3460  139.9220 C   0  0  1  0  0  3  0  0  0  0  0  0
  188.4970  178.0480  138.4790 C   0  0  1  0  0  3  0  0  0  0  0  0
  187.9310  179.0350  136.5850 C   0  0  0  0  0  1  0  0  0  0  0  0
  188.7860  179.1540  137.6780 O   0  0  0  0  0  0  0  0  0  0  0  0
  189.1800  176.8160  137.8940 C   0  0  0  0  0  2  0  0  0  0  0  0
  191.2700  174.9700  138.4190 O   0  0  0  0  0  0  0  0  0  0  0  0
  190.5920  177.0760  137.6710 N   0  0  0  0  0  2  0  0  0  0  0  0
  191.5860  176.0760  137.8990 C   0  0  0  0  0  0  0  0  0  0  0  0
  193.0160  176.3830  137.5830 C   0  0  0  0  0  2  0  0  0  0  0  0
  194.7940  175.2090  134.5940 O   0  0  0  0  0  0  0  0  0  0  0  0
  195.2320  174.4270  136.7260 N   0  0  0  0  0  2  0  0  0  0  0  0
  194.4670  175.2180  135.8070 C   0  0  0  0  0  0  0  0  0  0  0  0
  193.3450  176.0160  136.2130 N   0  0  0  0  0  2  0  0  0  0  0  0
  194.8290  174.1000  138.0870 C   0  0  0  0  0  2  0  0  0  0  0  0
  195.9530  174.4230  139.0520 C   0  0  0  0  0  1  0  0  0  0  0  0
  1  8  1  0  0  0  0
  2  1  2  0  0  0  0
  3  5  2  0  0  0  0
  4  6  2  0  0  0  0
  4  3  1  0  0  0  0
  5  1  1  0  0  0  0
  5 30  1  0  0  0  0
  6  2  1  0  0  0  0
  7 10  1  0  0  0  0
  8  9  1  0  0  0  0
  8  7  2  0  0  0  0
 10 12  1  0  0  0  0
 11 14  1  0  0  0  0
 12 11  1  0  0  0  0
 13 11  2  0  0  0  0
 14 22  1  0  0  0  0
 15 27  1  6  0  0  0
 15 19  1  0  0  0  0
 16 19  1  0  0  0  0
 16 20  1  1  0  0  0
 17 23  1  0  0  0  0
 18 17  1  6  0  0  0
 18 16  1  0  0  0  0
 19 21  1  1  0  0  0
 22 24  2  0  0  0  0
 23 15  1  0  0  0  0
 24 20  1  0  0  0  0
 25 18  1  0  0  0  0
 25 24  1  0  0  0  0
 27 26  1  6  0  0  0
 27 29  1  0  0  0  0
 29 28  1  0  0  0  0
 30 32  1  0  0  0  0
 31 32  2  0  0  0  0
 32 33  1  0  0  0  0
 34 33  1  0  0  0  0
 35 34  1  0  0  0  0
 37 36  1  1  0  0  0
 37 35  1  0  0  0  0
 38 41  1  6  0  0  0
 38 37  1  0  0  0  0
 39 40  1  0  0  0  0
 40 38  1  0  0  0  0
 43 41  1  0  0  0  0
 43 44  1  0  0  0  0
 44 42  2  0  0  0  0
 45 44  1  0  0  0  0
 46 48  2  0  0  0  0
 47 50  1  0  0  0  0
 48 49  1  0  0  0  0
 48 47  1  0  0  0  0
 49 45  1  0  0  0  0
 50 51  1  0  0  0  0
M  END
>  <MODEL>
5

>  <REMARK>
 VINA RESULT:      -6.7      3.669      8.894
  Name = 
  18 active torsions:
  status: ('A' for Active; 'I' for Inactive)
    1  A    between atoms: C_1  and  C_51
    2  A    between atoms: C_2  and  C_23
    3  A    between atoms: C_2  and  N_49
    4  A    between atoms: C_3  and  C_45
    5  A    between atoms: C_6  and  N_34
    6  A    between atoms: C_6  and  C_41
    7  A    between atoms: N_7  and  C_32
    8  A    between atoms: C_8  and  N_22
    9  A    between atoms: C_13  and  C_17
   10  A    between atoms: C_13  and  C_31
   11  A    between atoms: N_15  and  C_38
   12  A    between atoms: C_17  and  C_47
   13  A    between atoms: C_26  and  N_40
   14  A    between atoms: O_27  and  C_51
   15  A    between atoms: C_28  and  C_29
   16  A    between atoms: C_28  and  O_30
   17  A    between atoms: C_28  and  C_32
   18  A    between atoms: C_29  and  C_31
                            x       y       z     vdW  Elec       q    Type
                         _______ _______ _______ _____ _____    ______ ____

>  <TORSDO>
F 18

$$$$
=
 OpenBabel10222417143D

 51 53  0  0  1  0  0  0  0  0999 V2000
  189.4950  177.2190  146.3780 C   0  0  0  0  0  0  0  0  0  0  0  0
  190.1980  176.9080  147.5570 C   0  0  0  0  0  3  0  0  0  0  0  0
  191.3800  176.3540  145.0970 C   0  0  0  0  0  3  0  0  0  0  0  0
  192.0620  176.0580  146.2760 C   0  0  0  0  0  3  0  0  0  0  0  0
  190.1010  176.9350  145.1270 C   0  0  0  0  0  0  0  0  0  0  0  0
  191.4690  176.3330  147.5080 C   0  0  0  0  0  3  0  0  0  0  0  0
  187.3560  177.9300  145.4130 C   0  0  0  0  0  3  0  0  0  0  0  0
  188.1490  177.8470  146.4840 C   0  0  0  0  0  0  0  0  0  0  0  0
  187.6980  178.3450  147.7050 O   0  0  0  0  0  1  0  0  0  0  0  0
  186.0010  178.5520  145.4740 C   0  0  0  0  0  2  0  0  0  0  0  0
  183.9010  178.6200  144.0760 C   0  0  0  0  0  0  0  0  0  0  0  0
  185.2580  178.2160  144.2710 N   0  0  0  0  0  2  0  0  0  0  0  0
  183.3120  179.3210  144.9430 O   0  0  0  0  0  0  0  0  0  0  0  0
  183.2300  178.2530  142.8720 N   0  0  0  0  0  2  0  0  0  0  0  0
  180.1160  180.2620  136.8560 C   0  0  1  0  0  3  0  0  0  0  0  0
  180.3500  179.4400  139.2700 C   0  0  2  0  0  3  0  0  0  0  0  0
  182.3470  179.3790  137.7410 C   0  0  0  0  0  2  0  0  0  0  0  0
  181.7990  179.8600  139.0880 C   0  0  2  0  0  3  0  0  0  0  0  0
  179.4500  180.1610  138.2550 C   0  0  1  0  0  3  0  0  0  0  0  0
  179.9190  179.7080  141.0140 S   0  0  0  0  0  0  0  0  0  0  0  0
  179.1360  181.4490  138.7030 O   0  0  0  0  0  1  0  0  0  0  0  0
  181.9050  178.6970  142.5750 C   0  0  0  0  0  3  0  0  0  0  0  0
  181.2450  179.2330  136.6690 C   0  0  0  0  0  2  0  0  0  0  0  0
  181.5990  179.2230  141.3920 C   0  0  0  0  0  0  0  0  0  0  0  0
  182.5810  179.3170  140.2670 C   0  0  0  0  0  2  0  0  0  0  0  0
  179.1100  178.8290  135.2150 O   0  0  0  0  0  1  0  0  0  0  0  0
  179.0760  180.1250  135.7400 C   0  0  2  0  0  3  0  0  0  0  0  0
  179.7450  182.2040  135.3700 C   0  0  0  0  0  1  0  0  0  0  0  0
  179.3430  181.0380  134.7160 O   0  0  0  0  0  0  0  0  0  0  0  0
  189.3880  177.1820  143.9040 N   0  0  0  0  0  2  0  0  0  0  0  0
  190.2140  179.3180  143.3840 O   0  0  0  0  0  0  0  0  0  0  0  0
  189.5250  178.3210  143.0430 C   0  0  0  0  0  0  0  0  0  0  0  0
  188.8180  178.3420  141.7320 C   0  0  0  0  0  2  0  0  0  0  0  0
  189.4340  177.3350  140.7700 C   0  0  0  0  0  2  0  0  0  0  0  0
  189.6000  177.9650  139.3950 C   0  0  0  0  0  2  0  0  0  0  0  0
  189.8200  175.6900  138.5890 O   0  0  0  0  0  1  0  0  0  0  0  0
  190.2180  177.0120  138.3760 C   0  0  1  0  0  3  0  0  0  0  0  0
  190.0190  177.4580  136.9220 C   0  0  1  0  0  3  0  0  0  0  0  0
  190.8610  176.6210  135.0580 C   0  0  0  0  0  1  0  0  0  0  0  0
  189.9810  176.3310  136.0980 O   0  0  0  0  0  0  0  0  0  0  0  0
  188.7470  178.2730  136.7120 C   0  0  0  0  0  2  0  0  0  0  0  0
  186.2570  178.7490  137.9870 O   0  0  0  0  0  0  0  0  0  0  0  0
  187.5900  177.3970  136.6280 N   0  0  0  0  0  2  0  0  0  0  0  0
  186.3470  177.7320  137.2460 C   0  0  0  0  0  0  0  0  0  0  0  0
  185.1730  176.8220  137.0630 C   0  0  0  0  0  2  0  0  0  0  0  0
  185.4420  173.2450  137.8430 O   0  0  0  0  0  0  0  0  0  0  0  0
  183.4830  174.4540  138.0650 N   0  0  0  0  0  2  0  0  0  0  0  0
  184.8550  174.3410  137.6650 C   0  0  0  0  0  0  0  0  0  0  0  0
  185.5820  175.4250  137.0670 N   0  0  0  0  0  2  0  0  0  0  0  0
  182.5830  175.5310  137.6810 C   0  0  0  0  0  2  0  0  0  0  0  0
  181.7240  175.9370  138.8630 C   0  0  0  0  0  1  0  0  0  0  0  0
  1  8  1  0  0  0  0
  1  2  1  0  0  0  0
  3  5  1  0  0  0  0
  3  4  2  0  0  0  0
  4  6  1  0  0  0  0
  5  1  2  0  0  0  0
  6  2  2  0  0  0  0
  7 10  1  0  0  0  0
  7  8  2  0  0  0  0
  8  9  1  0  0  0  0
 11 12  1  0  0  0  0
 11 13  2  0  0  0  0
 12 10  1  0  0  0  0
 14 11  1  0  0  0  0
 15 27  1  6  0  0  0
 15 19  1  0  0  0  0
 16 20  1  1  0  0  0
 18 17  1  6  0  0  0
 18 16  1  0  0  0  0
 18 25  1  0  0  0  0
 19 21  1  1  0  0  0
 19 16  1  0  0  0  0
 20 24  1  0  0  0  0
 22 14  1  0  0  0  0
 23 15  1  0  0  0  0
 23 17  1  0  0  0  0
 24 22  2  0  0  0  0
 25 24  1  0  0  0  0
 27 26  1  6  0  0  0
 29 28  1  0  0  0  0
 29 27  1  0  0  0  0
 30  5  1  0  0  0  0
 32 31  2  0  0  0  0
 32 30  1  0  0  0  0
 33 32  1  0  0  0  0
 34 33  1  0  0  0  0
 35 34  1  0  0  0  0
 37 36  1  6  0  0  0
 37 35  1  0  0  0  0
 38 41  1  1  0  0  0
 38 37  1  0  0  0  0
 39 40  1  0  0  0  0
 40 38  1  0  0  0  0
 43 41  1  0  0  0  0
 43 44  1  0  0  0  0
 44 42  2  0  0  0  0
 45 49  1  0  0  0  0
 45 44  1  0  0  0  0
 48 46  2  0  0  0  0
 48 47  1  0  0  0  0
 49 48  1  0  0  0  0
 50 47  1  0  0  0  0
 50 51  1  0  0  0  0
M  END
>  <MODEL>
6

>  <REMARK>
 VINA RESULT:      -6.5      2.305      3.281
  Name = 
  18 active torsions:
  status: ('A' for Active; 'I' for Inactive)
    1  A    between atoms: C_1  and  C_51
    2  A    between atoms: C_2  and  C_23
    3  A    between atoms: C_2  and  N_49
    4  A    between atoms: C_3  and  C_45
    5  A    between atoms: C_6  and  N_34
    6  A    between atoms: C_6  and  C_41
    7  A    between atoms: N_7  and  C_32
    8  A    between atoms: C_8  and  N_22
    9  A    between atoms: C_13  and  C_17
   10  A    between atoms: C_13  and  C_31
   11  A    between atoms: N_15  and  C_38
   12  A    between atoms: C_17  and  C_47
   13  A    between atoms: C_26  and  N_40
   14  A    between atoms: O_27  and  C_51
   15  A    between atoms: C_28  and  C_29
   16  A    between atoms: C_28  and  O_30
   17  A    between atoms: C_28  and  C_32
   18  A    between atoms: C_29  and  C_31
                            x       y       z     vdW  Elec       q    Type
                         _______ _______ _______ _____ _____    ______ ____

>  <TORSDO>
F 18

$$$$
=
 OpenBabel10222417143D

 51 53  0  0  1  0  0  0  0  0999 V2000
  190.0160  177.0580  146.1850 C   0  0  0  0  0  0  0  0  0  0  0  0
  190.3950  176.6420  147.4760 C   0  0  0  0  0  3  0  0  0  0  0  0
  192.0560  176.0390  145.3230 C   0  0  0  0  0  3  0  0  0  0  0  0
  192.4150  175.6410  146.6100 C   0  0  0  0  0  3  0  0  0  0  0  0
  190.8650  176.7490  145.0920 C   0  0  0  0  0  0  0  0  0  0  0  0
  191.5820  175.9400  147.6870 C   0  0  0  0  0  3  0  0  0  0  0  0
  187.7990  177.7710  146.9520 C   0  0  0  0  0  3  0  0  0  0  0  0
  188.7480  177.8200  146.0140 C   0  0  0  0  0  0  0  0  0  0  0  0
  188.5430  178.6010  144.8780 O   0  0  0  0  0  1  0  0  0  0  0  0
  186.5130  178.5170  146.8200 C   0  0  0  0  0  2  0  0  0  0  0  0
  184.5900  178.5540  145.1860 C   0  0  0  0  0  0  0  0  0  0  0  0
  185.9660  178.3110  145.4900 N   0  0  0  0  0  2  0  0  0  0  0  0
  183.8090  178.9950  146.0710 O   0  0  0  0  0  0  0  0  0  0  0  0
  184.1190  178.3270  143.8590 N   0  0  0  0  0  2  0  0  0  0  0  0
  181.0950  179.2180  137.5350 C   0  0  1  0  0  3  0  0  0  0  0  0
  181.2960  178.7770  140.0500 C   0  0  2  0  0  3  0  0  0  0  0  0
  183.3450  178.6250  138.5970 C   0  0  0  0  0  2  0  0  0  0  0  0
  182.7220  179.2620  139.8440 C   0  0  2  0  0  3  0  0  0  0  0  0
  180.3890  179.2790  138.9160 C   0  0  1  0  0  3  0  0  0  0  0  0
  180.7890  179.2680  141.7240 S   0  0  0  0  0  0  0  0  0  0  0  0
  179.9790  180.5950  139.1600 O   0  0  0  0  0  1  0  0  0  0  0  0
  182.7790  178.6330  143.4660 C   0  0  0  0  0  3  0  0  0  0  0  0
  182.2920  178.2500  137.5320 C   0  0  0  0  0  2  0  0  0  0  0  0
  182.4820  178.9580  142.2110 C   0  0  0  0  0  0  0  0  0  0  0  0
  183.4950  178.9510  141.1100 C   0  0  0  0  0  2  0  0  0  0  0  0
  180.4720  177.6300  135.8460 O   0  0  0  0  0  1  0  0  0  0  0  0
  180.1040  178.8480  136.4270 C   0  0  2  0  0  3  0  0  0  0  0  0
  178.9470  180.5920  135.6980 C   0  0  0  0  0  1  0  0  0  0  0  0
  180.0940  179.8380  135.4400 O   0  0  0  0  0  0  0  0  0  0  0  0
  190.4820  177.1030  143.7530 N   0  0  0  0  0  2  0  0  0  0  0  0
  190.1720  174.9600  142.8450 O   0  0  0  0  0  0  0  0  0  0  0  0
  190.0780  176.2080  142.7080 C   0  0  0  0  0  0  0  0  0  0  0  0
  189.5660  176.7600  141.4220 C   0  0  0  0  0  2  0  0  0  0  0  0
  190.6830  176.8580  140.3920 C   0  0  0  0  0  2  0  0  0  0  0  0
  190.1770  177.5650  139.1440 C   0  0  0  0  0  2  0  0  0  0  0  0
  188.0080  178.6380  139.2810 O   0  0  0  0  0  1  0  0  0  0  0  0
  188.6660  177.4470  138.9660 C   0  0  1  0  0  3  0  0  0  0  0  0
  188.2530  176.8940  137.5960 C   0  0  1  0  0  3  0  0  0  0  0  0
  188.6380  177.9180  135.6750 C   0  0  0  0  0  1  0  0  0  0  0  0
  189.2610  177.1660  136.6690 O   0  0  0  0  0  0  0  0  0  0  0  0
  187.9790  175.3940  137.6100 C   0  0  0  0  0  2  0  0  0  0  0  0
  186.9190  172.7900  137.2240 O   0  0  0  0  0  0  0  0  0  0  0  0
  186.8480  175.0770  136.7550 N   0  0  0  0  0  2  0  0  0  0  0  0
  186.3280  173.7500  136.6570 C   0  0  0  0  0  0  0  0  0  0  0  0
  185.1160  173.5020  135.8140 C   0  0  0  0  0  2  0  0  0  0  0  0
  183.4370  170.3870  136.7910 O   0  0  0  0  0  0  0  0  0  0  0  0
  182.4660  172.4770  136.9960 N   0  0  0  0  0  2  0  0  0  0  0  0
  183.5320  171.6200  136.5660 C   0  0  0  0  0  0  0  0  0  0  0  0
  184.6980  172.1090  135.8870 N   0  0  0  0  0  2  0  0  0  0  0  0
  182.2790  173.8580  136.5750 C   0  0  0  0  0  2  0  0  0  0  0  0
  181.7320  174.6820  137.7240 C   0  0  0  0  0  1  0  0  0  0  0  0
  1  2  1  0  0  0  0
  2  6  2  0  0  0  0
  3  4  2  0  0  0  0
  4  6  1  0  0  0  0
  5  3  1  0  0  0  0
  5  1  2  0  0  0  0
  8  1  1  0  0  0  0
  8  7  2  0  0  0  0
  9  8  1  0  0  0  0
 10  7  1  0  0  0  0
 11 12  1  0  0  0  0
 11 13  2  0  0  0  0
 12 10  1  0  0  0  0
 14 11  1  0  0  0  0
 15 27  1  6  0  0  0
 15 19  1  0  0  0  0
 16 20  1  1  0  0  0
 18 17  1  6  0  0  0
 18 16  1  0  0  0  0
 18 25  1  0  0  0  0
 19 21  1  1  0  0  0
 19 16  1  0  0  0  0
 20 24  1  0  0  0  0
 22 14  1  0  0  0  0
 23 15  1  0  0  0  0
 23 17  1  0  0  0  0
 24 22  2  0  0  0  0
 25 24  1  0  0  0  0
 27 26  1  6  0  0  0
 29 28  1  0  0  0  0
 29 27  1  0  0  0  0
 30  5  1  0  0  0  0
 32 31  2  0  0  0  0
 32 30  1  0  0  0  0
 33 32  1  0  0  0  0
 34 33  1  0  0  0  0
 35 34  1  0  0  0  0
 37 35  1  0  0  0  0
 37 36  1  6  0  0  0
 38 41  1  1  0  0  0
 38 37  1  0  0  0  0
 39 40  1  0  0  0  0
 40 38  1  0  0  0  0
 43 41  1  0  0  0  0
 44 43  1  0  0  0  0
 44 42  2  0  0  0  0
 45 49  1  0  0  0  0
 45 44  1  0  0  0  0
 48 46  2  0  0  0  0
 48 47  1  0  0  0  0
 49 48  1  0  0  0  0
 50 47  1  0  0  0  0
 50 51  1  0  0  0  0
M  END
>  <MODEL>
7

>  <REMARK>
 VINA RESULT:      -6.3      1.897      2.396
  Name = 
  18 active torsions:
  status: ('A' for Active; 'I' for Inactive)
    1  A    between atoms: C_1  and  C_51
    2  A    between atoms: C_2  and  C_23
    3  A    between atoms: C_2  and  N_49
    4  A    between atoms: C_3  and  C_45
    5  A    between atoms: C_6  and  N_34
    6  A    between atoms: C_6  and  C_41
    7  A    between atoms: N_7  and  C_32
    8  A    between atoms: C_8  and  N_22
    9  A    between atoms: C_13  and  C_17
   10  A    between atoms: C_13  and  C_31
   11  A    between atoms: N_15  and  C_38
   12  A    between atoms: C_17  and  C_47
   13  A    between atoms: C_26  and  N_40
   14  A    between atoms: O_27  and  C_51
   15  A    between atoms: C_28  and  C_29
   16  A    between atoms: C_28  and  O_30
   17  A    between atoms: C_28  and  C_32
   18  A    between atoms: C_29  and  C_31
                            x       y       z     vdW  Elec       q    Type
                         _______ _______ _______ _____ _____    ______ ____

>  <TORSDO>
F 18

$$$$
=
 OpenBabel10222417143D

 51 53  0  0  1  0  0  0  0  0999 V2000
  181.4580  178.1790  138.5950 C   0  0  0  0  0  0  0  0  0  0  0  0
  180.5870  178.3160  137.4990 C   0  0  0  0  0  3  0  0  0  0  0  0
  183.2700  177.7400  137.0250 C   0  0  0  0  0  3  0  0  0  0  0  0
  182.3890  177.8740  135.9520 C   0  0  0  0  0  3  0  0  0  0  0  0
  182.8240  177.8870  138.3500 C   0  0  0  0  0  0  0  0  0  0  0  0
  181.0460  178.1650  136.1890 C   0  0  0  0  0  3  0  0  0  0  0  0
  181.0690  179.4800  140.6370 C   0  0  0  0  0  3  0  0  0  0  0  0
  180.9160  178.3320  139.9740 C   0  0  0  0  0  0  0  0  0  0  0  0
  180.2310  177.2810  140.5820 O   0  0  0  0  0  1  0  0  0  0  0  0
  180.5420  179.6760  142.0200 C   0  0  0  0  0  2  0  0  0  0  0  0
  182.3360  179.2880  143.7510 C   0  0  0  0  0  0  0  0  0  0  0  0
  181.2610  178.8110  142.9400 N   0  0  0  0  0  2  0  0  0  0  0  0
  182.6730  180.5020  143.7160 O   0  0  0  0  0  0  0  0  0  0  0  0
  183.0000  178.3830  144.6320 N   0  0  0  0  0  2  0  0  0  0  0  0
  189.8990  176.9180  145.0550 C   0  0  1  0  0  3  0  0  0  0  0  0
  187.6900  178.1600  145.4240 C   0  0  2  0  0  3  0  0  0  0  0  0
  187.8460  176.4180  143.6150 C   0  0  0  0  0  2  0  0  0  0  0  0
  187.0820  176.8890  144.8570 C   0  0  2  0  0  3  0  0  0  0  0  0
  189.1000  177.8850  145.9700 C   0  0  1  0  0  3  0  0  0  0  0  0
  186.5130  178.8390  146.6290 S   0  0  0  0  0  0  0  0  0  0  0  0
  189.0320  177.3410  147.2570 O   0  0  0  0  0  1  0  0  0  0  0  0
  184.0230  178.8130  145.5330 C   0  0  0  0  0  3  0  0  0  0  0  0
  189.3280  176.8550  143.6270 C   0  0  0  0  0  2  0  0  0  0  0  0
  185.2230  178.2400  145.5430 C   0  0  0  0  0  0  0  0  0  0  0  0
  185.6200  177.1710  144.5750 C   0  0  0  0  0  2  0  0  0  0  0  0
  192.0550  176.5000  144.0860 O   0  0  0  0  0  1  0  0  0  0  0  0
  191.3840  177.2940  145.0210 C   0  0  2  0  0  3  0  0  0  0  0  0
  192.0520  175.7140  146.4230 C   0  0  0  0  0  1  0  0  0  0  0  0
  191.9600  177.1000  146.2800 O   0  0  0  0  0  0  0  0  0  0  0  0
  183.7560  177.8010  139.4410 N   0  0  0  0  0  2  0  0  0  0  0  0
  184.5620  180.0070  139.4520 O   0  0  0  0  0  0  0  0  0  0  0  0
  184.5290  178.8730  139.9980 C   0  0  0  0  0  0  0  0  0  0  0  0
  185.3330  178.6370  141.2300 C   0  0  0  0  0  2  0  0  0  0  0  0
  186.8190  178.8160  140.9480 C   0  0  0  0  0  2  0  0  0  0  0  0
  187.3050  177.7210  140.0110 C   0  0  0  0  0  2  0  0  0  0  0  0
  189.2670  178.3300  138.7240 O   0  0  0  0  0  1  0  0  0  0  0  0
  187.8710  178.2670  138.7030 C   0  0  1  0  0  3  0  0  0  0  0  0
  187.3360  177.5510  137.4580 C   0  0  1  0  0  3  0  0  0  0  0  0
  187.1660  177.9320  135.2880 C   0  0  0  0  0  1  0  0  0  0  0  0
  188.0740  177.9540  136.3430 O   0  0  0  0  0  0  0  0  0  0  0  0
  187.3890  176.0310  137.5680 C   0  0  0  0  0  2  0  0  0  0  0  0
  184.8800  174.7530  137.9210 O   0  0  0  0  0  0  0  0  0  0  0  0
  186.6140  175.4160  136.5040 N   0  0  0  0  0  2  0  0  0  0  0  0
  185.3270  174.8460  136.7440 C   0  0  0  0  0  0  0  0  0  0  0  0
  184.5470  174.2920  135.5920 C   0  0  0  0  0  2  0  0  0  0  0  0
  183.8170  170.7970  136.4460 O   0  0  0  0  0  0  0  0  0  0  0  0
  182.2990  172.5210  136.7230 N   0  0  0  0  0  2  0  0  0  0  0  0
  183.5600  172.0140  136.2670 C   0  0  0  0  0  0  0  0  0  0  0  0
  184.5390  172.8360  135.6120 N   0  0  0  0  0  2  0  0  0  0  0  0
  181.7290  173.8080  136.3520 C   0  0  0  0  0  2  0  0  0  0  0  0
  181.2550  174.5430  137.5910 C   0  0  0  0  0  1  0  0  0  0  0  0
  1  8  1  0  0  0  0
  2  1  2  0  0  0  0
  3  5  2  0  0  0  0
  4  6  2  0  0  0  0
  4  3  1  0  0  0  0
  5  1  1  0  0  0  0
  5 30  1  0  0  0  0
  6  2  1  0  0  0  0
  7 10  1  0  0  0  0
  8  9  1  0  0  0  0
  8  7  2  0  0  0  0
 10 12  1  0  0  0  0
 11 14  1  0  0  0  0
 12 11  1  0  0  0  0
 13 11  2  0  0  0  0
 14 22  1  0  0  0  0
 15 27  1  6  0  0  0
 15 19  1  0  0  0  0
 16 19  1  0  0  0  0
 16 20  1  1  0  0  0
 17 23  1  0  0  0  0
 18 17  1  6  0  0  0
 18 16  1  0  0  0  0
 19 21  1  1  0  0  0
 22 24  2  0  0  0  0
 23 15  1  0  0  0  0
 24 20  1  0  0  0  0
 25 18  1  0  0  0  0
 25 24  1  0  0  0  0
 27 26  1  6  0  0  0
 27 29  1  0  0  0  0
 29 28  1  0  0  0  0
 30 32  1  0  0  0  0
 31 32  2  0  0  0  0
 32 33  1  0  0  0  0
 34 33  1  0  0  0  0
 35 34  1  0  0  0  0
 37 36  1  1  0  0  0
 37 35  1  0  0  0  0
 38 41  1  1  0  0  0
 38 37  1  0  0  0  0
 39 40  1  0  0  0  0
 40 38  1  0  0  0  0
 43 44  1  0  0  0  0
 43 41  1  0  0  0  0
 44 42  2  0  0  0  0
 45 49  1  0  0  0  0
 45 44  1  0  0  0  0
 48 46  2  0  0  0  0
 48 47  1  0  0  0  0
 49 48  1  0  0  0  0
 50 47  1  0  0  0  0
 50 51  1  0  0  0  0
M  END
>  <MODEL>
8

>  <REMARK>
 VINA RESULT:      -6.3      2.480      7.956
  Name = 
  18 active torsions:
  status: ('A' for Active; 'I' for Inactive)
    1  A    between atoms: C_1  and  C_51
    2  A    between atoms: C_2  and  C_23
    3  A    between atoms: C_2  and  N_49
    4  A    between atoms: C_3  and  C_45
    5  A    between atoms: C_6  and  N_34
    6  A    between atoms: C_6  and  C_41
    7  A    between atoms: N_7  and  C_32
    8  A    between atoms: C_8  and  N_22
    9  A    between atoms: C_13  and  C_17
   10  A    between atoms: C_13  and  C_31
   11  A    between atoms: N_15  and  C_38
   12  A    between atoms: C_17  and  C_47
   13  A    between atoms: C_26  and  N_40
   14  A    between atoms: O_27  and  C_51
   15  A    between atoms: C_28  and  C_29
   16  A    between atoms: C_28  and  O_30
   17  A    between atoms: C_28  and  C_32
   18  A    between atoms: C_29  and  C_31
                            x       y       z     vdW  Elec       q    Type
                         _______ _______ _______ _____ _____    ______ ____

>  <TORSDO>
F 18

$$$$
=
 OpenBabel10222417143D

 51 53  0  0  1  0  0  0  0  0999 V2000
  184.0260  178.7640  141.7950 C   0  0  0  0  0  0  0  0  0  0  0  0
  185.2010  178.7630  142.5700 C   0  0  0  0  0  3  0  0  0  0  0  0
  182.7330  178.7010  143.8600 C   0  0  0  0  0  3  0  0  0  0  0  0
  183.9080  178.6950  144.6100 C   0  0  0  0  0  3  0  0  0  0  0  0
  182.7720  178.7330  142.4560 C   0  0  0  0  0  0  0  0  0  0  0  0
  185.1440  178.7290  143.9640 C   0  0  0  0  0  3  0  0  0  0  0  0
  183.8530  177.6940  139.5960 C   0  0  0  0  0  3  0  0  0  0  0  0
  184.1400  178.7840  140.3100 C   0  0  0  0  0  0  0  0  0  0  0  0
  184.5370  179.9460  139.6490 O   0  0  0  0  0  1  0  0  0  0  0  0
  183.9560  177.6690  138.1070 C   0  0  0  0  0  2  0  0  0  0  0  0
  186.0520  176.4020  137.4970 C   0  0  0  0  0  0  0  0  0  0  0  0
  185.3550  177.6310  137.7170 N   0  0  0  0  0  2  0  0  0  0  0  0
  185.4510  175.3000  137.6040 O   0  0  0  0  0  0  0  0  0  0  0  0
  187.4270  176.4390  137.1190 N   0  0  0  0  0  2  0  0  0  0  0  0
  194.3040  174.8490  137.4470 C   0  0  1  0  0  3  0  0  0  0  0  0
  191.7700  174.4970  137.3160 C   0  0  2  0  0  3  0  0  0  0  0  0
  192.6760  176.7520  137.9670 C   0  0  0  0  0  2  0  0  0  0  0  0
  191.7540  175.9850  137.0130 C   0  0  2  0  0  3  0  0  0  0  0  0
  193.1540  173.9010  137.0120 C   0  0  1  0  0  3  0  0  0  0  0  0
  190.3860  173.7410  136.4140 S   0  0  0  0  0  0  0  0  0  0  0  0
  193.2820  173.6260  135.6460 O   0  0  0  0  0  1  0  0  0  0  0  0
  188.1580  175.2530  136.7990 C   0  0  0  0  0  3  0  0  0  0  0  0
  193.8460  175.8870  138.4870 C   0  0  0  0  0  2  0  0  0  0  0  0
  189.4870  175.2520  136.7460 C   0  0  0  0  0  0  0  0  0  0  0  0
  190.3140  176.4500  137.0900 C   0  0  0  0  0  2  0  0  0  0  0  0
  195.0550  172.9520  138.7110 O   0  0  0  0  0  1  0  0  0  0  0  0
  195.5020  174.0540  137.9750 C   0  0  2  0  0  3  0  0  0  0  0  0
  197.6070  174.5060  138.5000 C   0  0  0  0  0  1  0  0  0  0  0  0
  196.2910  174.8620  138.7990 O   0  0  0  0  0  0  0  0  0  0  0  0
  181.5510  178.7950  141.6990 N   0  0  0  0  0  2  0  0  0  0  0  0
  180.4280  180.4790  142.8900 O   0  0  0  0  0  0  0  0  0  0  0  0
  180.4640  179.7100  141.8940 C   0  0  0  0  0  0  0  0  0  0  0  0
  179.3380  179.7340  140.9180 C   0  0  0  0  0  2  0  0  0  0  0  0
  179.8490  180.0200  139.5120 C   0  0  0  0  0  2  0  0  0  0  0  0
  179.7180  181.5040  139.2040 C   0  0  0  0  0  2  0  0  0  0  0  0
  181.9720  181.3150  138.3330 O   0  0  0  0  0  1  0  0  0  0  0  0
  180.7600  181.9970  138.2040 C   0  0  1  0  0  3  0  0  0  0  0  0
  180.2530  182.0220  136.7570 C   0  0  1  0  0  3  0  0  0  0  0  0
  180.7350  182.9590  134.8130 C   0  0  0  0  0  1  0  0  0  0  0  0
  180.6000  183.2410  136.1710 O   0  0  0  0  0  0  0  0  0  0  0  0
  180.8060  180.8840  135.9050 C   0  0  0  0  0  2  0  0  0  0  0  0
  181.8610  178.3060  135.3660 O   0  0  0  0  0  0  0  0  0  0  0  0
  180.1530  179.6310  136.2470 N   0  0  0  0  0  2  0  0  0  0  0  0
  180.7730  178.3690  136.0020 C   0  0  0  0  0  0  0  0  0  0  0  0
  180.0800  177.1170  136.4420 C   0  0  0  0  0  2  0  0  0  0  0  0
  180.8080  175.4190  139.6130 O   0  0  0  0  0  0  0  0  0  0  0  0
  181.6010  174.6900  137.5660 N   0  0  0  0  0  2  0  0  0  0  0  0
  180.9070  175.6440  138.3810 C   0  0  0  0  0  0  0  0  0  0  0  0
  180.3260  176.8440  137.8510 N   0  0  0  0  0  2  0  0  0  0  0  0
  182.0500  174.9230  136.2010 C   0  0  0  0  0  2  0  0  0  0  0  0
  181.7230  173.7220  135.3350 C   0  0  0  0  0  1  0  0  0  0  0  0
  1  5  2  0  0  0  0
  1  2  1  0  0  0  0
  2  6  2  0  0  0  0
  3  4  2  0  0  0  0
  5  3  1  0  0  0  0
  6  4  1  0  0  0  0
  7  8  2  0  0  0  0
  8  1  1  0  0  0  0
  9  8  1  0  0  0  0
 10  7  1  0  0  0  0
 11 13  2  0  0  0  0
 11 12  1  0  0  0  0
 12 10  1  0  0  0  0
 14 11  1  0  0  0  0
 15 27  1  1  0  0  0
 15 23  1  0  0  0  0
 16 20  1  6  0  0  0
 17 23  1  0  0  0  0
 18 25  1  1  0  0  0
 18 16  1  0  0  0  0
 18 17  1  0  0  0  0
 19 21  1  6  0  0  0
 19 16  1  0  0  0  0
 19 15  1  0  0  0  0
 20 24  1  0  0  0  0
 22 14  1  0  0  0  0
 24 22  2  0  0  0  0
 24 25  1  0  0  0  0
 27 26  1  1  0  0  0
 27 29  1  0  0  0  0
 28 29  1  0  0  0  0
 30 32  1  0  0  0  0
 30  5  1  0  0  0  0
 32 31  2  0  0  0  0
 33 32  1  0  0  0  0
 34 33  1  0  0  0  0
 35 34  1  0  0  0  0
 37 36  1  6  0  0  0
 37 35  1  0  0  0  0
 38 41  1  6  0  0  0
 38 37  1  0  0  0  0
 39 40  1  0  0  0  0
 40 38  1  0  0  0  0
 41 43  1  0  0  0  0
 42 44  2  0  0  0  0
 44 43  1  0  0  0  0
 44 45  1  0  0  0  0
 45 49  1  0  0  0  0
 47 48  1  0  0  0  0
 48 46  2  0  0  0  0
 49 48  1  0  0  0  0
 50 47  1  0  0  0  0
 51 50  1  0  0  0  0
M  END
>  <MODEL>
9

>  <REMARK>
 VINA RESULT:      -6.1      4.540      9.591
  Name = 
  18 active torsions:
  status: ('A' for Active; 'I' for Inactive)
    1  A    between atoms: C_1  and  C_51
    2  A    between atoms: C_2  and  C_23
    3  A    between atoms: C_2  and  N_49
    4  A    between atoms: C_3  and  C_45
    5  A    between atoms: C_6  and  N_34
    6  A    between atoms: C_6  and  C_41
    7  A    between atoms: N_7  and  C_32
    8  A    between atoms: C_8  and  N_22
    9  A    between atoms: C_13  and  C_17
   10  A    between atoms: C_13  and  C_31
   11  A    between atoms: N_15  and  C_38
   12  A    between atoms: C_17  and  C_47
   13  A    between atoms: C_26  and  N_40
   14  A    between atoms: O_27  and  C_51
   15  A    between atoms: C_28  and  C_29
   16  A    between atoms: C_28  and  O_30
   17  A    between atoms: C_28  and  C_32
   18  A    between atoms: C_29  and  C_31
                            x       y       z     vdW  Elec       q    Type
                         _______ _______ _______ _____ _____    ______ ____

>  <TORSDO>
F 18

$$$$
