=
 OpenBabel10222415183D

 43 46  0  0  1  0  0  0  0  0999 V2000
  186.1890  178.3460  143.3480 C   0  0  1  0  0  3  0  0  0  0  0  0
  185.5180  178.6220  142.0390 C   0  0  0  0  0  0  0  0  0  0  0  0
  184.1000  178.7210  140.2990 C   0  0  0  0  0  0  0  0  0  0  0  0
  184.2340  178.0070  141.6050 C   0  0  0  0  0  2  0  0  0  0  0  0
  185.9620  179.4740  141.1760 N   0  0  0  0  0  0  0  0  0  0  0  0
  185.0770  179.5380  140.0980 N   0  0  0  0  0  0  0  0  0  0  0  0
  182.9250  178.6330  139.3850 C   0  0  1  0  0  3  0  0  0  0  0  0
  182.4750  179.9650  139.0190 N   0  0  0  0  0  1  0  0  0  0  0  0
  183.2850  177.8830  138.1780 C   0  0  0  0  0  0  0  0  0  0  0  0
  183.5840  177.2590  137.1900 C   0  0  0  0  0  0  0  0  0  0  0  0
  183.9480  176.4980  135.9920 C   0  0  0  0  0  2  0  0  0  0  0  0
  187.5270  175.9200  135.9750 N   0  0  0  0  0  0  0  0  0  0  0  0
  186.3040  175.6110  136.4450 C   0  0  0  0  0  3  0  0  0  0  0  0
  188.7490  175.2750  136.3460 C   0  0  0  0  0  0  0  0  0  0  0  0
  186.1670  177.2800  134.9800 C   0  0  0  0  0  3  0  0  0  0  0  0
  190.1350  173.9050  137.3270 N   0  0  0  0  0  0  0  0  0  0  0  0
  190.8980  174.6230  136.5710 C   0  0  0  0  0  3  0  0  0  0  0  0
  190.0920  175.6300  135.8160 C   0  0  0  0  0  3  0  0  0  0  0  0
  188.8050  174.3040  137.1920 N   0  0  0  0  0  2  0  0  0  0  0  0
  187.4570  176.9120  135.1010 N   0  0  0  0  0  0  0  0  0  0  0  0
  185.4270  176.4770  135.8280 C   0  0  0  0  0  0  0  0  0  0  0  0
  184.8880  179.4190  145.0150 C   0  0  0  0  0  2  0  0  0  0  0  0
  185.9020  177.7680  145.6310 C   0  0  0  0  0  2  0  0  0  0  0  0
  185.1970  178.1280  144.4040 N   0  0  0  0  0  0  0  0  0  0  0  0
  185.5940  179.0820  146.3060 C   0  0  0  0  0  2  0  0  0  0  0  0
  187.0390  177.1720  143.2040 N   0  0  0  0  0  2  0  0  0  0  0  0
  188.3890  177.6600  142.9690 C   0  0  0  0  0  2  0  0  0  0  0  0
  189.4160  176.8340  143.7370 C   0  0  1  0  0  3  0  0  0  0  0  0
  190.3410  176.0350  142.8080 C   0  0  0  0  0  2  0  0  0  0  0  0
  190.9430  177.0610  140.5750 C   0  0  0  0  0  0  0  0  0  0  0  0
  192.0350  177.4970  141.0300 O   0  0  0  0  0  0  0  0  0  0  0  0
  190.0440  176.3340  141.4140 N   0  0  0  0  0  2  0  0  0  0  0  0
  190.6020  177.2780  139.1440 C   0  0  0  0  0  2  0  0  0  0  0  0
  189.0130  178.7050  137.8940 C   0  0  0  0  0  1  0  0  0  0  0  0
  189.1520  177.7020  139.0210 C   0  0  0  0  0  2  0  0  0  0  0  0
  190.1280  177.6610  144.7230 N   0  0  0  0  0  0  0  0  0  0  0  0
  191.3850  179.3260  144.0500 C   0  0  0  0  0  1  0  0  0  0  0  0
  191.3860  177.9480  144.2880 O   0  0  0  0  0  0  0  0  0  0  0  0
  190.1830  176.9360  146.0020 C   0  0  0  0  0  3  0  0  0  0  0  0
  191.6110  176.6730  146.4800 C   0  0  0  0  0  2  0  0  0  0  0  0
  191.6120  175.6740  147.4550 O   0  0  0  0  0  1  0  0  0  0  0  0
  188.5510  176.7970  147.7400 O   0  0  0  0  0  1  0  0  0  0  0  0
  189.3940  177.6820  147.0690 C   0  0  0  0  0  2  0  0  0  0  0  0
  1 26  1  6  0  0  0
  1 24  1  0  0  0  0
  2  1  1  0  0  0  0
  3  4  1  0  0  0  0
  4  2  1  0  0  0  0
  5  2  2  0  0  0  0
  6  3  2  0  0  0  0
  6  5  1  0  0  0  0
  7  8  1  6  0  0  0
  7  3  1  0  0  0  0
  9  7  1  0  0  0  0
 10  9  3  0  0  0  0
 11 10  1  0  0  0  0
 12 14  1  0  0  0  0
 12 13  1  0  0  0  0
 14 19  1  0  0  0  0
 15 20  2  0  0  0  0
 15 21  1  0  0  0  0
 17 16  2  0  0  0  0
 18 14  2  0  0  0  0
 18 17  1  0  0  0  0
 19 16  1  0  0  0  0
 20 12  1  0  0  0  0
 21 11  1  0  0  0  0
 21 13  2  0  0  0  0
 22 25  1  0  0  0  0
 23 25  1  0  0  0  0
 24 22  1  0  0  0  0
 24 23  1  0  0  0  0
 27 26  1  0  0  0  0
 27 28  1  0  0  0  0
 28 29  1  6  0  0  0
 28 36  1  0  0  0  0
 30 31  2  0  0  0  0
 30 32  1  0  0  0  0
 32 29  1  0  0  0  0
 33 30  1  0  0  0  0
 34 35  1  0  0  0  0
 35 33  1  0  0  0  0
 36 39  1  0  0  0  0
 37 38  1  0  0  0  0
 38 36  1  0  0  0  0
 39 40  1  0  0  0  0
 39 43  1  0  0  0  0
 40 41  1  0  0  0  0
 43 42  1  0  0  0  0
M  END
>  <MODEL>
1

>  <REMARK>
 VINA RESULT:      -7.2      0.000      0.000
  Name = 
  18 active torsions:
  status: ('A' for Active; 'I' for Inactive)
    1  A    between atoms: C_3  and  C_9
    2  A    between atoms: C_3  and  C_22
    3  A    between atoms: C_5  and  C_42
    4  A    between atoms: C_8  and  C_35
    5  A    between atoms: C_12  and  N_24
    6  A    between atoms: C_12  and  C_27
    7  A    between atoms: C_13  and  C_39
    8  A    between atoms: C_14  and  C_21
    9  A    between atoms: C_14  and  C_41
   10  A    between atoms: C_15  and  C_42
   11  A    between atoms: C_18  and  C_39
   12  A    between atoms: N_23  and  C_35
   13  A    between atoms: N_24  and  C_35
   14  A    between atoms: C_27  and  N_28
   15  A    between atoms: C_27  and  C_43
   16  A    between atoms: N_28  and  O_37
   17  A    between atoms: N_28  and  C_42
   18  A    between atoms: N_32  and  C_43
                            x       y       z     vdW  Elec       q    Type
                         _______ _______ _______ _____ _____    ______ ____

>  <TORSDO>
F 18

$$$$
=
 OpenBabel10222415183D

 43 46  0  0  1  0  0  0  0  0999 V2000
  190.1290  177.5320  141.0810 C   0  0  1  0  0  3  0  0  0  0  0  0
  188.7370  177.9260  140.6970 C   0  0  0  0  0  0  0  0  0  0  0  0
  186.6150  178.6620  140.6640 C   0  0  0  0  0  0  0  0  0  0  0  0
  187.6950  178.3800  141.6560 C   0  0  0  0  0  2  0  0  0  0  0  0
  188.3200  177.9670  139.4750 N   0  0  0  0  0  0  0  0  0  0  0  0
  187.0030  178.4300  139.4560 N   0  0  0  0  0  0  0  0  0  0  0  0
  185.2920  179.2750  140.9790 C   0  0  1  0  0  3  0  0  0  0  0  0
  184.2900  178.8120  140.0350 N   0  0  0  0  0  1  0  0  0  0  0  0
  184.8890  178.9210  142.3430 C   0  0  0  0  0  0  0  0  0  0  0  0
  184.5570  178.6370  143.4670 C   0  0  0  0  0  0  0  0  0  0  0  0
  184.1520  178.2970  144.8330 C   0  0  0  0  0  2  0  0  0  0  0  0
  187.3330  177.9270  146.5350 N   0  0  0  0  0  0  0  0  0  0  0  0
  186.5370  177.6410  145.4870 C   0  0  0  0  0  3  0  0  0  0  0  0
  188.6770  177.4690  146.7090 C   0  0  0  0  0  0  0  0  0  0  0  0
  185.4670  178.9530  146.9310 C   0  0  0  0  0  3  0  0  0  0  0  0
  190.5700  176.4550  146.3220 N   0  0  0  0  0  0  0  0  0  0  0  0
  190.7630  177.0430  147.4560 C   0  0  0  0  0  3  0  0  0  0  0  0
  189.5420  177.7960  147.8740 C   0  0  0  0  0  2  0  0  0  0  0  0
  189.2810  176.7160  145.8550 N   0  0  0  0  0  0  0  0  0  0  0  0
  186.7060  178.7090  147.4000 N   0  0  0  0  0  0  0  0  0  0  0  0
  185.3400  178.2790  145.7300 C   0  0  0  0  0  0  0  0  0  0  0  0
  190.3140  178.4950  143.2410 C   0  0  0  0  0  2  0  0  0  0  0  0
  191.6030  176.9700  142.8540 C   0  0  0  0  0  2  0  0  0  0  0  0
  190.2070  177.2320  142.5130 N   0  0  0  0  0  0  0  0  0  0  0  0
  191.7530  178.2580  143.6270 C   0  0  0  0  0  2  0  0  0  0  0  0
  190.5230  176.3690  140.3000 N   0  0  0  0  0  2  0  0  0  0  0  0
  191.5410  176.8200  139.3630 C   0  0  0  0  0  2  0  0  0  0  0  0
  191.3970  176.1210  138.0140 C   0  0  1  0  0  3  0  0  0  0  0  0
  190.4750  176.8840  137.0520 C   0  0  0  0  0  2  0  0  0  0  0  0
  188.1530  176.5910  136.0910 C   0  0  0  0  0  0  0  0  0  0  0  0
  188.0250  177.8340  135.9270 O   0  0  0  0  0  0  0  0  0  0  0  0
  189.3470  176.0500  136.6610 N   0  0  0  0  0  2  0  0  0  0  0  0
  187.0640  175.6750  135.6590 C   0  0  0  0  0  2  0  0  0  0  0  0
  185.1890  176.2980  137.1480 C   0  0  0  0  0  1  0  0  0  0  0  0
  186.2430  175.2500  136.8600 C   0  0  0  0  0  2  0  0  0  0  0  0
  192.7150  175.7940  137.4470 N   0  0  0  0  0  0  0  0  0  0  0  0
  193.9940  176.7540  135.9490 C   0  0  0  0  0  1  0  0  0  0  0  0
  192.7610  176.1200  136.1250 O   0  0  0  0  0  0  0  0  0  0  0  0
  192.9670  174.3560  137.6280 C   0  0  0  0  0  3  0  0  0  0  0  0
  192.5960  173.5230  136.4010 C   0  0  0  0  0  2  0  0  0  0  0  0
  191.2620  173.1240  136.4810 O   0  0  0  0  0  1  0  0  0  0  0  0
  194.8930  175.1900  138.7670 O   0  0  0  0  0  1  0  0  0  0  0  0
  194.4200  174.1170  138.0120 C   0  0  0  0  0  2  0  0  0  0  0  0
  1 26  1  6  0  0  0
  1 24  1  0  0  0  0
  2  1  1  0  0  0  0
  2  4  1  0  0  0  0
  3  7  1  0  0  0  0
  3  4  1  0  0  0  0
  5  2  2  0  0  0  0
  6  5  1  0  0  0  0
  6  3  2  0  0  0  0
  7  8  1  6  0  0  0
  7  9  1  0  0  0  0
  9 10  3  0  0  0  0
 10 11  1  0  0  0  0
 11 21  1  0  0  0  0
 12 14  1  0  0  0  0
 12 20  1  0  0  0  0
 13 21  2  0  0  0  0
 13 12  1  0  0  0  0
 14 18  1  0  0  0  0
 15 20  2  0  0  0  0
 16 17  2  0  0  0  0
 17 18  1  0  0  0  0
 19 16  1  0  0  0  0
 19 14  2  0  0  0  0
 21 15  1  0  0  0  0
 22 25  1  0  0  0  0
 23 25  1  0  0  0  0
 24 23  1  0  0  0  0
 24 22  1  0  0  0  0
 27 26  1  0  0  0  0
 28 29  1  6  0  0  0
 28 27  1  0  0  0  0
 30 32  1  0  0  0  0
 31 30  2  0  0  0  0
 32 29  1  0  0  0  0
 33 30  1  0  0  0  0
 33 35  1  0  0  0  0
 35 34  1  0  0  0  0
 36 39  1  0  0  0  0
 36 28  1  0  0  0  0
 37 38  1  0  0  0  0
 38 36  1  0  0  0  0
 39 43  1  0  0  0  0
 40 41  1  0  0  0  0
 40 39  1  0  0  0  0
 43 42  1  0  0  0  0
M  END
>  <MODEL>
2

>  <REMARK>
 VINA RESULT:      -6.5      3.082      7.768
  Name = 
  18 active torsions:
  status: ('A' for Active; 'I' for Inactive)
    1  A    between atoms: C_3  and  C_9
    2  A    between atoms: C_3  and  C_22
    3  A    between atoms: C_5  and  C_42
    4  A    between atoms: C_8  and  C_35
    5  A    between atoms: C_12  and  N_24
    6  A    between atoms: C_12  and  C_27
    7  A    between atoms: C_13  and  C_39
    8  A    between atoms: C_14  and  C_21
    9  A    between atoms: C_14  and  C_41
   10  A    between atoms: C_15  and  C_42
   11  A    between atoms: C_18  and  C_39
   12  A    between atoms: N_23  and  C_35
   13  A    between atoms: N_24  and  C_35
   14  A    between atoms: C_27  and  N_28
   15  A    between atoms: C_27  and  C_43
   16  A    between atoms: N_28  and  O_37
   17  A    between atoms: N_28  and  C_42
   18  A    between atoms: N_32  and  C_43
                            x       y       z     vdW  Elec       q    Type
                         _______ _______ _______ _____ _____    ______ ____

>  <TORSDO>
F 18

$$$$
=
 OpenBabel10222415183D

 43 46  0  0  1  0  0  0  0  0999 V2000
  189.9910  176.7940  139.1300 C   0  0  1  0  0  3  0  0  0  0  0  0
  188.6530  177.3390  138.7370 C   0  0  0  0  0  0  0  0  0  0  0  0
  186.5760  177.6390  137.9360 C   0  0  0  0  0  0  0  0  0  0  0  0
  187.6640  176.6150  137.8950 C   0  0  0  0  0  3  0  0  0  0  0  0
  188.2000  178.4770  139.1450 N   0  0  0  0  0  2  0  0  0  0  0  0
  186.9070  178.6590  138.6510 N   0  0  0  0  0  0  0  0  0  0  0  0
  185.2120  177.4720  137.3560 C   0  0  1  0  0  3  0  0  0  0  0  0
  185.1180  176.2040  136.6540 N   0  0  0  0  0  1  0  0  0  0  0  0
  184.2060  177.5250  138.4210 C   0  0  0  0  0  0  0  0  0  0  0  0
  183.3730  177.5700  139.2910 C   0  0  0  0  0  0  0  0  0  0  0  0
  182.3580  177.6240  140.3460 C   0  0  0  0  0  2  0  0  0  0  0  0
  180.5940  180.6390  139.3750 N   0  0  0  0  0  0  0  0  0  0  0  0
  181.6920  179.8640  139.3070 C   0  0  0  0  0  3  0  0  0  0  0  0
  180.4020  181.8760  138.6830 C   0  0  0  0  0  0  0  0  0  0  0  0
  180.1830  178.9410  140.6550 C   0  0  0  0  0  3  0  0  0  0  0  0
  180.7900  183.5890  137.3870 N   0  0  0  0  0  0  0  0  0  0  0  0
  179.6050  183.8170  137.8500 C   0  0  0  0  0  3  0  0  0  0  0  0
  179.1800  182.7200  138.7720 C   0  0  0  0  0  2  0  0  0  0  0  0
  181.2870  182.3900  137.9000 N   0  0  0  0  0  0  0  0  0  0  0  0
  179.6880  180.0980  140.1760 N   0  0  0  0  0  0  0  0  0  0  0  0
  181.4500  178.7830  140.1250 C   0  0  0  0  0  0  0  0  0  0  0  0
  190.9560  175.5610  137.3480 C   0  0  0  0  0  2  0  0  0  0  0  0
  192.2720  176.5850  138.5110 C   0  0  0  0  0  2  0  0  0  0  0  0
  190.9300  176.8650  138.0080 N   0  0  0  0  0  0  0  0  0  0  0  0
  192.3460  175.2370  137.8360 C   0  0  0  0  0  2  0  0  0  0  0  0
  190.4980  177.5570  140.2620 N   0  0  0  0  0  2  0  0  0  0  0  0
  190.1510  176.8090  141.4590 C   0  0  0  0  0  2  0  0  0  0  0  0
  189.2730  177.6370  142.3930 C   0  0  1  0  0  3  0  0  0  0  0  0
  187.8970  176.9990  142.6260 C   0  0  0  0  0  2  0  0  0  0  0  0
  185.8980  178.2550  143.5360 C   0  0  0  0  0  0  0  0  0  0  0  0
  185.9290  177.5990  144.6110 O   0  0  0  0  0  0  0  0  0  0  0  0
  186.8440  177.9970  142.4970 N   0  0  0  0  0  2  0  0  0  0  0  0
  184.8860  179.3310  143.3590 C   0  0  0  0  0  2  0  0  0  0  0  0
  182.5140  178.8630  143.8860 C   0  0  0  0  0  1  0  0  0  0  0  0
  183.8560  179.2550  144.4690 C   0  0  0  0  0  2  0  0  0  0  0  0
  189.9930  177.9770  143.6300 N   0  0  0  0  0  0  0  0  0  0  0  0
  191.2580  179.7360  143.9540 C   0  0  0  0  0  1  0  0  0  0  0  0
  191.2260  178.4800  143.3430 O   0  0  0  0  0  0  0  0  0  0  0  0
  190.1150  176.7660  144.4570 C   0  0  0  0  0  3  0  0  0  0  0  0
  191.5660  176.3740  144.7350 C   0  0  0  0  0  2  0  0  0  0  0  0
  191.9310  176.7750  146.0210 O   0  0  0  0  0  1  0  0  0  0  0  0
  188.8320  178.2280  145.8420 O   0  0  0  0  0  1  0  0  0  0  0  0
  189.3510  176.9370  145.7620 C   0  0  0  0  0  2  0  0  0  0  0  0
  1 26  1  1  0  0  0
  2  1  1  0  0  0  0
  2  5  1  0  0  0  0
  3  6  2  0  0  0  0
  4  3  1  0  0  0  0
  4  2  2  0  0  0  0
  6  5  1  0  0  0  0
  7  8  1  1  0  0  0
  7  3  1  0  0  0  0
  7  9  1  0  0  0  0
  9 10  3  0  0  0  0
 10 11  1  0  0  0  0
 12 20  1  0  0  0  0
 13 12  1  0  0  0  0
 13 21  2  0  0  0  0
 14 18  1  0  0  0  0
 14 12  1  0  0  0  0
 16 17  2  0  0  0  0
 16 19  1  0  0  0  0
 17 18  1  0  0  0  0
 19 14  2  0  0  0  0
 20 15  2  0  0  0  0
 21 11  1  0  0  0  0
 21 15  1  0  0  0  0
 22 25  1  0  0  0  0
 22 24  1  0  0  0  0
 24 23  1  0  0  0  0
 24  1  1  0  0  0  0
 25 23  1  0  0  0  0
 26 27  1  0  0  0  0
 28 27  1  1  0  0  0
 28 29  1  0  0  0  0
 28 36  1  0  0  0  0
 30 31  2  0  0  0  0
 32 29  1  0  0  0  0
 32 30  1  0  0  0  0
 33 30  1  0  0  0  0
 33 35  1  0  0  0  0
 34 35  1  0  0  0  0
 36 39  1  0  0  0  0
 38 36  1  0  0  0  0
 38 37  1  0  0  0  0
 39 40  1  0  0  0  0
 39 43  1  0  0  0  0
 40 41  1  0  0  0  0
 43 42  1  0  0  0  0
M  END
>  <MODEL>
3

>  <REMARK>
 VINA RESULT:      -6.5      2.452      6.970
  Name = 
  18 active torsions:
  status: ('A' for Active; 'I' for Inactive)
    1  A    between atoms: C_3  and  C_9
    2  A    between atoms: C_3  and  C_22
    3  A    between atoms: C_5  and  C_42
    4  A    between atoms: C_8  and  C_35
    5  A    between atoms: C_12  and  N_24
    6  A    between atoms: C_12  and  C_27
    7  A    between atoms: C_13  and  C_39
    8  A    between atoms: C_14  and  C_21
    9  A    between atoms: C_14  and  C_41
   10  A    between atoms: C_15  and  C_42
   11  A    between atoms: C_18  and  C_39
   12  A    between atoms: N_23  and  C_35
   13  A    between atoms: N_24  and  C_35
   14  A    between atoms: C_27  and  N_28
   15  A    between atoms: C_27  and  C_43
   16  A    between atoms: N_28  and  O_37
   17  A    between atoms: N_28  and  C_42
   18  A    between atoms: N_32  and  C_43
                            x       y       z     vdW  Elec       q    Type
                         _______ _______ _______ _____ _____    ______ ____

>  <TORSDO>
F 18

$$$$
=
 OpenBabel10222415183D

 43 46  0  0  1  0  0  0  0  0999 V2000
  186.0000  178.3390  143.2010 C   0  0  1  0  0  3  0  0  0  0  0  0
  185.3650  178.6440  141.8800 C   0  0  0  0  0  0  0  0  0  0  0  0
  184.0380  178.7160  140.0700 C   0  0  0  0  0  0  0  0  0  0  0  0
  184.2020  177.9090  141.3150 C   0  0  0  0  0  2  0  0  0  0  0  0
  185.7320  179.6230  141.1220 N   0  0  0  0  0  0  0  0  0  0  0  0
  184.9030  179.6700  140.0010 N   0  0  0  0  0  0  0  0  0  0  0  0
  182.9340  178.5590  139.0790 C   0  0  1  0  0  3  0  0  0  0  0  0
  182.3640  179.8550  138.7560 N   0  0  0  0  0  1  0  0  0  0  0  0
  183.4430  177.9240  137.8600 C   0  0  0  0  0  0  0  0  0  0  0  0
  183.8540  177.4030  136.8520 C   0  0  0  0  0  0  0  0  0  0  0  0
  184.3510  176.7720  135.6280 C   0  0  0  0  0  2  0  0  0  0  0  0
  187.9370  176.3320  135.9440 N   0  0  0  0  0  0  0  0  0  0  0  0
  186.6880  175.9790  136.3020 C   0  0  0  0  0  3  0  0  0  0  0  0
  189.1430  175.7370  136.4300 C   0  0  0  0  0  0  0  0  0  0  0  0
  186.6220  177.6350  134.8180 C   0  0  0  0  0  3  0  0  0  0  0  0
  190.4840  174.4250  137.5450 N   0  0  0  0  0  0  0  0  0  0  0  0
  191.2860  175.1690  136.8560 C   0  0  0  0  0  3  0  0  0  0  0  0
  190.5150  176.1410  136.0230 C   0  0  0  0  0  3  0  0  0  0  0  0
  189.1580  174.7720  137.2850 N   0  0  0  0  0  2  0  0  0  0  0  0
  187.9090  177.3180  135.0590 N   0  0  0  0  0  0  0  0  0  0  0  0
  185.8390  176.8070  135.6000 C   0  0  0  0  0  0  0  0  0  0  0  0
  184.5400  179.3770  144.7550 C   0  0  0  0  0  2  0  0  0  0  0  0
  185.6520  177.8430  145.4950 C   0  0  0  0  0  2  0  0  0  0  0  0
  184.9790  178.0890  144.2220 N   0  0  0  0  0  0  0  0  0  0  0  0
  185.2080  179.1580  146.0900 C   0  0  0  0  0  2  0  0  0  0  0  0
  186.8610  177.1740  143.0530 N   0  0  0  0  0  2  0  0  0  0  0  0
  188.0170  177.3970  143.9080 C   0  0  0  0  0  2  0  0  0  0  0  0
  189.2020  177.9270  143.1060 C   0  0  1  0  0  3  0  0  0  0  0  0
  190.3280  178.4570  144.0040 C   0  0  0  0  0  2  0  0  0  0  0  0
  190.7990  177.3080  146.2090 C   0  0  0  0  0  0  0  0  0  0  0  0
  191.7740  176.6810  145.7160 O   0  0  0  0  0  0  0  0  0  0  0  0
  190.0250  178.2020  145.4060 N   0  0  0  0  0  2  0  0  0  0  0  0
  190.4690  177.1410  147.6490 C   0  0  0  0  0  2  0  0  0  0  0  0
  188.1120  177.3320  148.3800 C   0  0  0  0  0  1  0  0  0  0  0  0
  189.3680  178.1070  148.0400 C   0  0  0  0  0  2  0  0  0  0  0  0
  189.6460  176.9420  142.1090 N   0  0  0  0  0  0  0  0  0  0  0  0
  190.3470  175.1090  143.0860 C   0  0  0  0  0  1  0  0  0  0  0  0
  190.7810  176.3150  142.5270 O   0  0  0  0  0  0  0  0  0  0  0  0
  189.8860  177.6330  140.8310 C   0  0  0  0  0  3  0  0  0  0  0  0
  191.0680  177.0570  140.0520 C   0  0  0  0  0  2  0  0  0  0  0  0
  192.2410  177.7280  140.3980 O   0  0  0  0  0  1  0  0  0  0  0  0
  188.5000  178.8300  139.3000 O   0  0  0  0  0  1  0  0  0  0  0  0
  188.6280  177.6180  139.9760 C   0  0  0  0  0  2  0  0  0  0  0  0
  1 26  1  6  0  0  0
  1 24  1  0  0  0  0
  2  1  1  0  0  0  0
  3  4  1  0  0  0  0
  4  2  1  0  0  0  0
  5  2  2  0  0  0  0
  6  3  2  0  0  0  0
  6  5  1  0  0  0  0
  7  8  1  6  0  0  0
  7  3  1  0  0  0  0
  9  7  1  0  0  0  0
 10  9  3  0  0  0  0
 11 10  1  0  0  0  0
 12 13  1  0  0  0  0
 12 14  1  0  0  0  0
 14 19  1  0  0  0  0
 15 20  2  0  0  0  0
 15 21  1  0  0  0  0
 17 16  2  0  0  0  0
 18 14  2  0  0  0  0
 18 17  1  0  0  0  0
 19 16  1  0  0  0  0
 20 12  1  0  0  0  0
 21 11  1  0  0  0  0
 21 13  2  0  0  0  0
 22 25  1  0  0  0  0
 23 25  1  0  0  0  0
 24 22  1  0  0  0  0
 24 23  1  0  0  0  0
 26 27  1  0  0  0  0
 28 27  1  1  0  0  0
 28 29  1  0  0  0  0
 29 32  1  0  0  0  0
 30 33  1  0  0  0  0
 31 30  2  0  0  0  0
 32 30  1  0  0  0  0
 33 35  1  0  0  0  0
 35 34  1  0  0  0  0
 36 38  1  0  0  0  0
 36 28  1  0  0  0  0
 38 37  1  0  0  0  0
 39 36  1  0  0  0  0
 40 41  1  0  0  0  0
 40 39  1  0  0  0  0
 42 43  1  0  0  0  0
 43 39  1  0  0  0  0
M  END
>  <MODEL>
4

>  <REMARK>
 VINA RESULT:      -6.4      1.067      3.857
  Name = 
  18 active torsions:
  status: ('A' for Active; 'I' for Inactive)
    1  A    between atoms: C_3  and  C_9
    2  A    between atoms: C_3  and  C_22
    3  A    between atoms: C_5  and  C_42
    4  A    between atoms: C_8  and  C_35
    5  A    between atoms: C_12  and  N_24
    6  A    between atoms: C_12  and  C_27
    7  A    between atoms: C_13  and  C_39
    8  A    between atoms: C_14  and  C_21
    9  A    between atoms: C_14  and  C_41
   10  A    between atoms: C_15  and  C_42
   11  A    between atoms: C_18  and  C_39
   12  A    between atoms: N_23  and  C_35
   13  A    between atoms: N_24  and  C_35
   14  A    between atoms: C_27  and  N_28
   15  A    between atoms: C_27  and  C_43
   16  A    between atoms: N_28  and  O_37
   17  A    between atoms: N_28  and  C_42
   18  A    between atoms: N_32  and  C_43
                            x       y       z     vdW  Elec       q    Type
                         _______ _______ _______ _____ _____    ______ ____

>  <TORSDO>
F 18

$$$$
=
 OpenBabel10222415183D

 43 46  0  0  1  0  0  0  0  0999 V2000
  183.6480  177.4960  137.7600 C   0  0  1  0  0  3  0  0  0  0  0  0
  185.0790  177.8270  138.0480 C   0  0  0  0  0  0  0  0  0  0  0  0
  187.2960  178.1740  137.9380 C   0  0  0  0  0  0  0  0  0  0  0  0
  186.2040  177.5930  137.1020 C   0  0  0  0  0  3  0  0  0  0  0  0
  185.4730  178.4080  139.1320 N   0  0  0  0  0  2  0  0  0  0  0  0
  186.8500  178.6280  139.0600 N   0  0  0  0  0  0  0  0  0  0  0  0
  188.7120  178.3550  137.5050 C   0  0  1  0  0  3  0  0  0  0  0  0
  188.9930  179.7640  137.2910 N   0  0  0  0  0  1  0  0  0  0  0  0
  189.6190  177.8170  138.5230 C   0  0  0  0  0  0  0  0  0  0  0  0
  190.3660  177.3820  139.3640 C   0  0  0  0  0  0  0  0  0  0  0  0
  191.2720  176.8570  140.3880 C   0  0  0  0  0  2  0  0  0  0  0  0
  190.4280  177.1560  143.9010 N   0  0  0  0  0  0  0  0  0  0  0  0
  191.3090  176.8090  142.9450 C   0  0  0  0  0  3  0  0  0  0  0  0
  190.6530  177.0730  145.3110 C   0  0  0  0  0  0  0  0  0  0  0  0
  189.4280  177.5530  142.0220 C   0  0  0  0  0  3  0  0  0  0  0  0
  191.6480  176.6930  147.2160 N   0  0  0  0  0  0  0  0  0  0  0  0
  190.4880  177.1460  147.5610 C   0  0  0  0  0  3  0  0  0  0  0  0
  189.6660  177.4610  146.3540 C   0  0  0  0  0  2  0  0  0  0  0  0
  191.7540  176.6450  145.8260 N   0  0  0  0  0  0  0  0  0  0  0  0
  189.3030  177.6020  143.3620 N   0  0  0  0  0  0  0  0  0  0  0  0
  190.6820  177.0470  141.7410 C   0  0  0  0  0  0  0  0  0  0  0  0
  182.9200  177.1180  135.5350 C   0  0  0  0  0  2  0  0  0  0  0  0
  182.3220  175.7290  136.8950 C   0  0  0  0  0  2  0  0  0  0  0  0
  183.5510  176.4940  136.6960 N   0  0  0  0  0  0  0  0  0  0  0  0
  181.6380  176.3390  135.6960 C   0  0  0  0  0  2  0  0  0  0  0  0
  183.0250  177.0000  138.9790 N   0  0  0  0  0  2  0  0  0  0  0  0
  182.0630  178.0080  139.3960 C   0  0  0  0  0  2  0  0  0  0  0  0
  181.8610  177.9860  140.9090 C   0  0  1  0  0  3  0  0  0  0  0  0
  182.6980  179.0520  141.6290 C   0  0  0  0  0  2  0  0  0  0  0  0
  183.9560  179.1520  143.8220 C   0  0  0  0  0  0  0  0  0  0  0  0
  184.8830  179.8280  143.3010 O   0  0  0  0  0  0  0  0  0  0  0  0
  182.8410  178.7210  143.0400 N   0  0  0  0  0  2  0  0  0  0  0  0
  184.0060  178.8280  145.2720 C   0  0  0  0  0  2  0  0  0  0  0  0
  186.1560  177.6660  145.6650 C   0  0  0  0  0  1  0  0  0  0  0  0
  185.4240  178.9870  145.7850 C   0  0  0  0  0  2  0  0  0  0  0  0
  180.4300  178.0170  141.2500 N   0  0  0  0  0  0  0  0  0  0  0  0
  179.1330  176.3530  140.6580 C   0  0  0  0  0  1  0  0  0  0  0  0
  179.6800  177.5580  140.2090 O   0  0  0  0  0  0  0  0  0  0  0  0
  180.0500  179.3990  141.5820 C   0  0  0  0  0  3  0  0  0  0  0  0
  179.3000  180.1030  140.4510 C   0  0  0  0  0  2  0  0  0  0  0  0
  180.0380  181.1970  139.9970 O   0  0  0  0  0  1  0  0  0  0  0  0
  179.4170  178.2450  143.5740 O   0  0  0  0  0  1  0  0  0  0  0  0
  179.2290  179.4290  142.8630 C   0  0  0  0  0  2  0  0  0  0  0  0
  1  2  1  0  0  0  0
  1 26  1  1  0  0  0
  2  5  1  0  0  0  0
  3  6  2  0  0  0  0
  4  3  1  0  0  0  0
  4  2  2  0  0  0  0
  6  5  1  0  0  0  0
  7  8  1  1  0  0  0
  7  3  1  0  0  0  0
  7  9  1  0  0  0  0
  9 10  3  0  0  0  0
 10 11  1  0  0  0  0
 11 21  1  0  0  0  0
 12 14  1  0  0  0  0
 13 12  1  0  0  0  0
 14 19  2  0  0  0  0
 14 18  1  0  0  0  0
 15 20  2  0  0  0  0
 16 17  2  0  0  0  0
 18 17  1  0  0  0  0
 19 16  1  0  0  0  0
 20 12  1  0  0  0  0
 21 15  1  0  0  0  0
 21 13  2  0  0  0  0
 22 25  1  0  0  0  0
 22 24  1  0  0  0  0
 24 23  1  0  0  0  0
 24  1  1  0  0  0  0
 25 23  1  0  0  0  0
 26 27  1  0  0  0  0
 28 27  1  6  0  0  0
 28 36  1  0  0  0  0
 28 29  1  0  0  0  0
 29 32  1  0  0  0  0
 30 33  1  0  0  0  0
 31 30  2  0  0  0  0
 32 30  1  0  0  0  0
 33 35  1  0  0  0  0
 34 35  1  0  0  0  0
 36 39  1  0  0  0  0
 38 37  1  0  0  0  0
 38 36  1  0  0  0  0
 39 43  1  0  0  0  0
 40 39  1  0  0  0  0
 41 40  1  0  0  0  0
 43 42  1  0  0  0  0
M  END
>  <MODEL>
5

>  <REMARK>
 VINA RESULT:      -6.4      3.860      8.939
  Name = 
  18 active torsions:
  status: ('A' for Active; 'I' for Inactive)
    1  A    between atoms: C_3  and  C_9
    2  A    between atoms: C_3  and  C_22
    3  A    between atoms: C_5  and  C_42
    4  A    between atoms: C_8  and  C_35
    5  A    between atoms: C_12  and  N_24
    6  A    between atoms: C_12  and  C_27
    7  A    between atoms: C_13  and  C_39
    8  A    between atoms: C_14  and  C_21
    9  A    between atoms: C_14  and  C_41
   10  A    between atoms: C_15  and  C_42
   11  A    between atoms: C_18  and  C_39
   12  A    between atoms: N_23  and  C_35
   13  A    between atoms: N_24  and  C_35
   14  A    between atoms: C_27  and  N_28
   15  A    between atoms: C_27  and  C_43
   16  A    between atoms: N_28  and  O_37
   17  A    between atoms: N_28  and  C_42
   18  A    between atoms: N_32  and  C_43
                            x       y       z     vdW  Elec       q    Type
                         _______ _______ _______ _____ _____    ______ ____

>  <TORSDO>
F 18

$$$$
=
 OpenBabel10222415183D

 43 46  0  0  1  0  0  0  0  0999 V2000
  187.2260  178.2370  138.6680 C   0  0  1  0  0  3  0  0  0  0  0  0
  185.7680  178.4760  138.9040 C   0  0  0  0  0  0  0  0  0  0  0  0
  183.5220  178.4090  138.8920 C   0  0  0  0  0  0  0  0  0  0  0  0
  184.6720  177.7970  138.1610 C   0  0  0  0  0  3  0  0  0  0  0  0
  185.3130  179.2600  139.8250 N   0  0  0  0  0  2  0  0  0  0  0  0
  183.9180  179.2120  139.8200 N   0  0  0  0  0  0  0  0  0  0  0  0
  182.0870  178.0500  138.6980 C   0  0  1  0  0  3  0  0  0  0  0  0
  181.4620  178.9730  137.7670 N   0  0  0  0  0  1  0  0  0  0  0  0
  181.9790  176.6810  138.1870 C   0  0  0  0  0  0  0  0  0  0  0  0
  181.8830  175.5520  137.7710 C   0  0  0  0  0  0  0  0  0  0  0  0
  181.7650  174.1820  137.2690 C   0  0  0  0  0  2  0  0  0  0  0  0
  185.2730  173.2980  137.0230 N   0  0  0  0  0  0  0  0  0  0  0  0
  184.3200  174.2400  137.1550 C   0  0  0  0  0  3  0  0  0  0  0  0
  186.6830  173.5380  137.0040 C   0  0  0  0  0  0  0  0  0  0  0  0
  183.3920  172.2260  136.9780 C   0  0  0  0  0  3  0  0  0  0  0  0
  188.5890  174.5980  137.0610 N   0  0  0  0  0  0  0  0  0  0  0  0
  188.9310  173.3600  136.9160 C   0  0  0  0  0  3  0  0  0  0  0  0
  187.7220  172.4840  136.8570 C   0  0  0  0  0  3  0  0  0  0  0  0
  187.2000  174.7130  137.1160 N   0  0  0  0  0  2  0  0  0  0  0  0
  184.7310  172.0940  136.9180 N   0  0  0  0  0  0  0  0  0  0  0  0
  183.1150  173.5720  137.1180 C   0  0  0  0  0  0  0  0  0  0  0  0
  187.7180  178.1580  136.3490 C   0  0  0  0  0  2  0  0  0  0  0  0
  189.1630  178.9830  137.5180 C   0  0  0  0  0  2  0  0  0  0  0  0
  187.7030  179.0230  137.5270 N   0  0  0  0  0  0  0  0  0  0  0  0
  189.2250  178.1010  136.2950 C   0  0  0  0  0  2  0  0  0  0  0  0
  187.9630  178.5950  139.8710 N   0  0  0  0  0  2  0  0  0  0  0  0
  188.1380  177.3700  140.6350 C   0  0  0  0  0  2  0  0  0  0  0  0
  188.7030  177.6600  142.0220 C   0  0  1  0  0  3  0  0  0  0  0  0
  188.1010  176.7520  143.1030 C   0  0  0  0  0  2  0  0  0  0  0  0
  187.0510  177.8470  145.1280 C   0  0  0  0  0  0  0  0  0  0  0  0
  188.0820  177.6380  145.8220 O   0  0  0  0  0  0  0  0  0  0  0  0
  186.9890  177.4190  143.7670 N   0  0  0  0  0  2  0  0  0  0  0  0
  185.8990  178.5760  145.7230 C   0  0  0  0  0  2  0  0  0  0  0  0
  183.6340  178.8530  144.7650 C   0  0  0  0  0  1  0  0  0  0  0  0
  185.0910  179.2430  144.6270 C   0  0  0  0  0  2  0  0  0  0  0  0
  190.1740  177.6700  142.0000 N   0  0  0  0  0  0  0  0  0  0  0  0
  191.4990  177.3270  140.2880 C   0  0  0  0  0  1  0  0  0  0  0  0
  190.6470  176.6820  141.1900 O   0  0  0  0  0  0  0  0  0  0  0  0
  190.6720  177.4870  143.3720 C   0  0  0  0  0  3  0  0  0  0  0  0
  191.3770  176.1470  143.5800 C   0  0  0  0  0  2  0  0  0  0  0  0
  191.7670  176.0140  144.9130 O   0  0  0  0  0  1  0  0  0  0  0  0
  190.8350  179.7740  144.0400 O   0  0  0  0  0  1  0  0  0  0  0  0
  191.5910  178.6360  143.7600 C   0  0  0  0  0  2  0  0  0  0  0  0
  1  2  1  0  0  0  0
  1 26  1  1  0  0  0
  2  5  1  0  0  0  0
  3  6  2  0  0  0  0
  4  3  1  0  0  0  0
  4  2  2  0  0  0  0
  6  5  1  0  0  0  0
  7  8  1  6  0  0  0
  7  3  1  0  0  0  0
  9  7  1  0  0  0  0
 10  9  3  0  0  0  0
 11 10  1  0  0  0  0
 12 13  1  0  0  0  0
 14 12  1  0  0  0  0
 14 19  1  0  0  0  0
 15 21  1  0  0  0  0
 16 19  1  0  0  0  0
 17 16  2  0  0  0  0
 18 17  1  0  0  0  0
 18 14  2  0  0  0  0
 20 15  2  0  0  0  0
 20 12  1  0  0  0  0
 21 13  2  0  0  0  0
 21 11  1  0  0  0  0
 22 24  1  0  0  0  0
 23 24  1  0  0  0  0
 24  1  1  0  0  0  0
 25 22  1  0  0  0  0
 25 23  1  0  0  0  0
 26 27  1  0  0  0  0
 28 27  1  6  0  0  0
 28 29  1  0  0  0  0
 29 32  1  0  0  0  0
 30 33  1  0  0  0  0
 30 31  2  0  0  0  0
 32 30  1  0  0  0  0
 35 34  1  0  0  0  0
 35 33  1  0  0  0  0
 36 28  1  0  0  0  0
 36 39  1  0  0  0  0
 37 38  1  0  0  0  0
 38 36  1  0  0  0  0
 39 40  1  0  0  0  0
 39 43  1  0  0  0  0
 40 41  1  0  0  0  0
 43 42  1  0  0  0  0
M  END
>  <MODEL>
6

>  <REMARK>
 VINA RESULT:      -6.3      2.092      4.747
  Name = 
  18 active torsions:
  status: ('A' for Active; 'I' for Inactive)
    1  A    between atoms: C_3  and  C_9
    2  A    between atoms: C_3  and  C_22
    3  A    between atoms: C_5  and  C_42
    4  A    between atoms: C_8  and  C_35
    5  A    between atoms: C_12  and  N_24
    6  A    between atoms: C_12  and  C_27
    7  A    between atoms: C_13  and  C_39
    8  A    between atoms: C_14  and  C_21
    9  A    between atoms: C_14  and  C_41
   10  A    between atoms: C_15  and  C_42
   11  A    between atoms: C_18  and  C_39
   12  A    between atoms: N_23  and  C_35
   13  A    between atoms: N_24  and  C_35
   14  A    between atoms: C_27  and  N_28
   15  A    between atoms: C_27  and  C_43
   16  A    between atoms: N_28  and  O_37
   17  A    between atoms: N_28  and  C_42
   18  A    between atoms: N_32  and  C_43
                            x       y       z     vdW  Elec       q    Type
                         _______ _______ _______ _____ _____    ______ ____

>  <TORSDO>
F 18

$$$$
=
 OpenBabel10222415183D

 43 46  0  0  1  0  0  0  0  0999 V2000
  185.9080  178.5370  143.0620 C   0  0  1  0  0  3  0  0  0  0  0  0
  185.1160  178.7650  141.8120 C   0  0  0  0  0  0  0  0  0  0  0  0
  183.5190  178.8600  140.2360 C   0  0  0  0  0  0  0  0  0  0  0  0
  183.7370  178.2570  141.5840 C   0  0  0  0  0  2  0  0  0  0  0  0
  185.5360  179.4820  140.8230 N   0  0  0  0  0  0  0  0  0  0  0  0
  184.5400  179.5450  139.8480 N   0  0  0  0  0  0  0  0  0  0  0  0
  182.2410  178.8190  139.4680 C   0  0  1  0  0  3  0  0  0  0  0  0
  182.3150  179.7100  138.3230 N   0  0  0  0  0  1  0  0  0  0  0  0
  181.9740  177.4500  139.0140 C   0  0  0  0  0  0  0  0  0  0  0  0
  181.7520  176.3280  138.6340 C   0  0  0  0  0  0  0  0  0  0  0  0
  181.4800  174.9660  138.1680 C   0  0  0  0  0  2  0  0  0  0  0  0
  184.4950  173.7060  136.5950 N   0  0  0  0  0  0  0  0  0  0  0  0
  183.8400  174.0930  137.7060 C   0  0  0  0  0  3  0  0  0  0  0  0
  185.8370  173.2150  136.5480 C   0  0  0  0  0  0  0  0  0  0  0  0
  182.5270  174.3130  135.9240 C   0  0  0  0  0  3  0  0  0  0  0  0
  187.8210  172.5860  137.2050 N   0  0  0  0  0  0  0  0  0  0  0  0
  187.8490  172.4030  135.9250 C   0  0  0  0  0  3  0  0  0  0  0  0
  186.5450  172.7930  135.3090 C   0  0  0  0  0  3  0  0  0  0  0  0
  186.5790  173.0880  137.5940 N   0  0  0  0  0  2  0  0  0  0  0  0
  183.7210  173.8330  135.5270 N   0  0  0  0  0  0  0  0  0  0  0  0
  182.5880  174.4920  137.2930 C   0  0  0  0  0  0  0  0  0  0  0  0
  184.7930  179.4700  144.9360 C   0  0  0  0  0  2  0  0  0  0  0  0
  185.8390  177.7650  145.3050 C   0  0  0  0  0  2  0  0  0  0  0  0
  185.0220  178.2350  144.1890 N   0  0  0  0  0  0  0  0  0  0  0  0
  185.6180  179.0190  146.1160 C   0  0  0  0  0  2  0  0  0  0  0  0
  186.8340  177.4360  142.8390 N   0  0  0  0  0  2  0  0  0  0  0  0
  188.1740  177.9970  142.9060 C   0  0  0  0  0  2  0  0  0  0  0  0
  189.0120  177.5690  141.7050 C   0  0  1  0  0  3  0  0  0  0  0  0
  188.6990  178.3910  140.4470 C   0  0  0  0  0  2  0  0  0  0  0  0
  187.8020  177.9820  138.1160 C   0  0  0  0  0  0  0  0  0  0  0  0
  188.2590  179.0830  137.7080 O   0  0  0  0  0  0  0  0  0  0  0  0
  187.9750  177.5810  139.4760 N   0  0  0  0  0  2  0  0  0  0  0  0
  187.1030  177.0770  137.1650 C   0  0  0  0  0  2  0  0  0  0  0  0
  185.0430  177.1120  135.7950 C   0  0  0  0  0  1  0  0  0  0  0  0
  185.6160  177.3740  137.1720 C   0  0  0  0  0  2  0  0  0  0  0  0
  190.4410  177.5230  142.0490 N   0  0  0  0  0  0  0  0  0  0  0  0
  192.1150  177.4960  140.6340 C   0  0  0  0  0  1  0  0  0  0  0  0
  191.1130  176.7000  141.1960 O   0  0  0  0  0  0  0  0  0  0  0  0
  190.5830  177.0480  143.4340 C   0  0  0  0  0  3  0  0  0  0  0  0
  191.1870  175.6470  143.5280 C   0  0  0  0  0  2  0  0  0  0  0  0
  192.0470  175.5700  144.6240 O   0  0  0  0  0  1  0  0  0  0  0  0
  191.4500  179.2660  143.5990 O   0  0  0  0  0  1  0  0  0  0  0  0
  191.4010  178.0360  144.2530 C   0  0  0  0  0  2  0  0  0  0  0  0
  1 26  1  6  0  0  0
  1 24  1  0  0  0  0
  2  1  1  0  0  0  0
  3  4  1  0  0  0  0
  4  2  1  0  0  0  0
  5  2  2  0  0  0  0
  6  3  2  0  0  0  0
  6  5  1  0  0  0  0
  7  8  1  6  0  0  0
  7  3  1  0  0  0  0
  9  7  1  0  0  0  0
 10  9  3  0  0  0  0
 11 10  1  0  0  0  0
 12 13  1  0  0  0  0
 14 12  1  0  0  0  0
 14 19  1  0  0  0  0
 15 21  1  0  0  0  0
 16 19  1  0  0  0  0
 17 16  2  0  0  0  0
 18 17  1  0  0  0  0
 18 14  2  0  0  0  0
 20 15  2  0  0  0  0
 20 12  1  0  0  0  0
 21 13  2  0  0  0  0
 21 11  1  0  0  0  0
 22 25  1  0  0  0  0
 23 25  1  0  0  0  0
 24 22  1  0  0  0  0
 24 23  1  0  0  0  0
 26 27  1  0  0  0  0
 28 29  1  6  0  0  0
 28 36  1  0  0  0  0
 28 27  1  0  0  0  0
 30 32  1  0  0  0  0
 31 30  2  0  0  0  0
 32 29  1  0  0  0  0
 33 35  1  0  0  0  0
 33 30  1  0  0  0  0
 34 35  1  0  0  0  0
 36 39  1  0  0  0  0
 37 38  1  0  0  0  0
 38 36  1  0  0  0  0
 39 40  1  0  0  0  0
 39 43  1  0  0  0  0
 40 41  1  0  0  0  0
 42 43  1  0  0  0  0
M  END
>  <MODEL>
7

>  <REMARK>
 VINA RESULT:      -6.2      2.057      3.062
  Name = 
  18 active torsions:
  status: ('A' for Active; 'I' for Inactive)
    1  A    between atoms: C_3  and  C_9
    2  A    between atoms: C_3  and  C_22
    3  A    between atoms: C_5  and  C_42
    4  A    between atoms: C_8  and  C_35
    5  A    between atoms: C_12  and  N_24
    6  A    between atoms: C_12  and  C_27
    7  A    between atoms: C_13  and  C_39
    8  A    between atoms: C_14  and  C_21
    9  A    between atoms: C_14  and  C_41
   10  A    between atoms: C_15  and  C_42
   11  A    between atoms: C_18  and  C_39
   12  A    between atoms: N_23  and  C_35
   13  A    between atoms: N_24  and  C_35
   14  A    between atoms: C_27  and  N_28
   15  A    between atoms: C_27  and  C_43
   16  A    between atoms: N_28  and  O_37
   17  A    between atoms: N_28  and  C_42
   18  A    between atoms: N_32  and  C_43
                            x       y       z     vdW  Elec       q    Type
                         _______ _______ _______ _____ _____    ______ ____

>  <TORSDO>
F 18

$$$$
=
 OpenBabel10222415183D

 43 46  0  0  1  0  0  0  0  0999 V2000
  188.9690  177.1070  139.7900 C   0  0  1  0  0  3  0  0  0  0  0  0
  189.6570  177.2470  141.1120 C   0  0  0  0  0  0  0  0  0  0  0  0
  190.2950  177.0880  143.2600 C   0  0  0  0  0  0  0  0  0  0  0  0
  189.1720  176.6430  142.3820 C   0  0  0  0  0  2  0  0  0  0  0  0
  190.7820  177.8620  141.2680 N   0  0  0  0  0  0  0  0  0  0  0  0
  191.1800  177.7570  142.6020 N   0  0  0  0  0  0  0  0  0  0  0  0
  190.4780  176.7040  144.6890 C   0  0  1  0  0  3  0  0  0  0  0  0
  191.7050  177.2810  145.2100 N   0  0  0  0  0  1  0  0  0  0  0  0
  189.3360  177.1680  145.4820 C   0  0  0  0  0  0  0  0  0  0  0  0
  188.3980  177.5450  146.1400 C   0  0  0  0  0  0  0  0  0  0  0  0
  187.2590  177.9990  146.9420 C   0  0  0  0  0  2  0  0  0  0  0  0
  184.8030  178.4760  144.3160 N   0  0  0  0  0  0  0  0  0  0  0  0
  186.0600  178.1700  144.6880 C   0  0  0  0  0  3  0  0  0  0  0  0
  184.3130  178.4940  142.9730 C   0  0  0  0  0  0  0  0  0  0  0  0
  184.8240  178.6410  146.4760 C   0  0  0  0  0  3  0  0  0  0  0  0
  184.2670  178.3190  140.7980 N   0  0  0  0  0  0  0  0  0  0  0  0
  183.0600  178.6690  141.1030 C   0  0  0  0  0  3  0  0  0  0  0  0
  182.9190  178.8340  142.5820 C   0  0  0  0  0  2  0  0  0  0  0  0
  185.0450  178.2090  141.9510 N   0  0  0  0  0  0  0  0  0  0  0  0
  184.0580  178.7570  145.3740 N   0  0  0  0  0  0  0  0  0  0  0  0
  186.0920  178.2810  146.0610 C   0  0  0  0  0  0  0  0  0  0  0  0
  187.1990  178.0270  138.5070 C   0  0  0  0  0  2  0  0  0  0  0  0
  188.9990  178.9510  138.2970 C   0  0  0  0  0  2  0  0  0  0  0  0
  188.2890  178.3530  139.4250 N   0  0  0  0  0  0  0  0  0  0  0  0
  187.8910  178.6470  137.3180 C   0  0  0  0  0  2  0  0  0  0  0  0
  189.9560  176.7560  138.7790 N   0  0  0  0  0  2  0  0  0  0  0  0
  189.5140  175.5070  138.1800 C   0  0  0  0  0  2  0  0  0  0  0  0
  190.5900  174.9180  137.2720 C   0  0  1  0  0  3  0  0  0  0  0  0
  190.1180  173.6510  136.5460 C   0  0  0  0  0  2  0  0  0  0  0  0
  187.9300  172.5140  135.9770 C   0  0  0  0  0  0  0  0  0  0  0  0
  188.4800  171.8240  135.0780 O   0  0  0  0  0  0  0  0  0  0  0  0
  188.6880  173.4560  136.7390 N   0  0  0  0  0  2  0  0  0  0  0  0
  186.4840  172.3240  136.2700 C   0  0  0  0  0  2  0  0  0  0  0  0
  184.7500  173.5760  137.5140 C   0  0  0  0  0  1  0  0  0  0  0  0
  186.1390  172.9760  137.5940 C   0  0  0  0  0  2  0  0  0  0  0  0
  191.1470  175.9470  136.3800 N   0  0  0  0  0  0  0  0  0  0  0  0
  189.9930  176.6920  134.6720 C   0  0  0  0  0  1  0  0  0  0  0  0
  190.8500  175.6660  135.0800 O   0  0  0  0  0  0  0  0  0  0  0  0
  192.6050  176.0020  136.5690 C   0  0  0  0  0  3  0  0  0  0  0  0
  193.0770  175.2570  137.8170 C   0  0  0  0  0  2  0  0  0  0  0  0
  194.1350  175.9440  138.4130 O   0  0  0  0  0  1  0  0  0  0  0  0
  193.8510  174.2130  135.5950 O   0  0  0  0  0  1  0  0  0  0  0  0
  193.3200  175.4750  135.3330 C   0  0  0  0  0  2  0  0  0  0  0  0
  1 26  1  6  0  0  0
  1  2  1  0  0  0  0
  2  5  2  0  0  0  0
  2  4  1  0  0  0  0
  3  7  1  0  0  0  0
  4  3  1  0  0  0  0
  5  6  1  0  0  0  0
  6  3  2  0  0  0  0
  7  8  1  1  0  0  0
  7  9  1  0  0  0  0
  9 10  3  0  0  0  0
 10 11  1  0  0  0  0
 12 13  1  0  0  0  0
 12 20  1  0  0  0  0
 13 21  2  0  0  0  0
 14 12  1  0  0  0  0
 16 17  2  0  0  0  0
 16 19  1  0  0  0  0
 17 18  1  0  0  0  0
 18 14  1  0  0  0  0
 19 14  2  0  0  0  0
 20 15  2  0  0  0  0
 21 15  1  0  0  0  0
 21 11  1  0  0  0  0
 22 24  1  0  0  0  0
 23 24  1  0  0  0  0
 24  1  1  0  0  0  0
 25 23  1  0  0  0  0
 25 22  1  0  0  0  0
 27 26  1  0  0  0  0
 28 29  1  6  0  0  0
 28 27  1  0  0  0  0
 29 32  1  0  0  0  0
 30 33  1  0  0  0  0
 30 32  1  0  0  0  0
 31 30  2  0  0  0  0
 33 35  1  0  0  0  0
 34 35  1  0  0  0  0
 36 39  1  0  0  0  0
 36 28  1  0  0  0  0
 37 38  1  0  0  0  0
 38 36  1  0  0  0  0
 39 40  1  0  0  0  0
 40 41  1  0  0  0  0
 43 42  1  0  0  0  0
 43 39  1  0  0  0  0
M  END
>  <MODEL>
8

>  <REMARK>
 VINA RESULT:      -6.1      3.179      8.623
  Name = 
  18 active torsions:
  status: ('A' for Active; 'I' for Inactive)
    1  A    between atoms: C_3  and  C_9
    2  A    between atoms: C_3  and  C_22
    3  A    between atoms: C_5  and  C_42
    4  A    between atoms: C_8  and  C_35
    5  A    between atoms: C_12  and  N_24
    6  A    between atoms: C_12  and  C_27
    7  A    between atoms: C_13  and  C_39
    8  A    between atoms: C_14  and  C_21
    9  A    between atoms: C_14  and  C_41
   10  A    between atoms: C_15  and  C_42
   11  A    between atoms: C_18  and  C_39
   12  A    between atoms: N_23  and  C_35
   13  A    between atoms: N_24  and  C_35
   14  A    between atoms: C_27  and  N_28
   15  A    between atoms: C_27  and  C_43
   16  A    between atoms: N_28  and  O_37
   17  A    between atoms: N_28  and  C_42
   18  A    between atoms: N_32  and  C_43
                            x       y       z     vdW  Elec       q    Type
                         _______ _______ _______ _____ _____    ______ ____

>  <TORSDO>
F 18

$$$$
=
 OpenBabel10222415183D

 43 46  0  0  1  0  0  0  0  0999 V2000
  185.5340  178.5690  143.4470 C   0  0  1  0  0  3  0  0  0  0  0  0
  184.1030  178.7600  143.0530 C   0  0  0  0  0  0  0  0  0  0  0  0
  182.1400  178.8520  141.9640 C   0  0  0  0  0  0  0  0  0  0  0  0
  183.5810  178.5920  141.6690 C   0  0  0  0  0  3  0  0  0  0  0  0
  183.1620  179.0330  143.8940 N   0  0  0  0  0  2  0  0  0  0  0  0
  181.9420  179.0840  143.2170 N   0  0  0  0  0  0  0  0  0  0  0  0
  181.0230  178.7240  140.9840 C   0  0  1  0  0  3  0  0  0  0  0  0
  180.9810  179.8890  140.1180 N   0  0  0  0  0  1  0  0  0  0  0  0
  181.2010  177.5120  140.1780 C   0  0  0  0  0  0  0  0  0  0  0  0
  181.3440  176.5110  139.5200 C   0  0  0  0  0  0  0  0  0  0  0  0
  181.5160  175.2940  138.7250 C   0  0  0  0  0  2  0  0  0  0  0  0
  184.7100  174.9400  137.0440 N   0  0  0  0  0  0  0  0  0  0  0  0
  183.8300  174.5080  137.9660 C   0  0  0  0  0  3  0  0  0  0  0  0
  185.9710  174.3340  136.7480 C   0  0  0  0  0  0  0  0  0  0  0  0
  183.0390  176.3150  136.9370 C   0  0  0  0  0  3  0  0  0  0  0  0
  187.6580  172.9520  136.8300 N   0  0  0  0  0  0  0  0  0  0  0  0
  187.9960  173.7940  135.9090 C   0  0  0  0  0  3  0  0  0  0  0  0
  186.9310  174.8260  135.7240 C   0  0  0  0  0  3  0  0  0  0  0  0
  186.4070  173.2820  137.3520 N   0  0  0  0  0  2  0  0  0  0  0  0
  184.2480  176.0160  136.4240 N   0  0  0  0  0  0  0  0  0  0  0  0
  182.7640  175.3810  137.9180 C   0  0  0  0  0  0  0  0  0  0  0  0
  186.2110  178.6290  145.7200 C   0  0  0  0  0  2  0  0  0  0  0  0
  186.8890  177.0370  144.6510 C   0  0  0  0  0  2  0  0  0  0  0  0
  185.6330  177.7810  144.6790 N   0  0  0  0  0  0  0  0  0  0  0  0
  187.5200  177.8790  145.7330 C   0  0  0  0  0  2  0  0  0  0  0  0
  186.2370  177.9000  142.3620 N   0  0  0  0  0  2  0  0  0  0  0  0
  186.8540  178.9430  141.5580 C   0  0  0  0  0  2  0  0  0  0  0  0
  188.1130  178.4310  140.8620 C   0  0  1  0  0  3  0  0  0  0  0  0
  188.6610  177.1510  141.5070 C   0  0  0  0  0  2  0  0  0  0  0  0
  190.5390  176.4620  143.0570 C   0  0  0  0  0  0  0  0  0  0  0  0
  190.3220  175.2410  142.8360 O   0  0  0  0  0  0  0  0  0  0  0  0
  189.7370  177.4690  142.4350 N   0  0  0  0  0  2  0  0  0  0  0  0
  191.6600  176.8610  143.9480 C   0  0  0  0  0  2  0  0  0  0  0  0
  191.6830  176.5370  146.4010 C   0  0  0  0  0  1  0  0  0  0  0  0
  191.1120  177.3650  145.2690 C   0  0  0  0  0  2  0  0  0  0  0  0
  187.9070  178.3300  139.4090 N   0  0  0  0  0  0  0  0  0  0  0  0
  185.9860  178.3340  138.3550 C   0  0  0  0  0  1  0  0  0  0  0  0
  186.8330  177.5390  139.1320 O   0  0  0  0  0  0  0  0  0  0  0  0
  189.1230  177.7730  138.7940 C   0  0  0  0  0  3  0  0  0  0  0  0
  189.0200  176.2740  138.5140 C   0  0  0  0  0  2  0  0  0  0  0  0
  190.2730  175.6760  138.6490 O   0  0  0  0  0  1  0  0  0  0  0  0
  188.9970  179.8400  137.6060 O   0  0  0  0  0  1  0  0  0  0  0  0
  189.4650  178.5300  137.5190 C   0  0  0  0  0  2  0  0  0  0  0  0
  1 26  1  6  0  0  0
  1 24  1  0  0  0  0
  2  1  1  0  0  0  0
  2  5  1  0  0  0  0
  3  6  2  0  0  0  0
  4  3  1  0  0  0  0
  4  2  2  0  0  0  0
  6  5  1  0  0  0  0
  7  8  1  6  0  0  0
  7  3  1  0  0  0  0
  9  7  1  0  0  0  0
 10  9  3  0  0  0  0
 11 10  1  0  0  0  0
 12 13  1  0  0  0  0
 14 12  1  0  0  0  0
 14 19  1  0  0  0  0
 15 21  1  0  0  0  0
 16 19  1  0  0  0  0
 17 16  2  0  0  0  0
 18 17  1  0  0  0  0
 18 14  2  0  0  0  0
 20 15  2  0  0  0  0
 20 12  1  0  0  0  0
 21 13  2  0  0  0  0
 21 11  1  0  0  0  0
 22 25  1  0  0  0  0
 23 24  1  0  0  0  0
 23 25  1  0  0  0  0
 24 22  1  0  0  0  0
 27 26  1  0  0  0  0
 28 29  1  1  0  0  0
 28 27  1  0  0  0  0
 29 32  1  0  0  0  0
 30 33  1  0  0  0  0
 31 30  2  0  0  0  0
 32 30  1  0  0  0  0
 33 35  1  0  0  0  0
 35 34  1  0  0  0  0
 36 28  1  0  0  0  0
 37 38  1  0  0  0  0
 38 36  1  0  0  0  0
 39 36  1  0  0  0  0
 40 41  1  0  0  0  0
 40 39  1  0  0  0  0
 43 42  1  0  0  0  0
 43 39  1  0  0  0  0
M  END
>  <MODEL>
9

>  <REMARK>
 VINA RESULT:      -6.1      2.334      4.709
  Name = 
  18 active torsions:
  status: ('A' for Active; 'I' for Inactive)
    1  A    between atoms: C_3  and  C_9
    2  A    between atoms: C_3  and  C_22
    3  A    between atoms: C_5  and  C_42
    4  A    between atoms: C_8  and  C_35
    5  A    between atoms: C_12  and  N_24
    6  A    between atoms: C_12  and  C_27
    7  A    between atoms: C_13  and  C_39
    8  A    between atoms: C_14  and  C_21
    9  A    between atoms: C_14  and  C_41
   10  A    between atoms: C_15  and  C_42
   11  A    between atoms: C_18  and  C_39
   12  A    between atoms: N_23  and  C_35
   13  A    between atoms: N_24  and  C_35
   14  A    between atoms: C_27  and  N_28
   15  A    between atoms: C_27  and  C_43
   16  A    between atoms: N_28  and  O_37
   17  A    between atoms: N_28  and  C_42
   18  A    between atoms: N_32  and  C_43
                            x       y       z     vdW  Elec       q    Type
                         _______ _______ _______ _____ _____    ______ ____

>  <TORSDO>
F 18

$$$$
