=
 OpenBabel10222418323D

 65 71  0  0  1  0  0  0  0  0999 V2000
  184.1640  177.8380  139.5250 C   0  0  1  0  0  3  0  0  0  0  0  0
  182.5500  179.2880  138.7930 C   0  0  1  0  0  3  0  0  0  0  0  0
  182.4710  179.3810  140.3230 C   0  0  1  0  0  3  0  0  0  0  0  0
  181.2440  178.9310  140.8270 O   0  0  0  0  0  1  0  0  0  0  0  0
  183.9430  178.2320  141.9170 N   0  0  0  0  0  0  0  0  0  0  0  0
  183.5420  178.4550  140.7120 C   0  0  0  0  0  0  0  0  0  0  0  0
  183.4920  178.3130  138.3790 O   0  0  0  0  0  0  0  0  0  0  0  0
  187.6700  178.9750  140.4800 C   0  0  0  0  0  3  0  0  0  0  0  0
  187.7360  178.1280  138.2140 C   0  0  0  0  0  3  0  0  0  0  0  0
  188.3880  178.6800  139.3190 C   0  0  0  0  0  3  0  0  0  0  0  0
  185.6350  178.1440  139.4370 C   0  0  0  0  0  0  0  0  0  0  0  0
  186.3000  178.7080  140.5390 C   0  0  0  0  0  3  0  0  0  0  0  0
  186.3620  177.8620  138.2610 C   0  0  0  0  0  0  0  0  0  0  0  0
  185.6990  177.3220  137.0270 C   0  0  0  0  0  2  0  0  0  0  0  0
  186.7150  176.9350  135.9510 C   0  0  0  0  0  2  0  0  0  0  0  0
  186.0420  176.4160  134.6850 C   0  0  1  0  0  3  0  0  0  0  0  0
  186.0010  174.9910  134.7210 O   0  0  0  0  0  0  0  0  0  0  0  0
  183.8860  175.6440  134.7450 C   0  0  0  0  0  0  0  0  0  0  0  0
  184.6630  176.7860  134.6770 O   0  0  0  0  0  0  0  0  0  0  0  0
  184.6720  174.5930  134.7580 C   0  0  0  0  0  0  0  0  0  0  0  0
  182.4230  175.6300  134.8010 C   0  0  0  0  0  3  0  0  0  0  0  0
  181.7730  176.4310  135.6350 C   0  0  0  0  0  3  0  0  0  0  0  0
  180.2880  176.4090  135.6920 C   0  0  0  0  0  2  0  0  0  0  0  0
  179.8480  175.8840  137.0410 C   0  0  0  0  0  1  0  0  0  0  0  0
  184.2310  173.2360  134.8160 N   0  0  0  0  0  2  0  0  0  0  0  0
  184.4520  172.7200  137.3450 C   0  0  0  0  0  2  0  0  0  0  0  0
  183.3940  171.9310  136.6250 C   0  0  1  0  0  3  0  0  0  0  0  0
  184.9560  171.0250  135.5360 O   0  0  0  0  0  0  0  0  0  0  0  0
  184.6500  172.3490  135.8890 C   0  0  1  0  0  0  0  0  0  0  0  0
  183.8550  170.5500  136.2570 C   0  0  0  0  0  2  0  0  0  0  0  0
  181.2140  179.1080  138.0670 C   0  0  0  0  0  2  0  0  0  0  0  0
  181.1140  180.0110  136.8430 C   0  0  0  0  0  2  0  0  0  0  0  0
  179.0860  181.2550  135.9680 C   0  0  0  0  0  2  0  0  0  0  0  0
  180.6390  182.6770  134.6760 O   0  0  0  0  0  0  0  0  0  0  0  0
  179.6350  181.6880  134.5960 C   0  0  0  0  0  2  0  0  0  0  0  0
  180.0810  183.8020  135.3090 C   0  0  0  0  0  2  0  0  0  0  0  0
  181.0680  184.9390  137.2910 C   0  0  0  0  0  1  0  0  0  0  0  0
  180.9530  182.4540  137.3110 C   0  0  0  0  0  2  0  0  0  0  0  0
  180.2590  183.7400  136.8380 C   0  0  2  0  0  3  0  0  0  0  0  0
  180.1480  181.1620  137.0790 C   0  0  2  0  0  3  0  0  0  0  0  0
  183.3310  178.8490  143.0660 C   0  0  0  0  0  2  0  0  0  0  0  0
  184.3950  179.2690  144.0670 C   0  0  0  0  0  2  0  0  0  0  0  0
  184.3700  178.3900  145.3130 C   0  0  0  0  0  2  0  0  0  0  0  0
  185.4420  178.8000  146.3140 C   0  0  0  0  0  2  0  0  0  0  0  0
  186.7790  178.1560  145.9800 C   0  0  2  0  0  3  0  0  0  0  0  0
  186.6560  177.3270  144.7070 C   0  0  0  0  0  2  0  0  0  0  0  0
  187.3600  178.0220  143.5510 C   0  0  0  0  0  2  0  0  0  0  0  0
  188.8170  177.5930  143.4790 C   0  0  0  0  0  2  0  0  0  0  0  0
  188.9670  176.2980  142.6960 C   0  0  0  0  0  2  0  0  0  0  0  0
  190.4070  175.9000  142.6090 C   0  0  0  0  0  0  0  0  0  0  0  0
  191.1400  176.0250  141.3890 N   0  0  0  0  0  2  0  0  0  0  0  0
  190.9740  175.4210  143.6230 O   0  0  0  0  0  0  0  0  0  0  0  0
  190.4660  176.0880  137.7460 C   0  0  0  0  0  1  0  0  0  0  0  0
  190.5590  176.5560  140.1670 C   0  0  2  0  0  3  0  0  0  0  0  0
  191.3470  176.0410  138.9770 C   0  0  2  0  0  3  0  0  0  0  0  0
  191.5710  177.4500  139.4820 C   0  0  0  0  0  2  0  0  0  0  0  0
  187.1810  177.3340  147.0470 O   0  0  0  0  0  0  0  0  0  0  0  0
  188.4480  177.7530  147.5140 C   0  0  1  0  0  0  0  0  0  0  0  0
  189.0750  178.6120  146.6180 F   0  0  0  0  0  0  0  0  0  0  0  0
  188.3190  178.4430  148.8630 C   0  0  0  0  0  1  0  0  0  0  0  0
  189.3330  176.5310  147.7090 C   0  0  0  0  0  2  0  0  0  0  0  0
  190.3310  176.3740  146.5730 C   0  0  0  0  0  2  0  0  0  0  0  0
  192.1190  177.1700  148.1150 O   0  0  0  0  0  1  0  0  0  0  0  0
  191.7120  176.2950  147.1170 C   0  0  0  0  0  0  0  0  0  0  0  0
  192.5220  175.4500  146.6530 O   0  0  0  0  0  0  0  0  0  0  0  0
  1 11  1  6  0  0  0
  1  6  1  0  0  0  0
  2 31  1  1  0  0  0
  2  3  1  0  0  0  0
  3  6  1  0  0  0  0
  3  4  1  1  0  0  0
  5 41  1  0  0  0  0
  6  5  2  0  0  0  0
  7  2  1  0  0  0  0
  7  1  1  0  0  0  0
  8 12  1  0  0  0  0
  9 13  2  0  0  0  0
  9 10  1  0  0  0  0
 10  8  2  0  0  0  0
 11 12  2  0  0  0  0
 13 11  1  0  0  0  0
 14 13  1  0  0  0  0
 15 14  1  0  0  0  0
 16 17  1  0  0  0  0
 16 15  1  1  0  0  0
 17 20  1  0  0  0  0
 18 20  2  0  0  0  0
 18 21  1  0  0  0  0
 19 16  1  0  0  0  0
 19 18  1  0  0  0  0
 20 25  1  0  0  0  0
 21 22  2  0  0  0  0
 22 23  1  0  0  0  0
 23 24  1  0  0  0  0
 27 30  1  1  0  0  0
 27 26  1  0  0  0  0
 28 29  1  0  0  0  0
 28 30  1  0  0  0  0
 29 25  1  6  0  0  0
 29 27  1  0  0  0  0
 29 26  1  0  0  0  0
 32 31  1  0  0  0  0
 33 40  1  0  0  0  0
 34 36  1  0  0  0  0
 35 34  1  0  0  0  0
 35 33  1  0  0  0  0
 36 39  1  0  0  0  0
 39 37  1  6  0  0  0
 39 38  1  0  0  0  0
 40 32  1  6  0  0  0
 40 38  1  0  0  0  0
 41 42  1  0  0  0  0
 42 43  1  0  0  0  0
 43 44  1  0  0  0  0
 45 46  1  6  0  0  0
 45 44  1  0  0  0  0
 45 57  1  0  0  0  0
 47 46  1  0  0  0  0
 48 47  1  0  0  0  0
 49 48  1  0  0  0  0
 50 49  1  0  0  0  0
 50 52  2  0  0  0  0
 51 50  1  0  0  0  0
 54 51  1  1  0  0  0
 55 53  1  6  0  0  0
 55 56  1  0  0  0  0
 55 54  1  0  0  0  0
 56 54  1  0  0  0  0
 57 58  1  0  0  0  0
 58 61  1  0  0  0  0
 58 60  1  1  0  0  0
 59 58  1  0  0  0  0
 62 64  1  0  0  0  0
 62 61  1  0  0  0  0
 64 63  1  0  0  0  0
 65 64  2  0  0  0  0
M  END
>  <MODEL>
1

>  <REMARK>
 VINA RESULT:      -6.5      0.000      0.000
  Name = 
  27 active torsions:
  status: ('A' for Active; 'I' for Inactive)
    1  A    between atoms: C_1  and  C_5
    2  A    between atoms: C_1  and  C_52
    3  A    between atoms: C_3  and  C_21
    4  A    between atoms: O_4  and  C_7
    5  A    between atoms: O_4  and  C_20
    6  A    between atoms: C_5  and  C_12
    7  A    between atoms: C_6  and  C_16
    8  A    between atoms: C_7  and  C_61
    9  A    between atoms: C_7  and  C_65
   10  A    between atoms: C_8  and  C_25
   11  A    between atoms: C_9  and  C_33
   12  A    between atoms: C_10  and  C_30
   13  A    between atoms: C_11  and  C_27
   14  A    between atoms: C_11  and  N_40
   15  A    between atoms: C_12  and  C_65
   16  A    between atoms: C_20  and  C_60
   17  A    between atoms: C_21  and  C_58
   18  A    between atoms: C_23  and  C_28
   19  A    between atoms: C_26  and  N_54
   20  A    between atoms: C_27  and  C_29
   21  A    between atoms: C_28  and  C_60
   22  A    between atoms: C_29  and  C_61
   23  A    between atoms: C_33  and  C_35
   24  A    between atoms: C_35  and  C_63
   25  A    between atoms: C_43  and  N_49
   26  A    between atoms: N_49  and  C_50
   27  A    between atoms: C_55  and  C_58
                            x       y       z     vdW  Elec       q    Type
                         _______ _______ _______ _____ _____    ______ ____

>  <TORSDO>
F 27

$$$$
=
 OpenBabel10222418323D

 65 71  0  0  1  0  0  0  0  0999 V2000
  189.3010  178.0670  138.2480 C   0  0  1  0  0  3  0  0  0  0  0  0
  190.0260  176.2400  137.0730 C   0  0  1  0  0  3  0  0  0  0  0  0
  190.6790  176.0820  138.4540 C   0  0  1  0  0  3  0  0  0  0  0  0
  192.0770  176.1460  138.3990 O   0  0  0  0  0  1  0  0  0  0  0  0
  190.3390  177.5540  140.3890 N   0  0  0  0  0  0  0  0  0  0  0  0
  190.1500  177.2620  139.1480 C   0  0  0  0  0  0  0  0  0  0  0  0
  189.3040  177.4560  136.9760 O   0  0  0  0  0  0  0  0  0  0  0  0
  186.3740  178.6520  140.6100 C   0  0  0  0  0  3  0  0  0  0  0  0
  185.4900  178.1790  138.4070 C   0  0  0  0  0  3  0  0  0  0  0  0
  185.2830  178.4940  139.7520 C   0  0  0  0  0  3  0  0  0  0  0  0
  187.8950  178.1970  138.7670 C   0  0  0  0  0  0  0  0  0  0  0  0
  187.6730  178.5050  140.1200 C   0  0  0  0  0  3  0  0  0  0  0  0
  186.7890  178.0240  137.9070 C   0  0  0  0  0  0  0  0  0  0  0  0
  186.9560  177.6300  136.4680 C   0  0  0  0  0  2  0  0  0  0  0  0
  186.6850  176.1410  136.2450 C   0  0  0  0  0  2  0  0  0  0  0  0
  185.4750  175.9040  135.3460 C   0  0  1  0  0  3  0  0  0  0  0  0
  184.5480  175.0530  136.0160 O   0  0  0  0  0  0  0  0  0  0  0  0
  183.4950  176.9830  135.7530 C   0  0  0  0  0  0  0  0  0  0  0  0
  184.7460  177.1210  135.1790 O   0  0  0  0  0  0  0  0  0  0  0  0
  183.3770  175.7660  136.2310 C   0  0  0  0  0  0  0  0  0  0  0  0
  182.4820  178.0380  135.8140 C   0  0  0  0  0  3  0  0  0  0  0  0
  181.2070  177.7620  135.5720 C   0  0  0  0  0  3  0  0  0  0  0  0
  180.1830  178.8370  135.6300 C   0  0  0  0  0  2  0  0  0  0  0  0
  180.8070  180.0880  136.2100 C   0  0  0  0  0  1  0  0  0  0  0  0
  182.2210  175.2500  136.8910 N   0  0  0  0  0  2  0  0  0  0  0  0
  181.8140  173.2590  135.2840 C   0  0  0  0  0  2  0  0  0  0  0  0
  181.6110  172.9510  136.7420 C   0  0  1  0  0  3  0  0  0  0  0  0
  179.9870  174.2970  136.6950 O   0  0  0  0  0  0  0  0  0  0  0  0
  181.3080  174.3400  136.2180 C   0  0  1  0  0  0  0  0  0  0  0  0
  180.1630  172.9830  137.1420 C   0  0  0  0  0  2  0  0  0  0  0  0
  190.9570  176.0540  135.8710 C   0  0  0  0  0  2  0  0  0  0  0  0
  191.1350  174.5800  135.5240 C   0  0  0  0  0  2  0  0  0  0  0  0
  193.0820  173.0080  135.1250 C   0  0  0  0  0  2  0  0  0  0  0  0
  194.2730  174.1770  136.9460 O   0  0  0  0  0  0  0  0  0  0  0  0
  193.6630  172.9670  136.5510 C   0  0  0  0  0  2  0  0  0  0  0  0
  195.3190  174.4450  136.0450 C   0  0  0  0  0  2  0  0  0  0  0  0
  195.6010  176.5850  134.8070 C   0  0  0  0  0  1  0  0  0  0  0  0
  193.3290  175.5780  134.8870 C   0  0  0  0  0  2  0  0  0  0  0  0
  194.8340  175.2790  134.8440 C   0  0  2  0  0  3  0  0  0  0  0  0
  192.4190  174.3440  134.7440 C   0  0  2  0  0  3  0  0  0  0  0  0
  191.1630  176.7520  141.2580 C   0  0  0  0  0  2  0  0  0  0  0  0
  191.6710  177.5890  142.4200 C   0  0  0  0  0  2  0  0  0  0  0  0
  190.5260  178.0990  143.2870 C   0  0  0  0  0  2  0  0  0  0  0  0
  189.8990  176.9820  144.1100 C   0  0  0  0  0  2  0  0  0  0  0  0
  188.7710  177.5100  144.9830 C   0  0  2  0  0  3  0  0  0  0  0  0
  187.7570  178.2600  144.1290 C   0  0  0  0  0  2  0  0  0  0  0  0
  186.4790  177.4470  143.9870 C   0  0  0  0  0  2  0  0  0  0  0  0
  185.2920  178.2180  144.5430 C   0  0  0  0  0  2  0  0  0  0  0  0
  184.2230  178.4180  143.4790 C   0  0  0  0  0  2  0  0  0  0  0  0
  182.9480  178.8950  144.0980 C   0  0  0  0  0  0  0  0  0  0  0  0
  181.7450  179.0030  143.3330 N   0  0  0  0  0  2  0  0  0  0  0  0
  182.9400  179.2330  145.3090 O   0  0  0  0  0  0  0  0  0  0  0  0
  181.0750  179.6370  139.7440 C   0  0  0  0  0  1  0  0  0  0  0  0
  181.6680  178.6470  141.9260 C   0  0  2  0  0  3  0  0  0  0  0  0
  180.7330  179.6120  141.2200 C   0  0  2  0  0  3  0  0  0  0  0  0
  180.2500  178.2280  141.5960 C   0  0  0  0  0  2  0  0  0  0  0  0
  189.3010  178.3710  145.9600 O   0  0  0  0  0  0  0  0  0  0  0  0
  189.0390  177.8440  147.2460 C   0  0  1  0  0  0  0  0  0  0  0  0
  189.2700  178.7800  148.2480 F   0  0  0  0  0  0  0  0  0  0  0  0
  187.6030  177.3530  147.3400 C   0  0  0  0  0  1  0  0  0  0  0  0
  189.9490  176.6480  147.4860 C   0  0  0  0  0  2  0  0  0  0  0  0
  191.4130  177.0090  147.2920 C   0  0  0  0  0  2  0  0  0  0  0  0
  192.9590  175.5130  148.5500 O   0  0  0  0  0  1  0  0  0  0  0  0
  192.2540  175.7870  147.3850 C   0  0  0  0  0  0  0  0  0  0  0  0
  192.3470  175.0130  146.3970 O   0  0  0  0  0  0  0  0  0  0  0  0
  1 11  1  1  0  0  0
  1  6  1  0  0  0  0
  2 31  1  6  0  0  0
  2  3  1  0  0  0  0
  3  4  1  6  0  0  0
  3  6  1  0  0  0  0
  5 41  1  0  0  0  0
  6  5  2  0  0  0  0
  7  2  1  0  0  0  0
  7  1  1  0  0  0  0
  9 10  1  0  0  0  0
 10  8  2  0  0  0  0
 11 12  2  0  0  0  0
 12  8  1  0  0  0  0
 13  9  2  0  0  0  0
 13 11  1  0  0  0  0
 14 13  1  0  0  0  0
 15 14  1  0  0  0  0
 16 17  1  0  0  0  0
 16 15  1  1  0  0  0
 17 20  1  0  0  0  0
 18 21  1  0  0  0  0
 18 20  2  0  0  0  0
 19 16  1  0  0  0  0
 19 18  1  0  0  0  0
 20 25  1  0  0  0  0
 22 23  1  0  0  0  0
 22 21  2  0  0  0  0
 23 24  1  0  0  0  0
 26 29  1  0  0  0  0
 27 26  1  6  0  0  0
 27 30  1  0  0  0  0
 28 30  1  0  0  0  0
 29 28  1  0  0  0  0
 29 27  1  0  0  0  0
 29 25  1  1  0  0  0
 32 31  1  0  0  0  0
 33 35  1  0  0  0  0
 35 34  1  0  0  0  0
 36 34  1  0  0  0  0
 39 37  1  1  0  0  0
 39 38  1  0  0  0  0
 39 36  1  0  0  0  0
 40 38  1  0  0  0  0
 40 33  1  0  0  0  0
 40 32  1  1  0  0  0
 41 42  1  0  0  0  0
 42 43  1  0  0  0  0
 43 44  1  0  0  0  0
 45 44  1  6  0  0  0
 45 57  1  0  0  0  0
 46 45  1  0  0  0  0
 47 46  1  0  0  0  0
 47 48  1  0  0  0  0
 49 50  1  0  0  0  0
 49 48  1  0  0  0  0
 50 52  2  0  0  0  0
 51 50  1  0  0  0  0
 54 51  1  1  0  0  0
 55 53  1  6  0  0  0
 55 56  1  0  0  0  0
 55 54  1  0  0  0  0
 56 54  1  0  0  0  0
 57 58  1  0  0  0  0
 58 60  1  1  0  0  0
 58 61  1  0  0  0  0
 58 59  1  0  0  0  0
 62 64  1  0  0  0  0
 62 61  1  0  0  0  0
 64 63  1  0  0  0  0
 65 64  2  0  0  0  0
M  END
>  <MODEL>
2

>  <REMARK>
 VINA RESULT:      -6.4      2.689      7.781
  Name = 
  27 active torsions:
  status: ('A' for Active; 'I' for Inactive)
    1  A    between atoms: C_1  and  C_5
    2  A    between atoms: C_1  and  C_52
    3  A    between atoms: C_3  and  C_21
    4  A    between atoms: O_4  and  C_7
    5  A    between atoms: O_4  and  C_20
    6  A    between atoms: C_5  and  C_12
    7  A    between atoms: C_6  and  C_16
    8  A    between atoms: C_7  and  C_61
    9  A    between atoms: C_7  and  C_65
   10  A    between atoms: C_8  and  C_25
   11  A    between atoms: C_9  and  C_33
   12  A    between atoms: C_10  and  C_30
   13  A    between atoms: C_11  and  C_27
   14  A    between atoms: C_11  and  N_40
   15  A    between atoms: C_12  and  C_65
   16  A    between atoms: C_20  and  C_60
   17  A    between atoms: C_21  and  C_58
   18  A    between atoms: C_23  and  C_28
   19  A    between atoms: C_26  and  N_54
   20  A    between atoms: C_27  and  C_29
   21  A    between atoms: C_28  and  C_60
   22  A    between atoms: C_29  and  C_61
   23  A    between atoms: C_33  and  C_35
   24  A    between atoms: C_35  and  C_63
   25  A    between atoms: C_43  and  N_49
   26  A    between atoms: N_49  and  C_50
   27  A    between atoms: C_55  and  C_58
                            x       y       z     vdW  Elec       q    Type
                         _______ _______ _______ _____ _____    ______ ____

>  <TORSDO>
F 27

$$$$
=
 OpenBabel10222418323D

 65 71  0  0  1  0  0  0  0  0999 V2000
  188.7620  177.7750  139.1360 C   0  0  1  0  0  3  0  0  0  0  0  0
  189.3720  176.8320  141.1320 C   0  0  1  0  0  3  0  0  0  0  0  0
  188.0740  177.5840  141.4540 C   0  0  1  0  0  3  0  0  0  0  0  0
  188.2680  178.6270  142.3690 O   0  0  0  0  0  1  0  0  0  0  0  0
  186.6670  178.7910  139.8450 N   0  0  0  0  0  0  0  0  0  0  0  0
  187.7350  178.1310  140.1350 C   0  0  0  0  0  0  0  0  0  0  0  0
  189.7770  177.0450  139.7900 O   0  0  0  0  0  0  0  0  0  0  0  0
  186.3290  176.4880  136.5070 C   0  0  0  0  0  3  0  0  0  0  0  0
  188.4150  175.2860  136.2640 C   0  0  0  0  0  3  0  0  0  0  0  0
  187.1040  175.5320  135.8480 C   0  0  0  0  0  3  0  0  0  0  0  0
  188.1870  176.9750  137.9990 C   0  0  0  0  0  0  0  0  0  0  0  0
  186.8670  177.2070  137.5760 C   0  0  0  0  0  3  0  0  0  0  0  0
  188.9620  175.9970  137.3400 C   0  0  0  0  0  0  0  0  0  0  0  0
  190.3550  175.6550  137.7830 C   0  0  0  0  0  2  0  0  0  0  0  0
  191.4110  176.4860  137.0540 C   0  0  0  0  0  2  0  0  0  0  0  0
  191.9440  175.7770  135.8130 C   0  0  1  0  0  3  0  0  0  0  0  0
  193.3660  175.8840  135.7800 O   0  0  0  0  0  0  0  0  0  0  0  0
  192.9410  173.7210  135.9850 C   0  0  0  0  0  0  0  0  0  0  0  0
  191.7210  174.3700  135.9200 O   0  0  0  0  0  0  0  0  0  0  0  0
  193.9030  174.6090  135.8900 C   0  0  0  0  0  0  0  0  0  0  0  0
  193.1110  172.2750  136.1420 C   0  0  0  0  0  3  0  0  0  0  0  0
  192.8660  171.4540  135.1290 C   0  0  0  0  0  3  0  0  0  0  0  0
  193.0360  169.9870  135.2950 C   0  0  0  0  0  2  0  0  0  0  0  0
  194.4910  169.6280  135.0890 C   0  0  0  0  0  1  0  0  0  0  0  0
  195.2990  174.3150  135.9100 N   0  0  0  0  0  2  0  0  0  0  0  0
  196.2500  172.7520  137.7450 C   0  0  0  0  0  2  0  0  0  0  0  0
  197.2790  173.3610  136.8320 C   0  0  1  0  0  3  0  0  0  0  0  0
  196.7430  175.2320  137.6450 O   0  0  0  0  0  0  0  0  0  0  0  0
  196.0170  174.1320  137.1610 C   0  0  1  0  0  0  0  0  0  0  0  0
  197.9520  174.5580  137.4390 C   0  0  0  0  0  2  0  0  0  0  0  0
  190.5350  177.0640  142.1020 C   0  0  0  0  0  2  0  0  0  0  0  0
  190.2420  176.4770  143.4780 C   0  0  0  0  0  2  0  0  0  0  0  0
  191.5510  177.6390  145.3100 C   0  0  0  0  0  2  0  0  0  0  0  0
  190.7090  175.9170  146.8690 O   0  0  0  0  0  0  0  0  0  0  0  0
  191.8490  176.4240  146.2090 C   0  0  0  0  0  2  0  0  0  0  0  0
  190.1830  176.9460  147.6690 C   0  0  0  0  0  2  0  0  0  0  0  0
  187.8150  177.7100  147.6090 C   0  0  0  0  0  1  0  0  0  0  0  0
  188.9770  177.3500  145.4400 C   0  0  0  0  0  2  0  0  0  0  0  0
  189.1510  177.7940  146.9000 C   0  0  2  0  0  3  0  0  0  0  0  0
  190.2160  177.5560  144.5490 C   0  0  2  0  0  3  0  0  0  0  0  0
  185.6680  179.1240  140.8300 C   0  0  0  0  0  2  0  0  0  0  0  0
  184.4740  178.1920  140.7040 C   0  0  0  0  0  2  0  0  0  0  0  0
  183.2350  178.9320  140.2120 C   0  0  0  0  0  2  0  0  0  0  0  0
  182.8460  178.5070  138.8030 C   0  0  0  0  0  2  0  0  0  0  0  0
  181.3900  178.8370  138.5120 C   0  0  2  0  0  3  0  0  0  0  0  0
  180.9050  178.0400  137.3080 C   0  0  0  0  0  2  0  0  0  0  0  0
  182.0070  177.9280  136.2660 C   0  0  0  0  0  2  0  0  0  0  0  0
  182.5670  176.5140  136.2310 C   0  0  0  0  0  2  0  0  0  0  0  0
  181.5090  175.4980  136.6340 C   0  0  0  0  0  2  0  0  0  0  0  0
  181.4560  174.3750  135.6470 C   0  0  0  0  0  0  0  0  0  0  0  0
  182.2090  173.1760  135.8440 N   0  0  0  0  0  2  0  0  0  0  0  0
  180.7570  174.5000  134.6100 O   0  0  0  0  0  0  0  0  0  0  0  0
  185.4350  172.9210  137.6480 C   0  0  0  0  0  1  0  0  0  0  0  0
  183.0520  172.9530  137.0070 C   0  0  2  0  0  3  0  0  0  0  0  0
  184.4520  172.5940  136.5430 C   0  0  2  0  0  3  0  0  0  0  0  0
  183.5100  171.5100  137.0200 C   0  0  0  0  0  2  0  0  0  0  0  0
  181.2640  180.2130  138.2550 O   0  0  0  0  0  0  0  0  0  0  0  0
  179.9650  180.6440  138.6110 C   0  0  1  0  0  0  0  0  0  0  0  0
  179.0560  179.5920  138.6290 F   0  0  0  0  0  0  0  0  0  0  0  0
  179.9800  181.3180  139.9740 C   0  0  0  0  0  1  0  0  0  0  0  0
  179.4900  181.6740  137.5960 C   0  0  0  0  0  2  0  0  0  0  0  0
  180.6290  182.1570  136.7120 C   0  0  0  0  0  2  0  0  0  0  0  0
  179.2650  184.2350  136.5340 O   0  0  0  0  0  1  0  0  0  0  0  0
  180.5100  183.6220  136.4870 C   0  0  0  0  0  0  0  0  0  0  0  0
  181.5360  184.3020  136.2270 O   0  0  0  0  0  0  0  0  0  0  0  0
  1 11  1  6  0  0  0
  1  7  1  0  0  0  0
  1  6  1  0  0  0  0
  2  3  1  0  0  0  0
  2 31  1  1  0  0  0
  3  4  1  1  0  0  0
  5  6  2  0  0  0  0
  5 41  1  0  0  0  0
  6  3  1  0  0  0  0
  7  2  1  0  0  0  0
  8 12  1  0  0  0  0
  9 13  2  0  0  0  0
 10  9  1  0  0  0  0
 10  8  2  0  0  0  0
 12 11  2  0  0  0  0
 13 14  1  0  0  0  0
 13 11  1  0  0  0  0
 15 14  1  0  0  0  0
 16 19  1  0  0  0  0
 16 15  1  1  0  0  0
 17 16  1  0  0  0  0
 17 20  1  0  0  0  0
 18 21  1  0  0  0  0
 19 18  1  0  0  0  0
 20 25  1  0  0  0  0
 20 18  2  0  0  0  0
 22 23  1  0  0  0  0
 22 21  2  0  0  0  0
 24 23  1  0  0  0  0
 27 29  1  0  0  0  0
 27 30  1  1  0  0  0
 27 26  1  0  0  0  0
 29 25  1  6  0  0  0
 29 28  1  0  0  0  0
 29 26  1  0  0  0  0
 30 28  1  0  0  0  0
 31 32  1  0  0  0  0
 33 35  1  0  0  0  0
 34 36  1  0  0  0  0
 35 34  1  0  0  0  0
 38 39  1  0  0  0  0
 39 37  1  1  0  0  0
 39 36  1  0  0  0  0
 40 32  1  6  0  0  0
 40 33  1  0  0  0  0
 40 38  1  0  0  0  0
 42 41  1  0  0  0  0
 43 42  1  0  0  0  0
 44 43  1  0  0  0  0
 45 46  1  6  0  0  0
 45 44  1  0  0  0  0
 47 46  1  0  0  0  0
 48 47  1  0  0  0  0
 48 49  1  0  0  0  0
 50 51  1  0  0  0  0
 50 49  1  0  0  0  0
 52 50  2  0  0  0  0
 54 51  1  6  0  0  0
 54 56  1  0  0  0  0
 55 54  1  0  0  0  0
 55 56  1  0  0  0  0
 55 53  1  1  0  0  0
 57 45  1  0  0  0  0
 57 58  1  0  0  0  0
 58 59  1  0  0  0  0
 58 60  1  1  0  0  0
 61 58  1  0  0  0  0
 62 61  1  0  0  0  0
 64 63  1  0  0  0  0
 64 62  1  0  0  0  0
 65 64  2  0  0  0  0
M  END
>  <MODEL>
3

>  <REMARK>
 VINA RESULT:      -6.0      3.758     10.989
  Name = 
  27 active torsions:
  status: ('A' for Active; 'I' for Inactive)
    1  A    between atoms: C_1  and  C_5
    2  A    between atoms: C_1  and  C_52
    3  A    between atoms: C_3  and  C_21
    4  A    between atoms: O_4  and  C_7
    5  A    between atoms: O_4  and  C_20
    6  A    between atoms: C_5  and  C_12
    7  A    between atoms: C_6  and  C_16
    8  A    between atoms: C_7  and  C_61
    9  A    between atoms: C_7  and  C_65
   10  A    between atoms: C_8  and  C_25
   11  A    between atoms: C_9  and  C_33
   12  A    between atoms: C_10  and  C_30
   13  A    between atoms: C_11  and  C_27
   14  A    between atoms: C_11  and  N_40
   15  A    between atoms: C_12  and  C_65
   16  A    between atoms: C_20  and  C_60
   17  A    between atoms: C_21  and  C_58
   18  A    between atoms: C_23  and  C_28
   19  A    between atoms: C_26  and  N_54
   20  A    between atoms: C_27  and  C_29
   21  A    between atoms: C_28  and  C_60
   22  A    between atoms: C_29  and  C_61
   23  A    between atoms: C_33  and  C_35
   24  A    between atoms: C_35  and  C_63
   25  A    between atoms: C_43  and  N_49
   26  A    between atoms: N_49  and  C_50
   27  A    between atoms: C_55  and  C_58
                            x       y       z     vdW  Elec       q    Type
                         _______ _______ _______ _____ _____    ______ ____

>  <TORSDO>
F 27

$$$$
=
 OpenBabel10222418323D

 65 71  0  0  1  0  0  0  0  0999 V2000
  189.6250  178.0670  138.1300 C   0  0  1  0  0  3  0  0  0  0  0  0
  190.4550  176.2040  137.0910 C   0  0  1  0  0  3  0  0  0  0  0  0
  191.0810  176.1620  138.4920 C   0  0  1  0  0  3  0  0  0  0  0  0
  192.4760  176.2850  138.4620 O   0  0  0  0  0  1  0  0  0  0  0  0
  190.6320  177.7370  140.3210 N   0  0  0  0  0  0  0  0  0  0  0  0
  190.4860  177.3590  139.0970 C   0  0  0  0  0  0  0  0  0  0  0  0
  189.6840  177.3770  136.9010 O   0  0  0  0  0  0  0  0  0  0  0  0
  186.6200  178.4360  140.4380 C   0  0  0  0  0  3  0  0  0  0  0  0
  185.8130  178.2450  138.1650 C   0  0  0  0  0  3  0  0  0  0  0  0
  185.5600  178.4040  139.5300 C   0  0  0  0  0  3  0  0  0  0  0  0
  188.2020  178.1670  138.6100 C   0  0  0  0  0  0  0  0  0  0  0  0
  187.9340  178.3190  139.9810 C   0  0  0  0  0  3  0  0  0  0  0  0
  187.1270  178.1200  137.6970 C   0  0  0  0  0  0  0  0  0  0  0  0
  187.3410  177.8940  136.2290 C   0  0  0  0  0  2  0  0  0  0  0  0
  187.0760  176.4430  135.8260 C   0  0  0  0  0  2  0  0  0  0  0  0
  186.1470  176.3410  134.6210 C   0  0  1  0  0  3  0  0  0  0  0  0
  185.4690  175.0870  134.6510 O   0  0  0  0  0  0  0  0  0  0  0  0
  183.8860  176.6190  134.8670 C   0  0  0  0  0  0  0  0  0  0  0  0
  185.0880  177.2920  134.7380 O   0  0  0  0  0  0  0  0  0  0  0  0
  184.1110  175.3280  134.8030 C   0  0  0  0  0  0  0  0  0  0  0  0
  182.5840  177.2620  135.0530 C   0  0  0  0  0  3  0  0  0  0  0  0
  182.3660  178.4870  134.5940 C   0  0  0  0  0  3  0  0  0  0  0  0
  181.0440  179.1370  134.7900 C   0  0  0  0  0  2  0  0  0  0  0  0
  181.0960  180.0100  136.0250 C   0  0  0  0  0  1  0  0  0  0  0  0
  183.1110  174.3130  134.8910 N   0  0  0  0  0  2  0  0  0  0  0  0
  180.7920  174.3300  136.0470 C   0  0  0  0  0  2  0  0  0  0  0  0
  181.3890  172.9650  135.8370 C   0  0  1  0  0  3  0  0  0  0  0  0
  182.9050  173.5320  137.1890 O   0  0  0  0  0  0  0  0  0  0  0  0
  182.2970  174.1520  136.0850 C   0  0  1  0  0  0  0  0  0  0  0  0
  182.0510  172.4290  137.0730 C   0  0  0  0  0  2  0  0  0  0  0  0
  191.4220  175.9830  135.9230 C   0  0  0  0  0  2  0  0  0  0  0  0
  191.4250  174.5290  135.4650 C   0  0  0  0  0  2  0  0  0  0  0  0
  192.8920  172.6560  134.5940 C   0  0  0  0  0  2  0  0  0  0  0  0
  194.0000  172.6290  136.8020 O   0  0  0  0  0  0  0  0  0  0  0  0
  193.1610  171.9160  135.9180 C   0  0  0  0  0  2  0  0  0  0  0  0
  195.2280  172.8390  136.1500 C   0  0  0  0  0  2  0  0  0  0  0  0
  196.3260  175.0580  135.8920 C   0  0  0  0  0  1  0  0  0  0  0  0
  193.8890  174.9030  135.4200 C   0  0  0  0  0  2  0  0  0  0  0  0
  195.2310  174.1590  135.3550 C   0  0  2  0  0  3  0  0  0  0  0  0
  192.7140  174.1780  134.7380 C   0  0  2  0  0  3  0  0  0  0  0  0
  191.4690  177.0290  141.2570 C   0  0  0  0  0  2  0  0  0  0  0  0
  191.6410  177.8430  142.5290 C   0  0  0  0  0  2  0  0  0  0  0  0
  190.2980  178.1640  143.1750 C   0  0  0  0  0  2  0  0  0  0  0  0
  189.7960  177.0120  144.0340 C   0  0  0  0  0  2  0  0  0  0  0  0
  188.5050  177.3820  144.7480 C   0  0  2  0  0  3  0  0  0  0  0  0
  187.5610  178.0910  143.7850 C   0  0  0  0  0  2  0  0  0  0  0  0
  186.2600  177.3150  143.6490 C   0  0  0  0  0  2  0  0  0  0  0  0
  185.0690  178.2130  143.9480 C   0  0  0  0  0  2  0  0  0  0  0  0
  184.0030  178.0840  142.8710 C   0  0  0  0  0  2  0  0  0  0  0  0
  182.7560  178.8040  143.2770 C   0  0  0  0  0  0  0  0  0  0  0  0
  181.7590  179.1620  142.3170 N   0  0  0  0  0  2  0  0  0  0  0  0
  182.5960  179.1250  144.4810 O   0  0  0  0  0  0  0  0  0  0  0  0
  180.5120  178.8410  138.8430 C   0  0  0  0  0  1  0  0  0  0  0  0
  181.8700  178.8430  140.9040 C   0  0  2  0  0  3  0  0  0  0  0  0
  180.4820  178.6020  140.3380 C   0  0  2  0  0  3  0  0  0  0  0  0
  181.3780  177.4290  140.6730 C   0  0  0  0  0  2  0  0  0  0  0  0
  188.7970  178.2230  145.8360 O   0  0  0  0  0  0  0  0  0  0  0  0
  188.8350  177.4600  147.0260 C   0  0  1  0  0  0  0  0  0  0  0  0
  188.5330  176.1230  146.7960 F   0  0  0  0  0  0  0  0  0  0  0  0
  190.2040  177.5600  147.6810 C   0  0  0  0  0  1  0  0  0  0  0  0
  187.8160  178.0220  148.0070 C   0  0  0  0  0  2  0  0  0  0  0  0
  186.4230  178.0750  147.4000 C   0  0  0  0  0  2  0  0  0  0  0  0
  185.4080  179.9230  146.0710 O   0  0  0  0  0  0  0  0  0  0  0  0
  185.9850  179.4880  147.2580 C   0  0  0  0  0  0  0  0  0  0  0  0
  186.1620  180.2990  148.2050 O   0  0  0  0  0  1  0  0  0  0  0  0
  1 11  1  1  0  0  0
  1  6  1  0  0  0  0
  2 31  1  6  0  0  0
  2  3  1  0  0  0  0
  3  4  1  6  0  0  0
  3  6  1  0  0  0  0
  5 41  1  0  0  0  0
  6  5  2  0  0  0  0
  7  2  1  0  0  0  0
  7  1  1  0  0  0  0
  9 10  1  0  0  0  0
 10  8  2  0  0  0  0
 11 12  2  0  0  0  0
 12  8  1  0  0  0  0
 13  9  2  0  0  0  0
 13 11  1  0  0  0  0
 14 13  1  0  0  0  0
 15 14  1  0  0  0  0
 16 17  1  0  0  0  0
 16 19  1  0  0  0  0
 16 15  1  1  0  0  0
 17 20  1  0  0  0  0
 18 21  1  0  0  0  0
 19 18  1  0  0  0  0
 20 18  2  0  0  0  0
 20 25  1  0  0  0  0
 22 23  1  0  0  0  0
 22 21  2  0  0  0  0
 23 24  1  0  0  0  0
 26 29  1  0  0  0  0
 27 26  1  1  0  0  0
 27 29  1  0  0  0  0
 27 30  1  0  0  0  0
 29 25  1  6  0  0  0
 29 28  1  0  0  0  0
 30 28  1  0  0  0  0
 32 31  1  0  0  0  0
 33 40  1  0  0  0  0
 33 35  1  0  0  0  0
 35 34  1  0  0  0  0
 36 34  1  0  0  0  0
 39 38  1  0  0  0  0
 39 37  1  1  0  0  0
 39 36  1  0  0  0  0
 40 38  1  0  0  0  0
 40 32  1  1  0  0  0
 41 42  1  0  0  0  0
 42 43  1  0  0  0  0
 43 44  1  0  0  0  0
 44 45  1  0  0  0  0
 45 46  1  6  0  0  0
 45 57  1  0  0  0  0
 47 46  1  0  0  0  0
 47 48  1  0  0  0  0
 49 50  1  0  0  0  0
 49 48  1  0  0  0  0
 50 52  2  0  0  0  0
 51 50  1  0  0  0  0
 54 51  1  1  0  0  0
 55 53  1  6  0  0  0
 55 56  1  0  0  0  0
 55 54  1  0  0  0  0
 56 54  1  0  0  0  0
 57 58  1  0  0  0  0
 58 60  1  1  0  0  0
 58 61  1  0  0  0  0
 59 58  1  0  0  0  0
 62 61  1  0  0  0  0
 63 64  2  0  0  0  0
 64 62  1  0  0  0  0
 64 65  1  0  0  0  0
M  END
>  <MODEL>
4

>  <REMARK>
 VINA RESULT:      -5.5      2.700      8.089
  Name = 
  27 active torsions:
  status: ('A' for Active; 'I' for Inactive)
    1  A    between atoms: C_1  and  C_5
    2  A    between atoms: C_1  and  C_52
    3  A    between atoms: C_3  and  C_21
    4  A    between atoms: O_4  and  C_7
    5  A    between atoms: O_4  and  C_20
    6  A    between atoms: C_5  and  C_12
    7  A    between atoms: C_6  and  C_16
    8  A    between atoms: C_7  and  C_61
    9  A    between atoms: C_7  and  C_65
   10  A    between atoms: C_8  and  C_25
   11  A    between atoms: C_9  and  C_33
   12  A    between atoms: C_10  and  C_30
   13  A    between atoms: C_11  and  C_27
   14  A    between atoms: C_11  and  N_40
   15  A    between atoms: C_12  and  C_65
   16  A    between atoms: C_20  and  C_60
   17  A    between atoms: C_21  and  C_58
   18  A    between atoms: C_23  and  C_28
   19  A    between atoms: C_26  and  N_54
   20  A    between atoms: C_27  and  C_29
   21  A    between atoms: C_28  and  C_60
   22  A    between atoms: C_29  and  C_61
   23  A    between atoms: C_33  and  C_35
   24  A    between atoms: C_35  and  C_63
   25  A    between atoms: C_43  and  N_49
   26  A    between atoms: N_49  and  C_50
   27  A    between atoms: C_55  and  C_58
                            x       y       z     vdW  Elec       q    Type
                         _______ _______ _______ _____ _____    ______ ____

>  <TORSDO>
F 27

$$$$
=
 OpenBabel10222418323D

 65 71  0  0  1  0  0  0  0  0999 V2000
  187.2610  177.0260  142.8230 C   0  0  1  0  0  3  0  0  0  0  0  0
  189.3480  176.9550  143.7620 C   0  0  1  0  0  3  0  0  0  0  0  0
  189.5340  177.8090  142.4990 C   0  0  1  0  0  3  0  0  0  0  0  0
  190.3930  177.2120  141.5670 O   0  0  0  0  0  1  0  0  0  0  0  0
  187.7600  178.4950  140.9470 N   0  0  0  0  0  0  0  0  0  0  0  0
  188.1630  177.8300  141.9750 C   0  0  0  0  0  0  0  0  0  0  0  0
  188.0270  176.4530  143.8600 O   0  0  0  0  0  0  0  0  0  0  0  0
  185.1240  178.9860  145.2890 C   0  0  0  0  0  3  0  0  0  0  0  0
  184.0610  179.0850  143.1170 C   0  0  0  0  0  3  0  0  0  0  0  0
  184.0840  179.4320  144.4700 C   0  0  0  0  0  3  0  0  0  0  0  0
  186.1390  177.8520  143.3920 C   0  0  0  0  0  0  0  0  0  0  0  0
  186.1460  178.2000  144.7530 C   0  0  0  0  0  3  0  0  0  0  0  0
  185.0790  178.2930  142.5710 C   0  0  0  0  0  0  0  0  0  0  0  0
  184.9780  177.9010  141.1250 C   0  0  0  0  0  2  0  0  0  0  0  0
  184.5730  179.0790  140.2380 C   0  0  0  0  0  2  0  0  0  0  0  0
  184.0470  178.6220  138.8810 C   0  0  1  0  0  3  0  0  0  0  0  0
  183.0650  177.6060  139.0710 O   0  0  0  0  0  0  0  0  0  0  0  0
  181.9880  179.3020  138.1410 C   0  0  0  0  0  0  0  0  0  0  0  0
  183.3140  179.6780  138.2600 O   0  0  0  0  0  0  0  0  0  0  0  0
  181.8480  178.0820  138.6050 C   0  0  0  0  0  0  0  0  0  0  0  0
  180.9260  180.1450  137.5890 C   0  0  0  0  0  3  0  0  0  0  0  0
  180.9880  181.4650  137.6990 C   0  0  0  0  0  3  0  0  0  0  0  0
  179.9040  182.3160  137.1420 C   0  0  0  0  0  2  0  0  0  0  0  0
  180.3090  182.8020  135.7670 C   0  0  0  0  0  1  0  0  0  0  0  0
  180.6210  177.3520  138.6420 N   0  0  0  0  0  2  0  0  0  0  0  0
  179.4080  176.3510  140.7010 C   0  0  0  0  0  2  0  0  0  0  0  0
  179.0000  175.7670  139.3760 C   0  0  1  0  0  3  0  0  0  0  0  0
  180.9630  175.0100  139.2210 O   0  0  0  0  0  0  0  0  0  0  0  0
  180.4200  176.2560  139.5760 C   0  0  1  0  0  0  0  0  0  0  0  0
  179.6830  174.4610  139.0870 C   0  0  0  0  0  2  0  0  0  0  0  0
  190.3800  175.8420  143.9700 C   0  0  0  0  0  2  0  0  0  0  0  0
  191.6610  176.3760  144.6010 C   0  0  0  0  0  2  0  0  0  0  0  0
  191.9990  176.6730  147.0950 C   0  0  0  0  0  2  0  0  0  0  0  0
  189.9640  175.3130  147.4330 O   0  0  0  0  0  0  0  0  0  0  0  0
  191.3660  175.3570  147.5880 C   0  0  0  0  0  2  0  0  0  0  0  0
  189.4170  176.3760  148.1730 C   0  0  0  0  0  2  0  0  0  0  0  0
  187.8430  178.0710  147.2530 C   0  0  0  0  0  1  0  0  0  0  0  0
  189.8460  177.4870  145.8990 C   0  0  0  0  0  2  0  0  0  0  0  0
  189.2990  177.6570  147.3240 C   0  0  2  0  0  3  0  0  0  0  0  0
  191.3640  177.2440  145.8140 C   0  0  2  0  0  3  0  0  0  0  0  0
  188.6510  179.2830  140.1340 C   0  0  0  0  0  2  0  0  0  0  0  0
  188.7780  178.6730  138.7480 C   0  0  0  0  0  2  0  0  0  0  0  0
  188.4490  177.1840  138.7590 C   0  0  0  0  0  2  0  0  0  0  0  0
  189.5860  176.3510  138.1830 C   0  0  0  0  0  2  0  0  0  0  0  0
  189.1710  175.6800  136.8830 C   0  0  2  0  0  3  0  0  0  0  0  0
  189.8770  176.3420  135.7060 C   0  0  0  0  0  2  0  0  0  0  0  0
  191.2920  175.8030  135.5650 C   0  0  0  0  0  2  0  0  0  0  0  0
  191.6870  175.0120  136.8020 C   0  0  0  0  0  2  0  0  0  0  0  0
  193.1420  174.5730  136.7290 C   0  0  0  0  0  2  0  0  0  0  0  0
  193.9760  175.3540  137.6950 C   0  0  0  0  0  0  0  0  0  0  0  0
  195.2680  174.8970  138.0990 N   0  0  0  0  0  2  0  0  0  0  0  0
  193.5180  176.4180  138.1820 O   0  0  0  0  0  0  0  0  0  0  0  0
  198.0800  172.6140  137.3170 C   0  0  0  0  0  1  0  0  0  0  0  0
  195.8680  173.6720  137.5970 C   0  0  2  0  0  3  0  0  0  0  0  0
  197.3290  173.9290  137.2770 C   0  0  2  0  0  3  0  0  0  0  0  0
  196.3070  173.8840  136.1630 C   0  0  0  0  0  2  0  0  0  0  0  0
  187.7780  175.7880  136.7250 O   0  0  0  0  0  0  0  0  0  0  0  0
  187.2420  174.5240  136.3880 C   0  0  1  0  0  0  0  0  0  0  0  0
  186.7790  174.4890  135.0770 F   0  0  0  0  0  0  0  0  0  0  0  0
  188.2830  173.4320  136.5810 C   0  0  0  0  0  1  0  0  0  0  0  0
  186.0780  174.2160  137.3190 C   0  0  0  0  0  2  0  0  0  0  0  0
  185.7140  172.7400  137.2930 C   0  0  0  0  0  2  0  0  0  0  0  0
  183.7670  173.5820  135.9850 O   0  0  0  0  0  0  0  0  0  0  0  0
  184.3520  172.5630  136.7250 C   0  0  0  0  0  0  0  0  0  0  0  0
  183.7180  171.4960  136.9370 O   0  0  0  0  0  1  0  0  0  0  0  0
  1 11  1  1  0  0  0
  1  7  1  0  0  0  0
  2  7  1  0  0  0  0
  2 31  1  6  0  0  0
  3  4  1  6  0  0  0
  3  2  1  0  0  0  0
  5  6  2  0  0  0  0
  6  3  1  0  0  0  0
  6  1  1  0  0  0  0
  9 10  1  0  0  0  0
 10  8  2  0  0  0  0
 11 12  2  0  0  0  0
 12  8  1  0  0  0  0
 13  9  2  0  0  0  0
 13 11  1  0  0  0  0
 14 13  1  0  0  0  0
 15 14  1  0  0  0  0
 16 17  1  0  0  0  0
 16 15  1  1  0  0  0
 18 19  1  0  0  0  0
 18 20  2  0  0  0  0
 19 16  1  0  0  0  0
 20 25  1  0  0  0  0
 20 17  1  0  0  0  0
 21 22  2  0  0  0  0
 21 18  1  0  0  0  0
 23 22  1  0  0  0  0
 24 23  1  0  0  0  0
 27 30  1  1  0  0  0
 27 29  1  0  0  0  0
 27 26  1  0  0  0  0
 28 29  1  0  0  0  0
 29 25  1  6  0  0  0
 29 26  1  0  0  0  0
 30 28  1  0  0  0  0
 31 32  1  0  0  0  0
 33 35  1  0  0  0  0
 34 35  1  0  0  0  0
 34 36  1  0  0  0  0
 38 39  1  0  0  0  0
 39 37  1  6  0  0  0
 39 36  1  0  0  0  0
 40 32  1  6  0  0  0
 40 38  1  0  0  0  0
 40 33  1  0  0  0  0
 41  5  1  0  0  0  0
 42 43  1  0  0  0  0
 42 41  1  0  0  0  0
 44 43  1  0  0  0  0
 45 46  1  6  0  0  0
 45 44  1  0  0  0  0
 47 46  1  0  0  0  0
 47 48  1  0  0  0  0
 49 48  1  0  0  0  0
 49 50  1  0  0  0  0
 50 51  1  0  0  0  0
 50 52  2  0  0  0  0
 54 51  1  1  0  0  0
 55 53  1  6  0  0  0
 55 54  1  0  0  0  0
 56 55  1  0  0  0  0
 56 54  1  0  0  0  0
 57 45  1  0  0  0  0
 58 60  1  1  0  0  0
 58 57  1  0  0  0  0
 58 61  1  0  0  0  0
 59 58  1  0  0  0  0
 62 61  1  0  0  0  0
 63 64  2  0  0  0  0
 64 65  1  0  0  0  0
 64 62  1  0  0  0  0
M  END
>  <MODEL>
5

>  <REMARK>
 VINA RESULT:      -4.8      3.123      9.490
  Name = 
  27 active torsions:
  status: ('A' for Active; 'I' for Inactive)
    1  A    between atoms: C_1  and  C_5
    2  A    between atoms: C_1  and  C_52
    3  A    between atoms: C_3  and  C_21
    4  A    between atoms: O_4  and  C_7
    5  A    between atoms: O_4  and  C_20
    6  A    between atoms: C_5  and  C_12
    7  A    between atoms: C_6  and  C_16
    8  A    between atoms: C_7  and  C_61
    9  A    between atoms: C_7  and  C_65
   10  A    between atoms: C_8  and  C_25
   11  A    between atoms: C_9  and  C_33
   12  A    between atoms: C_10  and  C_30
   13  A    between atoms: C_11  and  C_27
   14  A    between atoms: C_11  and  N_40
   15  A    between atoms: C_12  and  C_65
   16  A    between atoms: C_20  and  C_60
   17  A    between atoms: C_21  and  C_58
   18  A    between atoms: C_23  and  C_28
   19  A    between atoms: C_26  and  N_54
   20  A    between atoms: C_27  and  C_29
   21  A    between atoms: C_28  and  C_60
   22  A    between atoms: C_29  and  C_61
   23  A    between atoms: C_33  and  C_35
   24  A    between atoms: C_35  and  C_63
   25  A    between atoms: C_43  and  N_49
   26  A    between atoms: N_49  and  C_50
   27  A    between atoms: C_55  and  C_58
                            x       y       z     vdW  Elec       q    Type
                         _______ _______ _______ _____ _____    ______ ____

>  <TORSDO>
F 27

$$$$
=
 OpenBabel10222418323D

 65 71  0  0  1  0  0  0  0  0999 V2000
  188.2110  176.1750  136.8730 C   0  0  1  0  0  3  0  0  0  0  0  0
  190.3810  175.4690  136.6860 C   0  0  1  0  0  3  0  0  0  0  0  0
  190.2980  176.0540  138.1030 C   0  0  1  0  0  3  0  0  0  0  0  0
  191.1190  177.1750  138.2720 O   0  0  0  0  0  1  0  0  0  0  0  0
  188.2780  176.9370  139.1840 N   0  0  0  0  0  0  0  0  0  0  0  0
  188.8870  176.4540  138.1550 C   0  0  0  0  0  0  0  0  0  0  0  0
  189.1640  175.6410  135.9800 O   0  0  0  0  0  0  0  0  0  0  0  0
  186.2290  172.9480  137.2640 C   0  0  0  0  0  3  0  0  0  0  0  0
  184.6810  174.8060  137.3490 C   0  0  0  0  0  3  0  0  0  0  0  0
  184.9260  173.4320  137.4010 C   0  0  0  0  0  3  0  0  0  0  0  0
  187.0560  175.2250  137.0400 C   0  0  0  0  0  0  0  0  0  0  0  0
  187.2880  173.8400  137.0850 C   0  0  0  0  0  3  0  0  0  0  0  0
  185.7360  175.7080  137.1650 C   0  0  0  0  0  0  0  0  0  0  0  0
  185.4120  177.1710  137.0600 C   0  0  0  0  0  2  0  0  0  0  0  0
  184.0160  177.4900  137.5980 C   0  0  0  0  0  2  0  0  0  0  0  0
  184.0120  178.7310  138.4850 C   0  0  1  0  0  3  0  0  0  0  0  0
  182.6830  178.9900  138.9300 O   0  0  0  0  0  0  0  0  0  0  0  0
  183.8410  178.5360  140.7610 C   0  0  0  0  0  0  0  0  0  0  0  0
  184.7210  178.4690  139.6960 O   0  0  0  0  0  0  0  0  0  0  0  0
  182.6500  178.8540  140.3110 C   0  0  0  0  0  0  0  0  0  0  0  0
  184.1980  178.2820  142.1580 C   0  0  0  0  0  3  0  0  0  0  0  0
  184.6340  179.2670  142.9320 C   0  0  0  0  0  3  0  0  0  0  0  0
  185.0000  179.0030  144.3480 C   0  0  0  0  0  2  0  0  0  0  0  0
  183.7430  178.9810  145.1910 C   0  0  0  0  0  1  0  0  0  0  0  0
  181.4830  179.0220  141.1160 N   0  0  0  0  0  2  0  0  0  0  0  0
  178.9350  178.6280  141.3660 C   0  0  0  0  0  2  0  0  0  0  0  0
  179.4080  178.8610  139.9570 C   0  0  1  0  0  3  0  0  0  0  0  0
  180.4670  177.0440  140.1220 O   0  0  0  0  0  0  0  0  0  0  0  0
  180.3180  178.1680  140.9500 C   0  0  1  0  0  0  0  0  0  0  0  0
  179.5760  177.5820  139.1870 C   0  0  0  0  0  2  0  0  0  0  0  0
  191.5760  175.9280  135.8460 C   0  0  0  0  0  2  0  0  0  0  0  0
  192.8650  175.2420  136.2830 C   0  0  0  0  0  2  0  0  0  0  0  0
  193.7190  173.5570  134.5940 C   0  0  0  0  0  2  0  0  0  0  0  0
  195.4590  172.9400  136.2360 O   0  0  0  0  0  0  0  0  0  0  0  0
  194.2960  172.5070  135.5620 C   0  0  0  0  0  2  0  0  0  0  0  0
  196.4320  173.2340  135.2650 C   0  0  0  0  0  2  0  0  0  0  0  0
  197.6710  175.3880  135.1170 C   0  0  0  0  0  1  0  0  0  0  0  0
  195.2130  175.4820  135.4810 C   0  0  0  0  0  2  0  0  0  0  0  0
  196.3550  174.7050  134.8100 C   0  0  2  0  0  3  0  0  0  0  0  0
  193.7980  175.0070  135.1050 C   0  0  2  0  0  3  0  0  0  0  0  0
  188.9490  177.1960  140.4320 C   0  0  0  0  0  2  0  0  0  0  0  0
  188.2140  178.2730  141.2120 C   0  0  0  0  0  2  0  0  0  0  0  0
  187.9580  177.8450  142.6530 C   0  0  0  0  0  2  0  0  0  0  0  0
  189.0990  177.0010  143.2030 C   0  0  0  0  0  2  0  0  0  0  0  0
  189.9020  177.7730  144.2390 C   0  0  2  0  0  3  0  0  0  0  0  0
  190.8810  178.7130  143.5470 C   0  0  0  0  0  2  0  0  0  0  0  0
  192.1080  177.9480  143.0750 C   0  0  0  0  0  2  0  0  0  0  0  0
  191.7640  177.0720  141.8810 C   0  0  0  0  0  2  0  0  0  0  0  0
  192.9970  176.3540  141.3560 C   0  0  0  0  0  2  0  0  0  0  0  0
  193.6270  177.1340  140.2450 C   0  0  0  0  0  0  0  0  0  0  0  0
  194.8220  176.6820  139.6040 N   0  0  0  0  0  2  0  0  0  0  0  0
  193.1090  178.2220  139.8880 O   0  0  0  0  0  0  0  0  0  0  0  0
  197.4930  174.1250  139.3710 C   0  0  0  0  0  1  0  0  0  0  0  0
  195.4930  175.4440  139.9630 C   0  0  2  0  0  3  0  0  0  0  0  0
  196.4040  175.0250  138.8240 C   0  0  2  0  0  3  0  0  0  0  0  0
  195.0630  174.3500  139.0070 C   0  0  0  0  0  2  0  0  0  0  0  0
  190.6050  176.8680  145.0540 O   0  0  0  0  0  0  0  0  0  0  0  0
  190.0310  176.8520  146.3460 C   0  0  1  0  0  0  0  0  0  0  0  0
  189.1970  175.7540  146.5300 F   0  0  0  0  0  0  0  0  0  0  0  0
  191.1150  176.8420  147.4130 C   0  0  0  0  0  1  0  0  0  0  0  0
  189.2100  178.1190  146.5390 C   0  0  0  0  0  2  0  0  0  0  0  0
  189.0930  178.4930  148.0080 C   0  0  0  0  0  2  0  0  0  0  0  0
  186.6210  178.4730  147.6940 O   0  0  0  0  0  0  0  0  0  0  0  0
  187.7200  178.2030  148.4980 C   0  0  0  0  0  0  0  0  0  0  0  0
  187.5530  177.7350  149.6550 O   0  0  0  0  0  1  0  0  0  0  0  0
  1 11  1  1  0  0  0
  1  6  1  0  0  0  0
  2 31  1  6  0  0  0
  2  3  1  0  0  0  0
  3  6  1  0  0  0  0
  3  4  1  6  0  0  0
  5 41  1  0  0  0  0
  6  5  2  0  0  0  0
  7  2  1  0  0  0  0
  7  1  1  0  0  0  0
  8 10  1  0  0  0  0
  9 10  2  0  0  0  0
 11 12  1  0  0  0  0
 11 13  2  0  0  0  0
 12  8  2  0  0  0  0
 13  9  1  0  0  0  0
 14 13  1  0  0  0  0
 14 15  1  0  0  0  0
 16 15  1  6  0  0  0
 16 17  1  0  0  0  0
 16 19  1  0  0  0  0
 17 20  1  0  0  0  0
 18 21  1  0  0  0  0
 19 18  1  0  0  0  0
 20 18  2  0  0  0  0
 20 25  1  0  0  0  0
 21 22  2  0  0  0  0
 22 23  1  0  0  0  0
 23 24  1  0  0  0  0
 27 30  1  6  0  0  0
 27 29  1  0  0  0  0
 27 26  1  0  0  0  0
 28 29  1  0  0  0  0
 29 25  1  1  0  0  0
 29 26  1  0  0  0  0
 30 28  1  0  0  0  0
 31 32  1  0  0  0  0
 33 40  1  0  0  0  0
 33 35  1  0  0  0  0
 35 34  1  0  0  0  0
 36 34  1  0  0  0  0
 39 37  1  1  0  0  0
 39 36  1  0  0  0  0
 39 38  1  0  0  0  0
 40 38  1  0  0  0  0
 40 32  1  1  0  0  0
 41 42  1  0  0  0  0
 42 43  1  0  0  0  0
 43 44  1  0  0  0  0
 45 44  1  6  0  0  0
 45 57  1  0  0  0  0
 46 45  1  0  0  0  0
 47 46  1  0  0  0  0
 48 47  1  0  0  0  0
 49 48  1  0  0  0  0
 50 49  1  0  0  0  0
 51 50  1  0  0  0  0
 52 50  2  0  0  0  0
 54 51  1  6  0  0  0
 55 56  1  0  0  0  0
 55 53  1  1  0  0  0
 55 54  1  0  0  0  0
 56 54  1  0  0  0  0
 57 58  1  0  0  0  0
 58 59  1  0  0  0  0
 58 61  1  0  0  0  0
 58 60  1  1  0  0  0
 61 62  1  0  0  0  0
 62 64  1  0  0  0  0
 63 64  2  0  0  0  0
 64 65  1  0  0  0  0
M  END
>  <MODEL>
6

>  <REMARK>
 VINA RESULT:      -4.7      3.299      8.654
  Name = 
  27 active torsions:
  status: ('A' for Active; 'I' for Inactive)
    1  A    between atoms: C_1  and  C_5
    2  A    between atoms: C_1  and  C_52
    3  A    between atoms: C_3  and  C_21
    4  A    between atoms: O_4  and  C_7
    5  A    between atoms: O_4  and  C_20
    6  A    between atoms: C_5  and  C_12
    7  A    between atoms: C_6  and  C_16
    8  A    between atoms: C_7  and  C_61
    9  A    between atoms: C_7  and  C_65
   10  A    between atoms: C_8  and  C_25
   11  A    between atoms: C_9  and  C_33
   12  A    between atoms: C_10  and  C_30
   13  A    between atoms: C_11  and  C_27
   14  A    between atoms: C_11  and  N_40
   15  A    between atoms: C_12  and  C_65
   16  A    between atoms: C_20  and  C_60
   17  A    between atoms: C_21  and  C_58
   18  A    between atoms: C_23  and  C_28
   19  A    between atoms: C_26  and  N_54
   20  A    between atoms: C_27  and  C_29
   21  A    between atoms: C_28  and  C_60
   22  A    between atoms: C_29  and  C_61
   23  A    between atoms: C_33  and  C_35
   24  A    between atoms: C_35  and  C_63
   25  A    between atoms: C_43  and  N_49
   26  A    between atoms: N_49  and  C_50
   27  A    between atoms: C_55  and  C_58
                            x       y       z     vdW  Elec       q    Type
                         _______ _______ _______ _____ _____    ______ ____

>  <TORSDO>
F 27

$$$$
=
 OpenBabel10222418323D

 65 71  0  0  1  0  0  0  0  0999 V2000
  189.3330  175.0300  136.2160 C   0  0  1  0  0  3  0  0  0  0  0  0
  191.5090  174.3270  136.3110 C   0  0  1  0  0  3  0  0  0  0  0  0
  191.3830  175.3140  137.4810 C   0  0  1  0  0  3  0  0  0  0  0  0
  192.1960  176.4430  137.3230 O   0  0  0  0  0  1  0  0  0  0  0  0
  189.3290  176.4590  138.1870 N   0  0  0  0  0  0  0  0  0  0  0  0
  189.9700  175.6940  137.3700 C   0  0  0  0  0  0  0  0  0  0  0  0
  190.3130  174.2620  135.5540 O   0  0  0  0  0  0  0  0  0  0  0  0
  187.3520  172.0600  137.5380 C   0  0  0  0  0  3  0  0  0  0  0  0
  185.7930  173.8210  136.9700 C   0  0  0  0  0  3  0  0  0  0  0  0
  186.0430  172.5390  137.4650 C   0  0  0  0  0  3  0  0  0  0  0  0
  188.1760  174.1620  136.6340 C   0  0  0  0  0  0  0  0  0  0  0  0
  188.4140  172.8670  137.1250 C   0  0  0  0  0  3  0  0  0  0  0  0
  186.8500  174.6360  136.5480 C   0  0  0  0  0  0  0  0  0  0  0  0
  186.5230  175.9830  135.9710 C   0  0  0  0  0  2  0  0  0  0  0  0
  185.0590  176.3640  136.1940 C   0  0  0  0  0  2  0  0  0  0  0  0
  184.8590  177.1470  137.4870 C   0  0  1  0  0  3  0  0  0  0  0  0
  184.0240  178.2750  137.2330 O   0  0  0  0  0  0  0  0  0  0  0  0
  182.8860  177.0020  138.6430 C   0  0  0  0  0  0  0  0  0  0  0  0
  184.0970  176.3730  138.4150 O   0  0  0  0  0  0  0  0  0  0  0  0
  182.8510  178.1220  137.9600 C   0  0  0  0  0  0  0  0  0  0  0  0
  181.8240  176.4820  139.5060 C   0  0  0  0  0  3  0  0  0  0  0  0
  181.0640  177.3100  140.2120 C   0  0  0  0  0  3  0  0  0  0  0  0
  179.9900  176.7770  141.0910 C   0  0  0  0  0  2  0  0  0  0  0  0
  179.5830  175.4040  140.6020 C   0  0  0  0  0  1  0  0  0  0  0  0
  181.7630  179.0460  137.9490 N   0  0  0  0  0  2  0  0  0  0  0  0
  179.3580  179.6260  137.1780 C   0  0  0  0  0  2  0  0  0  0  0  0
  180.4540  180.3570  136.4510 C   0  0  1  0  0  3  0  0  0  0  0  0
  181.0550  178.4860  135.6860 O   0  0  0  0  0  0  0  0  0  0  0  0
  180.6990  178.9530  136.9620 C   0  0  1  0  0  0  0  0  0  0  0  0
  180.7780  179.7360  135.1230 C   0  0  0  0  0  2  0  0  0  0  0  0
  192.7280  174.5230  135.4040 C   0  0  0  0  0  2  0  0  0  0  0  0
  194.0160  174.6340  136.2110 C   0  0  0  0  0  2  0  0  0  0  0  0
  194.7940  173.0140  137.9980 C   0  0  0  0  0  2  0  0  0  0  0  0
  197.0170  174.0850  137.8620 O   0  0  0  0  0  0  0  0  0  0  0  0
  195.8740  173.8850  138.6670 C   0  0  0  0  0  2  0  0  0  0  0  0
  197.5700  172.8230  137.5820 C   0  0  0  0  0  2  0  0  0  0  0  0
  198.0960  171.9880  135.2970 C   0  0  0  0  0  1  0  0  0  0  0  0
  195.9000  173.1000  135.6530 C   0  0  0  0  0  2  0  0  0  0  0  0
  196.9790  172.2160  136.2950 C   0  0  2  0  0  3  0  0  0  0  0  0
  194.6170  173.2650  136.4890 C   0  0  2  0  0  3  0  0  0  0  0  0
  189.9630  177.0930  139.3150 C   0  0  0  0  0  2  0  0  0  0  0  0
  189.5700  178.5600  139.3840 C   0  0  0  0  0  2  0  0  0  0  0  0
  188.0710  178.7490  139.1820 C   0  0  0  0  0  2  0  0  0  0  0  0
  187.2610  177.7680  140.0180 C   0  0  0  0  0  2  0  0  0  0  0  0
  186.8100  178.4020  141.3250 C   0  0  2  0  0  3  0  0  0  0  0  0
  187.8980  178.2500  142.3810 C   0  0  0  0  0  2  0  0  0  0  0  0
  188.0800  176.7840  142.7470 C   0  0  0  0  0  2  0  0  0  0  0  0
  189.4510  176.2920  142.3100 C   0  0  0  0  0  2  0  0  0  0  0  0
  190.4040  176.2060  143.4920 C   0  0  0  0  0  2  0  0  0  0  0  0
  190.5390  177.5400  144.1560 C   0  0  0  0  0  0  0  0  0  0  0  0
  190.2330  177.7150  145.5410 N   0  0  0  0  0  2  0  0  0  0  0  0
  190.9010  178.5320  143.4750 O   0  0  0  0  0  0  0  0  0  0  0  0
  188.2140  176.1750  148.2390 C   0  0  0  0  0  1  0  0  0  0  0  0
  189.7940  176.6260  146.3980 C   0  0  2  0  0  3  0  0  0  0  0  0
  189.1540  177.2040  147.6470 C   0  0  2  0  0  3  0  0  0  0  0  0
  190.5690  176.6730  147.6990 C   0  0  0  0  0  2  0  0  0  0  0  0
  185.6290  177.7810  141.7640 O   0  0  0  0  0  0  0  0  0  0  0  0
  184.6840  178.7670  142.1300 C   0  0  1  0  0  0  0  0  0  0  0  0
  185.2950  179.9520  142.5210 F   0  0  0  0  0  0  0  0  0  0  0  0
  183.7330  179.0490  140.9770 C   0  0  0  0  0  1  0  0  0  0  0  0
  183.8510  178.2470  143.2930 C   0  0  0  0  0  2  0  0  0  0  0  0
  184.7100  177.9570  144.5130 C   0  0  0  0  0  2  0  0  0  0  0  0
  185.5250  179.2720  146.4660 O   0  0  0  0  0  1  0  0  0  0  0  0
  184.5320  179.0290  145.5260 C   0  0  0  0  0  0  0  0  0  0  0  0
  183.4680  179.7010  145.5480 O   0  0  0  0  0  0  0  0  0  0  0  0
  1 11  1  1  0  0  0
  1  6  1  0  0  0  0
  2 31  1  6  0  0  0
  2  3  1  0  0  0  0
  3  4  1  6  0  0  0
  5 41  1  0  0  0  0
  6  3  1  0  0  0  0
  6  5  2  0  0  0  0
  7  1  1  0  0  0  0
  7  2  1  0  0  0  0
  9 10  2  0  0  0  0
 10  8  1  0  0  0  0
 11 12  1  0  0  0  0
 12  8  2  0  0  0  0
 13 11  2  0  0  0  0
 13  9  1  0  0  0  0
 14 15  1  0  0  0  0
 14 13  1  0  0  0  0
 16 15  1  6  0  0  0
 16 19  1  0  0  0  0
 17 16  1  0  0  0  0
 17 20  1  0  0  0  0
 18 21  1  0  0  0  0
 19 18  1  0  0  0  0
 20 18  2  0  0  0  0
 21 22  2  0  0  0  0
 22 23  1  0  0  0  0
 24 23  1  0  0  0  0
 25 20  1  0  0  0  0
 27 30  1  6  0  0  0
 27 29  1  0  0  0  0
 27 26  1  0  0  0  0
 28 29  1  0  0  0  0
 29 26  1  0  0  0  0
 29 25  1  1  0  0  0
 30 28  1  0  0  0  0
 31 32  1  0  0  0  0
 33 35  1  0  0  0  0
 34 35  1  0  0  0  0
 36 34  1  0  0  0  0
 38 39  1  0  0  0  0
 38 40  1  0  0  0  0
 39 37  1  6  0  0  0
 39 36  1  0  0  0  0
 40 32  1  1  0  0  0
 40 33  1  0  0  0  0
 41 42  1  0  0  0  0
 43 42  1  0  0  0  0
 43 44  1  0  0  0  0
 45 44  1  6  0  0  0
 45 57  1  0  0  0  0
 45 46  1  0  0  0  0
 46 47  1  0  0  0  0
 48 47  1  0  0  0  0
 48 49  1  0  0  0  0
 49 50  1  0  0  0  0
 50 51  1  0  0  0  0
 52 50  2  0  0  0  0
 54 51  1  6  0  0  0
 54 55  1  0  0  0  0
 54 56  1  0  0  0  0
 55 56  1  0  0  0  0
 55 53  1  1  0  0  0
 57 58  1  0  0  0  0
 58 60  1  6  0  0  0
 58 59  1  0  0  0  0
 58 61  1  0  0  0  0
 61 62  1  0  0  0  0
 62 64  1  0  0  0  0
 64 65  2  0  0  0  0
 64 63  1  0  0  0  0
M  END
>  <MODEL>
7

>  <REMARK>
 VINA RESULT:      -4.7      3.410      9.406
  Name = 
  27 active torsions:
  status: ('A' for Active; 'I' for Inactive)
    1  A    between atoms: C_1  and  C_5
    2  A    between atoms: C_1  and  C_52
    3  A    between atoms: C_3  and  C_21
    4  A    between atoms: O_4  and  C_7
    5  A    between atoms: O_4  and  C_20
    6  A    between atoms: C_5  and  C_12
    7  A    between atoms: C_6  and  C_16
    8  A    between atoms: C_7  and  C_61
    9  A    between atoms: C_7  and  C_65
   10  A    between atoms: C_8  and  C_25
   11  A    between atoms: C_9  and  C_33
   12  A    between atoms: C_10  and  C_30
   13  A    between atoms: C_11  and  C_27
   14  A    between atoms: C_11  and  N_40
   15  A    between atoms: C_12  and  C_65
   16  A    between atoms: C_20  and  C_60
   17  A    between atoms: C_21  and  C_58
   18  A    between atoms: C_23  and  C_28
   19  A    between atoms: C_26  and  N_54
   20  A    between atoms: C_27  and  C_29
   21  A    between atoms: C_28  and  C_60
   22  A    between atoms: C_29  and  C_61
   23  A    between atoms: C_33  and  C_35
   24  A    between atoms: C_35  and  C_63
   25  A    between atoms: C_43  and  N_49
   26  A    between atoms: N_49  and  C_50
   27  A    between atoms: C_55  and  C_58
                            x       y       z     vdW  Elec       q    Type
                         _______ _______ _______ _____ _____    ______ ____

>  <TORSDO>
F 27

$$$$
=
 OpenBabel10222418323D

 65 71  0  0  1  0  0  0  0  0999 V2000
  187.0410  177.0720  142.8550 C   0  0  1  0  0  3  0  0  0  0  0  0
  189.1600  176.9470  143.7150 C   0  0  1  0  0  3  0  0  0  0  0  0
  189.3120  177.8310  142.4690 C   0  0  1  0  0  3  0  0  0  0  0  0
  190.1280  177.2470  141.4910 O   0  0  0  0  0  1  0  0  0  0  0  0
  187.4940  178.5830  141.0010 N   0  0  0  0  0  0  0  0  0  0  0  0
  187.9240  177.8860  141.9960 C   0  0  0  0  0  0  0  0  0  0  0  0
  187.8350  176.4600  143.8470 O   0  0  0  0  0  0  0  0  0  0  0  0
  185.0540  179.0470  145.4320 C   0  0  0  0  0  3  0  0  0  0  0  0
  183.8550  179.1170  143.3310 C   0  0  0  0  0  3  0  0  0  0  0  0
  183.9620  179.4790  144.6770 C   0  0  0  0  0  3  0  0  0  0  0  0
  185.9530  177.8980  143.4860 C   0  0  0  0  0  0  0  0  0  0  0  0
  186.0440  178.2610  144.8400 C   0  0  0  0  0  3  0  0  0  0  0  0
  184.8400  178.3250  142.7300 C   0  0  0  0  0  0  0  0  0  0  0  0
  184.6490  177.9170  141.2980 C   0  0  0  0  0  2  0  0  0  0  0  0
  184.4130  179.1210  140.3840 C   0  0  0  0  0  2  0  0  0  0  0  0
  183.4100  178.8140  139.2770 C   0  0  1  0  0  3  0  0  0  0  0  0
  182.1770  178.3940  139.8580 O   0  0  0  0  0  0  0  0  0  0  0  0
  181.7180  180.2840  138.8000 C   0  0  0  0  0  0  0  0  0  0  0  0
  183.0590  180.0160  138.5890 O   0  0  0  0  0  0  0  0  0  0  0  0
  181.2010  179.3260  139.5330 C   0  0  0  0  0  0  0  0  0  0  0  0
  181.0090  181.4570  138.2850 C   0  0  0  0  0  3  0  0  0  0  0  0
  181.6810  182.4830  137.7790 C   0  0  0  0  0  3  0  0  0  0  0  0
  180.9570  183.6730  137.2640 C   0  0  0  0  0  2  0  0  0  0  0  0
  179.4760  183.3670  137.2020 C   0  0  0  0  0  1  0  0  0  0  0  0
  179.8380  179.2530  139.9500 N   0  0  0  0  0  2  0  0  0  0  0  0
  179.9240  177.4210  141.7800 C   0  0  0  0  0  2  0  0  0  0  0  0
  180.7670  178.6360  142.0560 C   0  0  1  0  0  3  0  0  0  0  0  0
  178.9670  179.7300  142.1750 O   0  0  0  0  0  0  0  0  0  0  0  0
  179.4760  178.7780  141.2760 C   0  0  1  0  0  0  0  0  0  0  0  0
  180.0970  179.6020  142.9910 C   0  0  0  0  0  2  0  0  0  0  0  0
  190.1810  175.8140  143.8560 C   0  0  0  0  0  2  0  0  0  0  0  0
  191.5160  176.3260  144.3840 C   0  0  0  0  0  2  0  0  0  0  0  0
  192.0920  176.6810  146.8270 C   0  0  0  0  0  2  0  0  0  0  0  0
  190.1170  175.3070  147.3900 O   0  0  0  0  0  0  0  0  0  0  0  0
  191.5270  175.3700  147.4070 C   0  0  0  0  0  2  0  0  0  0  0  0
  189.6310  176.3810  148.1570 C   0  0  0  0  0  2  0  0  0  0  0  0
  187.9540  178.0380  147.3610 C   0  0  0  0  0  1  0  0  0  0  0  0
  189.8220  177.4460  145.8300 C   0  0  0  0  0  2  0  0  0  0  0  0
  189.4150  177.6410  147.2980 C   0  0  2  0  0  3  0  0  0  0  0  0
  191.3280  177.2170  145.6020 C   0  0  2  0  0  3  0  0  0  0  0  0
  188.3670  179.3800  140.1770 C   0  0  0  0  0  2  0  0  0  0  0  0
  188.5420  178.7310  138.8140 C   0  0  0  0  0  2  0  0  0  0  0  0
  187.9110  177.3430  138.7690 C   0  0  0  0  0  2  0  0  0  0  0  0
  188.7030  176.3920  137.8830 C   0  0  0  0  0  2  0  0  0  0  0  0
  187.8120  175.7550  136.8280 C   0  0  2  0  0  3  0  0  0  0  0  0
  188.4770  175.8440  135.4600 C   0  0  0  0  0  2  0  0  0  0  0  0
  189.9920  175.8500  135.6060 C   0  0  0  0  0  2  0  0  0  0  0  0
  190.6080  174.7010  134.8230 C   0  0  0  0  0  2  0  0  0  0  0  0
  192.0760  174.5220  135.1780 C   0  0  0  0  0  2  0  0  0  0  0  0
  192.3090  173.1760  135.7880 C   0  0  0  0  0  0  0  0  0  0  0  0
  193.3950  172.9460  136.6890 N   0  0  0  0  0  2  0  0  0  0  0  0
  191.5520  172.2220  135.4800 O   0  0  0  0  0  0  0  0  0  0  0  0
  196.3820  175.1050  136.3020 C   0  0  0  0  0  1  0  0  0  0  0  0
  194.3260  173.9890  137.0890 C   0  0  2  0  0  3  0  0  0  0  0  0
  195.6420  173.7840  136.3620 C   0  0  2  0  0  3  0  0  0  0  0  0
  195.5010  173.3590  137.8070 C   0  0  0  0  0  2  0  0  0  0  0  0
  186.5730  176.4190  136.7990 O   0  0  0  0  0  0  0  0  0  0  0  0
  185.5460  175.4890  136.5190 C   0  0  1  0  0  0  0  0  0  0  0  0
  185.3120  175.3700  135.1530 F   0  0  0  0  0  0  0  0  0  0  0  0
  185.8910  174.1220  137.0900 C   0  0  0  0  0  1  0  0  0  0  0  0
  184.2610  175.9540  137.1890 C   0  0  0  0  0  2  0  0  0  0  0  0
  183.3330  176.6480  136.2040 C   0  0  0  0  0  2  0  0  0  0  0  0
  181.0550  177.6480  136.3340 O   0  0  0  0  0  0  0  0  0  0  0  0
  181.9460  176.6620  136.7370 C   0  0  0  0  0  0  0  0  0  0  0  0
  181.5870  175.7940  137.5750 O   0  0  0  0  0  1  0  0  0  0  0  0
  1 11  1  1  0  0  0
  1  7  1  0  0  0  0
  2  7  1  0  0  0  0
  2 31  1  6  0  0  0
  3  4  1  6  0  0  0
  3  2  1  0  0  0  0
  5  6  2  0  0  0  0
  6  3  1  0  0  0  0
  6  1  1  0  0  0  0
  9 10  1  0  0  0  0
 10  8  2  0  0  0  0
 11 12  2  0  0  0  0
 12  8  1  0  0  0  0
 13  9  2  0  0  0  0
 13 11  1  0  0  0  0
 14 13  1  0  0  0  0
 15 14  1  0  0  0  0
 16 17  1  0  0  0  0
 16 15  1  1  0  0  0
 18 20  2  0  0  0  0
 19 18  1  0  0  0  0
 19 16  1  0  0  0  0
 20 17  1  0  0  0  0
 20 25  1  0  0  0  0
 21 18  1  0  0  0  0
 22 21  2  0  0  0  0
 23 22  1  0  0  0  0
 24 23  1  0  0  0  0
 27 26  1  1  0  0  0
 27 30  1  0  0  0  0
 28 30  1  0  0  0  0
 29 25  1  6  0  0  0
 29 26  1  0  0  0  0
 29 27  1  0  0  0  0
 29 28  1  0  0  0  0
 31 32  1  0  0  0  0
 33 35  1  0  0  0  0
 34 35  1  0  0  0  0
 34 36  1  0  0  0  0
 38 39  1  0  0  0  0
 39 37  1  6  0  0  0
 39 36  1  0  0  0  0
 40 32  1  6  0  0  0
 40 38  1  0  0  0  0
 40 33  1  0  0  0  0
 41  5  1  0  0  0  0
 42 41  1  0  0  0  0
 43 42  1  0  0  0  0
 44 43  1  0  0  0  0
 45 46  1  6  0  0  0
 45 44  1  0  0  0  0
 46 47  1  0  0  0  0
 48 49  1  0  0  0  0
 48 47  1  0  0  0  0
 49 50  1  0  0  0  0
 50 51  1  0  0  0  0
 52 50  2  0  0  0  0
 54 51  1  6  0  0  0
 54 56  1  0  0  0  0
 55 53  1  1  0  0  0
 55 54  1  0  0  0  0
 55 56  1  0  0  0  0
 57 45  1  0  0  0  0
 58 57  1  0  0  0  0
 58 60  1  1  0  0  0
 58 61  1  0  0  0  0
 59 58  1  0  0  0  0
 62 64  1  0  0  0  0
 62 61  1  0  0  0  0
 63 64  2  0  0  0  0
 64 65  1  0  0  0  0
M  END
>  <MODEL>
8

>  <REMARK>
 VINA RESULT:      -4.4      3.018      9.948
  Name = 
  27 active torsions:
  status: ('A' for Active; 'I' for Inactive)
    1  A    between atoms: C_1  and  C_5
    2  A    between atoms: C_1  and  C_52
    3  A    between atoms: C_3  and  C_21
    4  A    between atoms: O_4  and  C_7
    5  A    between atoms: O_4  and  C_20
    6  A    between atoms: C_5  and  C_12
    7  A    between atoms: C_6  and  C_16
    8  A    between atoms: C_7  and  C_61
    9  A    between atoms: C_7  and  C_65
   10  A    between atoms: C_8  and  C_25
   11  A    between atoms: C_9  and  C_33
   12  A    between atoms: C_10  and  C_30
   13  A    between atoms: C_11  and  C_27
   14  A    between atoms: C_11  and  N_40
   15  A    between atoms: C_12  and  C_65
   16  A    between atoms: C_20  and  C_60
   17  A    between atoms: C_21  and  C_58
   18  A    between atoms: C_23  and  C_28
   19  A    between atoms: C_26  and  N_54
   20  A    between atoms: C_27  and  C_29
   21  A    between atoms: C_28  and  C_60
   22  A    between atoms: C_29  and  C_61
   23  A    between atoms: C_33  and  C_35
   24  A    between atoms: C_35  and  C_63
   25  A    between atoms: C_43  and  N_49
   26  A    between atoms: N_49  and  C_50
   27  A    between atoms: C_55  and  C_58
                            x       y       z     vdW  Elec       q    Type
                         _______ _______ _______ _____ _____    ______ ____

>  <TORSDO>
F 27

$$$$
=
 OpenBabel10222418323D

 65 71  0  0  1  0  0  0  0  0999 V2000
  187.8730  178.7680  143.5980 C   0  0  1  0  0  3  0  0  0  0  0  0
  185.6280  178.3190  143.5780 C   0  0  1  0  0  3  0  0  0  0  0  0
  186.1100  177.8800  142.1890 C   0  0  1  0  0  3  0  0  0  0  0  0
  185.5410  178.6360  141.1570 O   0  0  0  0  0  1  0  0  0  0  0  0
  188.4330  177.9000  141.3940 N   0  0  0  0  0  0  0  0  0  0  0  0
  187.5450  178.1690  142.2890 C   0  0  0  0  0  0  0  0  0  0  0  0
  186.6750  178.9090  144.3290 O   0  0  0  0  0  0  0  0  0  0  0  0
  189.4580  176.7100  146.3810 C   0  0  0  0  0  3  0  0  0  0  0  0
  190.9930  176.7680  144.5110 C   0  0  0  0  0  3  0  0  0  0  0  0
  190.6730  176.3380  145.8010 C   0  0  0  0  0  3  0  0  0  0  0  0
  188.8640  177.9340  144.3650 C   0  0  0  0  0  0  0  0  0  0  0  0
  188.5580  177.5030  145.6670 C   0  0  0  0  0  3  0  0  0  0  0  0
  190.0990  177.5690  143.7890 C   0  0  0  0  0  0  0  0  0  0  0  0
  190.5150  178.0500  142.4290 C   0  0  0  0  0  2  0  0  0  0  0  0
  191.8130  177.3920  141.9580 C   0  0  0  0  0  2  0  0  0  0  0  0
  192.2530  177.9030  140.5900 C   0  0  1  0  0  3  0  0  0  0  0  0
  193.4780  177.2720  140.2210 O   0  0  0  0  0  0  0  0  0  0  0  0
  191.9920  176.6010  138.7220 C   0  0  0  0  0  0  0  0  0  0  0  0
  191.3380  177.4620  139.5860 O   0  0  0  0  0  0  0  0  0  0  0  0
  193.2480  176.5020  139.0890 C   0  0  0  0  0  0  0  0  0  0  0  0
  191.3650  175.9150  137.5910 C   0  0  0  0  0  3  0  0  0  0  0  0
  191.2630  174.5930  137.5770 C   0  0  0  0  0  3  0  0  0  0  0  0
  190.6300  173.9010  136.4240 C   0  0  0  0  0  2  0  0  0  0  0  0
  191.7100  173.4080  135.4860 C   0  0  0  0  0  1  0  0  0  0  0  0
  194.2370  175.7080  138.4330 N   0  0  0  0  0  2  0  0  0  0  0  0
  195.1250  173.2980  138.7740 C   0  0  0  0  0  2  0  0  0  0  0  0
  196.1240  174.2710  138.2100 C   0  0  1  0  0  3  0  0  0  0  0  0
  196.0120  175.2950  140.0500 O   0  0  0  0  0  0  0  0  0  0  0  0
  195.0580  174.7600  139.1680 C   0  0  1  0  0  0  0  0  0  0  0  0
  197.0570  174.8110  139.2560 C   0  0  0  0  0  2  0  0  0  0  0  0
  184.3720  179.1960  143.6010 C   0  0  0  0  0  2  0  0  0  0  0  0
  183.1440  178.4270  143.1290 C   0  0  0  0  0  2  0  0  0  0  0  0
  181.0070  178.9530  144.3860 C   0  0  0  0  0  2  0  0  0  0  0  0
  179.8920  177.2240  143.0170 O   0  0  0  0  0  0  0  0  0  0  0  0
  180.3310  177.5700  144.3130 C   0  0  0  0  0  2  0  0  0  0  0  0
  178.9650  178.1970  142.6040 C   0  0  0  0  0  2  0  0  0  0  0  0
  179.1040  179.4610  140.4660 C   0  0  0  0  0  1  0  0  0  0  0  0
  181.1810  179.2190  141.8120 C   0  0  0  0  0  2  0  0  0  0  0  0
  179.6540  179.3650  141.8740 C   0  0  2  0  0  3  0  0  0  0  0  0
  181.8940  179.2930  143.1750 C   0  0  2  0  0  3  0  0  0  0  0  0
  188.0980  177.3070  140.1230 C   0  0  0  0  0  2  0  0  0  0  0  0
  188.1110  178.3630  139.0300 C   0  0  0  0  0  2  0  0  0  0  0  0
  188.2450  177.7360  137.6470 C   0  0  0  0  0  2  0  0  0  0  0  0
  187.5140  176.4040  137.5570 C   0  0  0  0  0  2  0  0  0  0  0  0
  186.4370  176.4400  136.4850 C   0  0  2  0  0  3  0  0  0  0  0  0
  185.4590  177.5740  136.7650 C   0  0  0  0  0  2  0  0  0  0  0  0
  184.2880  177.0720  137.5980 C   0  0  0  0  0  2  0  0  0  0  0  0
  183.2240  178.1510  137.7260 C   0  0  0  0  0  2  0  0  0  0  0  0
  182.2130  178.0590  136.5940 C   0  0  0  0  0  2  0  0  0  0  0  0
  180.8170  178.1290  137.1280 C   0  0  0  0  0  0  0  0  0  0  0  0
  180.1530  179.3820  137.3100 N   0  0  0  0  0  2  0  0  0  0  0  0
  180.2280  177.0670  137.4490 O   0  0  0  0  0  0  0  0  0  0  0  0
  182.0220  182.4970  138.0410 C   0  0  0  0  0  1  0  0  0  0  0  0
  180.7660  180.6570  136.9780 C   0  0  2  0  0  3  0  0  0  0  0  0
  180.9180  181.4800  138.2450 C   0  0  2  0  0  3  0  0  0  0  0  0
  179.7880  181.7730  137.2830 C   0  0  0  0  0  2  0  0  0  0  0  0
  185.7510  175.2130  136.4690 O   0  0  0  0  0  0  0  0  0  0  0  0
  186.4610  174.2860  135.6710 C   0  0  1  0  0  0  0  0  0  0  0  0
  187.5460  174.8750  135.0310 F   0  0  0  0  0  0  0  0  0  0  0  0
  186.9490  173.1180  136.5140 C   0  0  0  0  0  1  0  0  0  0  0  0
  185.5230  173.7250  134.6120 C   0  0  0  0  0  2  0  0  0  0  0  0
  184.8220  172.4650  135.0950 C   0  0  0  0  0  2  0  0  0  0  0  0
  182.7350  173.8220  134.9850 O   0  0  0  0  0  0  0  0  0  0  0  0
  183.4580  172.7980  135.5820 C   0  0  0  0  0  0  0  0  0  0  0  0
  182.9680  172.1670  136.5550 O   0  0  0  0  0  1  0  0  0  0  0  0
  1  7  1  0  0  0  0
  1 11  1  1  0  0  0
  2 31  1  6  0  0  0
  2  7  1  0  0  0  0
  3  4  1  6  0  0  0
  3  6  1  0  0  0  0
  3  2  1  0  0  0  0
  5  6  2  0  0  0  0
  6  1  1  0  0  0  0
  9 10  2  0  0  0  0
 10  8  1  0  0  0  0
 11 12  1  0  0  0  0
 12  8  2  0  0  0  0
 13 11  2  0  0  0  0
 13  9  1  0  0  0  0
 14 13  1  0  0  0  0
 15 14  1  0  0  0  0
 16 15  1  1  0  0  0
 17 16  1  0  0  0  0
 18 20  2  0  0  0  0
 18 19  1  0  0  0  0
 19 16  1  0  0  0  0
 20 17  1  0  0  0  0
 21 18  1  0  0  0  0
 22 21  2  0  0  0  0
 23 22  1  0  0  0  0
 24 23  1  0  0  0  0
 25 20  1  0  0  0  0
 26 29  1  0  0  0  0
 27 26  1  1  0  0  0
 27 29  1  0  0  0  0
 27 30  1  0  0  0  0
 29 25  1  6  0  0  0
 29 28  1  0  0  0  0
 30 28  1  0  0  0  0
 32 31  1  0  0  0  0
 34 35  1  0  0  0  0
 35 33  1  0  0  0  0
 36 34  1  0  0  0  0
 38 39  1  0  0  0  0
 38 40  1  0  0  0  0
 39 37  1  6  0  0  0
 39 36  1  0  0  0  0
 40 32  1  6  0  0  0
 40 33  1  0  0  0  0
 41  5  1  0  0  0  0
 42 41  1  0  0  0  0
 43 42  1  0  0  0  0
 44 43  1  0  0  0  0
 45 46  1  1  0  0  0
 45 44  1  0  0  0  0
 46 47  1  0  0  0  0
 47 48  1  0  0  0  0
 49 50  1  0  0  0  0
 49 48  1  0  0  0  0
 50 51  1  0  0  0  0
 50 52  2  0  0  0  0
 54 56  1  0  0  0  0
 54 51  1  1  0  0  0
 54 55  1  0  0  0  0
 55 53  1  6  0  0  0
 56 55  1  0  0  0  0
 57 45  1  0  0  0  0
 58 57  1  0  0  0  0
 58 60  1  1  0  0  0
 59 58  1  0  0  0  0
 61 62  1  0  0  0  0
 61 58  1  0  0  0  0
 62 64  1  0  0  0  0
 63 64  2  0  0  0  0
 64 65  1  0  0  0  0
M  END
>  <MODEL>
9

>  <REMARK>
 VINA RESULT:      -4.4      3.101      9.744
  Name = 
  27 active torsions:
  status: ('A' for Active; 'I' for Inactive)
    1  A    between atoms: C_1  and  C_5
    2  A    between atoms: C_1  and  C_52
    3  A    between atoms: C_3  and  C_21
    4  A    between atoms: O_4  and  C_7
    5  A    between atoms: O_4  and  C_20
    6  A    between atoms: C_5  and  C_12
    7  A    between atoms: C_6  and  C_16
    8  A    between atoms: C_7  and  C_61
    9  A    between atoms: C_7  and  C_65
   10  A    between atoms: C_8  and  C_25
   11  A    between atoms: C_9  and  C_33
   12  A    between atoms: C_10  and  C_30
   13  A    between atoms: C_11  and  C_27
   14  A    between atoms: C_11  and  N_40
   15  A    between atoms: C_12  and  C_65
   16  A    between atoms: C_20  and  C_60
   17  A    between atoms: C_21  and  C_58
   18  A    between atoms: C_23  and  C_28
   19  A    between atoms: C_26  and  N_54
   20  A    between atoms: C_27  and  C_29
   21  A    between atoms: C_28  and  C_60
   22  A    between atoms: C_29  and  C_61
   23  A    between atoms: C_33  and  C_35
   24  A    between atoms: C_35  and  C_63
   25  A    between atoms: C_43  and  N_49
   26  A    between atoms: N_49  and  C_50
   27  A    between atoms: C_55  and  C_58
                            x       y       z     vdW  Elec       q    Type
                         _______ _______ _______ _____ _____    ______ ____

>  <TORSDO>
F 27

$$$$
