=
 OpenBabel10222418283D

 28 31  0  0  1  0  0  0  0  0999 V2000
  185.9070  176.9910  145.9050 O   0  0  0  0  0  0  0  0  0  0  0  0
  191.4280  176.3010  146.3980 N   0  0  0  0  0  1  0  0  0  0  0  0
  187.9100  177.6590  147.7300 C   0  0  0  0  0  2  0  0  0  0  0  0
  188.4380  178.0240  143.5420 C   0  0  2  0  0  3  0  0  0  0  0  0
  189.6580  177.8200  144.4170 C   0  0  0  0  0  0  0  0  0  0  0  0
  191.0410  177.7910  143.8060 C   0  0  0  0  0  2  0  0  0  0  0  0
  190.1110  177.4360  141.6760 C   0  0  1  0  0  0  0  0  0  0  0  0
  187.0490  177.2270  145.4220 C   0  0  0  0  0  0  0  0  0  0  0  0
  190.6890  177.5220  146.6730 C   0  0  1  0  0  3  0  0  0  0  0  0
  189.4900  177.6300  145.7440 C   0  0  0  0  0  0  0  0  0  0  0  0
  191.0800  178.1420  142.4350 O   0  0  0  0  0  0  0  0  0  0  0  0
  189.0680  178.3540  148.4260 C   0  0  0  0  0  2  0  0  0  0  0  0
  187.2790  177.1000  143.9420 C   0  0  1  0  0  3  0  0  0  0  0  0
  188.5520  179.2820  141.5270 O   0  0  0  0  0  1  0  0  0  0  0  0
  188.1510  177.5490  146.2880 N   0  0  0  0  0  0  0  0  0  0  0  0
  190.1550  175.9180  141.9340 C   0  0  0  0  0  1  0  0  0  0  0  0
  188.7190  177.9910  142.0350 C   0  0  2  0  0  3  0  0  0  0  0  0
  190.3290  177.5510  148.1590 C   0  0  0  0  0  2  0  0  0  0  0  0
  191.5440  176.1540  138.6360 N   0  0  0  0  0  0  0  0  0  0  0  0
  191.6700  177.0840  139.6940 C   0  0  0  0  0  0  0  0  0  0  0  0
  190.3950  177.6950  140.1750 C   0  0  1  0  0  3  0  0  0  0  0  0
  189.9680  175.0850  137.1440 C   0  0  0  0  0  1  0  0  0  0  0  0
  192.7960  177.3880  140.1710 O   0  0  0  0  0  0  0  0  0  0  0  0
  189.0880  177.0170  139.0740 S   0  0  0  0  0  0  0  0  0  0  0  0
  190.3250  176.0210  138.2420 C   0  0  0  0  0  0  0  0  0  0  0  0
  186.0650  177.4620  143.2210 N   0  0  0  0  0  0  0  0  0  0  0  0
  184.3450  178.9640  142.6610 N   0  0  0  0  0  1  0  0  0  0  0  0
  185.5300  178.6290  143.3710 C   0  0  0  0  0  3  0  0  0  0  0  0
  3 12  1  0  0  0  0
  4 13  1  0  0  0  0
  4  5  1  1  0  0  0
  5 10  2  0  0  0  0
  6  5  1  0  0  0  0
  7 16  1  1  0  0  0
  7 17  1  0  0  0  0
  7 11  1  0  0  0  0
  8  1  2  0  0  0  0
  8 15  1  0  0  0  0
  9  2  1  6  0  0  0
  9 18  1  0  0  0  0
 10 15  1  0  0  0  0
 10  9  1  0  0  0  0
 11  6  1  0  0  0  0
 13 26  1  6  0  0  0
 13  8  1  0  0  0  0
 15  3  1  0  0  0  0
 17 14  1  1  0  0  0
 17  4  1  0  0  0  0
 18 12  1  0  0  0  0
 19 20  1  0  0  0  0
 20 23  2  0  0  0  0
 20 21  1  0  0  0  0
 21 24  1  6  0  0  0
 21  7  1  0  0  0  0
 22 25  1  0  0  0  0
 25 19  2  0  0  0  0
 25 24  1  0  0  0  0
 26 28  2  0  0  0  0
 27 28  1  0  0  0  0
M  END
>  <MODEL>
1

>  <REMARK>
 VINA RESULT:      -7.7      0.000      0.000
  Name = 
  2 active torsions:
  status: ('A' for Active; 'I' for Inactive)
    1  A    between atoms: C_8  and  C_14
    2  A    between atoms: N_16  and  C_19
                            x       y       z     vdW  Elec       q    Type
                         _______ _______ _______ _____ _____    ______ ____

>  <TORSDO>
F 2

$$$$
=
 OpenBabel10222418283D

 28 31  0  0  1  0  0  0  0  0999 V2000
  187.8560  178.8540  138.6290 O   0  0  0  0  0  0  0  0  0  0  0  0
  193.0600  177.6260  140.2460 N   0  0  0  0  0  1  0  0  0  0  0  0
  190.0930  177.5660  137.5670 C   0  0  0  0  0  2  0  0  0  0  0  0
  188.8280  176.9900  141.5680 C   0  0  2  0  0  3  0  0  0  0  0  0
  190.2880  176.7770  141.2260 C   0  0  0  0  0  0  0  0  0  0  0  0
  191.2650  176.3250  142.2890 C   0  0  0  0  0  2  0  0  0  0  0  0
  189.7470  176.9490  143.9730 C   0  0  1  0  0  0  0  0  0  0  0  0
  188.5910  178.2370  139.4500 C   0  0  0  0  0  0  0  0  0  0  0  0
  192.1440  176.7340  139.5550 C   0  0  1  0  0  3  0  0  0  0  0  0
  190.7110  177.0300  139.9680 C   0  0  0  0  0  0  0  0  0  0  0  0
  190.6620  175.9640  143.5190 O   0  0  0  0  0  0  0  0  0  0  0  0
  191.1510  176.5270  137.2390 C   0  0  0  0  0  2  0  0  0  0  0  0
  188.2610  178.2590  140.9160 C   0  0  1  0  0  3  0  0  0  0  0  0
  187.7620  175.7430  143.2900 O   0  0  0  0  0  1  0  0  0  0  0  0
  189.7810  177.5690  138.9990 N   0  0  0  0  0  0  0  0  0  0  0  0
  190.3550  178.3650  143.9670 C   0  0  0  0  0  1  0  0  0  0  0  0
  188.5020  176.9070  143.0650 C   0  0  2  0  0  3  0  0  0  0  0  0
  192.3940  176.8480  138.0510 C   0  0  0  0  0  2  0  0  0  0  0  0
  189.7890  177.9440  147.4290 N   0  0  0  0  0  0  0  0  0  0  0  0
  190.3090  177.0620  146.4530 C   0  0  0  0  0  0  0  0  0  0  0  0
  189.3360  176.5900  145.4230 C   0  0  1  0  0  3  0  0  0  0  0  0
  187.7860  179.0690  148.1850 C   0  0  0  0  0  1  0  0  0  0  0  0
  191.5110  176.6850  146.4820 O   0  0  0  0  0  0  0  0  0  0  0  0
  187.7220  177.3230  145.9090 S   0  0  0  0  0  0  0  0  0  0  0  0
  188.5290  178.1630  147.2720 C   0  0  0  0  0  0  0  0  0  0  0  0
  186.8150  178.3240  141.0960 N   0  0  0  0  0  0  0  0  0  0  0  0
  184.8630  179.3410  141.9190 N   0  0  0  0  0  1  0  0  0  0  0  0
  186.2740  179.2960  141.7520 C   0  0  0  0  0  3  0  0  0  0  0  0
  1  8  2  0  0  0  0
  3 15  1  0  0  0  0
  4  5  1  1  0  0  0
  4 17  1  0  0  0  0
  5  6  1  0  0  0  0
  6 11  1  0  0  0  0
  7 16  1  6  0  0  0
  7 21  1  0  0  0  0
  8 13  1  0  0  0  0
  9 10  1  0  0  0  0
  9  2  1  1  0  0  0
 10  5  2  0  0  0  0
 11  7  1  0  0  0  0
 12  3  1  0  0  0  0
 12 18  1  0  0  0  0
 13 26  1  6  0  0  0
 13  4  1  0  0  0  0
 15  8  1  0  0  0  0
 15 10  1  0  0  0  0
 17 14  1  6  0  0  0
 17  7  1  0  0  0  0
 18  9  1  0  0  0  0
 20 23  2  0  0  0  0
 20 19  1  0  0  0  0
 21 24  1  1  0  0  0
 21 20  1  0  0  0  0
 24 25  1  0  0  0  0
 25 19  2  0  0  0  0
 25 22  1  0  0  0  0
 26 28  2  0  0  0  0
 28 27  1  0  0  0  0
M  END
>  <MODEL>
2

>  <REMARK>
 VINA RESULT:      -7.5      2.297      6.549
  Name = 
  2 active torsions:
  status: ('A' for Active; 'I' for Inactive)
    1  A    between atoms: C_8  and  C_14
    2  A    between atoms: N_16  and  C_19
                            x       y       z     vdW  Elec       q    Type
                         _______ _______ _______ _____ _____    ______ ____

>  <TORSDO>
F 2

$$$$
=
 OpenBabel10222418283D

 28 31  0  0  1  0  0  0  0  0999 V2000
  188.3750  175.7830  136.9220 O   0  0  0  0  0  0  0  0  0  0  0  0
  185.5740  177.9490  141.2430 N   0  0  0  0  0  1  0  0  0  0  0  0
  186.4310  177.7400  137.3420 C   0  0  0  0  0  2  0  0  0  0  0  0
  189.7920  177.2940  139.8820 C   0  0  2  0  0  3  0  0  0  0  0  0
  188.5280  177.9130  140.4450 C   0  0  0  0  0  0  0  0  0  0  0  0
  188.4870  178.4010  141.8760 C   0  0  0  0  0  2  0  0  0  0  0  0
  190.4110  177.1460  142.3760 C   0  0  1  0  0  0  0  0  0  0  0  0
  188.4390  176.4100  138.0160 C   0  0  0  0  0  0  0  0  0  0  0  0
  186.1750  178.6950  140.1490 C   0  0  1  0  0  3  0  0  0  0  0  0
  187.4310  177.9910  139.6610 C   0  0  0  0  0  0  0  0  0  0  0  0
  189.7410  178.3870  142.5320 O   0  0  0  0  0  0  0  0  0  0  0  0
  185.7360  179.0470  137.6840 C   0  0  0  0  0  2  0  0  0  0  0  0
  189.4960  176.0560  139.0230 C   0  0  1  0  0  3  0  0  0  0  0  0
  191.9430  177.9280  140.6730 O   0  0  0  0  0  1  0  0  0  0  0  0
  187.4610  177.4160  138.3330 N   0  0  0  0  0  0  0  0  0  0  0  0
  189.5110  175.9440  142.7230 C   0  0  0  0  0  1  0  0  0  0  0  0
  190.8940  177.0370  140.9170 C   0  0  2  0  0  3  0  0  0  0  0  0
  185.1180  178.9050  139.0640 C   0  0  0  0  0  2  0  0  0  0  0  0
  191.6300  177.7950  145.6980 N   0  0  0  0  0  0  0  0  0  0  0  0
  191.6040  178.2240  144.3500 C   0  0  0  0  0  0  0  0  0  0  0  0
  191.6370  177.1390  143.3240 C   0  0  1  0  0  3  0  0  0  0  0  0
  191.7450  175.8510  147.1330 C   0  0  0  0  0  1  0  0  0  0  0  0
  191.5840  179.4470  144.0500 O   0  0  0  0  0  0  0  0  0  0  0  0
  191.7930  175.5750  144.2780 S   0  0  0  0  0  0  0  0  0  0  0  0
  191.7140  176.5140  145.8030 C   0  0  0  0  0  0  0  0  0  0  0  0
  190.7020  175.6110  138.3360 N   0  0  0  0  0  0  0  0  0  0  0  0
  192.5370  175.9640  136.9100 N   0  0  0  0  0  1  0  0  0  0  0  0
  191.3640  176.4160  137.5720 C   0  0  0  0  0  3  0  0  0  0  0  0
  1  8  2  0  0  0  0
  3 12  1  0  0  0  0
  3 15  1  0  0  0  0
  4  5  1  1  0  0  0
  4 17  1  0  0  0  0
  5  6  1  0  0  0  0
  6 11  1  0  0  0  0
  7 11  1  0  0  0  0
  7 16  1  1  0  0  0
  7 21  1  0  0  0  0
  8 15  1  0  0  0  0
  8 13  1  0  0  0  0
  9  2  1  1  0  0  0
 10  9  1  0  0  0  0
 10  5  2  0  0  0  0
 12 18  1  0  0  0  0
 13 26  1  6  0  0  0
 13  4  1  0  0  0  0
 15 10  1  0  0  0  0
 17 14  1  1  0  0  0
 17  7  1  0  0  0  0
 18  9  1  0  0  0  0
 19 25  2  0  0  0  0
 20 19  1  0  0  0  0
 21 24  1  1  0  0  0
 21 20  1  0  0  0  0
 23 20  2  0  0  0  0
 24 25  1  0  0  0  0
 25 22  1  0  0  0  0
 27 28  1  0  0  0  0
 28 26  2  0  0  0  0
M  END
>  <MODEL>
3

>  <REMARK>
 VINA RESULT:      -6.5      2.763      6.979
  Name = 
  2 active torsions:
  status: ('A' for Active; 'I' for Inactive)
    1  A    between atoms: C_8  and  C_14
    2  A    between atoms: N_16  and  C_19
                            x       y       z     vdW  Elec       q    Type
                         _______ _______ _______ _____ _____    ______ ____

>  <TORSDO>
F 2

$$$$
=
 OpenBabel10222418283D

 28 31  0  0  1  0  0  0  0  0999 V2000
  187.4280  178.1200  147.7360 O   0  0  0  0  0  0  0  0  0  0  0  0
  185.3400  180.1740  142.9800 N   0  0  0  0  0  1  0  0  0  0  0  0
  184.9110  178.6140  146.6370 C   0  0  0  0  0  2  0  0  0  0  0  0
  188.0790  176.9220  144.3900 C   0  0  2  0  0  3  0  0  0  0  0  0
  186.9980  177.6940  143.6610 C   0  0  0  0  0  0  0  0  0  0  0  0
  187.0310  177.8190  142.1540 C   0  0  0  0  0  2  0  0  0  0  0  0
  189.2930  177.1770  142.1340 C   0  0  1  0  0  0  0  0  0  0  0  0
  187.3300  177.9950  146.4840 C   0  0  0  0  0  0  0  0  0  0  0  0
  184.8660  178.9950  143.6860 C   0  0  1  0  0  3  0  0  0  0  0  0
  186.0250  178.2970  144.3790 C   0  0  0  0  0  0  0  0  0  0  0  0
  188.0190  177.0240  141.5250 O   0  0  0  0  0  0  0  0  0  0  0  0
  183.6290  178.4920  145.8320 C   0  0  0  0  0  2  0  0  0  0  0  0
  188.5400  177.6390  145.6670 C   0  0  1  0  0  3  0  0  0  0  0  0
  189.2050  175.0950  143.3650 O   0  0  0  0  0  1  0  0  0  0  0  0
  186.0790  178.2580  145.8250 N   0  0  0  0  0  0  0  0  0  0  0  0
  189.6910  178.6560  142.2990 C   0  0  0  0  0  1  0  0  0  0  0  0
  189.2560  176.4840  143.5090 C   0  0  2  0  0  3  0  0  0  0  0  0
  183.7380  179.4120  144.6300 C   0  0  0  0  0  2  0  0  0  0  0  0
  191.4650  177.4710  139.2810 N   0  0  0  0  0  0  0  0  0  0  0  0
  190.2800  176.9010  139.8030 C   0  0  0  0  0  0  0  0  0  0  0  0
  190.3410  176.4760  141.2340 C   0  0  1  0  0  3  0  0  0  0  0  0
  193.7510  178.0600  139.8050 C   0  0  0  0  0  1  0  0  0  0  0  0
  189.2560  176.7410  139.0860 O   0  0  0  0  0  0  0  0  0  0  0  0
  192.0700  176.8070  141.7630 S   0  0  0  0  0  0  0  0  0  0  0  0
  192.4200  177.4930  140.1440 C   0  0  0  0  0  0  0  0  0  0  0  0
  189.4250  176.7800  146.4450 N   0  0  0  0  0  0  0  0  0  0  0  0
  191.4980  176.2740  147.4310 N   0  0  0  0  0  1  0  0  0  0  0  0
  190.6490  177.1250  146.6720 C   0  0  0  0  0  3  0  0  0  0  0  0
  4  5  1  6  0  0  0
  4 13  1  0  0  0  0
  5 10  2  0  0  0  0
  6  5  1  0  0  0  0
  7 16  1  1  0  0  0
  7 17  1  0  0  0  0
  8  1  2  0  0  0  0
  9  2  1  1  0  0  0
  9 10  1  0  0  0  0
  9 18  1  0  0  0  0
 10 15  1  0  0  0  0
 11  7  1  0  0  0  0
 11  6  1  0  0  0  0
 12  3  1  0  0  0  0
 13 26  1  1  0  0  0
 13  8  1  0  0  0  0
 15  8  1  0  0  0  0
 15  3  1  0  0  0  0
 17 14  1  6  0  0  0
 17  4  1  0  0  0  0
 18 12  1  0  0  0  0
 19 20  1  0  0  0  0
 19 25  2  0  0  0  0
 21 20  1  6  0  0  0
 21 24  1  0  0  0  0
 21  7  1  0  0  0  0
 22 25  1  0  0  0  0
 23 20  2  0  0  0  0
 25 24  1  0  0  0  0
 26 28  2  0  0  0  0
 28 27  1  0  0  0  0
M  END
>  <MODEL>
4

>  <REMARK>
 VINA RESULT:      -6.2      2.012      4.405
  Name = 
  2 active torsions:
  status: ('A' for Active; 'I' for Inactive)
    1  A    between atoms: C_8  and  C_14
    2  A    between atoms: N_16  and  C_19
                            x       y       z     vdW  Elec       q    Type
                         _______ _______ _______ _____ _____    ______ ____

>  <TORSDO>
F 2

$$$$
=
 OpenBabel10222418283D

 28 31  0  0  1  0  0  0  0  0999 V2000
  186.4470  176.9640  145.5100 O   0  0  0  0  0  0  0  0  0  0  0  0
  191.7710  175.5880  144.5280 N   0  0  0  0  0  1  0  0  0  0  0  0
  188.8940  177.1280  146.8400 C   0  0  0  0  0  2  0  0  0  0  0  0
  188.4810  178.0360  142.7230 C   0  0  2  0  0  3  0  0  0  0  0  0
  189.8280  177.5690  143.2360 C   0  0  0  0  0  0  0  0  0  0  0  0
  191.0120  177.4730  142.3000 C   0  0  0  0  0  2  0  0  0  0  0  0
  189.5710  177.5390  140.4440 C   0  0  1  0  0  0  0  0  0  0  0  0
  187.4670  177.1360  144.7870 C   0  0  0  0  0  0  0  0  0  0  0  0
  191.3010  176.8320  145.1140 C   0  0  1  0  0  3  0  0  0  0  0  0
  189.9470  177.2090  144.5330 C   0  0  0  0  0  0  0  0  0  0  0  0
  190.7820  178.0130  141.0120 O   0  0  0  0  0  0  0  0  0  0  0  0
  190.2700  177.5780  147.3000 C   0  0  0  0  0  2  0  0  0  0  0  0
  187.3250  177.2000  143.2920 C   0  0  1  0  0  3  0  0  0  0  0  0
  188.3050  179.5520  140.8990 O   0  0  0  0  0  1  0  0  0  0  0  0
  188.7750  177.2030  145.3820 N   0  0  0  0  0  0  0  0  0  0  0  0
  189.4520  176.0040  140.5080 C   0  0  0  0  0  1  0  0  0  0  0  0
  188.3960  178.1900  141.1990 C   0  0  2  0  0  3  0  0  0  0  0  0
  191.3040  176.6860  146.6370 C   0  0  0  0  0  2  0  0  0  0  0  0
  189.7420  176.4940  137.0060 N   0  0  0  0  0  0  0  0  0  0  0  0
  190.4020  177.1540  138.0690 C   0  0  0  0  0  0  0  0  0  0  0  0
  189.5320  177.9800  138.9590 C   0  0  1  0  0  3  0  0  0  0  0  0
  187.5960  176.1560  135.9410 C   0  0  0  0  0  1  0  0  0  0  0  0
  191.6490  177.0650  138.2230 O   0  0  0  0  0  0  0  0  0  0  0  0
  187.8500  177.8730  138.2260 S   0  0  0  0  0  0  0  0  0  0  0  0
  188.4810  176.7550  136.9740 C   0  0  0  0  0  0  0  0  0  0  0  0
  186.0430  177.7990  142.9430 N   0  0  0  0  0  0  0  0  0  0  0  0
  184.3270  179.3750  143.2550 N   0  0  0  0  0  1  0  0  0  0  0  0
  185.5800  178.8050  143.6080 C   0  0  0  0  0  3  0  0  0  0  0  0
  3 12  1  0  0  0  0
  4  5  1  6  0  0  0
  4 13  1  0  0  0  0
  5 10  2  0  0  0  0
  6  5  1  0  0  0  0
  7 16  1  1  0  0  0
  7 11  1  0  0  0  0
  7 17  1  0  0  0  0
  8 15  1  0  0  0  0
  8  1  2  0  0  0  0
  9  2  1  6  0  0  0
  9 18  1  0  0  0  0
 10  9  1  0  0  0  0
 10 15  1  0  0  0  0
 11  6  1  0  0  0  0
 13 26  1  1  0  0  0
 13  8  1  0  0  0  0
 15  3  1  0  0  0  0
 17 14  1  1  0  0  0
 17  4  1  0  0  0  0
 18 12  1  0  0  0  0
 19 20  1  0  0  0  0
 20 23  2  0  0  0  0
 21 20  1  6  0  0  0
 21  7  1  0  0  0  0
 22 25  1  0  0  0  0
 24 21  1  0  0  0  0
 25 19  2  0  0  0  0
 25 24  1  0  0  0  0
 26 28  2  0  0  0  0
 27 28  1  0  0  0  0
M  END
>  <MODEL>
5

>  <REMARK>
 VINA RESULT:      -6.2      1.408      1.572
  Name = 
  2 active torsions:
  status: ('A' for Active; 'I' for Inactive)
    1  A    between atoms: C_8  and  C_14
    2  A    between atoms: N_16  and  C_19
                            x       y       z     vdW  Elec       q    Type
                         _______ _______ _______ _____ _____    ______ ____

>  <TORSDO>
F 2

$$$$
=
 OpenBabel10222418283D

 28 31  0  0  1  0  0  0  0  0999 V2000
  187.9900  177.5700  138.0790 O   0  0  0  0  0  0  0  0  0  0  0  0
  184.0660  177.5030  142.0550 N   0  0  0  0  0  1  0  0  0  0  0  0
  185.4360  178.6260  138.4700 C   0  0  0  0  0  2  0  0  0  0  0  0
  188.3750  178.6040  141.5200 C   0  0  2  0  0  3  0  0  0  0  0  0
  186.9120  178.6170  141.9150 C   0  0  0  0  0  0  0  0  0  0  0  0
  186.5150  178.6670  143.3740 C   0  0  0  0  0  2  0  0  0  0  0  0
  188.6790  177.9980  144.0040 C   0  0  1  0  0  0  0  0  0  0  0  0
  187.6820  177.8690  139.2670 C   0  0  0  0  0  0  0  0  0  0  0  0
  184.4940  178.6640  141.2920 C   0  0  1  0  0  3  0  0  0  0  0  0
  185.9710  178.5510  140.9490 C   0  0  0  0  0  0  0  0  0  0  0  0
  187.5940  178.8750  144.2660 O   0  0  0  0  0  0  0  0  0  0  0  0
  184.2800  179.5040  138.9170 C   0  0  0  0  0  2  0  0  0  0  0  0
  188.6570  177.6130  140.3820 C   0  0  1  0  0  3  0  0  0  0  0  0
  190.0340  179.6500  142.8650 O   0  0  0  0  0  1  0  0  0  0  0  0
  186.3770  178.3920  139.5680 N   0  0  0  0  0  0  0  0  0  0  0  0
  188.2330  176.5280  143.8950 C   0  0  0  0  0  1  0  0  0  0  0  0
  189.3530  178.4420  142.6910 C   0  0  2  0  0  3  0  0  0  0  0  0
  183.5820  178.8110  140.0740 C   0  0  0  0  0  2  0  0  0  0  0  0
  190.0460  176.4780  146.9640 N   0  0  0  0  0  0  0  0  0  0  0  0
  189.2210  177.5020  146.4410 C   0  0  0  0  0  0  0  0  0  0  0  0
  189.6920  178.1270  145.1690 C   0  0  1  0  0  3  0  0  0  0  0  0
  192.0980  175.2450  146.6150 C   0  0  0  0  0  1  0  0  0  0  0  0
  188.1760  177.8720  147.0380 O   0  0  0  0  0  0  0  0  0  0  0  0
  191.3050  177.3240  144.8030 S   0  0  0  0  0  0  0  0  0  0  0  0
  191.1000  176.2840  146.2490 C   0  0  0  0  0  0  0  0  0  0  0  0
  190.0210  177.7720  139.8910 N   0  0  0  0  0  0  0  0  0  0  0  0
  192.1330  176.9270  139.3030 N   0  0  0  0  0  1  0  0  0  0  0  0
  190.8060  176.7520  139.7810 C   0  0  0  0  0  3  0  0  0  0  0  0
  1  8  2  0  0  0  0
  3 12  1  0  0  0  0
  3 15  1  0  0  0  0
  4  5  1  1  0  0  0
  4 17  1  0  0  0  0
  5  6  1  0  0  0  0
  6 11  1  0  0  0  0
  7 16  1  6  0  0  0
  7 11  1  0  0  0  0
  7 21  1  0  0  0  0
  8 15  1  0  0  0  0
  8 13  1  0  0  0  0
  9  2  1  6  0  0  0
 10  9  1  0  0  0  0
 10  5  2  0  0  0  0
 12 18  1  0  0  0  0
 13 26  1  6  0  0  0
 13  4  1  0  0  0  0
 15 10  1  0  0  0  0
 17 14  1  1  0  0  0
 17  7  1  0  0  0  0
 18  9  1  0  0  0  0
 20 19  1  0  0  0  0
 20 23  2  0  0  0  0
 21 24  1  6  0  0  0
 21 20  1  0  0  0  0
 24 25  1  0  0  0  0
 25 22  1  0  0  0  0
 25 19  2  0  0  0  0
 27 28  1  0  0  0  0
 28 26  2  0  0  0  0
M  END
>  <MODEL>
6

>  <REMARK>
 VINA RESULT:      -5.8      2.682      6.832
  Name = 
  2 active torsions:
  status: ('A' for Active; 'I' for Inactive)
    1  A    between atoms: C_8  and  C_14
    2  A    between atoms: N_16  and  C_19
                            x       y       z     vdW  Elec       q    Type
                         _______ _______ _______ _____ _____    ______ ____

>  <TORSDO>
F 2

$$$$
=
 OpenBabel10222418283D

 28 31  0  0  1  0  0  0  0  0999 V2000
  188.5620  178.2530  141.6100 O   0  0  0  0  0  0  0  0  0  0  0  0
  187.3500  175.3020  137.0250 N   0  0  0  0  0  1  0  0  0  0  0  0
  189.8260  177.5410  139.2260 C   0  0  0  0  0  2  0  0  0  0  0  0
  185.7780  178.7820  139.3680 C   0  0  2  0  0  3  0  0  0  0  0  0
  186.2250  177.8770  138.2380 C   0  0  0  0  0  0  0  0  0  0  0  0
  185.2510  177.4630  137.1580 C   0  0  0  0  0  2  0  0  0  0  0  0
  183.4440  178.1010  138.5210 C   0  0  1  0  0  0  0  0  0  0  0  0
  187.8190  178.1320  140.5970 C   0  0  0  0  0  0  0  0  0  0  0  0
  188.0160  176.5930  137.0620 C   0  0  1  0  0  3  0  0  0  0  0  0
  187.4960  177.4190  138.2280 C   0  0  0  0  0  0  0  0  0  0  0  0
  184.0010  178.1250  137.2160 O   0  0  0  0  0  0  0  0  0  0  0  0
  190.2680  177.4970  137.7740 C   0  0  0  0  0  2  0  0  0  0  0  0
  186.3350  178.3290  140.7260 C   0  0  1  0  0  3  0  0  0  0  0  0
  184.0450  180.3820  139.0650 O   0  0  0  0  0  1  0  0  0  0  0  0
  188.3780  177.7390  139.3310 N   0  0  0  0  0  0  0  0  0  0  0  0
  183.4290  176.6850  139.1270 C   0  0  0  0  0  1  0  0  0  0  0  0
  184.2680  179.0470  139.4150 C   0  0  2  0  0  3  0  0  0  0  0  0
  189.5280  176.3610  137.0900 C   0  0  0  0  0  2  0  0  0  0  0  0
  179.9510  177.2650  138.7250 N   0  0  0  0  0  0  0  0  0  0  0  0
  181.0290  177.6160  137.8780 C   0  0  0  0  0  0  0  0  0  0  0  0
  181.9870  178.6200  138.4310 C   0  0  1  0  0  3  0  0  0  0  0  0
  178.9310  177.6910  140.8760 C   0  0  0  0  0  1  0  0  0  0  0  0
  181.1440  177.1270  136.7230 O   0  0  0  0  0  0  0  0  0  0  0  0
  181.2970  179.0970  140.0670 S   0  0  0  0  0  0  0  0  0  0  0  0
  179.9690  177.9150  139.8370 C   0  0  0  0  0  0  0  0  0  0  0  0
  186.0570  179.3280  141.7500 N   0  0  0  0  0  0  0  0  0  0  0  0
  184.9620  180.0680  143.6940 N   0  0  0  0  0  1  0  0  0  0  0  0
  185.2220  179.0810  142.7050 C   0  0  0  0  0  3  0  0  0  0  0  0
  3 15  1  0  0  0  0
  4  5  1  6  0  0  0
  4 17  1  0  0  0  0
  4 13  1  0  0  0  0
  6 11  1  0  0  0  0
  6  5  1  0  0  0  0
  7 16  1  1  0  0  0
  7 17  1  0  0  0  0
  8 13  1  0  0  0  0
  8  1  2  0  0  0  0
  9  2  1  1  0  0  0
  9 18  1  0  0  0  0
  9 10  1  0  0  0  0
 10  5  2  0  0  0  0
 10 15  1  0  0  0  0
 11  7  1  0  0  0  0
 12  3  1  0  0  0  0
 13 26  1  1  0  0  0
 15  8  1  0  0  0  0
 17 14  1  6  0  0  0
 18 12  1  0  0  0  0
 19 25  2  0  0  0  0
 20 19  1  0  0  0  0
 21 20  1  1  0  0  0
 21  7  1  0  0  0  0
 21 24  1  0  0  0  0
 23 20  2  0  0  0  0
 25 24  1  0  0  0  0
 25 22  1  0  0  0  0
 26 28  2  0  0  0  0
 28 27  1  0  0  0  0
M  END
>  <MODEL>
7

>  <REMARK>
 VINA RESULT:      -5.7      4.810      8.228
  Name = 
  2 active torsions:
  status: ('A' for Active; 'I' for Inactive)
    1  A    between atoms: C_8  and  C_14
    2  A    between atoms: N_16  and  C_19
                            x       y       z     vdW  Elec       q    Type
                         _______ _______ _______ _____ _____    ______ ____

>  <TORSDO>
F 2

$$$$
=
 OpenBabel10222418283D

 28 31  0  0  1  0  0  0  0  0999 V2000
  187.8860  178.7240  140.1200 O   0  0  0  0  0  0  0  0  0  0  0  0
  183.8810  179.6750  143.8960 N   0  0  0  0  0  1  0  0  0  0  0  0
  187.3350  178.0090  142.7600 C   0  0  0  0  0  2  0  0  0  0  0  0
  184.3560  178.0490  139.7490 C   0  0  2  0  0  3  0  0  0  0  0  0
  183.9380  178.2430  141.1920 C   0  0  0  0  0  0  0  0  0  0  0  0
  182.4770  178.4030  141.5500 C   0  0  0  0  0  2  0  0  0  0  0  0
  181.9640  178.8940  139.3090 C   0  0  1  0  0  0  0  0  0  0  0  0
  186.6670  178.5970  140.4230 C   0  0  0  0  0  0  0  0  0  0  0  0
  184.5120  178.3950  143.6180 C   0  0  1  0  0  3  0  0  0  0  0  0
  184.8900  178.3040  142.1490 C   0  0  0  0  0  0  0  0  0  0  0  0
  181.5850  178.1780  140.4740 O   0  0  0  0  0  0  0  0  0  0  0  0
  186.7700  177.3210  143.9910 C   0  0  0  0  0  2  0  0  0  0  0  0
  185.6060  178.8670  139.3950 C   0  0  1  0  0  3  0  0  0  0  0  0
  182.9260  176.9840  138.1740 O   0  0  0  0  0  1  0  0  0  0  0  0
  186.2860  178.2600  141.7680 N   0  0  0  0  0  0  0  0  0  0  0  0
  182.2340  180.3830  139.5960 C   0  0  0  0  0  1  0  0  0  0  0  0
  183.2280  178.2320  138.7260 C   0  0  2  0  0  3  0  0  0  0  0  0
  185.6900  178.2140  144.5760 C   0  0  0  0  0  2  0  0  0  0  0  0
  179.1040  180.5080  137.8400 N   0  0  0  0  0  0  0  0  0  0  0  0
  179.5630  179.4900  138.7100 C   0  0  0  0  0  0  0  0  0  0  0  0
  180.8090  178.7860  138.2820 C   0  0  1  0  0  3  0  0  0  0  0  0
  179.5440  181.6450  135.7510 C   0  0  0  0  0  1  0  0  0  0  0  0
  178.9330  179.1890  139.7580 O   0  0  0  0  0  0  0  0  0  0  0  0
  181.2370  179.5090  136.6480 S   0  0  0  0  0  0  0  0  0  0  0  0
  179.8430  180.6260  136.7920 C   0  0  0  0  0  0  0  0  0  0  0  0
  186.0970  178.5030  138.0710 N   0  0  0  0  0  0  0  0  0  0  0  0
  186.8500  176.9380  136.4870 N   0  0  0  0  0  1  0  0  0  0  0  0
  186.3710  177.2740  137.7830 C   0  0  0  0  0  3  0  0  0  0  0  0
  1  8  2  0  0  0  0
  3 12  1  0  0  0  0
  4  5  1  1  0  0  0
  5  6  1  0  0  0  0
  5 10  2  0  0  0  0
  7 16  1  1  0  0  0
  7 11  1  0  0  0  0
  8 15  1  0  0  0  0
  9  2  1  6  0  0  0
  9 18  1  0  0  0  0
 10  9  1  0  0  0  0
 11  6  1  0  0  0  0
 12 18  1  0  0  0  0
 13 26  1  6  0  0  0
 13  4  1  0  0  0  0
 13  8  1  0  0  0  0
 15 10  1  0  0  0  0
 15  3  1  0  0  0  0
 17 14  1  1  0  0  0
 17  7  1  0  0  0  0
 17  4  1  0  0  0  0
 19 20  1  0  0  0  0
 20 23  2  0  0  0  0
 21 24  1  6  0  0  0
 21 20  1  0  0  0  0
 21  7  1  0  0  0  0
 22 25  1  0  0  0  0
 24 25  1  0  0  0  0
 25 19  2  0  0  0  0
 27 28  1  0  0  0  0
 28 26  2  0  0  0  0
M  END
>  <MODEL>
8

>  <REMARK>
 VINA RESULT:      -5.7      5.448      8.347
  Name = 
  2 active torsions:
  status: ('A' for Active; 'I' for Inactive)
    1  A    between atoms: C_8  and  C_14
    2  A    between atoms: N_16  and  C_19
                            x       y       z     vdW  Elec       q    Type
                         _______ _______ _______ _____ _____    ______ ____

>  <TORSDO>
F 2

$$$$
=
 OpenBabel10222418283D

 28 31  0  0  1  0  0  0  0  0999 V2000
  188.4500  178.5710  139.0070 O   0  0  0  0  0  0  0  0  0  0  0  0
  189.2550  173.3110  137.3070 N   0  0  0  0  0  1  0  0  0  0  0  0
  190.4970  177.0750  137.8420 C   0  0  0  0  0  2  0  0  0  0  0  0
  186.4570  176.7400  136.6130 C   0  0  2  0  0  3  0  0  0  0  0  0
  187.3830  175.5590  136.4080 C   0  0  0  0  0  0  0  0  0  0  0  0
  186.8800  174.3010  135.7350 C   0  0  0  0  0  2  0  0  0  0  0  0
  184.6570  174.9700  136.1090 C   0  0  1  0  0  0  0  0  0  0  0  0
  188.0930  177.6460  138.2260 C   0  0  0  0  0  0  0  0  0  0  0  0
  189.6440  174.5140  136.5890 C   0  0  1  0  0  3  0  0  0  0  0  0
  188.6520  175.6330  136.8630 C   0  0  0  0  0  0  0  0  0  0  0  0
  185.5800  174.4130  135.1860 O   0  0  0  0  0  0  0  0  0  0  0  0
  191.3710  176.3430  136.8370 C   0  0  0  0  0  2  0  0  0  0  0  0
  186.6320  177.3770  138.0000 C   0  0  1  0  0  3  0  0  0  0  0  0
  184.6560  177.1810  135.1230 O   0  0  0  0  0  1  0  0  0  0  0  0
  189.0770  176.8030  137.6020 N   0  0  0  0  0  0  0  0  0  0  0  0
  184.6980  174.2640  137.4780 C   0  0  0  0  0  1  0  0  0  0  0  0
  184.9850  176.4660  136.2780 C   0  0  2  0  0  3  0  0  0  0  0  0
  191.0880  174.8570  136.9590 C   0  0  0  0  0  2  0  0  0  0  0  0
  181.6350  173.0200  136.0290 N   0  0  0  0  0  0  0  0  0  0  0  0
  182.8070  173.4010  135.3350 C   0  0  0  0  0  0  0  0  0  0  0  0
  183.2340  174.8210  135.5140 C   0  0  1  0  0  3  0  0  0  0  0  0
  179.8770  173.8140  137.4890 C   0  0  0  0  0  1  0  0  0  0  0  0
  183.4250  172.5910  134.5940 O   0  0  0  0  0  0  0  0  0  0  0  0
  181.9370  175.5870  136.5680 S   0  0  0  0  0  0  0  0  0  0  0  0
  181.1110  173.9990  136.6820 C   0  0  0  0  0  0  0  0  0  0  0  0
  185.8810  178.6230  138.0880 N   0  0  0  0  0  0  0  0  0  0  0  0
  184.3120  180.0410  139.1160 N   0  0  0  0  0  1  0  0  0  0  0  0
  185.0370  178.8200  139.0460 C   0  0  0  0  0  3  0  0  0  0  0  0
  4  5  1  1  0  0  0
  4 13  1  0  0  0  0
  5 10  2  0  0  0  0
  6  5  1  0  0  0  0
  7 17  1  0  0  0  0
  7 16  1  1  0  0  0
  8  1  2  0  0  0  0
  9 10  1  0  0  0  0
  9 18  1  0  0  0  0
  9  2  1  1  0  0  0
 10 15  1  0  0  0  0
 11  6  1  0  0  0  0
 11  7  1  0  0  0  0
 12 18  1  0  0  0  0
 12  3  1  0  0  0  0
 13 26  1  6  0  0  0
 13  8  1  0  0  0  0
 15  3  1  0  0  0  0
 15  8  1  0  0  0  0
 17 14  1  6  0  0  0
 17  4  1  0  0  0  0
 19 25  2  0  0  0  0
 20 19  1  0  0  0  0
 21 20  1  1  0  0  0
 21  7  1  0  0  0  0
 21 24  1  0  0  0  0
 23 20  2  0  0  0  0
 24 25  1  0  0  0  0
 25 22  1  0  0  0  0
 26 28  2  0  0  0  0
 28 27  1  0  0  0  0
M  END
>  <MODEL>
9

>  <REMARK>
 VINA RESULT:      -5.6      6.157      8.881
  Name = 
  2 active torsions:
  status: ('A' for Active; 'I' for Inactive)
    1  A    between atoms: C_8  and  C_14
    2  A    between atoms: N_16  and  C_19
                            x       y       z     vdW  Elec       q    Type
                         _______ _______ _______ _____ _____    ______ ____

>  <TORSDO>
F 2

$$$$
