=
 OpenBabel10222419573D

 36 40  0  0  1  0  0  0  0  0999 V2000
  188.3950  177.9090  136.9720 C   0  0  0  0  0  2  0  0  0  0  0  0
  188.6390  176.6390  137.7220 C   0  0  0  0  0  0  0  0  0  0  0  0
  187.8670  175.5780  137.4760 C   0  0  0  0  0  3  0  0  0  0  0  0
  186.8960  178.2080  136.9330 C   0  0  0  0  0  2  0  0  0  0  0  0
  186.7920  175.6580  136.4310 C   0  0  0  0  0  2  0  0  0  0  0  0
  186.0570  177.0110  136.4380 C   0  0  1  0  0  3  0  0  0  0  0  0
  184.7780  176.9120  137.2100 C   0  0  0  0  0  0  0  0  0  0  0  0
  184.3770  175.8300  137.6150 O   0  0  0  0  0  0  0  0  0  0  0  0
  183.9640  178.1430  137.4530 C   0  0  0  0  0  2  0  0  0  0  0  0
  183.2230  179.3720  145.2660 F   0  0  0  0  0  0  0  0  0  0  0  0
  184.1180  178.8450  141.2670 C   0  0  0  0  0  0  0  0  0  0  0  0
  182.3570  177.8220  139.1750 O   0  0  0  0  0  0  0  0  0  0  0  0
  183.5260  178.1860  138.8780 C   0  0  0  0  0  0  0  0  0  0  0  0
  183.5250  179.2150  143.9530 C   0  0  0  0  0  0  0  0  0  0  0  0
  184.8060  179.4990  143.4850 C   0  0  0  0  0  3  0  0  0  0  0  0
  184.4290  178.6710  139.8790 N   0  0  0  0  0  2  0  0  0  0  0  0
  182.8710  178.5720  141.7480 N   0  0  0  0  0  0  0  0  0  0  0  0
  185.1080  179.3220  142.1330 C   0  0  0  0  0  2  0  0  0  0  0  0
  182.5590  178.7460  143.0600 C   0  0  0  0  0  2  0  0  0  0  0  0
  189.7280  176.5770  138.6530 N   0  0  0  0  0  2  0  0  0  0  0  0
  190.5120  176.6690  140.8990 C   0  0  1  0  0  3  0  0  0  0  0  0
  189.8090  177.4040  139.8490 C   0  0  1  0  0  3  0  0  0  0  0  0
  191.2190  177.7100  140.1350 N   0  0  0  0  0  2  0  0  0  0  0  0
  190.1570  177.1920  142.2200 N   0  0  0  0  0  0  0  0  0  0  0  0
  190.9380  175.8970  144.0450 F   0  0  0  0  0  0  0  0  0  0  0  0
  191.2580  176.9080  143.1500 C   0  0  2  0  0  3  0  0  0  0  0  0
  191.6720  178.1620  143.9000 C   0  0  0  0  0  1  0  0  0  0  0  0
  188.8710  176.6500  142.7080 C   0  0  0  0  0  2  0  0  0  0  0  0
  187.7910  176.7690  144.9100 C   0  0  2  0  0  3  0  0  0  0  0  0
  188.1540  177.5560  143.7080 C   0  0  2  0  0  3  0  0  0  0  0  0
  186.8440  177.0830  143.9170 O   0  0  0  0  0  0  0  0  0  0  0  0
  186.1680  178.0600  146.4900 C   0  0  0  0  0  1  0  0  0  0  0  0
  187.6060  177.6540  146.1700 C   0  0  1  0  0  3  0  0  0  0  0  0
  188.3110  177.1680  147.4510 C   0  0  0  0  0  3  0  0  0  0  0  0
  189.3990  178.1030  147.9570 C   0  0  0  0  0  2  0  0  0  0  0  0
  189.7720  176.8470  147.1870 C   0  0  0  0  0  2  0  0  0  0  0  0
  1  2  1  0  0  0  0
  2 20  1  0  0  0  0
  3  2  2  0  0  0  0
  4  1  1  0  0  0  0
  5  6  1  0  0  0  0
  5  3  1  0  0  0  0
  6  4  1  0  0  0  0
  6  7  1  1  0  0  0
  7  9  1  0  0  0  0
  7  8  2  0  0  0  0
  9 13  1  0  0  0  0
 11 17  2  0  0  0  0
 11 18  1  0  0  0  0
 13 12  2  0  0  0  0
 13 16  1  0  0  0  0
 14 10  1  0  0  0  0
 15 14  2  0  0  0  0
 16 11  1  0  0  0  0
 17 19  1  0  0  0  0
 18 15  1  0  0  0  0
 19 14  1  0  0  0  0
 21 24  1  1  0  0  0
 22 20  1  6  0  0  0
 22 23  1  0  0  0  0
 22 21  1  0  0  0  0
 23 21  1  0  0  0  0
 24 28  1  0  0  0  0
 24 26  1  0  0  0  0
 26 27  1  1  0  0  0
 26 25  1  0  0  0  0
 29 33  1  1  0  0  0
 30 28  1  6  0  0  0
 30 31  1  0  0  0  0
 30 29  1  0  0  0  0
 31 29  1  0  0  0  0
 33 32  1  1  0  0  0
 33 34  1  0  0  0  0
 34 35  1  0  0  0  0
 36 34  1  0  0  0  0
 36 35  1  0  0  0  0
M  END
>  <MODEL>
1

>  <REMARK>
 VINA RESULT:      -7.8      0.000      0.000
  Name = 
  11 active torsions:
  status: ('A' for Active; 'I' for Inactive)
    1  A    between atoms: C_1  and  C_26
    2  A    between atoms: C_7  and  N_27
    3  A    between atoms: C_10  and  N_24
    4  A    between atoms: C_10  and  C_29
    5  A    between atoms: C_12  and  N_24
    6  A    between atoms: C_13  and  N_24
    7  A    between atoms: C_14  and  N_27
    8  A    between atoms: C_15  and  C_22
    9  A    between atoms: C_17  and  C_22
   10  A    between atoms: C_17  and  C_35
   11  A    between atoms: C_25  and  C_26
                            x       y       z     vdW  Elec       q    Type
                         _______ _______ _______ _____ _____    ______ ____

>  <TORSDO>
F 11

$$$$
=
 OpenBabel10222419573D

 36 40  0  0  1  0  0  0  0  0999 V2000
  190.7040  175.9580  136.4590 C   0  0  0  0  0  2  0  0  0  0  0  0
  189.9720  175.6190  137.7180 C   0  0  0  0  0  0  0  0  0  0  0  0
  188.7520  175.0810  137.6390 C   0  0  0  0  0  3  0  0  0  0  0  0
  189.7600  176.6610  135.4850 C   0  0  0  0  0  2  0  0  0  0  0  0
  188.1470  174.7890  136.2970 C   0  0  0  0  0  2  0  0  0  0  0  0
  188.4430  175.8900  135.2610 C   0  0  1  0  0  3  0  0  0  0  0  0
  187.2890  176.8400  135.1580 C   0  0  0  0  0  0  0  0  0  0  0  0
  186.1960  176.4520  134.7720 O   0  0  0  0  0  0  0  0  0  0  0  0
  187.4890  178.2840  135.4920 C   0  0  0  0  0  2  0  0  0  0  0  0
  184.2890  178.6680  142.7520 F   0  0  0  0  0  0  0  0  0  0  0  0
  185.4630  178.4020  138.8000 C   0  0  0  0  0  0  0  0  0  0  0  0
  188.1310  178.8610  137.7070 O   0  0  0  0  0  0  0  0  0  0  0  0
  187.1970  178.5130  136.9360 C   0  0  0  0  0  0  0  0  0  0  0  0
  184.6650  178.5650  141.4530 C   0  0  0  0  0  0  0  0  0  0  0  0
  183.7250  178.2670  140.4690 C   0  0  0  0  0  3  0  0  0  0  0  0
  185.8680  178.3020  137.4300 N   0  0  0  0  0  2  0  0  0  0  0  0
  186.3640  178.6950  139.7800 N   0  0  0  0  0  0  0  0  0  0  0  0
  184.1230  178.1760  139.1330 C   0  0  0  0  0  3  0  0  0  0  0  0
  185.9960  178.7800  141.0870 C   0  0  0  0  0  3  0  0  0  0  0  0
  190.6170  175.8350  138.9800 N   0  0  0  0  0  2  0  0  0  0  0  0
  191.1970  176.9940  140.9770 C   0  0  1  0  0  3  0  0  0  0  0  0
  190.1710  176.8260  139.9500 C   0  0  1  0  0  3  0  0  0  0  0  0
  191.0660  177.9920  139.9030 N   0  0  0  0  0  2  0  0  0  0  0  0
  190.6100  177.5270  142.2090 N   0  0  0  0  0  0  0  0  0  0  0  0
  191.5020  176.4100  144.1000 F   0  0  0  0  0  0  0  0  0  0  0  0
  191.6330  177.5090  143.2640 C   0  0  2  0  0  3  0  0  0  0  0  0
  191.6000  178.7930  144.0730 C   0  0  0  0  0  1  0  0  0  0  0  0
  189.3920  176.7920  142.6120 C   0  0  0  0  0  2  0  0  0  0  0  0
  188.2100  176.8070  144.7630 C   0  0  2  0  0  3  0  0  0  0  0  0
  188.4610  177.5850  143.5270 C   0  0  2  0  0  3  0  0  0  0  0  0
  187.2660  176.8650  143.7210 O   0  0  0  0  0  0  0  0  0  0  0  0
  186.3270  178.1380  145.9790 C   0  0  0  0  0  1  0  0  0  0  0  0
  187.7910  177.7030  145.9580 C   0  0  1  0  0  3  0  0  0  0  0  0
  188.2140  177.2130  147.3570 C   0  0  0  0  0  3  0  0  0  0  0  0
  188.9710  178.2460  148.1780 C   0  0  0  0  0  2  0  0  0  0  0  0
  189.7250  177.1290  147.4760 C   0  0  0  0  0  2  0  0  0  0  0  0
  1  2  1  0  0  0  0
  2 20  1  0  0  0  0
  3  2  2  0  0  0  0
  4  1  1  0  0  0  0
  5  3  1  0  0  0  0
  6  7  1  1  0  0  0
  6  4  1  0  0  0  0
  6  5  1  0  0  0  0
  7  9  1  0  0  0  0
  8  7  2  0  0  0  0
  9 13  1  0  0  0  0
 11 18  1  0  0  0  0
 11 17  2  0  0  0  0
 13 16  1  0  0  0  0
 13 12  2  0  0  0  0
 14 10  1  0  0  0  0
 15 14  1  0  0  0  0
 16 11  1  0  0  0  0
 17 19  1  0  0  0  0
 18 15  2  0  0  0  0
 19 14  2  0  0  0  0
 21 24  1  1  0  0  0
 22 20  1  6  0  0  0
 22 21  1  0  0  0  0
 23 22  1  0  0  0  0
 23 21  1  0  0  0  0
 24 28  1  0  0  0  0
 24 26  1  0  0  0  0
 26 27  1  1  0  0  0
 26 25  1  0  0  0  0
 29 33  1  1  0  0  0
 30 28  1  6  0  0  0
 30 31  1  0  0  0  0
 30 29  1  0  0  0  0
 31 29  1  0  0  0  0
 33 32  1  1  0  0  0
 33 34  1  0  0  0  0
 34 36  1  0  0  0  0
 34 35  1  0  0  0  0
 36 35  1  0  0  0  0
M  END
>  <MODEL>
2

>  <REMARK>
 VINA RESULT:      -7.6      1.850      2.487
  Name = 
  11 active torsions:
  status: ('A' for Active; 'I' for Inactive)
    1  A    between atoms: C_1  and  C_26
    2  A    between atoms: C_7  and  N_27
    3  A    between atoms: C_10  and  N_24
    4  A    between atoms: C_10  and  C_29
    5  A    between atoms: C_12  and  N_24
    6  A    between atoms: C_13  and  N_24
    7  A    between atoms: C_14  and  N_27
    8  A    between atoms: C_15  and  C_22
    9  A    between atoms: C_17  and  C_22
   10  A    between atoms: C_17  and  C_35
   11  A    between atoms: C_25  and  C_26
                            x       y       z     vdW  Elec       q    Type
                         _______ _______ _______ _____ _____    ______ ____

>  <TORSDO>
F 11

$$$$
=
 OpenBabel10222419573D

 36 40  0  0  1  0  0  0  0  0999 V2000
  191.2340  176.6520  139.1430 C   0  0  0  0  0  2  0  0  0  0  0  0
  190.6090  177.2580  140.3590 C   0  0  0  0  0  0  0  0  0  0  0  0
  189.2860  177.4380  140.3910 C   0  0  0  0  0  3  0  0  0  0  0  0
  190.6470  177.2940  137.8850 C   0  0  0  0  0  2  0  0  0  0  0  0
  188.4410  177.0000  139.2310 C   0  0  0  0  0  2  0  0  0  0  0  0
  189.1050  177.2880  137.8710 C   0  0  1  0  0  3  0  0  0  0  0  0
  188.5810  178.5650  137.2890 C   0  0  0  0  0  0  0  0  0  0  0  0
  189.0770  179.6390  137.5970 O   0  0  0  0  0  0  0  0  0  0  0  0
  187.4150  178.5270  136.3530 C   0  0  0  0  0  2  0  0  0  0  0  0
  180.9810  177.3200  140.8530 F   0  0  0  0  0  0  0  0  0  0  0  0
  184.4310  178.3550  138.8280 C   0  0  0  0  0  0  0  0  0  0  0  0
  185.7400  176.8720  136.6800 O   0  0  0  0  0  0  0  0  0  0  0  0
  186.2220  177.9740  137.0550 C   0  0  0  0  0  0  0  0  0  0  0  0
  182.1080  177.6770  140.1870 C   0  0  0  0  0  0  0  0  0  0  0  0
  182.8020  178.8310  140.5430 C   0  0  0  0  0  3  0  0  0  0  0  0
  185.6230  178.7210  138.1220 N   0  0  0  0  0  2  0  0  0  0  0  0
  183.7360  177.2290  138.4980 N   0  0  0  0  0  0  0  0  0  0  0  0
  183.9670  179.1810  139.8570 C   0  0  0  0  0  2  0  0  0  0  0  0
  182.5950  176.8770  139.1500 C   0  0  0  0  0  2  0  0  0  0  0  0
  191.4390  177.5870  141.4810 N   0  0  0  0  0  2  0  0  0  0  0  0
  191.4880  177.3600  143.8500 C   0  0  1  0  0  3  0  0  0  0  0  0
  190.9200  178.1150  142.7350 C   0  0  1  0  0  3  0  0  0  0  0  0
  192.0250  178.6890  143.5170 N   0  0  0  0  0  2  0  0  0  0  0  0
  190.6310  177.4650  145.0330 N   0  0  0  0  0  0  0  0  0  0  0  0
  192.0110  175.7260  145.8660 F   0  0  0  0  0  0  0  0  0  0  0  0
  191.3480  176.9030  146.1860 C   0  0  2  0  0  3  0  0  0  0  0  0
  190.4040  176.6740  147.3530 C   0  0  0  0  0  1  0  0  0  0  0  0
  189.3180  176.8150  144.8310 C   0  0  0  0  0  2  0  0  0  0  0  0
  186.9040  177.2350  144.6780 C   0  0  2  0  0  3  0  0  0  0  0  0
  188.2380  177.7510  144.2900 C   0  0  2  0  0  3  0  0  0  0  0  0
  187.4210  177.0500  143.3820 O   0  0  0  0  0  0  0  0  0  0  0  0
  184.7880  178.2880  143.5780 C   0  0  0  0  0  1  0  0  0  0  0  0
  185.8190  178.3440  144.7030 C   0  0  1  0  0  3  0  0  0  0  0  0
  185.1110  178.5720  146.0530 C   0  0  0  0  0  3  0  0  0  0  0  0
  185.8430  179.5210  146.9900 C   0  0  0  0  0  2  0  0  0  0  0  0
  185.9320  178.0200  147.2050 C   0  0  0  0  0  2  0  0  0  0  0  0
  1  2  1  0  0  0  0
  2  3  2  0  0  0  0
  2 20  1  0  0  0  0
  4  1  1  0  0  0  0
  5  3  1  0  0  0  0
  6  7  1  1  0  0  0
  6  4  1  0  0  0  0
  6  5  1  0  0  0  0
  7  8  2  0  0  0  0
  9 13  1  0  0  0  0
  9  7  1  0  0  0  0
 11 18  1  0  0  0  0
 12 13  2  0  0  0  0
 13 16  1  0  0  0  0
 14 15  2  0  0  0  0
 14 10  1  0  0  0  0
 16 11  1  0  0  0  0
 17 11  2  0  0  0  0
 17 19  1  0  0  0  0
 18 15  1  0  0  0  0
 19 14  1  0  0  0  0
 21 24  1  1  0  0  0
 22 20  1  6  0  0  0
 22 23  1  0  0  0  0
 22 21  1  0  0  0  0
 23 21  1  0  0  0  0
 24 26  1  0  0  0  0
 25 26  1  0  0  0  0
 26 27  1  1  0  0  0
 28 24  1  0  0  0  0
 29 33  1  6  0  0  0
 30 29  1  0  0  0  0
 30 28  1  1  0  0  0
 31 30  1  0  0  0  0
 31 29  1  0  0  0  0
 33 32  1  6  0  0  0
 33 34  1  0  0  0  0
 34 35  1  0  0  0  0
 34 36  1  0  0  0  0
 35 36  1  0  0  0  0
M  END
>  <MODEL>
3

>  <REMARK>
 VINA RESULT:      -7.6      2.013      3.483
  Name = 
  11 active torsions:
  status: ('A' for Active; 'I' for Inactive)
    1  A    between atoms: C_1  and  C_26
    2  A    between atoms: C_7  and  N_27
    3  A    between atoms: C_10  and  N_24
    4  A    between atoms: C_10  and  C_29
    5  A    between atoms: C_12  and  N_24
    6  A    between atoms: C_13  and  N_24
    7  A    between atoms: C_14  and  N_27
    8  A    between atoms: C_15  and  C_22
    9  A    between atoms: C_17  and  C_22
   10  A    between atoms: C_17  and  C_35
   11  A    between atoms: C_25  and  C_26
                            x       y       z     vdW  Elec       q    Type
                         _______ _______ _______ _____ _____    ______ ____

>  <TORSDO>
F 11

$$$$
=
 OpenBabel10222419573D

 36 40  0  0  1  0  0  0  0  0999 V2000
  190.7680  176.5310  142.5270 C   0  0  0  0  0  2  0  0  0  0  0  0
  190.0770  177.8540  142.6040 C   0  0  0  0  0  0  0  0  0  0  0  0
  190.5160  178.7700  143.4710 C   0  0  0  0  0  3  0  0  0  0  0  0
  191.0290  176.0000  143.9360 C   0  0  0  0  0  2  0  0  0  0  0  0
  191.7140  178.4790  144.3270 C   0  0  0  0  0  2  0  0  0  0  0  0
  191.7350  177.0280  144.8450 C   0  0  1  0  0  3  0  0  0  0  0  0
  191.1890  176.9580  146.2380 C   0  0  0  0  0  0  0  0  0  0  0  0
  191.7880  177.4800  147.1680 O   0  0  0  0  0  0  0  0  0  0  0  0
  189.9210  176.2090  146.4990 C   0  0  0  0  0  2  0  0  0  0  0  0
  183.3330  179.9430  144.1020 F   0  0  0  0  0  0  0  0  0  0  0  0
  186.7820  177.8000  144.8630 C   0  0  0  0  0  0  0  0  0  0  0  0
  188.4510  177.9150  147.2570 O   0  0  0  0  0  0  0  0  0  0  0  0
  188.7530  177.1190  146.3290 C   0  0  0  0  0  0  0  0  0  0  0  0
  184.4570  179.2240  144.3460 C   0  0  0  0  0  0  0  0  0  0  0  0
  184.9640  178.3580  143.3790 C   0  0  0  0  0  3  0  0  0  0  0  0
  187.9730  177.0490  145.1280 N   0  0  0  0  0  2  0  0  0  0  0  0
  186.2690  178.6550  145.7930 N   0  0  0  0  0  0  0  0  0  0  0  0
  186.1300  177.6330  143.6370 C   0  0  0  0  0  3  0  0  0  0  0  0
  185.1310  179.3620  145.5610 C   0  0  0  0  0  3  0  0  0  0  0  0
  188.9880  178.1260  141.7110 N   0  0  0  0  0  2  0  0  0  0  0  0
  188.6750  178.4820  139.3780 C   0  0  1  0  0  3  0  0  0  0  0  0
  188.8250  177.4690  140.4220 C   0  0  1  0  0  3  0  0  0  0  0  0
  189.9670  177.8010  139.5570 N   0  0  0  0  0  2  0  0  0  0  0  0
  187.9890  177.9220  138.2120 N   0  0  0  0  0  0  0  0  0  0  0  0
  189.2910  179.4530  136.9560 F   0  0  0  0  0  0  0  0  0  0  0  0
  188.8190  178.1500  137.0220 C   0  0  2  0  0  3  0  0  0  0  0  0
  188.0600  177.8000  135.7540 C   0  0  0  0  0  1  0  0  0  0  0  0
  186.6270  178.4750  138.0460 C   0  0  0  0  0  2  0  0  0  0  0  0
  184.3380  178.6980  138.9060 C   0  0  2  0  0  3  0  0  0  0  0  0
  185.6960  178.2000  139.2270 C   0  0  2  0  0  3  0  0  0  0  0  0
  185.2130  179.4200  139.7380 O   0  0  0  0  0  0  0  0  0  0  0  0
  182.4130  178.8830  140.6530 C   0  0  0  0  0  1  0  0  0  0  0  0
  183.2320  177.9860  139.7270 C   0  0  1  0  0  3  0  0  0  0  0  0
  182.2940  177.0510  138.9380 C   0  0  0  0  0  3  0  0  0  0  0  0
  182.0110  175.7250  139.6270 C   0  0  0  0  0  2  0  0  0  0  0  0
  183.0190  175.7940  138.4920 C   0  0  0  0  0  2  0  0  0  0  0  0
  1  2  1  0  0  0  0
  1  4  1  0  0  0  0
  2  3  2  0  0  0  0
  3  5  1  0  0  0  0
  4  6  1  0  0  0  0
  5  6  1  0  0  0  0
  6  7  1  1  0  0  0
  7  9  1  0  0  0  0
  7  8  2  0  0  0  0
 10 14  1  0  0  0  0
 11 16  1  0  0  0  0
 11 17  2  0  0  0  0
 13  9  1  0  0  0  0
 13 12  2  0  0  0  0
 14 19  2  0  0  0  0
 15 18  2  0  0  0  0
 15 14  1  0  0  0  0
 16 13  1  0  0  0  0
 18 11  1  0  0  0  0
 19 17  1  0  0  0  0
 20  2  1  0  0  0  0
 21 24  1  6  0  0  0
 21 23  1  0  0  0  0
 21 22  1  0  0  0  0
 22 20  1  1  0  0  0
 23 22  1  0  0  0  0
 25 26  1  0  0  0  0
 26 27  1  6  0  0  0
 26 24  1  0  0  0  0
 28 24  1  0  0  0  0
 29 30  1  0  0  0  0
 29 33  1  1  0  0  0
 29 31  1  0  0  0  0
 30 28  1  6  0  0  0
 30 31  1  0  0  0  0
 33 32  1  6  0  0  0
 34 35  1  0  0  0  0
 34 33  1  0  0  0  0
 36 34  1  0  0  0  0
 36 35  1  0  0  0  0
M  END
>  <MODEL>
4

>  <REMARK>
 VINA RESULT:      -7.4      2.582      7.306
  Name = 
  11 active torsions:
  status: ('A' for Active; 'I' for Inactive)
    1  A    between atoms: C_1  and  C_26
    2  A    between atoms: C_7  and  N_27
    3  A    between atoms: C_10  and  N_24
    4  A    between atoms: C_10  and  C_29
    5  A    between atoms: C_12  and  N_24
    6  A    between atoms: C_13  and  N_24
    7  A    between atoms: C_14  and  N_27
    8  A    between atoms: C_15  and  C_22
    9  A    between atoms: C_17  and  C_22
   10  A    between atoms: C_17  and  C_35
   11  A    between atoms: C_25  and  C_26
                            x       y       z     vdW  Elec       q    Type
                         _______ _______ _______ _____ _____    ______ ____

>  <TORSDO>
F 11

$$$$
=
 OpenBabel10222419573D

 36 40  0  0  1  0  0  0  0  0999 V2000
  184.7140  179.1030  140.0950 C   0  0  0  0  0  2  0  0  0  0  0  0
  183.6550  178.0630  140.2730 C   0  0  0  0  0  0  0  0  0  0  0  0
  183.0530  177.9400  141.4590 C   0  0  0  0  0  3  0  0  0  0  0  0
  185.6650  179.0840  141.2910 C   0  0  0  0  0  2  0  0  0  0  0  0
  183.4170  178.8650  142.5830 C   0  0  0  0  0  2  0  0  0  0  0  0
  184.9280  179.1590  142.6450 C   0  0  1  0  0  3  0  0  0  0  0  0
  185.5960  178.2750  143.6540 C   0  0  0  0  0  0  0  0  0  0  0  0
  186.0840  177.2050  143.3180 O   0  0  0  0  0  0  0  0  0  0  0  0
  185.6290  178.6880  145.0910 C   0  0  0  0  0  2  0  0  0  0  0  0
  192.7880  175.9460  147.1700 F   0  0  0  0  0  0  0  0  0  0  0  0
  189.2500  177.3890  145.5970 C   0  0  0  0  0  0  0  0  0  0  0  0
  186.6970  177.7090  146.9750 O   0  0  0  0  0  0  0  0  0  0  0  0
  186.7980  178.0600  145.7700 C   0  0  0  0  0  0  0  0  0  0  0  0
  191.6360  176.4330  146.6450 C   0  0  0  0  0  0  0  0  0  0  0  0
  191.5690  176.7890  145.3000 C   0  0  0  0  0  3  0  0  0  0  0  0
  188.0270  177.8970  145.0510 N   0  0  0  0  0  2  0  0  0  0  0  0
  189.3400  177.0320  146.9100 N   0  0  0  0  0  0  0  0  0  0  0  0
  190.3730  177.2780  144.7690 C   0  0  0  0  0  3  0  0  0  0  0  0
  190.4980  176.5620  147.4450 C   0  0  0  0  0  3  0  0  0  0  0  0
  183.2760  177.2530  139.1510 N   0  0  0  0  0  2  0  0  0  0  0  0
  184.3620  175.7390  137.6700 C   0  0  1  0  0  3  0  0  0  0  0  0
  184.0700  177.1460  137.9350 C   0  0  1  0  0  3  0  0  0  0  0  0
  183.3010  176.4210  136.9120 N   0  0  0  0  0  2  0  0  0  0  0  0
  185.5530  175.6080  136.8290 N   0  0  0  0  0  0  0  0  0  0  0  0
  186.3880  173.6870  135.7190 F   0  0  0  0  0  0  0  0  0  0  0  0
  186.0710  174.2390  136.9520 C   0  0  2  0  0  3  0  0  0  0  0  0
  185.0850  173.3500  137.6890 C   0  0  0  0  0  1  0  0  0  0  0  0
  186.5830  176.6170  137.1580 C   0  0  0  0  0  2  0  0  0  0  0  0
  188.9290  177.1230  137.6780 C   0  0  2  0  0  3  0  0  0  0  0  0
  187.9540  176.0240  137.4810 C   0  0  2  0  0  3  0  0  0  0  0  0
  188.8730  176.3890  136.4780 O   0  0  0  0  0  0  0  0  0  0  0  0
  191.4610  176.5170  137.8000 C   0  0  0  0  0  1  0  0  0  0  0  0
  190.1410  176.6970  138.5470 C   0  0  1  0  0  3  0  0  0  0  0  0
  190.3730  177.5110  139.8350 C   0  0  0  0  0  3  0  0  0  0  0  0
  190.1220  176.7340  141.1180 C   0  0  0  0  0  2  0  0  0  0  0  0
  189.0770  177.7090  140.6020 C   0  0  0  0  0  2  0  0  0  0  0  0
  1  2  1  0  0  0  0
  1  4  1  0  0  0  0
  2  3  2  0  0  0  0
  3  5  1  0  0  0  0
  4  6  1  0  0  0  0
  5  6  1  0  0  0  0
  6  7  1  1  0  0  0
  7  9  1  0  0  0  0
  8  7  2  0  0  0  0
  9 13  1  0  0  0  0
 11 17  2  0  0  0  0
 13 12  2  0  0  0  0
 14 10  1  0  0  0  0
 14 19  2  0  0  0  0
 15 14  1  0  0  0  0
 16 11  1  0  0  0  0
 16 13  1  0  0  0  0
 17 19  1  0  0  0  0
 18 15  2  0  0  0  0
 18 11  1  0  0  0  0
 20  2  1  0  0  0  0
 21 24  1  6  0  0  0
 21 22  1  0  0  0  0
 22 20  1  1  0  0  0
 23 21  1  0  0  0  0
 23 22  1  0  0  0  0
 24 26  1  0  0  0  0
 24 28  1  0  0  0  0
 25 26  1  0  0  0  0
 26 27  1  6  0  0  0
 29 33  1  1  0  0  0
 30 28  1  6  0  0  0
 30 29  1  0  0  0  0
 31 30  1  0  0  0  0
 31 29  1  0  0  0  0
 33 32  1  6  0  0  0
 33 34  1  0  0  0  0
 34 36  1  0  0  0  0
 34 35  1  0  0  0  0
 36 35  1  0  0  0  0
M  END
>  <MODEL>
5

>  <REMARK>
 VINA RESULT:      -7.3      2.902      7.607
  Name = 
  11 active torsions:
  status: ('A' for Active; 'I' for Inactive)
    1  A    between atoms: C_1  and  C_26
    2  A    between atoms: C_7  and  N_27
    3  A    between atoms: C_10  and  N_24
    4  A    between atoms: C_10  and  C_29
    5  A    between atoms: C_12  and  N_24
    6  A    between atoms: C_13  and  N_24
    7  A    between atoms: C_14  and  N_27
    8  A    between atoms: C_15  and  C_22
    9  A    between atoms: C_17  and  C_22
   10  A    between atoms: C_17  and  C_35
   11  A    between atoms: C_25  and  C_26
                            x       y       z     vdW  Elec       q    Type
                         _______ _______ _______ _____ _____    ______ ____

>  <TORSDO>
F 11

$$$$
=
 OpenBabel10222419573D

 36 40  0  0  1  0  0  0  0  0999 V2000
  191.1500  176.2090  143.0960 C   0  0  0  0  0  2  0  0  0  0  0  0
  190.1760  177.3350  142.9630 C   0  0  0  0  0  0  0  0  0  0  0  0
  190.3100  178.4110  143.7430 C   0  0  0  0  0  3  0  0  0  0  0  0
  191.3840  175.8980  144.5740 C   0  0  0  0  0  2  0  0  0  0  0  0
  191.4520  178.4950  144.7130 C   0  0  0  0  0  2  0  0  0  0  0  0
  191.7470  177.1480  145.4010 C   0  0  1  0  0  3  0  0  0  0  0  0
  191.0960  177.0930  146.7490 C   0  0  0  0  0  0  0  0  0  0  0  0
  191.4950  177.8000  147.6630 O   0  0  0  0  0  0  0  0  0  0  0  0
  189.9730  176.1340  146.9890 C   0  0  0  0  0  2  0  0  0  0  0  0
  183.0520  179.4220  144.8950 F   0  0  0  0  0  0  0  0  0  0  0  0
  186.7630  177.6980  145.4700 C   0  0  0  0  0  0  0  0  0  0  0  0
  188.1250  177.2260  148.0090 O   0  0  0  0  0  0  0  0  0  0  0  0
  188.6710  176.8580  146.9350 C   0  0  0  0  0  0  0  0  0  0  0  0
  184.2660  178.8430  145.0710 C   0  0  0  0  0  0  0  0  0  0  0  0
  185.0290  178.4550  143.9720 C   0  0  0  0  0  3  0  0  0  0  0  0
  188.0460  177.0930  145.6670 N   0  0  0  0  0  2  0  0  0  0  0  0
  185.9990  178.0880  146.5310 N   0  0  0  0  0  0  0  0  0  0  0  0
  186.2830  177.8710  144.1670 C   0  0  0  0  0  3  0  0  0  0  0  0
  184.7730  178.6500  146.3580 C   0  0  0  0  0  3  0  0  0  0  0  0
  189.1470  177.2540  141.9660 N   0  0  0  0  0  2  0  0  0  0  0  0
  188.0150  177.7870  139.9410 C   0  0  1  0  0  3  0  0  0  0  0  0
  188.8940  178.3040  140.9890 C   0  0  1  0  0  3  0  0  0  0  0  0
  187.4640  178.6460  141.0010 N   0  0  0  0  0  2  0  0  0  0  0  0
  188.1650  178.5670  138.7110 N   0  0  0  0  0  0  0  0  0  0  0  0
  186.4100  177.1460  137.9900 F   0  0  0  0  0  0  0  0  0  0  0  0
  186.9410  178.4260  137.9110 C   0  0  2  0  0  3  0  0  0  0  0  0
  187.1930  178.8020  136.4610 C   0  0  0  0  0  1  0  0  0  0  0  0
  189.3700  178.1800  137.9470 C   0  0  0  0  0  2  0  0  0  0  0  0
  190.6050  176.3310  136.9050 C   0  0  2  0  0  3  0  0  0  0  0  0
  189.7070  176.6910  138.0270 C   0  0  2  0  0  3  0  0  0  0  0  0
  189.2290  176.0380  136.8760 O   0  0  0  0  0  0  0  0  0  0  0  0
  190.7970  173.7320  136.8280 C   0  0  0  0  0  1  0  0  0  0  0  0
  191.4480  175.0630  137.1990 C   0  0  1  0  0  3  0  0  0  0  0  0
  192.9080  175.0880  136.7070 C   0  0  0  0  0  3  0  0  0  0  0  0
  193.9430  175.0930  137.8210 C   0  0  0  0  0  2  0  0  0  0  0  0
  193.5980  176.3840  137.0970 C   0  0  0  0  0  2  0  0  0  0  0  0
  1  4  1  0  0  0  0
  2  1  1  0  0  0  0
  2  3  2  0  0  0  0
  3  5  1  0  0  0  0
  4  6  1  0  0  0  0
  5  6  1  0  0  0  0
  6  7  1  1  0  0  0
  7  9  1  0  0  0  0
  7  8  2  0  0  0  0
 10 14  1  0  0  0  0
 11 16  1  0  0  0  0
 11 17  2  0  0  0  0
 13  9  1  0  0  0  0
 13 12  2  0  0  0  0
 14 19  2  0  0  0  0
 15 18  2  0  0  0  0
 15 14  1  0  0  0  0
 16 13  1  0  0  0  0
 18 11  1  0  0  0  0
 19 17  1  0  0  0  0
 20  2  1  0  0  0  0
 21 24  1  6  0  0  0
 21 22  1  0  0  0  0
 21 23  1  0  0  0  0
 22 23  1  0  0  0  0
 22 20  1  1  0  0  0
 26 27  1  6  0  0  0
 26 25  1  0  0  0  0
 26 24  1  0  0  0  0
 28 24  1  0  0  0  0
 29 33  1  1  0  0  0
 29 30  1  0  0  0  0
 30 28  1  6  0  0  0
 31 29  1  0  0  0  0
 31 30  1  0  0  0  0
 33 32  1  6  0  0  0
 34 36  1  0  0  0  0
 34 33  1  0  0  0  0
 34 35  1  0  0  0  0
 36 35  1  0  0  0  0
M  END
>  <MODEL>
6

>  <REMARK>
 VINA RESULT:      -7.3      3.059      7.885
  Name = 
  11 active torsions:
  status: ('A' for Active; 'I' for Inactive)
    1  A    between atoms: C_1  and  C_26
    2  A    between atoms: C_7  and  N_27
    3  A    between atoms: C_10  and  N_24
    4  A    between atoms: C_10  and  C_29
    5  A    between atoms: C_12  and  N_24
    6  A    between atoms: C_13  and  N_24
    7  A    between atoms: C_14  and  N_27
    8  A    between atoms: C_15  and  C_22
    9  A    between atoms: C_17  and  C_22
   10  A    between atoms: C_17  and  C_35
   11  A    between atoms: C_25  and  C_26
                            x       y       z     vdW  Elec       q    Type
                         _______ _______ _______ _____ _____    ______ ____

>  <TORSDO>
F 11

$$$$
=
 OpenBabel10222419573D

 36 40  0  0  1  0  0  0  0  0999 V2000
  187.7370  177.4810  145.8530 C   0  0  0  0  0  2  0  0  0  0  0  0
  186.9150  177.4380  144.6050 C   0  0  0  0  0  0  0  0  0  0  0  0
  187.4070  176.8320  143.5210 C   0  0  0  0  0  3  0  0  0  0  0  0
  189.1780  177.8580  145.5120 C   0  0  0  0  0  2  0  0  0  0  0  0
  188.7540  176.1730  143.5770 C   0  0  0  0  0  2  0  0  0  0  0  0
  189.7790  176.9840  144.3920 C   0  0  1  0  0  3  0  0  0  0  0  0
  190.6370  177.8120  143.4840 C   0  0  0  0  0  0  0  0  0  0  0  0
  190.5620  179.0320  143.4980 O   0  0  0  0  0  0  0  0  0  0  0  0
  191.5650  177.1360  142.5260 C   0  0  0  0  0  2  0  0  0  0  0  0
  187.4040  178.7070  135.9440 F   0  0  0  0  0  0  0  0  0  0  0  0
  189.1040  177.8320  139.6070 C   0  0  0  0  0  0  0  0  0  0  0  0
  191.9300  177.3910  140.1910 O   0  0  0  0  0  0  0  0  0  0  0  0
  191.0900  177.3490  141.1280 C   0  0  0  0  0  0  0  0  0  0  0  0
  187.9520  178.4320  137.1540 C   0  0  0  0  0  0  0  0  0  0  0  0
  187.1400  178.2750  138.2760 C   0  0  0  0  0  3  0  0  0  0  0  0
  189.6910  177.5370  140.8790 N   0  0  0  0  0  2  0  0  0  0  0  0
  189.8770  177.9880  138.4940 N   0  0  0  0  0  0  0  0  0  0  0  0
  187.7160  177.9800  139.5140 C   0  0  0  0  0  2  0  0  0  0  0  0
  189.3340  178.2830  137.2830 C   0  0  0  0  0  2  0  0  0  0  0  0
  185.5990  178.0060  144.6150 N   0  0  0  0  0  2  0  0  0  0  0  0
  183.5780  178.8230  143.6570 C   0  0  1  0  0  3  0  0  0  0  0  0
  185.0260  178.7230  143.4840 C   0  0  1  0  0  3  0  0  0  0  0  0
  184.4330  179.9840  143.9550 N   0  0  0  0  0  2  0  0  0  0  0  0
  182.9170  179.0250  142.3660 N   0  0  0  0  0  0  0  0  0  0  0  0
  180.7600  179.9750  142.1110 F   0  0  0  0  0  0  0  0  0  0  0  0
  181.4680  178.8640  142.5480 C   0  0  2  0  0  3  0  0  0  0  0  0
  181.1330  178.5640  143.9980 C   0  0  0  0  0  1  0  0  0  0  0  0
  183.4440  178.1210  141.3210 C   0  0  0  0  0  2  0  0  0  0  0  0
  183.5400  178.1320  138.8680 C   0  0  2  0  0  3  0  0  0  0  0  0
  182.6230  178.1150  140.0320 C   0  0  2  0  0  3  0  0  0  0  0  0
  182.8790  179.2940  139.3060 O   0  0  0  0  0  0  0  0  0  0  0  0
  181.8910  178.4770  136.8790 C   0  0  0  0  0  1  0  0  0  0  0  0
  182.8860  177.5580  137.5840 C   0  0  1  0  0  3  0  0  0  0  0  0
  183.8450  176.9320  136.5530 C   0  0  0  0  0  3  0  0  0  0  0  0
  183.6090  175.4520  136.2970 C   0  0  0  0  0  2  0  0  0  0  0  0
  184.7480  175.8960  137.1990 C   0  0  0  0  0  2  0  0  0  0  0  0
  2 20  1  0  0  0  0
  2  1  1  0  0  0  0
  3  5  1  0  0  0  0
  3  2  2  0  0  0  0
  4  1  1  0  0  0  0
  5  6  1  0  0  0  0
  6  7  1  6  0  0  0
  6  4  1  0  0  0  0
  7  8  2  0  0  0  0
  9  7  1  0  0  0  0
 10 14  1  0  0  0  0
 11 16  1  0  0  0  0
 12 13  2  0  0  0  0
 13  9  1  0  0  0  0
 14 19  1  0  0  0  0
 14 15  2  0  0  0  0
 15 18  1  0  0  0  0
 16 13  1  0  0  0  0
 17 11  2  0  0  0  0
 18 11  1  0  0  0  0
 19 17  1  0  0  0  0
 21 24  1  6  0  0  0
 21 23  1  0  0  0  0
 22 21  1  0  0  0  0
 22 23  1  0  0  0  0
 22 20  1  1  0  0  0
 24 26  1  0  0  0  0
 25 26  1  0  0  0  0
 26 27  1  1  0  0  0
 28 24  1  0  0  0  0
 29 33  1  6  0  0  0
 29 31  1  0  0  0  0
 29 30  1  0  0  0  0
 30 28  1  1  0  0  0
 31 30  1  0  0  0  0
 33 32  1  6  0  0  0
 34 36  1  0  0  0  0
 34 33  1  0  0  0  0
 35 34  1  0  0  0  0
 35 36  1  0  0  0  0
M  END
>  <MODEL>
7

>  <REMARK>
 VINA RESULT:      -7.2      2.558      8.549
  Name = 
  11 active torsions:
  status: ('A' for Active; 'I' for Inactive)
    1  A    between atoms: C_1  and  C_26
    2  A    between atoms: C_7  and  N_27
    3  A    between atoms: C_10  and  N_24
    4  A    between atoms: C_10  and  C_29
    5  A    between atoms: C_12  and  N_24
    6  A    between atoms: C_13  and  N_24
    7  A    between atoms: C_14  and  N_27
    8  A    between atoms: C_15  and  C_22
    9  A    between atoms: C_17  and  C_22
   10  A    between atoms: C_17  and  C_35
   11  A    between atoms: C_25  and  C_26
                            x       y       z     vdW  Elec       q    Type
                         _______ _______ _______ _____ _____    ______ ____

>  <TORSDO>
F 11

$$$$
=
 OpenBabel10222419573D

 36 40  0  0  1  0  0  0  0  0999 V2000
  187.8000  176.0320  136.3300 C   0  0  0  0  0  2  0  0  0  0  0  0
  186.7930  177.1160  136.5490 C   0  0  0  0  0  0  0  0  0  0  0  0
  187.2140  178.3430  136.8670 C   0  0  0  0  0  3  0  0  0  0  0  0
  188.8560  176.0760  137.4350 C   0  0  0  0  0  2  0  0  0  0  0  0
  188.6840  178.6290  136.9660 C   0  0  0  0  0  2  0  0  0  0  0  0
  189.4700  177.4780  137.6240 C   0  0  1  0  0  3  0  0  0  0  0  0
  189.6980  177.7590  139.0770 C   0  0  0  0  0  0  0  0  0  0  0  0
  189.3720  178.8340  139.5620 O   0  0  0  0  0  0  0  0  0  0  0  0
  190.3660  176.7310  139.9330 C   0  0  0  0  0  2  0  0  0  0  0  0
  188.1830  178.0470  147.4560 F   0  0  0  0  0  0  0  0  0  0  0  0
  188.8080  177.2960  143.4410 C   0  0  0  0  0  0  0  0  0  0  0  0
  191.3140  177.5280  141.9620 O   0  0  0  0  0  0  0  0  0  0  0  0
  190.2770  177.1320  141.3660 C   0  0  0  0  0  0  0  0  0  0  0  0
  188.3780  177.7850  146.1400 C   0  0  0  0  0  0  0  0  0  0  0  0
  187.3080  177.4140  145.3280 C   0  0  0  0  0  3  0  0  0  0  0  0
  189.0220  177.0270  142.0510 N   0  0  0  0  0  2  0  0  0  0  0  0
  189.8390  177.6630  144.2550 N   0  0  0  0  0  0  0  0  0  0  0  0
  187.5200  177.1600  143.9710 C   0  0  0  0  0  3  0  0  0  0  0  0
  189.6520  177.9070  145.5790 C   0  0  0  0  0  3  0  0  0  0  0  0
  185.4020  176.8240  136.3630 N   0  0  0  0  0  2  0  0  0  0  0  0
  183.5320  177.8130  137.4570 C   0  0  1  0  0  3  0  0  0  0  0  0
  184.4590  176.6820  137.4650 C   0  0  1  0  0  3  0  0  0  0  0  0
  183.1010  176.5100  136.9260 N   0  0  0  0  0  2  0  0  0  0  0  0
  182.9510  178.0120  138.7860 N   0  0  0  0  0  0  0  0  0  0  0  0
  181.0860  178.7730  137.5370 F   0  0  0  0  0  0  0  0  0  0  0  0
  181.8480  178.9760  138.6790 C   0  0  2  0  0  3  0  0  0  0  0  0
  182.3670  180.4020  138.7190 C   0  0  0  0  0  1  0  0  0  0  0  0
  183.9600  178.4390  139.7800 C   0  0  0  0  0  2  0  0  0  0  0  0
  183.7220  178.9990  142.1580 C   0  0  2  0  0  3  0  0  0  0  0  0
  183.7250  177.8830  141.1840 C   0  0  2  0  0  3  0  0  0  0  0  0
  184.8420  178.1630  141.9940 O   0  0  0  0  0  0  0  0  0  0  0  0
  183.7190  178.8390  144.7600 C   0  0  0  0  0  1  0  0  0  0  0  0
  182.9450  178.6580  143.4560 C   0  0  1  0  0  3  0  0  0  0  0  0
  181.5390  179.2760  143.5890 C   0  0  0  0  0  3  0  0  0  0  0  0
  180.4510  178.2800  143.9590 C   0  0  0  0  0  2  0  0  0  0  0  0
  180.6010  178.7450  142.5210 C   0  0  0  0  0  2  0  0  0  0  0  0
  1  2  1  0  0  0  0
  1  4  1  0  0  0  0
  2  3  2  0  0  0  0
  3  5  1  0  0  0  0
  4  6  1  0  0  0  0
  5  6  1  0  0  0  0
  6  7  1  1  0  0  0
  7  8  2  0  0  0  0
  7  9  1  0  0  0  0
  9 13  1  0  0  0  0
 11 18  1  0  0  0  0
 11 17  2  0  0  0  0
 13 12  2  0  0  0  0
 13 16  1  0  0  0  0
 14 10  1  0  0  0  0
 15 14  1  0  0  0  0
 16 11  1  0  0  0  0
 17 19  1  0  0  0  0
 18 15  2  0  0  0  0
 19 14  2  0  0  0  0
 20  2  1  0  0  0  0
 21 22  1  0  0  0  0
 21 24  1  1  0  0  0
 22 20  1  6  0  0  0
 23 21  1  0  0  0  0
 23 22  1  0  0  0  0
 24 28  1  0  0  0  0
 25 26  1  0  0  0  0
 26 27  1  6  0  0  0
 26 24  1  0  0  0  0
 29 33  1  1  0  0  0
 30 28  1  6  0  0  0
 30 31  1  0  0  0  0
 30 29  1  0  0  0  0
 31 29  1  0  0  0  0
 33 34  1  0  0  0  0
 33 32  1  1  0  0  0
 34 35  1  0  0  0  0
 36 34  1  0  0  0  0
 36 35  1  0  0  0  0
M  END
>  <MODEL>
8

>  <REMARK>
 VINA RESULT:      -7.1      2.526      6.710
  Name = 
  11 active torsions:
  status: ('A' for Active; 'I' for Inactive)
    1  A    between atoms: C_1  and  C_26
    2  A    between atoms: C_7  and  N_27
    3  A    between atoms: C_10  and  N_24
    4  A    between atoms: C_10  and  C_29
    5  A    between atoms: C_12  and  N_24
    6  A    between atoms: C_13  and  N_24
    7  A    between atoms: C_14  and  N_27
    8  A    between atoms: C_15  and  C_22
    9  A    between atoms: C_17  and  C_22
   10  A    between atoms: C_17  and  C_35
   11  A    between atoms: C_25  and  C_26
                            x       y       z     vdW  Elec       q    Type
                         _______ _______ _______ _____ _____    ______ ____

>  <TORSDO>
F 11

$$$$
=
 OpenBabel10222419573D

 36 40  0  0  1  0  0  0  0  0999 V2000
  189.5390  178.0810  138.4600 C   0  0  0  0  0  2  0  0  0  0  0  0
  189.9580  176.6760  138.7520 C   0  0  0  0  0  0  0  0  0  0  0  0
  189.7990  175.7390  137.8140 C   0  0  0  0  0  3  0  0  0  0  0  0
  188.1670  178.0820  137.7850 C   0  0  0  0  0  2  0  0  0  0  0  0
  189.2380  176.1090  136.4720 C   0  0  0  0  0  2  0  0  0  0  0  0
  188.0940  177.1360  136.5690 C   0  0  1  0  0  3  0  0  0  0  0  0
  186.7640  176.4490  136.5180 C   0  0  0  0  0  0  0  0  0  0  0  0
  186.6360  175.3080  136.9390 O   0  0  0  0  0  0  0  0  0  0  0  0
  185.5920  177.1520  135.9120 C   0  0  0  0  0  2  0  0  0  0  0  0
  180.2290  178.0610  141.7010 F   0  0  0  0  0  0  0  0  0  0  0  0
  183.3550  177.8370  139.0080 C   0  0  0  0  0  0  0  0  0  0  0  0
  183.4150  176.3830  136.4770 O   0  0  0  0  0  0  0  0  0  0  0  0
  184.4180  177.0590  136.8270 C   0  0  0  0  0  0  0  0  0  0  0  0
  181.2580  178.0050  140.8190 C   0  0  0  0  0  0  0  0  0  0  0  0
  182.4660  178.6380  141.1040 C   0  0  0  0  0  3  0  0  0  0  0  0
  184.4370  177.7680  138.0730 N   0  0  0  0  0  2  0  0  0  0  0  0
  182.1630  177.2240  138.7520 N   0  0  0  0  0  0  0  0  0  0  0  0
  183.5220  178.5620  140.1930 C   0  0  0  0  0  2  0  0  0  0  0  0
  181.1230  177.2940  139.6250 C   0  0  0  0  0  2  0  0  0  0  0  0
  190.5670  176.3780  140.0160 N   0  0  0  0  0  2  0  0  0  0  0  0
  190.9980  176.5560  142.3500 C   0  0  1  0  0  3  0  0  0  0  0  0
  190.4730  177.2520  141.1770 C   0  0  1  0  0  3  0  0  0  0  0  0
  191.8240  177.5620  141.6650 N   0  0  0  0  0  2  0  0  0  0  0  0
  190.4500  177.1310  143.5800 N   0  0  0  0  0  0  0  0  0  0  0  0
  192.0050  175.6040  144.5130 F   0  0  0  0  0  0  0  0  0  0  0  0
  191.3570  176.8190  144.6920 C   0  0  2  0  0  3  0  0  0  0  0  0
  190.6160  176.8290  146.0170 C   0  0  0  0  0  1  0  0  0  0  0  0
  189.0710  176.6690  143.8480 C   0  0  0  0  0  2  0  0  0  0  0  0
  186.7380  177.2510  144.3440 C   0  0  2  0  0  3  0  0  0  0  0  0
  188.0300  177.7870  143.8550 C   0  0  2  0  0  3  0  0  0  0  0  0
  186.9820  177.4590  142.9730 O   0  0  0  0  0  0  0  0  0  0  0  0
  184.5210  178.6100  144.1650 C   0  0  0  0  0  1  0  0  0  0  0  0
  185.8180  178.3530  144.9300 C   0  0  1  0  0  3  0  0  0  0  0  0
  185.5270  178.2630  146.4410 C   0  0  0  0  0  3  0  0  0  0  0  0
  186.1120  179.4040  147.2590 C   0  0  0  0  0  2  0  0  0  0  0  0
  186.8030  178.0520  147.2350 C   0  0  0  0  0  2  0  0  0  0  0  0
  1  2  1  0  0  0  0
  2 20  1  0  0  0  0
  3  2  2  0  0  0  0
  4  1  1  0  0  0  0
  5  6  1  0  0  0  0
  5  3  1  0  0  0  0
  6  7  1  1  0  0  0
  6  4  1  0  0  0  0
  7  8  2  0  0  0  0
  9  7  1  0  0  0  0
  9 13  1  0  0  0  0
 11 18  1  0  0  0  0
 12 13  2  0  0  0  0
 13 16  1  0  0  0  0
 14 15  2  0  0  0  0
 14 10  1  0  0  0  0
 16 11  1  0  0  0  0
 17 11  2  0  0  0  0
 17 19  1  0  0  0  0
 18 15  1  0  0  0  0
 19 14  1  0  0  0  0
 21 24  1  1  0  0  0
 22 20  1  6  0  0  0
 22 23  1  0  0  0  0
 22 21  1  0  0  0  0
 23 21  1  0  0  0  0
 24 28  1  0  0  0  0
 24 26  1  0  0  0  0
 25 26  1  0  0  0  0
 26 27  1  1  0  0  0
 29 33  1  1  0  0  0
 30 28  1  6  0  0  0
 30 29  1  0  0  0  0
 31 30  1  0  0  0  0
 31 29  1  0  0  0  0
 33 32  1  6  0  0  0
 33 34  1  0  0  0  0
 34 36  1  0  0  0  0
 34 35  1  0  0  0  0
 36 35  1  0  0  0  0
M  END
>  <MODEL>
9

>  <REMARK>
 VINA RESULT:      -7.1      1.736      2.510
  Name = 
  11 active torsions:
  status: ('A' for Active; 'I' for Inactive)
    1  A    between atoms: C_1  and  C_26
    2  A    between atoms: C_7  and  N_27
    3  A    between atoms: C_10  and  N_24
    4  A    between atoms: C_10  and  C_29
    5  A    between atoms: C_12  and  N_24
    6  A    between atoms: C_13  and  N_24
    7  A    between atoms: C_14  and  N_27
    8  A    between atoms: C_15  and  C_22
    9  A    between atoms: C_17  and  C_22
   10  A    between atoms: C_17  and  C_35
   11  A    between atoms: C_25  and  C_26
                            x       y       z     vdW  Elec       q    Type
                         _______ _______ _______ _____ _____    ______ ____

>  <TORSDO>
F 11

$$$$
