=
 OpenBabel10222416423D

 30 32  0  0  1  0  0  0  0  0999 V2000
  188.6500  177.3260  141.8750 C   0  0  0  0  0  3  0  0  0  0  0  0
  189.9400  176.9910  141.7750 C   0  0  0  0  0  0  0  0  0  0  0  0
  190.5620  176.2420  142.8330 N   0  0  0  0  0  0  0  0  0  0  0  0
  190.2660  174.9290  142.9970 O   0  0  0  0  0  1  0  0  0  0  0  0
  190.9060  176.7700  146.8640 C   0  0  0  0  0  2  0  0  0  0  0  0
  191.8380  175.9700  144.9360 C   0  0  0  0  0  2  0  0  0  0  0  0
  189.6280  177.1250  146.0780 C   0  0  0  0  0  2  0  0  0  0  0  0
  192.0880  176.7340  146.0890 O   0  0  0  0  0  0  0  0  0  0  0  0
  189.7720  178.3220  145.1320 C   0  0  0  0  0  2  0  0  0  0  0  0
  190.9860  178.2860  144.1860 C   0  0  0  0  0  2  0  0  0  0  0  0
  191.4850  176.8920  143.7610 C   0  0  2  0  0  3  0  0  0  0  0  0
  190.7250  177.3560  140.5500 C   0  0  0  0  0  2  0  0  0  0  0  0
  190.6550  176.2740  139.5840 N   0  0  0  0  0  2  0  0  0  0  0  0
  190.7120  176.8850  138.2680 C   0  0  0  0  0  2  0  0  0  0  0  0
  189.3710  176.9900  137.7180 N   0  0  0  0  0  0  0  0  0  0  0  0
  188.0520  176.3480  135.7140 C   0  0  0  0  0  2  0  0  0  0  0  0
  187.1490  177.2850  136.3820 N   0  0  0  0  0  2  0  0  0  0  0  0
  187.8390  178.5620  136.5750 C   0  0  0  0  0  2  0  0  0  0  0  0
  189.3300  176.1220  136.5400 C   0  0  0  0  0  2  0  0  0  0  0  0
  189.1880  178.3780  137.2890 C   0  0  0  0  0  2  0  0  0  0  0  0
  187.9140  178.0870  140.8190 C   0  0  0  0  0  2  0  0  0  0  0  0
  186.9070  179.0260  141.4550 C   0  0  0  0  0  2  0  0  0  0  0  0
  185.8020  178.2650  142.0190 N   0  0  0  0  0  2  0  0  0  0  0  0
  184.8340  178.3530  146.1390 C   0  0  0  0  0  0  0  0  0  0  0  0
  184.2440  178.8480  143.8430 C   0  0  0  0  0  3  0  0  0  0  0  0
  183.9320  178.8720  145.2060 C   0  0  0  0  0  3  0  0  0  0  0  0
  184.5330  178.3770  147.4590 F   0  0  0  0  0  0  0  0  0  0  0  0
  186.0480  177.8080  145.7090 C   0  0  0  0  0  3  0  0  0  0  0  0
  186.3600  177.7840  144.3460 C   0  0  0  0  0  3  0  0  0  0  0  0
  185.4620  178.3020  143.4080 C   0  0  0  0  0  0  0  0  0  0  0  0
  2  1  2  0  0  0  0
  2  3  1  0  0  0  0
  3  4  1  0  0  0  0
  6  8  1  0  0  0  0
  7  5  1  0  0  0  0
  8  5  1  0  0  0  0
  9  7  1  0  0  0  0
 10  9  1  0  0  0  0
 11  3  1  1  0  0  0
 11 10  1  0  0  0  0
 11  6  1  0  0  0  0
 12  2  1  0  0  0  0
 13 12  1  0  0  0  0
 14 13  1  0  0  0  0
 15 14  1  0  0  0  0
 16 17  1  0  0  0  0
 16 19  1  0  0  0  0
 17 18  1  0  0  0  0
 18 20  1  0  0  0  0
 19 15  1  0  0  0  0
 20 15  1  0  0  0  0
 21 22  1  0  0  0  0
 21  1  1  0  0  0  0
 22 23  1  0  0  0  0
 23 30  1  0  0  0  0
 24 27  1  0  0  0  0
 25 26  1  0  0  0  0
 26 24  2  0  0  0  0
 28 24  1  0  0  0  0
 29 28  2  0  0  0  0
 30 25  2  0  0  0  0
 30 29  1  0  0  0  0
M  END
>  <MODEL>
1

>  <REMARK>
 VINA RESULT:      -7.9      0.000      0.000
  Name = 
  10 active torsions:
  status: ('A' for Active; 'I' for Inactive)
    1  A    between atoms: N_1  and  C_17
    2  A    between atoms: C_2  and  C_19
    3  A    between atoms: C_2  and  N_30
    4  A    between atoms: N_9  and  C_19
    5  A    between atoms: N_9  and  C_27
    6  A    between atoms: N_12  and  C_18
    7  A    between atoms: N_12  and  C_25
    8  A    between atoms: C_14  and  C_16
    9  A    between atoms: C_14  and  C_18
   10  A    between atoms: C_17  and  N_30
                            x       y       z     vdW  Elec       q    Type
                         _______ _______ _______ _____ _____    ______ ____

>  <TORSDO>
F 10

$$$$
=
 OpenBabel10222416423D

 30 32  0  0  1  0  0  0  0  0999 V2000
  188.6110  177.3430  141.8340 C   0  0  0  0  0  3  0  0  0  0  0  0
  189.9050  177.0230  141.7420 C   0  0  0  0  0  0  0  0  0  0  0  0
  190.5220  176.2590  142.7920 N   0  0  0  0  0  0  0  0  0  0  0  0
  190.2010  174.9520  142.9560 O   0  0  0  0  0  1  0  0  0  0  0  0
  190.9300  176.7540  146.8210 C   0  0  0  0  0  2  0  0  0  0  0  0
  191.8220  175.9530  144.8750 C   0  0  0  0  0  2  0  0  0  0  0  0
  189.6470  177.1340  146.0550 C   0  0  0  0  0  2  0  0  0  0  0  0
  192.1000  176.7050  146.0300 O   0  0  0  0  0  0  0  0  0  0  0  0
  189.7970  178.3350  145.1150 C   0  0  0  0  0  2  0  0  0  0  0  0
  190.9970  178.2870  144.1530 C   0  0  0  0  0  2  0  0  0  0  0  0
  191.4680  176.8880  143.7110 C   0  0  2  0  0  3  0  0  0  0  0  0
  190.7000  177.4200  140.5330 C   0  0  0  0  0  2  0  0  0  0  0  0
  190.7390  176.3170  139.5890 N   0  0  0  0  0  2  0  0  0  0  0  0
  190.6140  176.8970  138.2640 C   0  0  0  0  0  2  0  0  0  0  0  0
  191.4820  176.1920  137.3370 N   0  0  0  0  0  0  0  0  0  0  0  0
  192.2390  173.8960  136.7680 C   0  0  0  0  0  2  0  0  0  0  0  0
  193.1710  174.7200  135.9980 N   0  0  0  0  0  2  0  0  0  0  0  0
  193.8570  175.6440  136.9050 C   0  0  0  0  0  2  0  0  0  0  0  0
  191.2010  174.7650  137.4980 C   0  0  0  0  0  2  0  0  0  0  0  0
  192.8610  176.4520  137.7530 C   0  0  0  0  0  2  0  0  0  0  0  0
  187.8780  178.1170  140.7850 C   0  0  0  0  0  2  0  0  0  0  0  0
  186.8110  178.9850  141.4230 C   0  0  0  0  0  2  0  0  0  0  0  0
  185.7930  178.1480  142.0420 N   0  0  0  0  0  2  0  0  0  0  0  0
  184.8370  178.3680  146.1590 C   0  0  0  0  0  0  0  0  0  0  0  0
  184.2650  178.8400  143.8540 C   0  0  0  0  0  3  0  0  0  0  0  0
  183.9570  178.9080  145.2160 C   0  0  0  0  0  3  0  0  0  0  0  0
  184.5390  178.4350  147.4790 F   0  0  0  0  0  0  0  0  0  0  0  0
  186.0240  177.7610  145.7400 C   0  0  0  0  0  3  0  0  0  0  0  0
  186.3320  177.6930  144.3780 C   0  0  0  0  0  3  0  0  0  0  0  0
  185.4560  178.2310  143.4290 C   0  0  0  0  0  0  0  0  0  0  0  0
  2  1  2  0  0  0  0
  2  3  1  0  0  0  0
  3  4  1  0  0  0  0
  6  8  1  0  0  0  0
  7  5  1  0  0  0  0
  8  5  1  0  0  0  0
  9  7  1  0  0  0  0
 10  9  1  0  0  0  0
 11  3  1  1  0  0  0
 11 10  1  0  0  0  0
 11  6  1  0  0  0  0
 12  2  1  0  0  0  0
 13 12  1  0  0  0  0
 14 13  1  0  0  0  0
 15 19  1  0  0  0  0
 15 20  1  0  0  0  0
 15 14  1  0  0  0  0
 16 19  1  0  0  0  0
 17 16  1  0  0  0  0
 17 18  1  0  0  0  0
 18 20  1  0  0  0  0
 21 22  1  0  0  0  0
 21  1  1  0  0  0  0
 22 23  1  0  0  0  0
 23 30  1  0  0  0  0
 24 27  1  0  0  0  0
 25 26  1  0  0  0  0
 26 24  2  0  0  0  0
 28 24  1  0  0  0  0
 29 28  2  0  0  0  0
 30 25  2  0  0  0  0
 30 29  1  0  0  0  0
M  END
>  <MODEL>
2

>  <REMARK>
 VINA RESULT:      -7.9      1.462      2.172
  Name = 
  10 active torsions:
  status: ('A' for Active; 'I' for Inactive)
    1  A    between atoms: N_1  and  C_17
    2  A    between atoms: C_2  and  C_19
    3  A    between atoms: C_2  and  N_30
    4  A    between atoms: N_9  and  C_19
    5  A    between atoms: N_9  and  C_27
    6  A    between atoms: N_12  and  C_18
    7  A    between atoms: N_12  and  C_25
    8  A    between atoms: C_14  and  C_16
    9  A    between atoms: C_14  and  C_18
   10  A    between atoms: C_17  and  N_30
                            x       y       z     vdW  Elec       q    Type
                         _______ _______ _______ _____ _____    ______ ____

>  <TORSDO>
F 10

$$$$
=
 OpenBabel10222416423D

 30 32  0  0  1  0  0  0  0  0999 V2000
  190.0240  176.8450  140.5340 C   0  0  0  0  0  3  0  0  0  0  0  0
  189.2580  177.8690  140.1420 C   0  0  0  0  0  0  0  0  0  0  0  0
  189.1320  178.1640  138.7420 N   0  0  0  0  0  0  0  0  0  0  0  0
  189.0160  179.4500  138.3280 O   0  0  0  0  0  1  0  0  0  0  0  0
  187.7590  177.6130  134.9390 C   0  0  0  0  0  2  0  0  0  0  0  0
  189.5390  177.5740  136.3730 C   0  0  0  0  0  2  0  0  0  0  0  0
  186.8770  178.1650  136.0780 C   0  0  0  0  0  2  0  0  0  0  0  0
  188.8720  176.8540  135.3670 O   0  0  0  0  0  0  0  0  0  0  0  0
  186.5360  177.1480  137.1710 C   0  0  0  0  0  2  0  0  0  0  0  0
  187.7270  176.3650  137.7530 C   0  0  0  0  0  2  0  0  0  0  0  0
  189.0880  177.0860  137.7560 C   0  0  2  0  0  3  0  0  0  0  0  0
  188.5000  178.6780  141.1530 C   0  0  0  0  0  2  0  0  0  0  0  0
  187.1180  178.2360  141.1990 N   0  0  0  0  0  2  0  0  0  0  0  0
  186.8520  177.8380  142.5690 C   0  0  0  0  0  2  0  0  0  0  0  0
  185.7540  178.6250  143.1040 N   0  0  0  0  0  0  0  0  0  0  0  0
  184.3870  178.8820  145.1620 C   0  0  0  0  0  2  0  0  0  0  0  0
  183.6330  179.6820  144.1970 N   0  0  0  0  0  2  0  0  0  0  0  0
  183.2900  178.8460  143.0440 C   0  0  0  0  0  2  0  0  0  0  0  0
  185.6740  178.3200  144.5330 C   0  0  0  0  0  2  0  0  0  0  0  0
  184.5300  178.1570  142.4520 C   0  0  0  0  0  2  0  0  0  0  0  0
  190.2010  176.4510  141.9660 C   0  0  0  0  0  2  0  0  0  0  0  0
  191.4020  177.1610  142.5600 C   0  0  0  0  0  2  0  0  0  0  0  0
  191.7500  176.5650  143.8410 N   0  0  0  0  0  2  0  0  0  0  0  0
  189.6890  177.3900  147.4450 C   0  0  0  0  0  0  0  0  0  0  0  0
  189.7750  177.4530  145.0260 C   0  0  0  0  0  3  0  0  0  0  0  0
  189.1010  177.7220  146.2210 C   0  0  0  0  0  3  0  0  0  0  0  0
  189.0370  177.6510  148.6020 F   0  0  0  0  0  0  0  0  0  0  0  0
  190.9510  176.7900  147.4730 C   0  0  0  0  0  3  0  0  0  0  0  0
  191.6250  176.5210  146.2780 C   0  0  0  0  0  3  0  0  0  0  0  0
  191.0420  176.8510  145.0500 C   0  0  0  0  0  0  0  0  0  0  0  0
  1 21  1  0  0  0  0
  2  1  2  0  0  0  0
  2 12  1  0  0  0  0
  3  2  1  0  0  0  0
  4  3  1  0  0  0  0
  5  8  1  0  0  0  0
  5  7  1  0  0  0  0
  6 11  1  0  0  0  0
  7  9  1  0  0  0  0
  8  6  1  0  0  0  0
  9 10  1  0  0  0  0
 10 11  1  0  0  0  0
 11  3  1  1  0  0  0
 12 13  1  0  0  0  0
 13 14  1  0  0  0  0
 14 15  1  0  0  0  0
 15 19  1  0  0  0  0
 17 16  1  0  0  0  0
 18 17  1  0  0  0  0
 19 16  1  0  0  0  0
 20 18  1  0  0  0  0
 20 15  1  0  0  0  0
 21 22  1  0  0  0  0
 22 23  1  0  0  0  0
 23 30  1  0  0  0  0
 24 28  1  0  0  0  0
 24 27  1  0  0  0  0
 25 30  2  0  0  0  0
 25 26  1  0  0  0  0
 26 24  2  0  0  0  0
 29 28  2  0  0  0  0
 30 29  1  0  0  0  0
M  END
>  <MODEL>
3

>  <REMARK>
 VINA RESULT:      -7.3      2.570      7.037
  Name = 
  10 active torsions:
  status: ('A' for Active; 'I' for Inactive)
    1  A    between atoms: N_1  and  C_17
    2  A    between atoms: C_2  and  C_19
    3  A    between atoms: C_2  and  N_30
    4  A    between atoms: N_9  and  C_19
    5  A    between atoms: N_9  and  C_27
    6  A    between atoms: N_12  and  C_18
    7  A    between atoms: N_12  and  C_25
    8  A    between atoms: C_14  and  C_16
    9  A    between atoms: C_14  and  C_18
   10  A    between atoms: C_17  and  N_30
                            x       y       z     vdW  Elec       q    Type
                         _______ _______ _______ _____ _____    ______ ____

>  <TORSDO>
F 10

$$$$
=
 OpenBabel10222416423D

 30 32  0  0  1  0  0  0  0  0999 V2000
  183.6700  179.0160  143.2860 C   0  0  0  0  0  3  0  0  0  0  0  0
  184.3470  178.9350  142.1360 C   0  0  0  0  0  0  0  0  0  0  0  0
  183.6920  178.4270  140.9620 N   0  0  0  0  0  0  0  0  0  0  0  0
  183.2390  177.1490  140.9400 O   0  0  0  0  0  1  0  0  0  0  0  0
  182.1210  178.0800  137.2130 C   0  0  0  0  0  2  0  0  0  0  0  0
  182.1160  179.1870  139.2120 C   0  0  0  0  0  2  0  0  0  0  0  0
  183.1410  177.0780  137.7910 C   0  0  0  0  0  2  0  0  0  0  0  0
  182.1380  179.3570  137.8170 O   0  0  0  0  0  0  0  0  0  0  0  0
  184.5520  177.6420  137.9830 C   0  0  0  0  0  2  0  0  0  0  0  0
  184.6410  178.9840  138.7320 C   0  0  0  0  0  2  0  0  0  0  0  0
  183.5420  179.2640  139.7740 C   0  0  2  0  0  3  0  0  0  0  0  0
  185.7670  179.4120  142.0590 C   0  0  0  0  0  2  0  0  0  0  0  0
  186.6670  178.2720  142.0550 N   0  0  0  0  0  2  0  0  0  0  0  0
  187.5200  178.4180  140.8890 C   0  0  0  0  0  2  0  0  0  0  0  0
  188.8940  178.1040  141.2450 N   0  0  0  0  0  0  0  0  0  0  0  0
  190.9600  177.1210  140.2790 C   0  0  0  0  0  2  0  0  0  0  0  0
  191.2910  177.1800  141.7030 N   0  0  0  0  0  2  0  0  0  0  0  0
  190.2740  176.4490  142.4620 C   0  0  0  0  0  2  0  0  0  0  0  0
  189.5750  177.7320  140.0040 C   0  0  0  0  0  2  0  0  0  0  0  0
  188.8550  176.9380  142.1300 C   0  0  0  0  0  2  0  0  0  0  0  0
  184.2600  179.5490  144.5530 C   0  0  0  0  0  2  0  0  0  0  0  0
  184.4190  178.4320  145.5660 C   0  0  0  0  0  2  0  0  0  0  0  0
  185.3220  178.8490  146.6290 N   0  0  0  0  0  2  0  0  0  0  0  0
  189.2290  177.2700  147.0290 C   0  0  0  0  0  0  0  0  0  0  0  0
  187.2950  178.3360  148.0220 C   0  0  0  0  0  3  0  0  0  0  0  0
  188.5850  177.8120  148.1450 C   0  0  0  0  0  3  0  0  0  0  0  0
  190.4790  176.7630  147.1480 F   0  0  0  0  0  0  0  0  0  0  0  0
  188.5820  177.2520  145.7900 C   0  0  0  0  0  3  0  0  0  0  0  0
  187.2910  177.7760  145.6670 C   0  0  0  0  0  3  0  0  0  0  0  0
  186.6420  178.3200  146.7800 C   0  0  0  0  0  0  0  0  0  0  0  0
  1 21  1  0  0  0  0
  2  1  2  0  0  0  0
  3  2  1  0  0  0  0
  4  3  1  0  0  0  0
  5  7  1  0  0  0  0
  5  8  1  0  0  0  0
  6 11  1  0  0  0  0
  7  9  1  0  0  0  0
  8  6  1  0  0  0  0
  9 10  1  0  0  0  0
 10 11  1  0  0  0  0
 11  3  1  1  0  0  0
 12  2  1  0  0  0  0
 13 12  1  0  0  0  0
 14 15  1  0  0  0  0
 14 13  1  0  0  0  0
 15 20  1  0  0  0  0
 16 17  1  0  0  0  0
 17 18  1  0  0  0  0
 19 16  1  0  0  0  0
 19 15  1  0  0  0  0
 20 18  1  0  0  0  0
 21 22  1  0  0  0  0
 22 23  1  0  0  0  0
 23 30  1  0  0  0  0
 24 27  1  0  0  0  0
 24 26  1  0  0  0  0
 25 26  2  0  0  0  0
 28 24  2  0  0  0  0
 29 28  1  0  0  0  0
 29 30  2  0  0  0  0
 30 25  1  0  0  0  0
M  END
>  <MODEL>
4

>  <REMARK>
 VINA RESULT:      -7.2      3.666      7.008
  Name = 
  10 active torsions:
  status: ('A' for Active; 'I' for Inactive)
    1  A    between atoms: N_1  and  C_17
    2  A    between atoms: C_2  and  C_19
    3  A    between atoms: C_2  and  N_30
    4  A    between atoms: N_9  and  C_19
    5  A    between atoms: N_9  and  C_27
    6  A    between atoms: N_12  and  C_18
    7  A    between atoms: N_12  and  C_25
    8  A    between atoms: C_14  and  C_16
    9  A    between atoms: C_14  and  C_18
   10  A    between atoms: C_17  and  N_30
                            x       y       z     vdW  Elec       q    Type
                         _______ _______ _______ _____ _____    ______ ____

>  <TORSDO>
F 10

$$$$
=
 OpenBabel10222416423D

 30 32  0  0  1  0  0  0  0  0999 V2000
  190.1560  177.0040  140.2810 C   0  0  0  0  0  3  0  0  0  0  0  0
  189.2290  177.8660  139.8520 C   0  0  0  0  0  0  0  0  0  0  0  0
  189.1210  178.1490  138.4470 N   0  0  0  0  0  0  0  0  0  0  0  0
  188.9740  179.4290  138.0230 O   0  0  0  0  0  1  0  0  0  0  0  0
  187.5910  177.4320  134.7330 C   0  0  0  0  0  2  0  0  0  0  0  0
  189.4470  177.5850  136.0590 C   0  0  0  0  0  2  0  0  0  0  0  0
  186.7260  177.9010  135.9210 C   0  0  0  0  0  2  0  0  0  0  0  0
  188.7990  176.7930  135.0960 O   0  0  0  0  0  0  0  0  0  0  0  0
  186.5550  176.8630  137.0340 C   0  0  0  0  0  2  0  0  0  0  0  0
  187.8510  176.2090  137.5460 C   0  0  0  0  0  2  0  0  0  0  0  0
  189.1290  177.0640  137.4670 C   0  0  2  0  0  3  0  0  0  0  0  0
  188.2770  178.5020  140.8230 C   0  0  0  0  0  2  0  0  0  0  0  0
  186.9420  178.5280  140.2530 N   0  0  0  0  0  2  0  0  0  0  0  0
  186.0360  178.8910  141.3280 C   0  0  0  0  0  2  0  0  0  0  0  0
  184.7360  179.2350  140.7800 N   0  0  0  0  0  0  0  0  0  0  0  0
  182.3670  178.4900  140.8180 C   0  0  0  0  0  2  0  0  0  0  0  0
  182.3620  179.4540  139.7180 N   0  0  0  0  0  2  0  0  0  0  0  0
  183.3650  179.0570  138.7270 C   0  0  0  0  0  2  0  0  0  0  0  0
  183.7500  178.4160  141.4870 C   0  0  0  0  0  2  0  0  0  0  0  0
  184.7460  178.8470  139.3680 C   0  0  0  0  0  2  0  0  0  0  0  0
  190.3300  176.6330  141.7200 C   0  0  0  0  0  2  0  0  0  0  0  0
  191.3120  177.5750  142.3890 C   0  0  0  0  0  2  0  0  0  0  0  0
  191.7990  176.9910  143.6290 N   0  0  0  0  0  2  0  0  0  0  0  0
  189.6550  177.2930  147.2660 C   0  0  0  0  0  0  0  0  0  0  0  0
  191.5910  176.5090  146.0420 C   0  0  0  0  0  3  0  0  0  0  0  0
  190.8770  176.6140  147.2390 C   0  0  0  0  0  3  0  0  0  0  0  0
  188.9620  177.3940  148.4250 F   0  0  0  0  0  0  0  0  0  0  0  0
  189.1490  177.8670  146.0960 C   0  0  0  0  0  3  0  0  0  0  0  0
  189.8630  177.7620  144.8990 C   0  0  0  0  0  3  0  0  0  0  0  0
  191.0860  177.0840  144.8650 C   0  0  0  0  0  0  0  0  0  0  0  0
  1 21  1  0  0  0  0
  2  1  2  0  0  0  0
  2 12  1  0  0  0  0
  3  2  1  0  0  0  0
  4  3  1  0  0  0  0
  5  8  1  0  0  0  0
  5  7  1  0  0  0  0
  6 11  1  0  0  0  0
  7  9  1  0  0  0  0
  8  6  1  0  0  0  0
  9 10  1  0  0  0  0
 11 10  1  0  0  0  0
 11  3  1  1  0  0  0
 13 12  1  0  0  0  0
 13 14  1  0  0  0  0
 15 14  1  0  0  0  0
 15 19  1  0  0  0  0
 16 19  1  0  0  0  0
 17 16  1  0  0  0  0
 18 20  1  0  0  0  0
 18 17  1  0  0  0  0
 20 15  1  0  0  0  0
 21 22  1  0  0  0  0
 22 23  1  0  0  0  0
 23 30  1  0  0  0  0
 24 27  1  0  0  0  0
 25 26  2  0  0  0  0
 26 24  1  0  0  0  0
 28 24  2  0  0  0  0
 29 28  1  0  0  0  0
 30 29  2  0  0  0  0
 30 25  1  0  0  0  0
M  END
>  <MODEL>
5

>  <REMARK>
 VINA RESULT:      -7.2      2.947      6.733
  Name = 
  10 active torsions:
  status: ('A' for Active; 'I' for Inactive)
    1  A    between atoms: N_1  and  C_17
    2  A    between atoms: C_2  and  C_19
    3  A    between atoms: C_2  and  N_30
    4  A    between atoms: N_9  and  C_19
    5  A    between atoms: N_9  and  C_27
    6  A    between atoms: N_12  and  C_18
    7  A    between atoms: N_12  and  C_25
    8  A    between atoms: C_14  and  C_16
    9  A    between atoms: C_14  and  C_18
   10  A    between atoms: C_17  and  N_30
                            x       y       z     vdW  Elec       q    Type
                         _______ _______ _______ _____ _____    ______ ____

>  <TORSDO>
F 10

$$$$
=
 OpenBabel10222416423D

 30 32  0  0  1  0  0  0  0  0999 V2000
  184.5000  179.6470  143.1950 C   0  0  0  0  0  3  0  0  0  0  0  0
  185.0360  178.8470  142.2680 C   0  0  0  0  0  0  0  0  0  0  0  0
  184.4730  178.8180  140.9460 N   0  0  0  0  0  0  0  0  0  0  0  0
  184.8590  179.7360  140.0260 O   0  0  0  0  0  1  0  0  0  0  0  0
  181.6160  178.3300  138.0740 C   0  0  0  0  0  2  0  0  0  0  0  0
  183.4900  177.5060  139.0920 C   0  0  0  0  0  2  0  0  0  0  0  0
  181.7290  179.6020  138.9380 C   0  0  0  0  0  2  0  0  0  0  0  0
  182.2000  177.1750  138.6430 O   0  0  0  0  0  0  0  0  0  0  0  0
  181.3740  179.4060  140.4150 C   0  0  0  0  0  2  0  0  0  0  0  0
  182.0640  178.2230  141.1180 C   0  0  0  0  0  2  0  0  0  0  0  0
  183.4570  177.8290  140.5920 C   0  0  2  0  0  3  0  0  0  0  0  0
  186.2430  178.0160  142.5910 C   0  0  0  0  0  2  0  0  0  0  0  0
  187.4220  178.6110  141.9880 N   0  0  0  0  0  2  0  0  0  0  0  0
  188.3250  177.5190  141.6720 C   0  0  0  0  0  2  0  0  0  0  0  0
  189.2880  177.3530  142.7470 N   0  0  0  0  0  0  0  0  0  0  0  0
  191.1810  178.5300  143.8420 C   0  0  0  0  0  2  0  0  0  0  0  0
  191.2950  177.1860  144.4080 N   0  0  0  0  0  2  0  0  0  0  0  0
  191.4110  176.2150  143.3180 C   0  0  0  0  0  2  0  0  0  0  0  0
  189.9560  178.6440  142.9190 C   0  0  0  0  0  2  0  0  0  0  0  0
  190.2740  176.3690  142.2950 C   0  0  0  0  0  2  0  0  0  0  0  0
  185.0280  179.7590  144.5900 C   0  0  0  0  0  2  0  0  0  0  0  0
  184.4960  178.6240  145.4440 C   0  0  0  0  0  2  0  0  0  0  0  0
  185.1160  178.6570  146.7600 N   0  0  0  0  0  2  0  0  0  0  0  0
  189.1020  177.3920  147.4150 C   0  0  0  0  0  0  0  0  0  0  0  0
  187.0970  178.4830  148.2240 C   0  0  0  0  0  3  0  0  0  0  0  0
  188.4140  178.0610  148.4310 C   0  0  0  0  0  3  0  0  0  0  0  0
  190.3780  176.9850  147.6150 F   0  0  0  0  0  0  0  0  0  0  0  0
  188.4730  177.1460  146.1910 C   0  0  0  0  0  3  0  0  0  0  0  0
  187.1570  177.5670  145.9830 C   0  0  0  0  0  3  0  0  0  0  0  0
  186.4630  178.2370  146.9960 C   0  0  0  0  0  0  0  0  0  0  0  0
  1 21  1  0  0  0  0
  2 12  1  0  0  0  0
  2  1  2  0  0  0  0
  3  2  1  0  0  0  0
  4  3  1  0  0  0  0
  5  8  1  0  0  0  0
  5  7  1  0  0  0  0
  6 11  1  0  0  0  0
  7  9  1  0  0  0  0
  8  6  1  0  0  0  0
  9 10  1  0  0  0  0
 11  3  1  6  0  0  0
 11 10  1  0  0  0  0
 13 12  1  0  0  0  0
 14 13  1  0  0  0  0
 14 15  1  0  0  0  0
 15 19  1  0  0  0  0
 16 17  1  0  0  0  0
 18 17  1  0  0  0  0
 19 16  1  0  0  0  0
 20 15  1  0  0  0  0
 20 18  1  0  0  0  0
 21 22  1  0  0  0  0
 22 23  1  0  0  0  0
 23 30  1  0  0  0  0
 24 27  1  0  0  0  0
 24 26  1  0  0  0  0
 25 26  2  0  0  0  0
 28 24  2  0  0  0  0
 29 28  1  0  0  0  0
 29 30  2  0  0  0  0
 30 25  1  0  0  0  0
M  END
>  <MODEL>
6

>  <REMARK>
 VINA RESULT:      -7.1      3.766      7.227
  Name = 
  10 active torsions:
  status: ('A' for Active; 'I' for Inactive)
    1  A    between atoms: N_1  and  C_17
    2  A    between atoms: C_2  and  C_19
    3  A    between atoms: C_2  and  N_30
    4  A    between atoms: N_9  and  C_19
    5  A    between atoms: N_9  and  C_27
    6  A    between atoms: N_12  and  C_18
    7  A    between atoms: N_12  and  C_25
    8  A    between atoms: C_14  and  C_16
    9  A    between atoms: C_14  and  C_18
   10  A    between atoms: C_17  and  N_30
                            x       y       z     vdW  Elec       q    Type
                         _______ _______ _______ _____ _____    ______ ____

>  <TORSDO>
F 10

$$$$
=
 OpenBabel10222416423D

 30 32  0  0  1  0  0  0  0  0999 V2000
  184.5730  179.5340  143.2220 C   0  0  0  0  0  3  0  0  0  0  0  0
  185.1190  178.8640  142.2020 C   0  0  0  0  0  0  0  0  0  0  0  0
  184.4380  178.8210  140.9380 N   0  0  0  0  0  0  0  0  0  0  0  0
  184.7230  179.7410  139.9830 O   0  0  0  0  0  1  0  0  0  0  0  0
  181.5610  178.1000  138.1350 C   0  0  0  0  0  2  0  0  0  0  0  0
  183.4310  177.3530  139.2180 C   0  0  0  0  0  2  0  0  0  0  0  0
  181.6920  179.4460  138.8760 C   0  0  0  0  0  2  0  0  0  0  0  0
  182.1350  176.9960  138.8070 O   0  0  0  0  0  0  0  0  0  0  0  0
  181.3420  179.3910  140.3670 C   0  0  0  0  0  2  0  0  0  0  0  0
  182.0230  178.2710  141.1740 C   0  0  0  0  0  2  0  0  0  0  0  0
  183.4090  177.8150  140.6810 C   0  0  2  0  0  3  0  0  0  0  0  0
  186.4530  178.1970  142.3620 C   0  0  0  0  0  2  0  0  0  0  0  0
  187.4410  178.8770  141.5430 N   0  0  0  0  0  2  0  0  0  0  0  0
  188.3730  177.8620  141.0840 C   0  0  0  0  0  2  0  0  0  0  0  0
  188.7910  178.1580  139.7250 N   0  0  0  0  0  0  0  0  0  0  0  0
  187.9560  178.0670  137.3870 C   0  0  0  0  0  2  0  0  0  0  0  0
  189.3830  178.3240  137.1880 N   0  0  0  0  0  2  0  0  0  0  0  0
  190.1570  177.2770  137.8580 C   0  0  0  0  0  2  0  0  0  0  0  0
  187.5990  178.0410  138.8830 C   0  0  0  0  0  2  0  0  0  0  0  0
  189.7490  177.1220  139.3320 C   0  0  0  0  0  2  0  0  0  0  0  0
  185.2160  179.6510  144.5680 C   0  0  0  0  0  2  0  0  0  0  0  0
  184.6490  178.6080  145.5110 C   0  0  0  0  0  2  0  0  0  0  0  0
  185.3280  178.6760  146.7970 N   0  0  0  0  0  2  0  0  0  0  0  0
  189.3090  177.3370  147.3250 C   0  0  0  0  0  0  0  0  0  0  0  0
  187.3280  178.4050  148.2190 C   0  0  0  0  0  3  0  0  0  0  0  0
  188.6420  177.9590  148.3850 C   0  0  0  0  0  3  0  0  0  0  0  0
  190.5820  176.9070  147.4840 F   0  0  0  0  0  0  0  0  0  0  0  0
  188.6590  177.1610  146.0990 C   0  0  0  0  0  3  0  0  0  0  0  0
  187.3440  177.6070  145.9330 C   0  0  0  0  0  3  0  0  0  0  0  0
  186.6730  178.2300  146.9900 C   0  0  0  0  0  0  0  0  0  0  0  0
  1 21  1  0  0  0  0
  2 12  1  0  0  0  0
  2  1  2  0  0  0  0
  3  2  1  0  0  0  0
  4  3  1  0  0  0  0
  5  8  1  0  0  0  0
  5  7  1  0  0  0  0
  6 11  1  0  0  0  0
  7  9  1  0  0  0  0
  8  6  1  0  0  0  0
  9 10  1  0  0  0  0
 11  3  1  6  0  0  0
 11 10  1  0  0  0  0
 13 12  1  0  0  0  0
 14 13  1  0  0  0  0
 15 14  1  0  0  0  0
 16 19  1  0  0  0  0
 17 16  1  0  0  0  0
 17 18  1  0  0  0  0
 18 20  1  0  0  0  0
 19 15  1  0  0  0  0
 20 15  1  0  0  0  0
 21 22  1  0  0  0  0
 22 23  1  0  0  0  0
 23 30  1  0  0  0  0
 24 27  1  0  0  0  0
 24 26  1  0  0  0  0
 25 26  2  0  0  0  0
 28 24  2  0  0  0  0
 29 28  1  0  0  0  0
 29 30  2  0  0  0  0
 30 25  1  0  0  0  0
M  END
>  <MODEL>
7

>  <REMARK>
 VINA RESULT:      -7.0      3.656      6.541
  Name = 
  10 active torsions:
  status: ('A' for Active; 'I' for Inactive)
    1  A    between atoms: N_1  and  C_17
    2  A    between atoms: C_2  and  C_19
    3  A    between atoms: C_2  and  N_30
    4  A    between atoms: N_9  and  C_19
    5  A    between atoms: N_9  and  C_27
    6  A    between atoms: N_12  and  C_18
    7  A    between atoms: N_12  and  C_25
    8  A    between atoms: C_14  and  C_16
    9  A    between atoms: C_14  and  C_18
   10  A    between atoms: C_17  and  N_30
                            x       y       z     vdW  Elec       q    Type
                         _______ _______ _______ _____ _____    ______ ____

>  <TORSDO>
F 10

$$$$
=
 OpenBabel10222416423D

 30 32  0  0  1  0  0  0  0  0999 V2000
  190.2660  177.1650  141.0530 C   0  0  0  0  0  3  0  0  0  0  0  0
  189.1730  177.6930  140.4940 C   0  0  0  0  0  0  0  0  0  0  0  0
  188.8100  177.3180  139.1550 N   0  0  0  0  0  0  0  0  0  0  0  0
  189.2140  176.1250  138.6530 O   0  0  0  0  0  1  0  0  0  0  0  0
  186.8910  177.1940  135.5560 C   0  0  0  0  0  2  0  0  0  0  0  0
  186.7490  177.5680  137.8070 C   0  0  0  0  0  2  0  0  0  0  0  0
  188.3610  176.7640  135.7390 C   0  0  0  0  0  2  0  0  0  0  0  0
  186.4070  178.0810  136.5440 O   0  0  0  0  0  0  0  0  0  0  0  0
  189.3270  177.9100  136.0540 C   0  0  0  0  0  2  0  0  0  0  0  0
  188.9020  178.8490  137.1970 C   0  0  0  0  0  2  0  0  0  0  0  0
  188.0390  178.2290  138.3110 C   0  0  2  0  0  3  0  0  0  0  0  0
  188.3050  178.6380  141.2720 C   0  0  0  0  0  2  0  0  0  0  0  0
  187.0540  177.9850  141.6130 N   0  0  0  0  0  2  0  0  0  0  0  0
  186.0120  178.9890  141.4890 C   0  0  0  0  0  2  0  0  0  0  0  0
  184.9330  178.6930  142.4160 N   0  0  0  0  0  0  0  0  0  0  0  0
  182.4550  178.7490  142.5730 C   0  0  0  0  0  2  0  0  0  0  0  0
  182.8400  178.5220  143.9650 N   0  0  0  0  0  2  0  0  0  0  0  0
  183.7460  179.5910  144.3930 C   0  0  0  0  0  2  0  0  0  0  0  0
  183.6870  178.7780  141.6520 C   0  0  0  0  0  2  0  0  0  0  0  0
  184.9360  179.7470  143.4330 C   0  0  0  0  0  2  0  0  0  0  0  0
  190.7120  177.4800  142.4450 C   0  0  0  0  0  2  0  0  0  0  0  0
  190.3960  176.3210  143.3710 C   0  0  0  0  0  2  0  0  0  0  0  0
  190.3940  176.7740  144.7540 N   0  0  0  0  0  2  0  0  0  0  0  0
  186.8950  177.9410  146.8310 C   0  0  0  0  0  0  0  0  0  0  0  0
  187.9590  177.1770  144.7940 C   0  0  0  0  0  3  0  0  0  0  0  0
  186.8080  177.5630  145.4880 C   0  0  0  0  0  3  0  0  0  0  0  0
  185.7810  178.3160  147.5030 F   0  0  0  0  0  0  0  0  0  0  0  0
  188.1340  177.9310  147.4800 C   0  0  0  0  0  3  0  0  0  0  0  0
  189.2850  177.5450  146.7860 C   0  0  0  0  0  3  0  0  0  0  0  0
  189.2040  177.1670  145.4420 C   0  0  0  0  0  0  0  0  0  0  0  0
  1 21  1  0  0  0  0
  2  1  2  0  0  0  0
  2 12  1  0  0  0  0
  3  2  1  0  0  0  0
  4  3  1  0  0  0  0
  5  7  1  0  0  0  0
  5  8  1  0  0  0  0
  6 11  1  0  0  0  0
  7  9  1  0  0  0  0
  8  6  1  0  0  0  0
  9 10  1  0  0  0  0
 10 11  1  0  0  0  0
 11  3  1  6  0  0  0
 12 13  1  0  0  0  0
 14 13  1  0  0  0  0
 14 15  1  0  0  0  0
 15 20  1  0  0  0  0
 16 17  1  0  0  0  0
 17 18  1  0  0  0  0
 19 15  1  0  0  0  0
 19 16  1  0  0  0  0
 20 18  1  0  0  0  0
 21 22  1  0  0  0  0
 22 23  1  0  0  0  0
 23 30  1  0  0  0  0
 24 28  1  0  0  0  0
 24 27  1  0  0  0  0
 25 30  2  0  0  0  0
 25 26  1  0  0  0  0
 26 24  2  0  0  0  0
 29 28  2  0  0  0  0
 30 29  1  0  0  0  0
M  END
>  <MODEL>
8

>  <REMARK>
 VINA RESULT:      -6.8      2.265      6.571
  Name = 
  10 active torsions:
  status: ('A' for Active; 'I' for Inactive)
    1  A    between atoms: N_1  and  C_17
    2  A    between atoms: C_2  and  C_19
    3  A    between atoms: C_2  and  N_30
    4  A    between atoms: N_9  and  C_19
    5  A    between atoms: N_9  and  C_27
    6  A    between atoms: N_12  and  C_18
    7  A    between atoms: N_12  and  C_25
    8  A    between atoms: C_14  and  C_16
    9  A    between atoms: C_14  and  C_18
   10  A    between atoms: C_17  and  N_30
                            x       y       z     vdW  Elec       q    Type
                         _______ _______ _______ _____ _____    ______ ____

>  <TORSDO>
F 10

$$$$
=
 OpenBabel10222416423D

 30 32  0  0  1  0  0  0  0  0999 V2000
  184.0450  178.4140  141.7930 C   0  0  0  0  0  3  0  0  0  0  0  0
  183.5480  178.4720  140.5540 C   0  0  0  0  0  0  0  0  0  0  0  0
  182.3880  177.6930  140.2180 N   0  0  0  0  0  0  0  0  0  0  0  0
  182.5100  176.3640  139.9770 O   0  0  0  0  0  1  0  0  0  0  0  0
  179.9990  180.1300  142.4550 C   0  0  0  0  0  2  0  0  0  0  0  0
  181.1330  179.8080  140.4960 C   0  0  0  0  0  2  0  0  0  0  0  0
  180.5910  178.8120  142.9930 C   0  0  0  0  0  2  0  0  0  0  0  0
  179.9020  180.2040  141.0470 O   0  0  0  0  0  0  0  0  0  0  0  0
  180.0120  177.5450  142.3560 C   0  0  0  0  0  2  0  0  0  0  0  0
  179.9790  177.5240  140.8170 C   0  0  0  0  0  2  0  0  0  0  0  0
  181.0770  178.3280  140.0950 C   0  0  2  0  0  3  0  0  0  0  0  0
  184.1700  179.3750  139.5300 C   0  0  0  0  0  2  0  0  0  0  0  0
  184.3180  178.6630  138.2730 N   0  0  0  0  0  2  0  0  0  0  0  0
  185.4530  177.7720  138.4300 C   0  0  0  0  0  2  0  0  0  0  0  0
  186.6850  178.4940  138.1640 N   0  0  0  0  0  0  0  0  0  0  0  0
  188.5260  178.6240  136.5020 C   0  0  0  0  0  2  0  0  0  0  0  0
  189.0570  179.4260  137.6030 N   0  0  0  0  0  2  0  0  0  0  0  0
  189.0670  178.6180  138.8250 C   0  0  0  0  0  2  0  0  0  0  0  0
  187.0990  178.1360  136.8070 C   0  0  0  0  0  2  0  0  0  0  0  0
  187.6880  178.0010  139.1100 C   0  0  0  0  0  2  0  0  0  0  0  0
  185.2350  179.2010  142.2400 C   0  0  0  0  0  2  0  0  0  0  0  0
  186.3840  178.2690  142.5760 C   0  0  0  0  0  2  0  0  0  0  0  0
  186.0690  177.5000  143.7710 N   0  0  0  0  0  2  0  0  0  0  0  0
  188.1710  177.9270  147.4200 C   0  0  0  0  0  0  0  0  0  0  0  0
  188.1570  177.3170  145.0770 C   0  0  0  0  0  3  0  0  0  0  0  0
  188.8430  177.4610  146.2860 C   0  0  0  0  0  3  0  0  0  0  0  0
  188.8360  178.0660  148.5920 F   0  0  0  0  0  0  0  0  0  0  0  0
  186.8130  178.2480  147.3440 C   0  0  0  0  0  3  0  0  0  0  0  0
  186.1260  178.1030  146.1350 C   0  0  0  0  0  3  0  0  0  0  0  0
  186.7930  177.6380  144.9970 C   0  0  0  0  0  0  0  0  0  0  0  0
  1 21  1  0  0  0  0
  2  1  2  0  0  0  0
  3  2  1  0  0  0  0
  4  3  1  0  0  0  0
  5  7  1  0  0  0  0
  6  8  1  0  0  0  0
  8  5  1  0  0  0  0
  9  7  1  0  0  0  0
 10  9  1  0  0  0  0
 11  3  1  1  0  0  0
 11  6  1  0  0  0  0
 11 10  1  0  0  0  0
 12  2  1  0  0  0  0
 13 14  1  0  0  0  0
 13 12  1  0  0  0  0
 15 14  1  0  0  0  0
 15 20  1  0  0  0  0
 16 19  1  0  0  0  0
 16 17  1  0  0  0  0
 17 18  1  0  0  0  0
 18 20  1  0  0  0  0
 19 15  1  0  0  0  0
 21 22  1  0  0  0  0
 22 23  1  0  0  0  0
 23 30  1  0  0  0  0
 24 27  1  0  0  0  0
 25 26  1  0  0  0  0
 26 24  2  0  0  0  0
 28 24  1  0  0  0  0
 29 28  2  0  0  0  0
 30 25  2  0  0  0  0
 30 29  1  0  0  0  0
M  END
>  <MODEL>
9

>  <REMARK>
 VINA RESULT:      -6.7      3.944      6.907
  Name = 
  10 active torsions:
  status: ('A' for Active; 'I' for Inactive)
    1  A    between atoms: N_1  and  C_17
    2  A    between atoms: C_2  and  C_19
    3  A    between atoms: C_2  and  N_30
    4  A    between atoms: N_9  and  C_19
    5  A    between atoms: N_9  and  C_27
    6  A    between atoms: N_12  and  C_18
    7  A    between atoms: N_12  and  C_25
    8  A    between atoms: C_14  and  C_16
    9  A    between atoms: C_14  and  C_18
   10  A    between atoms: C_17  and  N_30
                            x       y       z     vdW  Elec       q    Type
                         _______ _______ _______ _____ _____    ______ ____

>  <TORSDO>
F 10

$$$$
