=
 OpenBabel10222420163D

 52 59  0  0  1  0  0  0  0  0999 V2000
  183.8180  177.2310  135.7350 C   0  0  0  0  0  3  0  0  0  0  0  0
  186.4170  175.8260  136.5500 C   0  0  0  0  0  0  0  0  0  0  0  0
  186.2780  176.9820  135.9410 C   0  0  0  0  0  0  0  0  0  0  0  0
  182.5300  172.1860  136.9480 C   0  0  2  0  0  3  0  0  0  0  0  0
  184.5410  172.1530  136.1810 C   0  0  1  0  0  3  0  0  0  0  0  0
  184.0090  174.0930  137.4950 C   0  0  1  0  0  3  0  0  0  0  0  0
  181.4960  171.9430  136.0450 O   0  0  0  0  0  1  0  0  0  0  0  0
  183.4700  173.2300  136.3710 C   0  0  2  0  0  3  0  0  0  0  0  0
  185.4480  173.8580  137.5620 N   0  0  0  0  0  0  0  0  0  0  0  0
  187.6820  173.8070  136.7020 C   0  0  0  0  0  2  0  0  0  0  0  0
  185.1240  177.1700  135.0010 C   0  0  0  0  0  2  0  0  0  0  0  0
  187.0220  172.4660  136.4230 C   0  0  0  0  0  2  0  0  0  0  0  0
  183.5760  176.3570  136.6710 C   0  0  0  0  0  0  0  0  0  0  0  0
  185.6800  172.4900  137.1500 C   0  0  2  0  0  3  0  0  0  0  0  0
  183.4720  175.4870  137.6420 C   0  0  0  0  0  0  0  0  0  0  0  0
  183.6040  171.1220  136.7850 C   0  0  0  0  0  2  0  0  0  0  0  0
  186.5530  174.6620  137.1260 C   0  0  0  0  0  0  0  0  0  0  0  0
  183.1040  177.2230  139.3160 N   0  0  0  0  0  0  0  0  0  0  0  0
  181.3160  175.8910  138.8030 C   0  0  0  0  0  0  0  0  0  0  0  0
  180.8410  177.0600  139.0650 N   0  0  0  0  0  0  0  0  0  0  0  0
  180.4510  174.7240  138.4700 C   0  0  0  0  0  1  0  0  0  0  0  0
  182.8020  175.8490  138.9370 C   0  0  1  0  0  3  0  0  0  0  0  0
  181.9790  177.8540  139.3830 C   0  0  0  0  0  0  0  0  0  0  0  0
  180.9250  179.6070  140.8080 C   0  0  0  0  0  0  0  0  0  0  0  0
  181.5630  180.0690  138.3980 C   0  0  0  0  0  2  0  0  0  0  0  0
  180.1020  180.7790  140.7590 N   0  0  0  0  0  2  0  0  0  0  0  0
  181.8990  179.3160  139.6870 C   0  0  2  0  0  3  0  0  0  0  0  0
  179.8900  181.5280  139.5270 C   0  0  0  0  0  2  0  0  0  0  0  0
  181.1080  178.8500  142.2490 S   0  0  0  0  0  0  0  0  0  0  0  0
  181.1690  181.5140  138.6800 C   0  0  2  0  0  3  0  0  0  0  0  0
  181.1400  184.4590  135.6720 O   0  0  0  0  0  0  0  0  0  0  0  0
  180.6740  182.1970  135.0480 C   0  0  0  0  0  2  0  0  0  0  0  0
  179.9530  184.2990  136.4110 C   0  0  1  0  0  3  0  0  0  0  0  0
  180.1530  183.6400  135.0770 C   0  0  1  0  0  3  0  0  0  0  0  0
  180.1840  183.4270  137.6610 C   0  0  0  0  0  2  0  0  0  0  0  0
  181.0570  182.2780  137.4270 N   0  0  2  0  0  0  0  0  0  0  0  0
  180.4680  181.4720  136.3630 C   0  0  0  0  0  2  0  0  0  0  0  0
  187.7740  178.3100  137.3490 C   0  0  0  0  0  0  0  0  0  0  0  0
  188.3530  178.4840  138.5060 C   0  0  0  0  0  3  0  0  0  0  0  0
  187.1910  178.1130  136.1920 C   0  0  0  0  0  3  0  0  0  0  0  0
  189.7420  176.4090  138.3820 C   0  0  0  0  0  1  0  0  0  0  0  0
  188.8940  177.3140  139.2670 C   0  0  1  0  0  3  0  0  0  0  0  0
  189.6730  177.7550  140.5070 C   0  0  0  0  0  2  0  0  0  0  0  0
  189.6310  176.7210  141.6280 C   0  0  2  0  0  3  0  0  0  0  0  0
  187.1790  178.1210  142.0700 O   0  0  0  0  0  0  0  0  0  0  0  0
  188.3510  177.1680  142.8390 P   0  0  1  0  0  0  0  0  0  0  0  0
  187.7030  175.9070  143.3670 O   0  0  0  0  0  1  0  0  0  0  0  0
  188.2850  177.7420  145.2390 C   0  0  0  0  0  1  0  0  0  0  0  0
  189.0570  178.0380  144.1130 O   0  0  0  0  0  0  0  0  0  0  0  0
  190.9670  176.6150  142.2870 C   0  0  0  0  0  0  0  0  0  0  0  0
  191.1760  175.7160  143.3270 O   0  0  0  0  0  1  0  0  0  0  0  0
  191.9170  177.3410  141.8900 O   0  0  0  0  0  0  0  0  0  0  0  0
  1 13  2  0  0  0  0
  2 17  2  0  0  0  0
  3 40  1  0  0  0  0
  3  2  2  0  0  0  0
  4  7  1  6  0  0  0
  5  8  1  0  0  0  0
  5 16  1  1  0  0  0
  5 14  1  0  0  0  0
  6  9  1  0  0  0  0
  6 15  1  6  0  0  0
  8  4  1  0  0  0  0
  8  6  1  0  0  0  0
 10 17  1  0  0  0  0
 11  1  1  0  0  0  0
 11  3  1  0  0  0  0
 12 10  1  0  0  0  0
 12 14  1  0  0  0  0
 13 15  2  0  0  0  0
 14  9  1  0  0  0  0
 15 22  1  0  0  0  0
 16  4  1  0  0  0  0
 17  9  1  0  0  0  0
 18 23  2  0  0  0  0
 19 22  1  0  0  0  0
 19 20  2  0  0  0  0
 20 23  1  0  0  0  0
 21 19  1  0  0  0  0
 22 18  1  0  0  0  0
 23 27  1  0  0  0  0
 24 29  2  0  0  0  0
 25 30  1  0  0  0  0
 25 27  1  0  0  0  0
 26 24  1  0  0  0  0
 27 24  1  0  0  0  0
 28 26  1  0  0  0  0
 30 28  1  0  0  0  0
 31 33  1  0  0  0  0
 32 34  1  0  0  0  0
 32 37  1  0  0  0  0
 33 35  1  0  0  0  0
 34 31  1  0  0  0  0
 34 33  1  0  0  0  0
 36 35  1  0  0  0  0
 36 30  1  0  0  0  0
 37 36  1  0  0  0  0
 38 39  2  0  0  0  0
 39 42  1  0  0  0  0
 40 38  2  0  0  0  0
 41 42  1  0  0  0  0
 42 43  1  0  0  0  0
 43 44  1  0  0  0  0
 44 50  1  0  0  0  0
 44 46  1  0  0  0  0
 45 46  2  0  0  0  0
 46 47  1  0  0  0  0
 46 49  1  0  0  0  0
 49 48  1  0  0  0  0
 50 51  1  0  0  0  0
 52 50  2  0  0  0  0
M  END
>  <MODEL>
1

>  <REMARK>
 VINA RESULT:      -8.6      0.000      0.000
  Name = 
  10 active torsions:
  status: ('A' for Active; 'I' for Inactive)
    1  A    between atoms: C_8  and  C_33
    2  A    between atoms: C_9  and  C_35
    3  A    between atoms: P_23  and  C_35
    4  A    between atoms: P_23  and  O_49
    5  A    between atoms: C_25  and  C_30
    6  A    between atoms: C_25  and  C_45
    7  A    between atoms: C_28  and  C_43
    8  A    between atoms: C_35  and  C_45
    9  A    between atoms: C_36  and  C_44
   10  A    between atoms: C_46  and  N_48
                            x       y       z     vdW  Elec       q    Type
                         _______ _______ _______ _____ _____    ______ ____

>  <TORSDO>
F 10

$$$$
=
 OpenBabel10222420163D

 52 59  0  0  1  0  0  0  0  0999 V2000
  183.7200  177.2500  135.4560 C   0  0  0  0  0  3  0  0  0  0  0  0
  186.4380  175.9610  136.0440 C   0  0  0  0  0  0  0  0  0  0  0  0
  186.1960  177.0910  135.4170 C   0  0  0  0  0  0  0  0  0  0  0  0
  182.7480  172.2080  136.9480 C   0  0  2  0  0  3  0  0  0  0  0  0
  184.6710  172.2170  135.9810 C   0  0  1  0  0  3  0  0  0  0  0  0
  184.2030  174.1820  137.2820 C   0  0  1  0  0  3  0  0  0  0  0  0
  181.6380  171.9000  136.1630 O   0  0  0  0  0  1  0  0  0  0  0  0
  183.5860  173.2630  136.2470 C   0  0  2  0  0  3  0  0  0  0  0  0
  185.6500  173.9980  137.2100 N   0  0  0  0  0  0  0  0  0  0  0  0
  187.7850  173.9920  136.1280 C   0  0  0  0  0  2  0  0  0  0  0  0
  184.9470  177.2070  134.5950 C   0  0  0  0  0  2  0  0  0  0  0  0
  187.1500  172.6200  135.9590 C   0  0  0  0  0  2  0  0  0  0  0  0
  183.6070  176.4010  136.4380 C   0  0  0  0  0  0  0  0  0  0  0  0
  185.8880  172.6240  136.8180 C   0  0  2  0  0  3  0  0  0  0  0  0
  183.6330  175.5610  137.4410 C   0  0  0  0  0  0  0  0  0  0  0  0
  183.8380  171.1770  136.7090 C   0  0  0  0  0  2  0  0  0  0  0  0
  186.6740  174.8220  136.6390 C   0  0  0  0  0  0  0  0  0  0  0  0
  183.3520  177.3470  139.0790 N   0  0  0  0  0  0  0  0  0  0  0  0
  181.5910  175.9100  138.8090 C   0  0  0  0  0  0  0  0  0  0  0  0
  181.0870  177.0650  139.0770 N   0  0  0  0  0  0  0  0  0  0  0  0
  180.7590  174.6900  138.6140 C   0  0  0  0  0  1  0  0  0  0  0  0
  183.0840  175.9450  138.7860 C   0  0  1  0  0  3  0  0  0  0  0  0
  182.2090  177.9250  139.2430 C   0  0  0  0  0  0  0  0  0  0  0  0
  181.1410  179.6880  140.6450 C   0  0  0  0  0  0  0  0  0  0  0  0
  181.6760  180.0870  138.1990 C   0  0  0  0  0  2  0  0  0  0  0  0
  180.2730  180.8270  140.5860 N   0  0  0  0  0  2  0  0  0  0  0  0
  182.0850  179.3930  139.5000 C   0  0  2  0  0  3  0  0  0  0  0  0
  179.9910  181.5250  139.3380 C   0  0  0  0  0  2  0  0  0  0  0  0
  181.4020  178.9890  142.1030 S   0  0  0  0  0  0  0  0  0  0  0  0
  181.2400  181.5270  138.4460 C   0  0  2  0  0  3  0  0  0  0  0  0
  180.9980  184.3610  135.3430 O   0  0  0  0  0  0  0  0  0  0  0  0
  180.5910  182.0630  134.8130 C   0  0  0  0  0  2  0  0  0  0  0  0
  179.8450  184.1860  136.1300 C   0  0  1  0  0  3  0  0  0  0  0  0
  180.0200  183.4880  134.8130 C   0  0  1  0  0  3  0  0  0  0  0  0
  180.1510  183.3680  137.3990 C   0  0  0  0  0  2  0  0  0  0  0  0
  181.0550  182.2410  137.1730 N   0  0  2  0  0  0  0  0  0  0  0  0
  180.4580  181.3790  136.1590 C   0  0  0  0  0  2  0  0  0  0  0  0
  187.5660  178.6680  136.6880 C   0  0  0  0  0  0  0  0  0  0  0  0
  188.0420  179.0550  137.8420 C   0  0  0  0  0  3  0  0  0  0  0  0
  187.0870  178.2590  135.5390 C   0  0  0  0  0  3  0  0  0  0  0  0
  187.3530  177.5040  139.6770 C   0  0  0  0  0  1  0  0  0  0  0  0
  188.5090  178.0480  138.8460 C   0  0  1  0  0  3  0  0  0  0  0  0
  189.2930  176.9130  138.1880 C   0  0  0  0  0  2  0  0  0  0  0  0
  190.7970  177.0210  138.4240 C   0  0  2  0  0  3  0  0  0  0  0  0
  193.2850  175.6710  138.0360 O   0  0  0  0  0  1  0  0  0  0  0  0
  191.6630  175.6870  137.5450 P   0  0  1  0  0  0  0  0  0  0  0  0
  191.0210  174.3620  137.8940 O   0  0  0  0  0  0  0  0  0  0  0  0
  191.3710  174.6980  135.3020 C   0  0  0  0  0  1  0  0  0  0  0  0
  191.5690  175.9580  135.8730 O   0  0  0  0  0  0  0  0  0  0  0  0
  191.0970  176.9730  139.8870 C   0  0  0  0  0  0  0  0  0  0  0  0
  190.3800  176.1320  140.7310 O   0  0  0  0  0  1  0  0  0  0  0  0
  192.0140  177.6960  140.3590 O   0  0  0  0  0  0  0  0  0  0  0  0
  1 13  2  0  0  0  0
  2 17  2  0  0  0  0
  3 40  1  0  0  0  0
  3  2  2  0  0  0  0
  4  7  1  6  0  0  0
  5  8  1  0  0  0  0
  5 16  1  1  0  0  0
  5 14  1  0  0  0  0
  6 15  1  6  0  0  0
  8  4  1  0  0  0  0
  8  6  1  0  0  0  0
  9  6  1  0  0  0  0
 10 17  1  0  0  0  0
 11  3  1  0  0  0  0
 11  1  1  0  0  0  0
 12 10  1  0  0  0  0
 12 14  1  0  0  0  0
 13 15  2  0  0  0  0
 14  9  1  0  0  0  0
 15 22  1  0  0  0  0
 16  4  1  0  0  0  0
 17  9  1  0  0  0  0
 18 23  2  0  0  0  0
 19 20  2  0  0  0  0
 20 23  1  0  0  0  0
 21 19  1  0  0  0  0
 22 19  1  0  0  0  0
 22 18  1  0  0  0  0
 23 27  1  0  0  0  0
 24 29  2  0  0  0  0
 25 30  1  0  0  0  0
 25 27  1  0  0  0  0
 26 24  1  0  0  0  0
 27 24  1  0  0  0  0
 28 26  1  0  0  0  0
 30 28  1  0  0  0  0
 31 33  1  0  0  0  0
 32 34  1  0  0  0  0
 32 37  1  0  0  0  0
 33 35  1  0  0  0  0
 34 31  1  0  0  0  0
 34 33  1  0  0  0  0
 36 35  1  0  0  0  0
 36 30  1  0  0  0  0
 37 36  1  0  0  0  0
 38 39  2  0  0  0  0
 39 42  1  0  0  0  0
 40 38  2  0  0  0  0
 42 41  1  0  0  0  0
 43 44  1  0  0  0  0
 43 42  1  0  0  0  0
 44 50  1  0  0  0  0
 46 47  2  0  0  0  0
 46 45  1  0  0  0  0
 46 44  1  0  0  0  0
 48 49  1  0  0  0  0
 49 46  1  0  0  0  0
 50 52  2  0  0  0  0
 50 51  1  0  0  0  0
M  END
>  <MODEL>
2

>  <REMARK>
 VINA RESULT:      -7.2      1.762      2.738
  Name = 
  10 active torsions:
  status: ('A' for Active; 'I' for Inactive)
    1  A    between atoms: C_8  and  C_33
    2  A    between atoms: C_9  and  C_35
    3  A    between atoms: P_23  and  C_35
    4  A    between atoms: P_23  and  O_49
    5  A    between atoms: C_25  and  C_30
    6  A    between atoms: C_25  and  C_45
    7  A    between atoms: C_28  and  C_43
    8  A    between atoms: C_35  and  C_45
    9  A    between atoms: C_36  and  C_44
   10  A    between atoms: C_46  and  N_48
                            x       y       z     vdW  Elec       q    Type
                         _______ _______ _______ _____ _____    ______ ____

>  <TORSDO>
F 10

$$$$
=
 OpenBabel10222420163D

 52 59  0  0  1  0  0  0  0  0999 V2000
  187.1870  179.2540  141.1020 C   0  0  0  0  0  3  0  0  0  0  0  0
  186.2470  177.5650  143.4810 C   0  0  0  0  0  0  0  0  0  0  0  0
  185.5110  178.2380  142.6250 C   0  0  0  0  0  0  0  0  0  0  0  0
  191.4970  178.3010  144.1200 C   0  0  2  0  0  3  0  0  0  0  0  0
  189.8030  178.3610  145.4470 C   0  0  1  0  0  3  0  0  0  0  0  0
  189.3500  177.3860  143.2970 C   0  0  1  0  0  3  0  0  0  0  0  0
  192.2180  179.4820  143.9470 O   0  0  0  0  0  1  0  0  0  0  0  0
  190.0150  178.5840  143.9470 C   0  0  2  0  0  3  0  0  0  0  0  0
  188.4100  176.8380  144.2720 N   0  0  0  0  0  0  0  0  0  0  0  0
  186.5360  176.9120  145.7590 C   0  0  0  0  0  2  0  0  0  0  0  0
  186.0550  179.5130  142.0510 C   0  0  0  0  0  2  0  0  0  0  0  0
  187.7810  177.3310  146.5250 C   0  0  0  0  0  2  0  0  0  0  0  0
  188.1200  178.4090  141.4450 C   0  0  0  0  0  0  0  0  0  0  0  0
  188.9620  177.0880  145.5870 C   0  0  2  0  0  3  0  0  0  0  0  0
  188.9530  177.4880  141.8540 C   0  0  0  0  0  0  0  0  0  0  0  0
  191.2820  178.0520  145.6030 C   0  0  0  0  0  2  0  0  0  0  0  0
  186.9810  176.9230  144.3500 C   0  0  0  0  0  0  0  0  0  0  0  0
  188.6610  176.2710  139.7600 N   0  0  0  0  0  0  0  0  0  0  0  0
  190.7640  177.0540  140.2120 C   0  0  0  0  0  0  0  0  0  0  0  0
  190.6140  177.1170  138.9330 N   0  0  0  0  0  0  0  0  0  0  0  0
  192.0310  177.4320  140.8970 C   0  0  0  0  0  1  0  0  0  0  0  0
  189.5520  176.5030  140.8890 C   0  0  1  0  0  3  0  0  0  0  0  0
  189.3030  176.6190  138.6930 C   0  0  0  0  0  0  0  0  0  0  0  0
  188.0230  177.8950  136.9760 C   0  0  0  0  0  0  0  0  0  0  0  0
  187.7070  175.3970  137.2760 C   0  0  0  0  0  2  0  0  0  0  0  0
  186.7910  177.9090  136.2430 N   0  0  0  0  0  2  0  0  0  0  0  0
  188.6770  176.5780  137.3350 C   0  0  2  0  0  3  0  0  0  0  0  0
  185.9450  176.7280  136.1250 C   0  0  0  0  0  2  0  0  0  0  0  0
  188.9050  179.2730  137.0320 S   0  0  0  0  0  0  0  0  0  0  0  0
  186.8150  175.4670  136.0430 C   0  0  2  0  0  3  0  0  0  0  0  0
  183.8340  172.5010  135.8440 O   0  0  0  0  0  0  0  0  0  0  0  0
  186.0650  171.9100  135.2110 C   0  0  0  0  0  2  0  0  0  0  0  0
  184.4450  172.6990  137.0950 C   0  0  1  0  0  3  0  0  0  0  0  0
  184.8910  171.6170  136.1570 C   0  0  1  0  0  3  0  0  0  0  0  0
  185.2790  173.9950  137.1140 C   0  0  0  0  0  2  0  0  0  0  0  0
  186.0410  174.2250  135.8870 N   0  0  2  0  0  0  0  0  0  0  0  0
  186.9140  173.0760  135.6750 C   0  0  0  0  0  2  0  0  0  0  0  0
  183.4420  178.4210  141.3330 C   0  0  0  0  0  0  0  0  0  0  0  0
  182.7120  179.0970  140.4870 C   0  0  0  0  0  3  0  0  0  0  0  0
  184.1930  177.7530  142.1740 C   0  0  0  0  0  3  0  0  0  0  0  0
  184.4440  178.9280  138.6910 C   0  0  0  0  0  1  0  0  0  0  0  0
  183.3450  179.7810  139.3160 C   0  0  1  0  0  3  0  0  0  0  0  0
  182.3090  180.1910  138.2700 C   0  0  0  0  0  2  0  0  0  0  0  0
  181.0140  179.3920  138.3780 C   0  0  2  0  0  3  0  0  0  0  0  0
  179.3680  177.6800  136.7880 O   0  0  0  0  0  1  0  0  0  0  0  0
  180.9810  178.0850  137.1150 P   0  0  1  0  0  0  0  0  0  0  0  0
  181.6360  178.5970  135.8510 O   0  0  0  0  0  0  0  0  0  0  0  0
  182.1330  175.9740  136.5550 C   0  0  0  0  0  1  0  0  0  0  0  0
  181.8130  176.7220  137.6910 O   0  0  0  0  0  0  0  0  0  0  0  0
  179.8330  180.2960  138.2340 C   0  0  0  0  0  0  0  0  0  0  0  0
  179.6760  181.0820  137.0980 O   0  0  0  0  0  0  0  0  0  0  0  0
  178.9660  180.3390  139.1470 O   0  0  0  0  0  1  0  0  0  0  0  0
  1 13  2  0  0  0  0
  1 11  1  0  0  0  0
  2 17  2  0  0  0  0
  3  2  2  0  0  0  0
  4  7  1  1  0  0  0
  4 16  1  0  0  0  0
  5 14  1  0  0  0  0
  5 16  1  1  0  0  0
  6 15  1  6  0  0  0
  6  8  1  0  0  0  0
  6  9  1  0  0  0  0
  8  4  1  0  0  0  0
  8  5  1  0  0  0  0
  9 17  1  0  0  0  0
  9 14  1  0  0  0  0
 10 12  1  0  0  0  0
 11  3  1  0  0  0  0
 13 15  2  0  0  0  0
 14 12  1  0  0  0  0
 17 10  1  0  0  0  0
 18 22  1  0  0  0  0
 19 22  1  0  0  0  0
 19 21  1  0  0  0  0
 20 19  2  0  0  0  0
 22 15  1  0  0  0  0
 23 20  1  0  0  0  0
 23 18  2  0  0  0  0
 24 29  2  0  0  0  0
 24 27  1  0  0  0  0
 25 27  1  0  0  0  0
 26 24  1  0  0  0  0
 27 23  1  0  0  0  0
 28 26  1  0  0  0  0
 30 28  1  0  0  0  0
 30 25  1  0  0  0  0
 31 34  1  0  0  0  0
 31 33  1  0  0  0  0
 32 37  1  0  0  0  0
 32 34  1  0  0  0  0
 33 35  1  0  0  0  0
 34 33  1  0  0  0  0
 36 30  1  0  0  0  0
 36 35  1  0  0  0  0
 37 36  1  0  0  0  0
 38 40  2  0  0  0  0
 39 38  2  0  0  0  0
 40  3  1  0  0  0  0
 41 42  1  0  0  0  0
 42 39  1  0  0  0  0
 43 44  1  0  0  0  0
 43 42  1  0  0  0  0
 45 46  1  0  0  0  0
 46 49  1  0  0  0  0
 46 44  1  0  0  0  0
 47 46  2  0  0  0  0
 48 49  1  0  0  0  0
 50 44  1  0  0  0  0
 50 52  1  0  0  0  0
 51 50  2  0  0  0  0
M  END
>  <MODEL>
3

>  <REMARK>
 VINA RESULT:      -7.0      3.521      9.758
  Name = 
  10 active torsions:
  status: ('A' for Active; 'I' for Inactive)
    1  A    between atoms: C_8  and  C_33
    2  A    between atoms: C_9  and  C_35
    3  A    between atoms: P_23  and  C_35
    4  A    between atoms: P_23  and  O_49
    5  A    between atoms: C_25  and  C_30
    6  A    between atoms: C_25  and  C_45
    7  A    between atoms: C_28  and  C_43
    8  A    between atoms: C_35  and  C_45
    9  A    between atoms: C_36  and  C_44
   10  A    between atoms: C_46  and  N_48
                            x       y       z     vdW  Elec       q    Type
                         _______ _______ _______ _____ _____    ______ ____

>  <TORSDO>
F 10

$$$$
=
 OpenBabel10222420163D

 52 59  0  0  1  0  0  0  0  0999 V2000
  184.5590  176.8930  136.1580 C   0  0  0  0  0  3  0  0  0  0  0  0
  185.3220  173.9300  136.3570 C   0  0  0  0  0  0  0  0  0  0  0  0
  186.0870  174.9430  136.0150 C   0  0  0  0  0  0  0  0  0  0  0  0
  179.9870  174.1370  136.4710 C   0  0  2  0  0  3  0  0  0  0  0  0
  181.4160  172.8700  135.4780 C   0  0  1  0  0  3  0  0  0  0  0  0
  182.3450  174.2520  137.2120 C   0  0  1  0  0  3  0  0  0  0  0  0
  179.1480  174.9080  135.6670 O   0  0  0  0  0  1  0  0  0  0  0  0
  181.4240  174.3060  136.0090 C   0  0  2  0  0  3  0  0  0  0  0  0
  183.1790  173.0630  137.0580 N   0  0  0  0  0  0  0  0  0  0  0  0
  184.7570  171.6480  135.9450 C   0  0  0  0  0  2  0  0  0  0  0  0
  185.4740  176.0960  135.2770 C   0  0  0  0  0  2  0  0  0  0  0  0
  183.3570  171.2750  135.4810 C   0  0  0  0  0  2  0  0  0  0  0  0
  183.7080  176.2640  136.9210 C   0  0  0  0  0  0  0  0  0  0  0  0
  182.3910  172.0740  136.3530 C   0  0  2  0  0  3  0  0  0  0  0  0
  182.9540  175.5330  137.7010 C   0  0  0  0  0  0  0  0  0  0  0  0
  179.9890  172.7030  135.9690 C   0  0  0  0  0  2  0  0  0  0  0  0
  184.5510  172.9220  136.6650 C   0  0  0  0  0  0  0  0  0  0  0  0
  182.9600  177.3690  139.3070 N   0  0  0  0  0  0  0  0  0  0  0  0
  181.2020  175.9080  139.4180 C   0  0  0  0  0  0  0  0  0  0  0  0
  180.7390  177.0670  139.7410 N   0  0  0  0  0  0  0  0  0  0  0  0
  180.3660  174.6750  139.4220 C   0  0  0  0  0  1  0  0  0  0  0  0
  182.6630  175.9550  139.1130 C   0  0  1  0  0  3  0  0  0  0  0  0
  181.8590  177.9420  139.6660 C   0  0  0  0  0  0  0  0  0  0  0  0
  180.7530  179.7560  140.9700 C   0  0  0  0  0  0  0  0  0  0  0  0
  181.4660  180.1040  138.5620 C   0  0  0  0  0  2  0  0  0  0  0  0
  179.9270  180.9190  140.8390 N   0  0  0  0  0  2  0  0  0  0  0  0
  181.7640  179.4170  139.8950 C   0  0  2  0  0  3  0  0  0  0  0  0
  179.7520  181.6070  139.5650 C   0  0  0  0  0  2  0  0  0  0  0  0
  180.8930  179.0700  142.4510 S   0  0  0  0  0  0  0  0  0  0  0  0
  181.0570  181.5590  138.7600 C   0  0  2  0  0  3  0  0  0  0  0  0
  181.1370  184.3490  135.6100 O   0  0  0  0  0  0  0  0  0  0  0  0
  180.6400  182.0670  135.0900 C   0  0  0  0  0  2  0  0  0  0  0  0
  179.9350  184.2480  136.3330 C   0  0  1  0  0  3  0  0  0  0  0  0
  180.1460  183.5200  135.0380 C   0  0  1  0  0  3  0  0  0  0  0  0
  180.1260  183.4360  137.6290 C   0  0  0  0  0  2  0  0  0  0  0  0
  180.9810  182.2610  137.4700 N   0  0  2  0  0  0  0  0  0  0  0  0
  180.3970  181.4140  136.4360 C   0  0  0  0  0  2  0  0  0  0  0  0
  188.1000  176.1050  136.7760 C   0  0  0  0  0  0  0  0  0  0  0  0
  188.6620  177.2130  137.1800 C   0  0  0  0  0  3  0  0  0  0  0  0
  187.5150  175.0020  136.3790 C   0  0  0  0  0  3  0  0  0  0  0  0
  186.5950  177.5630  138.5410 C   0  0  0  0  0  1  0  0  0  0  0  0
  187.9400  178.1360  138.1100 C   0  0  1  0  0  3  0  0  0  0  0  0
  188.7940  178.5010  139.3240 C   0  0  0  0  0  2  0  0  0  0  0  0
  188.8750  177.3750  140.3490 C   0  0  2  0  0  3  0  0  0  0  0  0
  189.5060  178.7470  142.7760 O   0  0  0  0  0  1  0  0  0  0  0  0
  188.2530  177.9510  141.9570 P   0  0  1  0  0  0  0  0  0  0  0  0
  187.1090  178.9150  141.7320 O   0  0  0  0  0  0  0  0  0  0  0  0
  188.3370  176.7560  144.1160 C   0  0  0  0  0  1  0  0  0  0  0  0
  187.7230  176.6210  142.8680 O   0  0  0  0  0  0  0  0  0  0  0  0
  190.2800  176.8830  140.4710 C   0  0  0  0  0  0  0  0  0  0  0  0
  191.2640  177.3230  139.5920 O   0  0  0  0  0  0  0  0  0  0  0  0
  190.5790  176.0680  141.3840 O   0  0  0  0  0  1  0  0  0  0  0  0
  1 13  2  0  0  0  0
  2 17  2  0  0  0  0
  3  2  2  0  0  0  0
  3 40  1  0  0  0  0
  4  7  1  6  0  0  0
  5 16  1  1  0  0  0
  5  8  1  0  0  0  0
  5 14  1  0  0  0  0
  6 15  1  6  0  0  0
  8  4  1  0  0  0  0
  8  6  1  0  0  0  0
  9  6  1  0  0  0  0
 10 17  1  0  0  0  0
 11  3  1  0  0  0  0
 11  1  1  0  0  0  0
 12 10  1  0  0  0  0
 12 14  1  0  0  0  0
 13 15  2  0  0  0  0
 14  9  1  0  0  0  0
 15 22  1  0  0  0  0
 16  4  1  0  0  0  0
 17  9  1  0  0  0  0
 18 23  2  0  0  0  0
 19 21  1  0  0  0  0
 19 20  2  0  0  0  0
 22 18  1  0  0  0  0
 22 19  1  0  0  0  0
 23 20  1  0  0  0  0
 23 27  1  0  0  0  0
 24 29  2  0  0  0  0
 25 30  1  0  0  0  0
 25 27  1  0  0  0  0
 26 24  1  0  0  0  0
 27 24  1  0  0  0  0
 28 26  1  0  0  0  0
 30 28  1  0  0  0  0
 31 33  1  0  0  0  0
 32 37  1  0  0  0  0
 33 35  1  0  0  0  0
 34 32  1  0  0  0  0
 34 31  1  0  0  0  0
 34 33  1  0  0  0  0
 36 35  1  0  0  0  0
 36 30  1  0  0  0  0
 37 36  1  0  0  0  0
 38 39  2  0  0  0  0
 39 42  1  0  0  0  0
 40 38  2  0  0  0  0
 42 41  1  0  0  0  0
 42 43  1  0  0  0  0
 43 44  1  0  0  0  0
 44 50  1  0  0  0  0
 44 46  1  0  0  0  0
 46 45  1  0  0  0  0
 46 49  1  0  0  0  0
 47 46  2  0  0  0  0
 49 48  1  0  0  0  0
 50 52  1  0  0  0  0
 51 50  2  0  0  0  0
M  END
>  <MODEL>
4

>  <REMARK>
 VINA RESULT:      -6.7      1.296      2.049
  Name = 
  10 active torsions:
  status: ('A' for Active; 'I' for Inactive)
    1  A    between atoms: C_8  and  C_33
    2  A    between atoms: C_9  and  C_35
    3  A    between atoms: P_23  and  C_35
    4  A    between atoms: P_23  and  O_49
    5  A    between atoms: C_25  and  C_30
    6  A    between atoms: C_25  and  C_45
    7  A    between atoms: C_28  and  C_43
    8  A    between atoms: C_35  and  C_45
    9  A    between atoms: C_36  and  C_44
   10  A    between atoms: C_46  and  N_48
                            x       y       z     vdW  Elec       q    Type
                         _______ _______ _______ _____ _____    ______ ____

>  <TORSDO>
F 10

$$$$
=
 OpenBabel10222420163D

 52 59  0  0  1  0  0  0  0  0999 V2000
  186.3770  176.7980  135.7920 C   0  0  0  0  0  3  0  0  0  0  0  0
  187.2650  177.5530  138.6260 C   0  0  0  0  0  0  0  0  0  0  0  0
  186.2380  178.0150  137.9500 C   0  0  0  0  0  0  0  0  0  0  0  0
  191.3360  174.8980  136.4130 C   0  0  2  0  0  3  0  0  0  0  0  0
  191.1860  176.6690  137.6280 C   0  0  1  0  0  3  0  0  0  0  0  0
  189.1780  175.3510  137.5360 C   0  0  1  0  0  3  0  0  0  0  0  0
  191.8490  175.0470  135.1250 O   0  0  0  0  0  1  0  0  0  0  0  0
  190.2580  175.9410  136.6510 C   0  0  2  0  0  3  0  0  0  0  0  0
  189.1910  176.1040  138.7870 N   0  0  0  0  0  0  0  0  0  0  0  0
  189.0400  178.0770  140.1350 C   0  0  0  0  0  2  0  0  0  0  0  0
  186.3510  178.1400  136.4590 C   0  0  0  0  0  2  0  0  0  0  0  0
  190.4880  177.8870  139.7110 C   0  0  0  0  0  2  0  0  0  0  0  0
  187.1370  175.8600  136.2850 C   0  0  0  0  0  0  0  0  0  0  0  0
  190.5560  176.5280  139.0190 C   0  0  2  0  0  3  0  0  0  0  0  0
  187.8690  174.9730  136.9070 C   0  0  0  0  0  0  0  0  0  0  0  0
  192.2460  175.6050  137.4040 C   0  0  0  0  0  2  0  0  0  0  0  0
  188.3060  177.1170  139.2840 C   0  0  0  0  0  0  0  0  0  0  0  0
  186.1220  173.4360  137.6380 N   0  0  0  0  0  0  0  0  0  0  0  0
  187.1660  172.9450  135.6610 C   0  0  0  0  0  0  0  0  0  0  0  0
  185.9430  172.5560  135.5390 N   0  0  0  0  0  0  0  0  0  0  0  0
  188.1860  172.7500  134.5940 C   0  0  0  0  0  1  0  0  0  0  0  0
  187.4310  173.5390  137.0050 C   0  0  1  0  0  3  0  0  0  0  0  0
  185.3320  172.8730  136.7840 C   0  0  0  0  0  0  0  0  0  0  0  0
  183.2170  171.8210  135.9880 C   0  0  0  0  0  0  0  0  0  0  0  0
  183.2060  174.0170  137.2560 C   0  0  0  0  0  2  0  0  0  0  0  0
  181.8780  172.1170  135.5690 N   0  0  0  0  0  2  0  0  0  0  0  0
  183.8790  172.6560  137.0630 C   0  0  2  0  0  3  0  0  0  0  0  0
  181.2370  173.3920  135.8650 C   0  0  0  0  0  2  0  0  0  0  0  0
  183.8360  170.3510  135.6170 S   0  0  0  0  0  0  0  0  0  0  0  0
  181.6870  173.8980  137.2420 C   0  0  2  0  0  3  0  0  0  0  0  0
  180.0240  177.7610  137.4140 O   0  0  0  0  0  0  0  0  0  0  0  0
  179.9550  176.4080  139.3870 C   0  0  0  0  0  2  0  0  0  0  0  0
  181.4110  177.6610  137.6240 C   0  0  1  0  0  3  0  0  0  0  0  0
  180.4390  177.7260  138.7650 C   0  0  1  0  0  3  0  0  0  0  0  0
  181.9380  176.2650  137.2350 C   0  0  0  0  0  2  0  0  0  0  0  0
  181.0600  175.1680  137.6380 N   0  0  2  0  0  0  0  0  0  0  0  0
  180.8760  175.2440  139.0840 C   0  0  0  0  0  2  0  0  0  0  0  0
  184.8030  178.3330  139.9050 C   0  0  0  0  0  0  0  0  0  0  0  0
  184.6650  178.3050  141.2040 C   0  0  0  0  0  3  0  0  0  0  0  0
  184.9630  178.3640  138.6050 C   0  0  0  0  0  3  0  0  0  0  0  0
  185.2570  179.8630  143.0670 C   0  0  0  0  0  1  0  0  0  0  0  0
  185.7600  178.8040  142.0940 C   0  0  1  0  0  3  0  0  0  0  0  0
  186.4520  177.6610  142.8360 C   0  0  0  0  0  2  0  0  0  0  0  0
  187.2940  178.1460  144.0120 C   0  0  2  0  0  3  0  0  0  0  0  0
  188.8300  175.9810  142.9550 O   0  0  0  0  0  0  0  0  0  0  0  0
  188.9020  177.2980  144.0190 P   0  0  1  0  0  0  0  0  0  0  0  0
  189.9740  178.2590  143.5550 O   0  0  0  0  0  1  0  0  0  0  0  0
  190.3890  177.4550  145.9840 C   0  0  0  0  0  1  0  0  0  0  0  0
  189.2470  176.7540  145.5890 O   0  0  0  0  0  0  0  0  0  0  0  0
  186.5700  177.9180  145.2990 C   0  0  0  0  0  0  0  0  0  0  0  0
  186.1140  178.9920  146.0560 O   0  0  0  0  0  1  0  0  0  0  0  0
  186.3630  176.7410  145.6970 O   0  0  0  0  0  0  0  0  0  0  0  0
  1 13  2  0  0  0  0
  1 11  1  0  0  0  0
  2 17  2  0  0  0  0
  3 40  1  0  0  0  0
  3  2  2  0  0  0  0
  4  7  1  6  0  0  0
  4  8  1  0  0  0  0
  4 16  1  0  0  0  0
  5 16  1  1  0  0  0
  5 14  1  0  0  0  0
  6 15  1  6  0  0  0
  6  9  1  0  0  0  0
  8  6  1  0  0  0  0
  8  5  1  0  0  0  0
  9 14  1  0  0  0  0
  9 17  1  0  0  0  0
 11  3  1  0  0  0  0
 12 10  1  0  0  0  0
 13 15  2  0  0  0  0
 14 12  1  0  0  0  0
 15 22  1  0  0  0  0
 17 10  1  0  0  0  0
 19 22  1  0  0  0  0
 20 19  2  0  0  0  0
 20 23  1  0  0  0  0
 21 19  1  0  0  0  0
 22 18  1  0  0  0  0
 23 27  1  0  0  0  0
 23 18  2  0  0  0  0
 24 27  1  0  0  0  0
 26 28  1  0  0  0  0
 26 24  1  0  0  0  0
 27 25  1  0  0  0  0
 28 30  1  0  0  0  0
 29 24  2  0  0  0  0
 30 25  1  0  0  0  0
 30 36  1  0  0  0  0
 31 33  1  0  0  0  0
 31 34  1  0  0  0  0
 33 34  1  0  0  0  0
 34 32  1  0  0  0  0
 35 33  1  0  0  0  0
 35 36  1  0  0  0  0
 36 37  1  0  0  0  0
 37 32  1  0  0  0  0
 38 39  2  0  0  0  0
 39 42  1  0  0  0  0
 40 38  2  0  0  0  0
 42 43  1  0  0  0  0
 42 41  1  0  0  0  0
 43 44  1  0  0  0  0
 44 46  1  0  0  0  0
 44 50  1  0  0  0  0
 45 46  2  0  0  0  0
 46 49  1  0  0  0  0
 47 46  1  0  0  0  0
 49 48  1  0  0  0  0
 50 52  2  0  0  0  0
 50 51  1  0  0  0  0
M  END
>  <MODEL>
5

>  <REMARK>
 VINA RESULT:      -6.4      3.459      6.446
  Name = 
  10 active torsions:
  status: ('A' for Active; 'I' for Inactive)
    1  A    between atoms: C_8  and  C_33
    2  A    between atoms: C_9  and  C_35
    3  A    between atoms: P_23  and  C_35
    4  A    between atoms: P_23  and  O_49
    5  A    between atoms: C_25  and  C_30
    6  A    between atoms: C_25  and  C_45
    7  A    between atoms: C_28  and  C_43
    8  A    between atoms: C_35  and  C_45
    9  A    between atoms: C_36  and  C_44
   10  A    between atoms: C_46  and  N_48
                            x       y       z     vdW  Elec       q    Type
                         _______ _______ _______ _____ _____    ______ ____

>  <TORSDO>
F 10

$$$$
=
 OpenBabel10222420163D

 52 59  0  0  1  0  0  0  0  0999 V2000
  185.8750  176.6120  136.6760 C   0  0  0  0  0  3  0  0  0  0  0  0
  184.0900  174.1530  137.0840 C   0  0  0  0  0  0  0  0  0  0  0  0
  185.3730  174.1840  136.8010 C   0  0  0  0  0  0  0  0  0  0  0  0
  180.8150  178.3340  136.5230 C   0  0  2  0  0  3  0  0  0  0  0  0
  180.8150  176.3190  135.7680 C   0  0  1  0  0  3  0  0  0  0  0  0
  182.3800  176.7140  137.5470 C   0  0  1  0  0  3  0  0  0  0  0  0
  180.9060  179.3680  135.5910 O   0  0  0  0  0  1  0  0  0  0  0  0
  181.8910  177.3010  136.2380 C   0  0  2  0  0  3  0  0  0  0  0  0
  182.0150  175.3000  137.5460 N   0  0  0  0  0  0  0  0  0  0  0  0
  182.0020  173.0630  136.6960 C   0  0  0  0  0  2  0  0  0  0  0  0
  185.8980  175.3010  135.9470 C   0  0  0  0  0  2  0  0  0  0  0  0
  180.8420  173.8260  136.0750 C   0  0  0  0  0  2  0  0  0  0  0  0
  184.8090  176.9420  137.3500 C   0  0  0  0  0  0  0  0  0  0  0  0
  180.7880  175.1750  136.7880 C   0  0  2  0  0  3  0  0  0  0  0  0
  183.7260  177.1360  138.0580 C   0  0  0  0  0  0  0  0  0  0  0  0
  179.7450  177.3500  136.0830 C   0  0  0  0  0  2  0  0  0  0  0  0
  182.8080  174.1250  137.3330 C   0  0  0  0  0  0  0  0  0  0  0  0
  185.0520  177.5030  140.0730 N   0  0  0  0  0  0  0  0  0  0  0  0
  183.8500  179.2870  139.2910 C   0  0  0  0  0  0  0  0  0  0  0  0
  184.9300  179.7670  139.8060 N   0  0  0  0  0  0  0  0  0  0  0  0
  182.7770  180.1460  138.7170 C   0  0  0  0  0  1  0  0  0  0  0  0
  183.7910  177.7990  139.4050 C   0  0  1  0  0  3  0  0  0  0  0  0
  185.6440  178.6330  140.2830 C   0  0  0  0  0  0  0  0  0  0  0  0
  188.0090  177.8520  140.1710 C   0  0  0  0  0  0  0  0  0  0  0  0
  186.8930  178.3800  142.3860 C   0  0  0  0  0  2  0  0  0  0  0  0
  189.0180  177.1490  140.9070 N   0  0  0  0  0  2  0  0  0  0  0  0
  187.0040  178.7190  140.8990 C   0  0  2  0  0  3  0  0  0  0  0  0
  188.9230  176.9360  142.3460 C   0  0  0  0  0  2  0  0  0  0  0  0
  188.2230  178.0490  138.5600 S   0  0  0  0  0  0  0  0  0  0  0  0
  188.2640  178.1520  143.0130 C   0  0  2  0  0  3  0  0  0  0  0  0
  188.8930  178.1700  147.1750 O   0  0  0  0  0  0  0  0  0  0  0  0
  186.7220  177.5800  146.3590 C   0  0  0  0  0  2  0  0  0  0  0  0
  189.2610  177.0000  146.4860 C   0  0  1  0  0  3  0  0  0  0  0  0
  187.9380  177.1280  147.1810 C   0  0  1  0  0  3  0  0  0  0  0  0
  189.2730  177.2270  144.9610 C   0  0  0  0  0  2  0  0  0  0  0  0
  188.1570  178.0370  144.4760 N   0  0  2  0  0  0  0  0  0  0  0  0
  186.9160  177.3800  144.8690 C   0  0  0  0  0  2  0  0  0  0  0  0
  187.5450  173.0640  136.8970 C   0  0  0  0  0  0  0  0  0  0  0  0
  188.7690  172.9650  136.4520 C   0  0  0  0  0  3  0  0  0  0  0  0
  186.3160  173.1870  137.3380 C   0  0  0  0  0  3  0  0  0  0  0  0
  189.9220  174.9670  137.4060 C   0  0  0  0  0  1  0  0  0  0  0  0
  189.5660  174.1930  136.1430 C   0  0  1  0  0  3  0  0  0  0  0  0
  190.8180  173.8660  135.3290 C   0  0  0  0  0  2  0  0  0  0  0  0
  192.0160  173.5140  136.2050 C   0  0  2  0  0  3  0  0  0  0  0  0
  194.5610  174.2690  135.1450 O   0  0  0  0  0  0  0  0  0  0  0  0
  193.2730  174.8230  136.0970 P   0  0  1  0  0  0  0  0  0  0  0  0
  192.6620  176.0480  135.4520 O   0  0  0  0  0  1  0  0  0  0  0  0
  193.1910  176.3970  137.9980 C   0  0  0  0  0  1  0  0  0  0  0  0
  193.8290  175.2020  137.6560 O   0  0  0  0  0  0  0  0  0  0  0  0
  192.5890  172.1960  135.7960 C   0  0  0  0  0  0  0  0  0  0  0  0
  192.0820  171.5140  134.6950 O   0  0  0  0  0  0  0  0  0  0  0  0
  193.5460  171.7030  136.4490 O   0  0  0  0  0  1  0  0  0  0  0  0
  1 13  2  0  0  0  0
  2 17  2  0  0  0  0
  3  2  2  0  0  0  0
  3 40  1  0  0  0  0
  4  7  1  6  0  0  0
  5 16  1  1  0  0  0
  5  8  1  0  0  0  0
  5 14  1  0  0  0  0
  6 15  1  6  0  0  0
  8  4  1  0  0  0  0
  8  6  1  0  0  0  0
  9  6  1  0  0  0  0
 10 17  1  0  0  0  0
 11  1  1  0  0  0  0
 11  3  1  0  0  0  0
 12 10  1  0  0  0  0
 12 14  1  0  0  0  0
 13 15  2  0  0  0  0
 14  9  1  0  0  0  0
 15 22  1  0  0  0  0
 16  4  1  0  0  0  0
 17  9  1  0  0  0  0
 18 23  2  0  0  0  0
 19 22  1  0  0  0  0
 19 20  2  0  0  0  0
 20 23  1  0  0  0  0
 21 19  1  0  0  0  0
 22 18  1  0  0  0  0
 23 27  1  0  0  0  0
 24 27  1  0  0  0  0
 24 26  1  0  0  0  0
 25 30  1  0  0  0  0
 26 28  1  0  0  0  0
 27 25  1  0  0  0  0
 28 30  1  0  0  0  0
 29 24  2  0  0  0  0
 30 36  1  0  0  0  0
 31 34  1  0  0  0  0
 32 34  1  0  0  0  0
 33 31  1  0  0  0  0
 33 34  1  0  0  0  0
 35 33  1  0  0  0  0
 36 37  1  0  0  0  0
 36 35  1  0  0  0  0
 37 32  1  0  0  0  0
 38 40  2  0  0  0  0
 39 38  2  0  0  0  0
 42 39  1  0  0  0  0
 42 41  1  0  0  0  0
 43 42  1  0  0  0  0
 43 44  1  0  0  0  0
 45 46  2  0  0  0  0
 46 44  1  0  0  0  0
 46 49  1  0  0  0  0
 47 46  1  0  0  0  0
 49 48  1  0  0  0  0
 50 44  1  0  0  0  0
 50 52  1  0  0  0  0
 51 50  2  0  0  0  0
M  END
>  <MODEL>
6

>  <REMARK>
 VINA RESULT:      -6.3      3.824      7.771
  Name = 
  10 active torsions:
  status: ('A' for Active; 'I' for Inactive)
    1  A    between atoms: C_8  and  C_33
    2  A    between atoms: C_9  and  C_35
    3  A    between atoms: P_23  and  C_35
    4  A    between atoms: P_23  and  O_49
    5  A    between atoms: C_25  and  C_30
    6  A    between atoms: C_25  and  C_45
    7  A    between atoms: C_28  and  C_43
    8  A    between atoms: C_35  and  C_45
    9  A    between atoms: C_36  and  C_44
   10  A    between atoms: C_46  and  N_48
                            x       y       z     vdW  Elec       q    Type
                         _______ _______ _______ _____ _____    ______ ____

>  <TORSDO>
F 10

$$$$
=
 OpenBabel10222420163D

 52 59  0  0  1  0  0  0  0  0999 V2000
  187.9350  177.9620  137.3720 C   0  0  0  0  0  3  0  0  0  0  0  0
  189.6450  177.6260  139.8940 C   0  0  0  0  0  0  0  0  0  0  0  0
  188.5880  178.3900  139.7280 C   0  0  0  0  0  0  0  0  0  0  0  0
  192.4250  175.4760  135.8740 C   0  0  2  0  0  3  0  0  0  0  0  0
  192.9340  176.7400  137.5400 C   0  0  1  0  0  3  0  0  0  0  0  0
  190.7540  175.7390  137.6790 C   0  0  1  0  0  3  0  0  0  0  0  0
  192.6120  175.9970  134.5940 O   0  0  0  0  0  1  0  0  0  0  0  0
  191.6660  176.4810  136.7230 C   0  0  2  0  0  3  0  0  0  0  0  0
  191.2310  176.0220  139.0310 N   0  0  0  0  0  0  0  0  0  0  0  0
  191.8110  177.4310  140.8770 C   0  0  0  0  0  2  0  0  0  0  0  0
  188.3400  178.9970  138.3790 C   0  0  0  0  0  2  0  0  0  0  0  0
  193.0390  177.2500  139.9980 C   0  0  0  0  0  2  0  0  0  0  0  0
  188.6000  176.8420  137.3130 C   0  0  0  0  0  0  0  0  0  0  0  0
  192.6650  176.2040  138.9500 C   0  0  2  0  0  3  0  0  0  0  0  0
  189.2810  175.7290  137.3950 C   0  0  0  0  0  0  0  0  0  0  0  0
  193.6760  175.7130  136.7030 C   0  0  0  0  0  2  0  0  0  0  0  0
  190.7140  176.8920  140.0470 C   0  0  0  0  0  0  0  0  0  0  0  0
  187.2720  174.3950  137.7680 N   0  0  0  0  0  0  0  0  0  0  0  0
  188.3290  174.1260  135.7560 C   0  0  0  0  0  0  0  0  0  0  0  0
  187.0680  173.9800  135.5330 N   0  0  0  0  0  0  0  0  0  0  0  0
  189.3610  173.9720  134.6930 C   0  0  0  0  0  1  0  0  0  0  0  0
  188.6130  174.3970  137.1970 C   0  0  1  0  0  3  0  0  0  0  0  0
  186.4490  174.1480  136.8030 C   0  0  0  0  0  0  0  0  0  0  0  0
  184.2400  173.6190  135.7760 C   0  0  0  0  0  0  0  0  0  0  0  0
  184.5100  175.5260  137.4250 C   0  0  0  0  0  2  0  0  0  0  0  0
  182.9900  174.2020  135.3870 N   0  0  0  0  0  2  0  0  0  0  0  0
  184.9670  174.1290  137.0020 C   0  0  2  0  0  3  0  0  0  0  0  0
  182.5440  175.4930  135.8960 C   0  0  0  0  0  2  0  0  0  0  0  0
  184.6380  172.1560  135.1560 S   0  0  0  0  0  0  0  0  0  0  0  0
  182.9930  175.6650  137.3540 C   0  0  2  0  0  3  0  0  0  0  0  0
  182.2230  179.6890  138.3180 O   0  0  0  0  0  0  0  0  0  0  0  0
  181.2280  177.9880  139.6750 C   0  0  0  0  0  2  0  0  0  0  0  0
  183.4110  179.1340  138.8270 C   0  0  1  0  0  3  0  0  0  0  0  0
  182.1560  179.2100  139.6460 C   0  0  1  0  0  3  0  0  0  0  0  0
  183.7280  177.7800  138.1620 C   0  0  0  0  0  2  0  0  0  0  0  0
  182.5550  176.9310  137.9610 N   0  0  2  0  0  0  0  0  0  0  0  0
  181.9300  176.7100  139.2610 C   0  0  0  0  0  2  0  0  0  0  0  0
  187.4970  177.8260  141.8430 C   0  0  0  0  0  0  0  0  0  0  0  0
  187.4010  177.0230  142.8690 C   0  0  0  0  0  3  0  0  0  0  0  0
  187.6150  178.6250  140.8110 C   0  0  0  0  0  3  0  0  0  0  0  0
  189.5670  175.8380  142.4770 C   0  0  0  0  0  1  0  0  0  0  0  0
  188.6310  176.4580  143.5080 C   0  0  1  0  0  3  0  0  0  0  0  0
  189.3600  177.5000  144.3550 C   0  0  0  0  0  2  0  0  0  0  0  0
  189.8290  176.9460  145.6970 C   0  0  2  0  0  3  0  0  0  0  0  0
  188.2550  176.3440  148.0050 O   0  0  0  0  0  1  0  0  0  0  0  0
  188.8080  177.6230  147.0400 P   0  0  1  0  0  0  0  0  0  0  0  0
  189.6480  178.5590  147.8810 O   0  0  0  0  0  0  0  0  0  0  0  0
  186.4090  178.1770  147.2220 C   0  0  0  0  0  1  0  0  0  0  0  0
  187.4880  178.4600  146.3800 O   0  0  0  0  0  0  0  0  0  0  0  0
  191.2710  177.2670  145.9160 C   0  0  0  0  0  0  0  0  0  0  0  0
  191.9300  178.1720  145.0900 O   0  0  0  0  0  0  0  0  0  0  0  0
  191.8950  176.7190  146.8630 O   0  0  0  0  0  1  0  0  0  0  0  0
  1 11  1  0  0  0  0
  2 17  2  0  0  0  0
  3  2  2  0  0  0  0
  3 40  1  0  0  0  0
  4  7  1  6  0  0  0
  4 16  1  0  0  0  0
  4  8  1  0  0  0  0
  5 16  1  6  0  0  0
  5 14  1  0  0  0  0
  6 15  1  1  0  0  0
  6  9  1  0  0  0  0
  8  5  1  0  0  0  0
  8  6  1  0  0  0  0
  9 17  1  0  0  0  0
 11  3  1  0  0  0  0
 12 10  1  0  0  0  0
 13  1  2  0  0  0  0
 13 15  2  0  0  0  0
 14  9  1  0  0  0  0
 14 12  1  0  0  0  0
 17 10  1  0  0  0  0
 19 22  1  0  0  0  0
 20 19  2  0  0  0  0
 20 23  1  0  0  0  0
 21 19  1  0  0  0  0
 22 15  1  0  0  0  0
 22 18  1  0  0  0  0
 23 27  1  0  0  0  0
 23 18  2  0  0  0  0
 24 27  1  0  0  0  0
 26 24  1  0  0  0  0
 26 28  1  0  0  0  0
 27 25  1  0  0  0  0
 28 30  1  0  0  0  0
 29 24  2  0  0  0  0
 30 25  1  0  0  0  0
 30 36  1  0  0  0  0
 31 33  1  0  0  0  0
 31 34  1  0  0  0  0
 33 34  1  0  0  0  0
 34 32  1  0  0  0  0
 35 33  1  0  0  0  0
 36 35  1  0  0  0  0
 36 37  1  0  0  0  0
 37 32  1  0  0  0  0
 38 39  2  0  0  0  0
 39 42  1  0  0  0  0
 40 38  2  0  0  0  0
 41 42  1  0  0  0  0
 42 43  1  0  0  0  0
 43 44  1  0  0  0  0
 44 50  1  0  0  0  0
 44 46  1  0  0  0  0
 46 47  2  0  0  0  0
 46 45  1  0  0  0  0
 49 46  1  0  0  0  0
 49 48  1  0  0  0  0
 50 52  1  0  0  0  0
 51 50  2  0  0  0  0
M  END
>  <MODEL>
7

>  <REMARK>
 VINA RESULT:      -6.3      3.432      6.663
  Name = 
  10 active torsions:
  status: ('A' for Active; 'I' for Inactive)
    1  A    between atoms: C_8  and  C_33
    2  A    between atoms: C_9  and  C_35
    3  A    between atoms: P_23  and  C_35
    4  A    between atoms: P_23  and  O_49
    5  A    between atoms: C_25  and  C_30
    6  A    between atoms: C_25  and  C_45
    7  A    between atoms: C_28  and  C_43
    8  A    between atoms: C_35  and  C_45
    9  A    between atoms: C_36  and  C_44
   10  A    between atoms: C_46  and  N_48
                            x       y       z     vdW  Elec       q    Type
                         _______ _______ _______ _____ _____    ______ ____

>  <TORSDO>
F 10

$$$$
=
 OpenBabel10222420163D

 52 59  0  0  1  0  0  0  0  0999 V2000
  186.7690  179.3460  141.5810 C   0  0  0  0  0  3  0  0  0  0  0  0
  185.8090  177.9620  144.1420 C   0  0  0  0  0  0  0  0  0  0  0  0
  185.0900  178.6160  143.2570 C   0  0  0  0  0  0  0  0  0  0  0  0
  191.1260  178.3040  144.5000 C   0  0  2  0  0  3  0  0  0  0  0  0
  189.5070  178.6260  145.8820 C   0  0  1  0  0  3  0  0  0  0  0  0
  188.8750  177.5060  143.8520 C   0  0  1  0  0  3  0  0  0  0  0  0
  191.9310  179.3990  144.1900 O   0  0  0  0  0  1  0  0  0  0  0  0
  189.6650  178.6950  144.3600 C   0  0  2  0  0  3  0  0  0  0  0  0
  187.9420  177.1280  144.9100 N   0  0  0  0  0  0  0  0  0  0  0  0
  186.1520  177.4930  146.4570 C   0  0  0  0  0  2  0  0  0  0  0  0
  185.7080  179.7840  142.5450 C   0  0  0  0  0  2  0  0  0  0  0  0
  187.4620  177.8720  147.1300 C   0  0  0  0  0  2  0  0  0  0  0  0
  187.6450  178.4600  141.9630 C   0  0  0  0  0  0  0  0  0  0  0  0
  188.5730  177.4470  146.1730 C   0  0  2  0  0  3  0  0  0  0  0  0
  188.4200  177.5110  142.4220 C   0  0  0  0  0  0  0  0  0  0  0  0
  190.9620  178.2080  146.0070 C   0  0  0  0  0  2  0  0  0  0  0  0
  186.5290  177.3400  145.0360 C   0  0  0  0  0  0  0  0  0  0  0  0
  189.1310  176.8790  140.1760 N   0  0  0  0  0  0  0  0  0  0  0  0
  190.2450  175.9050  141.9220 C   0  0  0  0  0  0  0  0  0  0  0  0
  191.1050  176.0570  140.9740 N   0  0  0  0  0  0  0  0  0  0  0  0
  190.5780  175.2520  143.2190 C   0  0  0  0  0  1  0  0  0  0  0  0
  188.8910  176.3970  141.5300 C   0  0  1  0  0  3  0  0  0  0  0  0
  190.3760  176.6570  139.9100 C   0  0  0  0  0  0  0  0  0  0  0  0
  190.0940  176.8260  137.4390 C   0  0  0  0  0  0  0  0  0  0  0  0
  192.3620  176.3860  138.4850 C   0  0  0  0  0  2  0  0  0  0  0  0
  190.6410  176.3810  136.1920 N   0  0  0  0  0  2  0  0  0  0  0  0
  191.0050  177.0800  138.6210 C   0  0  2  0  0  3  0  0  0  0  0  0
  191.9820  175.8180  136.0890 C   0  0  0  0  0  2  0  0  0  0  0  0
  188.5820  177.4570  137.4390 S   0  0  0  0  0  0  0  0  0  0  0  0
  192.9230  176.5250  137.0750 C   0  0  2  0  0  3  0  0  0  0  0  0
  197.0470  176.0000  136.4180 O   0  0  0  0  0  0  0  0  0  0  0  0
  195.8910  174.3640  137.7260 C   0  0  0  0  0  2  0  0  0  0  0  0
  196.1830  175.5300  135.4120 C   0  0  1  0  0  3  0  0  0  0  0  0
  196.7360  174.6220  136.4710 C   0  0  1  0  0  3  0  0  0  0  0  0
  194.7460  176.0480  135.6200 C   0  0  0  0  0  2  0  0  0  0  0  0
  194.3110  176.0420  137.0150 N   0  0  2  0  0  0  0  0  0  0  0  0
  194.4230  174.6770  137.5170 C   0  0  0  0  0  2  0  0  0  0  0  0
  183.1070  178.6280  141.8260 C   0  0  0  0  0  0  0  0  0  0  0  0
  182.5180  179.0510  140.7390 C   0  0  0  0  0  3  0  0  0  0  0  0
  183.7180  178.2070  142.9060 C   0  0  0  0  0  3  0  0  0  0  0  0
  183.4840  177.7920  138.8070 C   0  0  0  0  0  1  0  0  0  0  0  0
  183.2800  179.1560  139.4550 C   0  0  1  0  0  3  0  0  0  0  0  0
  182.6190  180.1330  138.4820 C   0  0  0  0  0  2  0  0  0  0  0  0
  181.1000  180.1700  138.6240 C   0  0  2  0  0  3  0  0  0  0  0  0
  178.9510  180.1750  136.7410 O   0  0  0  0  0  1  0  0  0  0  0  0
  180.3230  179.3060  137.2270 P   0  0  1  0  0  0  0  0  0  0  0  0
  181.3040  179.2340  136.0780 O   0  0  0  0  0  0  0  0  0  0  0  0
  179.5220  177.8540  139.0570 C   0  0  0  0  0  1  0  0  0  0  0  0
  179.8740  177.7420  137.7090 O   0  0  0  0  0  0  0  0  0  0  0  0
  180.6210  181.5820  138.7060 C   0  0  0  0  0  0  0  0  0  0  0  0
  181.1140  182.5500  137.8370 O   0  0  0  0  0  0  0  0  0  0  0  0
  179.7560  181.8980  139.5660 O   0  0  0  0  0  1  0  0  0  0  0  0
  1 13  2  0  0  0  0
  1 11  1  0  0  0  0
  2 17  2  0  0  0  0
  3  2  2  0  0  0  0
  4  7  1  1  0  0  0
  4 16  1  0  0  0  0
  5 16  1  1  0  0  0
  5 14  1  0  0  0  0
  6 15  1  6  0  0  0
  6  8  1  0  0  0  0
  6  9  1  0  0  0  0
  8  4  1  0  0  0  0
  8  5  1  0  0  0  0
  9 17  1  0  0  0  0
  9 14  1  0  0  0  0
 10 12  1  0  0  0  0
 11  3  1  0  0  0  0
 13 15  2  0  0  0  0
 14 12  1  0  0  0  0
 17 10  1  0  0  0  0
 18 22  1  0  0  0  0
 19 21  1  0  0  0  0
 20 19  2  0  0  0  0
 22 19  1  0  0  0  0
 22 15  1  0  0  0  0
 23 18  2  0  0  0  0
 23 20  1  0  0  0  0
 24 29  2  0  0  0  0
 24 27  1  0  0  0  0
 25 27  1  0  0  0  0
 26 24  1  0  0  0  0
 27 23  1  0  0  0  0
 28 26  1  0  0  0  0
 28 30  1  0  0  0  0
 30 25  1  0  0  0  0
 31 34  1  0  0  0  0
 33 35  1  0  0  0  0
 33 31  1  0  0  0  0
 33 34  1  0  0  0  0
 34 32  1  0  0  0  0
 35 36  1  0  0  0  0
 36 30  1  0  0  0  0
 36 37  1  0  0  0  0
 37 32  1  0  0  0  0
 38 40  2  0  0  0  0
 39 38  2  0  0  0  0
 40  3  1  0  0  0  0
 41 42  1  0  0  0  0
 42 39  1  0  0  0  0
 43 44  1  0  0  0  0
 43 42  1  0  0  0  0
 44 50  1  0  0  0  0
 45 46  1  0  0  0  0
 46 49  1  0  0  0  0
 46 44  1  0  0  0  0
 47 46  2  0  0  0  0
 49 48  1  0  0  0  0
 50 52  1  0  0  0  0
 51 50  2  0  0  0  0
M  END
>  <MODEL>
8

>  <REMARK>
 VINA RESULT:      -6.2      4.624     11.310
  Name = 
  10 active torsions:
  status: ('A' for Active; 'I' for Inactive)
    1  A    between atoms: C_8  and  C_33
    2  A    between atoms: C_9  and  C_35
    3  A    between atoms: P_23  and  C_35
    4  A    between atoms: P_23  and  O_49
    5  A    between atoms: C_25  and  C_30
    6  A    between atoms: C_25  and  C_45
    7  A    between atoms: C_28  and  C_43
    8  A    between atoms: C_35  and  C_45
    9  A    between atoms: C_36  and  C_44
   10  A    between atoms: C_46  and  N_48
                            x       y       z     vdW  Elec       q    Type
                         _______ _______ _______ _____ _____    ______ ____

>  <TORSDO>
F 10

$$$$
=
 OpenBabel10222420163D

 52 59  0  0  1  0  0  0  0  0999 V2000
  187.1470  177.8980  137.2400 C   0  0  0  0  0  3  0  0  0  0  0  0
  188.8190  177.6350  139.7960 C   0  0  0  0  0  0  0  0  0  0  0  0
  187.7740  178.4050  139.5870 C   0  0  0  0  0  0  0  0  0  0  0  0
  191.6240  175.3020  135.8960 C   0  0  2  0  0  3  0  0  0  0  0  0
  192.1270  176.6210  137.5210 C   0  0  1  0  0  3  0  0  0  0  0  0
  189.9320  175.6530  137.6680 C   0  0  1  0  0  3  0  0  0  0  0  0
  191.8340  175.7720  134.6010 O   0  0  0  0  0  1  0  0  0  0  0  0
  190.8670  176.3470  136.6970 C   0  0  2  0  0  3  0  0  0  0  0  0
  190.3950  175.9800  139.0140 N   0  0  0  0  0  0  0  0  0  0  0  0
  190.9700  177.4490  140.8140 C   0  0  0  0  0  2  0  0  0  0  0  0
  187.5520  178.9650  138.2130 C   0  0  0  0  0  2  0  0  0  0  0  0
  192.2070  177.2200  139.9590 C   0  0  0  0  0  2  0  0  0  0  0  0
  187.7980  176.7680  137.2320 C   0  0  0  0  0  0  0  0  0  0  0  0
  191.8320  176.1410  138.9460 C   0  0  2  0  0  3  0  0  0  0  0  0
  188.4630  175.6500  137.3640 C   0  0  0  0  0  0  0  0  0  0  0  0
  192.8670  175.5540  136.7330 C   0  0  0  0  0  2  0  0  0  0  0  0
  189.8770  176.8930  139.9900 C   0  0  0  0  0  0  0  0  0  0  0  0
  186.5380  174.2780  137.9660 N   0  0  0  0  0  0  0  0  0  0  0  0
  187.2910  174.1080  135.8110 C   0  0  0  0  0  0  0  0  0  0  0  0
  186.0120  173.9570  135.7670 N   0  0  0  0  0  0  0  0  0  0  0  0
  188.1580  174.0120  134.6040 C   0  0  0  0  0  1  0  0  0  0  0  0
  187.7810  174.3210  137.2060 C   0  0  1  0  0  3  0  0  0  0  0  0
  185.5840  174.0630  137.1200 C   0  0  0  0  0  0  0  0  0  0  0  0
  183.2860  173.3230  136.4980 C   0  0  0  0  0  0  0  0  0  0  0  0
  183.6780  175.4420  137.8360 C   0  0  0  0  0  2  0  0  0  0  0  0
  181.9650  173.8050  136.2230 N   0  0  0  0  0  2  0  0  0  0  0  0
  184.1470  174.0180  137.5320 C   0  0  2  0  0  3  0  0  0  0  0  0
  181.5240  175.1350  136.6230 C   0  0  0  0  0  2  0  0  0  0  0  0
  183.6730  171.8060  136.0180 S   0  0  0  0  0  0  0  0  0  0  0  0
  182.1610  175.5160  137.9660 C   0  0  2  0  0  3  0  0  0  0  0  0
  180.5640  178.7530  140.1310 O   0  0  0  0  0  0  0  0  0  0  0  0
  181.8860  179.2270  138.1930 C   0  0  0  0  0  2  0  0  0  0  0  0
  179.7220  178.1560  139.1760 C   0  0  1  0  0  3  0  0  0  0  0  0
  180.5170  179.3900  138.8700 C   0  0  1  0  0  3  0  0  0  0  0  0
  180.2970  176.8140  138.6810 C   0  0  0  0  0  2  0  0  0  0  0  0
  181.7430  176.8350  138.4650 N   0  0  2  0  0  0  0  0  0  0  0  0
  182.0410  177.8880  137.5010 C   0  0  0  0  0  2  0  0  0  0  0  0
  186.7860  178.0660  141.7980 C   0  0  0  0  0  0  0  0  0  0  0  0
  186.8030  177.4380  142.9430 C   0  0  0  0  0  3  0  0  0  0  0  0
  186.7900  178.6920  140.6470 C   0  0  0  0  0  3  0  0  0  0  0  0
  189.0670  178.3180  143.5350 C   0  0  0  0  0  1  0  0  0  0  0  0
  188.1020  177.1430  143.6270 C   0  0  1  0  0  3  0  0  0  0  0  0
  187.8940  176.7170  145.0800 C   0  0  0  0  0  2  0  0  0  0  0  0
  187.9870  177.8850  146.0570 C   0  0  2  0  0  3  0  0  0  0  0  0
  189.5870  178.6940  148.2820 O   0  0  0  0  0  0  0  0  0  0  0  0
  188.8160  177.3550  147.5850 P   0  0  1  0  0  0  0  0  0  0  0  0
  187.7840  176.8130  148.5490 O   0  0  0  0  0  1  0  0  0  0  0  0
  191.2050  176.7750  147.3580 C   0  0  0  0  0  1  0  0  0  0  0  0
  189.9600  176.1560  147.2200 O   0  0  0  0  0  0  0  0  0  0  0  0
  186.6260  178.4240  146.3530 C   0  0  0  0  0  0  0  0  0  0  0  0
  186.3880  179.1510  147.5150 O   0  0  0  0  0  1  0  0  0  0  0  0
  185.6860  178.2250  145.5380 O   0  0  0  0  0  0  0  0  0  0  0  0
  1 11  1  0  0  0  0
  2 17  2  0  0  0  0
  3  2  2  0  0  0  0
  3 40  1  0  0  0  0
  4  7  1  6  0  0  0
  4  8  1  0  0  0  0
  4 16  1  0  0  0  0
  5 16  1  6  0  0  0
  5 14  1  0  0  0  0
  6 15  1  1  0  0  0
  6  9  1  0  0  0  0
  8  5  1  0  0  0  0
  8  6  1  0  0  0  0
  9 17  1  0  0  0  0
 11  3  1  0  0  0  0
 12 10  1  0  0  0  0
 13  1  2  0  0  0  0
 13 15  2  0  0  0  0
 14  9  1  0  0  0  0
 14 12  1  0  0  0  0
 17 10  1  0  0  0  0
 19 22  1  0  0  0  0
 20 19  2  0  0  0  0
 20 23  1  0  0  0  0
 21 19  1  0  0  0  0
 22 15  1  0  0  0  0
 22 18  1  0  0  0  0
 23 27  1  0  0  0  0
 23 18  2  0  0  0  0
 24 27  1  0  0  0  0
 25 30  1  0  0  0  0
 26 24  1  0  0  0  0
 26 28  1  0  0  0  0
 27 25  1  0  0  0  0
 28 30  1  0  0  0  0
 29 24  2  0  0  0  0
 30 36  1  0  0  0  0
 32 34  1  0  0  0  0
 33 31  1  0  0  0  0
 34 33  1  0  0  0  0
 34 31  1  0  0  0  0
 35 33  1  0  0  0  0
 36 35  1  0  0  0  0
 37 32  1  0  0  0  0
 37 36  1  0  0  0  0
 38 39  2  0  0  0  0
 39 42  1  0  0  0  0
 40 38  2  0  0  0  0
 41 42  1  0  0  0  0
 42 43  1  0  0  0  0
 43 44  1  0  0  0  0
 44 50  1  0  0  0  0
 44 46  1  0  0  0  0
 46 45  2  0  0  0  0
 46 47  1  0  0  0  0
 49 48  1  0  0  0  0
 49 46  1  0  0  0  0
 50 51  1  0  0  0  0
 52 50  2  0  0  0  0
M  END
>  <MODEL>
9

>  <REMARK>
 VINA RESULT:      -5.9      3.340      6.421
  Name = 
  10 active torsions:
  status: ('A' for Active; 'I' for Inactive)
    1  A    between atoms: C_8  and  C_33
    2  A    between atoms: C_9  and  C_35
    3  A    between atoms: P_23  and  C_35
    4  A    between atoms: P_23  and  O_49
    5  A    between atoms: C_25  and  C_30
    6  A    between atoms: C_25  and  C_45
    7  A    between atoms: C_28  and  C_43
    8  A    between atoms: C_35  and  C_45
    9  A    between atoms: C_36  and  C_44
   10  A    between atoms: C_46  and  N_48
                            x       y       z     vdW  Elec       q    Type
                         _______ _______ _______ _____ _____    ______ ____

>  <TORSDO>
F 10

$$$$
