=
 OpenBabel10222419363D

 39 42  0  0  1  0  0  0  0  0999 V2000
  184.8230  178.2170  141.2580 C   0  0  0  0  0  3  0  0  0  0  0  0
  183.0250  178.7880  143.0610 C   0  0  0  0  0  0  0  0  0  0  0  0
  183.9240  178.5000  142.1600 C   0  0  0  0  0  0  0  0  0  0  0  0
  188.9930  177.1480  139.4730 C   0  0  0  0  0  1  0  0  0  0  0  0
  188.1630  177.6060  141.8540 C   0  0  0  0  0  3  0  0  0  0  0  0
  186.6150  178.7760  138.8870 O   0  0  0  0  0  0  0  0  0  0  0  0
  186.1410  178.9180  141.2540 C   0  0  1  0  0  3  0  0  0  0  0  0
  187.0020  178.4320  142.4320 C   0  0  0  0  0  3  0  0  0  0  0  0
  186.9280  178.5010  140.0760 C   0  0  0  0  0  0  0  0  0  0  0  0
  188.0810  177.7670  140.4180 N   0  0  0  0  0  0  0  0  0  0  0  0
  179.6130  180.0950  142.5230 C   0  0  0  0  0  2  0  0  0  0  0  0
  181.6350  179.0540  142.6530 C   0  0  0  0  0  0  0  0  0  0  0  0
  180.9860  178.2940  141.8420 N   0  0  0  0  0  0  0  0  0  0  0  0
  180.9050  180.1390  143.0970 O   0  0  0  0  0  0  0  0  0  0  0  0
  179.6480  178.8360  141.6450 C   0  0  2  0  0  3  0  0  0  0  0  0
  179.4600  179.2020  140.1790 C   0  0  0  0  0  2  0  0  0  0  0  0
  182.7760  177.9110  137.7710 C   0  0  0  0  0  0  0  0  0  0  0  0
  180.6510  177.4470  138.8450 C   0  0  0  0  0  3  0  0  0  0  0  0
  180.6190  178.7490  139.3570 C   0  0  0  0  0  0  0  0  0  0  0  0
  181.6600  179.6370  139.0680 C   0  0  0  0  0  3  0  0  0  0  0  0
  182.7360  179.2210  138.2810 C   0  0  0  0  0  3  0  0  0  0  0  0
  181.7280  177.0300  138.0580 C   0  0  0  0  0  3  0  0  0  0  0  0
  183.8410  177.4630  136.9840 O   0  0  0  0  0  0  0  0  0  0  0  0
  184.5230  176.2440  137.2400 C   0  0  0  0  0  1  0  0  0  0  0  0
  183.4070  178.7430  144.5040 C   0  0  0  0  0  2  0  0  0  0  0  0
  184.6410  179.5980  144.7480 C   0  0  0  0  0  2  0  0  0  0  0  0
  185.3470  179.1660  146.0200 C   0  0  0  0  0  2  0  0  0  0  0  0
  187.5310  178.1290  146.4080 C   0  0  1  0  0  3  0  0  0  0  0  0
  186.2100  177.9440  145.7670 C   0  0  1  0  0  3  0  0  0  0  0  0
  186.5250  177.3430  147.0000 O   0  0  0  0  0  0  0  0  0  0  0  0
  188.5460  177.2130  145.7520 C   0  0  0  0  0  2  0  0  0  0  0  0
  189.7700  177.0340  146.6460 C   0  0  0  0  0  2  0  0  0  0  0  0
  191.0940  177.0100  145.8740 C   0  0  1  0  0  3  0  0  0  0  0  0
  192.0640  175.9690  146.4200 C   0  0  0  0  0  2  0  0  0  0  0  0
  192.4290  176.3000  147.7260 O   0  0  0  0  0  1  0  0  0  0  0  0
  190.8550  176.7870  144.4520 N   0  0  0  0  0  2  0  0  0  0  0  0
  191.1330  179.1220  143.8670 C   0  0  0  0  0  1  0  0  0  0  0  0
  191.6870  177.3750  142.3560 O   0  0  0  0  0  1  0  0  0  0  0  0
  191.6870  177.7210  143.7090 C   0  0  2  0  0  3  0  0  0  0  0  0
  1  3  2  0  0  0  0
  2 25  1  0  0  0  0
  3  2  2  0  0  0  0
  4 10  1  0  0  0  0
  5  8  2  0  0  0  0
  6  9  2  0  0  0  0
  7  1  1  6  0  0  0
  7  8  1  0  0  0  0
  9 10  1  0  0  0  0
  9  7  1  0  0  0  0
 10  5  1  0  0  0  0
 11 14  1  0  0  0  0
 12  2  1  0  0  0  0
 12 14  1  0  0  0  0
 13 12  2  0  0  0  0
 15 16  1  6  0  0  0
 15 13  1  0  0  0  0
 15 11  1  0  0  0  0
 17 22  2  0  0  0  0
 17 21  1  0  0  0  0
 18 19  2  0  0  0  0
 19 16  1  0  0  0  0
 20 19  1  0  0  0  0
 21 20  2  0  0  0  0
 22 18  1  0  0  0  0
 23 24  1  0  0  0  0
 23 17  1  0  0  0  0
 25 26  1  0  0  0  0
 26 27  1  0  0  0  0
 28 31  1  6  0  0  0
 28 30  1  0  0  0  0
 29 27  1  1  0  0  0
 29 28  1  0  0  0  0
 29 30  1  0  0  0  0
 31 32  1  0  0  0  0
 33 34  1  1  0  0  0
 33 32  1  0  0  0  0
 34 35  1  0  0  0  0
 36 33  1  0  0  0  0
 38 39  1  0  0  0  0
 39 37  1  6  0  0  0
 39 36  1  0  0  0  0
M  END
>  <MODEL>
1

>  <REMARK>
 VINA RESULT:      -7.4      0.000      0.000
  Name = 
  15 active torsions:
  status: ('A' for Active; 'I' for Inactive)
    1  A    between atoms: C_1  and  C_24
    2  A    between atoms: C_2  and  C_15
    3  A    between atoms: C_2  and  C_17
    4  A    between atoms: C_4  and  CA_30
    5  A    between atoms: C_4  and  C_32
    6  A    between atoms: C_5  and  O_7
    7  A    between atoms: C_6  and  C_32
    8  A    between atoms: C_8  and  C_21
    9  A    between atoms: C_8  and  C_39
   10  A    between atoms: C_11  and  C_15
   11  A    between atoms: C_11  and  C_35
   12  A    between atoms: C_14  and  CA_30
   13  A    between atoms: C_18  and  C_35
   14  A    between atoms: C_22  and  N_27
   15  A    between atoms: N_27  and  CA_30
                            x       y       z     vdW  Elec       q    Type
                         _______ _______ _______ _____ _____    ______ ____

>  <TORSDO>
F 15

$$$$
=
 OpenBabel10222419363D

 39 42  0  0  1  0  0  0  0  0999 V2000
  188.3270  175.5980  137.1820 C   0  0  0  0  0  3  0  0  0  0  0  0
  188.0330  177.6390  138.7810 C   0  0  0  0  0  0  0  0  0  0  0  0
  188.1810  176.6170  137.9840 C   0  0  0  0  0  0  0  0  0  0  0  0
  192.5330  173.6230  136.8200 C   0  0  0  0  0  1  0  0  0  0  0  0
  191.7220  176.0540  136.7950 C   0  0  0  0  0  3  0  0  0  0  0  0
  189.7500  173.2310  135.9510 O   0  0  0  0  0  0  0  0  0  0  0  0
  189.3730  175.6140  136.1170 C   0  0  1  0  0  3  0  0  0  0  0  0
  190.3970  176.7260  136.3980 C   0  0  0  0  0  3  0  0  0  0  0  0
  190.1890  174.3860  136.1970 C   0  0  0  0  0  0  0  0  0  0  0  0
  191.5250  174.6380  136.5710 N   0  0  0  0  0  0  0  0  0  0  0  0
  184.6000  178.9840  138.5710 C   0  0  0  0  0  2  0  0  0  0  0  0
  186.6930  178.2010  139.0160 C   0  0  0  0  0  0  0  0  0  0  0  0
  186.2600  178.5120  140.1890 N   0  0  0  0  0  0  0  0  0  0  0  0
  185.7790  178.4410  138.0090 O   0  0  0  0  0  0  0  0  0  0  0  0
  184.9040  179.0330  140.0750 C   0  0  2  0  0  3  0  0  0  0  0  0
  183.9480  178.1310  140.8430 C   0  0  0  0  0  2  0  0  0  0  0  0
  184.2420  178.7440  145.0860 C   0  0  0  0  0  0  0  0  0  0  0  0
  182.9400  178.7920  143.0400 C   0  0  0  0  0  3  0  0  0  0  0  0
  184.0540  178.3590  142.3130 C   0  0  0  0  0  0  0  0  0  0  0  0
  185.2610  178.1080  142.9730 C   0  0  0  0  0  3  0  0  0  0  0  0
  185.3580  178.3010  144.3530 C   0  0  0  0  0  3  0  0  0  0  0  0
  183.0360  178.9880  144.4200 C   0  0  0  0  0  3  0  0  0  0  0  0
  184.3070  178.9510  146.4660 O   0  0  0  0  0  0  0  0  0  0  0  0
  185.5350  179.0040  147.1770 C   0  0  0  0  0  1  0  0  0  0  0  0
  189.2230  178.1570  139.5200 C   0  0  0  0  0  2  0  0  0  0  0  0
  189.9050  177.0270  140.2750 C   0  0  0  0  0  2  0  0  0  0  0  0
  190.3860  177.5060  141.6330 C   0  0  0  0  0  2  0  0  0  0  0  0
  188.9690  177.4400  143.6280 C   0  0  1  0  0  3  0  0  0  0  0  0
  189.8310  176.6290  142.7400 C   0  0  1  0  0  3  0  0  0  0  0  0
  188.4280  176.5990  142.6390 O   0  0  0  0  0  0  0  0  0  0  0  0
  188.8430  176.7550  144.9760 C   0  0  0  0  0  2  0  0  0  0  0  0
  188.6530  177.7820  146.0890 C   0  0  0  0  0  2  0  0  0  0  0  0
  189.7300  177.7130  147.1760 C   0  0  1  0  0  3  0  0  0  0  0  0
  189.1960  178.1170  148.5460 C   0  0  0  0  0  2  0  0  0  0  0  0
  187.9280  177.5670  148.7420 O   0  0  0  0  0  1  0  0  0  0  0  0
  190.3180  176.3790  147.2330 N   0  0  0  0  0  2  0  0  0  0  0  0
  192.2410  175.3380  146.1900 C   0  0  0  0  0  1  0  0  0  0  0  0
  192.4170  176.5320  148.2350 O   0  0  0  0  0  1  0  0  0  0  0  0
  191.7490  176.5140  147.0080 C   0  0  2  0  0  3  0  0  0  0  0  0
  1  3  2  0  0  0  0
  2 12  1  0  0  0  0
  2 25  1  0  0  0  0
  3  2  2  0  0  0  0
  6  9  2  0  0  0  0
  7  9  1  0  0  0  0
  7  8  1  0  0  0  0
  7  1  1  1  0  0  0
  8  5  2  0  0  0  0
  9 10  1  0  0  0  0
 10  5  1  0  0  0  0
 10  4  1  0  0  0  0
 11 15  1  0  0  0  0
 12 13  2  0  0  0  0
 14 11  1  0  0  0  0
 14 12  1  0  0  0  0
 15 13  1  0  0  0  0
 15 16  1  1  0  0  0
 16 19  1  0  0  0  0
 17 23  1  0  0  0  0
 18 22  2  0  0  0  0
 19 20  2  0  0  0  0
 19 18  1  0  0  0  0
 20 21  1  0  0  0  0
 21 17  2  0  0  0  0
 22 17  1  0  0  0  0
 23 24  1  0  0  0  0
 25 26  1  0  0  0  0
 26 27  1  0  0  0  0
 28 31  1  1  0  0  0
 29 27  1  6  0  0  0
 29 28  1  0  0  0  0
 30 29  1  0  0  0  0
 30 28  1  0  0  0  0
 31 32  1  0  0  0  0
 33 32  1  6  0  0  0
 33 36  1  0  0  0  0
 33 34  1  0  0  0  0
 34 35  1  0  0  0  0
 39 37  1  6  0  0  0
 39 36  1  0  0  0  0
 39 38  1  0  0  0  0
M  END
>  <MODEL>
2

>  <REMARK>
 VINA RESULT:      -7.3      2.629      5.993
  Name = 
  15 active torsions:
  status: ('A' for Active; 'I' for Inactive)
    1  A    between atoms: C_1  and  C_24
    2  A    between atoms: C_2  and  C_15
    3  A    between atoms: C_2  and  C_17
    4  A    between atoms: C_4  and  CA_30
    5  A    between atoms: C_4  and  C_32
    6  A    between atoms: C_5  and  O_7
    7  A    between atoms: C_6  and  C_32
    8  A    between atoms: C_8  and  C_21
    9  A    between atoms: C_8  and  C_39
   10  A    between atoms: C_11  and  C_15
   11  A    between atoms: C_11  and  C_35
   12  A    between atoms: C_14  and  CA_30
   13  A    between atoms: C_18  and  C_35
   14  A    between atoms: C_22  and  N_27
   15  A    between atoms: N_27  and  CA_30
                            x       y       z     vdW  Elec       q    Type
                         _______ _______ _______ _____ _____    ______ ____

>  <TORSDO>
F 15

$$$$
=
 OpenBabel10222419363D

 39 42  0  0  1  0  0  0  0  0999 V2000
  184.8580  178.9790  141.6760 C   0  0  0  0  0  3  0  0  0  0  0  0
  187.3290  178.1680  141.9010 C   0  0  0  0  0  0  0  0  0  0  0  0
  186.0940  178.5760  141.7890 C   0  0  0  0  0  0  0  0  0  0  0  0
  180.2370  179.5690  141.7930 C   0  0  0  0  0  1  0  0  0  0  0  0
  182.0470  179.4830  143.6060 C   0  0  0  0  0  3  0  0  0  0  0  0
  182.2990  178.0080  140.3910 O   0  0  0  0  0  0  0  0  0  0  0  0
  183.7490  178.2130  142.3160 C   0  0  1  0  0  3  0  0  0  0  0  0
  183.4250  178.8060  143.6970 C   0  0  0  0  0  3  0  0  0  0  0  0
  182.4950  178.4240  141.5640 C   0  0  0  0  0  0  0  0  0  0  0  0
  181.5260  179.1340  142.3010 N   0  0  0  0  0  0  0  0  0  0  0  0
  189.1950  178.6780  138.7550 C   0  0  0  0  0  2  0  0  0  0  0  0
  188.1830  178.0760  140.7060 C   0  0  0  0  0  0  0  0  0  0  0  0
  188.8940  177.0370  140.4320 N   0  0  0  0  0  0  0  0  0  0  0  0
  188.3050  179.0890  139.7760 O   0  0  0  0  0  0  0  0  0  0  0  0
  189.6210  177.2700  139.1910 C   0  0  2  0  0  3  0  0  0  0  0  0
  191.1180  177.2250  139.4650 C   0  0  0  0  0  2  0  0  0  0  0  0
  193.1030  174.4220  136.8830 C   0  0  0  0  0  0  0  0  0  0  0  0
  193.1820  176.3640  138.3340 C   0  0  0  0  0  3  0  0  0  0  0  0
  191.8040  176.2630  138.5560 C   0  0  0  0  0  0  0  0  0  0  0  0
  191.0760  175.2340  137.9500 C   0  0  0  0  0  3  0  0  0  0  0  0
  191.7200  174.3180  137.1150 C   0  0  0  0  0  3  0  0  0  0  0  0
  193.8270  175.4500  137.4980 C   0  0  0  0  0  3  0  0  0  0  0  0
  193.7760  173.5250  136.0500 O   0  0  0  0  0  0  0  0  0  0  0  0
  193.1360  172.8400  134.9830 C   0  0  0  0  0  1  0  0  0  0  0  0
  187.8800  177.8980  143.2630 C   0  0  0  0  0  2  0  0  0  0  0  0
  186.8220  177.2470  144.1390 C   0  0  0  0  0  2  0  0  0  0  0  0
  186.5460  178.0970  145.3660 C   0  0  0  0  0  2  0  0  0  0  0  0
  188.3950  178.2020  146.9680 C   0  0  1  0  0  3  0  0  0  0  0  0
  187.1620  177.4700  146.6030 C   0  0  1  0  0  3  0  0  0  0  0  0
  187.1780  178.4220  147.6380 O   0  0  0  0  0  0  0  0  0  0  0  0
  189.2760  177.3170  147.8280 C   0  0  0  0  0  2  0  0  0  0  0  0
  189.9980  176.2780  146.9730 C   0  0  0  0  0  2  0  0  0  0  0  0
  191.5110  176.5020  146.8870 C   0  0  1  0  0  3  0  0  0  0  0  0
  192.2810  175.6440  147.8850 C   0  0  0  0  0  2  0  0  0  0  0  0
  193.0940  176.4550  148.6790 O   0  0  0  0  0  1  0  0  0  0  0  0
  191.9900  176.2580  145.5310 N   0  0  0  0  0  2  0  0  0  0  0  0
  191.0340  176.1390  143.3080 C   0  0  0  0  0  1  0  0  0  0  0  0
  191.5120  178.2140  144.3590 O   0  0  0  0  0  1  0  0  0  0  0  0
  191.0740  176.9120  144.6100 C   0  0  2  0  0  3  0  0  0  0  0  0
  1  3  2  0  0  0  0
  2 25  1  0  0  0  0
  3  2  2  0  0  0  0
  4 10  1  0  0  0  0
  5  8  2  0  0  0  0
  6  9  2  0  0  0  0
  7  1  1  6  0  0  0
  7  8  1  0  0  0  0
  9 10  1  0  0  0  0
  9  7  1  0  0  0  0
 10  5  1  0  0  0  0
 11 15  1  0  0  0  0
 11 14  1  0  0  0  0
 12  2  1  0  0  0  0
 13 12  2  0  0  0  0
 14 12  1  0  0  0  0
 15 16  1  1  0  0  0
 15 13  1  0  0  0  0
 17 21  2  0  0  0  0
 17 22  1  0  0  0  0
 18 19  1  0  0  0  0
 19 16  1  0  0  0  0
 20 19  2  0  0  0  0
 21 20  1  0  0  0  0
 22 18  2  0  0  0  0
 23 17  1  0  0  0  0
 24 23  1  0  0  0  0
 25 26  1  0  0  0  0
 26 27  1  0  0  0  0
 28 30  1  0  0  0  0
 28 31  1  1  0  0  0
 29 27  1  6  0  0  0
 29 28  1  0  0  0  0
 29 30  1  0  0  0  0
 32 31  1  0  0  0  0
 33 32  1  6  0  0  0
 33 34  1  0  0  0  0
 34 35  1  0  0  0  0
 36 33  1  0  0  0  0
 38 39  1  0  0  0  0
 39 37  1  6  0  0  0
 39 36  1  0  0  0  0
M  END
>  <MODEL>
3

>  <REMARK>
 VINA RESULT:      -7.1      2.777      6.904
  Name = 
  15 active torsions:
  status: ('A' for Active; 'I' for Inactive)
    1  A    between atoms: C_1  and  C_24
    2  A    between atoms: C_2  and  C_15
    3  A    between atoms: C_2  and  C_17
    4  A    between atoms: C_4  and  CA_30
    5  A    between atoms: C_4  and  C_32
    6  A    between atoms: C_5  and  O_7
    7  A    between atoms: C_6  and  C_32
    8  A    between atoms: C_8  and  C_21
    9  A    between atoms: C_8  and  C_39
   10  A    between atoms: C_11  and  C_15
   11  A    between atoms: C_11  and  C_35
   12  A    between atoms: C_14  and  CA_30
   13  A    between atoms: C_18  and  C_35
   14  A    between atoms: C_22  and  N_27
   15  A    between atoms: N_27  and  CA_30
                            x       y       z     vdW  Elec       q    Type
                         _______ _______ _______ _____ _____    ______ ____

>  <TORSDO>
F 15

$$$$
=
 OpenBabel10222419363D

 39 42  0  0  1  0  0  0  0  0999 V2000
  189.2890  178.3950  142.1110 C   0  0  0  0  0  3  0  0  0  0  0  0
  188.0550  178.0990  139.8300 C   0  0  0  0  0  0  0  0  0  0  0  0
  188.6730  178.2490  140.9700 C   0  0  0  0  0  0  0  0  0  0  0  0
  190.1670  177.0180  146.4760 C   0  0  0  0  0  1  0  0  0  0  0  0
  191.6570  177.8060  144.5450 C   0  0  0  0  0  3  0  0  0  0  0  0
  188.4360  176.3700  144.1880 O   0  0  0  0  0  0  0  0  0  0  0  0
  190.0980  177.2790  142.6850 C   0  0  1  0  0  3  0  0  0  0  0  0
  191.5170  177.7700  143.0140 C   0  0  0  0  0  3  0  0  0  0  0  0
  189.5630  176.9020  144.0090 C   0  0  0  0  0  0  0  0  0  0  0  0
  190.4540  177.1910  145.0630 N   0  0  0  0  0  0  0  0  0  0  0  0
  184.5910  178.8020  138.7610 C   0  0  0  0  0  2  0  0  0  0  0  0
  186.6390  178.4810  139.7060 C   0  0  0  0  0  0  0  0  0  0  0  0
  185.9600  178.9800  140.6810 N   0  0  0  0  0  0  0  0  0  0  0  0
  185.9090  178.3380  138.5430 O   0  0  0  0  0  0  0  0  0  0  0  0
  184.6000  179.2410  140.2310 C   0  0  2  0  0  3  0  0  0  0  0  0
  183.6260  178.4000  141.0460 C   0  0  0  0  0  2  0  0  0  0  0  0
  184.4130  178.6860  145.2600 C   0  0  0  0  0  0  0  0  0  0  0  0
  182.9370  179.0410  143.3680 C   0  0  0  0  0  3  0  0  0  0  0  0
  183.9050  178.5150  142.5060 C   0  0  0  0  0  0  0  0  0  0  0  0
  185.1250  178.0630  143.0210 C   0  0  0  0  0  3  0  0  0  0  0  0
  185.3800  178.1500  144.3920 C   0  0  0  0  0  3  0  0  0  0  0  0
  183.1920  179.1300  144.7390 C   0  0  0  0  0  3  0  0  0  0  0  0
  184.6390  178.7910  146.6350 O   0  0  0  0  0  0  0  0  0  0  0  0
  185.9390  178.9320  147.1900 C   0  0  0  0  0  1  0  0  0  0  0  0
  188.8320  177.6320  138.6430 C   0  0  0  0  0  2  0  0  0  0  0  0
  190.0750  176.8790  139.0910 C   0  0  0  0  0  2  0  0  0  0  0  0
  191.1130  176.8550  137.9830 C   0  0  0  0  0  2  0  0  0  0  0  0
  193.1690  175.6720  137.3770 C   0  0  1  0  0  3  0  0  0  0  0  0
  192.4310  176.3020  138.4940 C   0  0  1  0  0  3  0  0  0  0  0  0
  193.4870  176.9620  137.8410 O   0  0  0  0  0  0  0  0  0  0  0  0
  194.1830  174.6880  137.9290 C   0  0  0  0  0  2  0  0  0  0  0  0
  195.4220  174.6310  137.0400 C   0  0  0  0  0  2  0  0  0  0  0  0
  196.3530  173.4580  137.3630 C   0  0  1  0  0  3  0  0  0  0  0  0
  197.7120  173.9220  137.8750 C   0  0  0  0  0  2  0  0  0  0  0  0
  197.7530  175.3170  137.9150 O   0  0  0  0  0  1  0  0  0  0  0  0
  195.7290  172.5560  138.3240 N   0  0  0  0  0  2  0  0  0  0  0  0
  194.6540  171.2180  136.6140 C   0  0  0  0  0  1  0  0  0  0  0  0
  195.3230  170.2910  138.6950 O   0  0  0  0  0  1  0  0  0  0  0  0
  195.6820  171.2310  137.7260 C   0  0  2  0  0  3  0  0  0  0  0  0
  2  3  2  0  0  0  0
  3  1  2  0  0  0  0
  5 10  1  0  0  0  0
  7  1  1  1  0  0  0
  7  8  1  0  0  0  0
  7  9  1  0  0  0  0
  8  5  2  0  0  0  0
  9  6  2  0  0  0  0
  9 10  1  0  0  0  0
 10  4  1  0  0  0  0
 11 15  1  0  0  0  0
 12  2  1  0  0  0  0
 12 13  2  0  0  0  0
 14 11  1  0  0  0  0
 14 12  1  0  0  0  0
 15 13  1  0  0  0  0
 15 16  1  1  0  0  0
 16 19  1  0  0  0  0
 17 23  1  0  0  0  0
 18 22  2  0  0  0  0
 19 20  2  0  0  0  0
 19 18  1  0  0  0  0
 20 21  1  0  0  0  0
 21 17  2  0  0  0  0
 22 17  1  0  0  0  0
 23 24  1  0  0  0  0
 25 26  1  0  0  0  0
 25  2  1  0  0  0  0
 27 26  1  0  0  0  0
 28 30  1  0  0  0  0
 28 31  1  1  0  0  0
 28 29  1  0  0  0  0
 29 27  1  6  0  0  0
 30 29  1  0  0  0  0
 32 31  1  0  0  0  0
 33 32  1  1  0  0  0
 33 34  1  0  0  0  0
 33 36  1  0  0  0  0
 34 35  1  0  0  0  0
 39 37  1  6  0  0  0
 39 36  1  0  0  0  0
 39 38  1  0  0  0  0
M  END
>  <MODEL>
4

>  <REMARK>
 VINA RESULT:      -7.1      4.378      7.933
  Name = 
  15 active torsions:
  status: ('A' for Active; 'I' for Inactive)
    1  A    between atoms: C_1  and  C_24
    2  A    between atoms: C_2  and  C_15
    3  A    between atoms: C_2  and  C_17
    4  A    between atoms: C_4  and  CA_30
    5  A    between atoms: C_4  and  C_32
    6  A    between atoms: C_5  and  O_7
    7  A    between atoms: C_6  and  C_32
    8  A    between atoms: C_8  and  C_21
    9  A    between atoms: C_8  and  C_39
   10  A    between atoms: C_11  and  C_15
   11  A    between atoms: C_11  and  C_35
   12  A    between atoms: C_14  and  CA_30
   13  A    between atoms: C_18  and  C_35
   14  A    between atoms: C_22  and  N_27
   15  A    between atoms: N_27  and  CA_30
                            x       y       z     vdW  Elec       q    Type
                         _______ _______ _______ _____ _____    ______ ____

>  <TORSDO>
F 15

$$$$
=
 OpenBabel10222419363D

 39 42  0  0  1  0  0  0  0  0999 V2000
  184.0150  179.3900  139.6890 C   0  0  0  0  0  3  0  0  0  0  0  0
  185.8200  178.4710  141.3340 C   0  0  0  0  0  0  0  0  0  0  0  0
  184.9170  178.9330  140.5130 C   0  0  0  0  0  0  0  0  0  0  0  0
  179.6830  181.0280  140.2100 C   0  0  0  0  0  1  0  0  0  0  0  0
  181.0430  179.2300  141.4290 C   0  0  0  0  0  3  0  0  0  0  0  0
  181.6150  180.3260  138.1060 O   0  0  0  0  0  0  0  0  0  0  0  0
  182.6670  178.7520  139.6110 C   0  0  1  0  0  3  0  0  0  0  0  0
  182.2060  178.3150  141.0110 C   0  0  0  0  0  3  0  0  0  0  0  0
  181.6570  179.7610  139.2310 C   0  0  0  0  0  0  0  0  0  0  0  0
  180.7290  180.0220  140.2590 N   0  0  0  0  0  0  0  0  0  0  0  0
  189.3610  177.5300  140.8700 C   0  0  0  0  0  2  0  0  0  0  0  0
  187.1890  178.2150  140.8540 C   0  0  0  0  0  0  0  0  0  0  0  0
  187.5830  178.5230  139.6670 N   0  0  0  0  0  0  0  0  0  0  0  0
  188.1690  177.6220  141.6250 O   0  0  0  0  0  0  0  0  0  0  0  0
  188.9790  178.1360  139.5130 C   0  0  2  0  0  3  0  0  0  0  0  0
  189.0960  177.0920  138.4100 C   0  0  0  0  0  2  0  0  0  0  0  0
  193.2160  176.2510  137.5250 C   0  0  0  0  0  0  0  0  0  0  0  0
  190.8840  176.2740  136.8560 C   0  0  0  0  0  3  0  0  0  0  0  0
  190.5240  176.7850  138.1080 C   0  0  0  0  0  0  0  0  0  0  0  0
  191.5100  177.0390  139.0670 C   0  0  0  0  0  3  0  0  0  0  0  0
  192.8510  176.7710  138.7790 C   0  0  0  0  0  3  0  0  0  0  0  0
  192.2250  176.0050  136.5680 C   0  0  0  0  0  3  0  0  0  0  0  0
  194.5470  175.9690  137.2070 O   0  0  0  0  0  0  0  0  0  0  0  0
  195.1020  174.6660  137.3160 C   0  0  0  0  0  1  0  0  0  0  0  0
  185.4680  178.3050  142.7760 C   0  0  0  0  0  2  0  0  0  0  0  0
  184.7620  179.5490  143.2910 C   0  0  0  0  0  2  0  0  0  0  0  0
  184.7230  179.5530  144.8080 C   0  0  0  0  0  2  0  0  0  0  0  0
  186.2840  178.5930  146.4330 C   0  0  1  0  0  3  0  0  0  0  0  0
  185.3140  178.2700  145.3640 C   0  0  1  0  0  3  0  0  0  0  0  0
  184.9760  178.1630  146.7250 O   0  0  0  0  0  0  0  0  0  0  0  0
  187.2370  177.4290  146.6230 C   0  0  0  0  0  2  0  0  0  0  0  0
  188.4390  177.8460  147.4670 C   0  0  0  0  0  2  0  0  0  0  0  0
  189.7810  177.6600  146.7530 C   0  0  1  0  0  3  0  0  0  0  0  0
  190.6220  176.5540  147.3800 C   0  0  0  0  0  2  0  0  0  0  0  0
  191.8080  177.0870  147.8870 O   0  0  0  0  0  1  0  0  0  0  0  0
  189.5770  177.4000  145.3320 N   0  0  0  0  0  2  0  0  0  0  0  0
  191.1660  178.6540  144.0000 C   0  0  0  0  0  1  0  0  0  0  0  0
  190.9010  176.3060  143.7580 O   0  0  0  0  0  1  0  0  0  0  0  0
  190.8850  177.3390  144.6980 C   0  0  2  0  0  3  0  0  0  0  0  0
  1  3  2  0  0  0  0
  2 25  1  0  0  0  0
  3  2  2  0  0  0  0
  4 10  1  0  0  0  0
  6  9  2  0  0  0  0
  7  1  1  1  0  0  0
  7  8  1  0  0  0  0
  8  5  2  0  0  0  0
  9  7  1  0  0  0  0
  9 10  1  0  0  0  0
 10  5  1  0  0  0  0
 11 14  1  0  0  0  0
 12  2  1  0  0  0  0
 12 14  1  0  0  0  0
 13 12  2  0  0  0  0
 15 16  1  6  0  0  0
 15 13  1  0  0  0  0
 15 11  1  0  0  0  0
 17 21  1  0  0  0  0
 18 19  2  0  0  0  0
 19 16  1  0  0  0  0
 19 20  1  0  0  0  0
 21 20  2  0  0  0  0
 22 18  1  0  0  0  0
 22 17  2  0  0  0  0
 23 24  1  0  0  0  0
 23 17  1  0  0  0  0
 25 26  1  0  0  0  0
 26 27  1  0  0  0  0
 28 31  1  1  0  0  0
 28 30  1  0  0  0  0
 29 27  1  6  0  0  0
 29 28  1  0  0  0  0
 29 30  1  0  0  0  0
 31 32  1  0  0  0  0
 33 34  1  1  0  0  0
 33 32  1  0  0  0  0
 34 35  1  0  0  0  0
 36 33  1  0  0  0  0
 38 39  1  0  0  0  0
 39 37  1  6  0  0  0
 39 36  1  0  0  0  0
M  END
>  <MODEL>
5

>  <REMARK>
 VINA RESULT:      -7.0      2.492      6.592
  Name = 
  15 active torsions:
  status: ('A' for Active; 'I' for Inactive)
    1  A    between atoms: C_1  and  C_24
    2  A    between atoms: C_2  and  C_15
    3  A    between atoms: C_2  and  C_17
    4  A    between atoms: C_4  and  CA_30
    5  A    between atoms: C_4  and  C_32
    6  A    between atoms: C_5  and  O_7
    7  A    between atoms: C_6  and  C_32
    8  A    between atoms: C_8  and  C_21
    9  A    between atoms: C_8  and  C_39
   10  A    between atoms: C_11  and  C_15
   11  A    between atoms: C_11  and  C_35
   12  A    between atoms: C_14  and  CA_30
   13  A    between atoms: C_18  and  C_35
   14  A    between atoms: C_22  and  N_27
   15  A    between atoms: N_27  and  CA_30
                            x       y       z     vdW  Elec       q    Type
                         _______ _______ _______ _____ _____    ______ ____

>  <TORSDO>
F 15

$$$$
=
 OpenBabel10222419363D

 39 42  0  0  1  0  0  0  0  0999 V2000
  180.3950  178.2760  142.0920 C   0  0  0  0  0  3  0  0  0  0  0  0
  182.9660  178.4470  141.6760 C   0  0  0  0  0  0  0  0  0  0  0  0
  181.6810  178.3580  141.8840 C   0  0  0  0  0  0  0  0  0  0  0  0
  180.5340  179.5670  137.6170 C   0  0  0  0  0  1  0  0  0  0  0  0
  180.3110  180.8630  139.8170 C   0  0  0  0  0  3  0  0  0  0  0  0
  179.4240  177.4630  139.3470 O   0  0  0  0  0  0  0  0  0  0  0  0
  179.4350  179.0030  141.2110 C   0  0  1  0  0  3  0  0  0  0  0  0
  179.7570  180.5070  141.2060 C   0  0  0  0  0  3  0  0  0  0  0  0
  179.6540  178.6150  139.8030 C   0  0  0  0  0  0  0  0  0  0  0  0
  180.1390  179.6740  139.0100 N   0  0  0  0  0  0  0  0  0  0  0  0
  184.6380  179.6630  144.7370 C   0  0  0  0  0  2  0  0  0  0  0  0
  183.8730  178.7430  142.7980 C   0  0  0  0  0  0  0  0  0  0  0  0
  185.0470  178.2250  142.9040 N   0  0  0  0  0  0  0  0  0  0  0  0
  183.5500  179.5960  143.8350 O   0  0  0  0  0  0  0  0  0  0  0  0
  185.6790  178.7180  144.1210 C   0  0  2  0  0  3  0  0  0  0  0  0
  185.9590  177.5480  145.0560 C   0  0  0  0  0  2  0  0  0  0  0  0
  190.1580  177.2710  145.9230 C   0  0  0  0  0  0  0  0  0  0  0  0
  188.3420  177.3200  144.3160 C   0  0  0  0  0  3  0  0  0  0  0  0
  187.4150  177.4350  145.3570 C   0  0  0  0  0  0  0  0  0  0  0  0
  187.8590  177.4790  146.6830 C   0  0  0  0  0  3  0  0  0  0  0  0
  189.2240  177.3950  146.9670 C   0  0  0  0  0  3  0  0  0  0  0  0
  189.7070  177.2340  144.5980 C   0  0  0  0  0  3  0  0  0  0  0  0
  191.5300  177.1800  146.1730 O   0  0  0  0  0  0  0  0  0  0  0  0
  192.1330  176.0190  146.7260 C   0  0  0  0  0  1  0  0  0  0  0  0
  183.5010  178.1450  140.3150 C   0  0  0  0  0  2  0  0  0  0  0  0
  182.9730  176.8040  139.8290 C   0  0  0  0  0  2  0  0  0  0  0  0
  183.1010  176.6940  138.3210 C   0  0  0  0  0  2  0  0  0  0  0  0
  185.2450  176.5240  137.1500 C   0  0  1  0  0  3  0  0  0  0  0  0
  184.3170  177.4560  137.8280 C   0  0  1  0  0  3  0  0  0  0  0  0
  184.3780  177.3630  136.4260 O   0  0  0  0  0  0  0  0  0  0  0  0
  186.6380  177.1220  137.1270 C   0  0  0  0  0  2  0  0  0  0  0  0
  187.6800  176.0830  137.5360 C   0  0  0  0  0  2  0  0  0  0  0  0
  188.8440  176.6680  138.3410 C   0  0  1  0  0  3  0  0  0  0  0  0
  190.2000  176.2770  137.7650 C   0  0  0  0  0  2  0  0  0  0  0  0
  190.7910  175.2980  138.5650 O   0  0  0  0  0  1  0  0  0  0  0  0
  188.7290  178.1200  138.4300 N   0  0  0  0  0  2  0  0  0  0  0  0
  189.0540  177.3750  140.7130 C   0  0  0  0  0  1  0  0  0  0  0  0
  187.1150  178.5730  140.0490 O   0  0  0  0  0  1  0  0  0  0  0  0
  188.4880  178.4630  139.8240 C   0  0  2  0  0  3  0  0  0  0  0  0
  2  3  2  0  0  0  0
  2 12  1  0  0  0  0
  3  1  2  0  0  0  0
  4 10  1  0  0  0  0
  5  8  2  0  0  0  0
  6  9  2  0  0  0  0
  7  1  1  1  0  0  0
  8  7  1  0  0  0  0
  9  7  1  0  0  0  0
 10  9  1  0  0  0  0
 10  5  1  0  0  0  0
 12 13  2  0  0  0  0
 12 14  1  0  0  0  0
 13 15  1  0  0  0  0
 14 11  1  0  0  0  0
 15 11  1  0  0  0  0
 15 16  1  1  0  0  0
 16 19  1  0  0  0  0
 17 23  1  0  0  0  0
 17 21  1  0  0  0  0
 18 22  1  0  0  0  0
 18 19  2  0  0  0  0
 19 20  1  0  0  0  0
 20 21  2  0  0  0  0
 22 17  2  0  0  0  0
 23 24  1  0  0  0  0
 25  2  1  0  0  0  0
 26 25  1  0  0  0  0
 27 26  1  0  0  0  0
 28 31  1  6  0  0  0
 28 29  1  0  0  0  0
 29 27  1  1  0  0  0
 30 28  1  0  0  0  0
 30 29  1  0  0  0  0
 31 32  1  0  0  0  0
 33 32  1  6  0  0  0
 33 36  1  0  0  0  0
 34 33  1  0  0  0  0
 34 35  1  0  0  0  0
 36 39  1  0  0  0  0
 39 38  1  0  0  0  0
 39 37  1  1  0  0  0
M  END
>  <MODEL>
6

>  <REMARK>
 VINA RESULT:      -7.0      2.088      7.938
  Name = 
  15 active torsions:
  status: ('A' for Active; 'I' for Inactive)
    1  A    between atoms: C_1  and  C_24
    2  A    between atoms: C_2  and  C_15
    3  A    between atoms: C_2  and  C_17
    4  A    between atoms: C_4  and  CA_30
    5  A    between atoms: C_4  and  C_32
    6  A    between atoms: C_5  and  O_7
    7  A    between atoms: C_6  and  C_32
    8  A    between atoms: C_8  and  C_21
    9  A    between atoms: C_8  and  C_39
   10  A    between atoms: C_11  and  C_15
   11  A    between atoms: C_11  and  C_35
   12  A    between atoms: C_14  and  CA_30
   13  A    between atoms: C_18  and  C_35
   14  A    between atoms: C_22  and  N_27
   15  A    between atoms: N_27  and  CA_30
                            x       y       z     vdW  Elec       q    Type
                         _______ _______ _______ _____ _____    ______ ____

>  <TORSDO>
F 15

$$$$
=
 OpenBabel10222419363D

 39 42  0  0  1  0  0  0  0  0999 V2000
  186.4820  178.0340  142.0430 C   0  0  0  0  0  3  0  0  0  0  0  0
  188.5870  177.9190  140.5050 C   0  0  0  0  0  0  0  0  0  0  0  0
  187.5330  177.9740  141.2730 C   0  0  0  0  0  0  0  0  0  0  0  0
  182.2830  178.8690  143.8840 C   0  0  0  0  0  1  0  0  0  0  0  0
  183.1500  178.7090  141.4770 C   0  0  0  0  0  3  0  0  0  0  0  0
  185.1240  179.4970  144.3150 O   0  0  0  0  0  0  0  0  0  0  0  0
  185.5400  179.1890  141.9520 C   0  0  1  0  0  3  0  0  0  0  0  0
  184.5210  178.9520  140.8260 C   0  0  0  0  0  3  0  0  0  0  0  0
  184.6910  179.2390  143.1600 C   0  0  0  0  0  0  0  0  0  0  0  0
  183.3330  178.9790  142.8870 N   0  0  0  0  0  0  0  0  0  0  0  0
  192.1720  177.4850  141.2790 C   0  0  0  0  0  2  0  0  0  0  0  0
  189.9060  177.6170  141.0860 C   0  0  0  0  0  0  0  0  0  0  0  0
  190.0520  177.0580  142.2370 N   0  0  0  0  0  0  0  0  0  0  0  0
  191.1000  177.9070  140.4570 O   0  0  0  0  0  0  0  0  0  0  0  0
  191.4740  176.9050  142.5160 C   0  0  2  0  0  3  0  0  0  0  0  0
  191.8350  177.7080  143.7590 C   0  0  0  0  0  2  0  0  0  0  0  0
  188.8930  177.2600  146.8580 C   0  0  0  0  0  0  0  0  0  0  0  0
  191.1370  176.8830  146.0200 C   0  0  0  0  0  3  0  0  0  0  0  0
  190.8090  177.5380  144.8280 C   0  0  0  0  0  0  0  0  0  0  0  0
  189.5250  178.0650  144.6540 C   0  0  0  0  0  3  0  0  0  0  0  0
  188.5690  177.9250  145.6620 C   0  0  0  0  0  3  0  0  0  0  0  0
  190.1810  176.7410  147.0290 C   0  0  0  0  0  3  0  0  0  0  0  0
  187.9580  177.0990  147.8840 O   0  0  0  0  0  0  0  0  0  0  0  0
  187.9850  177.8740  149.0740 C   0  0  0  0  0  1  0  0  0  0  0  0
  188.4130  178.0650  139.0290 C   0  0  0  0  0  2  0  0  0  0  0  0
  188.4560  176.7010  138.3570 C   0  0  0  0  0  2  0  0  0  0  0  0
  189.4600  176.6970  137.2190 C   0  0  0  0  0  2  0  0  0  0  0  0
  191.7100  175.8050  137.5920 C   0  0  1  0  0  3  0  0  0  0  0  0
  190.3140  175.4430  137.2610 C   0  0  1  0  0  3  0  0  0  0  0  0
  190.8310  175.2850  138.5600 O   0  0  0  0  0  0  0  0  0  0  0  0
  192.6430  174.7020  137.1340 C   0  0  0  0  0  2  0  0  0  0  0  0
  193.9880  175.2770  136.6960 C   0  0  0  0  0  2  0  0  0  0  0  0
  195.1910  174.4890  137.2230 C   0  0  1  0  0  3  0  0  0  0  0  0
  194.7800  173.1770  137.8810 C   0  0  0  0  0  2  0  0  0  0  0  0
  195.4630  173.0170  139.0880 O   0  0  0  0  0  1  0  0  0  0  0  0
  196.1520  174.2410  136.1530 N   0  0  0  0  0  2  0  0  0  0  0  0
  198.1030  175.1350  135.0280 C   0  0  0  0  0  1  0  0  0  0  0  0
  197.8280  175.2960  137.3810 O   0  0  0  0  0  1  0  0  0  0  0  0
  197.1280  175.3200  136.1730 C   0  0  2  0  0  3  0  0  0  0  0  0
  2 12  1  0  0  0  0
  2  3  2  0  0  0  0
  3  1  2  0  0  0  0
  5 10  1  0  0  0  0
  7  1  1  1  0  0  0
  7  9  1  0  0  0  0
  8  5  2  0  0  0  0
  8  7  1  0  0  0  0
  9  6  2  0  0  0  0
 10  9  1  0  0  0  0
 10  4  1  0  0  0  0
 11 15  1  0  0  0  0
 12 13  2  0  0  0  0
 13 15  1  0  0  0  0
 14 12  1  0  0  0  0
 14 11  1  0  0  0  0
 15 16  1  1  0  0  0
 16 19  1  0  0  0  0
 17 22  1  0  0  0  0
 17 23  1  0  0  0  0
 18 22  2  0  0  0  0
 19 18  1  0  0  0  0
 20 19  2  0  0  0  0
 20 21  1  0  0  0  0
 21 17  2  0  0  0  0
 23 24  1  0  0  0  0
 25  2  1  0  0  0  0
 26 25  1  0  0  0  0
 27 26  1  0  0  0  0
 28 31  1  6  0  0  0
 28 30  1  0  0  0  0
 29 27  1  1  0  0  0
 29 28  1  0  0  0  0
 29 30  1  0  0  0  0
 32 31  1  0  0  0  0
 33 32  1  6  0  0  0
 33 34  1  0  0  0  0
 34 35  1  0  0  0  0
 36 39  1  0  0  0  0
 36 33  1  0  0  0  0
 39 37  1  6  0  0  0
 39 38  1  0  0  0  0
M  END
>  <MODEL>
7

>  <REMARK>
 VINA RESULT:      -6.9      4.163      9.401
  Name = 
  15 active torsions:
  status: ('A' for Active; 'I' for Inactive)
    1  A    between atoms: C_1  and  C_24
    2  A    between atoms: C_2  and  C_15
    3  A    between atoms: C_2  and  C_17
    4  A    between atoms: C_4  and  CA_30
    5  A    between atoms: C_4  and  C_32
    6  A    between atoms: C_5  and  O_7
    7  A    between atoms: C_6  and  C_32
    8  A    between atoms: C_8  and  C_21
    9  A    between atoms: C_8  and  C_39
   10  A    between atoms: C_11  and  C_15
   11  A    between atoms: C_11  and  C_35
   12  A    between atoms: C_14  and  CA_30
   13  A    between atoms: C_18  and  C_35
   14  A    between atoms: C_22  and  N_27
   15  A    between atoms: N_27  and  CA_30
                            x       y       z     vdW  Elec       q    Type
                         _______ _______ _______ _____ _____    ______ ____

>  <TORSDO>
F 15

$$$$
=
 OpenBabel10222419363D

 39 42  0  0  1  0  0  0  0  0999 V2000
  193.4560  175.9670  138.3290 C   0  0  0  0  0  3  0  0  0  0  0  0
  190.9900  176.8180  138.2700 C   0  0  0  0  0  0  0  0  0  0  0  0
  192.2240  176.3950  138.2990 C   0  0  0  0  0  0  0  0  0  0  0  0
  197.5840  174.1180  137.2080 C   0  0  0  0  0  1  0  0  0  0  0  0
  195.6020  174.9690  135.8230 C   0  0  0  0  0  3  0  0  0  0  0  0
  195.4160  173.8260  139.1740 O   0  0  0  0  0  0  0  0  0  0  0  0
  193.8530  174.7430  137.5730 C   0  0  1  0  0  3  0  0  0  0  0  0
  194.0930  175.0890  136.0940 C   0  0  0  0  0  3  0  0  0  0  0  0
  195.1830  174.2840  138.0240 C   0  0  0  0  0  0  0  0  0  0  0  0
  196.1710  174.4020  137.0270 N   0  0  0  0  0  0  0  0  0  0  0  0
  188.6310  177.8090  140.9340 C   0  0  0  0  0  2  0  0  0  0  0  0
  190.3010  177.1620  139.5250 C   0  0  0  0  0  0  0  0  0  0  0  0
  190.8820  177.1280  140.6740 N   0  0  0  0  0  0  0  0  0  0  0  0
  188.9760  177.5460  139.5870 O   0  0  0  0  0  0  0  0  0  0  0  0
  189.9270  177.5170  141.7030 C   0  0  2  0  0  3  0  0  0  0  0  0
  189.7250  176.3590  142.6710 C   0  0  0  0  0  2  0  0  0  0  0  0
  187.9590  177.6560  146.3680 C   0  0  0  0  0  0  0  0  0  0  0  0
  187.7270  176.9870  144.0480 C   0  0  0  0  0  3  0  0  0  0  0  0
  189.1130  176.8250  143.9490 C   0  0  0  0  0  0  0  0  0  0  0  0
  189.9230  177.0680  145.0630 C   0  0  0  0  0  3  0  0  0  0  0  0
  189.3510  177.4840  146.2670 C   0  0  0  0  0  3  0  0  0  0  0  0
  187.1530  177.4050  145.2510 C   0  0  0  0  0  3  0  0  0  0  0  0
  187.3560  178.0760  147.5570 O   0  0  0  0  0  0  0  0  0  0  0  0
  188.0650  178.1770  148.7820 C   0  0  0  0  0  1  0  0  0  0  0  0
  190.3320  177.0400  136.9470 C   0  0  0  0  0  2  0  0  0  0  0  0
  189.4530  175.8520  136.5910 C   0  0  0  0  0  2  0  0  0  0  0  0
  188.2330  176.3050  135.8090 C   0  0  0  0  0  2  0  0  0  0  0  0
  186.1360  177.3040  136.5850 C   0  0  1  0  0  3  0  0  0  0  0  0
  186.9650  176.0790  136.6130 C   0  0  1  0  0  3  0  0  0  0  0  0
  185.8550  176.2000  135.7580 O   0  0  0  0  0  0  0  0  0  0  0  0
  185.1770  177.2950  137.7590 C   0  0  0  0  0  2  0  0  0  0  0  0
  185.5420  178.3830  138.7650 C   0  0  0  0  0  2  0  0  0  0  0  0
  184.3460  178.8970  139.5720 C   0  0  1  0  0  3  0  0  0  0  0  0
  184.6450  178.9740  141.0650 C   0  0  0  0  0  2  0  0  0  0  0  0
  185.7840  179.7510  141.2810 O   0  0  0  0  0  1  0  0  0  0  0  0
  183.9090  180.1960  139.0730 N   0  0  0  0  0  2  0  0  0  0  0  0
  182.0560  179.0880  137.9720 C   0  0  0  0  0  1  0  0  0  0  0  0
  181.9970  181.4020  138.5050 O   0  0  0  0  0  1  0  0  0  0  0  0
  182.4590  180.1640  138.9590 C   0  0  2  0  0  3  0  0  0  0  0  0
  2  3  2  0  0  0  0
  2 12  1  0  0  0  0
  3  1  2  0  0  0  0
  5  8  2  0  0  0  0
  5 10  1  0  0  0  0
  7  9  1  0  0  0  0
  7  1  1  1  0  0  0
  8  7  1  0  0  0  0
  9  6  2  0  0  0  0
 10  4  1  0  0  0  0
 10  9  1  0  0  0  0
 11 15  1  0  0  0  0
 12 14  1  0  0  0  0
 12 13  2  0  0  0  0
 13 15  1  0  0  0  0
 14 11  1  0  0  0  0
 15 16  1  1  0  0  0
 16 19  1  0  0  0  0
 17 23  1  0  0  0  0
 18 22  1  0  0  0  0
 19 18  2  0  0  0  0
 19 20  1  0  0  0  0
 20 21  2  0  0  0  0
 21 17  1  0  0  0  0
 22 17  2  0  0  0  0
 23 24  1  0  0  0  0
 25  2  1  0  0  0  0
 26 25  1  0  0  0  0
 27 26  1  0  0  0  0
 28 29  1  0  0  0  0
 28 31  1  1  0  0  0
 29 27  1  6  0  0  0
 30 28  1  0  0  0  0
 30 29  1  0  0  0  0
 31 32  1  0  0  0  0
 33 32  1  6  0  0  0
 33 34  1  0  0  0  0
 34 35  1  0  0  0  0
 36 33  1  0  0  0  0
 38 39  1  0  0  0  0
 39 37  1  6  0  0  0
 39 36  1  0  0  0  0
M  END
>  <MODEL>
8

>  <REMARK>
 VINA RESULT:      -6.8      3.905      9.994
  Name = 
  15 active torsions:
  status: ('A' for Active; 'I' for Inactive)
    1  A    between atoms: C_1  and  C_24
    2  A    between atoms: C_2  and  C_15
    3  A    between atoms: C_2  and  C_17
    4  A    between atoms: C_4  and  CA_30
    5  A    between atoms: C_4  and  C_32
    6  A    between atoms: C_5  and  O_7
    7  A    between atoms: C_6  and  C_32
    8  A    between atoms: C_8  and  C_21
    9  A    between atoms: C_8  and  C_39
   10  A    between atoms: C_11  and  C_15
   11  A    between atoms: C_11  and  C_35
   12  A    between atoms: C_14  and  CA_30
   13  A    between atoms: C_18  and  C_35
   14  A    between atoms: C_22  and  N_27
   15  A    between atoms: N_27  and  CA_30
                            x       y       z     vdW  Elec       q    Type
                         _______ _______ _______ _____ _____    ______ ____

>  <TORSDO>
F 15

$$$$
=
 OpenBabel10222419363D

 39 42  0  0  1  0  0  0  0  0999 V2000
  188.9980  178.4090  142.2680 C   0  0  0  0  0  3  0  0  0  0  0  0
  187.9520  178.3410  139.8780 C   0  0  0  0  0  0  0  0  0  0  0  0
  188.4760  178.3780  141.0730 C   0  0  0  0  0  0  0  0  0  0  0  0
  190.4760  177.0710  146.4800 C   0  0  0  0  0  1  0  0  0  0  0  0
  191.6810  177.8780  144.3660 C   0  0  0  0  0  3  0  0  0  0  0  0
  188.4690  176.3780  144.4440 O   0  0  0  0  0  0  0  0  0  0  0  0
  189.8980  177.3120  142.7320 C   0  0  1  0  0  3  0  0  0  0  0  0
  191.3390  177.8320  142.8680 C   0  0  0  0  0  3  0  0  0  0  0  0
  189.5520  176.9310  144.1160 C   0  0  0  0  0  0  0  0  0  0  0  0
  190.5690  177.2420  145.0410 N   0  0  0  0  0  0  0  0  0  0  0  0
  184.4620  178.6270  138.7030 C   0  0  0  0  0  2  0  0  0  0  0  0
  186.5100  178.5820  139.7010 C   0  0  0  0  0  0  0  0  0  0  0  0
  185.7700  179.1080  140.6140 N   0  0  0  0  0  0  0  0  0  0  0  0
  185.8200  178.2640  138.5470 O   0  0  0  0  0  0  0  0  0  0  0  0
  184.4010  179.2020  140.1250 C   0  0  2  0  0  3  0  0  0  0  0  0
  183.4890  178.3580  141.0050 C   0  0  0  0  0  2  0  0  0  0  0  0
  184.4990  178.8520  145.1520 C   0  0  0  0  0  0  0  0  0  0  0  0
  185.1220  178.2040  142.8990 C   0  0  0  0  0  3  0  0  0  0  0  0
  183.8350  178.5140  142.4470 C   0  0  0  0  0  0  0  0  0  0  0  0
  182.8810  179.0030  143.3450 C   0  0  0  0  0  3  0  0  0  0  0  0
  183.2090  179.1700  144.6920 C   0  0  0  0  0  3  0  0  0  0  0  0
  185.4510  178.3690  144.2470 C   0  0  0  0  0  3  0  0  0  0  0  0
  184.8580  179.0040  146.4940 O   0  0  0  0  0  0  0  0  0  0  0  0
  186.0900  178.5310  147.0160 C   0  0  0  0  0  1  0  0  0  0  0  0
  188.8500  178.1540  138.6990 C   0  0  0  0  0  2  0  0  0  0  0  0
  189.7940  176.9860  138.9380 C   0  0  0  0  0  2  0  0  0  0  0  0
  189.5320  175.8750  137.9370 C   0  0  0  0  0  2  0  0  0  0  0  0
  190.9820  174.5930  136.4380 C   0  0  1  0  0  3  0  0  0  0  0  0
  190.5120  175.9530  136.7810 C   0  0  1  0  0  3  0  0  0  0  0  0
  189.9850  175.2420  135.6870 O   0  0  0  0  0  0  0  0  0  0  0  0
  192.2980  174.6840  135.6890 C   0  0  0  0  0  2  0  0  0  0  0  0
  193.4250  174.0440  136.4950 C   0  0  0  0  0  2  0  0  0  0  0  0
  194.5290  175.0300  136.8910 C   0  0  1  0  0  3  0  0  0  0  0  0
  194.2840  176.4270  136.3330 C   0  0  0  0  0  2  0  0  0  0  0  0
  195.4430  176.9030  135.7170 O   0  0  0  0  0  1  0  0  0  0  0  0
  194.6780  175.0790  138.3410 N   0  0  0  0  0  2  0  0  0  0  0  0
  196.7540  174.1610  137.4940 C   0  0  0  0  0  1  0  0  0  0  0  0
  195.4330  173.0060  139.0940 O   0  0  0  0  0  1  0  0  0  0  0  0
  195.8420  174.2810  138.6970 C   0  0  2  0  0  3  0  0  0  0  0  0
  2  3  2  0  0  0  0
  3  1  2  0  0  0  0
  5 10  1  0  0  0  0
  7  1  1  1  0  0  0
  7  8  1  0  0  0  0
  7  9  1  0  0  0  0
  8  5  2  0  0  0  0
  9  6  2  0  0  0  0
  9 10  1  0  0  0  0
 10  4  1  0  0  0  0
 11 15  1  0  0  0  0
 12  2  1  0  0  0  0
 12 13  2  0  0  0  0
 14 11  1  0  0  0  0
 14 12  1  0  0  0  0
 15 13  1  0  0  0  0
 15 16  1  1  0  0  0
 16 19  1  0  0  0  0
 17 23  1  0  0  0  0
 18 22  1  0  0  0  0
 19 18  2  0  0  0  0
 19 20  1  0  0  0  0
 20 21  2  0  0  0  0
 21 17  1  0  0  0  0
 22 17  2  0  0  0  0
 23 24  1  0  0  0  0
 25 26  1  0  0  0  0
 25  2  1  0  0  0  0
 27 26  1  0  0  0  0
 28 31  1  6  0  0  0
 28 29  1  0  0  0  0
 29 27  1  1  0  0  0
 30 28  1  0  0  0  0
 30 29  1  0  0  0  0
 31 32  1  0  0  0  0
 32 33  1  0  0  0  0
 33 34  1  1  0  0  0
 33 36  1  0  0  0  0
 35 34  1  0  0  0  0
 36 39  1  0  0  0  0
 39 37  1  6  0  0  0
 39 38  1  0  0  0  0
M  END
>  <MODEL>
9

>  <REMARK>
 VINA RESULT:      -6.8      3.790      7.752
  Name = 
  15 active torsions:
  status: ('A' for Active; 'I' for Inactive)
    1  A    between atoms: C_1  and  C_24
    2  A    between atoms: C_2  and  C_15
    3  A    between atoms: C_2  and  C_17
    4  A    between atoms: C_4  and  CA_30
    5  A    between atoms: C_4  and  C_32
    6  A    between atoms: C_5  and  O_7
    7  A    between atoms: C_6  and  C_32
    8  A    between atoms: C_8  and  C_21
    9  A    between atoms: C_8  and  C_39
   10  A    between atoms: C_11  and  C_15
   11  A    between atoms: C_11  and  C_35
   12  A    between atoms: C_14  and  CA_30
   13  A    between atoms: C_18  and  C_35
   14  A    between atoms: C_22  and  N_27
   15  A    between atoms: N_27  and  CA_30
                            x       y       z     vdW  Elec       q    Type
                         _______ _______ _______ _____ _____    ______ ____

>  <TORSDO>
F 15

$$$$
