=
 OpenBabel10222420323D

 37 43  0  0  1  0  0  0  0  0999 V2000
  188.5510  177.6130  142.5800 C   0  0  0  0  0  0  0  0  0  0  0  0
  184.4720  179.2400  140.6460 N   0  0  0  0  0  0  0  0  0  0  0  0
  184.4630  178.4240  142.8980 C   0  0  0  0  0  3  0  0  0  0  0  0
  188.2880  177.1910  139.4120 C   0  0  0  0  0  2  0  0  0  0  0  0
  190.5270  176.0720  142.3600 C   0  0  0  0  0  2  0  0  0  0  0  0
  190.1350  178.0730  140.8920 N   0  0  1  0  0  0  0  0  0  0  0  0
  191.5850  176.5210  144.5250 N   0  0  0  0  0  0  0  0  0  0  0  0
  183.7970  178.9820  141.8000 C   0  0  0  0  0  3  0  0  0  0  0  0
  187.8800  178.1060  141.4980 C   0  0  0  0  0  0  0  0  0  0  0  0
  187.8960  177.3320  143.7860 C   0  0  0  0  0  3  0  0  0  0  0  0
  186.5100  178.4100  141.5860 C   0  0  0  0  0  0  0  0  0  0  0  0
  188.7830  178.2860  140.3130 C   0  0  1  0  0  0  0  0  0  0  0  0
  190.6820  175.6210  143.8140 C   0  0  0  0  0  2  0  0  0  0  0  0
  189.9980  177.5230  142.2650 C   0  0  1  0  0  0  0  0  0  0  0  0
  185.8250  178.1370  142.7950 C   0  0  0  0  0  0  0  0  0  0  0  0
  186.5210  177.5880  143.8830 C   0  0  0  0  0  3  0  0  0  0  0  0
  185.8000  178.9660  140.5140 C   0  0  0  0  0  3  0  0  0  0  0  0
  190.9450  177.8330  144.6020 C   0  0  0  0  0  2  0  0  0  0  0  0
  190.8060  178.4330  143.2020 C   0  0  0  0  0  2  0  0  0  0  0  0
  189.7070  177.1360  139.8500 C   0  0  2  0  0  0  0  0  0  0  0  0
  190.4810  177.4620  138.6630 N   0  0  0  0  0  2  0  0  0  0  0  0
  191.2180  176.2670  138.2780 C   0  0  0  0  0  2  0  0  0  0  0  0
  192.7120  176.5490  138.2460 C   0  0  1  0  0  3  0  0  0  0  0  0
  193.1840  177.1330  139.5680 C   0  0  0  0  0  1  0  0  0  0  0  0
  194.8730  175.2240  138.2250 N   0  0  0  0  0  2  0  0  0  0  0  0
  195.7210  174.0940  137.9860 C   0  0  0  0  0  0  0  0  0  0  0  0
  195.2400  172.9730  137.5650 N   0  0  0  0  0  2  0  0  0  0  0  0
  193.4680  175.3010  137.9340 C   0  0  0  0  0  0  0  0  0  0  0  0
  197.1740  174.2040  138.2630 C   0  0  0  0  0  1  0  0  0  0  0  0
  192.8630  174.3350  137.3980 O   0  0  0  0  0  0  0  0  0  0  0  0
  191.6680  176.0220  145.8870 C   0  0  0  0  0  2  0  0  0  0  0  0
  191.1390  177.0470  146.8790 C   0  0  1  0  0  3  0  0  0  0  0  0
  189.7260  176.6630  147.3280 C   0  0  0  0  0  3  0  0  0  0  0  0
  189.1190  177.6510  148.3110 C   0  0  0  0  0  2  0  0  0  0  0  0
  188.7660  177.7320  146.8460 C   0  0  0  0  0  2  0  0  0  0  0  0
  192.5750  175.8560  148.0650 C   0  0  0  0  0  1  0  0  0  0  0  0
  192.0220  177.1310  147.9540 O   0  0  0  0  0  0  0  0  0  0  0  0
  1 10  1  0  0  0  0
  2  8  1  0  0  0  0
  4 20  1  0  0  0  0
  4 12  1  0  0  0  0
  5 13  1  0  0  0  0
  6 14  1  0  0  0  0
  7 18  1  0  0  0  0
  7 31  1  0  0  0  0
  8  3  2  0  0  0  0
  9 11  1  0  0  0  0
  9  1  2  0  0  0  0
 10 16  2  0  0  0  0
 11 15  2  0  0  0  0
 12  6  1  0  0  0  0
 12  9  1  0  0  0  0
 13  7  1  0  0  0  0
 14  5  1  0  0  0  0
 14  1  1  0  0  0  0
 14 19  1  0  0  0  0
 15  3  1  0  0  0  0
 15 16  1  0  0  0  0
 17  2  2  0  0  0  0
 17 11  1  0  0  0  0
 19 18  1  0  0  0  0
 20 12  1  0  0  0  0
 20  6  1  0  0  0  0
 21 20  1  0  0  0  0
 22 21  1  0  0  0  0
 23 22  1  0  0  0  0
 23 24  1  0  0  0  0
 26 25  1  0  0  0  0
 26 29  1  0  0  0  0
 27 26  2  0  0  0  0
 28 25  1  0  0  0  0
 28 23  1  0  0  0  0
 30 28  2  0  0  0  0
 31 32  1  0  0  0  0
 32 33  1  0  0  0  0
 32 37  1  0  0  0  0
 33 34  1  0  0  0  0
 35 33  1  0  0  0  0
 35 34  1  0  0  0  0
 37 36  1  0  0  0  0
M  END
>  <MODEL>
1

>  <REMARK>
 VINA RESULT:      -9.2      0.000      0.000
  Name = 
  8 active torsions:
  status: ('A' for Active; 'I' for Inactive)
    1  A    between atoms: C_3  and  C_17
    2  A    between atoms: C_3  and  C_28
    3  A    between atoms: N_7  and  C_28
    4  A    between atoms: N_7  and  C_31
    5  A    between atoms: C_12  and  C_19
    6  A    between atoms: N_14  and  C_34
    7  A    between atoms: C_19  and  C_34
    8  A    between atoms: C_19  and  O_35
                            x       y       z     vdW  Elec       q    Type
                         _______ _______ _______ _____ _____    ______ ____

>  <TORSDO>
F 8

$$$$
=
 OpenBabel10222420323D

 37 43  0  0  1  0  0  0  0  0999 V2000
  188.4030  177.6790  142.5490 C   0  0  0  0  0  0  0  0  0  0  0  0
  184.2590  179.2740  140.7320 N   0  0  0  0  0  0  0  0  0  0  0  0
  184.3050  178.3940  142.9580 C   0  0  0  0  0  3  0  0  0  0  0  0
  188.0940  177.3430  139.3750 C   0  0  0  0  0  2  0  0  0  0  0  0
  190.4060  176.1870  142.2510 C   0  0  0  0  0  2  0  0  0  0  0  0
  189.9480  178.2200  140.8500 N   0  0  1  0  0  0  0  0  0  0  0  0
  191.4920  176.5940  144.4110 N   0  0  0  0  0  0  0  0  0  0  0  0
  183.6090  178.9690  141.8890 C   0  0  0  0  0  3  0  0  0  0  0  0
  187.7040  178.1880  141.4930 C   0  0  0  0  0  0  0  0  0  0  0  0
  187.7750  177.3490  143.7570 C   0  0  0  0  0  3  0  0  0  0  0  0
  186.3300  178.4610  141.6120 C   0  0  0  0  0  0  0  0  0  0  0  0
  188.5820  178.4210  140.3000 C   0  0  1  0  0  0  0  0  0  0  0  0
  190.5950  175.6960  143.6880 C   0  0  0  0  0  2  0  0  0  0  0  0
  189.8460  177.6270  142.2080 C   0  0  1  0  0  0  0  0  0  0  0  0
  185.6710  178.1380  142.8240 C   0  0  0  0  0  0  0  0  0  0  0  0
  186.3970  177.5730  143.8850 C   0  0  0  0  0  3  0  0  0  0  0  0
  185.5900  179.0330  140.5700 C   0  0  0  0  0  3  0  0  0  0  0  0
  190.8270  177.8900  144.5370 C   0  0  0  0  0  2  0  0  0  0  0  0
  190.6510  178.5270  143.1580 C   0  0  0  0  0  2  0  0  0  0  0  0
  189.5220  177.3050  139.7870 C   0  0  2  0  0  0  0  0  0  0  0  0
  190.2690  177.6810  138.5980 N   0  0  0  0  0  2  0  0  0  0  0  0
  191.2200  176.6150  138.3220 C   0  0  0  0  0  2  0  0  0  0  0  0
  190.9620  176.0130  136.9500 C   0  0  1  0  0  3  0  0  0  0  0  0
  192.2670  175.6420  136.2640 C   0  0  0  0  0  1  0  0  0  0  0  0
  188.6870  174.9140  136.7440 N   0  0  0  0  0  2  0  0  0  0  0  0
  187.7300  173.8480  136.8040 C   0  0  0  0  0  0  0  0  0  0  0  0
  188.0910  172.6390  137.0710 N   0  0  0  0  0  2  0  0  0  0  0  0
  190.0830  174.8130  137.0680 C   0  0  0  0  0  0  0  0  0  0  0  0
  186.3030  174.1360  136.5190 C   0  0  0  0  0  1  0  0  0  0  0  0
  190.5780  173.7270  137.4730 O   0  0  0  0  0  0  0  0  0  0  0  0
  191.6090  176.0580  145.7560 C   0  0  0  0  0  2  0  0  0  0  0  0
  191.1080  177.0560  146.7890 C   0  0  1  0  0  3  0  0  0  0  0  0
  189.7150  176.6510  147.2800 C   0  0  0  0  0  3  0  0  0  0  0  0
  189.1110  177.6470  148.2580 C   0  0  0  0  0  2  0  0  0  0  0  0
  188.7210  177.6890  146.8000 C   0  0  0  0  0  2  0  0  0  0  0  0
  192.5310  175.8290  147.9530 C   0  0  0  0  0  1  0  0  0  0  0  0
  192.0290  177.1240  147.8330 O   0  0  0  0  0  0  0  0  0  0  0  0
  1 10  1  0  0  0  0
  2  8  1  0  0  0  0
  4 20  1  0  0  0  0
  4 12  1  0  0  0  0
  5 13  1  0  0  0  0
  6 14  1  0  0  0  0
  7 18  1  0  0  0  0
  7 31  1  0  0  0  0
  8  3  2  0  0  0  0
  9 11  1  0  0  0  0
  9  1  2  0  0  0  0
 10 16  2  0  0  0  0
 11 15  2  0  0  0  0
 12  6  1  0  0  0  0
 12  9  1  0  0  0  0
 13  7  1  0  0  0  0
 14  5  1  0  0  0  0
 14  1  1  0  0  0  0
 14 19  1  0  0  0  0
 15  3  1  0  0  0  0
 15 16  1  0  0  0  0
 17  2  2  0  0  0  0
 17 11  1  0  0  0  0
 19 18  1  0  0  0  0
 20 12  1  0  0  0  0
 20  6  1  0  0  0  0
 21 20  1  0  0  0  0
 22 21  1  0  0  0  0
 23 28  1  0  0  0  0
 23 22  1  0  0  0  0
 24 23  1  0  0  0  0
 25 26  1  0  0  0  0
 25 28  1  0  0  0  0
 26 27  2  0  0  0  0
 28 30  2  0  0  0  0
 29 26  1  0  0  0  0
 31 32  1  0  0  0  0
 32 33  1  0  0  0  0
 32 37  1  0  0  0  0
 33 34  1  0  0  0  0
 35 33  1  0  0  0  0
 35 34  1  0  0  0  0
 37 36  1  0  0  0  0
M  END
>  <MODEL>
2

>  <REMARK>
 VINA RESULT:      -9.2      1.953      2.926
  Name = 
  8 active torsions:
  status: ('A' for Active; 'I' for Inactive)
    1  A    between atoms: C_3  and  C_17
    2  A    between atoms: C_3  and  C_28
    3  A    between atoms: N_7  and  C_28
    4  A    between atoms: N_7  and  C_31
    5  A    between atoms: C_12  and  C_19
    6  A    between atoms: N_14  and  C_34
    7  A    between atoms: C_19  and  C_34
    8  A    between atoms: C_19  and  O_35
                            x       y       z     vdW  Elec       q    Type
                         _______ _______ _______ _____ _____    ______ ____

>  <TORSDO>
F 8

$$$$
=
 OpenBabel10222420323D

 37 43  0  0  1  0  0  0  0  0999 V2000
  190.6460  177.1420  140.8550 C   0  0  0  0  0  0  0  0  0  0  0  0
  191.4870  176.4480  136.1820 N   0  0  0  0  0  0  0  0  0  0  0  0
  193.3230  176.4560  137.7190 C   0  0  0  0  0  3  0  0  0  0  0  0
  188.6030  178.6200  138.8730 C   0  0  0  0  0  2  0  0  0  0  0  0
  189.5690  178.5770  142.6180 C   0  0  0  0  0  2  0  0  0  0  0  0
  188.2880  177.2090  140.9450 N   0  0  1  0  0  0  0  0  0  0  0  0
  190.3630  177.3770  144.6030 N   0  0  0  0  0  0  0  0  0  0  0  0
  192.8230  176.3310  136.4190 C   0  0  0  0  0  3  0  0  0  0  0  0
  190.1750  177.0750  139.5750 C   0  0  0  0  0  0  0  0  0  0  0  0
  192.0120  177.0290  141.1430 C   0  0  0  0  0  3  0  0  0  0  0  0
  191.0510  176.8200  138.5050 C   0  0  0  0  0  0  0  0  0  0  0  0
  188.6890  177.2650  139.5140 C   0  0  1  0  0  0  0  0  0  0  0  0
  190.6330  178.5040  143.7150 C   0  0  0  0  0  2  0  0  0  0  0  0
  189.5060  177.2690  141.7950 C   0  0  1  0  0  0  0  0  0  0  0  0
  192.4370  176.6990  138.7700 C   0  0  0  0  0  0  0  0  0  0  0  0
  192.9100  176.8170  140.0870 C   0  0  0  0  0  3  0  0  0  0  0  0
  190.5990  176.6900  137.1860 C   0  0  0  0  0  3  0  0  0  0  0  0
  190.5280  176.1460  143.8320 C   0  0  0  0  0  2  0  0  0  0  0  0
  189.4580  176.0610  142.7420 C   0  0  0  0  0  2  0  0  0  0  0  0
  188.0200  178.4610  140.2320 C   0  0  2  0  0  0  0  0  0  0  0  0
  186.5820  178.5200  140.0350 N   0  0  0  0  0  2  0  0  0  0  0  0
  186.0080  179.1920  141.1920 C   0  0  0  0  0  2  0  0  0  0  0  0
  184.5050  178.9730  141.2440 C   0  0  1  0  0  3  0  0  0  0  0  0
  184.1150  177.6930  140.5230 C   0  0  0  0  0  1  0  0  0  0  0  0
  184.9910  178.9560  143.7310 N   0  0  0  0  0  2  0  0  0  0  0  0
  184.6860  178.9270  145.1310 C   0  0  0  0  0  0  0  0  0  0  0  0
  183.4680  178.9790  145.5520 N   0  0  0  0  0  2  0  0  0  0  0  0
  184.0350  178.9310  142.6600 C   0  0  0  0  0  0  0  0  0  0  0  0
  185.7950  178.8720  146.1160 C   0  0  0  0  0  1  0  0  0  0  0  0
  182.7990  178.8510  142.8940 O   0  0  0  0  0  0  0  0  0  0  0  0
  191.4170  177.3830  145.6020 C   0  0  0  0  0  2  0  0  0  0  0  0
  190.8480  177.1920  146.9990 C   0  0  1  0  0  3  0  0  0  0  0  0
  189.3710  177.5960  147.0250 C   0  0  0  0  0  3  0  0  0  0  0  0
  188.5720  176.8790  148.1020 C   0  0  0  0  0  2  0  0  0  0  0  0
  189.0860  178.2760  148.3490 C   0  0  0  0  0  2  0  0  0  0  0  0
  192.4080  175.7300  147.5620 C   0  0  0  0  0  1  0  0  0  0  0  0
  191.0320  175.8650  147.3820 O   0  0  0  0  0  0  0  0  0  0  0  0
  1 10  1  0  0  0  0
  1 14  1  0  0  0  0
  2  8  2  0  0  0  0
  2 17  1  0  0  0  0
  3 15  2  0  0  0  0
  4 12  1  0  0  0  0
  4 20  1  0  0  0  0
  5 13  1  0  0  0  0
  6 14  1  0  0  0  0
  7 31  1  0  0  0  0
  8  3  1  0  0  0  0
  9  1  2  0  0  0  0
 11 15  1  0  0  0  0
 11  9  1  0  0  0  0
 12  9  1  0  0  0  0
 12 20  1  0  0  0  0
 12  6  1  0  0  0  0
 13  7  1  0  0  0  0
 14  5  1  0  0  0  0
 14 19  1  0  0  0  0
 15 16  1  0  0  0  0
 16 10  2  0  0  0  0
 17 11  2  0  0  0  0
 18  7  1  0  0  0  0
 19 18  1  0  0  0  0
 20  6  1  0  0  0  0
 21 20  1  0  0  0  0
 21 22  1  0  0  0  0
 22 23  1  0  0  0  0
 23 28  1  0  0  0  0
 24 23  1  0  0  0  0
 25 26  1  0  0  0  0
 26 27  2  0  0  0  0
 26 29  1  0  0  0  0
 28 30  2  0  0  0  0
 28 25  1  0  0  0  0
 31 32  1  0  0  0  0
 32 33  1  0  0  0  0
 32 37  1  0  0  0  0
 33 34  1  0  0  0  0
 33 35  1  0  0  0  0
 34 35  1  0  0  0  0
 37 36  1  0  0  0  0
M  END
>  <MODEL>
3

>  <REMARK>
 VINA RESULT:      -9.1      2.539      7.131
  Name = 
  8 active torsions:
  status: ('A' for Active; 'I' for Inactive)
    1  A    between atoms: C_3  and  C_17
    2  A    between atoms: C_3  and  C_28
    3  A    between atoms: N_7  and  C_28
    4  A    between atoms: N_7  and  C_31
    5  A    between atoms: C_12  and  C_19
    6  A    between atoms: N_14  and  C_34
    7  A    between atoms: C_19  and  C_34
    8  A    between atoms: C_19  and  O_35
                            x       y       z     vdW  Elec       q    Type
                         _______ _______ _______ _____ _____    ______ ____

>  <TORSDO>
F 8

$$$$
=
 OpenBabel10222420323D

 37 43  0  0  1  0  0  0  0  0999 V2000
  190.6930  177.1210  140.8620 C   0  0  0  0  0  0  0  0  0  0  0  0
  191.4190  176.5000  136.1600 N   0  0  0  0  0  0  0  0  0  0  0  0
  193.2940  176.4960  137.6510 C   0  0  0  0  0  3  0  0  0  0  0  0
  188.5920  178.6160  138.9550 C   0  0  0  0  0  2  0  0  0  0  0  0
  189.6520  178.5240  142.6730 C   0  0  0  0  0  2  0  0  0  0  0  0
  188.3380  177.1730  141.0130 N   0  0  1  0  0  0  0  0  0  0  0  0
  190.5030  177.3000  144.6190 N   0  0  0  0  0  0  0  0  0  0  0  0
  192.7620  176.3880  136.3610 C   0  0  0  0  0  3  0  0  0  0  0  0
  190.1900  177.0690  139.5940 C   0  0  0  0  0  0  0  0  0  0  0  0
  192.0660  177.0120  141.1140 C   0  0  0  0  0  3  0  0  0  0  0  0
  191.0400  176.8360  138.4990 C   0  0  0  0  0  0  0  0  0  0  0  0
  188.7010  177.2520  139.5730 C   0  0  1  0  0  0  0  0  0  0  0  0
  190.7440  178.4410  143.7410 C   0  0  0  0  0  2  0  0  0  0  0  0
  189.5750  177.2280  141.8320 C   0  0  1  0  0  0  0  0  0  0  0  0
  192.4330  176.7190  138.7270 C   0  0  0  0  0  0  0  0  0  0  0  0
  192.9380  176.8200  140.0330 C   0  0  0  0  0  3  0  0  0  0  0  0
  190.5560  176.7220  137.1900 C   0  0  0  0  0  3  0  0  0  0  0  0
  190.6550  176.0810  143.8270 C   0  0  0  0  0  2  0  0  0  0  0  0
  189.5580  176.0060  142.7630 C   0  0  0  0  0  2  0  0  0  0  0  0
  188.0450  178.4330  140.3250 C   0  0  2  0  0  0  0  0  0  0  0  0
  186.6010  178.4870  140.1660 N   0  0  0  0  0  2  0  0  0  0  0  0
  186.0550  179.1550  141.3380 C   0  0  0  0  0  2  0  0  0  0  0  0
  185.4120  178.1450  142.2750 C   0  0  1  0  0  3  0  0  0  0  0  0
  186.1170  178.1280  143.6220 C   0  0  0  0  0  1  0  0  0  0  0  0
  183.1020  178.5400  141.3090 N   0  0  0  0  0  2  0  0  0  0  0  0
  181.6970  178.8210  141.3320 C   0  0  0  0  0  0  0  0  0  0  0  0
  181.0530  178.9240  142.4450 N   0  0  0  0  0  2  0  0  0  0  0  0
  183.9630  178.4540  142.4560 C   0  0  0  0  0  0  0  0  0  0  0  0
  180.9630  178.9620  140.0510 C   0  0  0  0  0  1  0  0  0  0  0  0
  183.5200  178.6560  143.6180 O   0  0  0  0  0  0  0  0  0  0  0  0
  191.5820  177.2970  145.5910 C   0  0  0  0  0  2  0  0  0  0  0  0
  191.0440  177.4470  147.0060 C   0  0  1  0  0  3  0  0  0  0  0  0
  189.6750  176.7710  147.1220 C   0  0  0  0  0  3  0  0  0  0  0  0
  188.7760  177.4110  148.1690 C   0  0  0  0  0  2  0  0  0  0  0  0
  188.6140  177.7720  146.7130 C   0  0  0  0  0  2  0  0  0  0  0  0
  192.1220  175.5800  147.4970 C   0  0  0  0  0  1  0  0  0  0  0  0
  191.9690  176.9060  147.8980 O   0  0  0  0  0  0  0  0  0  0  0  0
  1 10  1  0  0  0  0
  1 14  1  0  0  0  0
  2  8  2  0  0  0  0
  2 17  1  0  0  0  0
  3 15  2  0  0  0  0
  4 12  1  0  0  0  0
  4 20  1  0  0  0  0
  5 13  1  0  0  0  0
  6 14  1  0  0  0  0
  7 31  1  0  0  0  0
  8  3  1  0  0  0  0
  9  1  2  0  0  0  0
 11 15  1  0  0  0  0
 11  9  1  0  0  0  0
 12  9  1  0  0  0  0
 12 20  1  0  0  0  0
 12  6  1  0  0  0  0
 13  7  1  0  0  0  0
 14  5  1  0  0  0  0
 14 19  1  0  0  0  0
 15 16  1  0  0  0  0
 16 10  2  0  0  0  0
 17 11  2  0  0  0  0
 18  7  1  0  0  0  0
 19 18  1  0  0  0  0
 20  6  1  0  0  0  0
 21 20  1  0  0  0  0
 21 22  1  0  0  0  0
 22 23  1  0  0  0  0
 23 28  1  0  0  0  0
 23 24  1  0  0  0  0
 25 26  1  0  0  0  0
 25 28  1  0  0  0  0
 26 27  2  0  0  0  0
 28 30  2  0  0  0  0
 29 26  1  0  0  0  0
 31 32  1  0  0  0  0
 32 33  1  0  0  0  0
 32 37  1  0  0  0  0
 33 34  1  0  0  0  0
 35 33  1  0  0  0  0
 35 34  1  0  0  0  0
 36 37  1  0  0  0  0
M  END
>  <MODEL>
4

>  <REMARK>
 VINA RESULT:      -8.8      2.517      7.323
  Name = 
  8 active torsions:
  status: ('A' for Active; 'I' for Inactive)
    1  A    between atoms: C_3  and  C_17
    2  A    between atoms: C_3  and  C_28
    3  A    between atoms: N_7  and  C_28
    4  A    between atoms: N_7  and  C_31
    5  A    between atoms: C_12  and  C_19
    6  A    between atoms: N_14  and  C_34
    7  A    between atoms: C_19  and  C_34
    8  A    between atoms: C_19  and  O_35
                            x       y       z     vdW  Elec       q    Type
                         _______ _______ _______ _____ _____    ______ ____

>  <TORSDO>
F 8

$$$$
=
 OpenBabel10222420323D

 37 43  0  0  1  0  0  0  0  0999 V2000
  189.4270  176.8820  137.4100 C   0  0  0  0  0  0  0  0  0  0  0  0
  194.0330  175.9380  138.3680 N   0  0  0  0  0  0  0  0  0  0  0  0
  193.0270  175.0140  136.4010 C   0  0  0  0  0  3  0  0  0  0  0  0
  190.1720  176.7780  140.5280 C   0  0  0  0  0  2  0  0  0  0  0  0
  187.0540  176.8880  138.2430 C   0  0  0  0  0  2  0  0  0  0  0  0
  188.8520  178.4070  139.1180 N   0  0  1  0  0  0  0  0  0  0  0  0
  185.9430  177.6150  136.1820 N   0  0  0  0  0  0  0  0  0  0  0  0
  194.1360  175.1860  137.2370 C   0  0  0  0  0  3  0  0  0  0  0  0
  190.4990  176.9970  138.2480 C   0  0  0  0  0  0  0  0  0  0  0  0
  189.4880  176.1180  136.2380 C   0  0  0  0  0  3  0  0  0  0  0  0
  191.7280  176.4000  137.9190 C   0  0  0  0  0  0  0  0  0  0  0  0
  190.1800  177.8290  139.4550 C   0  0  1  0  0  0  0  0  0  0  0  0
  186.3200  176.4480  136.9740 C   0  0  0  0  0  2  0  0  0  0  0  0
  188.3130  177.7220  137.9140 C   0  0  1  0  0  0  0  0  0  0  0  0
  191.8170  175.6230  136.7380 C   0  0  0  0  0  0  0  0  0  0  0  0
  190.6920  175.4780  135.9110 C   0  0  0  0  0  3  0  0  0  0  0  0
  192.8650  176.5400  138.7260 C   0  0  0  0  0  3  0  0  0  0  0  0
  187.1700  178.2540  135.7080 C   0  0  0  0  0  2  0  0  0  0  0  0
  187.9620  178.8130  136.8910 C   0  0  0  0  0  2  0  0  0  0  0  0
  188.9150  177.5380  140.2960 C   0  0  2  0  0  0  0  0  0  0  0  0
  188.7800  178.4070  141.4530 N   0  0  0  0  0  2  0  0  0  0  0  0
  187.5420  178.0480  142.1290 C   0  0  0  0  0  2  0  0  0  0  0  0
  187.8370  177.4120  143.4780 C   0  0  1  0  0  3  0  0  0  0  0  0
  189.2480  177.7410  143.9390 C   0  0  0  0  0  1  0  0  0  0  0  0
  185.5030  178.1880  144.0900 N   0  0  0  0  0  2  0  0  0  0  0  0
  184.4470  178.6310  144.9530 C   0  0  0  0  0  0  0  0  0  0  0  0
  184.6040  178.6780  146.2330 N   0  0  0  0  0  2  0  0  0  0  0  0
  186.8430  177.8680  144.4940 C   0  0  0  0  0  0  0  0  0  0  0  0
  183.1370  179.0060  144.3670 C   0  0  0  0  0  1  0  0  0  0  0  0
  187.2050  177.9850  145.6960 O   0  0  0  0  0  0  0  0  0  0  0  0
  185.2620  177.1060  135.0040 C   0  0  0  0  0  2  0  0  0  0  0  0
  184.0490  176.2730  135.3910 C   0  0  1  0  0  3  0  0  0  0  0  0
  182.7720  177.1060  135.2450 C   0  0  0  0  0  3  0  0  0  0  0  0
  181.6580  176.6650  136.1820 C   0  0  0  0  0  2  0  0  0  0  0  0
  182.5310  177.8400  136.5490 C   0  0  0  0  0  2  0  0  0  0  0  0
  184.0150  174.0660  135.4990 C   0  0  0  0  0  1  0  0  0  0  0  0
  184.0180  175.1280  134.5970 O   0  0  0  0  0  0  0  0  0  0  0  0
  1 14  1  0  0  0  0
  1  9  1  0  0  0  0
  2 17  2  0  0  0  0
  3 15  1  0  0  0  0
  3  8  2  0  0  0  0
  6 12  1  0  0  0  0
  6 20  1  0  0  0  0
  7 13  1  0  0  0  0
  8  2  1  0  0  0  0
  9 12  1  0  0  0  0
 10  1  2  0  0  0  0
 11  9  2  0  0  0  0
 11 17  1  0  0  0  0
 12 20  1  0  0  0  0
 12  4  1  0  0  0  0
 13  5  1  0  0  0  0
 14  5  1  0  0  0  0
 14  6  1  0  0  0  0
 15 11  1  0  0  0  0
 16 10  1  0  0  0  0
 16 15  2  0  0  0  0
 18  7  1  0  0  0  0
 18 19  1  0  0  0  0
 19 14  1  0  0  0  0
 20  4  1  0  0  0  0
 20 21  1  0  0  0  0
 21 22  1  0  0  0  0
 22 23  1  0  0  0  0
 23 24  1  0  0  0  0
 23 28  1  0  0  0  0
 25 28  1  0  0  0  0
 25 26  1  0  0  0  0
 26 27  2  0  0  0  0
 28 30  2  0  0  0  0
 29 26  1  0  0  0  0
 31 32  1  0  0  0  0
 31  7  1  0  0  0  0
 33 32  1  0  0  0  0
 33 34  1  0  0  0  0
 33 35  1  0  0  0  0
 34 35  1  0  0  0  0
 37 32  1  0  0  0  0
 37 36  1  0  0  0  0
M  END
>  <MODEL>
5

>  <REMARK>
 VINA RESULT:      -7.7      3.643      9.917
  Name = 
  8 active torsions:
  status: ('A' for Active; 'I' for Inactive)
    1  A    between atoms: C_3  and  C_17
    2  A    between atoms: C_3  and  C_28
    3  A    between atoms: N_7  and  C_28
    4  A    between atoms: N_7  and  C_31
    5  A    between atoms: C_12  and  C_19
    6  A    between atoms: N_14  and  C_34
    7  A    between atoms: C_19  and  C_34
    8  A    between atoms: C_19  and  O_35
                            x       y       z     vdW  Elec       q    Type
                         _______ _______ _______ _____ _____    ______ ____

>  <TORSDO>
F 8

$$$$
=
 OpenBabel10222420323D

 37 43  0  0  1  0  0  0  0  0999 V2000
  185.3540  178.1780  139.1360 C   0  0  0  0  0  0  0  0  0  0  0  0
  190.1330  177.9330  138.7900 N   0  0  0  0  0  0  0  0  0  0  0  0
  188.7800  177.0980  136.9990 C   0  0  0  0  0  3  0  0  0  0  0  0
  186.9010  177.8230  141.9230 C   0  0  0  0  0  2  0  0  0  0  0  0
  183.3060  177.6720  140.5050 C   0  0  0  0  0  2  0  0  0  0  0  0
  185.0480  179.3600  141.1560 N   0  0  1  0  0  0  0  0  0  0  0  0
  181.6040  178.4430  138.9180 N   0  0  0  0  0  0  0  0  0  0  0  0
  190.0360  177.3550  137.5610 C   0  0  0  0  0  3  0  0  0  0  0  0
  186.5830  178.3730  139.6980 C   0  0  0  0  0  0  0  0  0  0  0  0
  185.2080  177.5850  137.8750 C   0  0  0  0  0  3  0  0  0  0  0  0
  187.7520  178.0420  138.9910 C   0  0  0  0  0  0  0  0  0  0  0  0
  186.4830  178.9830  141.0650 C   0  0  1  0  0  0  0  0  0  0  0  0
  182.3300  177.2700  139.3960 C   0  0  0  0  0  2  0  0  0  0  0  0
  184.3090  178.7450  140.0230 C   0  0  1  0  0  0  0  0  0  0  0  0
  187.6310  177.4430  137.7130 C   0  0  0  0  0  0  0  0  0  0  0  0
  186.3580  177.2080  137.1690 C   0  0  0  0  0  3  0  0  0  0  0  0
  189.0300  178.2760  139.5110 C   0  0  0  0  0  3  0  0  0  0  0  0
  182.5640  179.3370  138.2730 C   0  0  0  0  0  2  0  0  0  0  0  0
  183.5560  179.8750  139.3060 C   0  0  0  0  0  2  0  0  0  0  0  0
  185.5360  178.3770  142.1270 C   0  0  2  0  0  0  0  0  0  0  0  0
  185.5940  179.0610  143.4080 N   0  0  0  0  0  2  0  0  0  0  0  0
  185.4980  178.0500  144.4500 C   0  0  0  0  0  2  0  0  0  0  0  0
  185.9540  178.6160  145.7860 C   0  0  1  0  0  3  0  0  0  0  0  0
  184.8960  178.4040  146.8570 C   0  0  0  0  0  1  0  0  0  0  0  0
  188.3240  177.8860  145.2630 N   0  0  0  0  0  2  0  0  0  0  0  0
  189.6130  177.3160  145.5240 C   0  0  0  0  0  0  0  0  0  0  0  0
  189.9450  176.9260  146.7090 N   0  0  0  0  0  2  0  0  0  0  0  0
  187.2420  177.9890  146.2020 C   0  0  0  0  0  0  0  0  0  0  0  0
  190.5970  177.2070  144.4200 C   0  0  0  0  0  1  0  0  0  0  0  0
  187.3530  177.5360  147.3730 O   0  0  0  0  0  0  0  0  0  0  0  0
  180.7120  177.9720  137.8730 C   0  0  0  0  0  2  0  0  0  0  0  0
  180.9890  178.6810  136.5560 C   0  0  1  0  0  3  0  0  0  0  0  0
  181.1300  177.6560  135.4270 C   0  0  0  0  0  3  0  0  0  0  0  0
  182.4690  177.7350  134.7090 C   0  0  0  0  0  2  0  0  0  0  0  0
  182.2510  176.7020  135.7860 C   0  0  0  0  0  2  0  0  0  0  0  0
  180.5910  180.6960  135.7400 C   0  0  0  0  0  1  0  0  0  0  0  0
  179.9620  179.5900  136.3090 O   0  0  0  0  0  0  0  0  0  0  0  0
  1  9  1  0  0  0  0
  1 14  1  0  0  0  0
  2 17  2  0  0  0  0
  3  8  2  0  0  0  0
  3 15  1  0  0  0  0
  4 20  1  0  0  0  0
  6 20  1  0  0  0  0
  7 13  1  0  0  0  0
  8  2  1  0  0  0  0
  9 12  1  0  0  0  0
 10  1  2  0  0  0  0
 11 17  1  0  0  0  0
 11  9  2  0  0  0  0
 12  6  1  0  0  0  0
 12  4  1  0  0  0  0
 12 20  1  0  0  0  0
 13  5  1  0  0  0  0
 14  5  1  0  0  0  0
 14  6  1  0  0  0  0
 15 11  1  0  0  0  0
 16 15  2  0  0  0  0
 16 10  1  0  0  0  0
 18  7  1  0  0  0  0
 18 19  1  0  0  0  0
 19 14  1  0  0  0  0
 20 21  1  0  0  0  0
 21 22  1  0  0  0  0
 22 23  1  0  0  0  0
 23 28  1  0  0  0  0
 23 24  1  0  0  0  0
 25 26  1  0  0  0  0
 25 28  1  0  0  0  0
 26 27  2  0  0  0  0
 28 30  2  0  0  0  0
 29 26  1  0  0  0  0
 31  7  1  0  0  0  0
 32 31  1  0  0  0  0
 33 35  1  0  0  0  0
 33 32  1  0  0  0  0
 34 33  1  0  0  0  0
 34 35  1  0  0  0  0
 36 37  1  0  0  0  0
 37 32  1  0  0  0  0
M  END
>  <MODEL>
6

>  <REMARK>
 VINA RESULT:      -7.5      4.056      9.777
  Name = 
  8 active torsions:
  status: ('A' for Active; 'I' for Inactive)
    1  A    between atoms: C_3  and  C_17
    2  A    between atoms: C_3  and  C_28
    3  A    between atoms: N_7  and  C_28
    4  A    between atoms: N_7  and  C_31
    5  A    between atoms: C_12  and  C_19
    6  A    between atoms: N_14  and  C_34
    7  A    between atoms: C_19  and  C_34
    8  A    between atoms: C_19  and  O_35
                            x       y       z     vdW  Elec       q    Type
                         _______ _______ _______ _____ _____    ______ ____

>  <TORSDO>
F 8

$$$$
=
 OpenBabel10222420323D

 37 43  0  0  1  0  0  0  0  0999 V2000
  187.2960  178.0190  142.0970 C   0  0  0  0  0  0  0  0  0  0  0  0
  184.2000  179.5150  138.7510 N   0  0  0  0  0  0  0  0  0  0  0  0
  183.3840  178.8980  140.9170 C   0  0  0  0  0  3  0  0  0  0  0  0
  188.1210  177.3260  139.0770 C   0  0  0  0  0  2  0  0  0  0  0  0
  189.1640  176.4440  142.6950 C   0  0  0  0  0  2  0  0  0  0  0  0
  189.3810  178.3140  141.0320 N   0  0  1  0  0  0  0  0  0  0  0  0
  189.4300  177.0680  145.0510 N   0  0  0  0  0  0  0  0  0  0  0  0
  183.1590  179.3660  139.6170 C   0  0  0  0  0  3  0  0  0  0  0  0
  187.0580  178.4230  140.8150 C   0  0  0  0  0  0  0  0  0  0  0  0
  186.2560  177.8510  143.0200 C   0  0  0  0  0  3  0  0  0  0  0  0
  185.7550  178.7480  140.4000 C   0  0  0  0  0  0  0  0  0  0  0  0
  188.3200  178.4900  140.0060 C   0  0  1  0  0  0  0  0  0  0  0  0
  188.7920  176.1190  144.1430 C   0  0  0  0  0  2  0  0  0  0  0  0
  188.7580  177.8860  142.3110 C   0  0  1  0  0  0  0  0  0  0  0  0
  184.6860  178.5890  141.3150 C   0  0  0  0  0  0  0  0  0  0  0  0
  184.9430  178.1290  142.6160 C   0  0  0  0  0  3  0  0  0  0  0  0
  185.4790  179.2170  139.1090 C   0  0  0  0  0  3  0  0  0  0  0  0
  188.8560  178.3890  144.7990 C   0  0  0  0  0  2  0  0  0  0  0  0
  189.2310  178.8650  143.3950 C   0  0  0  0  0  2  0  0  0  0  0  0
  189.3010  177.2940  139.9820 C   0  0  2  0  0  0  0  0  0  0  0  0
  190.4480  177.5070  139.1150 N   0  0  0  0  0  2  0  0  0  0  0  0
  191.3550  176.3860  139.3050 C   0  0  0  0  0  2  0  0  0  0  0  0
  191.6540  175.7110  137.9760 C   0  0  1  0  0  3  0  0  0  0  0  0
  190.9370  176.4140  136.8340 C   0  0  0  0  0  1  0  0  0  0  0  0
  193.8700  174.4800  137.9410 N   0  0  0  0  0  2  0  0  0  0  0  0
  195.2780  174.3120  137.7370 C   0  0  0  0  0  0  0  0  0  0  0  0
  195.9970  175.2520  137.2210 N   0  0  0  0  0  2  0  0  0  0  0  0
  193.1250  175.6890  137.7240 C   0  0  0  0  0  0  0  0  0  0  0  0
  195.9150  173.0190  138.0900 C   0  0  0  0  0  1  0  0  0  0  0  0
  193.6970  176.7450  137.3430 O   0  0  0  0  0  0  0  0  0  0  0  0
  189.0200  176.6880  146.3920 C   0  0  0  0  0  2  0  0  0  0  0  0
  190.1330  176.9410  147.3970 C   0  0  1  0  0  3  0  0  0  0  0  0
  191.4980  176.7440  146.7300 C   0  0  0  0  0  3  0  0  0  0  0  0
  192.4940  176.0040  147.6090 C   0  0  0  0  0  2  0  0  0  0  0  0
  191.7280  175.2570  146.5450 C   0  0  0  0  0  2  0  0  0  0  0  0
  188.7130  178.2450  148.4780 C   0  0  0  0  0  1  0  0  0  0  0  0
  189.9880  178.2270  147.9150 O   0  0  0  0  0  0  0  0  0  0  0  0
  1 14  1  0  0  0  0
  1 10  1  0  0  0  0
  2 17  2  0  0  0  0
  2  8  1  0  0  0  0
  3 15  1  0  0  0  0
  4 20  1  0  0  0  0
  4 12  1  0  0  0  0
  5 13  1  0  0  0  0
  6 14  1  0  0  0  0
  7 31  1  0  0  0  0
  8  3  2  0  0  0  0
  9  1  2  0  0  0  0
 11  9  1  0  0  0  0
 11 15  2  0  0  0  0
 12  9  1  0  0  0  0
 12  6  1  0  0  0  0
 13  7  1  0  0  0  0
 14  5  1  0  0  0  0
 14 19  1  0  0  0  0
 15 16  1  0  0  0  0
 16 10  2  0  0  0  0
 17 11  1  0  0  0  0
 18  7  1  0  0  0  0
 19 18  1  0  0  0  0
 20 12  1  0  0  0  0
 20  6  1  0  0  0  0
 21 22  1  0  0  0  0
 21 20  1  0  0  0  0
 23 22  1  0  0  0  0
 24 23  1  0  0  0  0
 26 25  1  0  0  0  0
 26 29  1  0  0  0  0
 27 26  2  0  0  0  0
 28 25  1  0  0  0  0
 28 23  1  0  0  0  0
 30 28  2  0  0  0  0
 31 32  1  0  0  0  0
 32 37  1  0  0  0  0
 33 32  1  0  0  0  0
 33 34  1  0  0  0  0
 35 33  1  0  0  0  0
 35 34  1  0  0  0  0
 37 36  1  0  0  0  0
M  END
>  <MODEL>
7

>  <REMARK>
 VINA RESULT:      -7.4      1.308      2.062
  Name = 
  8 active torsions:
  status: ('A' for Active; 'I' for Inactive)
    1  A    between atoms: C_3  and  C_17
    2  A    between atoms: C_3  and  C_28
    3  A    between atoms: N_7  and  C_28
    4  A    between atoms: N_7  and  C_31
    5  A    between atoms: C_12  and  C_19
    6  A    between atoms: N_14  and  C_34
    7  A    between atoms: C_19  and  C_34
    8  A    between atoms: C_19  and  O_35
                            x       y       z     vdW  Elec       q    Type
                         _______ _______ _______ _____ _____    ______ ____

>  <TORSDO>
F 8

$$$$
=
 OpenBabel10222420323D

 37 43  0  0  1  0  0  0  0  0999 V2000
  183.7400  178.7340  142.6200 C   0  0  0  0  0  0  0  0  0  0  0  0
  179.6660  179.1850  140.1260 N   0  0  0  0  0  0  0  0  0  0  0  0
  179.5670  178.5770  142.4410 C   0  0  0  0  0  3  0  0  0  0  0  0
  183.9660  178.0050  139.5060 C   0  0  0  0  0  2  0  0  0  0  0  0
  186.0250  177.6920  142.7650 C   0  0  0  0  0  2  0  0  0  0  0  0
  185.3730  179.4170  141.0580 N   0  0  1  0  0  0  0  0  0  0  0  0
  186.6830  178.5540  144.9640 N   0  0  0  0  0  0  0  0  0  0  0  0
  178.9310  178.8700  141.2290 C   0  0  0  0  0  3  0  0  0  0  0  0
  183.1120  178.9640  141.4300 C   0  0  0  0  0  0  0  0  0  0  0  0
  183.0240  178.4060  143.7780 C   0  0  0  0  0  3  0  0  0  0  0  0
  181.7090  178.9410  141.3480 C   0  0  0  0  0  0  0  0  0  0  0  0
  184.0880  179.2550  140.3280 C   0  0  1  0  0  0  0  0  0  0  0  0
  186.1000  177.4110  144.2670 C   0  0  0  0  0  2  0  0  0  0  0  0
  185.1970  178.9630  142.4620 C   0  0  1  0  0  0  0  0  0  0  0  0
  180.9610  178.6140  142.5050 C   0  0  0  0  0  0  0  0  0  0  0  0
  181.6250  178.3360  143.7100 C   0  0  0  0  0  3  0  0  0  0  0  0
  181.0270  179.2240  140.1580 C   0  0  0  0  0  3  0  0  0  0  0  0
  185.7590  179.6800  144.8350 C   0  0  0  0  0  2  0  0  0  0  0  0
  185.6590  180.1120  143.3710 C   0  0  0  0  0  2  0  0  0  0  0  0
  185.2980  178.3230  140.0860 C   0  0  2  0  0  0  0  0  0  0  0  0
  186.1170  178.7250  138.9540 N   0  0  0  0  0  2  0  0  0  0  0  0
  187.4230  178.1040  139.1150 C   0  0  0  0  0  2  0  0  0  0  0  0
  188.1210  177.9720  137.7710 C   0  0  1  0  0  3  0  0  0  0  0  0
  188.9040  179.2320  137.4380 C   0  0  0  0  0  1  0  0  0  0  0  0
  190.4300  176.9590  138.0260 N   0  0  0  0  0  2  0  0  0  0  0  0
  191.4130  175.9170  138.0630 C   0  0  0  0  0  0  0  0  0  0  0  0
  191.0760  174.6750  137.9650 N   0  0  0  0  0  2  0  0  0  0  0  0
  189.0270  176.7860  137.7720 C   0  0  0  0  0  0  0  0  0  0  0  0
  192.8410  176.2700  138.2540 C   0  0  0  0  0  1  0  0  0  0  0  0
  188.5470  175.6480  137.5260 O   0  0  0  0  0  0  0  0  0  0  0  0
  186.7100  178.2020  146.3730 C   0  0  0  0  0  2  0  0  0  0  0  0
  187.9090  177.3230  146.6940 C   0  0  1  0  0  3  0  0  0  0  0  0
  189.2070  178.0500  146.3280 C   0  0  0  0  0  3  0  0  0  0  0  0
  190.3940  177.1130  146.1670 C   0  0  0  0  0  2  0  0  0  0  0  0
  189.6390  177.5900  144.9500 C   0  0  0  0  0  2  0  0  0  0  0  0
  188.0120  178.1870  148.7260 C   0  0  0  0  0  1  0  0  0  0  0  0
  187.8670  176.9800  148.0440 O   0  0  0  0  0  0  0  0  0  0  0  0
  1 10  1  0  0  0  0
  2 17  2  0  0  0  0
  2  8  1  0  0  0  0
  3 15  1  0  0  0  0
  4 20  1  0  0  0  0
  4 12  1  0  0  0  0
  5 13  1  0  0  0  0
  6 14  1  0  0  0  0
  7 31  1  0  0  0  0
  8  3  2  0  0  0  0
  9  1  2  0  0  0  0
 11  9  1  0  0  0  0
 11 15  2  0  0  0  0
 12  6  1  0  0  0  0
 12  9  1  0  0  0  0
 13  7  1  0  0  0  0
 14  1  1  0  0  0  0
 14  5  1  0  0  0  0
 14 19  1  0  0  0  0
 15 16  1  0  0  0  0
 16 10  2  0  0  0  0
 17 11  1  0  0  0  0
 18  7  1  0  0  0  0
 19 18  1  0  0  0  0
 20 12  1  0  0  0  0
 20  6  1  0  0  0  0
 21 22  1  0  0  0  0
 21 20  1  0  0  0  0
 23 28  1  0  0  0  0
 23 22  1  0  0  0  0
 24 23  1  0  0  0  0
 25 26  1  0  0  0  0
 26 29  1  0  0  0  0
 27 26  2  0  0  0  0
 28 25  1  0  0  0  0
 30 28  2  0  0  0  0
 31 32  1  0  0  0  0
 32 37  1  0  0  0  0
 33 32  1  0  0  0  0
 34 33  1  0  0  0  0
 35 34  1  0  0  0  0
 35 33  1  0  0  0  0
 37 36  1  0  0  0  0
M  END
>  <MODEL>
8

>  <REMARK>
 VINA RESULT:      -7.4      2.500      4.668
  Name = 
  8 active torsions:
  status: ('A' for Active; 'I' for Inactive)
    1  A    between atoms: C_3  and  C_17
    2  A    between atoms: C_3  and  C_28
    3  A    between atoms: N_7  and  C_28
    4  A    between atoms: N_7  and  C_31
    5  A    between atoms: C_12  and  C_19
    6  A    between atoms: N_14  and  C_34
    7  A    between atoms: C_19  and  C_34
    8  A    between atoms: C_19  and  O_35
                            x       y       z     vdW  Elec       q    Type
                         _______ _______ _______ _____ _____    ______ ____

>  <TORSDO>
F 8

$$$$
=
 OpenBabel10222420323D

 37 43  0  0  1  0  0  0  0  0999 V2000
  186.8060  178.0590  143.1560 C   0  0  0  0  0  0  0  0  0  0  0  0
  182.3180  179.7340  142.8880 N   0  0  0  0  0  0  0  0  0  0  0  0
  183.0440  178.6290  144.8850 C   0  0  0  0  0  3  0  0  0  0  0  0
  185.5250  178.0470  140.2160 C   0  0  0  0  0  2  0  0  0  0  0  0
  188.6040  176.6540  142.0970 C   0  0  0  0  0  2  0  0  0  0  0  0
  187.7540  178.8110  141.1290 N   0  0  1  0  0  0  0  0  0  0  0  0
  190.3100  176.8620  143.8460 N   0  0  0  0  0  0  0  0  0  0  0  0
  182.0570  179.2950  144.1510 C   0  0  0  0  0  3  0  0  0  0  0  0
  185.8190  178.6580  142.4280 C   0  0  0  0  0  0  0  0  0  0  0  0
  186.5800  177.5910  144.4570 C   0  0  0  0  0  3  0  0  0  0  0  0
  184.5520  178.8840  142.9950 C   0  0  0  0  0  0  0  0  0  0  0  0
  186.2860  179.0350  141.0530 C   0  0  1  0  0  0  0  0  0  0  0  0
  189.2250  176.0220  143.3450 C   0  0  0  0  0  2  0  0  0  0  0  0
  188.0720  178.0780  142.3820 C   0  0  1  0  0  0  0  0  0  0  0  0
  184.2990  178.4220  144.3090 C   0  0  0  0  0  0  0  0  0  0  0  0
  185.3120  177.7670  145.0270 C   0  0  0  0  0  3  0  0  0  0  0  0
  183.5310  179.5430  142.2990 C   0  0  0  0  0  3  0  0  0  0  0  0
  189.7290  178.1220  144.3080 C   0  0  0  0  0  2  0  0  0  0  0  0
  189.1400  178.8930  143.1260 C   0  0  0  0  0  2  0  0  0  0  0  0
  187.0100  178.0010  140.1600 C   0  0  2  0  0  0  0  0  0  0  0  0
  187.3550  178.5160  138.8460 N   0  0  0  0  0  2  0  0  0  0  0  0
  187.3960  177.3870  137.9290 C   0  0  0  0  0  2  0  0  0  0  0  0
  188.5640  177.5240  136.9650 C   0  0  1  0  0  3  0  0  0  0  0  0
  189.2390  178.8780  137.1170 C   0  0  0  0  0  1  0  0  0  0  0  0
  190.8720  176.7400  137.6610 N   0  0  0  0  0  2  0  0  0  0  0  0
  191.9170  175.7950  137.9230 C   0  0  0  0  0  0  0  0  0  0  0  0
  191.7050  174.5250  137.8450 N   0  0  0  0  0  2  0  0  0  0  0  0
  189.5520  176.4280  137.1870 C   0  0  0  0  0  0  0  0  0  0  0  0
  193.2570  176.2860  138.3270 C   0  0  0  0  0  1  0  0  0  0  0  0
  189.2170  175.2400  136.9350 O   0  0  0  0  0  0  0  0  0  0  0  0
  190.8330  176.1920  145.0240 C   0  0  0  0  0  2  0  0  0  0  0  0
  190.7790  177.1030  146.2410 C   0  0  1  0  0  3  0  0  0  0  0  0
  189.7610  176.5690  147.2520 C   0  0  0  0  0  3  0  0  0  0  0  0
  189.1380  177.6600  148.1100 C   0  0  0  0  0  2  0  0  0  0  0  0
  188.3990  177.1360  146.9030 C   0  0  0  0  0  2  0  0  0  0  0  0
  192.3090  175.9400  147.3320 C   0  0  0  0  0  1  0  0  0  0  0  0
  192.0570  177.1990  146.7890 O   0  0  0  0  0  0  0  0  0  0  0  0
  1 10  1  0  0  0  0
  2  8  1  0  0  0  0
  4 12  1  0  0  0  0
  5 14  1  0  0  0  0
  5 13  1  0  0  0  0
  6 14  1  0  0  0  0
  7 18  1  0  0  0  0
  7 31  1  0  0  0  0
  8  3  2  0  0  0  0
  9 11  1  0  0  0  0
  9  1  2  0  0  0  0
 10 16  2  0  0  0  0
 11 15  2  0  0  0  0
 12  6  1  0  0  0  0
 12  9  1  0  0  0  0
 13  7  1  0  0  0  0
 14 19  1  0  0  0  0
 14  1  1  0  0  0  0
 15  3  1  0  0  0  0
 15 16  1  0  0  0  0
 17  2  2  0  0  0  0
 17 11  1  0  0  0  0
 19 18  1  0  0  0  0
 20  4  1  0  0  0  0
 20 12  1  0  0  0  0
 20  6  1  0  0  0  0
 21 20  1  0  0  0  0
 22 21  1  0  0  0  0
 23 24  1  0  0  0  0
 23 28  1  0  0  0  0
 23 22  1  0  0  0  0
 25 26  1  0  0  0  0
 26 29  1  0  0  0  0
 27 26  2  0  0  0  0
 28 25  1  0  0  0  0
 30 28  2  0  0  0  0
 31 32  1  0  0  0  0
 32 37  1  0  0  0  0
 32 33  1  0  0  0  0
 33 34  1  0  0  0  0
 35 33  1  0  0  0  0
 35 34  1  0  0  0  0
 37 36  1  0  0  0  0
M  END
>  <MODEL>
9

>  <REMARK>
 VINA RESULT:      -7.3      1.875      2.772
  Name = 
  8 active torsions:
  status: ('A' for Active; 'I' for Inactive)
    1  A    between atoms: C_3  and  C_17
    2  A    between atoms: C_3  and  C_28
    3  A    between atoms: N_7  and  C_28
    4  A    between atoms: N_7  and  C_31
    5  A    between atoms: C_12  and  C_19
    6  A    between atoms: N_14  and  C_34
    7  A    between atoms: C_19  and  C_34
    8  A    between atoms: C_19  and  O_35
                            x       y       z     vdW  Elec       q    Type
                         _______ _______ _______ _____ _____    ______ ____

>  <TORSDO>
F 8

$$$$
