=
 OpenBabel10222419473D

 33 36  0  0  1  0  0  0  0  0999 V2000
  188.7250  177.5480  144.9000 C   0  0  0  0  0  0  0  0  0  0  0  0
  188.8110  177.7850  146.3810 C   0  0  0  0  0  2  0  0  0  0  0  0
  190.9080  176.5480  146.8170 C   0  0  0  0  0  0  0  0  0  0  0  0
  189.6080  176.7190  147.0500 C   0  0  0  0  0  3  0  0  0  0  0  0
  189.8260  177.6500  144.1150 C   0  0  0  0  0  0  0  0  0  0  0  0
  191.5930  175.5890  147.5490 O   0  0  0  0  0  1  0  0  0  0  0  0
  191.6600  177.3570  145.8410 C   0  0  0  0  0  3  0  0  0  0  0  0
  191.1880  177.8430  144.6840 C   0  0  0  0  0  3  0  0  0  0  0  0
  188.7170  178.2090  140.5120 C   0  0  0  0  0  3  0  0  0  0  0  0
  190.6490  176.7650  141.9210 C   0  0  0  0  0  3  0  0  0  0  0  0
  189.6140  177.3880  139.8220 C   0  0  0  0  0  0  0  0  0  0  0  0
  190.5830  176.6710  140.5290 C   0  0  0  0  0  3  0  0  0  0  0  0
  188.7880  178.3060  141.9040 C   0  0  0  0  0  3  0  0  0  0  0  0
  189.7440  177.5730  142.6290 C   0  0  0  0  0  0  0  0  0  0  0  0
  189.5120  177.2360  138.3430 C   0  0  0  0  0  2  0  0  0  0  0  0
  189.6790  175.8440  137.9620 N   0  0  0  0  0  2  0  0  0  0  0  0
  190.8580  175.7740  137.2070 N   0  0  0  0  0  2  0  0  0  0  0  0
  192.9100  174.6400  137.7130 C   0  0  2  0  0  3  0  0  0  0  0  0
  192.4040  174.2730  136.3920 C   0  0  2  0  0  3  0  0  0  0  0  0
  191.4430  174.5250  137.4770 N   0  0  0  0  0  0  0  0  0  0  0  0
  192.5500  172.7810  136.1930 C   0  0  0  0  0  1  0  0  0  0  0  0
  193.9620  176.6250  136.5760 O   0  0  0  0  0  0  0  0  0  0  0  0
  193.4720  176.6920  138.8150 O   0  0  0  0  0  1  0  0  0  0  0  0
  193.4430  176.0500  137.7320 C   0  0  0  0  0  0  0  0  0  0  0  0
  187.4520  177.2090  144.3250 N   0  0  0  0  0  2  0  0  0  0  0  0
  185.4930  177.5860  145.7910 C   0  0  0  0  0  2  0  0  0  0  0  0
  185.3820  177.9120  143.1940 C   0  0  0  0  0  2  0  0  0  0  0  0
  184.4900  178.6260  146.1960 C   0  0  0  0  0  2  0  0  0  0  0  0
  183.6280  178.3850  141.6510 N   0  0  0  0  0  1  0  0  0  0  0  0
  183.3950  179.2190  143.9830 C   0  0  0  0  0  3  0  0  0  0  0  0
  183.7820  179.0490  145.2030 C   0  0  0  0  0  2  0  0  0  0  0  0
  184.1810  178.4970  142.9570 C   0  0  0  0  0  0  0  0  0  0  0  0
  186.2160  177.9700  144.4760 C   0  0  2  0  0  3  0  0  0  0  0  0
  1  2  1  0  0  0  0
  2  4  1  0  0  0  0
  3  4  2  0  0  0  0
  3  6  1  0  0  0  0
  5  8  1  0  0  0  0
  5  1  2  0  0  0  0
  7  3  1  0  0  0  0
  8  7  2  0  0  0  0
  9 13  1  0  0  0  0
 10 14  1  0  0  0  0
 11  9  2  0  0  0  0
 11 12  1  0  0  0  0
 12 10  2  0  0  0  0
 13 14  2  0  0  0  0
 14  5  1  0  0  0  0
 15 11  1  0  0  0  0
 16 15  1  0  0  0  0
 17 20  1  0  0  0  0
 17 16  1  0  0  0  0
 18 24  1  6  0  0  0
 19 21  1  1  0  0  0
 19 20  1  0  0  0  0
 19 18  1  0  0  0  0
 20 18  1  0  0  0  0
 22 24  2  0  0  0  0
 24 23  1  0  0  0  0
 25  1  1  0  0  0  0
 26 28  1  0  0  0  0
 27 33  1  0  0  0  0
 29 32  1  0  0  0  0
 30 31  1  0  0  0  0
 31 28  1  0  0  0  0
 32 27  1  0  0  0  0
 32 30  2  0  0  0  0
 33 25  1  6  0  0  0
 33 26  1  0  0  0  0
M  END
>  <MODEL>
1

>  <REMARK>
 VINA RESULT:      -9.2      0.000      0.000
  Name = 
  8 active torsions:
  status: ('A' for Active; 'I' for Inactive)
    1  A    between atoms: C_3  and  C_29
    2  A    between atoms: C_4  and  N_27
    3  A    between atoms: C_7  and  C_9
    4  A    between atoms: C_7  and  N_20
    5  A    between atoms: N_17  and  N_21
    6  A    between atoms: N_20  and  N_21
    7  A    between atoms: C_22  and  C_32
    8  A    between atoms: N_27  and  C_30
                            x       y       z     vdW  Elec       q    Type
                         _______ _______ _______ _____ _____    ______ ____

>  <TORSDO>
F 8

$$$$
=
 OpenBabel10222419473D

 33 36  0  0  1  0  0  0  0  0999 V2000
  188.7130  177.5740  144.7290 C   0  0  0  0  0  0  0  0  0  0  0  0
  188.8500  177.8200  146.2040 C   0  0  0  0  0  2  0  0  0  0  0  0
  190.9930  176.6390  146.5640 C   0  0  0  0  0  0  0  0  0  0  0  0
  189.6990  176.7770  146.8460 C   0  0  0  0  0  3  0  0  0  0  0  0
  189.7790  177.7010  143.9010 C   0  0  0  0  0  0  0  0  0  0  0  0
  191.7300  175.7010  147.2720 O   0  0  0  0  0  1  0  0  0  0  0  0
  191.6850  177.4630  145.5560 C   0  0  0  0  0  3  0  0  0  0  0  0
  191.1570  177.9320  144.4170 C   0  0  0  0  0  3  0  0  0  0  0  0
  190.2520  176.6370  140.2720 C   0  0  0  0  0  3  0  0  0  0  0  0
  188.7430  178.4640  141.7520 C   0  0  0  0  0  3  0  0  0  0  0  0
  189.3640  177.4980  139.6200 C   0  0  0  0  0  0  0  0  0  0  0  0
  188.6070  178.4070  140.3630 C   0  0  0  0  0  3  0  0  0  0  0  0
  190.3830  176.6910  141.6620 C   0  0  0  0  0  3  0  0  0  0  0  0
  189.6420  177.6160  142.4190 C   0  0  0  0  0  0  0  0  0  0  0  0
  189.2570  177.4860  138.1340 C   0  0  0  0  0  2  0  0  0  0  0  0
  188.9340  176.1520  137.6580 N   0  0  0  0  0  2  0  0  0  0  0  0
  187.5360  176.0810  137.5800 N   0  0  0  0  0  2  0  0  0  0  0  0
  186.0080  177.2920  136.1840 C   0  0  2  0  0  3  0  0  0  0  0  0
  185.8280  175.8480  136.0530 C   0  0  2  0  0  3  0  0  0  0  0  0
  187.1850  176.3810  136.2530 N   0  0  0  0  0  0  0  0  0  0  0  0
  185.6440  175.4930  134.5940 C   0  0  0  0  0  1  0  0  0  0  0  0
  184.4510  177.1680  138.1590 O   0  0  0  0  0  1  0  0  0  0  0  0
  186.0270  178.8270  138.0240 O   0  0  0  0  0  0  0  0  0  0  0  0
  185.5130  177.7950  137.5160 C   0  0  0  0  0  0  0  0  0  0  0  0
  187.4280  177.2000  144.2040 N   0  0  0  0  0  2  0  0  0  0  0  0
  185.4700  177.6170  145.6610 C   0  0  0  0  0  2  0  0  0  0  0  0
  185.3600  177.8810  143.0570 C   0  0  0  0  0  2  0  0  0  0  0  0
  184.4690  178.6680  146.0410 C   0  0  0  0  0  2  0  0  0  0  0  0
  183.6070  178.3210  141.5020 N   0  0  0  0  0  1  0  0  0  0  0  0
  183.3750  179.2110  143.8140 C   0  0  0  0  0  3  0  0  0  0  0  0
  183.7630  179.0690  145.0380 C   0  0  0  0  0  2  0  0  0  0  0  0
  184.1610  178.4630  142.8050 C   0  0  0  0  0  0  0  0  0  0  0  0
  186.1930  177.9670  144.3370 C   0  0  2  0  0  3  0  0  0  0  0  0
  1  2  1  0  0  0  0
  2  4  1  0  0  0  0
  3  4  2  0  0  0  0
  3  6  1  0  0  0  0
  5  8  1  0  0  0  0
  5  1  2  0  0  0  0
  7  3  1  0  0  0  0
  8  7  2  0  0  0  0
  9 13  1  0  0  0  0
 10 14  1  0  0  0  0
 11  9  2  0  0  0  0
 11 12  1  0  0  0  0
 12 10  2  0  0  0  0
 13 14  2  0  0  0  0
 14  5  1  0  0  0  0
 15 11  1  0  0  0  0
 16 15  1  0  0  0  0
 17 16  1  0  0  0  0
 18 20  1  0  0  0  0
 18 24  1  1  0  0  0
 19 21  1  6  0  0  0
 19 18  1  0  0  0  0
 19 20  1  0  0  0  0
 20 17  1  0  0  0  0
 24 23  2  0  0  0  0
 24 22  1  0  0  0  0
 25  1  1  0  0  0  0
 26 28  1  0  0  0  0
 27 33  1  0  0  0  0
 29 32  1  0  0  0  0
 30 31  1  0  0  0  0
 31 28  1  0  0  0  0
 32 27  1  0  0  0  0
 32 30  2  0  0  0  0
 33 25  1  6  0  0  0
 33 26  1  0  0  0  0
M  END
>  <MODEL>
2

>  <REMARK>
 VINA RESULT:      -9.1      2.729      3.652
  Name = 
  8 active torsions:
  status: ('A' for Active; 'I' for Inactive)
    1  A    between atoms: C_3  and  C_29
    2  A    between atoms: C_4  and  N_27
    3  A    between atoms: C_7  and  C_9
    4  A    between atoms: C_7  and  N_20
    5  A    between atoms: N_17  and  N_21
    6  A    between atoms: N_20  and  N_21
    7  A    between atoms: C_22  and  C_32
    8  A    between atoms: N_27  and  C_30
                            x       y       z     vdW  Elec       q    Type
                         _______ _______ _______ _____ _____    ______ ____

>  <TORSDO>
F 8

$$$$
=
 OpenBabel10222419473D

 33 36  0  0  1  0  0  0  0  0999 V2000
  188.3180  177.6560  144.7840 C   0  0  0  0  0  0  0  0  0  0  0  0
  189.5630  177.0550  145.3720 C   0  0  0  0  0  2  0  0  0  0  0  0
  189.2530  177.8140  147.7060 C   0  0  0  0  0  0  0  0  0  0  0  0
  189.9880  177.7930  146.5950 C   0  0  0  0  0  3  0  0  0  0  0  0
  187.1330  177.5800  145.4390 C   0  0  0  0  0  0  0  0  0  0  0  0
  189.7650  178.4500  148.8280 O   0  0  0  0  0  1  0  0  0  0  0  0
  187.9350  177.1600  147.8070 C   0  0  0  0  0  3  0  0  0  0  0  0
  187.0300  177.0490  146.8260 C   0  0  0  0  0  3  0  0  0  0  0  0
  184.4160  178.3090  142.8680 C   0  0  0  0  0  3  0  0  0  0  0  0
  184.8550  178.6080  145.6100 C   0  0  0  0  0  3  0  0  0  0  0  0
  183.4350  178.9000  143.6700 C   0  0  0  0  0  0  0  0  0  0  0  0
  183.6560  179.0440  145.0430 C   0  0  0  0  0  3  0  0  0  0  0  0
  185.6130  177.8690  143.4380 C   0  0  0  0  0  3  0  0  0  0  0  0
  185.8560  178.0270  144.8140 C   0  0  0  0  0  0  0  0  0  0  0  0
  182.1780  179.4210  143.0640 C   0  0  0  0  0  2  0  0  0  0  0  0
  181.6370  178.4650  142.1130 N   0  0  0  0  0  2  0  0  0  0  0  0
  181.7660  179.0440  140.8430 N   0  0  0  0  0  2  0  0  0  0  0  0
  183.1160  178.3360  138.9910 C   0  0  2  0  0  3  0  0  0  0  0  0
  181.7200  178.5250  138.6000 C   0  0  2  0  0  3  0  0  0  0  0  0
  182.0180  177.9970  139.9400 N   0  0  0  0  0  0  0  0  0  0  0  0
  181.2900  177.3860  137.7020 C   0  0  0  0  0  1  0  0  0  0  0  0
  183.2560  180.8410  138.7820 O   0  0  0  0  0  0  0  0  0  0  0  0
  184.9070  179.6700  139.8580 O   0  0  0  0  0  1  0  0  0  0  0  0
  183.8010  179.6520  139.2550 C   0  0  0  0  0  0  0  0  0  0  0  0
  188.4010  178.3150  143.5090 N   0  0  0  0  0  2  0  0  0  0  0  0
  190.6410  178.1490  142.4680 C   0  0  0  0  0  2  0  0  0  0  0  0
  188.4420  178.2730  141.0490 C   0  0  0  0  0  2  0  0  0  0  0  0
  191.4650  177.3040  141.5410 C   0  0  0  0  0  2  0  0  0  0  0  0
  187.9750  178.4500  138.7180 N   0  0  0  0  0  1  0  0  0  0  0  0
  190.0850  177.3270  139.4090 C   0  0  0  0  0  3  0  0  0  0  0  0
  190.9500  177.2110  140.3610 C   0  0  0  0  0  2  0  0  0  0  0  0
  188.8230  178.0130  139.7730 C   0  0  0  0  0  0  0  0  0  0  0  0
  189.1310  177.8310  142.3420 C   0  0  2  0  0  3  0  0  0  0  0  0
  1  2  1  0  0  0  0
  1  5  2  0  0  0  0
  2  4  1  0  0  0  0
  3  7  1  0  0  0  0
  3  6  1  0  0  0  0
  4  3  2  0  0  0  0
  5  8  1  0  0  0  0
  8  7  2  0  0  0  0
  9 13  2  0  0  0  0
  9 11  1  0  0  0  0
 11 12  2  0  0  0  0
 12 10  1  0  0  0  0
 13 14  1  0  0  0  0
 14  5  1  0  0  0  0
 14 10  2  0  0  0  0
 15 11  1  0  0  0  0
 16 15  1  0  0  0  0
 17 16  1  0  0  0  0
 18 24  1  1  0  0  0
 18 20  1  0  0  0  0
 19 21  1  6  0  0  0
 19 18  1  0  0  0  0
 19 20  1  0  0  0  0
 20 17  1  0  0  0  0
 22 24  2  0  0  0  0
 24 23  1  0  0  0  0
 25  1  1  0  0  0  0
 27 33  1  0  0  0  0
 28 26  1  0  0  0  0
 29 32  1  0  0  0  0
 30 32  2  0  0  0  0
 30 31  1  0  0  0  0
 31 28  1  0  0  0  0
 32 27  1  0  0  0  0
 33 26  1  0  0  0  0
 33 25  1  1  0  0  0
M  END
>  <MODEL>
3

>  <REMARK>
 VINA RESULT:      -9.0      3.382      7.314
  Name = 
  8 active torsions:
  status: ('A' for Active; 'I' for Inactive)
    1  A    between atoms: C_3  and  C_29
    2  A    between atoms: C_4  and  N_27
    3  A    between atoms: C_7  and  C_9
    4  A    between atoms: C_7  and  N_20
    5  A    between atoms: N_17  and  N_21
    6  A    between atoms: N_20  and  N_21
    7  A    between atoms: C_22  and  C_32
    8  A    between atoms: N_27  and  C_30
                            x       y       z     vdW  Elec       q    Type
                         _______ _______ _______ _____ _____    ______ ____

>  <TORSDO>
F 8

$$$$
=
 OpenBabel10222419473D

 33 36  0  0  1  0  0  0  0  0999 V2000
  188.8240  177.6860  144.4520 C   0  0  0  0  0  0  0  0  0  0  0  0
  189.1370  177.9320  145.9010 C   0  0  0  0  0  2  0  0  0  0  0  0
  191.3620  176.8540  145.9690 C   0  0  0  0  0  0  0  0  0  0  0  0
  190.1100  176.9290  146.4170 C   0  0  0  0  0  3  0  0  0  0  0  0
  189.7670  177.8680  143.4960 C   0  0  0  0  0  0  0  0  0  0  0  0
  192.2280  175.9500  146.5670 O   0  0  0  0  0  1  0  0  0  0  0  0
  191.8800  177.7150  144.8900 C   0  0  0  0  0  3  0  0  0  0  0  0
  191.1870  178.1620  143.8330 C   0  0  0  0  0  3  0  0  0  0  0  0
  189.8140  176.8390  139.8270 C   0  0  0  0  0  3  0  0  0  0  0  0
  188.4320  178.5930  141.5050 C   0  0  0  0  0  3  0  0  0  0  0  0
  188.8140  177.6630  139.3020 C   0  0  0  0  0  0  0  0  0  0  0  0
  188.1210  178.5360  140.1440 C   0  0  0  0  0  3  0  0  0  0  0  0
  190.1200  176.8930  141.1890 C   0  0  0  0  0  3  0  0  0  0  0  0
  189.4450  177.7820  142.0430 C   0  0  0  0  0  0  0  0  0  0  0  0
  188.5180  177.6520  137.8420 C   0  0  0  0  0  2  0  0  0  0  0  0
  187.3500  178.4660  137.5530 N   0  0  0  0  0  2  0  0  0  0  0  0
  186.5120  177.6920  136.7390 N   0  0  0  0  0  2  0  0  0  0  0  0
  184.8020  176.1250  137.3490 C   0  0  2  0  0  3  0  0  0  0  0  0
  184.2940  177.1480  136.4370 C   0  0  2  0  0  3  0  0  0  0  0  0
  185.3040  177.5250  137.4380 N   0  0  0  0  0  0  0  0  0  0  0  0
  182.9330  177.6110  136.9070 C   0  0  0  0  0  1  0  0  0  0  0  0
  185.6020  174.9390  135.2770 O   0  0  0  0  0  0  0  0  0  0  0  0
  186.5710  174.5100  137.3100 O   0  0  0  0  0  1  0  0  0  0  0  0
  185.7230  175.1620  136.6450 C   0  0  0  0  0  0  0  0  0  0  0  0
  187.5010  177.2530  144.0940 N   0  0  0  0  0  2  0  0  0  0  0  0
  185.6310  177.5480  145.6900 C   0  0  0  0  0  2  0  0  0  0  0  0
  185.3520  177.9490  143.1160 C   0  0  0  0  0  2  0  0  0  0  0  0
  184.6380  178.5550  146.1890 C   0  0  0  0  0  2  0  0  0  0  0  0
  183.4970  178.4340  141.7010 N   0  0  0  0  0  1  0  0  0  0  0  0
  183.3950  179.1930  144.0680 C   0  0  0  0  0  3  0  0  0  0  0  0
  183.8620  178.9940  145.2550 C   0  0  0  0  0  2  0  0  0  0  0  0
  184.1290  178.5170  142.9720 C   0  0  0  0  0  0  0  0  0  0  0  0
  186.2630  177.9850  144.3450 C   0  0  2  0  0  3  0  0  0  0  0  0
  1  2  1  0  0  0  0
  2  4  1  0  0  0  0
  3  4  2  0  0  0  0
  3  6  1  0  0  0  0
  5  8  1  0  0  0  0
  5  1  2  0  0  0  0
  7  3  1  0  0  0  0
  8  7  2  0  0  0  0
  9 13  1  0  0  0  0
 10 14  1  0  0  0  0
 11  9  2  0  0  0  0
 11 12  1  0  0  0  0
 12 10  2  0  0  0  0
 13 14  2  0  0  0  0
 14  5  1  0  0  0  0
 15 11  1  0  0  0  0
 16 15  1  0  0  0  0
 17 20  1  0  0  0  0
 17 16  1  0  0  0  0
 18 24  1  6  0  0  0
 18 20  1  0  0  0  0
 19 21  1  1  0  0  0
 19 18  1  0  0  0  0
 19 20  1  0  0  0  0
 22 24  2  0  0  0  0
 24 23  1  0  0  0  0
 25  1  1  0  0  0  0
 26 28  1  0  0  0  0
 27 33  1  0  0  0  0
 29 32  1  0  0  0  0
 30 31  1  0  0  0  0
 31 28  1  0  0  0  0
 32 27  1  0  0  0  0
 32 30  2  0  0  0  0
 33 25  1  6  0  0  0
 33 26  1  0  0  0  0
M  END
>  <MODEL>
4

>  <REMARK>
 VINA RESULT:      -8.9      3.033      4.142
  Name = 
  8 active torsions:
  status: ('A' for Active; 'I' for Inactive)
    1  A    between atoms: C_3  and  C_29
    2  A    between atoms: C_4  and  N_27
    3  A    between atoms: C_7  and  C_9
    4  A    between atoms: C_7  and  N_20
    5  A    between atoms: N_17  and  N_21
    6  A    between atoms: N_20  and  N_21
    7  A    between atoms: C_22  and  C_32
    8  A    between atoms: N_27  and  C_30
                            x       y       z     vdW  Elec       q    Type
                         _______ _______ _______ _____ _____    ______ ____

>  <TORSDO>
F 8

$$$$
=
 OpenBabel10222419473D

 33 36  0  0  1  0  0  0  0  0999 V2000
  185.3410  178.9720  140.8320 C   0  0  0  0  0  0  0  0  0  0  0  0
  184.6530  179.2670  139.5300 C   0  0  0  0  0  2  0  0  0  0  0  0
  183.1790  177.2830  139.4500 C   0  0  0  0  0  0  0  0  0  0  0  0
  184.1420  178.0180  138.8980 C   0  0  0  0  0  3  0  0  0  0  0  0
  184.6400  178.5240  141.9030 C   0  0  0  0  0  0  0  0  0  0  0  0
  182.7000  176.1840  138.7520 O   0  0  0  0  0  1  0  0  0  0  0  0
  182.5730  177.6050  140.7560 C   0  0  0  0  0  3  0  0  0  0  0  0
  183.2010  178.1520  141.8050 C   0  0  0  0  0  3  0  0  0  0  0  0
  185.4760  179.0140  145.5880 C   0  0  0  0  0  3  0  0  0  0  0  0
  186.2660  177.4060  143.4450 C   0  0  0  0  0  3  0  0  0  0  0  0
  186.4830  178.0600  145.7660 C   0  0  0  0  0  0  0  0  0  0  0  0
  186.8730  177.2540  144.6940 C   0  0  0  0  0  3  0  0  0  0  0  0
  184.8670  179.1610  144.3400 C   0  0  0  0  0  3  0  0  0  0  0  0
  185.2650  178.3710  143.2470 C   0  0  0  0  0  0  0  0  0  0  0  0
  187.1760  177.9320  147.0790 C   0  0  0  0  0  2  0  0  0  0  0  0
  188.0640  176.7830  147.0760 N   0  0  0  0  0  2  0  0  0  0  0  0
  189.3720  177.2860  147.1040 N   0  0  0  0  0  2  0  0  0  0  0  0
  191.2910  176.4520  145.9310 C   0  0  2  0  0  3  0  0  0  0  0  0
  191.1290  177.8930  145.7440 C   0  0  2  0  0  3  0  0  0  0  0  0
  189.9280  177.0480  145.8360 N   0  0  0  0  0  0  0  0  0  0  0  0
  191.3810  178.2440  144.2940 C   0  0  0  0  0  1  0  0  0  0  0  0
  192.2580  177.1120  148.1600 O   0  0  0  0  0  1  0  0  0  0  0  0
  191.7110  174.9280  147.7310 O   0  0  0  0  0  0  0  0  0  0  0  0
  191.7440  176.1220  147.3300 C   0  0  0  0  0  0  0  0  0  0  0  0
  186.7610  179.1730  140.9270 N   0  0  0  0  0  2  0  0  0  0  0  0
  188.9780  178.1890  141.4240 C   0  0  0  0  0  2  0  0  0  0  0  0
  188.1320  178.5690  138.9740 C   0  0  0  0  0  2  0  0  0  0  0  0
  189.8210  176.9700  141.1890 C   0  0  0  0  0  2  0  0  0  0  0  0
  189.1200  178.3350  136.8180 N   0  0  0  0  0  1  0  0  0  0  0  0
  189.9530  176.8780  138.6550 C   0  0  0  0  0  3  0  0  0  0  0  0
  190.0460  176.7540  139.9370 C   0  0  0  0  0  2  0  0  0  0  0  0
  189.0320  177.9370  138.1810 C   0  0  0  0  0  0  0  0  0  0  0  0
  187.7890  178.2630  140.4330 C   0  0  2  0  0  3  0  0  0  0  0  0
  1 25  1  0  0  0  0
  1  5  2  0  0  0  0
  2  1  1  0  0  0  0
  3  7  1  0  0  0  0
  4  3  2  0  0  0  0
  4  2  1  0  0  0  0
  5 14  1  0  0  0  0
  6  3  1  0  0  0  0
  7  8  2  0  0  0  0
  8  5  1  0  0  0  0
  9 11  1  0  0  0  0
 10 12  1  0  0  0  0
 11 15  1  0  0  0  0
 12 11  2  0  0  0  0
 13  9  2  0  0  0  0
 14 10  2  0  0  0  0
 14 13  1  0  0  0  0
 16 15  1  0  0  0  0
 16 17  1  0  0  0  0
 18 24  1  1  0  0  0
 19 21  1  6  0  0  0
 19 20  1  0  0  0  0
 19 18  1  0  0  0  0
 20 18  1  0  0  0  0
 20 17  1  0  0  0  0
 24 23  2  0  0  0  0
 24 22  1  0  0  0  0
 27 33  1  0  0  0  0
 28 26  1  0  0  0  0
 29 32  1  0  0  0  0
 30 31  1  0  0  0  0
 31 28  1  0  0  0  0
 32 30  2  0  0  0  0
 32 27  1  0  0  0  0
 33 25  1  1  0  0  0
 33 26  1  0  0  0  0
M  END
>  <MODEL>
5

>  <REMARK>
 VINA RESULT:      -8.9      3.404      8.158
  Name = 
  8 active torsions:
  status: ('A' for Active; 'I' for Inactive)
    1  A    between atoms: C_3  and  C_29
    2  A    between atoms: C_4  and  N_27
    3  A    between atoms: C_7  and  C_9
    4  A    between atoms: C_7  and  N_20
    5  A    between atoms: N_17  and  N_21
    6  A    between atoms: N_20  and  N_21
    7  A    between atoms: C_22  and  C_32
    8  A    between atoms: N_27  and  C_30
                            x       y       z     vdW  Elec       q    Type
                         _______ _______ _______ _____ _____    ______ ____

>  <TORSDO>
F 8

$$$$
=
 OpenBabel10222419473D

 33 36  0  0  1  0  0  0  0  0999 V2000
  188.7720  177.6070  143.8910 C   0  0  0  0  0  0  0  0  0  0  0  0
  188.9220  177.9380  145.3480 C   0  0  0  0  0  2  0  0  0  0  0  0
  191.2510  177.1620  145.6490 C   0  0  0  0  0  0  0  0  0  0  0  0
  189.9650  177.0860  145.9870 C   0  0  0  0  0  3  0  0  0  0  0  0
  189.7660  177.8810  143.0100 C   0  0  0  0  0  0  0  0  0  0  0  0
  192.1680  176.3970  146.3560 O   0  0  0  0  0  1  0  0  0  0  0  0
  191.7480  178.0490  144.5820 C   0  0  0  0  0  3  0  0  0  0  0  0
  191.1010  178.3680  143.4530 C   0  0  0  0  0  3  0  0  0  0  0  0
  188.5110  178.3060  139.4360 C   0  0  0  0  0  3  0  0  0  0  0  0
  190.3530  176.7540  140.8520 C   0  0  0  0  0  3  0  0  0  0  0  0
  189.2700  177.3410  138.7670 C   0  0  0  0  0  0  0  0  0  0  0  0
  190.1940  176.5690  139.4760 C   0  0  0  0  0  3  0  0  0  0  0  0
  188.6760  178.4930  140.8110 C   0  0  0  0  0  3  0  0  0  0  0  0
  189.5870  177.7090  141.5400 C   0  0  0  0  0  0  0  0  0  0  0  0
  189.0630  177.0960  137.3120 C   0  0  0  0  0  2  0  0  0  0  0  0
  188.6560  175.7210  137.0800 N   0  0  0  0  0  2  0  0  0  0  0  0
  187.2770  175.6630  137.3290 N   0  0  0  0  0  2  0  0  0  0  0  0
  185.3900  174.8790  136.0740 C   0  0  2  0  0  3  0  0  0  0  0  0
  185.5900  174.0960  137.2910 C   0  0  2  0  0  3  0  0  0  0  0  0
  186.7680  174.5990  136.5670 N   0  0  0  0  0  0  0  0  0  0  0  0
  185.4060  172.6270  136.9800 C   0  0  0  0  0  1  0  0  0  0  0  0
  184.1360  176.4990  137.5370 O   0  0  0  0  0  1  0  0  0  0  0  0
  185.0610  177.1960  135.5590 O   0  0  0  0  0  0  0  0  0  0  0  0
  184.8740  176.2610  136.3820 C   0  0  0  0  0  0  0  0  0  0  0  0
  187.5520  176.9940  143.4400 N   0  0  0  0  0  2  0  0  0  0  0  0
  185.7120  178.3680  142.5140 C   0  0  0  0  0  2  0  0  0  0  0  0
  186.0990  178.0990  145.0910 C   0  0  0  0  0  2  0  0  0  0  0  0
  184.2200  178.5220  142.5210 C   0  0  0  0  0  2  0  0  0  0  0  0
  185.1190  179.0790  147.0310 N   0  0  0  0  0  1  0  0  0  0  0  0
  183.7180  178.8750  144.9850 C   0  0  0  0  0  3  0  0  0  0  0  0
  183.7470  178.7500  143.7000 C   0  0  0  0  0  2  0  0  0  0  0  0
  185.0090  178.6550  145.6770 C   0  0  0  0  0  0  0  0  0  0  0  0
  186.2020  177.4890  143.6920 C   0  0  2  0  0  3  0  0  0  0  0  0
  1  2  1  0  0  0  0
  2  4  1  0  0  0  0
  3  4  2  0  0  0  0
  3  6  1  0  0  0  0
  5  8  1  0  0  0  0
  5  1  2  0  0  0  0
  7  3  1  0  0  0  0
  8  7  2  0  0  0  0
  9 13  1  0  0  0  0
 10 14  1  0  0  0  0
 11  9  2  0  0  0  0
 11 12  1  0  0  0  0
 12 10  2  0  0  0  0
 13 14  2  0  0  0  0
 14  5  1  0  0  0  0
 15 11  1  0  0  0  0
 16 15  1  0  0  0  0
 16 17  1  0  0  0  0
 18 24  1  1  0  0  0
 18 20  1  0  0  0  0
 18 19  1  0  0  0  0
 19 21  1  6  0  0  0
 20 19  1  0  0  0  0
 20 17  1  0  0  0  0
 23 24  2  0  0  0  0
 24 22  1  0  0  0  0
 25  1  1  0  0  0  0
 26 28  1  0  0  0  0
 26 33  1  0  0  0  0
 27 32  1  0  0  0  0
 28 31  1  0  0  0  0
 30 32  2  0  0  0  0
 31 30  1  0  0  0  0
 32 29  1  0  0  0  0
 33 25  1  6  0  0  0
 33 27  1  0  0  0  0
M  END
>  <MODEL>
6

>  <REMARK>
 VINA RESULT:      -8.8      3.225      4.067
  Name = 
  8 active torsions:
  status: ('A' for Active; 'I' for Inactive)
    1  A    between atoms: C_3  and  C_29
    2  A    between atoms: C_4  and  N_27
    3  A    between atoms: C_7  and  C_9
    4  A    between atoms: C_7  and  N_20
    5  A    between atoms: N_17  and  N_21
    6  A    between atoms: N_20  and  N_21
    7  A    between atoms: C_22  and  C_32
    8  A    between atoms: N_27  and  C_30
                            x       y       z     vdW  Elec       q    Type
                         _______ _______ _______ _____ _____    ______ ____

>  <TORSDO>
F 8

$$$$
=
 OpenBabel10222419473D

 33 36  0  0  1  0  0  0  0  0999 V2000
  189.5030  177.2930  144.5230 C   0  0  0  0  0  0  0  0  0  0  0  0
  190.7940  176.5630  144.7620 C   0  0  0  0  0  2  0  0  0  0  0  0
  191.0190  177.0250  147.1810 C   0  0  0  0  0  0  0  0  0  0  0  0
  191.5110  177.1140  145.9460 C   0  0  0  0  0  3  0  0  0  0  0  0
  188.4730  177.1880  145.3980 C   0  0  0  0  0  0  0  0  0  0  0  0
  191.7920  177.4850  148.2370 O   0  0  0  0  0  1  0  0  0  0  0  0
  189.7050  176.4260  147.4790 C   0  0  0  0  0  3  0  0  0  0  0  0
  188.6140  176.4860  146.7040 C   0  0  0  0  0  3  0  0  0  0  0  0
  185.2500  178.1630  143.6140 C   0  0  0  0  0  3  0  0  0  0  0  0
  186.4640  178.5050  146.1060 C   0  0  0  0  0  3  0  0  0  0  0  0
  184.6040  178.9050  144.6080 C   0  0  0  0  0  0  0  0  0  0  0  0
  185.2110  179.0700  145.8550 C   0  0  0  0  0  3  0  0  0  0  0  0
  186.5000  177.5950  143.8680 C   0  0  0  0  0  3  0  0  0  0  0  0
  187.1320  177.7720  145.1120 C   0  0  0  0  0  0  0  0  0  0  0  0
  183.2950  179.5600  144.3290 C   0  0  0  0  0  2  0  0  0  0  0  0
  182.3480  178.5980  143.7920 N   0  0  0  0  0  2  0  0  0  0  0  0
  181.6290  179.2590  142.7870 N   0  0  0  0  0  2  0  0  0  0  0  0
  181.4130  179.2590  140.3990 C   0  0  2  0  0  3  0  0  0  0  0  0
  181.5590  177.9030  140.9260 C   0  0  2  0  0  3  0  0  0  0  0  0
  182.2910  179.0030  141.5750 N   0  0  0  0  0  0  0  0  0  0  0  0
  182.5120  177.1210  140.0490 C   0  0  0  0  0  1  0  0  0  0  0  0
  178.9390  179.0220  140.8010 O   0  0  0  0  0  0  0  0  0  0  0  0
  179.9380  181.0840  140.8810 O   0  0  0  0  0  1  0  0  0  0  0  0
  180.0620  179.8390  140.7280 C   0  0  0  0  0  0  0  0  0  0  0  0
  189.3740  178.1070  143.3450 N   0  0  0  0  0  2  0  0  0  0  0  0
  190.9950  177.8530  141.4910 C   0  0  0  0  0  2  0  0  0  0  0  0
  188.4360  178.2280  141.0730 C   0  0  0  0  0  2  0  0  0  0  0  0
  191.3040  177.0160  140.2840 C   0  0  0  0  0  2  0  0  0  0  0  0
  187.1040  178.5940  139.1300 N   0  0  0  0  0  1  0  0  0  0  0  0
  189.2020  177.2800  138.8840 C   0  0  0  0  0  3  0  0  0  0  0  0
  190.3580  177.0390  139.4060 C   0  0  0  0  0  2  0  0  0  0  0  0
  188.2560  178.0280  139.7440 C   0  0  0  0  0  0  0  0  0  0  0  0
  189.5350  177.6520  141.9680 C   0  0  2  0  0  3  0  0  0  0  0  0
  1  2  1  0  0  0  0
  1  5  2  0  0  0  0
  2  4  1  0  0  0  0
  3  7  1  0  0  0  0
  3  6  1  0  0  0  0
  4  3  2  0  0  0  0
  5  8  1  0  0  0  0
  8  7  2  0  0  0  0
  9 13  2  0  0  0  0
  9 11  1  0  0  0  0
 11 12  2  0  0  0  0
 12 10  1  0  0  0  0
 13 14  1  0  0  0  0
 14  5  1  0  0  0  0
 14 10  2  0  0  0  0
 15 11  1  0  0  0  0
 16 15  1  0  0  0  0
 17 16  1  0  0  0  0
 18 24  1  1  0  0  0
 18 19  1  0  0  0  0
 18 20  1  0  0  0  0
 19 21  1  6  0  0  0
 19 20  1  0  0  0  0
 20 17  1  0  0  0  0
 24 22  2  0  0  0  0
 24 23  1  0  0  0  0
 25  1  1  0  0  0  0
 26 33  1  0  0  0  0
 27 33  1  0  0  0  0
 28 26  1  0  0  0  0
 29 32  1  0  0  0  0
 30 31  1  0  0  0  0
 30 32  2  0  0  0  0
 31 28  1  0  0  0  0
 32 27  1  0  0  0  0
 33 25  1  1  0  0  0
M  END
>  <MODEL>
7

>  <REMARK>
 VINA RESULT:      -8.7      4.049      8.027
  Name = 
  8 active torsions:
  status: ('A' for Active; 'I' for Inactive)
    1  A    between atoms: C_3  and  C_29
    2  A    between atoms: C_4  and  N_27
    3  A    between atoms: C_7  and  C_9
    4  A    between atoms: C_7  and  N_20
    5  A    between atoms: N_17  and  N_21
    6  A    between atoms: N_20  and  N_21
    7  A    between atoms: C_22  and  C_32
    8  A    between atoms: N_27  and  C_30
                            x       y       z     vdW  Elec       q    Type
                         _______ _______ _______ _____ _____    ______ ____

>  <TORSDO>
F 8

$$$$
=
 OpenBabel10222419473D

 33 36  0  0  1  0  0  0  0  0999 V2000
  188.7280  177.6060  143.9260 C   0  0  0  0  0  0  0  0  0  0  0  0
  188.8360  177.8750  145.4000 C   0  0  0  0  0  2  0  0  0  0  0  0
  191.1570  177.0910  145.7340 C   0  0  0  0  0  0  0  0  0  0  0  0
  189.8630  177.0000  146.0310 C   0  0  0  0  0  3  0  0  0  0  0  0
  189.7460  177.9180  143.0860 C   0  0  0  0  0  0  0  0  0  0  0  0
  192.0570  176.2990  146.4330 O   0  0  0  0  0  1  0  0  0  0  0  0
  191.6830  178.0230  144.7190 C   0  0  0  0  0  3  0  0  0  0  0  0
  191.0670  178.3890  143.5860 C   0  0  0  0  0  3  0  0  0  0  0  0
  188.5980  178.4970  139.4980 C   0  0  0  0  0  3  0  0  0  0  0  0
  190.3910  176.8780  140.9010 C   0  0  0  0  0  3  0  0  0  0  0  0
  189.3710  177.5560  138.8120 C   0  0  0  0  0  0  0  0  0  0  0  0
  190.2710  176.7510  139.5150 C   0  0  0  0  0  3  0  0  0  0  0  0
  188.7230  178.6260  140.8840 C   0  0  0  0  0  3  0  0  0  0  0  0
  189.6090  177.8080  141.6060 C   0  0  0  0  0  0  0  0  0  0  0  0
  189.2060  177.3720  137.3420 C   0  0  0  0  0  2  0  0  0  0  0  0
  188.1000  178.1760  136.8500 N   0  0  0  0  0  2  0  0  0  0  0  0
  187.2580  177.3090  136.1400 N   0  0  0  0  0  2  0  0  0  0  0  0
  185.6080  175.7980  137.0030 C   0  0  2  0  0  3  0  0  0  0  0  0
  185.0580  176.6520  135.9520 C   0  0  2  0  0  3  0  0  0  0  0  0
  186.0620  177.2110  136.8710 N   0  0  0  0  0  0  0  0  0  0  0  0
  183.6850  177.1350  136.3630 C   0  0  0  0  0  1  0  0  0  0  0  0
  186.4520  174.3570  135.1190 O   0  0  0  0  0  0  0  0  0  0  0  0
  187.4140  174.2360  137.1970 O   0  0  0  0  0  1  0  0  0  0  0  0
  186.5570  174.7700  136.4440 C   0  0  0  0  0  0  0  0  0  0  0  0
  187.5230  177.0110  143.4160 N   0  0  0  0  0  2  0  0  0  0  0  0
  185.7320  178.4270  142.4590 C   0  0  0  0  0  2  0  0  0  0  0  0
  186.0100  178.0750  145.0400 C   0  0  0  0  0  2  0  0  0  0  0  0
  184.2410  178.5920  142.4090 C   0  0  0  0  0  2  0  0  0  0  0  0
  184.9580  179.0010  146.9670 N   0  0  0  0  0  1  0  0  0  0  0  0
  183.6410  178.8720  144.8600 C   0  0  0  0  0  3  0  0  0  0  0  0
  183.7220  178.7870  143.5740 C   0  0  0  0  0  2  0  0  0  0  0  0
  184.9010  178.6200  145.5980 C   0  0  0  0  0  0  0  0  0  0  0  0
  186.1670  177.5080  143.6270 C   0  0  2  0  0  3  0  0  0  0  0  0
  1  2  1  0  0  0  0
  2  4  1  0  0  0  0
  3  4  2  0  0  0  0
  3  6  1  0  0  0  0
  5  8  1  0  0  0  0
  5  1  2  0  0  0  0
  7  3  1  0  0  0  0
  8  7  2  0  0  0  0
  9 13  1  0  0  0  0
 10 14  1  0  0  0  0
 11  9  2  0  0  0  0
 11 12  1  0  0  0  0
 12 10  2  0  0  0  0
 13 14  2  0  0  0  0
 14  5  1  0  0  0  0
 15 11  1  0  0  0  0
 16 15  1  0  0  0  0
 17 16  1  0  0  0  0
 17 20  1  0  0  0  0
 18 24  1  6  0  0  0
 19 21  1  1  0  0  0
 19 20  1  0  0  0  0
 19 18  1  0  0  0  0
 20 18  1  0  0  0  0
 22 24  2  0  0  0  0
 24 23  1  0  0  0  0
 25  1  1  0  0  0  0
 26 33  1  0  0  0  0
 27 32  1  0  0  0  0
 28 26  1  0  0  0  0
 28 31  1  0  0  0  0
 30 32  2  0  0  0  0
 31 30  1  0  0  0  0
 32 29  1  0  0  0  0
 33 25  1  6  0  0  0
 33 27  1  0  0  0  0
M  END
>  <MODEL>
8

>  <REMARK>
 VINA RESULT:      -8.7      2.912      3.995
  Name = 
  8 active torsions:
  status: ('A' for Active; 'I' for Inactive)
    1  A    between atoms: C_3  and  C_29
    2  A    between atoms: C_4  and  N_27
    3  A    between atoms: C_7  and  C_9
    4  A    between atoms: C_7  and  N_20
    5  A    between atoms: N_17  and  N_21
    6  A    between atoms: N_20  and  N_21
    7  A    between atoms: C_22  and  C_32
    8  A    between atoms: N_27  and  C_30
                            x       y       z     vdW  Elec       q    Type
                         _______ _______ _______ _____ _____    ______ ____

>  <TORSDO>
F 8

$$$$
=
 OpenBabel10222419473D

 33 36  0  0  1  0  0  0  0  0999 V2000
  188.2510  177.6300  144.8060 C   0  0  0  0  0  0  0  0  0  0  0  0
  189.5070  177.0320  145.3730 C   0  0  0  0  0  2  0  0  0  0  0  0
  189.2690  177.8450  147.6970 C   0  0  0  0  0  0  0  0  0  0  0  0
  189.9720  177.7930  146.5670 C   0  0  0  0  0  3  0  0  0  0  0  0
  187.0840  177.5790  145.4950 C   0  0  0  0  0  0  0  0  0  0  0  0
  189.8160  178.5020  148.7900 O   0  0  0  0  0  1  0  0  0  0  0  0
  187.9490  177.2050  147.8490 C   0  0  0  0  0  3  0  0  0  0  0  0
  187.0160  177.0790  146.8960 C   0  0  0  0  0  3  0  0  0  0  0  0
  183.5720  179.0030  145.0960 C   0  0  0  0  0  3  0  0  0  0  0  0
  185.5780  177.8720  143.5160 C   0  0  0  0  0  3  0  0  0  0  0  0
  183.3650  178.8330  143.7240 C   0  0  0  0  0  0  0  0  0  0  0  0
  184.3720  178.2720  142.9350 C   0  0  0  0  0  3  0  0  0  0  0  0
  184.7810  178.6080  145.6750 C   0  0  0  0  0  3  0  0  0  0  0  0
  185.7940  178.0230  144.8950 C   0  0  0  0  0  0  0  0  0  0  0  0
  182.0600  179.2010  143.1080 C   0  0  0  0  0  2  0  0  0  0  0  0
  182.0990  178.9920  141.6710 N   0  0  0  0  0  2  0  0  0  0  0  0
  180.9640  178.2360  141.3440 N   0  0  0  0  0  2  0  0  0  0  0  0
  180.7730  177.5800  139.0450 C   0  0  2  0  0  3  0  0  0  0  0  0
  181.7610  178.6430  139.2220 C   0  0  2  0  0  3  0  0  0  0  0  0
  180.5540  178.6460  140.0640 N   0  0  0  0  0  0  0  0  0  0  0  0
  181.6010  179.6670  138.1210 C   0  0  0  0  0  1  0  0  0  0  0  0
  182.6290  176.0160  139.7130 O   0  0  0  0  0  0  0  0  0  0  0  0
  180.4390  175.3650  139.8940 O   0  0  0  0  0  1  0  0  0  0  0  0
  181.2660  176.2670  139.5950 C   0  0  0  0  0  0  0  0  0  0  0  0
  188.3040  178.2600  143.5150 N   0  0  0  0  0  2  0  0  0  0  0  0
  190.5520  178.0670  142.4950 C   0  0  0  0  0  2  0  0  0  0  0  0
  188.3700  178.2240  141.0550 C   0  0  0  0  0  2  0  0  0  0  0  0
  191.3740  177.2140  141.5740 C   0  0  0  0  0  2  0  0  0  0  0  0
  187.9280  178.4120  138.7200 N   0  0  0  0  0  1  0  0  0  0  0  0
  190.0160  177.2600  139.4290 C   0  0  0  0  0  3  0  0  0  0  0  0
  190.8700  177.1300  140.3890 C   0  0  0  0  0  2  0  0  0  0  0  0
  188.7600  177.9610  139.7830 C   0  0  0  0  0  0  0  0  0  0  0  0
  189.0390  177.7690  142.3530 C   0  0  2  0  0  3  0  0  0  0  0  0
  1  2  1  0  0  0  0
  1  5  2  0  0  0  0
  2  4  1  0  0  0  0
  3  7  1  0  0  0  0
  3  6  1  0  0  0  0
  4  3  2  0  0  0  0
  5  8  1  0  0  0  0
  8  7  2  0  0  0  0
  9 13  1  0  0  0  0
 10 14  1  0  0  0  0
 11  9  2  0  0  0  0
 12 10  2  0  0  0  0
 12 11  1  0  0  0  0
 14  5  1  0  0  0  0
 14 13  2  0  0  0  0
 15 11  1  0  0  0  0
 16 15  1  0  0  0  0
 17 16  1  0  0  0  0
 18 19  1  0  0  0  0
 18 24  1  1  0  0  0
 18 20  1  0  0  0  0
 19 21  1  6  0  0  0
 19 20  1  0  0  0  0
 20 17  1  0  0  0  0
 24 22  2  0  0  0  0
 24 23  1  0  0  0  0
 25  1  1  0  0  0  0
 27 33  1  0  0  0  0
 28 26  1  0  0  0  0
 29 32  1  0  0  0  0
 30 32  2  0  0  0  0
 30 31  1  0  0  0  0
 31 28  1  0  0  0  0
 32 27  1  0  0  0  0
 33 26  1  0  0  0  0
 33 25  1  1  0  0  0
M  END
>  <MODEL>
9

>  <REMARK>
 VINA RESULT:      -8.3      3.752      7.791
  Name = 
  8 active torsions:
  status: ('A' for Active; 'I' for Inactive)
    1  A    between atoms: C_3  and  C_29
    2  A    between atoms: C_4  and  N_27
    3  A    between atoms: C_7  and  C_9
    4  A    between atoms: C_7  and  N_20
    5  A    between atoms: N_17  and  N_21
    6  A    between atoms: N_20  and  N_21
    7  A    between atoms: C_22  and  C_32
    8  A    between atoms: N_27  and  C_30
                            x       y       z     vdW  Elec       q    Type
                         _______ _______ _______ _____ _____    ______ ____

>  <TORSDO>
F 8

$$$$
