=
 OpenBabel10222420273D

 31 35  0  0  1  0  0  0  0  0999 V2000
  189.0220  177.6860  142.5400 C   0  0  1  0  0  3  0  0  0  0  0  0
  183.3650  178.8300  143.4030 C   0  0  0  0  0  0  0  0  0  0  0  0
  184.7120  178.8850  145.1120 C   0  0  0  0  0  0  0  0  0  0  0  0
  184.6990  178.9180  143.7290 C   0  0  0  0  0  0  0  0  0  0  0  0
  182.6260  178.7730  144.5280 N   0  0  0  0  0  2  0  0  0  0  0  0
  182.7900  178.8010  142.0290 C   0  0  0  0  0  1  0  0  0  0  0  0
  187.8290  177.4240  143.4720 C   0  0  1  0  0  3  0  0  0  0  0  0
  185.8610  178.9050  142.7890 C   0  0  0  0  0  2  0  0  0  0  0  0
  187.9220  178.1980  144.7900 C   0  0  0  0  0  2  0  0  0  0  0  0
  183.4480  178.8050  145.5680 N   0  0  0  0  0  0  0  0  0  0  0  0
  185.9060  178.9530  146.0130 C   0  0  0  0  0  2  0  0  0  0  0  0
  186.8440  177.7800  145.7750 C   0  0  0  0  0  2  0  0  0  0  0  0
  186.4750  177.5100  142.7550 C   0  0  0  0  0  2  0  0  0  0  0  0
  192.2650  177.2130  141.2150 O   0  0  0  0  0  0  0  0  0  0  0  0
  190.4120  177.3960  143.1280 C   0  0  2  0  0  0  0  0  0  0  0  0
  191.4750  176.9760  142.1110 C   0  0  0  0  0  0  0  0  0  0  0  0
  190.7800  176.0120  143.0770 C   0  0  0  0  0  2  0  0  0  0  0  0
  191.1850  177.3680  145.6200 C   0  0  0  0  0  1  0  0  0  0  0  0
  190.9120  178.1170  144.3570 C   0  0  0  0  0  0  0  0  0  0  0  0
  191.2350  179.4100  144.2990 C   0  0  0  0  0  2  0  0  0  0  0  0
  188.8360  177.0000  141.3040 O   0  0  0  0  0  0  0  0  0  0  0  0
  188.8060  177.6630  140.0720 C   0  0  0  0  0  0  0  0  0  0  0  0
  188.3740  178.8470  140.0290 O   0  0  0  0  0  0  0  0  0  0  0  0
  190.8910  175.8660  137.8370 C   0  0  2  0  0  3  0  0  0  0  0  0
  190.2480  176.9480  136.9920 C   0  0  1  0  0  3  0  0  0  0  0  0
  190.1840  175.9420  139.0550 O   0  0  0  0  0  0  0  0  0  0  0  0
  188.1420  176.4790  137.9400 C   0  0  0  0  0  2  0  0  0  0  0  0
  188.8700  176.4110  136.6030 C   0  0  0  0  0  2  0  0  0  0  0  0
  192.2370  176.1670  138.0550 O   0  0  0  0  0  1  0  0  0  0  0  0
  189.9550  177.8920  137.9640 O   0  0  0  0  0  0  0  0  0  0  0  0
  189.2820  177.0030  138.8030 C   0  0  1  0  0  0  0  0  0  0  0  0
  1 21  1  6  0  0  0
  1 15  1  0  0  0  0
  2  4  2  0  0  0  0
  2  5  1  0  0  0  0
  3 10  2  0  0  0  0
  3 11  1  0  0  0  0
  4  3  1  0  0  0  0
  5 10  1  0  0  0  0
  6  2  1  0  0  0  0
  7  1  1  6  0  0  0
  7  9  1  0  0  0  0
  8  4  1  0  0  0  0
  9 12  1  0  0  0  0
 12 11  1  0  0  0  0
 13  8  1  0  0  0  0
 13  7  1  0  0  0  0
 14 16  2  0  0  0  0
 15 19  1  1  0  0  0
 16 17  1  0  0  0  0
 16 15  1  0  0  0  0
 17 15  1  0  0  0  0
 19 18  1  0  0  0  0
 20 19  2  0  0  0  0
 22 21  1  0  0  0  0
 23 22  2  0  0  0  0
 24 29  1  1  0  0  0
 24 26  1  0  0  0  0
 25 28  1  1  0  0  0
 25 24  1  0  0  0  0
 25 30  1  0  0  0  0
 27 31  1  0  0  0  0
 28 27  1  0  0  0  0
 30 31  1  0  0  0  0
 31 26  1  0  0  0  0
 31 22  1  1  0  0  0
M  END
>  <MODEL>
1

>  <REMARK>
 VINA RESULT:      -9.0      0.000      0.000
  Name = 
  6 active torsions:
  status: ('A' for Active; 'I' for Inactive)
    1  A    between atoms: O_2  and  C_11
    2  A    between atoms: O_2  and  C_27
    3  A    between atoms: C_11  and  C_28
    4  A    between atoms: C_14  and  C_20
    5  A    between atoms: C_14  and  C_27
    6  A    between atoms: C_17  and  C_27
                            x       y       z     vdW  Elec       q    Type
                         _______ _______ _______ _____ _____    ______ ____

>  <TORSDO>
F 6

$$$$
=
 OpenBabel10222420273D

 31 35  0  0  1  0  0  0  0  0999 V2000
  189.3250  177.6710  142.8110 C   0  0  1  0  0  3  0  0  0  0  0  0
  183.8440  178.8400  144.4390 C   0  0  0  0  0  0  0  0  0  0  0  0
  185.3810  178.7050  145.9740 C   0  0  0  0  0  0  0  0  0  0  0  0
  185.2090  178.8690  144.6120 C   0  0  0  0  0  0  0  0  0  0  0  0
  183.2390  178.6910  145.6340 N   0  0  0  0  0  2  0  0  0  0  0  0
  183.1130  178.9530  143.1470 C   0  0  0  0  0  1  0  0  0  0  0  0
  188.2410  177.3450  143.8490 C   0  0  1  0  0  3  0  0  0  0  0  0
  186.2530  178.9230  143.5440 C   0  0  0  0  0  2  0  0  0  0  0  0
  188.5100  177.9870  145.2130 C   0  0  0  0  0  2  0  0  0  0  0  0
  184.1770  178.6070  146.5680 N   0  0  0  0  0  0  0  0  0  0  0  0
  186.6730  178.6630  146.7300 C   0  0  0  0  0  2  0  0  0  0  0  0
  187.5410  177.4990  146.2760 C   0  0  0  0  0  2  0  0  0  0  0  0
  186.8160  177.5260  143.3090 C   0  0  0  0  0  2  0  0  0  0  0  0
  191.9120  179.6150  144.2330 O   0  0  0  0  0  0  0  0  0  0  0  0
  190.7750  177.4100  143.2470 C   0  0  2  0  0  0  0  0  0  0  0  0
  191.6040  178.6630  143.5390 C   0  0  0  0  0  0  0  0  0  0  0  0
  191.7490  177.8110  142.2750 C   0  0  0  0  0  2  0  0  0  0  0  0
  191.6560  176.2600  145.4180 C   0  0  0  0  0  1  0  0  0  0  0  0
  191.1540  176.1660  144.0140 C   0  0  0  0  0  0  0  0  0  0  0  0
  190.9300  174.9570  143.4970 C   0  0  0  0  0  2  0  0  0  0  0  0
  189.0350  177.0130  141.5800 O   0  0  0  0  0  0  0  0  0  0  0  0
  188.7850  177.7120  140.3930 C   0  0  0  0  0  0  0  0  0  0  0  0
  188.1040  178.7720  140.4440 O   0  0  0  0  0  0  0  0  0  0  0  0
  189.5360  177.6870  136.9280 C   0  0  2  0  0  3  0  0  0  0  0  0
  189.1900  176.2490  137.2670 C   0  0  1  0  0  3  0  0  0  0  0  0
  189.6190  178.3060  138.1920 O   0  0  0  0  0  0  0  0  0  0  0  0
  190.5420  176.3460  139.1950 C   0  0  0  0  0  2  0  0  0  0  0  0
  190.4660  175.6380  137.8480 C   0  0  0  0  0  2  0  0  0  0  0  0
  188.5040  178.2640  136.1860 O   0  0  0  0  0  1  0  0  0  0  0  0
  188.3930  176.4350  138.3860 O   0  0  0  0  0  0  0  0  0  0  0  0
  189.3130  177.2350  139.0640 C   0  0  1  0  0  0  0  0  0  0  0  0
  1 21  1  6  0  0  0
  1 15  1  0  0  0  0
  2  4  2  0  0  0  0
  2  5  1  0  0  0  0
  3 10  2  0  0  0  0
  3 11  1  0  0  0  0
  4  3  1  0  0  0  0
  5 10  1  0  0  0  0
  6  2  1  0  0  0  0
  7  1  1  6  0  0  0
  7  9  1  0  0  0  0
  8  4  1  0  0  0  0
  9 12  1  0  0  0  0
 12 11  1  0  0  0  0
 13  8  1  0  0  0  0
 13  7  1  0  0  0  0
 15 16  1  0  0  0  0
 15 19  1  1  0  0  0
 16 14  2  0  0  0  0
 17 15  1  0  0  0  0
 17 16  1  0  0  0  0
 19 18  1  0  0  0  0
 20 19  2  0  0  0  0
 22 23  2  0  0  0  0
 22 21  1  0  0  0  0
 24 29  1  6  0  0  0
 24 25  1  0  0  0  0
 24 26  1  0  0  0  0
 25 28  1  1  0  0  0
 25 30  1  0  0  0  0
 26 31  1  0  0  0  0
 28 27  1  0  0  0  0
 30 31  1  0  0  0  0
 31 27  1  0  0  0  0
 31 22  1  1  0  0  0
M  END
>  <MODEL>
2

>  <REMARK>
 VINA RESULT:      -9.0      1.200      1.941
  Name = 
  6 active torsions:
  status: ('A' for Active; 'I' for Inactive)
    1  A    between atoms: O_2  and  C_11
    2  A    between atoms: O_2  and  C_27
    3  A    between atoms: C_11  and  C_28
    4  A    between atoms: C_14  and  C_20
    5  A    between atoms: C_14  and  C_27
    6  A    between atoms: C_17  and  C_27
                            x       y       z     vdW  Elec       q    Type
                         _______ _______ _______ _____ _____    ______ ____

>  <TORSDO>
F 6

$$$$
=
 OpenBabel10222420273D

 31 35  0  0  1  0  0  0  0  0999 V2000
  189.0770  177.7830  142.8160 C   0  0  1  0  0  3  0  0  0  0  0  0
  183.4020  178.8030  143.7210 C   0  0  0  0  0  0  0  0  0  0  0  0
  184.7490  178.8190  145.4300 C   0  0  0  0  0  0  0  0  0  0  0  0
  184.7350  178.9010  144.0500 C   0  0  0  0  0  0  0  0  0  0  0  0
  182.6650  178.6950  144.8430 N   0  0  0  0  0  2  0  0  0  0  0  0
  182.8260  178.8130  142.3470 C   0  0  0  0  0  1  0  0  0  0  0  0
  187.8890  177.4680  143.7390 C   0  0  1  0  0  3  0  0  0  0  0  0
  185.8960  178.9410  143.1090 C   0  0  0  0  0  2  0  0  0  0  0  0
  187.9710  178.1960  145.0840 C   0  0  0  0  0  2  0  0  0  0  0  0
  183.4880  178.7030  145.8840 N   0  0  0  0  0  0  0  0  0  0  0  0
  185.9430  178.8750  146.3330 C   0  0  0  0  0  2  0  0  0  0  0  0
  186.9000  177.7270  146.0540 C   0  0  0  0  0  2  0  0  0  0  0  0
  186.5330  177.5580  143.0260 C   0  0  0  0  0  2  0  0  0  0  0  0
  192.1420  177.0490  141.2160 O   0  0  0  0  0  0  0  0  0  0  0  0
  190.4410  177.2350  143.2650 C   0  0  2  0  0  0  0  0  0  0  0  0
  191.3760  176.8070  142.1330 C   0  0  0  0  0  0  0  0  0  0  0  0
  190.6040  175.8320  143.0250 C   0  0  0  0  0  2  0  0  0  0  0  0
  191.3010  176.7960  145.6890 C   0  0  0  0  0  1  0  0  0  0  0  0
  191.1040  177.7190  144.5320 C   0  0  0  0  0  0  0  0  0  0  0  0
  191.6350  178.9410  144.5940 C   0  0  0  0  0  2  0  0  0  0  0  0
  188.7780  177.3800  141.4820 O   0  0  0  0  0  0  0  0  0  0  0  0
  188.5320  178.3000  140.4560 C   0  0  0  0  0  0  0  0  0  0  0  0
  188.1900  179.4740  140.7610 O   0  0  0  0  0  0  0  0  0  0  0  0
  188.5010  178.6050  136.9230 C   0  0  2  0  0  3  0  0  0  0  0  0
  188.0010  177.2000  137.2020 C   0  0  1  0  0  3  0  0  0  0  0  0
  188.9580  179.0420  138.1840 O   0  0  0  0  0  0  0  0  0  0  0  0
  189.7350  176.8600  138.7610 C   0  0  0  0  0  2  0  0  0  0  0  0
  189.2510  176.3450  137.4110 C   0  0  0  0  0  2  0  0  0  0  0  0
  187.4440  179.4120  136.4980 O   0  0  0  0  0  1  0  0  0  0  0  0
  187.5080  177.3550  138.4880 O   0  0  0  0  0  0  0  0  0  0  0  0
  188.6730  177.9240  139.0020 C   0  0  1  0  0  0  0  0  0  0  0  0
  1 21  1  6  0  0  0
  1 15  1  0  0  0  0
  2  4  2  0  0  0  0
  2  5  1  0  0  0  0
  3 10  2  0  0  0  0
  3 11  1  0  0  0  0
  4  3  1  0  0  0  0
  5 10  1  0  0  0  0
  6  2  1  0  0  0  0
  7  1  1  6  0  0  0
  7  9  1  0  0  0  0
  8  4  1  0  0  0  0
  9 12  1  0  0  0  0
 12 11  1  0  0  0  0
 13  8  1  0  0  0  0
 13  7  1  0  0  0  0
 14 16  2  0  0  0  0
 15 19  1  1  0  0  0
 16 17  1  0  0  0  0
 16 15  1  0  0  0  0
 17 15  1  0  0  0  0
 19 20  2  0  0  0  0
 19 18  1  0  0  0  0
 22 23  2  0  0  0  0
 22 21  1  0  0  0  0
 24 29  1  1  0  0  0
 24 25  1  0  0  0  0
 24 26  1  0  0  0  0
 25 28  1  1  0  0  0
 25 30  1  0  0  0  0
 26 31  1  0  0  0  0
 27 31  1  0  0  0  0
 28 27  1  0  0  0  0
 30 31  1  0  0  0  0
 31 22  1  1  0  0  0
M  END
>  <MODEL>
3

>  <REMARK>
 VINA RESULT:      -8.9      1.042      1.639
  Name = 
  6 active torsions:
  status: ('A' for Active; 'I' for Inactive)
    1  A    between atoms: O_2  and  C_11
    2  A    between atoms: O_2  and  C_27
    3  A    between atoms: C_11  and  C_28
    4  A    between atoms: C_14  and  C_20
    5  A    between atoms: C_14  and  C_27
    6  A    between atoms: C_17  and  C_27
                            x       y       z     vdW  Elec       q    Type
                         _______ _______ _______ _____ _____    ______ ____

>  <TORSDO>
F 6

$$$$
=
 OpenBabel10222420273D

 31 35  0  0  1  0  0  0  0  0999 V2000
  188.2050  177.7230  140.0070 C   0  0  1  0  0  3  0  0  0  0  0  0
  185.0860  178.7360  144.8350 C   0  0  0  0  0  0  0  0  0  0  0  0
  184.0480  178.6440  142.9240 C   0  0  0  0  0  0  0  0  0  0  0  0
  185.2360  178.2940  143.5400 C   0  0  0  0  0  0  0  0  0  0  0  0
  183.8690  179.2930  144.9850 N   0  0  0  0  0  2  0  0  0  0  0  0
  186.0920  178.6290  145.9280 C   0  0  0  0  0  1  0  0  0  0  0  0
  187.0690  178.5730  140.5970 C   0  0  1  0  0  3  0  0  0  0  0  0
  186.4630  177.7040  142.9240 C   0  0  0  0  0  2  0  0  0  0  0  0
  185.6850  178.1430  140.1030 C   0  0  0  0  0  2  0  0  0  0  0  0
  183.2390  179.2380  143.8200 N   0  0  0  0  0  0  0  0  0  0  0  0
  183.6560  178.4010  141.4990 C   0  0  0  0  0  2  0  0  0  0  0  0
  184.5970  179.1100  140.5380 C   0  0  0  0  0  2  0  0  0  0  0  0
  187.1920  178.7710  142.1140 C   0  0  0  0  0  2  0  0  0  0  0  0
  190.8650  177.1660  137.7470 O   0  0  0  0  0  0  0  0  0  0  0  0
  188.3770  177.7980  138.4810 C   0  0  2  0  0  0  0  0  0  0  0  0
  189.8240  177.7520  137.9860 C   0  0  0  0  0  0  0  0  0  0  0  0
  188.9690  179.0220  138.0300 C   0  0  0  0  0  2  0  0  0  0  0  0
  186.5550  178.1470  136.6470 C   0  0  0  0  0  1  0  0  0  0  0  0
  187.3330  177.2410  137.5440 C   0  0  0  0  0  0  0  0  0  0  0  0
  187.1750  175.9230  137.4120 C   0  0  0  0  0  2  0  0  0  0  0  0
  189.4290  178.0130  140.6750 O   0  0  0  0  0  0  0  0  0  0  0  0
  190.1480  177.0440  141.3840 C   0  0  0  0  0  0  0  0  0  0  0  0
  190.5420  176.0130  140.7740 O   0  0  0  0  0  0  0  0  0  0  0  0
  191.7120  176.5270  144.5240 C   0  0  2  0  0  3  0  0  0  0  0  0
  190.2540  176.7890  144.8480 C   0  0  1  0  0  3  0  0  0  0  0  0
  191.8000  176.8390  143.1510 O   0  0  0  0  0  0  0  0  0  0  0  0
  190.2210  178.6170  143.3610 C   0  0  0  0  0  2  0  0  0  0  0  0
  190.0930  178.3090  144.8480 C   0  0  0  0  0  2  0  0  0  0  0  0
  192.0090  175.1770  144.7200 O   0  0  0  0  0  1  0  0  0  0  0  0
  189.6550  176.4100  143.6570 O   0  0  0  0  0  0  0  0  0  0  0  0
  190.4670  177.2050  142.8480 C   0  0  1  0  0  0  0  0  0  0  0  0
  1 21  1  1  0  0  0
  2  5  1  0  0  0  0
  2  6  1  0  0  0  0
  3  4  1  0  0  0  0
  3 10  2  0  0  0  0
  4  2  2  0  0  0  0
  7  1  1  1  0  0  0
  7 13  1  0  0  0  0
  8  4  1  0  0  0  0
  9 12  1  0  0  0  0
  9  7  1  0  0  0  0
 10  5  1  0  0  0  0
 11  3  1  0  0  0  0
 12 11  1  0  0  0  0
 13  8  1  0  0  0  0
 14 16  2  0  0  0  0
 15 19  1  6  0  0  0
 15  1  1  0  0  0  0
 16 17  1  0  0  0  0
 16 15  1  0  0  0  0
 17 15  1  0  0  0  0
 18 19  1  0  0  0  0
 20 19  2  0  0  0  0
 21 22  1  0  0  0  0
 23 22  2  0  0  0  0
 24 29  1  6  0  0  0
 24 25  1  0  0  0  0
 25 28  1  6  0  0  0
 26 24  1  0  0  0  0
 27 28  1  0  0  0  0
 30 25  1  0  0  0  0
 31 22  1  6  0  0  0
 31 26  1  0  0  0  0
 31 27  1  0  0  0  0
 31 30  1  0  0  0  0
M  END
>  <MODEL>
4

>  <REMARK>
 VINA RESULT:      -8.4      1.658      5.217
  Name = 
  6 active torsions:
  status: ('A' for Active; 'I' for Inactive)
    1  A    between atoms: O_2  and  C_11
    2  A    between atoms: O_2  and  C_27
    3  A    between atoms: C_11  and  C_28
    4  A    between atoms: C_14  and  C_20
    5  A    between atoms: C_14  and  C_27
    6  A    between atoms: C_17  and  C_27
                            x       y       z     vdW  Elec       q    Type
                         _______ _______ _______ _____ _____    ______ ____

>  <TORSDO>
F 6

$$$$
=
 OpenBabel10222420273D

 31 35  0  0  1  0  0  0  0  0999 V2000
  187.5570  177.8530  139.6890 C   0  0  1  0  0  3  0  0  0  0  0  0
  184.7720  178.8200  144.7260 C   0  0  0  0  0  0  0  0  0  0  0  0
  183.5980  178.6550  142.9010 C   0  0  0  0  0  0  0  0  0  0  0  0
  184.8410  178.3640  143.4300 C   0  0  0  0  0  0  0  0  0  0  0  0
  183.5480  179.3310  144.9610 N   0  0  0  0  0  2  0  0  0  0  0  0
  185.8600  178.7730  145.7410 C   0  0  0  0  0  1  0  0  0  0  0  0
  186.4350  178.6670  140.3530 C   0  0  1  0  0  3  0  0  0  0  0  0
  186.0420  177.8120  142.7300 C   0  0  0  0  0  2  0  0  0  0  0  0
  185.0360  178.1740  139.9710 C   0  0  0  0  0  2  0  0  0  0  0  0
  182.8340  179.2320  143.8470 N   0  0  0  0  0  0  0  0  0  0  0  0
  183.1090  178.3730  141.5140 C   0  0  0  0  0  2  0  0  0  0  0  0
  183.9450  179.1030  140.4740 C   0  0  0  0  0  2  0  0  0  0  0  0
  186.6630  178.8940  141.8530 C   0  0  0  0  0  2  0  0  0  0  0  0
  189.4010  179.1060  136.9460 O   0  0  0  0  0  0  0  0  0  0  0  0
  187.4740  177.7140  138.1610 C   0  0  2  0  0  0  0  0  0  0  0  0
  188.3320  178.7030  137.3690 C   0  0  0  0  0  0  0  0  0  0  0  0
  186.8120  178.8120  137.5200 C   0  0  0  0  0  2  0  0  0  0  0  0
  185.8550  176.0280  137.0010 C   0  0  0  0  0  1  0  0  0  0  0  0
  187.2170  176.3790  137.5050 C   0  0  0  0  0  0  0  0  0  0  0  0
  188.2250  175.5430  137.2550 C   0  0  0  0  0  2  0  0  0  0  0  0
  188.8280  178.3580  140.0890 O   0  0  0  0  0  0  0  0  0  0  0  0
  189.8820  177.5230  140.4760 C   0  0  0  0  0  0  0  0  0  0  0  0
  190.4930  176.8660  139.5900 O   0  0  0  0  0  0  0  0  0  0  0  0
  190.5760  178.4340  143.8310 C   0  0  2  0  0  3  0  0  0  0  0  0
  191.6610  177.4410  143.4600 C   0  0  1  0  0  3  0  0  0  0  0  0
  189.6760  178.3510  142.7490 O   0  0  0  0  0  0  0  0  0  0  0  0
  190.0610  176.0090  142.4910 C   0  0  0  0  0  2  0  0  0  0  0  0
  191.0440  176.0560  143.6540 C   0  0  0  0  0  2  0  0  0  0  0  0
  191.1110  179.7220  143.9020 O   0  0  0  0  0  1  0  0  0  0  0  0
  191.6800  177.5860  142.0820 O   0  0  0  0  0  0  0  0  0  0  0  0
  190.3070  177.3960  141.9160 C   0  0  1  0  0  0  0  0  0  0  0  0
  1 21  1  6  0  0  0
  2  5  1  0  0  0  0
  2  6  1  0  0  0  0
  3  4  1  0  0  0  0
  3 10  2  0  0  0  0
  4  2  2  0  0  0  0
  7  1  1  1  0  0  0
  7 13  1  0  0  0  0
  8  4  1  0  0  0  0
  9  7  1  0  0  0  0
  9 12  1  0  0  0  0
 10  5  1  0  0  0  0
 11  3  1  0  0  0  0
 12 11  1  0  0  0  0
 13  8  1  0  0  0  0
 14 16  2  0  0  0  0
 15 19  1  6  0  0  0
 15  1  1  0  0  0  0
 16 17  1  0  0  0  0
 16 15  1  0  0  0  0
 17 15  1  0  0  0  0
 18 19  1  0  0  0  0
 20 19  2  0  0  0  0
 21 22  1  0  0  0  0
 23 22  2  0  0  0  0
 24 29  1  6  0  0  0
 25 28  1  6  0  0  0
 25 24  1  0  0  0  0
 26 24  1  0  0  0  0
 27 28  1  0  0  0  0
 30 25  1  0  0  0  0
 31 22  1  6  0  0  0
 31 30  1  0  0  0  0
 31 27  1  0  0  0  0
 31 26  1  0  0  0  0
M  END
>  <MODEL>
5

>  <REMARK>
 VINA RESULT:      -8.1      1.613      5.196
  Name = 
  6 active torsions:
  status: ('A' for Active; 'I' for Inactive)
    1  A    between atoms: O_2  and  C_11
    2  A    between atoms: O_2  and  C_27
    3  A    between atoms: C_11  and  C_28
    4  A    between atoms: C_14  and  C_20
    5  A    between atoms: C_14  and  C_27
    6  A    between atoms: C_17  and  C_27
                            x       y       z     vdW  Elec       q    Type
                         _______ _______ _______ _____ _____    ______ ____

>  <TORSDO>
F 6

$$$$
=
 OpenBabel10222420273D

 31 35  0  0  1  0  0  0  0  0999 V2000
  184.3520  178.3690  140.6510 C   0  0  1  0  0  3  0  0  0  0  0  0
  187.7290  177.8780  145.3850 C   0  0  0  0  0  0  0  0  0  0  0  0
  185.6040  178.2610  145.6560 C   0  0  0  0  0  0  0  0  0  0  0  0
  186.5230  177.8140  144.7250 C   0  0  0  0  0  0  0  0  0  0  0  0
  187.5340  178.3150  146.6440 N   0  0  0  0  0  2  0  0  0  0  0  0
  189.0640  177.5260  144.8260 C   0  0  0  0  0  1  0  0  0  0  0  0
  184.6500  178.9710  142.0330 C   0  0  1  0  0  3  0  0  0  0  0  0
  186.2990  177.4720  143.2870 C   0  0  0  0  0  2  0  0  0  0  0  0
  183.5820  178.6260  143.0750 C   0  0  0  0  0  2  0  0  0  0  0  0
  186.2380  178.5500  146.8070 N   0  0  0  0  0  0  0  0  0  0  0  0
  184.1230  178.3970  145.4800 C   0  0  0  0  0  2  0  0  0  0  0  0
  183.7860  179.3850  144.3750 C   0  0  0  0  0  2  0  0  0  0  0  0
  186.1000  178.7530  142.4840 C   0  0  0  0  0  2  0  0  0  0  0  0
  182.4470  180.1260  138.2470 O   0  0  0  0  0  0  0  0  0  0  0  0
  182.8780  178.3760  140.2170 C   0  0  2  0  0  0  0  0  0  0  0  0
  182.4690  179.5440  139.3170 C   0  0  0  0  0  0  0  0  0  0  0  0
  182.1130  179.4370  140.8020 C   0  0  0  0  0  2  0  0  0  0  0  0
  180.6480  177.0290  140.3610 C   0  0  0  0  0  1  0  0  0  0  0  0
  182.1040  177.0920  140.0370 C   0  0  0  0  0  0  0  0  0  0  0  0
  182.6780  176.0310  139.4690 C   0  0  0  0  0  2  0  0  0  0  0  0
  185.1790  178.9800  139.6640 O   0  0  0  0  0  0  0  0  0  0  0  0
  185.7810  178.2530  138.6310 C   0  0  0  0  0  0  0  0  0  0  0  0
  185.0480  177.7210  137.7540 O   0  0  0  0  0  0  0  0  0  0  0  0
  189.0570  178.3460  137.2770 C   0  0  2  0  0  3  0  0  0  0  0  0
  189.0130  177.0820  138.1150 C   0  0  1  0  0  3  0  0  0  0  0  0
  187.8560  179.0020  137.6160 O   0  0  0  0  0  0  0  0  0  0  0  0
  187.9790  178.2530  139.8790 C   0  0  0  0  0  2  0  0  0  0  0  0
  189.2780  177.5260  139.5530 C   0  0  0  0  0  2  0  0  0  0  0  0
  189.0490  178.0180  135.9190 O   0  0  0  0  0  1  0  0  0  0  0  0
  187.6510  176.8210  138.1130 O   0  0  0  0  0  0  0  0  0  0  0  0
  187.2780  178.0970  138.5370 C   0  0  1  0  0  0  0  0  0  0  0  0
  1 21  1  6  0  0  0
  2  5  1  0  0  0  0
  3 10  2  0  0  0  0
  4  2  2  0  0  0  0
  4  3  1  0  0  0  0
  5 10  1  0  0  0  0
  6  2  1  0  0  0  0
  7  1  1  6  0  0  0
  7 13  1  0  0  0  0
  7  9  1  0  0  0  0
  8  4  1  0  0  0  0
  9 12  1  0  0  0  0
 11  3  1  0  0  0  0
 12 11  1  0  0  0  0
 13  8  1  0  0  0  0
 14 16  2  0  0  0  0
 15 19  1  6  0  0  0
 15  1  1  0  0  0  0
 15 17  1  0  0  0  0
 16 15  1  0  0  0  0
 16 17  1  0  0  0  0
 19 18  1  0  0  0  0
 20 19  2  0  0  0  0
 22 21  1  0  0  0  0
 23 22  2  0  0  0  0
 24 29  1  6  0  0  0
 24 26  1  0  0  0  0
 24 25  1  0  0  0  0
 25 28  1  1  0  0  0
 26 31  1  0  0  0  0
 28 27  1  0  0  0  0
 30 25  1  0  0  0  0
 30 31  1  0  0  0  0
 31 22  1  1  0  0  0
 31 27  1  0  0  0  0
M  END
>  <MODEL>
6

>  <REMARK>
 VINA RESULT:      -7.9      2.479      5.790
  Name = 
  6 active torsions:
  status: ('A' for Active; 'I' for Inactive)
    1  A    between atoms: O_2  and  C_11
    2  A    between atoms: O_2  and  C_27
    3  A    between atoms: C_11  and  C_28
    4  A    between atoms: C_14  and  C_20
    5  A    between atoms: C_14  and  C_27
    6  A    between atoms: C_17  and  C_27
                            x       y       z     vdW  Elec       q    Type
                         _______ _______ _______ _____ _____    ______ ____

>  <TORSDO>
F 6

$$$$
=
 OpenBabel10222420273D

 31 35  0  0  1  0  0  0  0  0999 V2000
  184.9770  178.2980  140.4010 C   0  0  1  0  0  3  0  0  0  0  0  0
  186.7980  178.2220  145.9450 C   0  0  0  0  0  0  0  0  0  0  0  0
  184.6840  178.5520  145.5460 C   0  0  0  0  0  0  0  0  0  0  0  0
  185.8440  178.0760  144.9640 C   0  0  0  0  0  0  0  0  0  0  0  0
  186.2320  178.7320  147.0550 N   0  0  0  0  0  2  0  0  0  0  0  0
  188.2430  177.8780  145.8330 C   0  0  0  0  0  1  0  0  0  0  0  0
  184.8430  178.9970  141.7630 C   0  0  1  0  0  3  0  0  0  0  0  0
  186.0620  177.6360  143.5510 C   0  0  0  0  0  2  0  0  0  0  0  0
  183.5180  178.6850  142.4630 C   0  0  0  0  0  2  0  0  0  0  0  0
  184.9440  178.9340  146.8100 N   0  0  0  0  0  0  0  0  0  0  0  0
  183.3210  178.6280  144.9310 C   0  0  0  0  0  2  0  0  0  0  0  0
  183.3170  179.5320  143.7080 C   0  0  0  0  0  2  0  0  0  0  0  0
  186.0960  178.8560  142.6370 C   0  0  0  0  0  2  0  0  0  0  0  0
  182.3030  176.0030  140.1240 O   0  0  0  0  0  0  0  0  0  0  0  0
  183.6940  178.2110  139.5600 C   0  0  2  0  0  0  0  0  0  0  0  0
  182.9890  176.8530  139.5850 C   0  0  0  0  0  0  0  0  0  0  0  0
  183.8190  177.3700  138.4060 C   0  0  0  0  0  2  0  0  0  0  0  0
  181.4450  179.4770  139.9440 C   0  0  0  0  0  1  0  0  0  0  0  0
  182.8120  179.4170  139.3440 C   0  0  0  0  0  0  0  0  0  0  0  0
  183.2830  180.4970  138.7190 C   0  0  0  0  0  2  0  0  0  0  0  0
  186.0400  178.8850  139.6530 O   0  0  0  0  0  0  0  0  0  0  0  0
  187.2750  178.2530  139.4760 C   0  0  0  0  0  0  0  0  0  0  0  0
  187.9290  177.9010  140.4950 O   0  0  0  0  0  0  0  0  0  0  0  0
  189.3850  176.9350  136.9500 C   0  0  2  0  0  3  0  0  0  0  0  0
  189.0550  178.3430  136.4930 C   0  0  1  0  0  3  0  0  0  0  0  0
  188.5160  176.7370  138.0420 O   0  0  0  0  0  0  0  0  0  0  0  0
  186.7810  178.0110  137.0090 C   0  0  0  0  0  2  0  0  0  0  0  0
  187.6900  178.2530  135.8110 C   0  0  0  0  0  2  0  0  0  0  0  0
  190.7100  176.8730  137.3840 O   0  0  0  0  0  1  0  0  0  0  0  0
  188.7610  178.9440  137.7070 O   0  0  0  0  0  0  0  0  0  0  0  0
  187.8370  177.9770  138.1050 C   0  0  1  0  0  0  0  0  0  0  0  0
  1 21  1  6  0  0  0
  2  5  1  0  0  0  0
  3 10  2  0  0  0  0
  4  3  1  0  0  0  0
  4  2  2  0  0  0  0
  6  2  1  0  0  0  0
  7  1  1  6  0  0  0
  7  9  1  0  0  0  0
  7 13  1  0  0  0  0
  8  4  1  0  0  0  0
  9 12  1  0  0  0  0
 10  5  1  0  0  0  0
 11  3  1  0  0  0  0
 12 11  1  0  0  0  0
 13  8  1  0  0  0  0
 15 19  1  6  0  0  0
 15 16  1  0  0  0  0
 15  1  1  0  0  0  0
 16 14  2  0  0  0  0
 17 15  1  0  0  0  0
 17 16  1  0  0  0  0
 19 18  1  0  0  0  0
 20 19  2  0  0  0  0
 22 21  1  0  0  0  0
 22 23  2  0  0  0  0
 24 29  1  1  0  0  0
 24 26  1  0  0  0  0
 25 28  1  6  0  0  0
 25 24  1  0  0  0  0
 25 30  1  0  0  0  0
 26 31  1  0  0  0  0
 27 31  1  0  0  0  0
 28 27  1  0  0  0  0
 30 31  1  0  0  0  0
 31 22  1  1  0  0  0
M  END
>  <MODEL>
7

>  <REMARK>
 VINA RESULT:      -7.6      2.356      5.280
  Name = 
  6 active torsions:
  status: ('A' for Active; 'I' for Inactive)
    1  A    between atoms: O_2  and  C_11
    2  A    between atoms: O_2  and  C_27
    3  A    between atoms: C_11  and  C_28
    4  A    between atoms: C_14  and  C_20
    5  A    between atoms: C_14  and  C_27
    6  A    between atoms: C_17  and  C_27
                            x       y       z     vdW  Elec       q    Type
                         _______ _______ _______ _____ _____    ______ ____

>  <TORSDO>
F 6

$$$$
=
 OpenBabel10222420273D

 31 35  0  0  1  0  0  0  0  0999 V2000
  188.3760  177.6680  141.7520 C   0  0  1  0  0  3  0  0  0  0  0  0
  188.6650  177.3800  135.9300 C   0  0  0  0  0  0  0  0  0  0  0  0
  190.2960  176.5360  137.0980 C   0  0  0  0  0  0  0  0  0  0  0  0
  188.9800  176.9470  137.1980 C   0  0  1  0  0  3  0  0  0  0  0  0
  189.7260  177.2120  135.1170 N   0  0  0  0  0  0  0  0  0  0  0  0
  187.3620  177.9500  135.4880 C   0  0  0  0  0  1  0  0  0  0  0  0
  189.3110  177.8370  140.5440 C   0  0  1  0  0  3  0  0  0  0  0  0
  188.1270  177.0420  138.4220 C   0  0  0  0  0  2  0  0  0  0  0  0
  190.3040  176.6810  140.3940 C   0  0  0  0  0  2  0  0  0  0  0  0
  190.7200  176.6990  135.8310 N   0  0  0  0  0  0  0  0  0  0  0  0
  191.1570  175.9640  138.1820 C   0  0  0  0  0  2  0  0  0  0  0  0
  191.3420  176.9560  139.3200 C   0  0  0  0  0  2  0  0  0  0  0  0
  188.5690  178.2360  139.2610 C   0  0  0  0  0  2  0  0  0  0  0  0
  190.3650  174.9260  142.7640 O   0  0  0  0  0  0  0  0  0  0  0  0
  189.0450  177.2280  143.0640 C   0  0  2  0  0  0  0  0  0  0  0  0
  189.5640  175.7880  143.0800 C   0  0  0  0  0  0  0  0  0  0  0  0
  188.2910  176.2520  143.7930 C   0  0  0  0  0  2  0  0  0  0  0  0
  189.5250  178.2600  145.4120 C   0  0  0  0  0  1  0  0  0  0  0  0
  189.7800  178.2120  143.9410 C   0  0  0  0  0  0  0  0  0  0  0  0
  190.7570  178.9680  143.4380 C   0  0  0  0  0  2  0  0  0  0  0  0
  187.6060  178.8520  141.9430 O   0  0  0  0  0  0  0  0  0  0  0  0
  186.2200  178.8870  141.7560 C   0  0  0  0  0  0  0  0  0  0  0  0
  185.7660  178.9840  140.5830 O   0  0  0  0  0  0  0  0  0  0  0  0
  183.1660  178.5780  143.5310 C   0  0  2  0  0  3  0  0  0  0  0  0
  183.9800  179.5850  144.3200 C   0  0  1  0  0  3  0  0  0  0  0  0
  184.0940  178.0710  142.5980 O   0  0  0  0  0  0  0  0  0  0  0  0
  185.8860  178.2080  144.1680 C   0  0  0  0  0  2  0  0  0  0  0  0
  184.9170  178.7630  145.2050 C   0  0  0  0  0  2  0  0  0  0  0  0
  182.1270  179.2260  142.8590 O   0  0  0  0  0  1  0  0  0  0  0  0
  184.8230  180.0650  143.3300 O   0  0  0  0  0  0  0  0  0  0  0  0
  185.2600  178.8060  142.9160 C   0  0  1  0  0  0  0  0  0  0  0  0
  1 21  1  1  0  0  0
  1 15  1  0  0  0  0
  2  4  1  0  0  0  0
  3  4  1  0  0  0  0
  3 11  1  0  0  0  0
  4  8  1  1  0  0  0
  5 10  1  0  0  0  0
  5  2  2  0  0  0  0
  6  2  1  0  0  0  0
  7  1  1  1  0  0  0
  8 13  1  0  0  0  0
  9  7  1  0  0  0  0
 10  3  2  0  0  0  0
 11 12  1  0  0  0  0
 12  9  1  0  0  0  0
 13  7  1  0  0  0  0
 14 16  2  0  0  0  0
 15 16  1  0  0  0  0
 15 17  1  0  0  0  0
 15 19  1  1  0  0  0
 16 17  1  0  0  0  0
 19 18  1  0  0  0  0
 20 19  2  0  0  0  0
 22 21  1  0  0  0  0
 23 22  2  0  0  0  0
 24 29  1  6  0  0  0
 24 25  1  0  0  0  0
 25 28  1  1  0  0  0
 26 31  1  0  0  0  0
 26 24  1  0  0  0  0
 27 28  1  0  0  0  0
 30 25  1  0  0  0  0
 31 22  1  6  0  0  0
 31 30  1  0  0  0  0
 31 27  1  0  0  0  0
M  END
>  <MODEL>
8

>  <REMARK>
 VINA RESULT:      -7.5      3.756      7.040
  Name = 
  6 active torsions:
  status: ('A' for Active; 'I' for Inactive)
    1  A    between atoms: O_2  and  C_11
    2  A    between atoms: O_2  and  C_27
    3  A    between atoms: C_11  and  C_28
    4  A    between atoms: C_14  and  C_20
    5  A    between atoms: C_14  and  C_27
    6  A    between atoms: C_17  and  C_27
                            x       y       z     vdW  Elec       q    Type
                         _______ _______ _______ _____ _____    ______ ____

>  <TORSDO>
F 6

$$$$
=
 OpenBabel10222420273D

 31 35  0  0  1  0  0  0  0  0999 V2000
  188.2230  178.0820  141.1090 C   0  0  1  0  0  3  0  0  0  0  0  0
  189.5470  177.1330  146.7130 C   0  0  0  0  0  0  0  0  0  0  0  0
  191.1700  177.4540  145.2980 C   0  0  0  0  0  0  0  0  0  0  0  0
  189.8080  177.6320  145.4580 C   0  0  0  0  0  0  0  0  0  0  0  0
  190.6930  176.7060  147.2770 N   0  0  0  0  0  2  0  0  0  0  0  0
  188.2170  177.0610  147.3790 C   0  0  0  0  0  1  0  0  0  0  0  0
  189.1750  177.3290  142.0510 C   0  0  1  0  0  3  0  0  0  0  0  0
  188.8110  178.1190  144.4550 C   0  0  0  0  0  2  0  0  0  0  0  0
  190.5790  177.9390  142.0890 C   0  0  0  0  0  2  0  0  0  0  0  0
  191.6810  176.9000  146.4140 N   0  0  0  0  0  0  0  0  0  0  0  0
  192.0040  177.8250  144.1110 C   0  0  0  0  0  2  0  0  0  0  0  0
  191.5570  177.0750  142.8660 C   0  0  0  0  0  2  0  0  0  0  0  0
  188.5530  177.0290  143.4210 C   0  0  0  0  0  2  0  0  0  0  0  0
  190.4520  176.1550  139.1570 O   0  0  0  0  0  0  0  0  0  0  0  0
  188.4090  177.8130  139.6070 C   0  0  2  0  0  0  0  0  0  0  0  0
  189.7230  177.1280  139.2260 C   0  0  0  0  0  0  0  0  0  0  0  0
  189.4310  178.6140  139.0030 C   0  0  0  0  0  2  0  0  0  0  0  0
  186.2170  178.6080  138.4370 C   0  0  0  0  0  1  0  0  0  0  0  0
  187.2290  177.5430  138.7050 C   0  0  0  0  0  0  0  0  0  0  0  0
  187.1370  176.3930  138.0360 C   0  0  0  0  0  2  0  0  0  0  0  0
  186.8710  177.8630  141.5050 O   0  0  0  0  0  0  0  0  0  0  0  0
  186.0330  178.9000  141.9300 C   0  0  0  0  0  0  0  0  0  0  0  0
  186.0660  180.0000  141.3140 O   0  0  0  0  0  0  0  0  0  0  0  0
  182.9980  178.6310  143.7420 C   0  0  2  0  0  3  0  0  0  0  0  0
  183.9320  179.4040  144.6520 C   0  0  1  0  0  3  0  0  0  0  0  0
  183.8460  178.1870  142.7070 O   0  0  0  0  0  0  0  0  0  0  0  0
  185.6720  177.8770  144.2130 C   0  0  0  0  0  2  0  0  0  0  0  0
  184.7900  178.3550  145.3600 C   0  0  0  0  0  2  0  0  0  0  0  0
  182.0240  179.4850  143.2210 O   0  0  0  0  0  1  0  0  0  0  0  0
  184.8050  179.9470  143.7210 O   0  0  0  0  0  0  0  0  0  0  0  0
  185.0920  178.7330  143.0960 C   0  0  1  0  0  0  0  0  0  0  0  0
  1 21  1  1  0  0  0
  2  5  1  0  0  0  0
  2  6  1  0  0  0  0
  3  4  1  0  0  0  0
  3 10  2  0  0  0  0
  4  2  2  0  0  0  0
  7  1  1  1  0  0  0
  7  9  1  0  0  0  0
  7 13  1  0  0  0  0
  8  4  1  0  0  0  0
  9 12  1  0  0  0  0
 10  5  1  0  0  0  0
 11  3  1  0  0  0  0
 12 11  1  0  0  0  0
 13  8  1  0  0  0  0
 14 16  2  0  0  0  0
 15 19  1  6  0  0  0
 15  1  1  0  0  0  0
 16 15  1  0  0  0  0
 17 16  1  0  0  0  0
 17 15  1  0  0  0  0
 18 19  1  0  0  0  0
 20 19  2  0  0  0  0
 21 22  1  0  0  0  0
 23 22  2  0  0  0  0
 24 29  1  6  0  0  0
 24 25  1  0  0  0  0
 25 28  1  1  0  0  0
 26 31  1  0  0  0  0
 26 24  1  0  0  0  0
 27 28  1  0  0  0  0
 30 25  1  0  0  0  0
 31 22  1  6  0  0  0
 31 30  1  0  0  0  0
 31 27  1  0  0  0  0
M  END
>  <MODEL>
9

>  <REMARK>
 VINA RESULT:      -7.5      3.059      6.676
  Name = 
  6 active torsions:
  status: ('A' for Active; 'I' for Inactive)
    1  A    between atoms: O_2  and  C_11
    2  A    between atoms: O_2  and  C_27
    3  A    between atoms: C_11  and  C_28
    4  A    between atoms: C_14  and  C_20
    5  A    between atoms: C_14  and  C_27
    6  A    between atoms: C_17  and  C_27
                            x       y       z     vdW  Elec       q    Type
                         _______ _______ _______ _____ _____    ______ ____

>  <TORSDO>
F 6

$$$$
