=
 OpenBabel10222420383D

 41 45  0  0  1  0  0  0  0  0999 V2000
  188.2530  176.7810  145.0710 C   0  0  0  0  0  3  0  0  0  0  0  0
  186.6640  178.3550  141.7020 C   0  0  0  0  0  0  0  0  0  0  0  0
  186.8390  178.3030  139.2690 C   0  0  0  0  0  0  0  0  0  0  0  0
  187.5090  177.9400  137.9920 C   0  0  0  0  0  1  0  0  0  0  0  0
  191.8070  177.5580  141.0860 C   0  0  0  0  0  3  0  0  0  0  0  0
  187.4000  178.0130  140.5380 C   0  0  0  0  0  0  0  0  0  0  0  0
  187.5350  176.4130  143.4660 S   0  0  0  0  0  0  0  0  0  0  0  0
  192.1910  178.5840  143.3140 C   0  0  0  0  0  3  0  0  0  0  0  0
  191.4970  177.7240  142.3780 C   0  0  0  0  0  0  0  0  0  0  0  0
  185.4270  179.0050  141.5640 C   0  0  0  0  0  0  0  0  0  0  0  0
  189.7040  177.3350  139.7990 C   0  0  0  0  0  3  0  0  0  0  0  0
  188.7350  177.3890  140.7080 C   0  0  0  0  0  3  0  0  0  0  0  0
  190.4020  177.1210  143.0480 N   0  0  0  0  0  0  0  0  0  0  0  0
  190.4500  177.6200  144.2410 C   0  0  0  0  0  0  0  0  0  0  0  0
  185.6340  178.9250  139.1900 N   0  0  0  0  0  0  0  0  0  0  0  0
  191.5610  178.5160  144.4420 N   0  0  0  0  0  0  0  0  0  0  0  0
  187.2380  178.1730  143.0850 C   0  0  0  0  0  2  0  0  0  0  0  0
  184.4800  179.5110  142.9610 Cl  0  0  0  0  0  0  0  0  0  0  0  0
  191.0250  176.7040  140.1250 C   0  0  1  0  0  3  0  0  0  0  0  0
  189.4730  177.2820  145.3110 C   0  0  0  0  0  0  0  0  0  0  0  0
  184.9280  179.2700  140.2910 C   0  0  0  0  0  3  0  0  0  0  0  0
  192.4040  176.5270  137.8410 C   0  0  0  0  0  0  0  0  0  0  0  0
  191.7940  176.6040  138.8800 C   0  0  0  0  0  0  0  0  0  0  0  0
  193.1190  176.4020  136.5630 C   0  0  0  0  0  2  0  0  0  0  0  0
  196.8810  176.5420  136.0110 O   0  0  0  0  0  0  0  0  0  0  0  0
  195.4970  176.3280  135.4610 S   0  0  0  0  0  0  0  0  0  0  0  0
  194.8670  177.4350  134.6570 O   0  0  0  0  0  0  0  0  0  0  0  0
  194.4420  175.8240  136.7710 N   0  0  0  0  0  0  0  0  0  0  0  0
  194.6040  174.8590  135.7930 N   0  0  2  0  0  0  0  0  0  0  0  0
  193.0370  172.1810  135.7220 C   0  0  0  0  0  1  0  0  0  0  0  0
  194.4440  171.6070  135.7560 C   0  0  1  0  0  3  0  0  0  0  0  0
  195.4760  172.6370  135.2750 C   0  0  0  0  0  2  0  0  0  0  0  0
  195.5840  173.8480  136.2210 C   0  0  2  0  0  3  0  0  0  0  0  0
  195.4020  173.4480  137.7040 C   0  0  0  0  0  2  0  0  0  0  0  0
  195.7180  171.9790  137.9570 C   0  0  0  0  0  2  0  0  0  0  0  0
  194.7620  171.0790  137.1630 C   0  0  0  0  0  2  0  0  0  0  0  0
  189.7980  177.5120  146.6810 N   0  0  0  0  0  2  0  0  0  0  0  0
  190.3410  176.5290  147.4860 O   0  0  0  0  0  0  0  0  0  0  0  0
  192.3010  175.4590  146.5410 O   0  0  0  0  0  0  0  0  0  0  0  0
  191.7160  176.2910  147.4960 C   0  0  0  0  0  0  0  0  0  0  0  0
  192.4430  176.8450  148.3680 O   0  0  0  0  0  1  0  0  0  0  0  0
  1 20  2  0  0  0  0
  2 17  1  0  0  0  0
  3  6  1  0  0  0  0
  4  3  1  0  0  0  0
  5  9  2  0  0  0  0
  6 12  1  0  0  0  0
  6  2  2  0  0  0  0
  7  1  1  0  0  0  0
  8 16  2  0  0  0  0
  9 13  1  0  0  0  0
  9  8  1  0  0  0  0
 10  2  1  0  0  0  0
 10 18  1  0  0  0  0
 11 19  1  0  0  0  0
 11 12  2  0  0  0  0
 13 14  2  0  0  0  0
 14 16  1  0  0  0  0
 14 20  1  0  0  0  0
 15  3  2  0  0  0  0
 15 21  1  0  0  0  0
 17  7  1  0  0  0  0
 19 23  1  6  0  0  0
 19  5  1  0  0  0  0
 20 37  1  0  0  0  0
 21 10  2  0  0  0  0
 22 23  3  0  0  0  0
 24 28  1  0  0  0  0
 24 22  1  0  0  0  0
 26 29  1  0  0  0  0
 26 25  2  0  0  0  0
 26 28  1  0  0  0  0
 27 26  2  0  0  0  0
 29 33  1  0  0  0  0
 29 28  1  1  0  0  0
 31 30  1  1  0  0  0
 31 36  1  0  0  0  0
 32 31  1  0  0  0  0
 33 32  1  6  0  0  0
 33 34  1  0  0  0  0
 34 35  1  0  0  0  0
 36 35  1  0  0  0  0
 37 38  1  0  0  0  0
 38 40  1  0  0  0  0
 39 40  2  0  0  0  0
 40 41  1  0  0  0  0
M  END
>  <MODEL>
1

>  <REMARK>
 VINA RESULT:      -8.5      0.000      0.000
  Name = 
  7 active torsions:
  status: ('A' for Active; 'I' for Inactive)
    1  A    between atoms: N_3  and  O_31
    2  A    between atoms: N_3  and  C_39
    3  A    between atoms: C_14  and  C_35
    4  A    between atoms: C_15  and  N_34
    5  A    between atoms: N_27  and  C_35
    6  A    between atoms: C_28  and  O_31
    7  A    between atoms: C_37  and  C_40
                            x       y       z     vdW  Elec       q    Type
                         _______ _______ _______ _____ _____    ______ ____

>  <TORSDO>
F 7

$$$$
=
 OpenBabel10222420383D

 41 45  0  0  1  0  0  0  0  0999 V2000
  190.3870  175.8990  142.2620 C   0  0  0  0  0  3  0  0  0  0  0  0
  188.7980  177.5090  145.6130 C   0  0  0  0  0  0  0  0  0  0  0  0
  186.6750  178.0780  146.6710 C   0  0  0  0  0  0  0  0  0  0  0  0
  185.2010  178.2830  146.6700 C   0  0  0  0  0  1  0  0  0  0  0  0
  185.9120  178.7960  141.4320 C   0  0  0  0  0  3  0  0  0  0  0  0
  187.4000  177.7320  145.5040 C   0  0  0  0  0  0  0  0  0  0  0  0
  189.1980  175.6700  143.5890 S   0  0  0  0  0  0  0  0  0  0  0  0
  188.0020  179.3570  140.2140 C   0  0  0  0  0  3  0  0  0  0  0  0
  187.1780  178.5400  141.0830 C   0  0  0  0  0  0  0  0  0  0  0  0
  189.4230  177.6780  146.8590 C   0  0  0  0  0  0  0  0  0  0  0  0
  185.6010  178.1230  143.7940 C   0  0  0  0  0  3  0  0  0  0  0  0
  186.7720  177.6130  144.1660 C   0  0  0  0  0  3  0  0  0  0  0  0
  187.9550  177.4450  141.5390 N   0  0  0  0  0  0  0  0  0  0  0  0
  189.1190  177.6420  141.0090 C   0  0  0  0  0  0  0  0  0  0  0  0
  187.3250  178.2200  147.8550 N   0  0  0  0  0  0  0  0  0  0  0  0
  189.1730  178.8100  140.1650 N   0  0  0  0  0  0  0  0  0  0  0  0
  189.6540  177.2380  144.4020 C   0  0  0  0  0  2  0  0  0  0  0  0
  191.1610  177.4740  147.0630 Cl  0  0  0  0  0  0  0  0  0  0  0  0
  185.1060  177.9590  142.3890 C   0  0  1  0  0  3  0  0  0  0  0  0
  190.2820  176.7390  141.2240 C   0  0  0  0  0  0  0  0  0  0  0  0
  188.6590  178.0260  147.9700 C   0  0  0  0  0  3  0  0  0  0  0  0
  182.5810  178.8330  142.2840 C   0  0  0  0  0  0  0  0  0  0  0  0
  183.7170  178.4300  142.3440 C   0  0  0  0  0  0  0  0  0  0  0  0
  181.2140  179.3650  142.2160 C   0  0  0  0  0  2  0  0  0  0  0  0
  179.4300  181.7910  139.8870 O   0  0  0  0  0  0  0  0  0  0  0  0
  179.3660  180.6580  140.8760 S   0  0  0  0  0  0  0  0  0  0  0  0
  178.9310  180.9600  142.2860 O   0  0  0  0  0  0  0  0  0  0  0  0
  180.9040  179.8090  140.8610 N   0  0  0  0  0  0  0  0  0  0  0  0
  179.8440  179.0340  140.4280 N   0  0  2  0  0  0  0  0  0  0  0  0
  181.1560  176.3030  139.7510 C   0  0  0  0  0  1  0  0  0  0  0  0
  180.4910  176.5620  138.4090 C   0  0  1  0  0  3  0  0  0  0  0  0
  179.3350  177.5640  138.5450 C   0  0  0  0  0  2  0  0  0  0  0  0
  179.8170  178.9680  138.9590 C   0  0  2  0  0  3  0  0  0  0  0  0
  181.1860  179.3220  138.3320 C   0  0  0  0  0  2  0  0  0  0  0  0
  181.4760  178.5220  137.0680 C   0  0  0  0  0  2  0  0  0  0  0  0
  181.5400  177.0220  137.3830 C   0  0  0  0  0  2  0  0  0  0  0  0
  191.3820  176.7540  140.3150 N   0  0  0  0  0  2  0  0  0  0  0  0
  191.3610  176.0610  139.1190 O   0  0  0  0  0  0  0  0  0  0  0  0
  193.5840  176.7140  138.4040 O   0  0  0  0  0  1  0  0  0  0  0  0
  192.2680  176.3620  138.1020 C   0  0  0  0  0  0  0  0  0  0  0  0
  191.9010  176.3030  136.8950 O   0  0  0  0  0  0  0  0  0  0  0  0
  1  7  1  0  0  0  0
  2 10  1  0  0  0  0
  3 15  2  0  0  0  0
  4  3  1  0  0  0  0
  5 19  1  0  0  0  0
  6  2  2  0  0  0  0
  6  3  1  0  0  0  0
  7 17  1  0  0  0  0
  8  9  1  0  0  0  0
  9  5  2  0  0  0  0
  9 13  1  0  0  0  0
 10 18  1  0  0  0  0
 10 21  2  0  0  0  0
 11 12  2  0  0  0  0
 12  6  1  0  0  0  0
 14 20  1  0  0  0  0
 14 13  2  0  0  0  0
 15 21  1  0  0  0  0
 16  8  2  0  0  0  0
 16 14  1  0  0  0  0
 17  2  1  0  0  0  0
 19 23  1  1  0  0  0
 19 11  1  0  0  0  0
 20  1  2  0  0  0  0
 22 23  3  0  0  0  0
 24 22  1  0  0  0  0
 25 26  2  0  0  0  0
 26 27  2  0  0  0  0
 28 26  1  0  0  0  0
 28 24  1  0  0  0  0
 29 28  1  6  0  0  0
 29 26  1  0  0  0  0
 31 32  1  0  0  0  0
 31 30  1  1  0  0  0
 32 33  1  0  0  0  0
 33 34  1  6  0  0  0
 33 29  1  0  0  0  0
 35 36  1  0  0  0  0
 35 34  1  0  0  0  0
 36 31  1  0  0  0  0
 37 20  1  0  0  0  0
 38 37  1  0  0  0  0
 40 39  1  0  0  0  0
 40 38  1  0  0  0  0
 41 40  2  0  0  0  0
M  END
>  <MODEL>
2

>  <REMARK>
 VINA RESULT:      -7.8      4.870     10.619
  Name = 
  7 active torsions:
  status: ('A' for Active; 'I' for Inactive)
    1  A    between atoms: N_3  and  O_31
    2  A    between atoms: N_3  and  C_39
    3  A    between atoms: C_14  and  C_35
    4  A    between atoms: C_15  and  N_34
    5  A    between atoms: N_27  and  C_35
    6  A    between atoms: C_28  and  O_31
    7  A    between atoms: C_37  and  C_40
                            x       y       z     vdW  Elec       q    Type
                         _______ _______ _______ _____ _____    ______ ____

>  <TORSDO>
F 7

$$$$
=
 OpenBabel10222420383D

 41 45  0  0  1  0  0  0  0  0999 V2000
  191.2980  178.6930  144.0760 C   0  0  0  0  0  3  0  0  0  0  0  0
  189.5040  177.6130  140.6170 C   0  0  0  0  0  0  0  0  0  0  0  0
  187.4370  177.8630  139.3450 C   0  0  0  0  0  0  0  0  0  0  0  0
  186.0130  178.2620  139.1880 C   0  0  0  0  0  1  0  0  0  0  0  0
  185.9780  177.8850  144.4850 C   0  0  0  0  0  3  0  0  0  0  0  0
  188.1320  177.9740  140.5750 C   0  0  0  0  0  0  0  0  0  0  0  0
  190.4280  179.2810  142.6180 S   0  0  0  0  0  0  0  0  0  0  0  0
  187.5450  176.6270  145.9440 C   0  0  0  0  0  3  0  0  0  0  0  0
  187.2030  177.6400  144.9660 C   0  0  0  0  0  0  0  0  0  0  0  0
  190.1180  177.1200  139.4540 C   0  0  0  0  0  0  0  0  0  0  0  0
  186.1810  178.4550  142.0840 C   0  0  0  0  0  3  0  0  0  0  0  0
  187.4870  178.4280  141.8310 C   0  0  0  0  0  3  0  0  0  0  0  0
  188.3940  178.2990  144.5670 N   0  0  0  0  0  0  0  0  0  0  0  0
  189.3260  177.6930  145.2300 C   0  0  0  0  0  0  0  0  0  0  0  0
  188.0790  177.3890  138.2460 N   0  0  0  0  0  0  0  0  0  0  0  0
  188.8270  176.6650  146.1080 N   0  0  0  0  0  0  0  0  0  0  0  0
  190.2840  177.6060  141.9070 C   0  0  0  0  0  2  0  0  0  0  0  0
  191.8010  176.6000  139.4390 Cl  0  0  0  0  0  0  0  0  0  0  0  0
  185.6690  178.9040  143.4200 C   0  0  1  0  0  3  0  0  0  0  0  0
  190.7690  178.0400  145.1200 C   0  0  0  0  0  0  0  0  0  0  0  0
  189.3830  177.0270  138.2750 C   0  0  0  0  0  3  0  0  0  0  0  0
  183.0090  179.1330  143.2710 C   0  0  0  0  0  0  0  0  0  0  0  0
  184.2110  179.0290  143.3230 C   0  0  0  0  0  0  0  0  0  0  0  0
  181.5440  179.2220  143.2330 C   0  0  0  0  0  2  0  0  0  0  0  0
  179.1470  181.5420  141.4010 O   0  0  0  0  0  0  0  0  0  0  0  0
  179.3980  180.2500  142.1300 S   0  0  0  0  0  0  0  0  0  0  0  0
  178.9310  180.1300  143.5570 O   0  0  0  0  0  0  0  0  0  0  0  0
  181.1010  179.8450  141.9900 N   0  0  0  0  0  0  0  0  0  0  0  0
  180.2660  178.9320  141.3720 N   0  0  2  0  0  0  0  0  0  0  0  0
  182.4490  177.0530  140.2170 C   0  0  0  0  0  1  0  0  0  0  0  0
  181.7000  177.3330  138.9240 C   0  0  1  0  0  3  0  0  0  0  0  0
  180.2660  177.8060  139.2040 C   0  0  0  0  0  2  0  0  0  0  0  0
  180.2250  179.1700  139.9200 C   0  0  2  0  0  3  0  0  0  0  0  0
  181.3580  180.1110  139.4490 C   0  0  0  0  0  2  0  0  0  0  0  0
  181.8810  179.7490  138.0640 C   0  0  0  0  0  2  0  0  0  0  0  0
  182.4860  178.3390  138.0680 C   0  0  0  0  0  2  0  0  0  0  0  0
  191.6820  177.6540  146.1460 N   0  0  0  0  0  2  0  0  0  0  0  0
  192.0590  176.3390  146.3430 O   0  0  0  0  0  0  0  0  0  0  0  0
  193.1220  176.3680  148.5220 O   0  0  0  0  0  1  0  0  0  0  0  0
  192.1980  175.8210  147.6310 C   0  0  0  0  0  0  0  0  0  0  0  0
  191.4720  174.8560  148.0020 O   0  0  0  0  0  0  0  0  0  0  0  0
  1 20  2  0  0  0  0
  2 17  1  0  0  0  0
  3  6  2  0  0  0  0
  4  3  1  0  0  0  0
  5  9  2  0  0  0  0
  6  2  1  0  0  0  0
  6 12  1  0  0  0  0
  7  1  1  0  0  0  0
  8 16  2  0  0  0  0
  9  8  1  0  0  0  0
 10  2  2  0  0  0  0
 11 19  1  0  0  0  0
 12 11  2  0  0  0  0
 13  9  1  0  0  0  0
 13 14  2  0  0  0  0
 14 16  1  0  0  0  0
 15 21  2  0  0  0  0
 15  3  1  0  0  0  0
 17  7  1  0  0  0  0
 18 10  1  0  0  0  0
 19 23  1  6  0  0  0
 19  5  1  0  0  0  0
 20 14  1  0  0  0  0
 20 37  1  0  0  0  0
 21 10  1  0  0  0  0
 22 23  3  0  0  0  0
 24 22  1  0  0  0  0
 25 26  2  0  0  0  0
 26 27  2  0  0  0  0
 28 26  1  0  0  0  0
 28 24  1  0  0  0  0
 29 28  1  1  0  0  0
 29 26  1  0  0  0  0
 31 32  1  0  0  0  0
 31 30  1  1  0  0  0
 33 32  1  6  0  0  0
 33 29  1  0  0  0  0
 34 33  1  0  0  0  0
 35 36  1  0  0  0  0
 35 34  1  0  0  0  0
 36 31  1  0  0  0  0
 37 38  1  0  0  0  0
 38 40  1  0  0  0  0
 40 41  2  0  0  0  0
 40 39  1  0  0  0  0
M  END
>  <MODEL>
3

>  <REMARK>
 VINA RESULT:      -7.4      4.989      9.784
  Name = 
  7 active torsions:
  status: ('A' for Active; 'I' for Inactive)
    1  A    between atoms: N_3  and  O_31
    2  A    between atoms: N_3  and  C_39
    3  A    between atoms: C_14  and  C_35
    4  A    between atoms: C_15  and  N_34
    5  A    between atoms: N_27  and  C_35
    6  A    between atoms: C_28  and  O_31
    7  A    between atoms: C_37  and  C_40
                            x       y       z     vdW  Elec       q    Type
                         _______ _______ _______ _____ _____    ______ ____

>  <TORSDO>
F 7

$$$$
=
 OpenBabel10222420383D

 41 45  0  0  1  0  0  0  0  0999 V2000
  182.4160  176.7920  136.9270 C   0  0  0  0  0  3  0  0  0  0  0  0
  186.2180  178.1140  137.3090 C   0  0  0  0  0  0  0  0  0  0  0  0
  188.0510  178.3100  138.9070 C   0  0  0  0  0  0  0  0  0  0  0  0
  188.6340  178.2570  140.2740 C   0  0  0  0  0  1  0  0  0  0  0  0
  183.5760  178.8670  141.7710 C   0  0  0  0  0  3  0  0  0  0  0  0
  186.6740  178.0910  138.6530 C   0  0  0  0  0  0  0  0  0  0  0  0
  184.0830  176.3650  137.4450 S   0  0  0  0  0  0  0  0  0  0  0  0
  181.6820  179.7770  140.4470 C   0  0  0  0  0  3  0  0  0  0  0  0
  182.7470  178.8330  140.7210 C   0  0  0  0  0  0  0  0  0  0  0  0
  187.1330  178.3940  136.2810 C   0  0  0  0  0  0  0  0  0  0  0  0
  185.8240  178.1580  141.0160 C   0  0  0  0  0  3  0  0  0  0  0  0
  185.6790  177.8610  139.7280 C   0  0  0  0  0  3  0  0  0  0  0  0
  182.7950  177.8910  139.6610 N   0  0  0  0  0  0  0  0  0  0  0  0
  181.8690  178.2850  138.8480 C   0  0  0  0  0  0  0  0  0  0  0  0
  188.8970  178.5670  137.8760 N   0  0  0  0  0  0  0  0  0  0  0  0
  181.1480  179.4410  139.3180 N   0  0  0  0  0  0  0  0  0  0  0  0
  184.7550  177.9920  136.9650 C   0  0  0  0  0  2  0  0  0  0  0  0
  186.6340  178.4950  134.5940 Cl  0  0  0  0  0  0  0  0  0  0  0  0
  184.7130  177.9050  141.9900 C   0  0  1  0  0  3  0  0  0  0  0  0
  181.5570  177.5990  137.5650 C   0  0  0  0  0  0  0  0  0  0  0  0
  188.4730  178.6080  136.5910 C   0  0  0  0  0  3  0  0  0  0  0  0
  185.6960  178.2970  144.4460 C   0  0  0  0  0  0  0  0  0  0  0  0
  185.2400  178.1290  143.3410 C   0  0  0  0  0  0  0  0  0  0  0  0
  186.2490  178.4580  145.7980 C   0  0  0  0  0  2  0  0  0  0  0  0
  188.6230  176.7470  148.2310 O   0  0  0  0  0  0  0  0  0  0  0  0
  188.2520  177.9560  147.4160 S   0  0  0  0  0  0  0  0  0  0  0  0
  187.6290  179.1320  148.1210 O   0  0  0  0  0  0  0  0  0  0  0  0
  187.2600  177.4390  146.0610 N   0  0  0  0  0  0  0  0  0  0  0  0
  188.4720  177.9830  145.6790 N   0  0  2  0  0  0  0  0  0  0  0  0
  190.6610  179.4110  144.0040 C   0  0  0  0  0  1  0  0  0  0  0  0
  191.4420  178.1540  144.3530 C   0  0  1  0  0  3  0  0  0  0  0  0
  190.8580  177.4640  145.5940 C   0  0  0  0  0  2  0  0  0  0  0  0
  189.4360  176.9210  145.3510 C   0  0  2  0  0  3  0  0  0  0  0  0
  189.2530  176.3880  143.9110 C   0  0  0  0  0  2  0  0  0  0  0  0
  190.5730  175.9960  143.2600 C   0  0  0  0  0  2  0  0  0  0  0  0
  191.4970  177.2150  143.1370 C   0  0  0  0  0  2  0  0  0  0  0  0
  180.2960  177.8000  136.9290 N   0  0  0  0  0  2  0  0  0  0  0  0
  180.1730  178.4780  135.7300 O   0  0  0  0  0  0  0  0  0  0  0  0
  181.1160  180.5050  134.7930 O   0  0  0  0  0  0  0  0  0  0  0  0
  180.2500  179.8700  135.6840 C   0  0  0  0  0  0  0  0  0  0  0  0
  179.5190  180.5650  136.4450 O   0  0  0  0  0  1  0  0  0  0  0  0
  1  7  1  0  0  0  0
  1 20  2  0  0  0  0
  2  6  1  0  0  0  0
  3  4  1  0  0  0  0
  5 19  1  0  0  0  0
  6  3  2  0  0  0  0
  6 12  1  0  0  0  0
  8  9  1  0  0  0  0
  9  5  2  0  0  0  0
 10 21  1  0  0  0  0
 10  2  2  0  0  0  0
 11 19  1  0  0  0  0
 12 11  2  0  0  0  0
 13  9  1  0  0  0  0
 14 16  1  0  0  0  0
 14 13  2  0  0  0  0
 15  3  1  0  0  0  0
 16  8  2  0  0  0  0
 17  2  1  0  0  0  0
 17  7  1  0  0  0  0
 18 10  1  0  0  0  0
 19 23  1  1  0  0  0
 20 14  1  0  0  0  0
 21 15  2  0  0  0  0
 22 24  1  0  0  0  0
 23 22  3  0  0  0  0
 24 28  1  0  0  0  0
 26 27  2  0  0  0  0
 26 25  2  0  0  0  0
 28 26  1  0  0  0  0
 29 28  1  6  0  0  0
 29 26  1  0  0  0  0
 31 30  1  6  0  0  0
 31 32  1  0  0  0  0
 33 34  1  6  0  0  0
 33 32  1  0  0  0  0
 33 29  1  0  0  0  0
 35 34  1  0  0  0  0
 36 35  1  0  0  0  0
 36 31  1  0  0  0  0
 37 20  1  0  0  0  0
 38 37  1  0  0  0  0
 39 40  2  0  0  0  0
 40 38  1  0  0  0  0
 40 41  1  0  0  0  0
M  END
>  <MODEL>
4

>  <REMARK>
 VINA RESULT:      -7.4      5.894     10.448
  Name = 
  7 active torsions:
  status: ('A' for Active; 'I' for Inactive)
    1  A    between atoms: N_3  and  O_31
    2  A    between atoms: N_3  and  C_39
    3  A    between atoms: C_14  and  C_35
    4  A    between atoms: C_15  and  N_34
    5  A    between atoms: N_27  and  C_35
    6  A    between atoms: C_28  and  O_31
    7  A    between atoms: C_37  and  C_40
                            x       y       z     vdW  Elec       q    Type
                         _______ _______ _______ _____ _____    ______ ____

>  <TORSDO>
F 7

$$$$
=
 OpenBabel10222420383D

 41 45  0  0  1  0  0  0  0  0999 V2000
  192.3820  175.9610  135.9290 C   0  0  0  0  0  3  0  0  0  0  0  0
  189.0540  173.6940  135.5660 C   0  0  0  0  0  0  0  0  0  0  0  0
  186.6170  173.8120  135.5810 C   0  0  0  0  0  0  0  0  0  0  0  0
  185.3210  174.4990  135.8260 C   0  0  0  0  0  1  0  0  0  0  0  0
  188.2610  177.5440  139.0320 C   0  0  0  0  0  3  0  0  0  0  0  0
  187.8670  174.4080  135.8800 C   0  0  0  0  0  0  0  0  0  0  0  0
  190.8090  175.7730  135.0820 S   0  0  0  0  0  0  0  0  0  0  0  0
  190.4610  177.0170  140.0560 C   0  0  0  0  0  3  0  0  0  0  0  0
  189.5610  177.2370  138.9420 C   0  0  0  0  0  0  0  0  0  0  0  0
  188.9520  172.4080  135.0100 C   0  0  0  0  0  0  0  0  0  0  0  0
  187.0540  176.3760  137.2130 C   0  0  0  0  0  3  0  0  0  0  0  0
  187.9970  175.7350  136.5280 C   0  0  0  0  0  3  0  0  0  0  0  0
  190.2780  177.0240  137.7370 N   0  0  0  0  0  0  0  0  0  0  0  0
  191.4620  176.6830  138.1320 C   0  0  0  0  0  0  0  0  0  0  0  0
  186.5730  172.5690  135.0340 N   0  0  0  0  0  0  0  0  0  0  0  0
  191.6110  176.6890  139.5650 N   0  0  0  0  0  0  0  0  0  0  0  0
  190.4160  174.2150  135.9460 C   0  0  0  0  0  2  0  0  0  0  0  0
  190.3760  171.4370  134.6440 Cl  0  0  0  0  0  0  0  0  0  0  0  0
  187.3390  177.7010  137.8520 C   0  0  1  0  0  3  0  0  0  0  0  0
  192.5710  176.3430  137.2000 C   0  0  0  0  0  0  0  0  0  0  0  0
  187.6950  171.8710  134.7440 C   0  0  0  0  0  3  0  0  0  0  0  0
  185.0130  178.6970  138.7170 C   0  0  0  0  0  0  0  0  0  0  0  0
  186.0690  178.2470  138.3410 C   0  0  0  0  0  0  0  0  0  0  0  0
  183.7360  179.2800  139.1490 C   0  0  0  0  0  2  0  0  0  0  0  0
  181.3930  176.2840  139.0120 O   0  0  0  0  0  0  0  0  0  0  0  0
  181.6380  177.7500  138.7770 S   0  0  0  0  0  0  0  0  0  0  0  0
  181.8780  178.2190  137.3660 O   0  0  0  0  0  0  0  0  0  0  0  0
  182.9270  178.2840  139.8440 N   0  0  0  0  0  0  0  0  0  0  0  0
  181.7100  178.8840  140.1080 N   0  0  2  0  0  0  0  0  0  0  0  0
  179.5280  180.9080  140.9910 C   0  0  0  0  0  1  0  0  0  0  0  0
  178.9940  179.6840  141.7180 C   0  0  1  0  0  3  0  0  0  0  0  0
  179.5300  178.3890  141.0920 C   0  0  0  0  0  2  0  0  0  0  0  0
  181.0540  178.2400  141.2570 C   0  0  2  0  0  3  0  0  0  0  0  0
  181.5520  178.8060  142.6080 C   0  0  0  0  0  2  0  0  0  0  0  0
  180.4540  178.8530  143.6630 C   0  0  0  0  0  2  0  0  0  0  0  0
  179.3170  179.7820  143.2170 C   0  0  0  0  0  2  0  0  0  0  0  0
  193.9250  176.3880  137.6460 N   0  0  0  0  0  2  0  0  0  0  0  0
  194.7820  175.3100  137.5160 O   0  0  0  0  0  0  0  0  0  0  0  0
  195.7190  175.2470  139.7510 O   0  0  0  0  0  1  0  0  0  0  0  0
  195.1990  174.5900  138.6360 C   0  0  0  0  0  0  0  0  0  0  0  0
  195.0920  173.3310  138.6490 O   0  0  0  0  0  0  0  0  0  0  0  0
  1 20  2  0  0  0  0
  2  6  1  0  0  0  0
  2 17  1  0  0  0  0
  3  4  1  0  0  0  0
  3  6  2  0  0  0  0
  6 12  1  0  0  0  0
  7  1  1  0  0  0  0
  7 17  1  0  0  0  0
  9  5  2  0  0  0  0
  9  8  1  0  0  0  0
 10  2  2  0  0  0  0
 11 19  1  0  0  0  0
 12 11  2  0  0  0  0
 13 14  2  0  0  0  0
 13  9  1  0  0  0  0
 14 16  1  0  0  0  0
 15  3  1  0  0  0  0
 16  8  2  0  0  0  0
 18 10  1  0  0  0  0
 19 23  1  1  0  0  0
 19  5  1  0  0  0  0
 20 37  1  0  0  0  0
 20 14  1  0  0  0  0
 21 10  1  0  0  0  0
 21 15  2  0  0  0  0
 22 24  1  0  0  0  0
 23 22  3  0  0  0  0
 24 28  1  0  0  0  0
 26 25  2  0  0  0  0
 26 28  1  0  0  0  0
 26 29  1  0  0  0  0
 27 26  2  0  0  0  0
 29 28  1  1  0  0  0
 29 33  1  0  0  0  0
 31 30  1  6  0  0  0
 31 36  1  0  0  0  0
 32 31  1  0  0  0  0
 33 32  1  6  0  0  0
 33 34  1  0  0  0  0
 34 35  1  0  0  0  0
 36 35  1  0  0  0  0
 38 37  1  0  0  0  0
 38 40  1  0  0  0  0
 40 41  2  0  0  0  0
 40 39  1  0  0  0  0
M  END
>  <MODEL>
5

>  <REMARK>
 VINA RESULT:      -6.8      5.199     10.915
  Name = 
  7 active torsions:
  status: ('A' for Active; 'I' for Inactive)
    1  A    between atoms: N_3  and  O_31
    2  A    between atoms: N_3  and  C_39
    3  A    between atoms: C_14  and  C_35
    4  A    between atoms: C_15  and  N_34
    5  A    between atoms: N_27  and  C_35
    6  A    between atoms: C_28  and  O_31
    7  A    between atoms: C_37  and  C_40
                            x       y       z     vdW  Elec       q    Type
                         _______ _______ _______ _____ _____    ______ ____

>  <TORSDO>
F 7

$$$$
=
 OpenBabel10222420383D

 41 45  0  0  1  0  0  0  0  0999 V2000
  190.6830  178.6680  144.4870 C   0  0  0  0  0  3  0  0  0  0  0  0
  190.6060  177.4990  140.6180 C   0  0  0  0  0  0  0  0  0  0  0  0
  189.3410  177.7380  138.5450 C   0  0  0  0  0  0  0  0  0  0  0  0
  188.1520  178.1540  137.7540 C   0  0  0  0  0  1  0  0  0  0  0  0
  185.7270  177.9620  142.4740 C   0  0  0  0  0  3  0  0  0  0  0  0
  189.4110  177.8800  139.9540 C   0  0  0  0  0  0  0  0  0  0  0  0
  190.5800  179.2190  142.7810 S   0  0  0  0  0  0  0  0  0  0  0  0
  186.4300  176.7300  144.5120 C   0  0  0  0  0  3  0  0  0  0  0  0
  186.5960  177.7140  143.4610 C   0  0  0  0  0  0  0  0  0  0  0  0
  191.6620  176.9560  139.8680 C   0  0  0  0  0  0  0  0  0  0  0  0
  187.0050  178.4450  140.4100 C   0  0  0  0  0  3  0  0  0  0  0  0
  188.2840  178.3880  140.7730 C   0  0  0  0  0  3  0  0  0  0  0  0
  187.8580  178.3390  143.6260 N   0  0  0  0  0  0  0  0  0  0  0  0
  188.3740  177.7410  144.6520 C   0  0  0  0  0  0  0  0  0  0  0  0
  190.3940  177.2160  137.8650 N   0  0  0  0  0  0  0  0  0  0  0  0
  187.5030  176.7520  145.2350 N   0  0  0  0  0  0  0  0  0  0  0  0
  190.7210  177.5240  142.1210 C   0  0  0  0  0  2  0  0  0  0  0  0
  193.1550  176.4080  140.6260 Cl  0  0  0  0  0  0  0  0  0  0  0  0
  185.9610  178.9480  141.3610 C   0  0  1  0  0  3  0  0  0  0  0  0
  189.7210  178.0600  145.1960 C   0  0  0  0  0  0  0  0  0  0  0  0
  191.5340  176.8340  138.4870 C   0  0  0  0  0  3  0  0  0  0  0  0
  183.6820  179.1930  139.9830 C   0  0  0  0  0  0  0  0  0  0  0  0
  184.7060  179.0930  140.6140 C   0  0  0  0  0  0  0  0  0  0  0  0
  182.4600  179.3260  139.1780 C   0  0  0  0  0  2  0  0  0  0  0  0
  179.7840  181.2270  141.1030 O   0  0  0  0  0  0  0  0  0  0  0  0
  180.1540  180.2320  140.0370 S   0  0  0  0  0  0  0  0  0  0  0  0
  179.9910  178.7650  140.3370 O   0  0  0  0  0  0  0  0  0  0  0  0
  181.7820  180.5820  139.4800 N   0  0  0  0  0  0  0  0  0  0  0  0
  180.8180  180.7500  138.5020 N   0  0  2  0  0  0  0  0  0  0  0  0
  180.6040  181.1660  135.4340 C   0  0  0  0  0  1  0  0  0  0  0  0
  179.8820  182.4290  135.8740 C   0  0  1  0  0  3  0  0  0  0  0  0
  179.3510  182.2940  137.3080 C   0  0  0  0  0  2  0  0  0  0  0  0
  180.4820  182.1740  138.3470 C   0  0  2  0  0  3  0  0  0  0  0  0
  181.7140  183.0290  137.9690 C   0  0  0  0  0  2  0  0  0  0  0  0
  181.3640  184.1800  137.0350 C   0  0  0  0  0  2  0  0  0  0  0  0
  180.8050  183.6460  135.7080 C   0  0  0  0  0  2  0  0  0  0  0  0
  190.0630  177.6960  146.5320 N   0  0  0  0  0  2  0  0  0  0  0  0
  190.4510  176.4130  146.8720 O   0  0  0  0  0  0  0  0  0  0  0  0
  192.3870  176.8100  148.2760 O   0  0  0  0  0  1  0  0  0  0  0  0
  191.7730  176.1340  147.2210 C   0  0  0  0  0  0  0  0  0  0  0  0
  192.4170  175.2520  146.5870 O   0  0  0  0  0  0  0  0  0  0  0  0
  1 20  2  0  0  0  0
  2 17  1  0  0  0  0
  3  6  2  0  0  0  0
  4  3  1  0  0  0  0
  5  9  2  0  0  0  0
  6  2  1  0  0  0  0
  6 12  1  0  0  0  0
  7  1  1  0  0  0  0
  8 16  2  0  0  0  0
  9 13  1  0  0  0  0
  9  8  1  0  0  0  0
 10  2  2  0  0  0  0
 10 18  1  0  0  0  0
 11 12  2  0  0  0  0
 11 19  1  0  0  0  0
 13 14  2  0  0  0  0
 14 20  1  0  0  0  0
 14 16  1  0  0  0  0
 15 21  2  0  0  0  0
 15  3  1  0  0  0  0
 17  7  1  0  0  0  0
 19 23  1  6  0  0  0
 19  5  1  0  0  0  0
 20 37  1  0  0  0  0
 21 10  1  0  0  0  0
 22 23  3  0  0  0  0
 24 28  1  0  0  0  0
 24 22  1  0  0  0  0
 26 27  2  0  0  0  0
 26 25  2  0  0  0  0
 28 26  1  0  0  0  0
 29 28  1  1  0  0  0
 29 26  1  0  0  0  0
 31 30  1  1  0  0  0
 31 32  1  0  0  0  0
 33 32  1  6  0  0  0
 33 29  1  0  0  0  0
 34 33  1  0  0  0  0
 35 34  1  0  0  0  0
 36 31  1  0  0  0  0
 36 35  1  0  0  0  0
 37 38  1  0  0  0  0
 38 40  1  0  0  0  0
 40 39  1  0  0  0  0
 41 40  2  0  0  0  0
M  END
>  <MODEL>
6

>  <REMARK>
 VINA RESULT:      -6.7      4.811     10.188
  Name = 
  7 active torsions:
  status: ('A' for Active; 'I' for Inactive)
    1  A    between atoms: N_3  and  O_31
    2  A    between atoms: N_3  and  C_39
    3  A    between atoms: C_14  and  C_35
    4  A    between atoms: C_15  and  N_34
    5  A    between atoms: N_27  and  C_35
    6  A    between atoms: C_28  and  O_31
    7  A    between atoms: C_37  and  C_40
                            x       y       z     vdW  Elec       q    Type
                         _______ _______ _______ _____ _____    ______ ____

>  <TORSDO>
F 7

$$$$
=
 OpenBabel10222420383D

 41 45  0  0  1  0  0  0  0  0999 V2000
  190.7880  177.8780  140.3680 C   0  0  0  0  0  3  0  0  0  0  0  0
  188.7990  175.7220  137.5850 C   0  0  0  0  0  0  0  0  0  0  0  0
  186.8410  175.7720  136.1300 C   0  0  0  0  0  0  0  0  0  0  0  0
  185.5430  176.3310  135.6660 C   0  0  0  0  0  1  0  0  0  0  0  0
  185.4230  178.4280  140.5430 C   0  0  0  0  0  3  0  0  0  0  0  0
  187.5430  176.2910  137.2460 C   0  0  0  0  0  0  0  0  0  0  0  0
  190.0730  177.8960  138.7200 S   0  0  0  0  0  0  0  0  0  0  0  0
  186.6660  177.6900  142.5620 C   0  0  0  0  0  3  0  0  0  0  0  0
  186.5610  178.1900  141.2060 C   0  0  0  0  0  0  0  0  0  0  0  0
  189.2860  174.6420  136.8330 C   0  0  0  0  0  0  0  0  0  0  0  0
  185.7500  177.7870  138.1740 C   0  0  0  0  0  3  0  0  0  0  0  0
  187.0160  177.3860  138.0950 C   0  0  0  0  0  3  0  0  0  0  0  0
  187.8700  178.3410  140.6810 N   0  0  0  0  0  0  0  0  0  0  0  0
  188.6410  177.9310  141.6360 C   0  0  0  0  0  0  0  0  0  0  0  0
  187.3610  174.7310  135.4280 N   0  0  0  0  0  0  0  0  0  0  0  0
  187.9240  177.5400  142.8230 N   0  0  0  0  0  0  0  0  0  0  0  0
  189.5560  176.1490  138.8170 C   0  0  0  0  0  2  0  0  0  0  0  0
  190.8090  173.8470  137.2240 Cl  0  0  0  0  0  0  0  0  0  0  0  0
  185.3510  178.8870  139.1110 C   0  0  1  0  0  3  0  0  0  0  0  0
  190.1250  177.8940  141.5330 C   0  0  0  0  0  0  0  0  0  0  0  0
  188.5490  174.1700  135.7490 C   0  0  0  0  0  3  0  0  0  0  0  0
  182.8060  179.5100  138.5800 C   0  0  0  0  0  0  0  0  0  0  0  0
  183.9580  179.2430  138.8190 C   0  0  0  0  0  0  0  0  0  0  0  0
  181.4050  179.8090  138.2520 C   0  0  0  0  0  2  0  0  0  0  0  0
  179.3150  182.0050  140.5520 O   0  0  0  0  0  0  0  0  0  0  0  0
  179.4020  181.0860  139.3640 S   0  0  0  0  0  0  0  0  0  0  0  0
  178.9310  179.6640  139.5210 O   0  0  0  0  0  0  0  0  0  0  0  0
  181.0400  181.1380  138.7300 N   0  0  0  0  0  0  0  0  0  0  0  0
  180.0930  181.6240  137.8470 N   0  0  2  0  0  0  0  0  0  0  0  0
  180.0590  182.4370  134.8520 C   0  0  0  0  0  1  0  0  0  0  0  0
  179.6150  183.7660  135.4410 C   0  0  1  0  0  3  0  0  0  0  0  0
  179.0270  183.5810  136.8470 C   0  0  0  0  0  2  0  0  0  0  0  0
  180.0760  183.0950  137.8660 C   0  0  2  0  0  3  0  0  0  0  0  0
  181.4740  183.7000  137.5970 C   0  0  0  0  0  2  0  0  0  0  0  0
  181.4060  185.0020  136.8090 C   0  0  0  0  0  2  0  0  0  0  0  0
  180.7830  184.7640  135.4270 C   0  0  0  0  0  2  0  0  0  0  0  0
  190.9280  177.8440  142.7110 N   0  0  0  0  0  2  0  0  0  0  0  0
  191.0510  176.6980  143.4740 O   0  0  0  0  0  0  0  0  0  0  0  0
  192.0550  176.3960  145.6600 O   0  0  0  0  0  1  0  0  0  0  0  0
  190.9650  176.7530  144.8660 C   0  0  0  0  0  0  0  0  0  0  0  0
  189.8950  177.1420  145.4140 O   0  0  0  0  0  0  0  0  0  0  0  0
  1 20  2  0  0  0  0
  2 17  1  0  0  0  0
  3  6  2  0  0  0  0
  4  3  1  0  0  0  0
  5  9  2  0  0  0  0
  6  2  1  0  0  0  0
  6 12  1  0  0  0  0
  7 17  1  0  0  0  0
  7  1  1  0  0  0  0
  8 16  2  0  0  0  0
  9  8  1  0  0  0  0
 10 18  1  0  0  0  0
 10  2  2  0  0  0  0
 11 19  1  0  0  0  0
 12 11  2  0  0  0  0
 13  9  1  0  0  0  0
 13 14  2  0  0  0  0
 14 16  1  0  0  0  0
 15 21  2  0  0  0  0
 15  3  1  0  0  0  0
 19 23  1  6  0  0  0
 19  5  1  0  0  0  0
 20 14  1  0  0  0  0
 20 37  1  0  0  0  0
 21 10  1  0  0  0  0
 22 23  3  0  0  0  0
 24 22  1  0  0  0  0
 24 28  1  0  0  0  0
 26 27  2  0  0  0  0
 26 25  2  0  0  0  0
 28 26  1  0  0  0  0
 29 33  1  0  0  0  0
 29 28  1  1  0  0  0
 29 26  1  0  0  0  0
 31 30  1  1  0  0  0
 31 32  1  0  0  0  0
 33 32  1  6  0  0  0
 34 33  1  0  0  0  0
 35 34  1  0  0  0  0
 36 31  1  0  0  0  0
 36 35  1  0  0  0  0
 37 38  1  0  0  0  0
 38 40  1  0  0  0  0
 40 41  2  0  0  0  0
 40 39  1  0  0  0  0
M  END
>  <MODEL>
7

>  <REMARK>
 VINA RESULT:      -6.7      5.630     10.878
  Name = 
  7 active torsions:
  status: ('A' for Active; 'I' for Inactive)
    1  A    between atoms: N_3  and  O_31
    2  A    between atoms: N_3  and  C_39
    3  A    between atoms: C_14  and  C_35
    4  A    between atoms: C_15  and  N_34
    5  A    between atoms: N_27  and  C_35
    6  A    between atoms: C_28  and  O_31
    7  A    between atoms: C_37  and  C_40
                            x       y       z     vdW  Elec       q    Type
                         _______ _______ _______ _____ _____    ______ ____

>  <TORSDO>
F 7

$$$$
=
 OpenBabel10222420383D

 41 45  0  0  1  0  0  0  0  0999 V2000
  191.2520  177.5350  140.6320 C   0  0  0  0  0  3  0  0  0  0  0  0
  189.1440  175.7800  137.6620 C   0  0  0  0  0  0  0  0  0  0  0  0
  187.1990  176.0890  136.2210 C   0  0  0  0  0  0  0  0  0  0  0  0
  185.9400  176.7690  135.8150 C   0  0  0  0  0  1  0  0  0  0  0  0
  185.9310  178.3990  140.8690 C   0  0  0  0  0  3  0  0  0  0  0  0
  187.9270  176.4550  137.3810 C   0  0  0  0  0  0  0  0  0  0  0  0
  190.5460  177.7530  138.9950 S   0  0  0  0  0  0  0  0  0  0  0  0
  187.1170  177.3980  142.8070 C   0  0  0  0  0  3  0  0  0  0  0  0
  187.0500  178.0290  141.5040 C   0  0  0  0  0  0  0  0  0  0  0  0
  189.5660  174.7470  136.8100 C   0  0  0  0  0  0  0  0  0  0  0  0
  186.2270  177.9650  138.4500 C   0  0  0  0  0  3  0  0  0  0  0  0
  187.4660  177.4960  138.3310 C   0  0  0  0  0  3  0  0  0  0  0  0
  188.3670  178.1470  140.9930 N   0  0  0  0  0  0  0  0  0  0  0  0
  189.1080  177.6020  141.9040 C   0  0  0  0  0  0  0  0  0  0  0  0
  187.6550  175.0890  135.4240 N   0  0  0  0  0  0  0  0  0  0  0  0
  188.3630  177.1460  143.0500 N   0  0  0  0  0  0  0  0  0  0  0  0
  189.9210  176.0410  138.9270 C   0  0  0  0  0  2  0  0  0  0  0  0
  191.0350  173.8250  137.1210 Cl  0  0  0  0  0  0  0  0  0  0  0  0
  185.8940  178.9950  139.4870 C   0  0  1  0  0  3  0  0  0  0  0  0
  190.5870  177.4820  141.7950 C   0  0  0  0  0  0  0  0  0  0  0  0
  188.8060  174.4260  135.6880 C   0  0  0  0  0  3  0  0  0  0  0  0
  183.4040  179.8640  139.0460 C   0  0  0  0  0  0  0  0  0  0  0  0
  184.5270  179.4630  139.2330 C   0  0  0  0  0  0  0  0  0  0  0  0
  182.0260  180.3370  138.8600 C   0  0  0  0  0  2  0  0  0  0  0  0
  178.9340  179.6850  136.7380 O   0  0  0  0  0  0  0  0  0  0  0  0
  179.6340  179.6070  138.0680 S   0  0  0  0  0  0  0  0  0  0  0  0
  179.2670  180.6090  139.1310 O   0  0  0  0  0  0  0  0  0  0  0  0
  181.3680  179.5910  137.7920 N   0  0  0  0  0  0  0  0  0  0  0  0
  180.8920  178.4260  138.3650 N   0  0  2  0  0  0  0  0  0  0  0  0
  182.5010  176.0230  139.4920 C   0  0  0  0  0  1  0  0  0  0  0  0
  181.6880  175.2690  138.4520 C   0  0  1  0  0  3  0  0  0  0  0  0
  180.4230  176.0480  138.0650 C   0  0  0  0  0  2  0  0  0  0  0  0
  180.7420  177.3730  137.3480 C   0  0  2  0  0  3  0  0  0  0  0  0
  181.9860  177.2580  136.4360 C   0  0  0  0  0  2  0  0  0  0  0  0
  182.2680  175.8230  136.0100 C   0  0  0  0  0  2  0  0  0  0  0  0
  182.5670  174.9460  137.2330 C   0  0  0  0  0  2  0  0  0  0  0  0
  191.3800  177.2720  142.9620 N   0  0  0  0  0  2  0  0  0  0  0  0
  191.4060  178.1730  144.0100 O   0  0  0  0  0  0  0  0  0  0  0  0
  191.9000  177.0630  146.1080 O   0  0  0  0  0  1  0  0  0  0  0  0
  191.0260  177.7860  145.2950 C   0  0  0  0  0  0  0  0  0  0  0  0
  189.8850  178.1030  145.7350 O   0  0  0  0  0  0  0  0  0  0  0  0
  1 20  2  0  0  0  0
  2 17  1  0  0  0  0
  3  6  2  0  0  0  0
  4  3  1  0  0  0  0
  5  9  2  0  0  0  0
  6  2  1  0  0  0  0
  6 12  1  0  0  0  0
  7  1  1  0  0  0  0
  8 16  2  0  0  0  0
  9  8  1  0  0  0  0
 10 18  1  0  0  0  0
 10  2  2  0  0  0  0
 11 19  1  0  0  0  0
 12 11  2  0  0  0  0
 13  9  1  0  0  0  0
 13 14  2  0  0  0  0
 14 16  1  0  0  0  0
 15 21  2  0  0  0  0
 15  3  1  0  0  0  0
 17  7  1  0  0  0  0
 19 23  1  6  0  0  0
 19  5  1  0  0  0  0
 20 14  1  0  0  0  0
 20 37  1  0  0  0  0
 21 10  1  0  0  0  0
 22 23  3  0  0  0  0
 24 22  1  0  0  0  0
 25 26  2  0  0  0  0
 26 29  1  0  0  0  0
 26 27  2  0  0  0  0
 28 26  1  0  0  0  0
 28 24  1  0  0  0  0
 29 28  1  6  0  0  0
 31 30  1  1  0  0  0
 32 31  1  0  0  0  0
 33 34  1  1  0  0  0
 33 32  1  0  0  0  0
 33 29  1  0  0  0  0
 35 34  1  0  0  0  0
 35 36  1  0  0  0  0
 36 31  1  0  0  0  0
 37 38  1  0  0  0  0
 38 40  1  0  0  0  0
 40 41  2  0  0  0  0
 40 39  1  0  0  0  0
M  END
>  <MODEL>
8

>  <REMARK>
 VINA RESULT:      -6.6      5.220      9.348
  Name = 
  7 active torsions:
  status: ('A' for Active; 'I' for Inactive)
    1  A    between atoms: N_3  and  O_31
    2  A    between atoms: N_3  and  C_39
    3  A    between atoms: C_14  and  C_35
    4  A    between atoms: C_15  and  N_34
    5  A    between atoms: N_27  and  C_35
    6  A    between atoms: C_28  and  O_31
    7  A    between atoms: C_37  and  C_40
                            x       y       z     vdW  Elec       q    Type
                         _______ _______ _______ _____ _____    ______ ____

>  <TORSDO>
F 7

$$$$
=
 OpenBabel10222420383D

 41 45  0  0  1  0  0  0  0  0999 V2000
  192.1720  176.0000  136.4710 C   0  0  0  0  0  3  0  0  0  0  0  0
  188.8220  173.8510  135.7640 C   0  0  0  0  0  0  0  0  0  0  0  0
  186.4010  174.0530  135.5360 C   0  0  0  0  0  0  0  0  0  0  0  0
  185.1110  174.7850  135.6540 C   0  0  0  0  0  1  0  0  0  0  0  0
  187.8180  177.7190  139.1550 C   0  0  0  0  0  3  0  0  0  0  0  0
  187.6350  174.6050  135.9620 C   0  0  0  0  0  0  0  0  0  0  0  0
  190.6870  175.8690  135.4700 S   0  0  0  0  0  0  0  0  0  0  0  0
  189.8850  177.1150  140.3910 C   0  0  0  0  0  3  0  0  0  0  0  0
  189.1090  177.3670  139.1940 C   0  0  0  0  0  0  0  0  0  0  0  0
  188.7320  172.5710  135.1940 C   0  0  0  0  0  0  0  0  0  0  0  0
  186.7610  176.5970  137.2180 C   0  0  0  0  0  3  0  0  0  0  0  0
  187.7450  175.9250  136.6270 C   0  0  0  0  0  3  0  0  0  0  0  0
  189.9360  177.1330  138.0650 N   0  0  0  0  0  0  0  0  0  0  0  0
  191.0620  176.7490  138.5750 C   0  0  0  0  0  0  0  0  0  0  0  0
  186.3690  172.8140  134.9810 N   0  0  0  0  0  0  0  0  0  0  0  0
  191.0670  176.7470  140.0160 N   0  0  0  0  0  0  0  0  0  0  0  0
  190.1560  174.3230  136.2810 C   0  0  0  0  0  2  0  0  0  0  0  0
  190.1510  171.5520  134.9670 Cl  0  0  0  0  0  0  0  0  0  0  0  0
  187.0260  177.9110  137.8890 C   0  0  1  0  0  3  0  0  0  0  0  0
  192.2460  176.3730  137.7560 C   0  0  0  0  0  0  0  0  0  0  0  0
  187.4900  172.0780  134.8010 C   0  0  0  0  0  3  0  0  0  0  0  0
  184.6800  179.0070  138.5580 C   0  0  0  0  0  0  0  0  0  0  0  0
  185.7320  178.5000  138.2520 C   0  0  0  0  0  0  0  0  0  0  0  0
  183.4150  179.6290  138.9720 C   0  0  0  0  0  2  0  0  0  0  0  0
  180.2640  180.4560  137.0050 O   0  0  0  0  0  0  0  0  0  0  0  0
  180.9560  180.2750  138.3290 S   0  0  0  0  0  0  0  0  0  0  0  0
  181.3590  181.5030  139.1020 O   0  0  0  0  0  0  0  0  0  0  0  0
  182.3230  179.1950  138.1070 N   0  0  0  0  0  0  0  0  0  0  0  0
  181.3460  178.6810  138.9390 N   0  0  2  0  0  0  0  0  0  0  0  0
  182.6700  175.9220  139.4610 C   0  0  0  0  0  1  0  0  0  0  0  0
  181.3170  175.4240  138.9800 C   0  0  1  0  0  3  0  0  0  0  0  0
  180.2410  176.5100  139.1260 C   0  0  0  0  0  2  0  0  0  0  0  0
  180.4990  177.7230  138.2110 C   0  0  2  0  0  3  0  0  0  0  0  0
  181.1160  177.3090  136.8550 C   0  0  0  0  0  2  0  0  0  0  0  0
  180.8190  175.8580  136.4950 C   0  0  0  0  0  2  0  0  0  0  0  0
  181.4290  174.9100  137.5360 C   0  0  0  0  0  2  0  0  0  0  0  0
  193.5500  176.3700  138.3360 N   0  0  0  0  0  2  0  0  0  0  0  0
  194.5830  175.6040  137.8270 O   0  0  0  0  0  0  0  0  0  0  0  0
  194.8920  173.2360  138.2440 O   0  0  0  0  0  0  0  0  0  0  0  0
  195.1410  174.5680  138.5760 C   0  0  0  0  0  0  0  0  0  0  0  0
  195.8910  174.8350  139.5570 O   0  0  0  0  0  1  0  0  0  0  0  0
  1 20  2  0  0  0  0
  2  6  1  0  0  0  0
  2 17  1  0  0  0  0
  3  4  1  0  0  0  0
  3  6  2  0  0  0  0
  5  9  2  0  0  0  0
  6 12  1  0  0  0  0
  7 17  1  0  0  0  0
  7  1  1  0  0  0  0
  9  8  1  0  0  0  0
 10  2  2  0  0  0  0
 11 19  1  0  0  0  0
 12 11  2  0  0  0  0
 13 14  2  0  0  0  0
 13  9  1  0  0  0  0
 14 16  1  0  0  0  0
 15  3  1  0  0  0  0
 16  8  2  0  0  0  0
 18 10  1  0  0  0  0
 19 23  1  1  0  0  0
 19  5  1  0  0  0  0
 20 37  1  0  0  0  0
 20 14  1  0  0  0  0
 21 15  2  0  0  0  0
 21 10  1  0  0  0  0
 22 24  1  0  0  0  0
 23 22  3  0  0  0  0
 25 26  2  0  0  0  0
 26 29  1  0  0  0  0
 26 27  2  0  0  0  0
 28 26  1  0  0  0  0
 28 24  1  0  0  0  0
 29 28  1  6  0  0  0
 31 32  1  0  0  0  0
 31 30  1  6  0  0  0
 33 34  1  6  0  0  0
 33 29  1  0  0  0  0
 33 32  1  0  0  0  0
 35 34  1  0  0  0  0
 35 36  1  0  0  0  0
 36 31  1  0  0  0  0
 38 37  1  0  0  0  0
 38 40  1  0  0  0  0
 39 40  2  0  0  0  0
 40 41  1  0  0  0  0
M  END
>  <MODEL>
9

>  <REMARK>
 VINA RESULT:      -6.6      5.458     10.259
  Name = 
  7 active torsions:
  status: ('A' for Active; 'I' for Inactive)
    1  A    between atoms: N_3  and  O_31
    2  A    between atoms: N_3  and  C_39
    3  A    between atoms: C_14  and  C_35
    4  A    between atoms: C_15  and  N_34
    5  A    between atoms: N_27  and  C_35
    6  A    between atoms: C_28  and  O_31
    7  A    between atoms: C_37  and  C_40
                            x       y       z     vdW  Elec       q    Type
                         _______ _______ _______ _____ _____    ______ ____

>  <TORSDO>
F 7

$$$$
