=
 OpenBabel10222419243D

 49 53  0  0  1  0  0  0  0  0999 V2000
  186.6880  178.8530  140.6550 S   0  0  0  0  0  0  0  0  0  0  0  0
  190.9550  176.8910  140.3370 C   0  0  0  0  0  3  0  0  0  0  0  0
  192.1880  175.6820  137.1810 C   0  0  0  0  0  0  0  0  0  0  0  0
  194.1430  174.1280  136.9620 N   0  0  0  0  0  2  0  0  0  0  0  0
  187.1960  177.0100  136.4790 O   0  0  0  0  0  0  0  0  0  0  0  0
  192.1670  173.6010  135.8190 N   0  0  0  0  0  0  0  0  0  0  0  0
  188.3060  178.4400  140.8070 C   0  0  0  0  0  0  0  0  0  0  0  0
  189.8650  173.7850  136.4740 C   0  0  2  0  0  3  0  0  0  0  0  0
  187.6450  177.5300  138.7530 C   0  0  0  0  0  0  0  0  0  0  0  0
  190.5540  177.2270  138.0180 N   0  0  0  0  0  2  0  0  0  0  0  0
  188.5050  175.4620  137.6260 N   0  0  0  0  0  2  0  0  0  0  0  0
  193.1950  176.6650  137.7020 C   0  0  0  0  0  1  0  0  0  0  0  0
  188.5600  173.1380  136.0370 C   0  0  0  0  0  1  0  0  0  0  0  0
  190.8710  175.9920  137.3580 C   0  0  0  0  0  0  0  0  0  0  0  0
  192.7840  174.4260  136.6130 C   0  0  0  0  0  0  0  0  0  0  0  0
  188.7140  177.7310  139.6620 C   0  0  0  0  0  0  0  0  0  0  0  0
  189.6700  175.2600  136.7710 C   0  0  1  0  0  3  0  0  0  0  0  0
  190.4090  178.3840  142.1640 C   0  0  0  0  0  2  0  0  0  0  0  0
  190.8170  173.7140  135.3160 C   0  0  0  0  0  2  0  0  0  0  0  0
  187.7470  176.6710  137.5600 C   0  0  0  0  0  0  0  0  0  0  0  0
  186.4550  178.1380  139.1530 C   0  0  0  0  0  0  0  0  0  0  0  0
  189.0510  178.7460  141.9550 O   0  0  0  0  0  0  0  0  0  0  0  0
  190.1030  177.2660  139.3780 C   0  0  0  0  0  0  0  0  0  0  0  0
  190.6410  176.9340  141.7900 C   0  0  2  0  0  3  0  0  0  0  0  0
  194.8420  172.9460  136.4810 C   0  0  0  0  0  1  0  0  0  0  0  0
  185.1390  178.0420  138.4520 C   0  0  0  0  0  2  0  0  0  0  0  0
  183.0050  178.3420  139.7710 N   0  0  0  0  0  2  0  0  0  0  0  0
  184.1280  178.9220  139.1050 C   0  0  0  0  0  0  0  0  0  0  0  0
  184.2570  180.1740  139.0340 O   0  0  0  0  0  0  0  0  0  0  0  0
  181.1660  179.7250  139.3730 O   0  0  0  0  0  1  0  0  0  0  0  0
  181.9530  179.1510  140.3740 C   0  0  1  0  0  3  0  0  0  0  0  0
  181.0960  178.3110  141.3320 C   0  0  2  0  0  3  0  0  0  0  0  0
  179.8150  177.8080  140.6110 C   0  0  0  0  0  3  0  0  0  0  0  0
  179.3750  176.4290  141.0720 C   0  0  0  0  0  2  0  0  0  0  0  0
  180.0540  176.5990  139.7260 C   0  0  0  0  0  2  0  0  0  0  0  0
  182.2250  179.0330  143.4600 C   0  0  0  0  0  1  0  0  0  0  0  0
  180.4490  180.3090  142.5590 O   0  0  0  0  0  1  0  0  0  0  0  0
  180.9090  178.9970  142.7050 C   0  0  1  0  0  3  0  0  0  0  0  0
  191.7240  176.4330  142.5150 O   0  0  0  0  0  0  0  0  0  0  0  0
  191.1700  175.9400  143.6990 C   0  0  1  0  0  3  0  0  0  0  0  0
  191.9790  174.9260  144.2170 O   0  0  0  0  0  1  0  0  0  0  0  0
  190.9850  177.0610  144.7230 C   0  0  0  0  0  2  0  0  0  0  0  0
  189.6930  176.9420  146.9300 N   0  0  0  0  0  0  0  0  0  0  0  0
  188.6250  176.8120  144.8360 O   0  0  0  0  0  0  0  0  0  0  0  0
  189.6980  176.9380  145.4850 C   0  0  0  0  0  0  0  0  0  0  0  0
  190.9520  176.8570  147.6550 C   0  0  0  0  0  1  0  0  0  0  0  0
  188.5080  176.9770  147.6950 N   0  0  0  0  0  2  0  0  0  0  0  0
  186.5110  178.6020  147.2380 C   0  0  0  0  0  3  0  0  0  0  0  0
  187.4330  177.8490  147.4520 C   0  0  0  0  0  0  0  0  0  0  0  0
  1  7  1  0  0  0  0
  2 24  1  0  0  0  0
  3 14  2  0  0  0  0
  3 12  1  0  0  0  0
  5 20  2  0  0  0  0
  6 15  2  0  0  0  0
  7 22  1  0  0  0  0
  8 13  1  6  0  0  0
  8 17  1  0  0  0  0
  9 21  2  0  0  0  0
  9 16  1  0  0  0  0
 10 23  1  0  0  0  0
 14 10  1  0  0  0  0
 15  4  1  0  0  0  0
 15  3  1  0  0  0  0
 16  7  2  0  0  0  0
 17 14  1  1  0  0  0
 17 11  1  0  0  0  0
 19  6  1  0  0  0  0
 19  8  1  0  0  0  0
 20 11  1  0  0  0  0
 20  9  1  0  0  0  0
 21  1  1  0  0  0  0
 22 18  1  0  0  0  0
 23 16  1  0  0  0  0
 23  2  2  0  0  0  0
 24 18  1  0  0  0  0
 24 39  1  1  0  0  0
 25  4  1  0  0  0  0
 26 28  1  0  0  0  0
 26 21  1  0  0  0  0
 27 31  1  0  0  0  0
 28 27  1  0  0  0  0
 29 28  2  0  0  0  0
 31 30  1  6  0  0  0
 32 31  1  6  0  0  0
 32 38  1  0  0  0  0
 33 34  1  0  0  0  0
 33 32  1  0  0  0  0
 35 33  1  0  0  0  0
 35 34  1  0  0  0  0
 37 38  1  0  0  0  0
 38 36  1  6  0  0  0
 39 40  1  0  0  0  0
 40 41  1  1  0  0  0
 40 42  1  0  0  0  0
 42 45  1  0  0  0  0
 43 46  1  0  0  0  0
 43 47  1  0  0  0  0
 44 45  2  0  0  0  0
 45 43  1  0  0  0  0
 48 49  3  0  0  0  0
 49 47  1  0  0  0  0
M  END
>  <MODEL>
1

>  <REMARK>
 VINA RESULT:      -8.0      0.000      0.000
  Name = 
  12 active torsions:
  status: ('A' for Active; 'I' for Inactive)
    1  A    between atoms: C_2  and  O_42
    2  A    between atoms: C_2  and  C_43
    3  A    between atoms: C_5  and  C_12
    4  A    between atoms: C_5  and  C_34
    5  A    between atoms: C_5  and  C_35
    6  A    between atoms: N_11  and  C_34
    7  A    between atoms: C_13  and  C_36
    8  A    between atoms: N_16  and  N_22
    9  A    between atoms: N_22  and  C_45
   10  A    between atoms: C_36  and  C_39
   11  A    between atoms: O_42  and  C_48
   12  A    between atoms: C_43  and  C_46
                            x       y       z     vdW  Elec       q    Type
                         _______ _______ _______ _____ _____    ______ ____

>  <TORSDO>
F 12

$$$$
=
 OpenBabel10222419243D

 49 53  0  0  1  0  0  0  0  0999 V2000
  186.3400  177.7140  135.9030 S   0  0  0  0  0  0  0  0  0  0  0  0
  183.9790  177.7310  139.9760 C   0  0  0  0  0  3  0  0  0  0  0  0
  185.5330  178.9250  142.9920 C   0  0  0  0  0  0  0  0  0  0  0  0
  184.6350  178.4680  145.2870 N   0  0  0  0  0  2  0  0  0  0  0  0
  189.2280  178.7520  139.3200 O   0  0  0  0  0  0  0  0  0  0  0  0
  186.9050  178.0610  144.8780 N   0  0  0  0  0  0  0  0  0  0  0  0
  185.1900  177.8260  137.1190 C   0  0  0  0  0  0  0  0  0  0  0  0
  188.0240  177.1120  142.9780 C   0  0  2  0  0  3  0  0  0  0  0  0
  187.2470  178.0430  138.2160 C   0  0  0  0  0  0  0  0  0  0  0  0
  185.7840  179.1380  140.6160 N   0  0  0  0  0  2  0  0  0  0  0  0
  187.8400  177.3410  140.5490 N   0  0  0  0  0  2  0  0  0  0  0  0
  184.2730  179.7180  142.8000 C   0  0  0  0  0  1  0  0  0  0  0  0
  189.3650  176.4380  142.7370 C   0  0  0  0  0  1  0  0  0  0  0  0
  186.2670  178.6490  141.8760 C   0  0  0  0  0  0  0  0  0  0  0  0
  185.7630  178.4570  144.4010 C   0  0  0  0  0  0  0  0  0  0  0  0
  185.8360  178.0390  138.3510 C   0  0  0  0  0  0  0  0  0  0  0  0
  187.6570  178.0260  141.8240 C   0  0  1  0  0  3  0  0  0  0  0  0
  182.8020  177.7040  137.8590 C   0  0  0  0  0  2  0  0  0  0  0  0
  188.1700  177.9960  144.1810 C   0  0  0  0  0  2  0  0  0  0  0  0
  188.1700  178.0690  139.3650 C   0  0  0  0  0  0  0  0  0  0  0  0
  187.6800  177.9150  136.8970 C   0  0  0  0  0  0  0  0  0  0  0  0
  183.8200  177.6670  136.8680 O   0  0  0  0  0  0  0  0  0  0  0  0
  185.1560  178.2770  139.6580 C   0  0  0  0  0  0  0  0  0  0  0  0
  183.1910  176.8640  139.0590 C   0  0  2  0  0  3  0  0  0  0  0  0
  184.7170  178.0410  146.6760 C   0  0  0  0  0  1  0  0  0  0  0  0
  189.0990  177.8090  136.4420 C   0  0  0  0  0  2  0  0  0  0  0  0
  188.8130  175.3250  136.8060 N   0  0  0  0  0  2  0  0  0  0  0  0
  189.4390  176.3990  136.0990 C   0  0  0  0  0  0  0  0  0  0  0  0
  190.3010  176.1670  135.2100 O   0  0  0  0  0  0  0  0  0  0  0  0
  190.0690  173.4870  137.5130 O   0  0  0  0  0  1  0  0  0  0  0  0
  189.1500  173.9290  136.5580 C   0  0  1  0  0  3  0  0  0  0  0  0
  187.8900  173.0520  136.5630 C   0  0  2  0  0  3  0  0  0  0  0  0
  187.7800  172.2580  135.2320 C   0  0  0  0  0  3  0  0  0  0  0  0
  187.5310  170.7730  135.4440 C   0  0  0  0  0  2  0  0  0  0  0  0
  188.9060  171.2610  135.0280 C   0  0  0  0  0  2  0  0  0  0  0  0
  185.7160  174.0940  135.8450 C   0  0  0  0  0  1  0  0  0  0  0  0
  185.9200  173.1160  137.9890 O   0  0  0  0  0  1  0  0  0  0  0  0
  186.6350  173.8310  137.0240 C   0  0  1  0  0  3  0  0  0  0  0  0
  182.0390  176.4230  139.7120 O   0  0  0  0  0  0  0  0  0  0  0  0
  181.1950  175.9740  138.6930 C   0  0  1  0  0  3  0  0  0  0  0  0
  181.3190  174.5900  138.5470 O   0  0  0  0  0  1  0  0  0  0  0  0
  179.7430  176.3610  138.9770 C   0  0  0  0  0  2  0  0  0  0  0  0
  179.3860  177.9520  140.9500 N   0  0  0  0  0  0  0  0  0  0  0  0
  179.3830  175.6110  141.2030 O   0  0  0  0  0  0  0  0  0  0  0  0
  179.4870  176.6060  140.4360 C   0  0  0  0  0  0  0  0  0  0  0  0
  179.7350  179.0780  140.0980 C   0  0  0  0  0  1  0  0  0  0  0  0
  179.0030  178.2410  142.2780 N   0  0  0  0  0  2  0  0  0  0  0  0
  180.6840  178.6790  144.2320 C   0  0  0  0  0  3  0  0  0  0  0  0
  179.9040  178.4780  143.3290 C   0  0  0  0  0  0  0  0  0  0  0  0
  1 21  1  0  0  0  0
  1  7  1  0  0  0  0
  3 15  1  0  0  0  0
  4 25  1  0  0  0  0
  5 20  2  0  0  0  0
  7 16  2  0  0  0  0
  8 13  1  6  0  0  0
  8 19  1  0  0  0  0
  9 16  1  0  0  0  0
  9 20  1  0  0  0  0
 10 14  1  0  0  0  0
 12  3  1  0  0  0  0
 14  3  2  0  0  0  0
 15  6  2  0  0  0  0
 15  4  1  0  0  0  0
 16 23  1  0  0  0  0
 17 11  1  6  0  0  0
 17 14  1  0  0  0  0
 17  8  1  0  0  0  0
 18 24  1  0  0  0  0
 19  6  1  0  0  0  0
 20 11  1  0  0  0  0
 21  9  2  0  0  0  0
 22  7  1  0  0  0  0
 22 18  1  0  0  0  0
 23  2  2  0  0  0  0
 23 10  1  0  0  0  0
 24 39  1  1  0  0  0
 24  2  1  0  0  0  0
 26 21  1  0  0  0  0
 28 26  1  0  0  0  0
 28 27  1  0  0  0  0
 29 28  2  0  0  0  0
 31 27  1  0  0  0  0
 31 30  1  1  0  0  0
 32 31  1  6  0  0  0
 32 38  1  0  0  0  0
 33 34  1  0  0  0  0
 33 32  1  0  0  0  0
 35 33  1  0  0  0  0
 35 34  1  0  0  0  0
 38 36  1  6  0  0  0
 38 37  1  0  0  0  0
 40 41  1  1  0  0  0
 40 42  1  0  0  0  0
 40 39  1  0  0  0  0
 42 45  1  0  0  0  0
 43 47  1  0  0  0  0
 45 43  1  0  0  0  0
 45 44  2  0  0  0  0
 46 43  1  0  0  0  0
 47 49  1  0  0  0  0
 49 48  3  0  0  0  0
M  END
>  <MODEL>
2

>  <REMARK>
 VINA RESULT:      -7.9      3.065      9.114
  Name = 
  12 active torsions:
  status: ('A' for Active; 'I' for Inactive)
    1  A    between atoms: C_2  and  O_42
    2  A    between atoms: C_2  and  C_43
    3  A    between atoms: C_5  and  C_12
    4  A    between atoms: C_5  and  C_34
    5  A    between atoms: C_5  and  C_35
    6  A    between atoms: N_11  and  C_34
    7  A    between atoms: C_13  and  C_36
    8  A    between atoms: N_16  and  N_22
    9  A    between atoms: N_22  and  C_45
   10  A    between atoms: C_36  and  C_39
   11  A    between atoms: O_42  and  C_48
   12  A    between atoms: C_43  and  C_46
                            x       y       z     vdW  Elec       q    Type
                         _______ _______ _______ _____ _____    ______ ____

>  <TORSDO>
F 12

$$$$
=
 OpenBabel10222419243D

 49 53  0  0  1  0  0  0  0  0999 V2000
  181.7680  178.6500  140.1820 S   0  0  0  0  0  0  0  0  0  0  0  0
  186.4270  178.3100  140.7640 C   0  0  0  0  0  3  0  0  0  0  0  0
  188.5920  177.7490  137.9460 C   0  0  0  0  0  0  0  0  0  0  0  0
  190.9690  176.9830  138.1570 N   0  0  0  0  0  2  0  0  0  0  0  0
  183.6890  177.2910  136.2380 O   0  0  0  0  0  0  0  0  0  0  0  0
  189.5640  175.8550  136.6610 N   0  0  0  0  0  0  0  0  0  0  0  0
  183.3660  178.8190  140.6620 C   0  0  0  0  0  0  0  0  0  0  0  0
  187.2630  175.1980  136.8440 C   0  0  2  0  0  3  0  0  0  0  0  0
  183.4770  177.8300  138.5420 C   0  0  0  0  0  0  0  0  0  0  0  0
  186.3920  178.5900  138.4040 N   0  0  0  0  0  2  0  0  0  0  0  0
  185.2070  176.2440  137.6610 N   0  0  0  0  0  2  0  0  0  0  0  0
  189.0710  178.9960  138.6310 C   0  0  0  0  0  1  0  0  0  0  0  0
  186.3780  174.1580  136.1740 C   0  0  0  0  0  1  0  0  0  0  0  0
  187.2430  177.5740  137.8510 C   0  0  0  0  0  0  0  0  0  0  0  0
  189.6870  176.8050  137.5390 C   0  0  0  0  0  0  0  0  0  0  0  0
  184.2110  178.3490  139.6380 C   0  0  0  0  0  0  0  0  0  0  0  0
  186.5110  176.4980  137.0580 C   0  0  1  0  0  3  0  0  0  0  0  0
  185.0500  179.4350  142.4080 C   0  0  0  0  0  2  0  0  0  0  0  0
  188.3850  175.5140  135.8990 C   0  0  0  0  0  2  0  0  0  0  0  0
  184.1020  177.1150  137.4150 C   0  0  0  0  0  0  0  0  0  0  0  0
  182.0960  177.9680  138.6820 C   0  0  0  0  0  0  0  0  0  0  0  0
  183.7190  179.3120  141.9260 O   0  0  0  0  0  0  0  0  0  0  0  0
  185.7020  178.4090  139.6460 C   0  0  0  0  0  0  0  0  0  0  0  0
  185.8420  178.1750  142.1250 C   0  0  2  0  0  3  0  0  0  0  0  0
  192.1170  176.1410  137.8560 C   0  0  0  0  0  1  0  0  0  0  0  0
  181.0590  177.4530  137.7380 C   0  0  0  0  0  2  0  0  0  0  0  0
  181.1450  179.6080  136.4210 N   0  0  0  0  0  2  0  0  0  0  0  0
  180.3720  178.5790  137.0440 C   0  0  0  0  0  0  0  0  0  0  0  0
  179.1120  178.6300  137.0410 O   0  0  0  0  0  0  0  0  0  0  0  0
  179.3310  180.3860  135.1720 O   0  0  0  0  0  1  0  0  0  0  0  0
  180.5300  180.7640  135.7810 C   0  0  1  0  0  3  0  0  0  0  0  0
  180.2990  181.8920  136.7960 C   0  0  2  0  0  3  0  0  0  0  0  0
  180.7790  183.2500  136.2130 C   0  0  0  0  0  3  0  0  0  0  0  0
  179.7070  184.3260  136.2470 C   0  0  0  0  0  2  0  0  0  0  0  0
  180.0610  183.6480  134.9370 C   0  0  0  0  0  2  0  0  0  0  0  0
  182.1740  182.1070  138.4590 C   0  0  0  0  0  1  0  0  0  0  0  0
  179.9290  181.9980  139.1980 O   0  0  0  0  0  1  0  0  0  0  0  0
  180.7960  181.5190  138.2120 C   0  0  1  0  0  3  0  0  0  0  0  0
  186.8700  178.0500  143.0620 O   0  0  0  0  0  0  0  0  0  0  0  0
  187.9260  177.4600  142.3630 C   0  0  1  0  0  3  0  0  0  0  0  0
  188.9520  178.3910  142.1790 O   0  0  0  0  0  1  0  0  0  0  0  0
  188.4430  176.2220  143.0980 C   0  0  0  0  0  2  0  0  0  0  0  0
  190.2170  176.8510  144.8330 N   0  0  0  0  0  0  0  0  0  0  0  0
  190.7780  176.0530  142.6900 O   0  0  0  0  0  0  0  0  0  0  0  0
  189.8780  176.3590  143.5180 C   0  0  0  0  0  0  0  0  0  0  0  0
  189.1780  177.4120  145.6830 C   0  0  0  0  0  1  0  0  0  0  0  0
  191.5370  176.8620  145.3330 N   0  0  0  0  0  2  0  0  0  0  0  0
  192.2880  175.7060  147.5550 C   0  0  0  0  0  3  0  0  0  0  0  0
  191.9370  176.2400  146.5280 C   0  0  0  0  0  0  0  0  0  0  0  0
  1  7  1  0  0  0  0
  2 24  1  0  0  0  0
  3 12  1  0  0  0  0
  5 20  2  0  0  0  0
  6 15  2  0  0  0  0
  7 22  1  0  0  0  0
  8 13  1  6  0  0  0
  8 17  1  0  0  0  0
  9 21  2  0  0  0  0
  9 16  1  0  0  0  0
 10 23  1  0  0  0  0
 14  3  2  0  0  0  0
 14 10  1  0  0  0  0
 15  3  1  0  0  0  0
 15  4  1  0  0  0  0
 16 23  1  0  0  0  0
 16  7  2  0  0  0  0
 17 11  1  1  0  0  0
 17 14  1  0  0  0  0
 19  6  1  0  0  0  0
 19  8  1  0  0  0  0
 20 11  1  0  0  0  0
 20  9  1  0  0  0  0
 21  1  1  0  0  0  0
 22 18  1  0  0  0  0
 23  2  2  0  0  0  0
 24 18  1  0  0  0  0
 24 39  1  1  0  0  0
 25  4  1  0  0  0  0
 26 21  1  0  0  0  0
 27 28  1  0  0  0  0
 28 26  1  0  0  0  0
 29 28  2  0  0  0  0
 31 30  1  1  0  0  0
 31 27  1  0  0  0  0
 32 31  1  6  0  0  0
 32 38  1  0  0  0  0
 33 34  1  0  0  0  0
 33 32  1  0  0  0  0
 35 33  1  0  0  0  0
 35 34  1  0  0  0  0
 38 36  1  1  0  0  0
 38 37  1  0  0  0  0
 40 41  1  1  0  0  0
 40 39  1  0  0  0  0
 40 42  1  0  0  0  0
 42 45  1  0  0  0  0
 43 47  1  0  0  0  0
 43 46  1  0  0  0  0
 44 45  2  0  0  0  0
 45 43  1  0  0  0  0
 47 49  1  0  0  0  0
 49 48  3  0  0  0  0
M  END
>  <MODEL>
3

>  <REMARK>
 VINA RESULT:      -7.7      3.022      4.702
  Name = 
  12 active torsions:
  status: ('A' for Active; 'I' for Inactive)
    1  A    between atoms: C_2  and  O_42
    2  A    between atoms: C_2  and  C_43
    3  A    between atoms: C_5  and  C_12
    4  A    between atoms: C_5  and  C_34
    5  A    between atoms: C_5  and  C_35
    6  A    between atoms: N_11  and  C_34
    7  A    between atoms: C_13  and  C_36
    8  A    between atoms: N_16  and  N_22
    9  A    between atoms: N_22  and  C_45
   10  A    between atoms: C_36  and  C_39
   11  A    between atoms: O_42  and  C_48
   12  A    between atoms: C_43  and  C_46
                            x       y       z     vdW  Elec       q    Type
                         _______ _______ _______ _____ _____    ______ ____

>  <TORSDO>
F 12

$$$$
=
 OpenBabel10222419243D

 49 53  0  0  1  0  0  0  0  0999 V2000
  185.9980  178.1850  137.9180 S   0  0  0  0  0  0  0  0  0  0  0  0
  190.1740  177.1400  139.8240 C   0  0  0  0  0  3  0  0  0  0  0  0
  192.8780  175.9460  137.7740 C   0  0  0  0  0  0  0  0  0  0  0  0
  194.9210  174.8230  138.6940 N   0  0  0  0  0  2  0  0  0  0  0  0
  188.6280  176.1340  134.7620 O   0  0  0  0  0  0  0  0  0  0  0  0
  193.7910  173.7960  136.9190 N   0  0  0  0  0  0  0  0  0  0  0  0
  187.4080  178.1350  138.8260 C   0  0  0  0  0  0  0  0  0  0  0  0
  191.4450  173.5510  136.4690 C   0  0  2  0  0  3  0  0  0  0  0  0
  187.9030  176.9320  136.8790 C   0  0  0  0  0  0  0  0  0  0  0  0
  190.8350  177.1810  137.5410 N   0  0  0  0  0  2  0  0  0  0  0  0
  189.4780  175.0000  136.6110 N   0  0  0  0  0  2  0  0  0  0  0  0
  193.3770  177.1600  138.5030 C   0  0  0  0  0  1  0  0  0  0  0  0
  190.5970  172.6090  135.6290 C   0  0  0  0  0  1  0  0  0  0  0  0
  191.5970  175.9880  137.3070 C   0  0  0  0  0  0  0  0  0  0  0  0
  193.8460  174.7980  137.7460 C   0  0  0  0  0  0  0  0  0  0  0  0
  188.3950  177.4300  138.1120 C   0  0  0  0  0  0  0  0  0  0  0  0
  190.9210  174.9730  136.3930 C   0  0  1  0  0  3  0  0  0  0  0  0
  188.6380  178.6390  140.9470 C   0  0  0  0  0  2  0  0  0  0  0  0
  192.8200  173.5800  135.8690 C   0  0  0  0  0  2  0  0  0  0  0  0
  188.6650  176.0130  136.0150 C   0  0  0  0  0  0  0  0  0  0  0  0
  186.5870  177.3100  136.6120 C   0  0  0  0  0  0  0  0  0  0  0  0
  187.4890  178.6890  140.1110 O   0  0  0  0  0  0  0  0  0  0  0  0
  189.8110  177.2430  138.5420 C   0  0  0  0  0  0  0  0  0  0  0  0
  189.2260  177.2420  140.9660 C   0  0  2  0  0  3  0  0  0  0  0  0
  195.9290  173.7760  138.7760 C   0  0  0  0  0  1  0  0  0  0  0  0
  185.7690  176.8800  135.4380 C   0  0  0  0  0  2  0  0  0  0  0  0
  183.7570  175.8710  136.5870 N   0  0  0  0  0  2  0  0  0  0  0  0
  184.9280  175.6990  135.7850 C   0  0  0  0  0  0  0  0  0  0  0  0
  185.2780  174.5520  135.3950 O   0  0  0  0  0  0  0  0  0  0  0  0
  183.6370  173.9570  137.9210 O   0  0  0  0  0  1  0  0  0  0  0  0
  182.9310  174.7470  137.0090 C   0  0  1  0  0  3  0  0  0  0  0  0
  181.6090  175.2370  137.6160 C   0  0  2  0  0  3  0  0  0  0  0  0
  181.7470  175.3930  139.1560 C   0  0  0  0  0  3  0  0  0  0  0  0
  180.9540  176.5660  139.7090 C   0  0  0  0  0  2  0  0  0  0  0  0
  182.4620  176.6650  139.5730 C   0  0  0  0  0  2  0  0  0  0  0  0
  179.2760  175.3800  136.6870 C   0  0  0  0  0  1  0  0  0  0  0  0
  180.7350  173.6530  135.9890 O   0  0  0  0  0  1  0  0  0  0  0  0
  180.3920  174.4350  137.0960 C   0  0  1  0  0  3  0  0  0  0  0  0
  189.9180  177.0450  142.1630 O   0  0  0  0  0  0  0  0  0  0  0  0
  189.0560  176.2840  142.9570 C   0  0  1  0  0  3  0  0  0  0  0  0
  189.4250  174.9370  142.9030 O   0  0  0  0  0  1  0  0  0  0  0  0
  189.0560  176.7880  144.4000 C   0  0  0  0  0  2  0  0  0  0  0  0
  187.4930  177.8760  146.1120 N   0  0  0  0  0  0  0  0  0  0  0  0
  187.0560  177.9210  143.7990 O   0  0  0  0  0  0  0  0  0  0  0  0
  187.8170  177.5650  144.7390 C   0  0  0  0  0  0  0  0  0  0  0  0
  188.2560  177.2630  147.1890 C   0  0  0  0  0  1  0  0  0  0  0  0
  186.4260  178.7240  146.4770 N   0  0  0  0  0  2  0  0  0  0  0  0
  184.0730  178.7170  145.3380 C   0  0  0  0  0  3  0  0  0  0  0  0
  185.1620  178.7180  145.8620 C   0  0  0  0  0  0  0  0  0  0  0  0
  1  7  1  0  0  0  0
  2 24  1  0  0  0  0
  3 12  1  0  0  0  0
  4 25  1  0  0  0  0
  5 20  2  0  0  0  0
  6 15  2  0  0  0  0
  7 22  1  0  0  0  0
  8 13  1  6  0  0  0
  9 16  1  0  0  0  0
 10 23  1  0  0  0  0
 14 10  1  0  0  0  0
 14  3  2  0  0  0  0
 15  3  1  0  0  0  0
 15  4  1  0  0  0  0
 16 23  1  0  0  0  0
 16  7  2  0  0  0  0
 17  8  1  0  0  0  0
 17 11  1  1  0  0  0
 17 14  1  0  0  0  0
 18 24  1  0  0  0  0
 19  8  1  0  0  0  0
 19  6  1  0  0  0  0
 20 11  1  0  0  0  0
 20  9  1  0  0  0  0
 21  9  2  0  0  0  0
 21  1  1  0  0  0  0
 22 18  1  0  0  0  0
 23  2  2  0  0  0  0
 24 39  1  1  0  0  0
 26 28  1  0  0  0  0
 26 21  1  0  0  0  0
 27 31  1  0  0  0  0
 28 27  1  0  0  0  0
 29 28  2  0  0  0  0
 31 30  1  1  0  0  0
 32 31  1  1  0  0  0
 32 33  1  0  0  0  0
 33 35  1  0  0  0  0
 33 34  1  0  0  0  0
 35 34  1  0  0  0  0
 37 38  1  0  0  0  0
 38 36  1  6  0  0  0
 38 32  1  0  0  0  0
 39 40  1  0  0  0  0
 40 41  1  1  0  0  0
 40 42  1  0  0  0  0
 42 45  1  0  0  0  0
 43 47  1  0  0  0  0
 43 46  1  0  0  0  0
 44 45  2  0  0  0  0
 45 43  1  0  0  0  0
 48 49  3  0  0  0  0
 49 47  1  0  0  0  0
M  END
>  <MODEL>
4

>  <REMARK>
 VINA RESULT:      -7.7      2.425      3.442
  Name = 
  12 active torsions:
  status: ('A' for Active; 'I' for Inactive)
    1  A    between atoms: C_2  and  O_42
    2  A    between atoms: C_2  and  C_43
    3  A    between atoms: C_5  and  C_12
    4  A    between atoms: C_5  and  C_34
    5  A    between atoms: C_5  and  C_35
    6  A    between atoms: N_11  and  C_34
    7  A    between atoms: C_13  and  C_36
    8  A    between atoms: N_16  and  N_22
    9  A    between atoms: N_22  and  C_45
   10  A    between atoms: C_36  and  C_39
   11  A    between atoms: O_42  and  C_48
   12  A    between atoms: C_43  and  C_46
                            x       y       z     vdW  Elec       q    Type
                         _______ _______ _______ _____ _____    ______ ____

>  <TORSDO>
F 12

$$$$
=
 OpenBabel10222419243D

 49 53  0  0  1  0  0  0  0  0999 V2000
  190.9540  175.2190  138.0500 S   0  0  0  0  0  0  0  0  0  0  0  0
  186.4390  174.6870  136.8290 C   0  0  0  0  0  3  0  0  0  0  0  0
  184.1980  177.5000  136.8160 C   0  0  0  0  0  0  0  0  0  0  0  0
  181.7020  177.2830  136.7580 N   0  0  0  0  0  2  0  0  0  0  0  0
  188.6820  179.1110  138.9320 O   0  0  0  0  0  0  0  0  0  0  0  0
  182.6590  178.6950  138.3620 N   0  0  0  0  0  0  0  0  0  0  0  0
  189.4990  174.7720  137.3460 C   0  0  0  0  0  0  0  0  0  0  0  0
  184.6240  178.4440  139.7180 C   0  0  2  0  0  3  0  0  0  0  0  0
  189.0660  176.8360  138.3630 C   0  0  0  0  0  0  0  0  0  0  0  0
  186.5540  177.0570  136.7080 N   0  0  0  0  0  2  0  0  0  0  0  0
  186.9120  177.6550  139.3500 N   0  0  0  0  0  2  0  0  0  0  0  0
  184.1530  176.8920  135.4450 C   0  0  0  0  0  1  0  0  0  0  0  0
  185.1220  179.0430  141.0240 C   0  0  0  0  0  1  0  0  0  0  0  0
  185.4180  177.5670  137.4240 C   0  0  0  0  0  0  0  0  0  0  0  0
  182.8550  177.8710  137.3760 C   0  0  0  0  0  0  0  0  0  0  0  0
  188.5440  175.7800  137.5740 C   0  0  0  0  0  0  0  0  0  0  0  0
  185.7580  178.2900  138.7210 C   0  0  1  0  0  3  0  0  0  0  0  0
  188.1130  173.0860  136.1210 C   0  0  0  0  0  2  0  0  0  0  0  0
  183.6620  179.4210  139.1090 C   0  0  0  0  0  2  0  0  0  0  0  0
  188.2390  177.9320  138.8990 C   0  0  0  0  0  0  0  0  0  0  0  0
  190.4170  176.6840  138.6720 C   0  0  0  0  0  0  0  0  0  0  0  0
  189.3300  173.5420  136.6950 O   0  0  0  0  0  0  0  0  0  0  0  0
  187.1530  175.7970  137.0340 C   0  0  0  0  0  0  0  0  0  0  0  0
  186.9540  173.3120  137.0710 C   0  0  2  0  0  3  0  0  0  0  0  0
  180.3420  177.5550  137.1990 C   0  0  0  0  0  1  0  0  0  0  0  0
  191.2280  177.5840  139.5470 C   0  0  0  0  0  2  0  0  0  0  0  0
  190.2100  176.3980  141.5330 N   0  0  0  0  0  2  0  0  0  0  0  0
  191.3430  177.0190  140.9210 C   0  0  0  0  0  0  0  0  0  0  0  0
  192.4330  177.1240  141.5460 O   0  0  0  0  0  0  0  0  0  0  0  0
  191.5180  175.3830  143.1800 O   0  0  0  0  0  1  0  0  0  0  0  0
  190.2440  175.8830  142.8950 C   0  0  1  0  0  3  0  0  0  0  0  0
  189.8450  176.9720  143.9020 C   0  0  2  0  0  3  0  0  0  0  0  0
  188.6180  177.7670  143.3780 C   0  0  0  0  0  3  0  0  0  0  0  0
  187.5000  177.8800  144.4020 C   0  0  0  0  0  2  0  0  0  0  0  0
  187.3660  176.9220  143.2320 C   0  0  0  0  0  2  0  0  0  0  0  0
  190.9190  179.2450  143.9710 C   0  0  0  0  0  1  0  0  0  0  0  0
  191.1800  177.7470  145.7820 O   0  0  0  0  0  1  0  0  0  0  0  0
  191.0610  177.7930  144.3900 C   0  0  1  0  0  3  0  0  0  0  0  0
  185.9450  172.3840  136.8040 O   0  0  0  0  0  0  0  0  0  0  0  0
  185.7950  172.4040  135.4140 C   0  0  1  0  0  3  0  0  0  0  0  0
  186.3140  171.2300  134.8630 O   0  0  0  0  0  1  0  0  0  0  0  0
  184.3260  172.5810  135.0270 C   0  0  0  0  0  2  0  0  0  0  0  0
  182.5080  172.4230  136.8230 N   0  0  0  0  0  0  0  0  0  0  0  0
  183.4370  170.5170  135.7990 O   0  0  0  0  0  0  0  0  0  0  0  0
  183.4020  171.7730  135.8920 C   0  0  0  0  0  0  0  0  0  0  0  0
  182.6450  173.8490  137.0780 C   0  0  0  0  0  1  0  0  0  0  0  0
  181.5190  171.7270  137.5510 N   0  0  0  0  0  2  0  0  0  0  0  0
  179.0110  171.5420  136.8350 C   0  0  0  0  0  3  0  0  0  0  0  0
  180.1710  171.6310  137.1650 C   0  0  0  0  0  0  0  0  0  0  0  0
  1 21  1  0  0  0  0
  2 23  2  0  0  0  0
  2 24  1  0  0  0  0
  3 15  1  0  0  0  0
  3 14  2  0  0  0  0
  4 25  1  0  0  0  0
  4 15  1  0  0  0  0
  6 19  1  0  0  0  0
  7 16  2  0  0  0  0
  7  1  1  0  0  0  0
  8 13  1  1  0  0  0
  9 21  2  0  0  0  0
  9 20  1  0  0  0  0
 10 23  1  0  0  0  0
 10 14  1  0  0  0  0
 12  3  1  0  0  0  0
 15  6  2  0  0  0  0
 16  9  1  0  0  0  0
 17 14  1  6  0  0  0
 17 11  1  0  0  0  0
 17  8  1  0  0  0  0
 18 22  1  0  0  0  0
 18 24  1  0  0  0  0
 19  8  1  0  0  0  0
 20  5  2  0  0  0  0
 20 11  1  0  0  0  0
 21 26  1  0  0  0  0
 22  7  1  0  0  0  0
 23 16  1  0  0  0  0
 24 39  1  6  0  0  0
 26 28  1  0  0  0  0
 27 31  1  0  0  0  0
 28 27  1  0  0  0  0
 28 29  2  0  0  0  0
 31 30  1  1  0  0  0
 32 31  1  6  0  0  0
 32 38  1  0  0  0  0
 33 32  1  0  0  0  0
 33 34  1  0  0  0  0
 35 33  1  0  0  0  0
 35 34  1  0  0  0  0
 38 36  1  1  0  0  0
 38 37  1  0  0  0  0
 40 41  1  6  0  0  0
 40 39  1  0  0  0  0
 42 40  1  0  0  0  0
 42 45  1  0  0  0  0
 43 46  1  0  0  0  0
 43 47  1  0  0  0  0
 44 45  2  0  0  0  0
 45 43  1  0  0  0  0
 48 49  3  0  0  0  0
 49 47  1  0  0  0  0
M  END
>  <MODEL>
5

>  <REMARK>
 VINA RESULT:      -7.6      3.560      9.348
  Name = 
  12 active torsions:
  status: ('A' for Active; 'I' for Inactive)
    1  A    between atoms: C_2  and  O_42
    2  A    between atoms: C_2  and  C_43
    3  A    between atoms: C_5  and  C_12
    4  A    between atoms: C_5  and  C_34
    5  A    between atoms: C_5  and  C_35
    6  A    between atoms: N_11  and  C_34
    7  A    between atoms: C_13  and  C_36
    8  A    between atoms: N_16  and  N_22
    9  A    between atoms: N_22  and  C_45
   10  A    between atoms: C_36  and  C_39
   11  A    between atoms: O_42  and  C_48
   12  A    between atoms: C_43  and  C_46
                            x       y       z     vdW  Elec       q    Type
                         _______ _______ _______ _____ _____    ______ ____

>  <TORSDO>
F 12

$$$$
=
 OpenBabel10222419243D

 49 53  0  0  1  0  0  0  0  0999 V2000
  185.7330  178.2730  138.3380 S   0  0  0  0  0  0  0  0  0  0  0  0
  190.0860  176.8900  139.4770 C   0  0  0  0  0  3  0  0  0  0  0  0
  192.2210  175.3480  137.0260 C   0  0  0  0  0  0  0  0  0  0  0  0
  194.2930  174.0630  137.6070 N   0  0  0  0  0  2  0  0  0  0  0  0
  187.5020  175.8420  134.8670 O   0  0  0  0  0  0  0  0  0  0  0  0
  192.7500  173.0850  136.1410 N   0  0  0  0  0  0  0  0  0  0  0  0
  187.2810  178.1180  138.9640 C   0  0  0  0  0  0  0  0  0  0  0  0
  190.3500  173.0590  136.1590 C   0  0  2  0  0  3  0  0  0  0  0  0
  187.2780  176.7930  137.0320 C   0  0  0  0  0  0  0  0  0  0  0  0
  190.2930  176.7730  137.1120 N   0  0  0  0  0  2  0  0  0  0  0  0
  188.5880  174.7040  136.5850 N   0  0  0  0  0  2  0  0  0  0  0  0
  192.9610  176.5340  137.5740 C   0  0  0  0  0  1  0  0  0  0  0  0
  189.2730  172.1750  135.5510 C   0  0  0  0  0  1  0  0  0  0  0  0
  190.8830  175.5000  136.8080 C   0  0  0  0  0  0  0  0  0  0  0  0
  193.0560  174.1080  136.8830 C   0  0  0  0  0  0  0  0  0  0  0  0
  188.0430  177.2890  138.1180 C   0  0  0  0  0  0  0  0  0  0  0  0
  189.9530  174.5220  136.1000 C   0  0  1  0  0  3  0  0  0  0  0  0
  188.9400  178.5800  140.7800 C   0  0  0  0  0  2  0  0  0  0  0  0
  191.5790  172.9260  135.3090 C   0  0  0  0  0  2  0  0  0  0  0  0
  187.7710  175.7680  136.0950 C   0  0  0  0  0  0  0  0  0  0  0  0
  185.9750  177.2910  136.9970 C   0  0  0  0  0  0  0  0  0  0  0  0
  187.6610  178.7120  140.1750 O   0  0  0  0  0  0  0  0  0  0  0  0
  189.4930  176.9780  138.2830 C   0  0  0  0  0  0  0  0  0  0  0  0
  189.3920  177.1330  140.7700 C   0  0  2  0  0  3  0  0  0  0  0  0
  195.1970  172.9240  137.5580 C   0  0  0  0  0  1  0  0  0  0  0  0
  184.9090  176.8990  136.0270 C   0  0  0  0  0  2  0  0  0  0  0  0
  182.6210  177.8370  136.5490 N   0  0  0  0  0  2  0  0  0  0  0  0
  183.5870  176.7950  136.7090 C   0  0  0  0  0  0  0  0  0  0  0  0
  183.3470  175.8030  137.4490 O   0  0  0  0  0  0  0  0  0  0  0  0
  180.9600  176.5020  137.5050 O   0  0  0  0  0  1  0  0  0  0  0  0
  181.3380  177.8210  137.2390 C   0  0  1  0  0  3  0  0  0  0  0  0
  181.4010  178.6450  138.5330 C   0  0  2  0  0  3  0  0  0  0  0  0
  181.3910  177.7070  139.7720 C   0  0  0  0  0  3  0  0  0  0  0  0
  181.8620  178.3940  141.0430 C   0  0  0  0  0  2  0  0  0  0  0  0
  182.7760  177.4190  140.3240 C   0  0  0  0  0  2  0  0  0  0  0  0
  180.0580  180.2210  137.1060 C   0  0  0  0  0  1  0  0  0  0  0  0
  179.2060  179.4700  139.1810 O   0  0  0  0  0  1  0  0  0  0  0  0
  180.3940  179.8190  138.5310 C   0  0  1  0  0  3  0  0  0  0  0  0
  190.2820  176.9150  141.8230 O   0  0  0  0  0  0  0  0  0  0  0  0
  189.5750  176.1260  142.7350 C   0  0  1  0  0  3  0  0  0  0  0  0
  190.2800  174.9470  142.9900 O   0  0  0  0  0  1  0  0  0  0  0  0
  189.3150  176.8930  144.0320 C   0  0  0  0  0  2  0  0  0  0  0  0
  187.3970  177.5110  145.6120 N   0  0  0  0  0  0  0  0  0  0  0  0
  187.0260  176.8000  143.3980 O   0  0  0  0  0  0  0  0  0  0  0  0
  187.8500  177.0680  144.3140 C   0  0  0  0  0  0  0  0  0  0  0  0
  188.3410  177.5920  146.7160 C   0  0  0  0  0  1  0  0  0  0  0  0
  186.0500  177.8320  145.8870 N   0  0  0  0  0  2  0  0  0  0  0  0
  184.5570  179.3640  144.3840 C   0  0  0  0  0  3  0  0  0  0  0  0
  185.2500  178.6570  145.0780 C   0  0  0  0  0  0  0  0  0  0  0  0
  1  7  1  0  0  0  0
  2 24  1  0  0  0  0
  3 12  1  0  0  0  0
  5 20  2  0  0  0  0
  6 15  2  0  0  0  0
  7 22  1  0  0  0  0
  8 13  1  6  0  0  0
  9 16  1  0  0  0  0
 10 23  1  0  0  0  0
 14  3  2  0  0  0  0
 14 10  1  0  0  0  0
 15  3  1  0  0  0  0
 15  4  1  0  0  0  0
 16 23  1  0  0  0  0
 16  7  2  0  0  0  0
 17  8  1  0  0  0  0
 17 11  1  1  0  0  0
 17 14  1  0  0  0  0
 19  6  1  0  0  0  0
 19  8  1  0  0  0  0
 20 11  1  0  0  0  0
 20  9  1  0  0  0  0
 21  9  2  0  0  0  0
 21  1  1  0  0  0  0
 22 18  1  0  0  0  0
 23  2  2  0  0  0  0
 24 18  1  0  0  0  0
 24 39  1  1  0  0  0
 25  4  1  0  0  0  0
 26 28  1  0  0  0  0
 26 21  1  0  0  0  0
 27 28  1  0  0  0  0
 27 31  1  0  0  0  0
 28 29  2  0  0  0  0
 31 30  1  1  0  0  0
 32 31  1  6  0  0  0
 32 33  1  0  0  0  0
 33 35  1  0  0  0  0
 33 34  1  0  0  0  0
 35 34  1  0  0  0  0
 38 36  1  6  0  0  0
 38 32  1  0  0  0  0
 38 37  1  0  0  0  0
 39 40  1  0  0  0  0
 40 41  1  1  0  0  0
 40 42  1  0  0  0  0
 42 45  1  0  0  0  0
 43 47  1  0  0  0  0
 43 46  1  0  0  0  0
 44 45  2  0  0  0  0
 45 43  1  0  0  0  0
 48 49  3  0  0  0  0
 49 47  1  0  0  0  0
M  END
>  <MODEL>
6

>  <REMARK>
 VINA RESULT:      -7.6      1.982      2.532
  Name = 
  12 active torsions:
  status: ('A' for Active; 'I' for Inactive)
    1  A    between atoms: C_2  and  O_42
    2  A    between atoms: C_2  and  C_43
    3  A    between atoms: C_5  and  C_12
    4  A    between atoms: C_5  and  C_34
    5  A    between atoms: C_5  and  C_35
    6  A    between atoms: N_11  and  C_34
    7  A    between atoms: C_13  and  C_36
    8  A    between atoms: N_16  and  N_22
    9  A    between atoms: N_22  and  C_45
   10  A    between atoms: C_36  and  C_39
   11  A    between atoms: O_42  and  C_48
   12  A    between atoms: C_43  and  C_46
                            x       y       z     vdW  Elec       q    Type
                         _______ _______ _______ _____ _____    ______ ____

>  <TORSDO>
F 12

$$$$
=
 OpenBabel10222419243D

 49 53  0  0  1  0  0  0  0  0999 V2000
  186.0440  179.0870  141.5840 S   0  0  0  0  0  0  0  0  0  0  0  0
  184.5130  177.1810  137.5610 C   0  0  0  0  0  3  0  0  0  0  0  0
  180.9900  176.8370  136.9180 C   0  0  0  0  0  0  0  0  0  0  0  0
  180.0470  175.3540  135.1320 N   0  0  0  0  0  2  0  0  0  0  0  0
  181.5080  178.4270  141.8560 O   0  0  0  0  0  0  0  0  0  0  0  0
  179.1540  175.2020  137.2920 N   0  0  0  0  0  0  0  0  0  0  0  0
  185.8100  178.6090  139.9930 C   0  0  0  0  0  0  0  0  0  0  0  0
  180.2110  175.2580  139.4470 C   0  0  2  0  0  3  0  0  0  0  0  0
  183.7300  178.3030  141.0260 C   0  0  0  0  0  0  0  0  0  0  0  0
  182.4640  178.1380  138.2930 N   0  0  0  0  0  2  0  0  0  0  0  0
  181.9730  176.5950  140.4930 N   0  0  0  0  0  2  0  0  0  0  0  0
  181.5740  177.6190  135.7780 C   0  0  0  0  0  1  0  0  0  0  0  0
  179.8450  174.7850  140.8440 C   0  0  0  0  0  1  0  0  0  0  0  0
  181.4600  177.1200  138.1670 C   0  0  0  0  0  0  0  0  0  0  0  0
  180.0210  175.7670  136.5050 C   0  0  0  0  0  0  0  0  0  0  0  0
  184.4670  178.2250  139.8170 C   0  0  0  0  0  0  0  0  0  0  0  0
  180.9120  176.6030  139.4920 C   0  0  1  0  0  3  0  0  0  0  0  0
  186.7320  178.1390  137.7150 C   0  0  0  0  0  2  0  0  0  0  0  0
  178.9320  175.4790  138.6930 C   0  0  0  0  0  2  0  0  0  0  0  0
  182.3540  177.7950  141.1690 C   0  0  0  0  0  0  0  0  0  0  0  0
  184.4680  178.8100  142.0950 C   0  0  0  0  0  0  0  0  0  0  0  0
  186.8560  178.5760  139.0610 O   0  0  0  0  0  0  0  0  0  0  0  0
  183.8420  177.8210  138.5240 C   0  0  0  0  0  0  0  0  0  0  0  0
  185.9580  176.8380  137.6430 C   0  0  2  0  0  3  0  0  0  0  0  0
  179.1630  174.3280  134.5980 C   0  0  0  0  0  1  0  0  0  0  0  0
  183.9980  178.9380  143.5070 C   0  0  0  0  0  2  0  0  0  0  0  0
  186.0830  177.9300  144.5170 N   0  0  0  0  0  2  0  0  0  0  0  0
  185.1550  179.0150  144.4440 C   0  0  0  0  0  0  0  0  0  0  0  0
  185.2860  180.0240  145.1880 O   0  0  0  0  0  0  0  0  0  0  0  0
  186.7820  177.3830  146.6780 O   0  0  0  0  0  1  0  0  0  0  0  0
  187.1970  177.9210  145.4560 C   0  0  1  0  0  3  0  0  0  0  0  0
  188.3870  177.1350  144.8870 C   0  0  2  0  0  3  0  0  0  0  0  0
  189.7250  177.7330  145.4030 C   0  0  0  0  0  3  0  0  0  0  0  0
  190.8670  176.7300  145.3960 C   0  0  0  0  0  2  0  0  0  0  0  0
  190.2020  177.1140  146.7050 C   0  0  0  0  0  2  0  0  0  0  0  0
  189.1080  177.9100  142.6050 C   0  0  0  0  0  1  0  0  0  0  0  0
  188.6820  175.6180  143.0080 O   0  0  0  0  0  1  0  0  0  0  0  0
  188.2610  176.9030  143.3630 C   0  0  1  0  0  3  0  0  0  0  0  0
  186.3340  176.1340  136.4970 O   0  0  0  0  0  0  0  0  0  0  0  0
  187.3070  175.2300  136.9310 C   0  0  1  0  0  3  0  0  0  0  0  0
  186.7040  174.0300  137.3140 O   0  0  0  0  0  1  0  0  0  0  0  0
  188.3520  174.9880  135.8410 C   0  0  0  0  0  2  0  0  0  0  0  0
  190.8810  175.1340  136.2100 N   0  0  0  0  0  0  0  0  0  0  0  0
  189.5090  177.0450  136.1120 O   0  0  0  0  0  0  0  0  0  0  0  0
  189.6030  175.7890  136.0530 C   0  0  0  0  0  0  0  0  0  0  0  0
  190.9350  173.6890  136.3680 C   0  0  0  0  0  1  0  0  0  0  0  0
  192.1030  175.8370  136.2650 N   0  0  0  0  0  2  0  0  0  0  0  0
  194.4430  174.7150  136.5920 C   0  0  0  0  0  3  0  0  0  0  0  0
  193.3590  175.2310  136.4400 C   0  0  0  0  0  0  0  0  0  0  0  0
  1 21  1  0  0  0  0
  2 24  1  0  0  0  0
  2 23  2  0  0  0  0
  3 14  2  0  0  0  0
  4 15  1  0  0  0  0
  6 19  1  0  0  0  0
  7  1  1  0  0  0  0
  8 17  1  0  0  0  0
  8 13  1  1  0  0  0
  9 20  1  0  0  0  0
  9 21  2  0  0  0  0
 10 23  1  0  0  0  0
 11 20  1  0  0  0  0
 12  3  1  0  0  0  0
 14 10  1  0  0  0  0
 15  3  1  0  0  0  0
 15  6  2  0  0  0  0
 16  7  2  0  0  0  0
 16  9  1  0  0  0  0
 17 14  1  6  0  0  0
 17 11  1  0  0  0  0
 18 22  1  0  0  0  0
 19  8  1  0  0  0  0
 20  5  2  0  0  0  0
 21 26  1  0  0  0  0
 22  7  1  0  0  0  0
 23 16  1  0  0  0  0
 24 39  1  6  0  0  0
 24 18  1  0  0  0  0
 25  4  1  0  0  0  0
 26 28  1  0  0  0  0
 27 31  1  0  0  0  0
 28 27  1  0  0  0  0
 28 29  2  0  0  0  0
 31 30  1  1  0  0  0
 32 38  1  6  0  0  0
 32 33  1  0  0  0  0
 32 31  1  0  0  0  0
 33 35  1  0  0  0  0
 34 33  1  0  0  0  0
 34 35  1  0  0  0  0
 37 38  1  0  0  0  0
 38 36  1  6  0  0  0
 39 40  1  0  0  0  0
 40 41  1  6  0  0  0
 42 45  1  0  0  0  0
 42 40  1  0  0  0  0
 43 47  1  0  0  0  0
 43 46  1  0  0  0  0
 45 44  2  0  0  0  0
 45 43  1  0  0  0  0
 47 49  1  0  0  0  0
 49 48  3  0  0  0  0
M  END
>  <MODEL>
7

>  <REMARK>
 VINA RESULT:      -7.5      2.555      9.301
  Name = 
  12 active torsions:
  status: ('A' for Active; 'I' for Inactive)
    1  A    between atoms: C_2  and  O_42
    2  A    between atoms: C_2  and  C_43
    3  A    between atoms: C_5  and  C_12
    4  A    between atoms: C_5  and  C_34
    5  A    between atoms: C_5  and  C_35
    6  A    between atoms: N_11  and  C_34
    7  A    between atoms: C_13  and  C_36
    8  A    between atoms: N_16  and  N_22
    9  A    between atoms: N_22  and  C_45
   10  A    between atoms: C_36  and  C_39
   11  A    between atoms: O_42  and  C_48
   12  A    between atoms: C_43  and  C_46
                            x       y       z     vdW  Elec       q    Type
                         _______ _______ _______ _____ _____    ______ ____

>  <TORSDO>
F 12

$$$$
=
 OpenBabel10222419243D

 49 53  0  0  1  0  0  0  0  0999 V2000
  186.4300  177.8390  136.1620 S   0  0  0  0  0  0  0  0  0  0  0  0
  184.0930  177.8580  140.2490 C   0  0  0  0  0  3  0  0  0  0  0  0
  185.7070  178.9300  143.2790 C   0  0  0  0  0  0  0  0  0  0  0  0
  184.8050  178.4580  145.5700 N   0  0  0  0  0  2  0  0  0  0  0  0
  189.3730  178.6960  139.5810 O   0  0  0  0  0  0  0  0  0  0  0  0
  187.0560  177.9760  145.1380 N   0  0  0  0  0  0  0  0  0  0  0  0
  185.2910  177.9680  137.3860 C   0  0  0  0  0  0  0  0  0  0  0  0
  188.1280  177.0260  143.2120 C   0  0  2  0  0  3  0  0  0  0  0  0
  187.3610  178.0860  138.4760 C   0  0  0  0  0  0  0  0  0  0  0  0
  185.9530  179.1840  140.9070 N   0  0  0  0  0  2  0  0  0  0  0  0
  187.9400  177.3120  140.7890 N   0  0  0  0  0  2  0  0  0  0  0  0
  184.4760  179.7730  143.1110 C   0  0  0  0  0  1  0  0  0  0  0  0
  189.4420  176.3070  142.9490 C   0  0  0  0  0  1  0  0  0  0  0  0
  186.4240  178.6510  142.1540 C   0  0  0  0  0  0  0  0  0  0  0  0
  185.9270  178.4250  144.6770 C   0  0  0  0  0  0  0  0  0  0  0  0
  185.9510  178.1310  138.6190 C   0  0  0  0  0  0  0  0  0  0  0  0
  187.7890  177.9770  142.0800 C   0  0  1  0  0  3  0  0  0  0  0  0
  182.9050  177.9200  138.1390 C   0  0  0  0  0  2  0  0  0  0  0  0
  188.3140  177.8790  144.4320 C   0  0  0  0  0  2  0  0  0  0  0  0
  188.2910  178.0530  139.6190 C   0  0  0  0  0  0  0  0  0  0  0  0
  187.7810  177.9690  137.1510 C   0  0  0  0  0  0  0  0  0  0  0  0
  183.9150  177.8660  137.1410 O   0  0  0  0  0  0  0  0  0  0  0  0
  185.2880  178.3670  139.9350 C   0  0  0  0  0  0  0  0  0  0  0  0
  183.2680  177.0410  139.3190 C   0  0  2  0  0  3  0  0  0  0  0  0
  184.8780  178.0000  146.9490 C   0  0  0  0  0  1  0  0  0  0  0  0
  189.1930  177.8200  136.6850 C   0  0  0  0  0  2  0  0  0  0  0  0
  188.6230  175.3590  136.7820 N   0  0  0  0  0  2  0  0  0  0  0  0
  189.4780  176.4050  136.3120 C   0  0  0  0  0  0  0  0  0  0  0  0
  190.4920  176.1400  135.6110 O   0  0  0  0  0  0  0  0  0  0  0  0
  189.7990  173.4490  137.4310 O   0  0  0  0  0  1  0  0  0  0  0  0
  188.8860  173.9540  136.5010 C   0  0  1  0  0  3  0  0  0  0  0  0
  187.5840  173.1400  136.5130 C   0  0  2  0  0  3  0  0  0  0  0  0
  187.3650  172.4530  135.1380 C   0  0  0  0  0  3  0  0  0  0  0  0
  187.1430  170.9540  135.2500 C   0  0  0  0  0  2  0  0  0  0  0  0
  188.4740  171.4900  134.7580 C   0  0  0  0  0  2  0  0  0  0  0  0
  185.4170  174.3080  135.9980 C   0  0  0  0  0  1  0  0  0  0  0  0
  185.7140  173.2030  138.0680 O   0  0  0  0  0  1  0  0  0  0  0  0
  186.3970  173.9420  137.0980 C   0  0  1  0  0  3  0  0  0  0  0  0
  182.1040  176.6300  139.9700 O   0  0  0  0  0  0  0  0  0  0  0  0
  181.0650  176.9640  139.0970 C   0  0  1  0  0  3  0  0  0  0  0  0
  180.5840  175.8130  138.4680 O   0  0  0  0  0  1  0  0  0  0  0  0
  179.9400  177.6860  139.8400 C   0  0  0  0  0  2  0  0  0  0  0  0
  179.8110  180.1510  139.1610 N   0  0  0  0  0  0  0  0  0  0  0  0
  180.9170  179.4380  141.1130 O   0  0  0  0  0  0  0  0  0  0  0  0
  180.2500  179.1330  140.0880 C   0  0  0  0  0  0  0  0  0  0  0  0
  179.2460  179.7620  137.8780 C   0  0  0  0  0  1  0  0  0  0  0  0
  179.9450  181.5320  139.4170 N   0  0  0  0  0  2  0  0  0  0  0  0
  179.8360  183.3920  137.5820 C   0  0  0  0  0  3  0  0  0  0  0  0
  179.8890  182.5310  138.4290 C   0  0  0  0  0  0  0  0  0  0  0  0
  1 21  1  0  0  0  0
  1  7  1  0  0  0  0
  3 15  1  0  0  0  0
  4 25  1  0  0  0  0
  5 20  2  0  0  0  0
  7 16  2  0  0  0  0
  8 13  1  6  0  0  0
  8 19  1  0  0  0  0
  9 16  1  0  0  0  0
  9 20  1  0  0  0  0
 10 14  1  0  0  0  0
 12  3  1  0  0  0  0
 14  3  2  0  0  0  0
 15  6  2  0  0  0  0
 15  4  1  0  0  0  0
 16 23  1  0  0  0  0
 17 11  1  6  0  0  0
 17 14  1  0  0  0  0
 17  8  1  0  0  0  0
 18 24  1  0  0  0  0
 19  6  1  0  0  0  0
 20 11  1  0  0  0  0
 21  9  2  0  0  0  0
 22  7  1  0  0  0  0
 22 18  1  0  0  0  0
 23  2  2  0  0  0  0
 23 10  1  0  0  0  0
 24 39  1  1  0  0  0
 24  2  1  0  0  0  0
 26 21  1  0  0  0  0
 28 26  1  0  0  0  0
 28 27  1  0  0  0  0
 29 28  2  0  0  0  0
 31 27  1  0  0  0  0
 31 30  1  1  0  0  0
 32 31  1  6  0  0  0
 32 38  1  0  0  0  0
 33 34  1  0  0  0  0
 33 32  1  0  0  0  0
 35 33  1  0  0  0  0
 35 34  1  0  0  0  0
 38 36  1  6  0  0  0
 38 37  1  0  0  0  0
 40 41  1  1  0  0  0
 40 42  1  0  0  0  0
 40 39  1  0  0  0  0
 42 45  1  0  0  0  0
 43 47  1  0  0  0  0
 43 45  1  0  0  0  0
 45 44  2  0  0  0  0
 46 43  1  0  0  0  0
 48 49  3  0  0  0  0
 49 47  1  0  0  0  0
M  END
>  <MODEL>
8

>  <REMARK>
 VINA RESULT:      -7.5      2.931      9.390
  Name = 
  12 active torsions:
  status: ('A' for Active; 'I' for Inactive)
    1  A    between atoms: C_2  and  O_42
    2  A    between atoms: C_2  and  C_43
    3  A    between atoms: C_5  and  C_12
    4  A    between atoms: C_5  and  C_34
    5  A    between atoms: C_5  and  C_35
    6  A    between atoms: N_11  and  C_34
    7  A    between atoms: C_13  and  C_36
    8  A    between atoms: N_16  and  N_22
    9  A    between atoms: N_22  and  C_45
   10  A    between atoms: C_36  and  C_39
   11  A    between atoms: O_42  and  C_48
   12  A    between atoms: C_43  and  C_46
                            x       y       z     vdW  Elec       q    Type
                         _______ _______ _______ _____ _____    ______ ____

>  <TORSDO>
F 12

$$$$
=
 OpenBabel10222419243D

 49 53  0  0  1  0  0  0  0  0999 V2000
  185.0590  177.9360  137.9880 S   0  0  0  0  0  0  0  0  0  0  0  0
  189.5700  176.6790  138.4650 C   0  0  0  0  0  3  0  0  0  0  0  0
  191.2270  174.7790  135.8990 C   0  0  0  0  0  0  0  0  0  0  0  0
  193.3910  173.5650  136.2530 N   0  0  0  0  0  2  0  0  0  0  0  0
  186.1770  175.0160  134.6250 O   0  0  0  0  0  0  0  0  0  0  0  0
  191.6140  172.4060  135.2600 N   0  0  0  0  0  0  0  0  0  0  0  0
  186.7000  177.8530  138.3240 C   0  0  0  0  0  0  0  0  0  0  0  0
  189.2610  172.4120  135.7360 C   0  0  2  0  0  3  0  0  0  0  0  0
  186.3520  176.2680  136.6370 C   0  0  0  0  0  0  0  0  0  0  0  0
  189.3270  176.2230  136.1450 N   0  0  0  0  0  2  0  0  0  0  0  0
  187.5870  174.1200  136.2500 N   0  0  0  0  0  2  0  0  0  0  0  0
  192.0380  176.0220  136.1230 C   0  0  0  0  0  1  0  0  0  0  0  0
  188.1020  171.4620  135.4750 C   0  0  0  0  0  1  0  0  0  0  0  0
  189.8690  174.9130  135.9190 C   0  0  0  0  0  0  0  0  0  0  0  0
  192.0390  173.5210  135.7770 C   0  0  0  0  0  0  0  0  0  0  0  0
  187.3010  176.9040  137.4760 C   0  0  0  0  0  0  0  0  0  0  0  0
  188.8370  173.8560  135.5460 C   0  0  1  0  0  3  0  0  0  0  0  0
  188.6650  178.5500  139.7090 C   0  0  0  0  0  2  0  0  0  0  0  0
  190.3090  172.1440  134.6960 C   0  0  0  0  0  2  0  0  0  0  0  0
  186.6750  175.1140  135.7780 C   0  0  0  0  0  0  0  0  0  0  0  0
  185.0590  176.7700  136.7790 C   0  0  0  0  0  0  0  0  0  0  0  0
  187.2930  178.6090  139.3450 O   0  0  0  0  0  0  0  0  0  0  0  0
  188.7600  176.6020  137.4060 C   0  0  0  0  0  0  0  0  0  0  0  0
  189.1290  177.1110  139.8190 C   0  0  2  0  0  3  0  0  0  0  0  0
  194.2870  172.4200  136.1960 C   0  0  0  0  0  1  0  0  0  0  0  0
  183.8340  176.2570  136.0940 C   0  0  0  0  0  2  0  0  0  0  0  0
  181.6130  176.8970  137.1170 N   0  0  0  0  0  2  0  0  0  0  0  0
  182.7030  177.2160  136.2470 C   0  0  0  0  0  0  0  0  0  0  0  0
  182.7020  178.2860  135.5810 O   0  0  0  0  0  0  0  0  0  0  0  0
  179.2810  177.0080  137.1680 O   0  0  0  0  0  1  0  0  0  0  0  0
  180.4520  177.7650  137.2600 C   0  0  1  0  0  3  0  0  0  0  0  0
  180.5050  178.5360  138.5860 C   0  0  2  0  0  3  0  0  0  0  0  0
  181.0570  179.9700  138.3560 C   0  0  0  0  0  3  0  0  0  0  0  0
  179.9960  181.0480  138.5020 C   0  0  0  0  0  2  0  0  0  0  0  0
  180.4870  180.6480  137.1240 C   0  0  0  0  0  2  0  0  0  0  0  0
  181.8550  178.6210  140.7070 C   0  0  0  0  0  1  0  0  0  0  0  0
  180.1900  176.9660  140.4180 O   0  0  0  0  0  1  0  0  0  0  0  0
  181.1490  177.7070  139.7210 C   0  0  1  0  0  3  0  0  0  0  0  0
  190.2060  177.0350  140.7050 O   0  0  0  0  0  0  0  0  0  0  0  0
  189.6290  176.7980  141.9550 C   0  0  1  0  0  3  0  0  0  0  0  0
  190.2070  175.6680  142.5390 O   0  0  0  0  0  1  0  0  0  0  0  0
  189.7800  178.0170  142.8660 C   0  0  0  0  0  2  0  0  0  0  0  0
  188.9550  177.3550  145.1980 N   0  0  0  0  0  0  0  0  0  0  0  0
  191.2420  177.5940  144.6910 O   0  0  0  0  0  0  0  0  0  0  0  0
  190.0470  177.6390  144.2940 C   0  0  0  0  0  0  0  0  0  0  0  0
  187.5880  177.6340  144.7860 C   0  0  0  0  0  1  0  0  0  0  0  0
  189.1490  176.8540  146.5030 N   0  0  0  0  0  2  0  0  0  0  0  0
  188.0440  177.8560  148.6510 C   0  0  0  0  0  3  0  0  0  0  0  0
  188.5540  177.3950  147.6560 C   0  0  0  0  0  0  0  0  0  0  0  0
  1  7  1  0  0  0  0
  2 24  1  0  0  0  0
  3 14  2  0  0  0  0
  3 12  1  0  0  0  0
  5 20  2  0  0  0  0
  6 15  2  0  0  0  0
  7 22  1  0  0  0  0
  8 13  1  6  0  0  0
  9 21  2  0  0  0  0
  9 16  1  0  0  0  0
 10 23  1  0  0  0  0
 14 10  1  0  0  0  0
 15  3  1  0  0  0  0
 15  4  1  0  0  0  0
 16  7  2  0  0  0  0
 17  8  1  0  0  0  0
 17 14  1  1  0  0  0
 17 11  1  0  0  0  0
 18 24  1  0  0  0  0
 19  6  1  0  0  0  0
 19  8  1  0  0  0  0
 20 11  1  0  0  0  0
 20  9  1  0  0  0  0
 21  1  1  0  0  0  0
 22 18  1  0  0  0  0
 23 16  1  0  0  0  0
 23  2  2  0  0  0  0
 24 39  1  1  0  0  0
 25  4  1  0  0  0  0
 26 28  1  0  0  0  0
 26 21  1  0  0  0  0
 27 31  1  0  0  0  0
 28 27  1  0  0  0  0
 29 28  2  0  0  0  0
 31 30  1  1  0  0  0
 32 31  1  6  0  0  0
 32 38  1  0  0  0  0
 33 34  1  0  0  0  0
 33 32  1  0  0  0  0
 35 33  1  0  0  0  0
 35 34  1  0  0  0  0
 38 37  1  0  0  0  0
 38 36  1  1  0  0  0
 39 40  1  0  0  0  0
 40 41  1  1  0  0  0
 40 42  1  0  0  0  0
 42 45  1  0  0  0  0
 43 47  1  0  0  0  0
 45 44  2  0  0  0  0
 45 43  1  0  0  0  0
 46 43  1  0  0  0  0
 47 49  1  0  0  0  0
 49 48  3  0  0  0  0
M  END
>  <MODEL>
9

>  <REMARK>
 VINA RESULT:      -7.5      2.161      2.828
  Name = 
  12 active torsions:
  status: ('A' for Active; 'I' for Inactive)
    1  A    between atoms: C_2  and  O_42
    2  A    between atoms: C_2  and  C_43
    3  A    between atoms: C_5  and  C_12
    4  A    between atoms: C_5  and  C_34
    5  A    between atoms: C_5  and  C_35
    6  A    between atoms: N_11  and  C_34
    7  A    between atoms: C_13  and  C_36
    8  A    between atoms: N_16  and  N_22
    9  A    between atoms: N_22  and  C_45
   10  A    between atoms: C_36  and  C_39
   11  A    between atoms: O_42  and  C_48
   12  A    between atoms: C_43  and  C_46
                            x       y       z     vdW  Elec       q    Type
                         _______ _______ _______ _____ _____    ______ ____

>  <TORSDO>
F 12

$$$$
