=
 OpenBabel10222417143D

 51 53  0  0  1  0  0  0  0  0999 V2000
  187.3430  178.5670  141.4710 C   0  0  0  0  0  3  0  0  0  0  0  0
  184.4270  178.2140  139.5810 C   0  0  1  0  0  3  0  0  0  0  0  0
  185.3910  177.9500  138.4240 C   0  0  0  0  0  0  0  0  0  0  0  0
  186.1120  178.8820  141.1670 C   0  0  0  0  0  0  0  0  0  0  0  0
  187.7680  177.6670  139.1370 C   0  0  0  0  0  2  0  0  0  0  0  0
  188.3560  178.3760  140.3740 C   0  0  2  0  0  3  0  0  0  0  0  0
  186.7740  178.5520  138.3780 C   0  0  0  0  0  2  0  0  0  0  0  0
  185.0110  177.0790  137.4730 C   0  0  0  0  0  3  0  0  0  0  0  0
  184.9310  179.1160  140.6750 C   0  0  0  0  0  3  0  0  0  0  0  0
  181.5360  180.1370  137.8110 C   0  0  1  0  0  3  0  0  0  0  0  0
  182.8870  179.6690  138.2920 C   0  0  0  0  0  3  0  0  0  0  0  0
  180.7610  178.3370  141.6960 O   0  0  0  0  0  0  0  0  0  0  0  0
  181.0070  178.7240  140.5260 C   0  0  0  0  0  0  0  0  0  0  0  0
  180.4170  179.9980  140.0730 C   0  0  0  0  0  3  0  0  0  0  0  0
  182.2090  176.6860  140.2540 F   0  0  0  0  0  0  0  0  0  0  0  0
  180.8410  179.1000  136.9430 C   0  0  0  0  0  1  0  0  0  0  0  0
  180.6330  180.6440  138.9070 C   0  0  0  0  0  0  0  0  0  0  0  0
  181.8460  177.8660  139.6240 C   0  0  2  0  0  3  0  0  0  0  0  0
  183.0490  178.6210  139.1240 C   0  0  0  0  0  0  0  0  0  0  0  0
  179.8760  181.8270  138.6220 N   0  0  0  0  0  2  0  0  0  0  0  0
  181.0180  184.4940  136.1360 C   0  0  0  0  0  1  0  0  0  0  0  0
  180.3420  183.2870  136.6910 C   0  0  0  0  0  0  0  0  0  0  0  0
  179.6390  182.5600  135.9350 O   0  0  0  0  0  0  0  0  0  0  0  0
  180.4820  182.9750  138.0770 N   0  0  0  0  0  2  0  0  0  0  0  0
  185.9200  175.2700  136.0030 C   0  0  1  0  0  0  0  0  0  0  0  0
  186.3460  174.8880  134.5950 C   0  0  0  0  0  1  0  0  0  0  0  0
  186.9460  175.9260  136.7120 O   0  0  0  0  0  0  0  0  0  0  0  0
  185.8640  176.7290  136.2840 C   0  0  2  0  0  3  0  0  0  0  0  0
  185.4720  172.9980  137.0020 C   0  0  0  0  0  3  0  0  0  0  0  0
  185.1490  174.2890  136.8510 C   0  0  0  0  0  3  0  0  0  0  0  0
  186.6440  172.3480  136.3450 C   0  0  0  0  0  2  0  0  0  0  0  0
  187.7920  172.4730  137.1680 O   0  0  0  0  0  0  0  0  0  0  0  0
  188.9770  173.0410  136.6920 C   0  0  0  0  0  0  0  0  0  0  0  0
  189.2520  173.0030  135.4590 O   0  0  0  0  0  0  0  0  0  0  0  0
  189.8600  173.6430  137.5930 O   0  0  0  0  0  0  0  0  0  0  0  0
  190.3320  174.9750  137.4130 C   0  0  0  0  0  2  0  0  0  0  0  0
  191.8380  175.0180  137.5940 C   0  0  0  0  0  1  0  0  0  0  0  0
  189.4930  177.5370  140.9370 C   0  0  0  0  0  2  0  0  0  0  0  0
  189.7320  177.8710  142.3350 N   0  0  0  0  0  2  0  0  0  0  0  0
  192.1670  176.8310  142.2660 O   0  0  0  0  0  0  0  0  0  0  0  0
  190.8390  176.6970  142.9700 S   0  0  0  0  0  0  0  0  0  0  0  0
  190.2950  175.3070  142.7280 O   0  0  0  0  0  0  0  0  0  0  0  0
  191.0590  176.9420  144.7410 C   0  0  0  0  0  2  0  0  0  0  0  0
  189.7170  178.8860  145.2530 O   0  0  0  0  0  1  0  0  0  0  0  0
  189.8090  177.4970  145.4620 C   0  0  2  0  0  0  0  0  0  0  0  0
  189.9770  177.2240  146.9390 C   0  0  0  0  0  0  0  0  0  0  0  0
  190.8380  176.2140  147.3780 O   0  0  0  0  0  0  0  0  0  0  0  0
  189.3890  177.9580  147.7900 O   0  0  0  0  0  1  0  0  0  0  0  0
  188.5510  176.8130  144.9080 C   0  0  0  0  0  2  0  0  0  0  0  0
  186.4290  177.4810  145.9970 C   0  0  0  0  0  1  0  0  0  0  0  0
  187.3570  177.7490  144.8260 C   0  0  0  0  0  2  0  0  0  0  0  0
  2 19  1  6  0  0  0
  2  9  1  0  0  0  0
  3  2  1  0  0  0  0
  4  1  2  0  0  0  0
  5  6  1  0  0  0  0
  6 38  1  1  0  0  0
  6  1  1  0  0  0  0
  7  3  1  0  0  0  0
  7  5  1  0  0  0  0
  8  3  2  0  0  0  0
  9  4  2  0  0  0  0
 10 16  1  1  0  0  0
 10 11  1  0  0  0  0
 10 17  1  0  0  0  0
 11 19  2  0  0  0  0
 13 12  2  0  0  0  0
 14 13  1  0  0  0  0
 17 14  2  0  0  0  0
 18 15  1  1  0  0  0
 18 13  1  0  0  0  0
 19 18  1  0  0  0  0
 20 17  1  0  0  0  0
 21 22  1  0  0  0  0
 22 24  1  0  0  0  0
 23 22  2  0  0  0  0
 24 20  1  0  0  0  0
 25 26  1  6  0  0  0
 25 28  1  0  0  0  0
 25 27  1  0  0  0  0
 25 30  1  0  0  0  0
 28 27  1  0  0  0  0
 28  8  1  1  0  0  0
 30 29  2  0  0  0  0
 31 29  1  0  0  0  0
 31 32  1  0  0  0  0
 33 32  1  0  0  0  0
 33 35  1  0  0  0  0
 34 33  2  0  0  0  0
 36 35  1  0  0  0  0
 36 37  1  0  0  0  0
 38 39  1  0  0  0  0
 39 41  1  0  0  0  0
 40 41  2  0  0  0  0
 41 43  1  0  0  0  0
 42 41  2  0  0  0  0
 43 45  1  0  0  0  0
 45 44  1  6  0  0  0
 45 46  1  0  0  0  0
 46 47  2  0  0  0  0
 46 48  1  0  0  0  0
 49 45  1  0  0  0  0
 51 49  1  0  0  0  0
 51 50  1  0  0  0  0
M  END
>  <MODEL>
1

>  <REMARK>
 VINA RESULT:      -7.2      0.000      0.000
  Name = 
  18 active torsions:
  status: ('A' for Active; 'I' for Inactive)
    1  A    between atoms: C_3  and  C_51
    2  A    between atoms: C_8  and  C_32
    3  A    between atoms: C_10  and  C_12
    4  A    between atoms: C_11  and  O_27
    5  A    between atoms: C_12  and  N_36
    6  A    between atoms: C_13  and  C_44
    7  A    between atoms: C_13  and  C_45
    8  A    between atoms: S_16  and  C_18
    9  A    between atoms: S_16  and  N_36
   10  A    between atoms: O_17  and  C_46
   11  A    between atoms: O_17  and  C_47
   12  A    between atoms: C_18  and  C_45
   13  A    between atoms: C_21  and  C_39
   14  A    between atoms: C_24  and  C_45
   15  A    between atoms: N_25  and  N_43
   16  A    between atoms: O_27  and  C_46
   17  A    between atoms: C_29  and  C_47
   18  A    between atoms: N_43  and  C_48
                            x       y       z     vdW  Elec       q    Type
                         _______ _______ _______ _____ _____    ______ ____

>  <TORSDO>
F 18

$$$$
=
 OpenBabel10222417143D

 51 53  0  0  1  0  0  0  0  0999 V2000
  183.8890  178.7070  145.0370 C   0  0  0  0  0  3  0  0  0  0  0  0
  183.5310  178.1810  141.6020 C   0  0  1  0  0  3  0  0  0  0  0  0
  184.9930  178.6260  141.5370 C   0  0  0  0  0  0  0  0  0  0  0  0
  183.2040  178.7290  143.9260 C   0  0  0  0  0  0  0  0  0  0  0  0
  186.0870  178.8280  143.7740 C   0  0  0  0  0  2  0  0  0  0  0  0
  185.3080  179.2100  145.0490 C   0  0  2  0  0  3  0  0  0  0  0  0
  185.5860  179.5860  142.5390 C   0  0  0  0  0  2  0  0  0  0  0  0
  185.7820  178.0630  140.6050 C   0  0  0  0  0  3  0  0  0  0  0  0
  182.7100  178.7590  142.7220 C   0  0  0  0  0  3  0  0  0  0  0  0
  182.0880  179.6510  138.2940 C   0  0  1  0  0  3  0  0  0  0  0  0
  182.7970  179.4660  139.6130 C   0  0  0  0  0  3  0  0  0  0  0  0
  179.8660  176.5000  140.3120 O   0  0  0  0  0  0  0  0  0  0  0  0
  180.6120  177.3140  139.7120 C   0  0  0  0  0  0  0  0  0  0  0  0
  179.9830  178.4330  138.9850 C   0  0  0  0  0  3  0  0  0  0  0  0
  182.4310  175.9360  140.3960 F   0  0  0  0  0  0  0  0  0  0  0  0
  182.7030  178.8140  137.1850 C   0  0  0  0  0  1  0  0  0  0  0  0
  180.5930  179.4690  138.3690 C   0  0  0  0  0  0  0  0  0  0  0  0
  182.0980  177.0990  139.7170 C   0  0  2  0  0  3  0  0  0  0  0  0
  182.8160  178.2950  140.2800 C   0  0  0  0  0  0  0  0  0  0  0  0
  179.7930  180.4010  137.6310 N   0  0  0  0  0  2  0  0  0  0  0  0
  180.9250  183.7860  136.2680 C   0  0  0  0  0  1  0  0  0  0  0  0
  180.3240  182.7640  137.1710 C   0  0  0  0  0  0  0  0  0  0  0  0
  179.7870  183.1260  138.2560 O   0  0  0  0  0  0  0  0  0  0  0  0
  180.3760  181.3840  136.8100 N   0  0  0  0  0  2  0  0  0  0  0  0
  187.7480  178.1640  139.0610 C   0  0  1  0  0  0  0  0  0  0  0  0
  189.0210  178.9080  138.6920 C   0  0  0  0  0  1  0  0  0  0  0  0
  187.9540  177.2370  140.1020 O   0  0  0  0  0  0  0  0  0  0  0  0
  187.2360  178.4090  140.4350 C   0  0  2  0  0  3  0  0  0  0  0  0
  187.1110  176.5910  137.1950 C   0  0  0  0  0  3  0  0  0  0  0  0
  186.8370  177.6430  137.9780 C   0  0  0  0  0  3  0  0  0  0  0  0
  188.3660  175.7880  137.2850 C   0  0  0  0  0  2  0  0  0  0  0  0
  189.0580  175.8290  136.0480 O   0  0  0  0  0  0  0  0  0  0  0  0
  190.4270  175.5560  135.9650 C   0  0  0  0  0  0  0  0  0  0  0  0
  191.0970  175.9510  134.9690 O   0  0  0  0  0  0  0  0  0  0  0  0
  191.0450  174.8330  136.9900 O   0  0  0  0  0  0  0  0  0  0  0  0
  192.2260  175.2980  137.6360 C   0  0  0  0  0  2  0  0  0  0  0  0
  191.9000  176.4990  138.5050 C   0  0  0  0  0  1  0  0  0  0  0  0
  186.0030  178.6040  146.2590 C   0  0  0  0  0  2  0  0  0  0  0  0
  186.9730  177.6000  145.8410 N   0  0  0  0  0  2  0  0  0  0  0  0
  188.5780  176.2630  147.4700 O   0  0  0  0  0  0  0  0  0  0  0  0
  188.2950  177.6550  146.9620 S   0  0  0  0  0  0  0  0  0  0  0  0
  187.9280  178.5380  148.1340 O   0  0  0  0  0  0  0  0  0  0  0  0
  189.7640  178.3240  146.1610 C   0  0  0  0  0  2  0  0  0  0  0  0
  189.8080  176.2760  144.8790 O   0  0  0  0  0  1  0  0  0  0  0  0
  190.6340  177.2620  145.4500 C   0  0  2  0  0  0  0  0  0  0  0  0
  191.5210  176.6260  146.4950 C   0  0  0  0  0  0  0  0  0  0  0  0
  191.7280  177.2560  147.7250 O   0  0  0  0  0  1  0  0  0  0  0  0
  192.0280  175.4820  146.2850 O   0  0  0  0  0  0  0  0  0  0  0  0
  191.4640  177.9330  144.3470 C   0  0  0  0  0  2  0  0  0  0  0  0
  190.8820  177.6300  141.9580 C   0  0  0  0  0  1  0  0  0  0  0  0
  191.6550  177.0460  143.1280 C   0  0  0  0  0  2  0  0  0  0  0  0
  1  6  1  0  0  0  0
  2 19  1  6  0  0  0
  2  9  1  0  0  0  0
  3  2  1  0  0  0  0
  3  7  1  0  0  0  0
  4  1  2  0  0  0  0
  5  6  1  0  0  0  0
  6 38  1  1  0  0  0
  7  5  1  0  0  0  0
  8  3  2  0  0  0  0
  9  4  2  0  0  0  0
 10 16  1  6  0  0  0
 10 17  1  0  0  0  0
 10 11  1  0  0  0  0
 11 19  2  0  0  0  0
 13 18  1  0  0  0  0
 13 12  2  0  0  0  0
 14 13  1  0  0  0  0
 17 14  2  0  0  0  0
 18 19  1  0  0  0  0
 18 15  1  1  0  0  0
 20 17  1  0  0  0  0
 21 22  1  0  0  0  0
 22 23  2  0  0  0  0
 24 22  1  0  0  0  0
 24 20  1  0  0  0  0
 25 26  1  6  0  0  0
 25 27  1  0  0  0  0
 25 28  1  0  0  0  0
 27 28  1  0  0  0  0
 28  8  1  6  0  0  0
 29 31  1  0  0  0  0
 29 30  2  0  0  0  0
 30 25  1  0  0  0  0
 32 31  1  0  0  0  0
 33 32  1  0  0  0  0
 33 35  1  0  0  0  0
 34 33  2  0  0  0  0
 35 36  1  0  0  0  0
 36 37  1  0  0  0  0
 39 38  1  0  0  0  0
 39 41  1  0  0  0  0
 41 40  2  0  0  0  0
 41 42  2  0  0  0  0
 43 41  1  0  0  0  0
 45 44  1  6  0  0  0
 45 43  1  0  0  0  0
 45 46  1  0  0  0  0
 46 47  1  0  0  0  0
 48 46  2  0  0  0  0
 49 45  1  0  0  0  0
 50 51  1  0  0  0  0
 51 49  1  0  0  0  0
M  END
>  <MODEL>
2

>  <REMARK>
 VINA RESULT:      -7.1      2.160      3.578
  Name = 
  18 active torsions:
  status: ('A' for Active; 'I' for Inactive)
    1  A    between atoms: C_3  and  C_51
    2  A    between atoms: C_8  and  C_32
    3  A    between atoms: C_10  and  C_12
    4  A    between atoms: C_11  and  O_27
    5  A    between atoms: C_12  and  N_36
    6  A    between atoms: C_13  and  C_44
    7  A    between atoms: C_13  and  C_45
    8  A    between atoms: S_16  and  C_18
    9  A    between atoms: S_16  and  N_36
   10  A    between atoms: O_17  and  C_46
   11  A    between atoms: O_17  and  C_47
   12  A    between atoms: C_18  and  C_45
   13  A    between atoms: C_21  and  C_39
   14  A    between atoms: C_24  and  C_45
   15  A    between atoms: N_25  and  N_43
   16  A    between atoms: O_27  and  C_46
   17  A    between atoms: C_29  and  C_47
   18  A    between atoms: N_43  and  C_48
                            x       y       z     vdW  Elec       q    Type
                         _______ _______ _______ _____ _____    ______ ____

>  <TORSDO>
F 18

$$$$
=
 OpenBabel10222417143D

 51 53  0  0  1  0  0  0  0  0999 V2000
  184.0940  178.2630  144.1980 C   0  0  0  0  0  3  0  0  0  0  0  0
  183.1060  178.3390  140.8480 C   0  0  1  0  0  3  0  0  0  0  0  0
  184.5790  178.6520  140.5800 C   0  0  0  0  0  0  0  0  0  0  0  0
  183.2400  178.5290  143.2460 C   0  0  0  0  0  0  0  0  0  0  0  0
  186.0470  178.3870  142.5830 C   0  0  0  0  0  2  0  0  0  0  0  0
  185.5440  178.6250  144.0210 C   0  0  2  0  0  3  0  0  0  0  0  0
  185.4400  179.3780  141.5840 C   0  0  0  0  0  2  0  0  0  0  0  0
  185.1280  178.1790  139.4480 C   0  0  0  0  0  3  0  0  0  0  0  0
  182.5580  178.7990  142.1720 C   0  0  0  0  0  3  0  0  0  0  0  0
  181.4980  180.3600  137.9310 C   0  0  1  0  0  3  0  0  0  0  0  0
  182.3790  179.9020  139.0660 C   0  0  0  0  0  3  0  0  0  0  0  0
  178.9310  177.8310  140.3690 O   0  0  0  0  0  0  0  0  0  0  0  0
  179.7380  178.4410  139.6250 C   0  0  0  0  0  0  0  0  0  0  0  0
  179.3210  179.7360  139.0530 C   0  0  0  0  0  3  0  0  0  0  0  0
  181.1880  176.5710  139.9000 F   0  0  0  0  0  0  0  0  0  0  0  0
  181.6070  179.4580  136.7140 C   0  0  0  0  0  1  0  0  0  0  0  0
  180.0610  180.5970  138.3240 C   0  0  0  0  0  0  0  0  0  0  0  0
  181.0690  177.8210  139.3110 C   0  0  2  0  0  3  0  0  0  0  0  0
  182.1990  178.7320  139.7100 C   0  0  0  0  0  0  0  0  0  0  0  0
  179.4270  181.7610  137.7770 N   0  0  0  0  0  2  0  0  0  0  0  0
  181.1430  184.9590  136.5840 C   0  0  0  0  0  1  0  0  0  0  0  0
  180.4430  183.6440  136.5520 C   0  0  0  0  0  0  0  0  0  0  0  0
  180.1760  183.1030  135.4420 O   0  0  0  0  0  0  0  0  0  0  0  0
  180.0650  183.0160  137.7770 N   0  0  0  0  0  2  0  0  0  0  0  0
  186.8800  178.0100  137.6690 C   0  0  1  0  0  0  0  0  0  0  0  0
  188.1310  178.6340  137.0730 C   0  0  0  0  0  1  0  0  0  0  0  0
  187.1700  177.1720  138.7640 O   0  0  0  0  0  0  0  0  0  0  0  0
  186.5640  178.4130  139.0650 C   0  0  2  0  0  3  0  0  0  0  0  0
  185.9860  176.4230  135.9250 C   0  0  0  0  0  3  0  0  0  0  0  0
  185.8090  177.4510  136.7650 C   0  0  0  0  0  3  0  0  0  0  0  0
  187.2740  175.6870  135.7660 C   0  0  0  0  0  2  0  0  0  0  0  0
  187.3300  174.6030  136.6790 O   0  0  0  0  0  0  0  0  0  0  0  0
  188.3060  173.6080  136.5760 C   0  0  0  0  0  0  0  0  0  0  0  0
  188.0120  172.4000  136.8050 O   0  0  0  0  0  0  0  0  0  0  0  0
  189.6120  173.9620  136.2260 O   0  0  0  0  0  0  0  0  0  0  0  0
  190.6120  174.2240  137.2080 C   0  0  0  0  0  2  0  0  0  0  0  0
  190.4460  175.6320  137.7510 C   0  0  0  0  0  1  0  0  0  0  0  0
  186.3540  177.7690  144.9820 C   0  0  0  0  0  2  0  0  0  0  0  0
  186.9380  178.5920  146.0340 N   0  0  0  0  0  2  0  0  0  0  0  0
  187.8210  176.8230  147.7970 O   0  0  0  0  0  0  0  0  0  0  0  0
  188.2920  177.7250  146.6830 S   0  0  0  0  0  0  0  0  0  0  0  0
  189.3000  178.7060  147.2410 O   0  0  0  0  0  0  0  0  0  0  0  0
  189.0800  176.7440  145.3940 C   0  0  0  0  0  2  0  0  0  0  0  0
  190.2310  178.7210  144.6130 O   0  0  0  0  0  1  0  0  0  0  0  0
  190.4000  177.3450  144.8610 C   0  0  2  0  0  0  0  0  0  0  0  0
  190.7300  176.6420  143.5650 C   0  0  0  0  0  0  0  0  0  0  0  0
  189.7360  175.9620  142.8560 O   0  0  0  0  0  0  0  0  0  0  0  0
  191.8990  176.7250  143.0770 O   0  0  0  0  0  1  0  0  0  0  0  0
  191.5120  177.1480  145.9010 C   0  0  0  0  0  2  0  0  0  0  0  0
  192.5460  175.6700  147.5990 C   0  0  0  0  0  1  0  0  0  0  0  0
  191.5910  175.7220  146.4180 C   0  0  0  0  0  2  0  0  0  0  0  0
  2 19  1  6  0  0  0
  2  9  1  0  0  0  0
  3  2  1  0  0  0  0
  3  7  1  0  0  0  0
  4  1  2  0  0  0  0
  5  6  1  0  0  0  0
  6  1  1  0  0  0  0
  6 38  1  1  0  0  0
  7  5  1  0  0  0  0
  8  3  2  0  0  0  0
  9  4  2  0  0  0  0
 10 16  1  6  0  0  0
 10 17  1  0  0  0  0
 10 11  1  0  0  0  0
 11 19  2  0  0  0  0
 13 12  2  0  0  0  0
 14 13  1  0  0  0  0
 17 14  2  0  0  0  0
 18 13  1  0  0  0  0
 18 19  1  0  0  0  0
 18 15  1  1  0  0  0
 20 24  1  0  0  0  0
 20 17  1  0  0  0  0
 22 21  1  0  0  0  0
 22 24  1  0  0  0  0
 23 22  2  0  0  0  0
 25 26  1  6  0  0  0
 25 27  1  0  0  0  0
 25 28  1  0  0  0  0
 27 28  1  0  0  0  0
 28  8  1  6  0  0  0
 29 30  2  0  0  0  0
 30 25  1  0  0  0  0
 31 29  1  0  0  0  0
 31 32  1  0  0  0  0
 33 32  1  0  0  0  0
 33 34  2  0  0  0  0
 35 33  1  0  0  0  0
 35 36  1  0  0  0  0
 36 37  1  0  0  0  0
 38 39  1  0  0  0  0
 39 41  1  0  0  0  0
 41 42  2  0  0  0  0
 41 40  2  0  0  0  0
 43 41  1  0  0  0  0
 45 44  1  6  0  0  0
 45 43  1  0  0  0  0
 45 49  1  0  0  0  0
 46 45  1  0  0  0  0
 47 46  2  0  0  0  0
 48 46  1  0  0  0  0
 49 51  1  0  0  0  0
 51 50  1  0  0  0  0
M  END
>  <MODEL>
3

>  <REMARK>
 VINA RESULT:      -6.8      1.674      3.198
  Name = 
  18 active torsions:
  status: ('A' for Active; 'I' for Inactive)
    1  A    between atoms: C_3  and  C_51
    2  A    between atoms: C_8  and  C_32
    3  A    between atoms: C_10  and  C_12
    4  A    between atoms: C_11  and  O_27
    5  A    between atoms: C_12  and  N_36
    6  A    between atoms: C_13  and  C_44
    7  A    between atoms: C_13  and  C_45
    8  A    between atoms: S_16  and  C_18
    9  A    between atoms: S_16  and  N_36
   10  A    between atoms: O_17  and  C_46
   11  A    between atoms: O_17  and  C_47
   12  A    between atoms: C_18  and  C_45
   13  A    between atoms: C_21  and  C_39
   14  A    between atoms: C_24  and  C_45
   15  A    between atoms: N_25  and  N_43
   16  A    between atoms: O_27  and  C_46
   17  A    between atoms: C_29  and  C_47
   18  A    between atoms: N_43  and  C_48
                            x       y       z     vdW  Elec       q    Type
                         _______ _______ _______ _____ _____    ______ ____

>  <TORSDO>
F 18

$$$$
=
 OpenBabel10222417143D

 51 53  0  0  1  0  0  0  0  0999 V2000
  184.2580  178.2430  143.9640 C   0  0  0  0  0  3  0  0  0  0  0  0
  182.9580  178.5930  140.7410 C   0  0  1  0  0  3  0  0  0  0  0  0
  184.4190  178.7930  140.3380 C   0  0  0  0  0  0  0  0  0  0  0  0
  183.3430  178.6360  143.1190 C   0  0  0  0  0  0  0  0  0  0  0  0
  186.0470  178.2890  142.1650 C   0  0  0  0  0  2  0  0  0  0  0  0
  185.7110  178.4890  143.6560 C   0  0  2  0  0  3  0  0  0  0  0  0
  185.4380  179.3830  141.2810 C   0  0  0  0  0  2  0  0  0  0  0  0
  184.8090  178.3380  139.1340 C   0  0  0  0  0  3  0  0  0  0  0  0
  182.5870  179.0240  142.1340 C   0  0  0  0  0  3  0  0  0  0  0  0
  181.4690  180.5590  137.7230 C   0  0  1  0  0  3  0  0  0  0  0  0
  182.3960  179.9780  138.7620 C   0  0  0  0  0  3  0  0  0  0  0  0
  178.9310  179.8240  141.1800 O   0  0  0  0  0  0  0  0  0  0  0  0
  179.6670  179.8940  140.1640 C   0  0  0  0  0  0  0  0  0  0  0  0
  179.6160  181.1220  139.3470 C   0  0  0  0  0  3  0  0  0  0  0  0
  180.3420  177.6670  140.6720 F   0  0  0  0  0  0  0  0  0  0  0  0
  180.8990  179.4970  136.7990 C   0  0  0  0  0  1  0  0  0  0  0  0
  180.3890  181.4470  138.2890 C   0  0  0  0  0  0  0  0  0  0  0  0
  180.5340  178.7250  139.7960 C   0  0  2  0  0  3  0  0  0  0  0  0
  181.9830  179.1270  139.7220 C   0  0  0  0  0  0  0  0  0  0  0  0
  180.1040  182.6530  137.5700 N   0  0  0  0  0  2  0  0  0  0  0  0
  179.2960  186.2010  138.7360 C   0  0  0  0  0  1  0  0  0  0  0  0
  179.9780  185.0680  138.0480 C   0  0  0  0  0  0  0  0  0  0  0  0
  180.9970  185.2920  137.3350 O   0  0  0  0  0  0  0  0  0  0  0  0
  179.4640  183.7450  138.1870 N   0  0  0  0  0  2  0  0  0  0  0  0
  186.4510  177.7370  137.3440 C   0  0  1  0  0  0  0  0  0  0  0  0
  187.6560  178.1940  136.5380 C   0  0  0  0  0  1  0  0  0  0  0  0
  186.8180  177.1890  138.5900 O   0  0  0  0  0  0  0  0  0  0  0  0
  186.2160  178.4680  138.6170 C   0  0  2  0  0  3  0  0  0  0  0  0
  185.3720  175.6710  136.3820 C   0  0  0  0  0  3  0  0  0  0  0  0
  185.3340  176.9780  136.6710 C   0  0  0  0  0  3  0  0  0  0  0  0
  186.5310  174.7820  136.6850 C   0  0  0  0  0  2  0  0  0  0  0  0
  187.3760  174.6810  135.5500 O   0  0  0  0  0  0  0  0  0  0  0  0
  188.7430  174.4170  135.6750 C   0  0  0  0  0  0  0  0  0  0  0  0
  189.2140  173.3040  135.3060 O   0  0  0  0  0  0  0  0  0  0  0  0
  189.5820  175.3930  136.2220 O   0  0  0  0  0  0  0  0  0  0  0  0
  190.1480  175.2580  137.5220 C   0  0  0  0  0  2  0  0  0  0  0  0
  190.8870  176.5300  137.8970 C   0  0  0  0  0  1  0  0  0  0  0  0
  186.5290  177.5120  144.4880 C   0  0  0  0  0  2  0  0  0  0  0  0
  187.5110  176.8290  143.6540 N   0  0  0  0  0  2  0  0  0  0  0  0
  189.5410  178.4270  143.0670 O   0  0  0  0  0  0  0  0  0  0  0  0
  189.0770  177.4280  144.0980 S   0  0  0  0  0  0  0  0  0  0  0  0
  190.0620  176.2810  144.1450 O   0  0  0  0  0  0  0  0  0  0  0  0
  189.0100  178.2100  145.7200 C   0  0  0  0  0  2  0  0  0  0  0  0
  189.2210  176.1060  146.8880 O   0  0  0  0  0  1  0  0  0  0  0  0
  189.7290  177.4170  146.8340 C   0  0  2  0  0  0  0  0  0  0  0  0
  189.4490  178.1160  148.1440 C   0  0  0  0  0  0  0  0  0  0  0  0
  188.1650  178.5840  148.4350 O   0  0  0  0  0  0  0  0  0  0  0  0
  190.3650  178.2190  149.0160 O   0  0  0  0  0  1  0  0  0  0  0  0
  191.2350  177.3680  146.5390 C   0  0  0  0  0  2  0  0  0  0  0  0
  192.5080  175.7920  147.9640 C   0  0  0  0  0  1  0  0  0  0  0  0
  191.8100  175.9650  146.6260 C   0  0  0  0  0  2  0  0  0  0  0  0
  2 19  1  6  0  0  0
  2  9  1  0  0  0  0
  3  2  1  0  0  0  0
  3  7  1  0  0  0  0
  4  1  2  0  0  0  0
  5  6  1  0  0  0  0
  6  1  1  0  0  0  0
  6 38  1  1  0  0  0
  7  5  1  0  0  0  0
  8  3  2  0  0  0  0
  9  4  2  0  0  0  0
 10 16  1  1  0  0  0
 10 17  1  0  0  0  0
 10 11  1  0  0  0  0
 11 19  2  0  0  0  0
 13 12  2  0  0  0  0
 14 13  1  0  0  0  0
 17 14  2  0  0  0  0
 18 13  1  0  0  0  0
 18 15  1  1  0  0  0
 19 18  1  0  0  0  0
 20 24  1  0  0  0  0
 20 17  1  0  0  0  0
 22 24  1  0  0  0  0
 22 21  1  0  0  0  0
 23 22  2  0  0  0  0
 25 26  1  6  0  0  0
 25 27  1  0  0  0  0
 25 28  1  0  0  0  0
 27 28  1  0  0  0  0
 28  8  1  1  0  0  0
 29 30  2  0  0  0  0
 29 31  1  0  0  0  0
 30 25  1  0  0  0  0
 32 33  1  0  0  0  0
 32 31  1  0  0  0  0
 33 35  1  0  0  0  0
 34 33  2  0  0  0  0
 35 36  1  0  0  0  0
 36 37  1  0  0  0  0
 39 41  1  0  0  0  0
 39 38  1  0  0  0  0
 40 41  2  0  0  0  0
 41 42  2  0  0  0  0
 41 43  1  0  0  0  0
 43 45  1  0  0  0  0
 45 44  1  1  0  0  0
 45 46  1  0  0  0  0
 46 47  2  0  0  0  0
 46 48  1  0  0  0  0
 49 51  1  0  0  0  0
 49 45  1  0  0  0  0
 51 50  1  0  0  0  0
M  END
>  <MODEL>
4

>  <REMARK>
 VINA RESULT:      -6.4      1.766      2.760
  Name = 
  18 active torsions:
  status: ('A' for Active; 'I' for Inactive)
    1  A    between atoms: C_3  and  C_51
    2  A    between atoms: C_8  and  C_32
    3  A    between atoms: C_10  and  C_12
    4  A    between atoms: C_11  and  O_27
    5  A    between atoms: C_12  and  N_36
    6  A    between atoms: C_13  and  C_44
    7  A    between atoms: C_13  and  C_45
    8  A    between atoms: S_16  and  C_18
    9  A    between atoms: S_16  and  N_36
   10  A    between atoms: O_17  and  C_46
   11  A    between atoms: O_17  and  C_47
   12  A    between atoms: C_18  and  C_45
   13  A    between atoms: C_21  and  C_39
   14  A    between atoms: C_24  and  C_45
   15  A    between atoms: N_25  and  N_43
   16  A    between atoms: O_27  and  C_46
   17  A    between atoms: C_29  and  C_47
   18  A    between atoms: N_43  and  C_48
                            x       y       z     vdW  Elec       q    Type
                         _______ _______ _______ _____ _____    ______ ____

>  <TORSDO>
F 18

$$$$
=
 OpenBabel10222417143D

 51 53  0  0  1  0  0  0  0  0999 V2000
  185.3480  178.4230  142.1940 C   0  0  0  0  0  3  0  0  0  0  0  0
  183.3270  177.0600  139.6910 C   0  0  1  0  0  3  0  0  0  0  0  0
  184.4530  177.5020  138.7550 C   0  0  0  0  0  0  0  0  0  0  0  0
  184.1880  178.1580  141.6560 C   0  0  0  0  0  0  0  0  0  0  0  0
  186.5110  178.2700  139.9430 C   0  0  0  0  0  2  0  0  0  0  0  0
  186.4690  178.9390  141.3320 C   0  0  2  0  0  3  0  0  0  0  0  0
  185.3310  178.6900  139.0600 C   0  0  0  0  0  2  0  0  0  0  0  0
  184.7100  176.7420  137.6760 C   0  0  0  0  0  3  0  0  0  0  0  0
  183.1390  177.8810  140.9380 C   0  0  0  0  0  3  0  0  0  0  0  0
  180.0910  175.3420  138.3640 C   0  0  1  0  0  3  0  0  0  0  0  0
  181.3940  175.6400  139.0630 C   0  0  0  0  0  3  0  0  0  0  0  0
  182.0170  178.3500  135.8780 O   0  0  0  0  0  0  0  0  0  0  0  0
  181.4390  177.5860  136.6900 C   0  0  0  0  0  0  0  0  0  0  0  0
  180.7600  176.3870  136.1610 C   0  0  0  0  0  3  0  0  0  0  0  0
  182.0530  179.1480  138.3800 F   0  0  0  0  0  0  0  0  0  0  0  0
  178.9460  176.1900  138.8900 C   0  0  0  0  0  1  0  0  0  0  0  0
  180.1750  175.3900  136.8580 C   0  0  0  0  0  0  0  0  0  0  0  0
  181.4190  177.9360  138.1500 C   0  0  2  0  0  3  0  0  0  0  0  0
  182.0180  176.8320  138.9790 C   0  0  0  0  0  0  0  0  0  0  0  0
  179.4810  174.3610  136.1420 N   0  0  0  0  0  2  0  0  0  0  0  0
  180.6690  170.7680  135.6170 C   0  0  0  0  0  1  0  0  0  0  0  0
  179.9200  171.9350  136.1620 C   0  0  0  0  0  0  0  0  0  0  0  0
  179.0720  171.7610  137.0820 O   0  0  0  0  0  0  0  0  0  0  0  0
  180.1550  173.2380  135.6280 N   0  0  0  0  0  2  0  0  0  0  0  0
  186.4240  175.8560  136.0830 C   0  0  1  0  0  0  0  0  0  0  0  0
  187.1540  176.0790  134.7680 C   0  0  0  0  0  1  0  0  0  0  0  0
  187.0210  176.5550  137.1510 O   0  0  0  0  0  0  0  0  0  0  0  0
  185.7890  177.0620  136.6780 C   0  0  2  0  0  3  0  0  0  0  0  0
  186.7360  173.3770  136.4260 C   0  0  0  0  0  3  0  0  0  0  0  0
  185.9650  174.4710  136.4670 C   0  0  0  0  0  3  0  0  0  0  0  0
  188.1630  173.3770  135.9890 C   0  0  0  0  0  2  0  0  0  0  0  0
  189.0160  173.4870  137.1180 O   0  0  0  0  0  0  0  0  0  0  0  0
  190.0310  174.4460  137.1780 C   0  0  0  0  0  0  0  0  0  0  0  0
  190.0490  175.2980  138.1100 O   0  0  0  0  0  0  0  0  0  0  0  0
  191.0210  174.4580  136.1900 O   0  0  0  0  0  0  0  0  0  0  0  0
  191.6350  175.6670  135.7520 C   0  0  0  0  0  2  0  0  0  0  0  0
  193.0060  175.8090  136.3870 C   0  0  0  0  0  1  0  0  0  0  0  0
  187.7760  178.6630  142.0590 C   0  0  0  0  0  2  0  0  0  0  0  0
  188.7150  177.9780  141.1800 N   0  0  0  0  0  2  0  0  0  0  0  0
  191.0660  178.1970  142.3830 O   0  0  0  0  0  0  0  0  0  0  0  0
  189.9200  177.2350  142.1830 S   0  0  0  0  0  0  0  0  0  0  0  0
  190.4420  175.9870  141.5060 O   0  0  0  0  0  0  0  0  0  0  0  0
  189.2140  176.7870  143.7790 C   0  0  0  0  0  2  0  0  0  0  0  0
  190.2940  178.8330  144.4760 O   0  0  0  0  0  1  0  0  0  0  0  0
  189.7360  177.6360  144.9600 C   0  0  2  0  0  0  0  0  0  0  0  0
  190.8070  176.8320  145.6590 C   0  0  0  0  0  0  0  0  0  0  0  0
  190.8370  176.7550  147.0550 O   0  0  0  0  0  1  0  0  0  0  0  0
  191.6460  176.1650  144.9790 O   0  0  0  0  0  0  0  0  0  0  0  0
  188.5750  177.9620  145.9100 C   0  0  0  0  0  2  0  0  0  0  0  0
  186.1190  178.2790  145.8470 C   0  0  0  0  0  1  0  0  0  0  0  0
  187.2580  177.3480  145.4680 C   0  0  0  0  0  2  0  0  0  0  0  0
  2 19  1  6  0  0  0
  2  9  1  0  0  0  0
  3  7  1  0  0  0  0
  3  2  1  0  0  0  0
  4  1  2  0  0  0  0
  5  6  1  0  0  0  0
  6 38  1  1  0  0  0
  6  1  1  0  0  0  0
  7  5  1  0  0  0  0
  8  3  2  0  0  0  0
  9  4  2  0  0  0  0
 10 16  1  1  0  0  0
 10 11  1  0  0  0  0
 12 13  2  0  0  0  0
 13 18  1  0  0  0  0
 14 13  1  0  0  0  0
 14 17  2  0  0  0  0
 17 10  1  0  0  0  0
 18 15  1  6  0  0  0
 18 19  1  0  0  0  0
 19 11  2  0  0  0  0
 20 17  1  0  0  0  0
 21 22  1  0  0  0  0
 22 23  2  0  0  0  0
 24 20  1  0  0  0  0
 24 22  1  0  0  0  0
 25 26  1  6  0  0  0
 25 30  1  0  0  0  0
 25 28  1  0  0  0  0
 25 27  1  0  0  0  0
 28 27  1  0  0  0  0
 28  8  1  1  0  0  0
 29 30  2  0  0  0  0
 31 29  1  0  0  0  0
 31 32  1  0  0  0  0
 32 33  1  0  0  0  0
 33 34  2  0  0  0  0
 35 33  1  0  0  0  0
 36 35  1  0  0  0  0
 36 37  1  0  0  0  0
 39 38  1  0  0  0  0
 39 41  1  0  0  0  0
 41 40  2  0  0  0  0
 41 43  1  0  0  0  0
 42 41  2  0  0  0  0
 43 45  1  0  0  0  0
 45 44  1  6  0  0  0
 45 46  1  0  0  0  0
 45 49  1  0  0  0  0
 46 47  1  0  0  0  0
 48 46  2  0  0  0  0
 51 50  1  0  0  0  0
 51 49  1  0  0  0  0
M  END
>  <MODEL>
5

>  <REMARK>
 VINA RESULT:      -6.2      2.890      4.200
  Name = 
  18 active torsions:
  status: ('A' for Active; 'I' for Inactive)
    1  A    between atoms: C_3  and  C_51
    2  A    between atoms: C_8  and  C_32
    3  A    between atoms: C_10  and  C_12
    4  A    between atoms: C_11  and  O_27
    5  A    between atoms: C_12  and  N_36
    6  A    between atoms: C_13  and  C_44
    7  A    between atoms: C_13  and  C_45
    8  A    between atoms: S_16  and  C_18
    9  A    between atoms: S_16  and  N_36
   10  A    between atoms: O_17  and  C_46
   11  A    between atoms: O_17  and  C_47
   12  A    between atoms: C_18  and  C_45
   13  A    between atoms: C_21  and  C_39
   14  A    between atoms: C_24  and  C_45
   15  A    between atoms: N_25  and  N_43
   16  A    between atoms: O_27  and  C_46
   17  A    between atoms: C_29  and  C_47
   18  A    between atoms: N_43  and  C_48
                            x       y       z     vdW  Elec       q    Type
                         _______ _______ _______ _____ _____    ______ ____

>  <TORSDO>
F 18

$$$$
=
 OpenBabel10222417143D

 51 53  0  0  1  0  0  0  0  0999 V2000
  187.3480  178.6030  141.0460 C   0  0  0  0  0  3  0  0  0  0  0  0
  184.2550  178.2970  139.4520 C   0  0  1  0  0  3  0  0  0  0  0  0
  185.0860  177.7990  138.2690 C   0  0  0  0  0  0  0  0  0  0  0  0
  186.1260  178.9940  140.8000 C   0  0  0  0  0  0  0  0  0  0  0  0
  187.4850  177.3800  138.8270 C   0  0  0  0  0  2  0  0  0  0  0  0
  188.2390  178.1790  139.9090 C   0  0  2  0  0  3  0  0  0  0  0  0
  186.5060  178.2550  138.0360 C   0  0  0  0  0  2  0  0  0  0  0  0
  184.5500  176.8560  137.4740 C   0  0  0  0  0  3  0  0  0  0  0  0
  184.9300  179.2760  140.3730 C   0  0  0  0  0  3  0  0  0  0  0  0
  181.3930  180.3670  137.8040 C   0  0  1  0  0  3  0  0  0  0  0  0
  182.7380  179.8310  138.2290 C   0  0  0  0  0  3  0  0  0  0  0  0
  180.6920  178.6000  141.7180 O   0  0  0  0  0  0  0  0  0  0  0  0
  180.9070  178.9760  140.5390 C   0  0  0  0  0  0  0  0  0  0  0  0
  180.3640  180.2800  140.1110 C   0  0  0  0  0  3  0  0  0  0  0  0
  181.9930  176.8810  140.2170 F   0  0  0  0  0  0  0  0  0  0  0  0
  180.6120  179.3680  136.9660 C   0  0  0  0  0  1  0  0  0  0  0  0
  180.5640  180.9160  138.9370 C   0  0  0  0  0  0  0  0  0  0  0  0
  181.6640  178.0800  139.6020 C   0  0  2  0  0  3  0  0  0  0  0  0
  182.8810  178.7740  139.0530 C   0  0  0  0  0  0  0  0  0  0  0  0
  179.8560  182.1370  138.6840 N   0  0  0  0  0  2  0  0  0  0  0  0
  180.8140  184.6000  135.9250 C   0  0  0  0  0  1  0  0  0  0  0  0
  180.1400  183.4760  136.6330 C   0  0  0  0  0  0  0  0  0  0  0  0
  179.2800  182.7780  136.0250 O   0  0  0  0  0  0  0  0  0  0  0  0
  180.4580  183.2090  137.9990 N   0  0  0  0  0  2  0  0  0  0  0  0
  185.2100  174.7940  136.2200 C   0  0  1  0  0  0  0  0  0  0  0  0
  185.4720  174.1830  134.8530 C   0  0  0  0  0  1  0  0  0  0  0  0
  186.3350  175.4750  136.7270 O   0  0  0  0  0  0  0  0  0  0  0  0
  185.2610  176.2790  136.2810 C   0  0  2  0  0  3  0  0  0  0  0  0
  183.1750  173.6860  137.2160 C   0  0  0  0  0  3  0  0  0  0  0  0
  184.4750  174.0020  137.2730 C   0  0  0  0  0  3  0  0  0  0  0  0
  182.2690  174.0770  136.0970 C   0  0  0  0  0  2  0  0  0  0  0  0
  180.9730  173.5400  136.3110 O   0  0  0  0  0  0  0  0  0  0  0  0
  180.5300  173.1830  137.5870 C   0  0  0  0  0  0  0  0  0  0  0  0
  180.4070  171.9650  137.9020 O   0  0  0  0  0  0  0  0  0  0  0  0
  180.2140  174.1860  138.5090 O   0  0  0  0  0  0  0  0  0  0  0  0
  179.1080  174.0720  139.4000 C   0  0  0  0  0  2  0  0  0  0  0  0
  179.5740  174.2730  140.8300 C   0  0  0  0  0  1  0  0  0  0  0  0
  189.3460  177.3130  140.4890 C   0  0  0  0  0  2  0  0  0  0  0  0
  190.3870  178.1420  141.0830 N   0  0  0  0  0  2  0  0  0  0  0  0
  192.1740  177.6690  142.9800 O   0  0  0  0  0  0  0  0  0  0  0  0
  190.7040  177.5220  142.6710 S   0  0  0  0  0  0  0  0  0  0  0  0
  190.3370  176.0560  142.7250 O   0  0  0  0  0  0  0  0  0  0  0  0
  189.7300  178.4160  143.8960 C   0  0  0  0  0  2  0  0  0  0  0  0
  189.7420  176.3390  145.1300 O   0  0  0  0  0  1  0  0  0  0  0  0
  188.9890  177.5060  144.9000 C   0  0  2  0  0  0  0  0  0  0  0  0
  187.6630  177.1290  144.2800 C   0  0  0  0  0  0  0  0  0  0  0  0
  187.5630  176.0090  143.4490 O   0  0  0  0  0  0  0  0  0  0  0  0
  186.6180  177.7900  144.5660 O   0  0  0  0  0  1  0  0  0  0  0  0
  188.7910  178.2550  146.2250 C   0  0  0  0  0  2  0  0  0  0  0  0
  189.0120  178.2570  148.6920 C   0  0  0  0  0  1  0  0  0  0  0  0
  189.1180  177.4040  147.4400 C   0  0  0  0  0  2  0  0  0  0  0  0
  2 19  1  6  0  0  0
  2  9  1  0  0  0  0
  3  2  1  0  0  0  0
  4  1  2  0  0  0  0
  5  6  1  0  0  0  0
  6 38  1  1  0  0  0
  6  1  1  0  0  0  0
  7  3  1  0  0  0  0
  7  5  1  0  0  0  0
  8  3  2  0  0  0  0
  9  4  2  0  0  0  0
 10 16  1  1  0  0  0
 10 11  1  0  0  0  0
 10 17  1  0  0  0  0
 11 19  2  0  0  0  0
 13 12  2  0  0  0  0
 14 13  1  0  0  0  0
 17 14  2  0  0  0  0
 18 15  1  1  0  0  0
 18 13  1  0  0  0  0
 19 18  1  0  0  0  0
 20 17  1  0  0  0  0
 21 22  1  0  0  0  0
 22 24  1  0  0  0  0
 23 22  2  0  0  0  0
 24 20  1  0  0  0  0
 25 26  1  6  0  0  0
 25 28  1  0  0  0  0
 25 27  1  0  0  0  0
 25 30  1  0  0  0  0
 28 27  1  0  0  0  0
 28  8  1  1  0  0  0
 29 30  2  0  0  0  0
 31 32  1  0  0  0  0
 31 29  1  0  0  0  0
 32 33  1  0  0  0  0
 33 34  2  0  0  0  0
 33 35  1  0  0  0  0
 35 36  1  0  0  0  0
 36 37  1  0  0  0  0
 38 39  1  0  0  0  0
 39 41  1  0  0  0  0
 41 42  2  0  0  0  0
 41 40  2  0  0  0  0
 41 43  1  0  0  0  0
 43 45  1  0  0  0  0
 45 44  1  1  0  0  0
 45 49  1  0  0  0  0
 46 48  1  0  0  0  0
 46 45  1  0  0  0  0
 47 46  2  0  0  0  0
 49 51  1  0  0  0  0
 51 50  1  0  0  0  0
M  END
>  <MODEL>
6

>  <REMARK>
 VINA RESULT:      -6.2      2.227      3.782
  Name = 
  18 active torsions:
  status: ('A' for Active; 'I' for Inactive)
    1  A    between atoms: C_3  and  C_51
    2  A    between atoms: C_8  and  C_32
    3  A    between atoms: C_10  and  C_12
    4  A    between atoms: C_11  and  O_27
    5  A    between atoms: C_12  and  N_36
    6  A    between atoms: C_13  and  C_44
    7  A    between atoms: C_13  and  C_45
    8  A    between atoms: S_16  and  C_18
    9  A    between atoms: S_16  and  N_36
   10  A    between atoms: O_17  and  C_46
   11  A    between atoms: O_17  and  C_47
   12  A    between atoms: C_18  and  C_45
   13  A    between atoms: C_21  and  C_39
   14  A    between atoms: C_24  and  C_45
   15  A    between atoms: N_25  and  N_43
   16  A    between atoms: O_27  and  C_46
   17  A    between atoms: C_29  and  C_47
   18  A    between atoms: N_43  and  C_48
                            x       y       z     vdW  Elec       q    Type
                         _______ _______ _______ _____ _____    ______ ____

>  <TORSDO>
F 18

$$$$
=
 OpenBabel10222417143D

 51 53  0  0  1  0  0  0  0  0999 V2000
  186.1130  178.6820  141.6370 C   0  0  0  0  0  3  0  0  0  0  0  0
  183.6610  178.0490  139.2310 C   0  0  1  0  0  3  0  0  0  0  0  0
  184.8500  177.8800  138.2850 C   0  0  0  0  0  0  0  0  0  0  0  0
  184.9390  178.8760  141.0980 C   0  0  0  0  0  0  0  0  0  0  0  0
  187.0620  177.8280  139.4440 C   0  0  0  0  0  2  0  0  0  0  0  0
  187.3310  178.5910  140.7570 C   0  0  2  0  0  3  0  0  0  0  0  0
  186.1520  178.6140  138.4930 C   0  0  0  0  0  2  0  0  0  0  0  0
  184.7440  176.9770  137.2940 C   0  0  0  0  0  3  0  0  0  0  0  0
  183.8580  178.9950  140.3850 C   0  0  0  0  0  3  0  0  0  0  0  0
  181.0440  179.5570  136.7690 C   0  0  1  0  0  3  0  0  0  0  0  0
  182.3120  179.2280  137.5180 C   0  0  0  0  0  3  0  0  0  0  0  0
  179.7040  178.3040  140.7150 O   0  0  0  0  0  0  0  0  0  0  0  0
  180.1230  178.5280  139.5520 C   0  0  0  0  0  0  0  0  0  0  0  0
  179.5830  179.6950  138.8280 C   0  0  0  0  0  3  0  0  0  0  0  0
  181.4010  176.5310  139.7780 F   0  0  0  0  0  0  0  0  0  0  0  0
  180.5200  178.3740  135.9710 C   0  0  0  0  0  1  0  0  0  0  0  0
  179.9660  180.1740  137.6250 C   0  0  0  0  0  0  0  0  0  0  0  0
  181.1150  177.5900  138.9290 C   0  0  2  0  0  3  0  0  0  0  0  0
  182.3640  178.3200  138.5120 C   0  0  0  0  0  0  0  0  0  0  0  0
  179.2370  181.2670  137.0530 N   0  0  0  0  0  2  0  0  0  0  0  0
  180.9550  184.5690  136.1900 C   0  0  0  0  0  1  0  0  0  0  0  0
  180.4450  183.1750  136.0620 C   0  0  0  0  0  0  0  0  0  0  0  0
  180.6550  182.5260  134.9990 O   0  0  0  0  0  0  0  0  0  0  0  0
  179.7070  182.5910  137.1360 N   0  0  0  0  0  2  0  0  0  0  0  0
  186.0540  175.2660  136.0220 C   0  0  1  0  0  0  0  0  0  0  0  0
  186.7770  174.9450  134.7240 C   0  0  0  0  0  1  0  0  0  0  0  0
  186.8690  175.9740  136.9270 O   0  0  0  0  0  0  0  0  0  0  0  0
  185.8390  176.7110  136.2970 C   0  0  2  0  0  3  0  0  0  0  0  0
  185.5390  172.9260  136.8100 C   0  0  0  0  0  3  0  0  0  0  0  0
  185.2010  174.2170  136.6910 C   0  0  0  0  0  3  0  0  0  0  0  0
  186.8120  172.3450  136.2900 C   0  0  0  0  0  2  0  0  0  0  0  0
  187.8690  172.5990  137.2020 O   0  0  0  0  0  0  0  0  0  0  0  0
  189.0690  173.1830  136.7870 C   0  0  0  0  0  0  0  0  0  0  0  0
  189.6180  172.8160  135.7090 O   0  0  0  0  0  0  0  0  0  0  0  0
  189.6620  174.1690  137.5810 O   0  0  0  0  0  0  0  0  0  0  0  0
  190.9500  174.7040  137.2860 C   0  0  0  0  0  2  0  0  0  0  0  0
  190.9070  176.2190  137.3570 C   0  0  0  0  0  1  0  0  0  0  0  0
  188.4140  177.8660  141.5420 C   0  0  0  0  0  2  0  0  0  0  0  0
  188.5180  178.4090  142.8910 N   0  0  0  0  0  2  0  0  0  0  0  0
  187.6510  175.9270  143.2140 O   0  0  0  0  0  0  0  0  0  0  0  0
  188.0440  177.1580  143.9940 S   0  0  0  0  0  0  0  0  0  0  0  0
  186.8550  177.6220  144.8060 O   0  0  0  0  0  0  0  0  0  0  0  0
  189.4010  176.7650  145.1120 C   0  0  0  0  0  2  0  0  0  0  0  0
  190.5470  178.7970  144.4830 O   0  0  0  0  0  1  0  0  0  0  0  0
  190.7440  177.4260  144.7300 C   0  0  2  0  0  0  0  0  0  0  0  0
  191.2370  176.7580  143.4670 C   0  0  0  0  0  0  0  0  0  0  0  0
  191.7230  177.5250  142.4040 O   0  0  0  0  0  0  0  0  0  0  0  0
  191.2760  175.4910  143.3930 O   0  0  0  0  0  1  0  0  0  0  0  0
  191.7480  177.2530  145.8790 C   0  0  0  0  0  2  0  0  0  0  0  0
  192.0870  175.6360  147.7240 C   0  0  0  0  0  1  0  0  0  0  0  0
  191.1230  176.6440  147.1230 C   0  0  0  0  0  2  0  0  0  0  0  0
  2 19  1  6  0  0  0
  2  9  1  0  0  0  0
  3  7  1  0  0  0  0
  3  2  1  0  0  0  0
  4  1  2  0  0  0  0
  5  6  1  0  0  0  0
  6 38  1  1  0  0  0
  6  1  1  0  0  0  0
  7  5  1  0  0  0  0
  8  3  2  0  0  0  0
  9  4  2  0  0  0  0
 10 16  1  1  0  0  0
 10 11  1  0  0  0  0
 10 17  1  0  0  0  0
 11 19  2  0  0  0  0
 13 12  2  0  0  0  0
 14 13  1  0  0  0  0
 17 14  2  0  0  0  0
 18 13  1  0  0  0  0
 18 15  1  1  0  0  0
 19 18  1  0  0  0  0
 20 24  1  0  0  0  0
 20 17  1  0  0  0  0
 22 21  1  0  0  0  0
 22 24  1  0  0  0  0
 23 22  2  0  0  0  0
 25 26  1  6  0  0  0
 25 28  1  0  0  0  0
 25 30  1  0  0  0  0
 25 27  1  0  0  0  0
 28 27  1  0  0  0  0
 28  8  1  1  0  0  0
 30 29  2  0  0  0  0
 31 29  1  0  0  0  0
 31 32  1  0  0  0  0
 33 32  1  0  0  0  0
 33 35  1  0  0  0  0
 34 33  2  0  0  0  0
 36 37  1  0  0  0  0
 36 35  1  0  0  0  0
 38 39  1  0  0  0  0
 39 41  1  0  0  0  0
 40 41  2  0  0  0  0
 41 42  2  0  0  0  0
 41 43  1  0  0  0  0
 45 44  1  6  0  0  0
 45 43  1  0  0  0  0
 45 49  1  0  0  0  0
 46 45  1  0  0  0  0
 47 46  2  0  0  0  0
 48 46  1  0  0  0  0
 49 51  1  0  0  0  0
 51 50  1  0  0  0  0
M  END
>  <MODEL>
7

>  <REMARK>
 VINA RESULT:      -6.1      1.334      2.156
  Name = 
  18 active torsions:
  status: ('A' for Active; 'I' for Inactive)
    1  A    between atoms: C_3  and  C_51
    2  A    between atoms: C_8  and  C_32
    3  A    between atoms: C_10  and  C_12
    4  A    between atoms: C_11  and  O_27
    5  A    between atoms: C_12  and  N_36
    6  A    between atoms: C_13  and  C_44
    7  A    between atoms: C_13  and  C_45
    8  A    between atoms: S_16  and  C_18
    9  A    between atoms: S_16  and  N_36
   10  A    between atoms: O_17  and  C_46
   11  A    between atoms: O_17  and  C_47
   12  A    between atoms: C_18  and  C_45
   13  A    between atoms: C_21  and  C_39
   14  A    between atoms: C_24  and  C_45
   15  A    between atoms: N_25  and  N_43
   16  A    between atoms: O_27  and  C_46
   17  A    between atoms: C_29  and  C_47
   18  A    between atoms: N_43  and  C_48
                            x       y       z     vdW  Elec       q    Type
                         _______ _______ _______ _____ _____    ______ ____

>  <TORSDO>
F 18

$$$$
=
 OpenBabel10222417143D

 51 53  0  0  1  0  0  0  0  0999 V2000
  189.6310  177.3800  142.4320 C   0  0  0  0  0  3  0  0  0  0  0  0
  189.0700  176.5390  139.0880 C   0  0  1  0  0  3  0  0  0  0  0  0
  190.5540  176.8680  138.9160 C   0  0  0  0  0  0  0  0  0  0  0  0
  188.8950  177.3400  141.3540 C   0  0  0  0  0  0  0  0  0  0  0  0
  191.7670  177.2140  141.0720 C   0  0  0  0  0  2  0  0  0  0  0  0
  191.0800  177.7770  142.3320 C   0  0  2  0  0  3  0  0  0  0  0  0
  191.2590  177.8780  139.7880 C   0  0  0  0  0  2  0  0  0  0  0  0
  191.2560  176.1580  138.0150 C   0  0  0  0  0  3  0  0  0  0  0  0
  188.3460  177.2850  140.1760 C   0  0  0  0  0  3  0  0  0  0  0  0
  186.8500  177.7830  136.1360 C   0  0  1  0  0  3  0  0  0  0  0  0
  187.6500  177.6890  137.4120 C   0  0  0  0  0  3  0  0  0  0  0  0
  186.6560  173.5830  137.2570 O   0  0  0  0  0  0  0  0  0  0  0  0
  186.8490  174.7710  136.8990 C   0  0  0  0  0  0  0  0  0  0  0  0
  185.6940  175.5530  136.4180 C   0  0  0  0  0  3  0  0  0  0  0  0
  189.1570  174.3830  137.3420 F   0  0  0  0  0  0  0  0  0  0  0  0
  187.7200  177.6420  134.8980 C   0  0  0  0  0  1  0  0  0  0  0  0
  185.6570  176.8620  136.0890 C   0  0  0  0  0  0  0  0  0  0  0  0
  188.2390  175.3380  136.9320 C   0  0  2  0  0  3  0  0  0  0  0  0
  188.3000  176.5720  137.7920 C   0  0  0  0  0  0  0  0  0  0  0  0
  184.4470  177.4030  135.5450 N   0  0  0  0  0  2  0  0  0  0  0  0
  181.5570  177.4110  138.0440 C   0  0  0  0  0  1  0  0  0  0  0  0
  182.8780  177.7090  137.4210 C   0  0  0  0  0  0  0  0  0  0  0  0
  183.6990  178.4580  138.0230 O   0  0  0  0  0  0  0  0  0  0  0  0
  183.1960  177.1600  136.1430 N   0  0  0  0  0  2  0  0  0  0  0  0
  193.2860  175.4520  136.7330 C   0  0  1  0  0  0  0  0  0  0  0  0
  194.5820  175.9040  136.0810 C   0  0  0  0  0  1  0  0  0  0  0  0
  193.4360  175.2150  138.1150 O   0  0  0  0  0  0  0  0  0  0  0  0
  192.7200  176.3790  137.7490 C   0  0  2  0  0  3  0  0  0  0  0  0
  192.8210  173.2050  135.6850 C   0  0  0  0  0  3  0  0  0  0  0  0
  192.4130  174.4280  136.0510 C   0  0  0  0  0  3  0  0  0  0  0  0
  194.2030  172.6870  135.9020 C   0  0  0  0  0  2  0  0  0  0  0  0
  194.3250  172.1670  137.2170 O   0  0  0  0  0  0  0  0  0  0  0  0
  195.5450  172.1840  137.9000 C   0  0  0  0  0  0  0  0  0  0  0  0
  195.7450  173.0200  138.8260 O   0  0  0  0  0  0  0  0  0  0  0  0
  196.5440  171.2740  137.5430 O   0  0  0  0  0  0  0  0  0  0  0  0
  197.5200  171.5750  136.5500 C   0  0  0  0  0  2  0  0  0  0  0  0
  198.7920  172.0730  137.2110 C   0  0  0  0  0  1  0  0  0  0  0  0
  191.7900  177.2460  143.5680 C   0  0  0  0  0  2  0  0  0  0  0  0
  191.2610  177.8750  144.7710 N   0  0  0  0  0  2  0  0  0  0  0  0
  192.0580  177.1290  147.1850 O   0  0  0  0  0  0  0  0  0  0  0  0
  191.2230  176.6680  146.0160 S   0  0  0  0  0  0  0  0  0  0  0  0
  191.8000  175.3740  145.4840 O   0  0  0  0  0  0  0  0  0  0  0  0
  189.5280  176.3780  146.5530 C   0  0  0  0  0  2  0  0  0  0  0  0
  189.1810  178.5890  145.6400 O   0  0  0  0  0  1  0  0  0  0  0  0
  188.6320  177.6370  146.5200 C   0  0  2  0  0  0  0  0  0  0  0  0
  188.6010  178.2100  147.9180 C   0  0  0  0  0  0  0  0  0  0  0  0
  187.3940  178.6310  148.4840 O   0  0  0  0  0  0  0  0  0  0  0  0
  189.6630  178.2460  148.6130 O   0  0  0  0  0  1  0  0  0  0  0  0
  187.2240  177.2540  146.0430 C   0  0  0  0  0  2  0  0  0  0  0  0
  185.7070  178.2520  144.3590 C   0  0  0  0  0  1  0  0  0  0  0  0
  187.0140  177.5040  144.5600 C   0  0  0  0  0  2  0  0  0  0  0  0
  2 19  1  6  0  0  0
  2  9  1  0  0  0  0
  3  2  1  0  0  0  0
  3  7  1  0  0  0  0
  4  1  2  0  0  0  0
  5  6  1  0  0  0  0
  6  1  1  0  0  0  0
  6 38  1  1  0  0  0
  7  5  1  0  0  0  0
  8  3  2  0  0  0  0
  9  4  2  0  0  0  0
 10 16  1  6  0  0  0
 10 11  1  0  0  0  0
 11 19  2  0  0  0  0
 13 18  1  0  0  0  0
 13 12  2  0  0  0  0
 14 13  1  0  0  0  0
 17 10  1  0  0  0  0
 17 14  2  0  0  0  0
 18 15  1  1  0  0  0
 18 19  1  0  0  0  0
 20 17  1  0  0  0  0
 20 24  1  0  0  0  0
 22 23  2  0  0  0  0
 22 21  1  0  0  0  0
 24 22  1  0  0  0  0
 25 26  1  6  0  0  0
 25 28  1  0  0  0  0
 25 27  1  0  0  0  0
 28  8  1  1  0  0  0
 28 27  1  0  0  0  0
 29 31  1  0  0  0  0
 29 30  2  0  0  0  0
 30 25  1  0  0  0  0
 31 32  1  0  0  0  0
 32 33  1  0  0  0  0
 33 34  2  0  0  0  0
 35 33  1  0  0  0  0
 36 37  1  0  0  0  0
 36 35  1  0  0  0  0
 38 39  1  0  0  0  0
 39 41  1  0  0  0  0
 41 43  1  0  0  0  0
 41 40  2  0  0  0  0
 42 41  2  0  0  0  0
 45 44  1  6  0  0  0
 45 43  1  0  0  0  0
 45 46  1  0  0  0  0
 46 47  2  0  0  0  0
 46 48  1  0  0  0  0
 49 45  1  0  0  0  0
 50 51  1  0  0  0  0
 51 49  1  0  0  0  0
M  END
>  <MODEL>
8

>  <REMARK>
 VINA RESULT:      -5.8      3.324      5.814
  Name = 
  18 active torsions:
  status: ('A' for Active; 'I' for Inactive)
    1  A    between atoms: C_3  and  C_51
    2  A    between atoms: C_8  and  C_32
    3  A    between atoms: C_10  and  C_12
    4  A    between atoms: C_11  and  O_27
    5  A    between atoms: C_12  and  N_36
    6  A    between atoms: C_13  and  C_44
    7  A    between atoms: C_13  and  C_45
    8  A    between atoms: S_16  and  C_18
    9  A    between atoms: S_16  and  N_36
   10  A    between atoms: O_17  and  C_46
   11  A    between atoms: O_17  and  C_47
   12  A    between atoms: C_18  and  C_45
   13  A    between atoms: C_21  and  C_39
   14  A    between atoms: C_24  and  C_45
   15  A    between atoms: N_25  and  N_43
   16  A    between atoms: O_27  and  C_46
   17  A    between atoms: C_29  and  C_47
   18  A    between atoms: N_43  and  C_48
                            x       y       z     vdW  Elec       q    Type
                         _______ _______ _______ _____ _____    ______ ____

>  <TORSDO>
F 18

$$$$
=
 OpenBabel10222417143D

 51 53  0  0  1  0  0  0  0  0999 V2000
  191.9110  177.5530  140.4110 C   0  0  0  0  0  3  0  0  0  0  0  0
  193.1240  176.1820  137.4360 C   0  0  1  0  0  3  0  0  0  0  0  0
  191.7250  175.5740  137.3250 C   0  0  0  0  0  0  0  0  0  0  0  0
  192.8540  177.0290  139.6760 C   0  0  0  0  0  0  0  0  0  0  0  0
  190.1030  176.4640  139.0030 C   0  0  0  0  0  2  0  0  0  0  0  0
  190.5340  176.9450  140.4040 C   0  0  2  0  0  3  0  0  0  0  0  0
  190.8970  175.2370  138.5410 C   0  0  0  0  0  2  0  0  0  0  0  0
  191.1980  175.4280  136.0970 C   0  0  0  0  0  3  0  0  0  0  0  0
  193.6360  176.4220  138.8310 C   0  0  0  0  0  3  0  0  0  0  0  0
  195.7010  173.5360  136.1930 C   0  0  1  0  0  3  0  0  0  0  0  0
  194.6630  174.2900  136.9860 C   0  0  0  0  0  3  0  0  0  0  0  0
  196.3700  177.7180  135.1940 O   0  0  0  0  0  0  0  0  0  0  0  0
  196.0580  176.5200  135.4040 C   0  0  0  0  0  0  0  0  0  0  0  0
  197.1370  175.5580  135.7000 C   0  0  0  0  0  3  0  0  0  0  0  0
  193.8140  177.1680  134.9350 F   0  0  0  0  0  0  0  0  0  0  0  0
  195.1730  173.0680  134.8470 C   0  0  0  0  0  1  0  0  0  0  0  0
  197.0170  174.2610  136.0560 C   0  0  0  0  0  0  0  0  0  0  0  0
  194.6190  176.1010  135.3050 C   0  0  2  0  0  3  0  0  0  0  0  0
  194.1490  175.4710  136.5890 C   0  0  0  0  0  0  0  0  0  0  0  0
  198.2050  173.4720  136.2010 N   0  0  0  0  0  2  0  0  0  0  0  0
  198.2670  169.9100  137.5810 C   0  0  0  0  0  1  0  0  0  0  0  0
  198.2340  171.0410  136.6120 C   0  0  0  0  0  0  0  0  0  0  0  0
  198.1970  170.8020  135.3720 O   0  0  0  0  0  0  0  0  0  0  0  0
  198.2620  172.3840  137.0930 N   0  0  0  0  0  2  0  0  0  0  0  0
  188.7750  175.8750  135.6590 C   0  0  1  0  0  0  0  0  0  0  0  0
  187.5160  175.4000  134.9530 C   0  0  0  0  0  1  0  0  0  0  0  0
  188.9680  175.2310  136.8980 O   0  0  0  0  0  0  0  0  0  0  0  0
  189.8330  174.8470  135.8480 C   0  0  2  0  0  3  0  0  0  0  0  0
  188.5730  178.2240  136.5560 C   0  0  0  0  0  3  0  0  0  0  0  0
  189.1110  177.3450  135.6990 C   0  0  0  0  0  3  0  0  0  0  0  0
  187.5610  177.8670  137.5920 C   0  0  0  0  0  2  0  0  0  0  0  0
  186.5380  178.8500  137.6290 O   0  0  0  0  0  0  0  0  0  0  0  0
  185.2550  178.5540  138.1000 C   0  0  0  0  0  0  0  0  0  0  0  0
  184.5520  177.6760  137.5250 O   0  0  0  0  0  0  0  0  0  0  0  0
  184.7550  179.2460  139.2070 O   0  0  0  0  0  0  0  0  0  0  0  0
  185.2260  178.9980  140.5290 C   0  0  0  0  0  2  0  0  0  0  0  0
  184.1470  178.3010  141.3380 C   0  0  0  0  0  1  0  0  0  0  0  0
  189.5580  178.0050  140.8900 C   0  0  0  0  0  2  0  0  0  0  0  0
  188.3380  177.3860  141.3900 N   0  0  0  0  0  2  0  0  0  0  0  0
  189.5720  178.2660  143.5630 O   0  0  0  0  0  0  0  0  0  0  0  0
  188.4240  177.3910  143.1230 S   0  0  0  0  0  0  0  0  0  0  0  0
  188.6630  175.9830  143.6210 O   0  0  0  0  0  0  0  0  0  0  0  0
  186.8830  178.0080  143.8220 C   0  0  0  0  0  2  0  0  0  0  0  0
  186.5200  176.4510  145.6340 O   0  0  0  0  0  1  0  0  0  0  0  0
  186.7580  177.8090  145.3490 C   0  0  2  0  0  0  0  0  0  0  0  0
  185.5820  178.6310  145.8210 C   0  0  0  0  0  0  0  0  0  0  0  0
  185.6660  179.3750  147.0010 O   0  0  0  0  0  1  0  0  0  0  0  0
  184.5330  178.7040  145.1100 O   0  0  0  0  0  0  0  0  0  0  0  0
  188.0590  178.2530  146.0340 C   0  0  0  0  0  2  0  0  0  0  0  0
  188.4110  177.8200  148.4470 C   0  0  0  0  0  1  0  0  0  0  0  0
  188.5670  177.2450  147.0500 C   0  0  0  0  0  2  0  0  0  0  0  0
  2 19  1  1  0  0  0
  2  9  1  0  0  0  0
  3  2  1  0  0  0  0
  3  7  1  0  0  0  0
  4  1  2  0  0  0  0
  5  6  1  0  0  0  0
  6  1  1  0  0  0  0
  6 38  1  6  0  0  0
  7  5  1  0  0  0  0
  8  3  2  0  0  0  0
  9  4  2  0  0  0  0
 10 16  1  6  0  0  0
 10 11  1  0  0  0  0
 12 13  2  0  0  0  0
 13 14  1  0  0  0  0
 14 17  2  0  0  0  0
 17 10  1  0  0  0  0
 17 20  1  0  0  0  0
 18 15  1  1  0  0  0
 18 13  1  0  0  0  0
 18 19  1  0  0  0  0
 19 11  2  0  0  0  0
 20 24  1  0  0  0  0
 22 24  1  0  0  0  0
 22 21  1  0  0  0  0
 23 22  2  0  0  0  0
 25 26  1  6  0  0  0
 25 30  1  0  0  0  0
 25 28  1  0  0  0  0
 25 27  1  0  0  0  0
 28  8  1  1  0  0  0
 28 27  1  0  0  0  0
 29 31  1  0  0  0  0
 30 29  2  0  0  0  0
 31 32  1  0  0  0  0
 32 33  1  0  0  0  0
 33 35  1  0  0  0  0
 34 33  2  0  0  0  0
 35 36  1  0  0  0  0
 36 37  1  0  0  0  0
 38 39  1  0  0  0  0
 39 41  1  0  0  0  0
 41 40  2  0  0  0  0
 41 42  2  0  0  0  0
 41 43  1  0  0  0  0
 43 45  1  0  0  0  0
 45 44  1  1  0  0  0
 45 46  1  0  0  0  0
 45 49  1  0  0  0  0
 46 47  1  0  0  0  0
 48 46  2  0  0  0  0
 49 51  1  0  0  0  0
 51 50  1  0  0  0  0
M  END
>  <MODEL>
9

>  <REMARK>
 VINA RESULT:      -5.8      4.544     10.531
  Name = 
  18 active torsions:
  status: ('A' for Active; 'I' for Inactive)
    1  A    between atoms: C_3  and  C_51
    2  A    between atoms: C_8  and  C_32
    3  A    between atoms: C_10  and  C_12
    4  A    between atoms: C_11  and  O_27
    5  A    between atoms: C_12  and  N_36
    6  A    between atoms: C_13  and  C_44
    7  A    between atoms: C_13  and  C_45
    8  A    between atoms: S_16  and  C_18
    9  A    between atoms: S_16  and  N_36
   10  A    between atoms: O_17  and  C_46
   11  A    between atoms: O_17  and  C_47
   12  A    between atoms: C_18  and  C_45
   13  A    between atoms: C_21  and  C_39
   14  A    between atoms: C_24  and  C_45
   15  A    between atoms: N_25  and  N_43
   16  A    between atoms: O_27  and  C_46
   17  A    between atoms: C_29  and  C_47
   18  A    between atoms: N_43  and  C_48
                            x       y       z     vdW  Elec       q    Type
                         _______ _______ _______ _____ _____    ______ ____

>  <TORSDO>
F 18

$$$$
