=
 OpenBabel10222421083D

 29 30  0  0  1  0  0  0  0  0999 V2000
  188.0960  178.1020  142.0510 C   0  0  0  0  0  0  0  0  0  0  0  0
  189.9720  175.9550  142.5850 C   0  0  0  0  0  2  0  0  0  0  0  0
  187.3190  178.0930  144.4610 C   0  0  2  0  0  3  0  0  0  0  0  0
  187.2280  178.9730  141.7690 O   0  0  0  0  0  0  0  0  0  0  0  0
  189.3950  177.5190  145.9740 C   0  0  1  0  0  3  0  0  0  0  0  0
  189.3800  176.7850  143.6810 C   0  0  0  0  0  0  0  0  0  0  0  0
  189.0120  177.6190  140.9970 C   0  0  0  0  0  0  0  0  0  0  0  0
  188.2280  177.6100  143.4000 N   0  0  0  0  0  0  0  0  0  0  0  0
  189.8970  176.7220  144.8680 N   0  0  0  0  0  0  0  0  0  0  0  0
  189.9000  176.6560  141.2590 C   0  0  0  0  0  3  0  0  0  0  0  0
  187.6050  177.2910  146.0840 S   0  0  0  0  0  0  0  0  0  0  0  0
  190.0430  177.0740  147.2760 C   0  0  0  0  0  2  0  0  0  0  0  0
  191.5520  176.9500  147.1250 C   0  0  0  0  0  2  0  0  0  0  0  0
  192.0270  175.5470  147.4660 C   0  0  0  0  0  3  0  0  0  0  0  0
  193.0800  175.6100  148.3600 F   0  0  0  0  0  0  0  0  0  0  0  0
  192.4440  174.9130  146.3120 F   0  0  0  0  0  0  0  0  0  0  0  0
  188.9790  178.2130  139.6300 C   0  0  0  0  0  2  0  0  0  0  0  0
  188.8460  176.8920  138.3820 S   0  0  0  0  0  0  0  0  0  0  0  0
  187.1680  177.3410  137.8020 C   0  0  1  0  0  3  0  0  0  0  0  0
  185.7630  178.7860  138.8270 O   0  0  0  0  0  1  0  0  0  0  0  0
  186.8680  178.7470  138.0480 N   0  0  0  0  0  2  0  0  0  0  0  0
  186.9400  176.9510  136.3400 C   0  0  1  0  0  3  0  0  0  0  0  0
  185.4720  176.6440  136.1070 C   0  0  0  0  0  1  0  0  0  0  0  0
  187.3730  178.0040  135.4330 N   0  0  0  0  0  2  0  0  0  0  0  0
  188.4340  177.4500  134.6110 C   0  0  0  0  0  1  0  0  0  0  0  0
  185.8630  177.8600  144.0660 C   0  0  0  0  0  2  0  0  0  0  0  0
  184.9170  178.6460  144.9620 C   0  0  0  0  0  2  0  0  0  0  0  0
  183.8310  178.7040  142.7390 C   0  0  0  0  0  1  0  0  0  0  0  0
  183.6380  178.9770  144.2160 C   0  0  0  0  0  2  0  0  0  0  0  0
  1  8  1  0  0  0  0
  2  6  1  0  0  0  0
  3 26  1  6  0  0  0
  3 11  1  0  0  0  0
  4  1  2  0  0  0  0
  5 11  1  0  0  0  0
  5 12  1  1  0  0  0
  6  9  2  0  0  0  0
  7 10  2  0  0  0  0
  7  1  1  0  0  0  0
  8  6  1  0  0  0  0
  8  3  1  0  0  0  0
  9  5  1  0  0  0  0
 10  2  1  0  0  0  0
 13 12  1  0  0  0  0
 13 14  1  0  0  0  0
 14 15  1  0  0  0  0
 16 14  1  0  0  0  0
 17  7  1  0  0  0  0
 18 17  1  0  0  0  0
 19 21  1  6  0  0  0
 19 18  1  0  0  0  0
 21 20  1  0  0  0  0
 22 23  1  1  0  0  0
 22 19  1  0  0  0  0
 24 22  1  0  0  0  0
 25 24  1  0  0  0  0
 26 27  1  0  0  0  0
 28 29  1  0  0  0  0
 29 27  1  0  0  0  0
M  END
>  <MODEL>
1

>  <REMARK>
 VINA RESULT:      -7.1      0.000      0.000
  Name = 
  12 active torsions:
  status: ('A' for Active; 'I' for Inactive)
    1  A    between atoms: C_4  and  C_13
    2  A    between atoms: C_5  and  C_24
    3  A    between atoms: N_7  and  C_21
    4  A    between atoms: C_8  and  C_11
    5  A    between atoms: C_11  and  C_13
    6  A    between atoms: C_14  and  C_21
    7  A    between atoms: C_14  and  S_26
    8  A    between atoms: C_14  and  N_29
    9  A    between atoms: C_15  and  C_19
   10  A    between atoms: C_16  and  C_25
   11  A    between atoms: C_19  and  S_26
   12  A    between atoms: C_24  and  C_25
                            x       y       z     vdW  Elec       q    Type
                         _______ _______ _______ _____ _____    ______ ____

>  <TORSDO>
F 12

$$$$
=
 OpenBabel10222421083D

 29 30  0  0  1  0  0  0  0  0999 V2000
  188.1840  178.2560  141.2690 C   0  0  0  0  0  0  0  0  0  0  0  0
  190.0880  176.1900  141.9950 C   0  0  0  0  0  2  0  0  0  0  0  0
  187.1670  178.2060  143.5870 C   0  0  2  0  0  3  0  0  0  0  0  0
  187.3130  179.0900  140.8990 O   0  0  0  0  0  0  0  0  0  0  0  0
  189.1000  177.7160  145.3060 C   0  0  1  0  0  3  0  0  0  0  0  0
  189.3510  176.9910  143.0230 C   0  0  0  0  0  0  0  0  0  0  0  0
  189.2240  177.8170  140.3150 C   0  0  0  0  0  0  0  0  0  0  0  0
  188.1990  177.7660  142.6260 N   0  0  0  0  0  0  0  0  0  0  0  0
  189.7470  176.9450  144.2570 N   0  0  0  0  0  0  0  0  0  0  0  0
  190.1210  176.8930  140.6670 C   0  0  0  0  0  3  0  0  0  0  0  0
  187.3200  177.4110  145.2320 S   0  0  0  0  0  0  0  0  0  0  0  0
  189.6300  177.2950  146.6670 C   0  0  0  0  0  2  0  0  0  0  0  0
  188.4930  176.9670  147.6240 C   0  0  0  0  0  2  0  0  0  0  0  0
  188.3870  178.0040  148.7310 C   0  0  0  0  0  3  0  0  0  0  0  0
  187.4800  178.9850  148.3730 F   0  0  0  0  0  0  0  0  0  0  0  0
  189.6260  178.5790  148.9380 F   0  0  0  0  0  0  0  0  0  0  0  0
  189.3040  178.4140  138.9520 C   0  0  0  0  0  2  0  0  0  0  0  0
  189.2160  177.1000  137.6920 S   0  0  0  0  0  0  0  0  0  0  0  0
  187.4450  177.3400  137.2860 C   0  0  1  0  0  3  0  0  0  0  0  0
  185.8640  178.7290  138.1120 O   0  0  0  0  0  1  0  0  0  0  0  0
  187.0390  178.7320  137.4400 N   0  0  0  0  0  2  0  0  0  0  0  0
  187.0920  176.7870  135.9040 C   0  0  1  0  0  3  0  0  0  0  0  0
  188.1010  175.7300  135.4950 C   0  0  0  0  0  1  0  0  0  0  0  0
  185.7500  176.2210  135.8830 N   0  0  0  0  0  2  0  0  0  0  0  0
  185.6990  175.2070  136.9210 C   0  0  0  0  0  1  0  0  0  0  0  0
  185.7700  177.9110  143.0460 C   0  0  0  0  0  2  0  0  0  0  0  0
  184.8000  179.0310  143.3890 C   0  0  0  0  0  2  0  0  0  0  0  0
  182.4100  178.8560  144.0070 C   0  0  0  0  0  1  0  0  0  0  0  0
  183.4100  178.6980  142.8800 C   0  0  0  0  0  2  0  0  0  0  0  0
  1  8  1  0  0  0  0
  2  6  1  0  0  0  0
  3 26  1  6  0  0  0
  3 11  1  0  0  0  0
  4  1  2  0  0  0  0
  5 12  1  1  0  0  0
  6  9  2  0  0  0  0
  7 10  2  0  0  0  0
  7  1  1  0  0  0  0
  8  6  1  0  0  0  0
  8  3  1  0  0  0  0
  9  5  1  0  0  0  0
 10  2  1  0  0  0  0
 11  5  1  0  0  0  0
 12 13  1  0  0  0  0
 13 14  1  0  0  0  0
 14 16  1  0  0  0  0
 15 14  1  0  0  0  0
 17  7  1  0  0  0  0
 18 17  1  0  0  0  0
 19 21  1  6  0  0  0
 19 18  1  0  0  0  0
 21 20  1  0  0  0  0
 22 23  1  1  0  0  0
 22 19  1  0  0  0  0
 24 22  1  0  0  0  0
 24 25  1  0  0  0  0
 26 27  1  0  0  0  0
 29 27  1  0  0  0  0
 29 28  1  0  0  0  0
M  END
>  <MODEL>
2

>  <REMARK>
 VINA RESULT:      -7.0      1.844      2.295
  Name = 
  12 active torsions:
  status: ('A' for Active; 'I' for Inactive)
    1  A    between atoms: C_4  and  C_13
    2  A    between atoms: C_5  and  C_24
    3  A    between atoms: N_7  and  C_21
    4  A    between atoms: C_8  and  C_11
    5  A    between atoms: C_11  and  C_13
    6  A    between atoms: C_14  and  C_21
    7  A    between atoms: C_14  and  S_26
    8  A    between atoms: C_14  and  N_29
    9  A    between atoms: C_15  and  C_19
   10  A    between atoms: C_16  and  C_25
   11  A    between atoms: C_19  and  S_26
   12  A    between atoms: C_24  and  C_25
                            x       y       z     vdW  Elec       q    Type
                         _______ _______ _______ _____ _____    ______ ____

>  <TORSDO>
F 12

$$$$
=
 OpenBabel10222421083D

 29 30  0  0  1  0  0  0  0  0999 V2000
  186.6560  178.6150  142.0050 C   0  0  0  0  0  0  0  0  0  0  0  0
  188.2200  176.5440  143.3030 C   0  0  0  0  0  2  0  0  0  0  0  0
  185.2210  178.8990  144.0710 C   0  0  2  0  0  3  0  0  0  0  0  0
  185.9390  179.4470  141.3850 O   0  0  0  0  0  0  0  0  0  0  0  0
  186.7530  178.5080  146.1760 C   0  0  1  0  0  3  0  0  0  0  0  0
  187.3700  177.5030  144.0770 C   0  0  0  0  0  0  0  0  0  0  0  0
  187.8180  178.0060  141.3240 C   0  0  0  0  0  0  0  0  0  0  0  0
  186.3770  178.2890  143.3820 N   0  0  0  0  0  0  0  0  0  0  0  0
  187.5210  177.5820  145.3620 N   0  0  0  0  0  0  0  0  0  0  0  0
  188.5570  177.0800  141.9410 C   0  0  0  0  0  3  0  0  0  0  0  0
  185.0000  178.2990  145.7890 S   0  0  0  0  0  0  0  0  0  0  0  0
  186.9830  178.2230  147.6510 C   0  0  0  0  0  2  0  0  0  0  0  0
  188.0160  177.1220  147.8450 C   0  0  0  0  0  2  0  0  0  0  0  0
  189.3810  177.6990  148.1830 C   0  0  0  0  0  3  0  0  0  0  0  0
  189.2610  179.0400  148.5020 F   0  0  0  0  0  0  0  0  0  0  0  0
  190.2180  177.5630  147.0930 F   0  0  0  0  0  0  0  0  0  0  0  0
  188.1990  178.4290  139.9470 C   0  0  0  0  0  2  0  0  0  0  0  0
  189.8030  177.6950  139.4920 S   0  0  0  0  0  0  0  0  0  0  0  0
  189.1570  176.6340  138.1460 C   0  0  1  0  0  3  0  0  0  0  0  0
  187.2550  176.5670  136.9240 O   0  0  0  0  0  1  0  0  0  0  0  0
  188.2910  177.3790  137.2390 N   0  0  0  0  0  2  0  0  0  0  0  0
  190.2750  175.9020  137.4020 C   0  0  1  0  0  3  0  0  0  0  0  0
  191.6260  176.4310  137.8460 C   0  0  0  0  0  1  0  0  0  0  0  0
  190.2120  174.4650  137.6240 N   0  0  0  0  0  2  0  0  0  0  0  0
  191.4020  173.8880  137.0250 C   0  0  0  0  0  1  0  0  0  0  0  0
  183.9310  178.6230  143.3020 C   0  0  0  0  0  2  0  0  0  0  0  0
  182.7100  178.8190  144.1870 C   0  0  0  0  0  2  0  0  0  0  0  0
  180.2710  178.4440  144.0090 C   0  0  0  0  0  1  0  0  0  0  0  0
  181.4780  179.0640  143.3370 C   0  0  0  0  0  2  0  0  0  0  0  0
  1  8  1  0  0  0  0
  2  6  1  0  0  0  0
  3 26  1  6  0  0  0
  3 11  1  0  0  0  0
  4  1  2  0  0  0  0
  5 12  1  1  0  0  0
  6  9  2  0  0  0  0
  7 10  2  0  0  0  0
  7  1  1  0  0  0  0
  8  3  1  0  0  0  0
  8  6  1  0  0  0  0
  9  5  1  0  0  0  0
 10  2  1  0  0  0  0
 11  5  1  0  0  0  0
 12 13  1  0  0  0  0
 13 14  1  0  0  0  0
 14 15  1  0  0  0  0
 16 14  1  0  0  0  0
 17  7  1  0  0  0  0
 18 17  1  0  0  0  0
 19 21  1  6  0  0  0
 19 18  1  0  0  0  0
 20 21  1  0  0  0  0
 22 24  1  0  0  0  0
 22 23  1  1  0  0  0
 22 19  1  0  0  0  0
 25 24  1  0  0  0  0
 26 27  1  0  0  0  0
 29 28  1  0  0  0  0
 29 27  1  0  0  0  0
M  END
>  <MODEL>
3

>  <REMARK>
 VINA RESULT:      -6.8      2.644      3.132
  Name = 
  12 active torsions:
  status: ('A' for Active; 'I' for Inactive)
    1  A    between atoms: C_4  and  C_13
    2  A    between atoms: C_5  and  C_24
    3  A    between atoms: N_7  and  C_21
    4  A    between atoms: C_8  and  C_11
    5  A    between atoms: C_11  and  C_13
    6  A    between atoms: C_14  and  C_21
    7  A    between atoms: C_14  and  S_26
    8  A    between atoms: C_14  and  N_29
    9  A    between atoms: C_15  and  C_19
   10  A    between atoms: C_16  and  C_25
   11  A    between atoms: C_19  and  S_26
   12  A    between atoms: C_24  and  C_25
                            x       y       z     vdW  Elec       q    Type
                         _______ _______ _______ _____ _____    ______ ____

>  <TORSDO>
F 12

$$$$
=
 OpenBabel10222421083D

 29 30  0  0  1  0  0  0  0  0999 V2000
  189.0210  176.9600  142.6730 C   0  0  0  0  0  0  0  0  0  0  0  0
  187.3310  178.9040  141.3360 C   0  0  0  0  0  2  0  0  0  0  0  0
  187.8530  177.3850  144.8790 C   0  0  2  0  0  3  0  0  0  0  0  0
  189.8270  176.1770  143.2440 O   0  0  0  0  0  0  0  0  0  0  0  0
  185.3200  177.8860  144.3670 C   0  0  1  0  0  3  0  0  0  0  0  0
  186.9650  178.3070  142.6590 C   0  0  0  0  0  0  0  0  0  0  0  0
  189.1280  177.1800  141.2150 C   0  0  0  0  0  0  0  0  0  0  0  0
  187.9710  177.6050  143.4230 N   0  0  0  0  0  0  0  0  0  0  0  0
  185.7570  178.4600  143.1060 N   0  0  0  0  0  0  0  0  0  0  0  0
  188.3220  178.0480  140.5990 C   0  0  0  0  0  3  0  0  0  0  0  0
  186.5010  178.3510  145.6530 S   0  0  0  0  0  0  0  0  0  0  0  0
  183.9410  178.4130  144.7310 C   0  0  0  0  0  2  0  0  0  0  0  0
  183.4610  179.4440  143.7200 C   0  0  0  0  0  2  0  0  0  0  0  0
  182.0370  179.1550  143.2720 C   0  0  0  0  0  3  0  0  0  0  0  0
  181.3780  178.4190  144.2400 F   0  0  0  0  0  0  0  0  0  0  0  0
  182.0650  178.4380  142.0920 F   0  0  0  0  0  0  0  0  0  0  0  0
  190.1210  176.4200  140.4030 C   0  0  0  0  0  2  0  0  0  0  0  0
  191.6710  177.3680  140.2710 S   0  0  0  0  0  0  0  0  0  0  0  0
  192.0910  176.8170  138.5750 C   0  0  1  0  0  3  0  0  0  0  0  0
  194.1090  176.7890  139.5960 O   0  0  0  0  0  1  0  0  0  0  0  0
  193.4720  176.3570  138.4830 N   0  0  0  0  0  2  0  0  0  0  0  0
  191.1020  175.7770  138.0460 C   0  0  1  0  0  3  0  0  0  0  0  0
  190.4700  176.2720  136.7580 C   0  0  0  0  0  1  0  0  0  0  0  0
  191.7480  174.4930  137.8160 N   0  0  0  0  0  2  0  0  0  0  0  0
  190.9220  173.7630  136.8710 C   0  0  0  0  0  1  0  0  0  0  0  0
  189.1590  177.7470  145.5830 C   0  0  0  0  0  2  0  0  0  0  0  0
  189.2960  177.0060  146.9040 C   0  0  0  0  0  2  0  0  0  0  0  0
  188.1590  177.8940  148.9140 C   0  0  0  0  0  1  0  0  0  0  0  0
  189.4000  177.9920  148.0520 C   0  0  0  0  0  2  0  0  0  0  0  0
  1  4  2  0  0  0  0
  1  8  1  0  0  0  0
  2  6  1  0  0  0  0
  3 26  1  1  0  0  0
  3 11  1  0  0  0  0
  5 12  1  1  0  0  0
  5 11  1  0  0  0  0
  6  9  2  0  0  0  0
  6  8  1  0  0  0  0
  7  1  1  0  0  0  0
  8  3  1  0  0  0  0
  9  5  1  0  0  0  0
 10  7  2  0  0  0  0
 10  2  1  0  0  0  0
 13 12  1  0  0  0  0
 14 13  1  0  0  0  0
 14 15  1  0  0  0  0
 16 14  1  0  0  0  0
 17  7  1  0  0  0  0
 18 17  1  0  0  0  0
 19 21  1  1  0  0  0
 19 18  1  0  0  0  0
 21 20  1  0  0  0  0
 22 23  1  6  0  0  0
 22 19  1  0  0  0  0
 24 22  1  0  0  0  0
 25 24  1  0  0  0  0
 26 27  1  0  0  0  0
 27 29  1  0  0  0  0
 29 28  1  0  0  0  0
M  END
>  <MODEL>
4

>  <REMARK>
 VINA RESULT:      -6.7      4.316      6.091
  Name = 
  12 active torsions:
  status: ('A' for Active; 'I' for Inactive)
    1  A    between atoms: C_4  and  C_13
    2  A    between atoms: C_5  and  C_24
    3  A    between atoms: N_7  and  C_21
    4  A    between atoms: C_8  and  C_11
    5  A    between atoms: C_11  and  C_13
    6  A    between atoms: C_14  and  C_21
    7  A    between atoms: C_14  and  S_26
    8  A    between atoms: C_14  and  N_29
    9  A    between atoms: C_15  and  C_19
   10  A    between atoms: C_16  and  C_25
   11  A    between atoms: C_19  and  S_26
   12  A    between atoms: C_24  and  C_25
                            x       y       z     vdW  Elec       q    Type
                         _______ _______ _______ _____ _____    ______ ____

>  <TORSDO>
F 12

$$$$
=
 OpenBabel10222421083D

 29 30  0  0  1  0  0  0  0  0999 V2000
  189.6560  176.6380  142.0470 C   0  0  0  0  0  0  0  0  0  0  0  0
  187.9910  178.8520  141.1840 C   0  0  0  0  0  2  0  0  0  0  0  0
  188.7770  176.8320  144.4130 C   0  0  2  0  0  3  0  0  0  0  0  0
  190.4550  175.7330  142.4120 O   0  0  0  0  0  0  0  0  0  0  0  0
  186.2520  177.5620  144.2780 C   0  0  1  0  0  3  0  0  0  0  0  0
  187.7260  178.1040  142.4530 C   0  0  0  0  0  0  0  0  0  0  0  0
  189.6190  177.0480  140.6270 C   0  0  0  0  0  0  0  0  0  0  0  0
  188.7500  177.2410  142.9940 N   0  0  0  0  0  0  0  0  0  0  0  0
  186.5920  178.2730  143.0580 N   0  0  0  0  0  0  0  0  0  0  0  0
  188.8220  178.0430  140.2290 C   0  0  0  0  0  3  0  0  0  0  0  0
  187.6010  177.7690  145.4620 S   0  0  0  0  0  0  0  0  0  0  0  0
  184.9690  178.1220  144.8700 C   0  0  0  0  0  2  0  0  0  0  0  0
  184.4980  179.3490  144.1030 C   0  0  0  0  0  2  0  0  0  0  0  0
  183.1150  179.1330  143.5110 C   0  0  0  0  0  3  0  0  0  0  0  0
  182.2970  178.5130  144.4390 F   0  0  0  0  0  0  0  0  0  0  0  0
  183.2170  178.3370  142.3870 F   0  0  0  0  0  0  0  0  0  0  0  0
  190.4510  176.3430  139.6110 C   0  0  0  0  0  2  0  0  0  0  0  0
  190.0800  176.9870  137.9480 S   0  0  0  0  0  0  0  0  0  0  0  0
  190.2990  175.3950  137.0700 C   0  0  1  0  0  3  0  0  0  0  0  0
  192.2660  174.3210  137.3720 O   0  0  0  0  0  1  0  0  0  0  0  0
  191.0180  174.4220  137.8840 N   0  0  0  0  0  2  0  0  0  0  0  0
  188.9740  174.8390  136.5450 C   0  0  1  0  0  3  0  0  0  0  0  0
  188.9000  173.3450  136.8030 C   0  0  0  0  0  1  0  0  0  0  0  0
  187.8350  175.5020  137.1630 N   0  0  0  0  0  2  0  0  0  0  0  0
  186.7160  174.5800  137.0950 C   0  0  0  0  0  1  0  0  0  0  0  0
  190.1780  177.0090  144.9960 C   0  0  0  0  0  2  0  0  0  0  0  0
  190.1180  177.5230  146.4260 C   0  0  0  0  0  2  0  0  0  0  0  0
  192.0160  175.9380  146.5290 C   0  0  0  0  0  1  0  0  0  0  0  0
  190.9440  176.6370  147.3390 C   0  0  0  0  0  2  0  0  0  0  0  0
  1  4  2  0  0  0  0
  1  8  1  0  0  0  0
  2  6  1  0  0  0  0
  3 26  1  1  0  0  0
  3 11  1  0  0  0  0
  5 12  1  1  0  0  0
  5 11  1  0  0  0  0
  6  8  1  0  0  0  0
  6  9  2  0  0  0  0
  7  1  1  0  0  0  0
  8  3  1  0  0  0  0
  9  5  1  0  0  0  0
 10  7  2  0  0  0  0
 10  2  1  0  0  0  0
 13 12  1  0  0  0  0
 14 13  1  0  0  0  0
 14 15  1  0  0  0  0
 16 14  1  0  0  0  0
 17  7  1  0  0  0  0
 18 17  1  0  0  0  0
 19 21  1  1  0  0  0
 19 18  1  0  0  0  0
 20 21  1  0  0  0  0
 22 23  1  1  0  0  0
 22 19  1  0  0  0  0
 22 24  1  0  0  0  0
 25 24  1  0  0  0  0
 26 27  1  0  0  0  0
 27 29  1  0  0  0  0
 28 29  1  0  0  0  0
M  END
>  <MODEL>
5

>  <REMARK>
 VINA RESULT:      -6.7      3.826      5.668
  Name = 
  12 active torsions:
  status: ('A' for Active; 'I' for Inactive)
    1  A    between atoms: C_4  and  C_13
    2  A    between atoms: C_5  and  C_24
    3  A    between atoms: N_7  and  C_21
    4  A    between atoms: C_8  and  C_11
    5  A    between atoms: C_11  and  C_13
    6  A    between atoms: C_14  and  C_21
    7  A    between atoms: C_14  and  S_26
    8  A    between atoms: C_14  and  N_29
    9  A    between atoms: C_15  and  C_19
   10  A    between atoms: C_16  and  C_25
   11  A    between atoms: C_19  and  S_26
   12  A    between atoms: C_24  and  C_25
                            x       y       z     vdW  Elec       q    Type
                         _______ _______ _______ _____ _____    ______ ____

>  <TORSDO>
F 12

$$$$
=
 OpenBabel10222421083D

 29 30  0  0  1  0  0  0  0  0999 V2000
  188.2500  178.2350  141.3260 C   0  0  0  0  0  0  0  0  0  0  0  0
  188.8760  176.0020  143.0700 C   0  0  0  0  0  2  0  0  0  0  0  0
  186.1580  178.7530  142.6540 C   0  0  2  0  0  3  0  0  0  0  0  0
  187.9570  179.1420  140.5000 O   0  0  0  0  0  0  0  0  0  0  0  0
  186.6510  178.2050  145.1810 C   0  0  1  0  0  3  0  0  0  0  0  0
  187.9200  177.0820  143.4710 C   0  0  0  0  0  0  0  0  0  0  0  0
  189.4970  177.4610  141.1460 C   0  0  0  0  0  0  0  0  0  0  0  0
  187.4020  177.9790  142.4650 N   0  0  0  0  0  0  0  0  0  0  0  0
  187.5530  177.1670  144.7110 N   0  0  0  0  0  0  0  0  0  0  0  0
  189.7980  176.4590  141.9750 C   0  0  0  0  0  3  0  0  0  0  0  0
  185.1890  178.2250  144.1180 S   0  0  0  0  0  0  0  0  0  0  0  0
  186.2310  177.9230  146.6150 C   0  0  0  0  0  2  0  0  0  0  0  0
  187.1630  178.6060  147.6060 C   0  0  0  0  0  2  0  0  0  0  0  0
  187.9930  177.5890  148.3730 C   0  0  0  0  0  3  0  0  0  0  0  0
  188.8640  178.2400  149.2280 F   0  0  0  0  0  0  0  0  0  0  0  0
  188.7160  176.8230  147.4800 F   0  0  0  0  0  0  0  0  0  0  0  0
  190.4500  177.8010  140.0520 C   0  0  0  0  0  2  0  0  0  0  0  0
  190.9760  176.2840  139.1920 S   0  0  0  0  0  0  0  0  0  0  0  0
  190.1850  176.6860  137.5890 C   0  0  1  0  0  3  0  0  0  0  0  0
  190.1990  174.4250  137.5960 O   0  0  0  0  0  1  0  0  0  0  0  0
  189.8930  175.4850  136.8140 N   0  0  0  0  0  2  0  0  0  0  0  0
  188.9520  177.5740  137.7620 C   0  0  1  0  0  3  0  0  0  0  0  0
  189.0510  178.7820  136.8480 C   0  0  0  0  0  1  0  0  0  0  0  0
  187.7240  176.8440  137.4810 N   0  0  0  0  0  2  0  0  0  0  0  0
  186.8620  177.7350  136.7250 C   0  0  0  0  0  1  0  0  0  0  0  0
  185.2600  178.6350  141.4240 C   0  0  0  0  0  2  0  0  0  0  0  0
  183.8260  178.3160  141.8170 C   0  0  0  0  0  2  0  0  0  0  0  0
  181.9360  178.8430  140.3110 C   0  0  0  0  0  1  0  0  0  0  0  0
  183.0390  177.8500  140.6070 C   0  0  0  0  0  2  0  0  0  0  0  0
  1  8  1  0  0  0  0
  2  6  1  0  0  0  0
  3 26  1  6  0  0  0
  3 11  1  0  0  0  0
  4  1  2  0  0  0  0
  5 12  1  1  0  0  0
  6  9  2  0  0  0  0
  7  1  1  0  0  0  0
  7 10  2  0  0  0  0
  8  3  1  0  0  0  0
  8  6  1  0  0  0  0
  9  5  1  0  0  0  0
 10  2  1  0  0  0  0
 11  5  1  0  0  0  0
 12 13  1  0  0  0  0
 13 14  1  0  0  0  0
 14 15  1  0  0  0  0
 16 14  1  0  0  0  0
 17  7  1  0  0  0  0
 18 17  1  0  0  0  0
 19 21  1  1  0  0  0
 19 22  1  0  0  0  0
 19 18  1  0  0  0  0
 21 20  1  0  0  0  0
 22 23  1  6  0  0  0
 24 22  1  0  0  0  0
 25 24  1  0  0  0  0
 26 27  1  0  0  0  0
 28 29  1  0  0  0  0
 29 27  1  0  0  0  0
M  END
>  <MODEL>
6

>  <REMARK>
 VINA RESULT:      -6.3      2.598      3.227
  Name = 
  12 active torsions:
  status: ('A' for Active; 'I' for Inactive)
    1  A    between atoms: C_4  and  C_13
    2  A    between atoms: C_5  and  C_24
    3  A    between atoms: N_7  and  C_21
    4  A    between atoms: C_8  and  C_11
    5  A    between atoms: C_11  and  C_13
    6  A    between atoms: C_14  and  C_21
    7  A    between atoms: C_14  and  S_26
    8  A    between atoms: C_14  and  N_29
    9  A    between atoms: C_15  and  C_19
   10  A    between atoms: C_16  and  C_25
   11  A    between atoms: C_19  and  S_26
   12  A    between atoms: C_24  and  C_25
                            x       y       z     vdW  Elec       q    Type
                         _______ _______ _______ _____ _____    ______ ____

>  <TORSDO>
F 12

$$$$
=
 OpenBabel10222421083D

 29 30  0  0  1  0  0  0  0  0999 V2000
  188.3180  177.0410  142.8030 C   0  0  0  0  0  0  0  0  0  0  0  0
  187.1000  179.1890  141.2790 C   0  0  0  0  0  2  0  0  0  0  0  0
  186.8160  177.5260  144.7830 C   0  0  2  0  0  3  0  0  0  0  0  0
  188.9250  176.1610  143.4720 O   0  0  0  0  0  0  0  0  0  0  0  0
  184.4810  178.3060  143.8520 C   0  0  1  0  0  3  0  0  0  0  0  0
  186.4420  178.5970  142.4860 C   0  0  0  0  0  0  0  0  0  0  0  0
  188.7100  177.2880  141.4000 C   0  0  0  0  0  0  0  0  0  0  0  0
  187.2180  177.7730  143.3830 N   0  0  0  0  0  0  0  0  0  0  0  0
  185.1950  178.8650  142.7170 N   0  0  0  0  0  0  0  0  0  0  0  0
  188.1190  178.2540  140.6910 C   0  0  0  0  0  3  0  0  0  0  0  0
  185.4480  178.6070  145.3480 S   0  0  0  0  0  0  0  0  0  0  0  0
  183.1180  178.9650  143.9890 C   0  0  0  0  0  2  0  0  0  0  0  0
  182.2600  178.7180  142.7560 C   0  0  0  0  0  2  0  0  0  0  0  0
  180.7840  178.9160  143.0620 C   0  0  0  0  0  3  0  0  0  0  0  0
  180.0150  178.2330  142.1370 F   0  0  0  0  0  0  0  0  0  0  0  0
  180.4820  180.2630  143.0030 F   0  0  0  0  0  0  0  0  0  0  0  0
  189.7530  176.4510  140.7440 C   0  0  0  0  0  2  0  0  0  0  0  0
  190.8860  177.5070  139.7840 S   0  0  0  0  0  0  0  0  0  0  0  0
  190.7160  176.5930  138.2070 C   0  0  1  0  0  3  0  0  0  0  0  0
  191.6020  174.5270  137.9590 O   0  0  0  0  0  1  0  0  0  0  0  0
  190.5060  175.1670  138.4280 N   0  0  0  0  0  2  0  0  0  0  0  0
  189.6410  177.1990  137.3020 C   0  0  1  0  0  3  0  0  0  0  0  0
  188.3420  176.4270  137.4510 C   0  0  0  0  0  1  0  0  0  0  0  0
  189.4160  178.6040  137.6080 N   0  0  0  0  0  2  0  0  0  0  0  0
  188.2170  179.0090  136.8960 C   0  0  0  0  0  1  0  0  0  0  0  0
  188.0010  177.7280  145.7250 C   0  0  0  0  0  2  0  0  0  0  0  0
  187.7000  177.1850  147.1130 C   0  0  0  0  0  2  0  0  0  0  0  0
  189.4750  178.2540  148.4650 C   0  0  0  0  0  1  0  0  0  0  0  0
  187.9910  178.2390  148.1650 C   0  0  0  0  0  2  0  0  0  0  0  0
  1  8  1  0  0  0  0
  1  4  2  0  0  0  0
  2  6  1  0  0  0  0
  3 11  1  0  0  0  0
  3 26  1  1  0  0  0
  5 12  1  1  0  0  0
  5 11  1  0  0  0  0
  6  9  2  0  0  0  0
  6  8  1  0  0  0  0
  7  1  1  0  0  0  0
  8  3  1  0  0  0  0
  9  5  1  0  0  0  0
 10  2  1  0  0  0  0
 10  7  2  0  0  0  0
 13 14  1  0  0  0  0
 13 12  1  0  0  0  0
 15 14  1  0  0  0  0
 16 14  1  0  0  0  0
 17  7  1  0  0  0  0
 18 17  1  0  0  0  0
 19 21  1  1  0  0  0
 19 18  1  0  0  0  0
 20 21  1  0  0  0  0
 22 23  1  1  0  0  0
 22 24  1  0  0  0  0
 22 19  1  0  0  0  0
 25 24  1  0  0  0  0
 26 27  1  0  0  0  0
 27 29  1  0  0  0  0
 29 28  1  0  0  0  0
M  END
>  <MODEL>
7

>  <REMARK>
 VINA RESULT:      -6.2      4.362      6.195
  Name = 
  12 active torsions:
  status: ('A' for Active; 'I' for Inactive)
    1  A    between atoms: C_4  and  C_13
    2  A    between atoms: C_5  and  C_24
    3  A    between atoms: N_7  and  C_21
    4  A    between atoms: C_8  and  C_11
    5  A    between atoms: C_11  and  C_13
    6  A    between atoms: C_14  and  C_21
    7  A    between atoms: C_14  and  S_26
    8  A    between atoms: C_14  and  N_29
    9  A    between atoms: C_15  and  C_19
   10  A    between atoms: C_16  and  C_25
   11  A    between atoms: C_19  and  S_26
   12  A    between atoms: C_24  and  C_25
                            x       y       z     vdW  Elec       q    Type
                         _______ _______ _______ _____ _____    ______ ____

>  <TORSDO>
F 12

$$$$
=
 OpenBabel10222421083D

 29 30  0  0  1  0  0  0  0  0999 V2000
  187.8200  177.1840  142.9040 C   0  0  0  0  0  0  0  0  0  0  0  0
  188.4650  178.6260  140.4700 C   0  0  0  0  0  2  0  0  0  0  0  0
  185.4890  178.1700  142.9320 C   0  0  2  0  0  3  0  0  0  0  0  0
  187.5990  176.6160  144.0080 O   0  0  0  0  0  0  0  0  0  0  0  0
  184.6940  178.4310  140.4360 C   0  0  1  0  0  3  0  0  0  0  0  0
  187.0530  178.4090  140.9170 C   0  0  0  0  0  0  0  0  0  0  0  0
  189.1240  176.9920  142.2350 C   0  0  0  0  0  0  0  0  0  0  0  0
  186.7970  177.9800  142.2720 N   0  0  0  0  0  0  0  0  0  0  0  0
  186.0870  178.6440  140.0840 N   0  0  0  0  0  0  0  0  0  0  0  0
  189.4010  177.6300  141.0950 C   0  0  0  0  0  3  0  0  0  0  0  0
  184.3580  179.2710  142.0000 S   0  0  0  0  0  0  0  0  0  0  0  0
  183.7890  178.9950  139.3530 C   0  0  0  0  0  2  0  0  0  0  0  0
  183.4670  177.9430  138.3010 C   0  0  0  0  0  2  0  0  0  0  0  0
  181.9940  177.9720  137.9250 C   0  0  0  0  0  3  0  0  0  0  0  0
  181.7550  177.0880  136.8880 F   0  0  0  0  0  0  0  0  0  0  0  0
  181.6490  179.2480  137.5270 F   0  0  0  0  0  0  0  0  0  0  0  0
  190.1430  176.0680  142.8080 C   0  0  0  0  0  2  0  0  0  0  0  0
  191.7180  176.9520  143.0510 S   0  0  0  0  0  0  0  0  0  0  0  0
  191.3160  177.6110  144.7120 C   0  0  1  0  0  3  0  0  0  0  0  0
  190.9750  179.7130  143.9500 O   0  0  0  0  0  1  0  0  0  0  0  0
  190.3700  178.7180  144.6400 N   0  0  0  0  0  2  0  0  0  0  0  0
  190.8470  176.5140  145.6690 C   0  0  1  0  0  3  0  0  0  0  0  0
  192.0450  175.8240  146.2950 C   0  0  0  0  0  1  0  0  0  0  0  0
  189.9860  177.0500  146.7140 N   0  0  0  0  0  2  0  0  0  0  0  0
  190.7950  177.1680  147.9140 C   0  0  0  0  0  1  0  0  0  0  0  0
  185.6740  178.7540  144.3310 C   0  0  0  0  0  2  0  0  0  0  0  0
  184.3910  178.6560  145.1420 C   0  0  0  0  0  2  0  0  0  0  0  0
  186.2030  178.3580  146.8010 C   0  0  0  0  0  1  0  0  0  0  0  0
  184.7100  178.5400  146.6200 C   0  0  0  0  0  2  0  0  0  0  0  0
  1  4  2  0  0  0  0
  2  6  1  0  0  0  0
  2 10  1  0  0  0  0
  3 26  1  1  0  0  0
  5 12  1  6  0  0  0
  5 11  1  0  0  0  0
  6  8  1  0  0  0  0
  7 17  1  0  0  0  0
  7  1  1  0  0  0  0
  8  1  1  0  0  0  0
  8  3  1  0  0  0  0
  9  5  1  0  0  0  0
  9  6  2  0  0  0  0
 10  7  2  0  0  0  0
 11  3  1  0  0  0  0
 13 12  1  0  0  0  0
 14 13  1  0  0  0  0
 15 14  1  0  0  0  0
 16 14  1  0  0  0  0
 17 18  1  0  0  0  0
 19 18  1  6  0  0  0
 19 22  1  0  0  0  0
 20 21  1  0  0  0  0
 21 19  1  0  0  0  0
 22 23  1  1  0  0  0
 22 24  1  0  0  0  0
 24 25  1  0  0  0  0
 26 27  1  0  0  0  0
 27 29  1  0  0  0  0
 29 28  1  0  0  0  0
M  END
>  <MODEL>
8

>  <REMARK>
 VINA RESULT:      -6.2      4.920      8.140
  Name = 
  12 active torsions:
  status: ('A' for Active; 'I' for Inactive)
    1  A    between atoms: C_4  and  C_13
    2  A    between atoms: C_5  and  C_24
    3  A    between atoms: N_7  and  C_21
    4  A    between atoms: C_8  and  C_11
    5  A    between atoms: C_11  and  C_13
    6  A    between atoms: C_14  and  C_21
    7  A    between atoms: C_14  and  S_26
    8  A    between atoms: C_14  and  N_29
    9  A    between atoms: C_15  and  C_19
   10  A    between atoms: C_16  and  C_25
   11  A    between atoms: C_19  and  S_26
   12  A    between atoms: C_24  and  C_25
                            x       y       z     vdW  Elec       q    Type
                         _______ _______ _______ _____ _____    ______ ____

>  <TORSDO>
F 12

$$$$
=
 OpenBabel10222421083D

 29 30  0  0  1  0  0  0  0  0999 V2000
  188.1470  178.2230  140.6750 C   0  0  0  0  0  0  0  0  0  0  0  0
  190.6410  176.7510  140.4960 C   0  0  0  0  0  2  0  0  0  0  0  0
  188.1090  177.9540  143.1930 C   0  0  2  0  0  3  0  0  0  0  0  0
  187.0200  178.7880  140.7130 O   0  0  0  0  0  0  0  0  0  0  0  0
  190.5970  178.0300  144.0500 C   0  0  1  0  0  3  0  0  0  0  0  0
  190.1600  177.3490  141.7820 C   0  0  0  0  0  0  0  0  0  0  0  0
  188.8340  178.0550  139.3780 C   0  0  0  0  0  0  0  0  0  0  0  0
  188.7870  177.7820  141.8910 N   0  0  0  0  0  0  0  0  0  0  0  0
  190.9820  177.4360  142.7810 N   0  0  0  0  0  0  0  0  0  0  0  0
  190.0010  177.4090  139.3070 C   0  0  0  0  0  3  0  0  0  0  0  0
  189.0560  177.2630  144.6020 S   0  0  0  0  0  0  0  0  0  0  0  0
  191.6810  177.7940  145.0880 C   0  0  0  0  0  2  0  0  0  0  0  0
  191.5730  176.4000  145.6900 C   0  0  0  0  0  2  0  0  0  0  0  0
  191.6570  176.4470  147.2070 C   0  0  0  0  0  3  0  0  0  0  0  0
  191.8670  175.1740  147.7080 F   0  0  0  0  0  0  0  0  0  0  0  0
  190.4760  176.9500  147.7160 F   0  0  0  0  0  0  0  0  0  0  0  0
  188.2500  178.6220  138.1300 C   0  0  0  0  0  2  0  0  0  0  0  0
  188.5390  177.4860  136.7350 S   0  0  0  0  0  0  0  0  0  0  0  0
  186.9860  176.5340  136.9340 C   0  0  1  0  0  3  0  0  0  0  0  0
  185.8400  177.5290  135.2580 O   0  0  0  0  0  1  0  0  0  0  0  0
  185.8150  177.3340  136.5960 N   0  0  0  0  0  2  0  0  0  0  0  0
  187.0200  175.2110  136.1670 C   0  0  1  0  0  3  0  0  0  0  0  0
  188.3720  175.0310  135.5020 C   0  0  0  0  0  1  0  0  0  0  0  0
  186.7470  174.0800  137.0420 N   0  0  0  0  0  2  0  0  0  0  0  0
  187.8180  173.1190  136.8430 C   0  0  0  0  0  1  0  0  0  0  0  0
  186.7350  177.2880  143.1730 C   0  0  0  0  0  2  0  0  0  0  0  0
  185.7110  178.1170  143.9330 C   0  0  0  0  0  2  0  0  0  0  0  0
  184.9670  178.8740  146.1690 C   0  0  0  0  0  1  0  0  0  0  0  0
  185.8720  177.9120  145.4280 C   0  0  0  0  0  2  0  0  0  0  0  0
  1  4  2  0  0  0  0
  1  8  1  0  0  0  0
  2  6  1  0  0  0  0
  3 26  1  6  0  0  0
  3 11  1  0  0  0  0
  5 11  1  0  0  0  0
  5 12  1  1  0  0  0
  6  8  1  0  0  0  0
  6  9  2  0  0  0  0
  7  1  1  0  0  0  0
  8  3  1  0  0  0  0
  9  5  1  0  0  0  0
 10  7  2  0  0  0  0
 10  2  1  0  0  0  0
 12 13  1  0  0  0  0
 13 14  1  0  0  0  0
 14 15  1  0  0  0  0
 14 16  1  0  0  0  0
 17  7  1  0  0  0  0
 18 19  1  0  0  0  0
 18 17  1  0  0  0  0
 19 21  1  6  0  0  0
 20 21  1  0  0  0  0
 22 23  1  1  0  0  0
 22 19  1  0  0  0  0
 22 24  1  0  0  0  0
 25 24  1  0  0  0  0
 26 27  1  0  0  0  0
 27 29  1  0  0  0  0
 29 28  1  0  0  0  0
M  END
>  <MODEL>
9

>  <REMARK>
 VINA RESULT:      -6.2      2.002      2.442
  Name = 
  12 active torsions:
  status: ('A' for Active; 'I' for Inactive)
    1  A    between atoms: C_4  and  C_13
    2  A    between atoms: C_5  and  C_24
    3  A    between atoms: N_7  and  C_21
    4  A    between atoms: C_8  and  C_11
    5  A    between atoms: C_11  and  C_13
    6  A    between atoms: C_14  and  C_21
    7  A    between atoms: C_14  and  S_26
    8  A    between atoms: C_14  and  N_29
    9  A    between atoms: C_15  and  C_19
   10  A    between atoms: C_16  and  C_25
   11  A    between atoms: C_19  and  S_26
   12  A    between atoms: C_24  and  C_25
                            x       y       z     vdW  Elec       q    Type
                         _______ _______ _______ _____ _____    ______ ____

>  <TORSDO>
F 12

$$$$
