=
 OpenBabel10222420013D

 36 39  0  0  1  0  0  0  0  0999 V2000
  180.8960  180.1550  135.4840 C   0  0  0  0  0  2  0  0  0  0  0  0
  187.6150  177.3620  137.7500 C   0  0  1  0  0  3  0  0  0  0  0  0
  183.7950  178.1650  140.3790 C   0  0  0  0  0  0  0  0  0  0  0  0
  187.1850  178.4740  135.7280 C   0  0  0  0  0  2  0  0  0  0  0  0
  185.8730  178.8800  141.5040 N   0  0  0  0  0  2  0  0  0  0  0  0
  187.2700  178.6570  141.3340 C   0  0  0  0  0  0  0  0  0  0  0  0
  187.0150  176.4180  136.9060 O   0  0  0  0  0  0  0  0  0  0  0  0
  182.6280  179.5820  138.7950 C   0  0  0  0  0  3  0  0  0  0  0  0
  180.6220  178.7550  137.5200 C   0  0  1  0  0  3  0  0  0  0  0  0
  184.9600  177.4990  136.2970 C   0  0  0  0  0  2  0  0  0  0  0  0
  183.6810  179.3780  139.6880 C   0  0  0  0  0  3  0  0  0  0  0  0
  186.4010  177.1810  135.8950 C   0  0  1  0  0  3  0  0  0  0  0  0
  188.6560  176.7160  138.6750 C   0  0  2  0  0  3  0  0  0  0  0  0
  188.1400  178.4890  136.8890 C   0  0  0  0  0  2  0  0  0  0  0  0
  182.5550  176.8870  136.1590 C   0  0  0  0  0  2  0  0  0  0  0  0
  187.7190  177.5050  140.6160 N   0  0  0  0  0  2  0  0  0  0  0  0
  188.8880  177.5620  139.8450 N   0  0  0  0  0  2  0  0  0  0  0  0
  181.7420  177.3800  139.3350 C   0  0  0  0  0  0  0  0  0  0  0  0
  179.5440  179.7420  137.9760 C   0  0  0  0  0  1  0  0  0  0  0  0
  182.1770  178.1620  135.5650 N   0  0  0  0  0  2  0  0  0  0  0  0
  181.2210  179.0530  136.1540 C   0  0  0  0  0  0  0  0  0  0  0  0
  184.2350  175.0950  136.2610 C   0  0  0  0  0  1  0  0  0  0  0  0
  182.8300  177.1730  140.1940 C   0  0  0  0  0  3  0  0  0  0  0  0
  188.0960  179.5320  141.7160 O   0  0  0  0  0  0  0  0  0  0  0  0
  183.9570  176.4900  135.7290 C   0  0  2  0  0  3  0  0  0  0  0  0
  184.9520  177.8800  141.1610 N   0  0  0  0  0  2  0  0  0  0  0  0
  181.6720  178.5790  138.5860 C   0  0  0  0  0  0  0  0  0  0  0  0
  180.5810  175.3880  140.2810 C   0  0  0  0  0  2  0  0  0  0  0  0
  180.7240  176.2730  139.1240 C   0  0  1  0  0  3  0  0  0  0  0  0
  179.6800  177.3540  140.9360 O   0  0  0  0  0  1  0  0  0  0  0  0
  179.5270  176.3760  140.0070 N   0  0  0  0  0  0  0  0  0  0  0  0
  191.0740  176.6250  138.6030 N   0  0  0  0  0  0  0  0  0  0  0  0
  189.9520  176.4140  137.9900 C   0  0  0  0  0  3  0  0  0  0  0  0
  193.5560  176.7520  138.6270 N   0  0  0  0  0  1  0  0  0  0  0  0
  192.3390  176.3790  137.9850 C   0  0  0  0  0  0  0  0  0  0  0  0
  192.3780  175.8280  136.8550 O   0  0  0  0  0  0  0  0  0  0  0  0
  1 21  2  0  0  0  0
  2 14  1  6  0  0  0
  2 13  1  0  0  0  0
  3 26  1  0  0  0  0
  4 14  1  0  0  0  0
  6  5  1  0  0  0  0
  6 24  2  0  0  0  0
  7  2  1  0  0  0  0
  8 11  1  0  0  0  0
  9 19  1  1  0  0  0
  9 27  1  0  0  0  0
 11  3  2  0  0  0  0
 12  4  1  1  0  0  0
 12 10  1  0  0  0  0
 12  7  1  0  0  0  0
 13 33  1  6  0  0  0
 13 17  1  0  0  0  0
 16  6  1  0  0  0  0
 17 16  1  0  0  0  0
 18 23  2  0  0  0  0
 20 21  1  0  0  0  0
 20 15  1  0  0  0  0
 21  9  1  0  0  0  0
 23  3  1  0  0  0  0
 25 15  1  0  0  0  0
 25 22  1  1  0  0  0
 25 10  1  0  0  0  0
 26  5  1  0  0  0  0
 27  8  2  0  0  0  0
 27 18  1  0  0  0  0
 29 18  1  1  0  0  0
 29 31  1  0  0  0  0
 29 28  1  0  0  0  0
 31 28  1  0  0  0  0
 31 30  1  0  0  0  0
 33 32  2  0  0  0  0
 35 32  1  0  0  0  0
 35 34  1  0  0  0  0
 36 35  2  0  0  0  0
M  END
>  <MODEL>
1

>  <REMARK>
 VINA RESULT:      -5.8      0.000      0.000
  Name = 
  3 active torsions:
  status: ('A' for Active; 'I' for Inactive)
    1  A    between atoms: N_3  and  C_28
    2  A    between atoms: C_8  and  C_16
    3  A    between atoms: C_21  and  C_23
                            x       y       z     vdW  Elec       q    Type
                         _______ _______ _______ _____ _____    ______ ____

>  <TORSDO>
F 3

$$$$
=
 OpenBabel10222420013D

 36 39  0  0  1  0  0  0  0  0999 V2000
  180.3260  180.9270  135.7230 C   0  0  0  0  0  2  0  0  0  0  0  0
  186.5230  176.5800  136.6040 C   0  0  1  0  0  3  0  0  0  0  0  0
  184.0380  178.7650  139.9500 C   0  0  0  0  0  0  0  0  0  0  0  0
  185.7650  177.5240  134.5940 C   0  0  0  0  0  2  0  0  0  0  0  0
  186.4710  178.9690  140.3090 N   0  0  0  0  0  2  0  0  0  0  0  0
  187.6450  178.3290  139.8170 C   0  0  0  0  0  0  0  0  0  0  0  0
  185.4770  175.7610  136.1580 O   0  0  0  0  0  0  0  0  0  0  0  0
  182.8150  180.2660  138.4900 C   0  0  0  0  0  3  0  0  0  0  0  0
  180.3720  179.9170  137.9930 C   0  0  1  0  0  3  0  0  0  0  0  0
  183.6640  177.3150  135.9220 C   0  0  0  0  0  2  0  0  0  0  0  0
  184.0120  179.8690  139.0890 C   0  0  0  0  0  3  0  0  0  0  0  0
  184.7830  176.5460  135.2190 C   0  0  1  0  0  3  0  0  0  0  0  0
  187.6110  175.7710  137.3240 C   0  0  2  0  0  3  0  0  0  0  0  0
  187.0090  177.3960  135.4270 C   0  0  0  0  0  2  0  0  0  0  0  0
  181.2640  177.4200  136.5620 C   0  0  0  0  0  2  0  0  0  0  0  0
  187.5520  177.0200  139.2490 N   0  0  0  0  0  2  0  0  0  0  0  0
  188.3970  176.6430  138.1960 N   0  0  0  0  0  2  0  0  0  0  0  0
  181.6340  178.4970  139.6760 C   0  0  0  0  0  0  0  0  0  0  0  0
  179.7660  181.2220  138.5180 C   0  0  0  0  0  1  0  0  0  0  0  0
  181.0410  178.6710  135.8510 N   0  0  0  0  0  2  0  0  0  0  0  0
  180.5660  179.8650  136.4860 C   0  0  0  0  0  0  0  0  0  0  0  0
  182.4020  175.2400  136.5620 C   0  0  0  0  0  1  0  0  0  0  0  0
  182.8530  178.0830  140.2330 C   0  0  0  0  0  3  0  0  0  0  0  0
  188.7360  178.9640  139.7810 O   0  0  0  0  0  0  0  0  0  0  0  0
  182.3200  176.5830  135.8590 C   0  0  2  0  0  3  0  0  0  0  0  0
  185.2750  178.2480  140.4320 N   0  0  0  0  0  2  0  0  0  0  0  0
  181.6270  179.5680  138.7500 C   0  0  0  0  0  0  0  0  0  0  0  0
  180.3230  177.1680  141.3260 C   0  0  0  0  0  2  0  0  0  0  0  0
  180.3640  177.7180  139.9710 C   0  0  1  0  0  3  0  0  0  0  0  0
  180.1180  179.4010  141.5990 O   0  0  0  0  0  1  0  0  0  0  0  0
  179.5000  178.3440  141.0120 N   0  0  0  0  0  0  0  0  0  0  0  0
  189.6390  174.5500  136.8170 N   0  0  0  0  0  0  0  0  0  0  0  0
  188.5120  175.0270  136.3890 C   0  0  0  0  0  3  0  0  0  0  0  0
  191.7750  173.3290  136.4610 N   0  0  0  0  0  1  0  0  0  0  0  0
  190.5470  173.8550  135.9600 C   0  0  0  0  0  0  0  0  0  0  0  0
  190.2600  173.7070  134.7450 O   0  0  0  0  0  0  0  0  0  0  0  0
  1 21  2  0  0  0  0
  2 14  1  6  0  0  0
  2 13  1  0  0  0  0
  3 23  1  0  0  0  0
  3 26  1  0  0  0  0
  4 14  1  0  0  0  0
  5 26  1  0  0  0  0
  6  5  1  0  0  0  0
  7  2  1  0  0  0  0
  8 27  2  0  0  0  0
  8 11  1  0  0  0  0
  9 19  1  1  0  0  0
  9 27  1  0  0  0  0
 11  3  2  0  0  0  0
 12  4  1  1  0  0  0
 12 10  1  0  0  0  0
 12  7  1  0  0  0  0
 13 33  1  6  0  0  0
 13 17  1  0  0  0  0
 16  6  1  0  0  0  0
 17 16  1  0  0  0  0
 18 23  2  0  0  0  0
 20 21  1  0  0  0  0
 20 15  1  0  0  0  0
 21  9  1  0  0  0  0
 24  6  2  0  0  0  0
 25 10  1  0  0  0  0
 25 22  1  1  0  0  0
 25 15  1  0  0  0  0
 27 18  1  0  0  0  0
 29 18  1  1  0  0  0
 29 31  1  0  0  0  0
 29 28  1  0  0  0  0
 31 28  1  0  0  0  0
 31 30  1  0  0  0  0
 33 32  2  0  0  0  0
 35 34  1  0  0  0  0
 35 32  1  0  0  0  0
 36 35  2  0  0  0  0
M  END
>  <MODEL>
2

>  <REMARK>
 VINA RESULT:      -4.9      1.866      1.980
  Name = 
  3 active torsions:
  status: ('A' for Active; 'I' for Inactive)
    1  A    between atoms: N_3  and  C_28
    2  A    between atoms: C_8  and  C_16
    3  A    between atoms: C_21  and  C_23
                            x       y       z     vdW  Elec       q    Type
                         _______ _______ _______ _____ _____    ______ ____

>  <TORSDO>
F 3

$$$$
=
 OpenBabel10222420013D

 36 39  0  0  1  0  0  0  0  0999 V2000
  183.8730  177.9650  140.9770 C   0  0  0  0  0  1  0  0  0  0  0  0
  188.7480  174.8130  136.0400 C   0  0  1  0  0  3  0  0  0  0  0  0
  184.0580  174.4270  136.1020 C   0  0  0  0  0  0  0  0  0  0  0  0
  189.2920  175.7430  138.1250 C   0  0  0  0  0  2  0  0  0  0  0  0
  185.1680  172.2730  135.6350 N   0  0  0  0  0  2  0  0  0  0  0  0
  186.4690  171.8440  135.2440 C   0  0  0  0  0  0  0  0  0  0  0  0
  188.7770  176.2010  135.8520 O   0  0  0  0  0  0  0  0  0  0  0  0
  183.7150  175.2430  138.3600 C   0  0  0  0  0  3  0  0  0  0  0  0
  182.7550  177.5280  138.8010 C   0  0  1  0  0  3  0  0  0  0  0  0
  187.2180  176.9810  137.5020 C   0  0  0  0  0  2  0  0  0  0  0  0
  184.1770  174.2560  137.4880 C   0  0  0  0  0  3  0  0  0  0  0  0
  188.6860  176.7400  137.1490 C   0  0  1  0  0  3  0  0  0  0  0  0
  189.2330  174.0610  134.7920 C   0  0  2  0  0  3  0  0  0  0  0  0
  189.5080  174.4990  137.3090 C   0  0  0  0  0  2  0  0  0  0  0  0
  185.3110  178.5730  137.5930 C   0  0  0  0  0  2  0  0  0  0  0  0
  187.3510  172.7630  134.5940 N   0  0  0  0  0  2  0  0  0  0  0  0
  188.7340  172.6870  134.8040 N   0  0  0  0  0  2  0  0  0  0  0  0
  182.9340  176.5560  136.4640 C   0  0  0  0  0  0  0  0  0  0  0  0
  181.4920  177.1790  139.5920 C   0  0  0  0  0  1  0  0  0  0  0  0
  185.1480  178.4290  139.0330 N   0  0  0  0  0  0  0  0  0  0  0  0
  183.9320  177.9870  139.6490 C   0  0  0  0  0  0  0  0  0  0  0  0
  186.8920  178.7160  135.7160 C   0  0  0  0  0  1  0  0  0  0  0  0
  183.4440  175.5760  135.6000 C   0  0  0  0  0  3  0  0  0  0  0  0
  186.8770  170.6960  135.5750 O   0  0  0  0  0  0  0  0  0  0  0  0
  186.7700  178.4140  137.1990 C   0  0  2  0  0  3  0  0  0  0  0  0
  184.6740  173.5110  135.2010 N   0  0  0  0  0  2  0  0  0  0  0  0
  183.1230  176.4110  137.8590 C   0  0  0  0  0  0  0  0  0  0  0  0
  181.6320  177.5950  134.6100 C   0  0  0  0  0  2  0  0  0  0  0  0
  182.3030  177.8130  135.8930 C   0  0  1  0  0  3  0  0  0  0  0  0
  180.3460  176.5250  136.1280 O   0  0  0  0  0  1  0  0  0  0  0  0
  180.8140  177.7620  135.8200 N   0  0  0  0  0  0  0  0  0  0  0  0
  191.3970  172.9780  134.8040 N   0  0  0  0  0  0  0  0  0  0  0  0
  190.7210  174.0700  134.6360 C   0  0  0  0  0  3  0  0  0  0  0  0
  193.5930  174.1370  134.6890 N   0  0  0  0  0  1  0  0  0  0  0  0
  192.8210  172.9380  134.6930 C   0  0  0  0  0  0  0  0  0  0  0  0
  193.4030  171.8270  134.5940 O   0  0  0  0  0  0  0  0  0  0  0  0
  2 14  1  1  0  0  0
  3 11  1  0  0  0  0
  6 24  2  0  0  0  0
  6  5  1  0  0  0  0
  7  2  1  0  0  0  0
  7 12  1  0  0  0  0
  9 19  1  1  0  0  0
  9 21  1  0  0  0  0
 11  8  2  0  0  0  0
 12 10  1  1  0  0  0
 12  4  1  0  0  0  0
 13 33  1  1  0  0  0
 13 17  1  0  0  0  0
 13  2  1  0  0  0  0
 14  4  1  0  0  0  0
 15 20  1  0  0  0  0
 16 17  1  0  0  0  0
 16  6  1  0  0  0  0
 18 27  2  0  0  0  0
 20 21  2  0  0  0  0
 21  1  1  0  0  0  0
 23  3  2  0  0  0  0
 23 18  1  0  0  0  0
 25 22  1  6  0  0  0
 25 10  1  0  0  0  0
 25 15  1  0  0  0  0
 26  5  1  0  0  0  0
 26  3  1  0  0  0  0
 27  8  1  0  0  0  0
 27  9  1  0  0  0  0
 28 31  1  0  0  0  0
 28 29  1  0  0  0  0
 29 18  1  1  0  0  0
 31 29  1  0  0  0  0
 31 30  1  0  0  0  0
 33 32  2  0  0  0  0
 34 35  1  0  0  0  0
 35 32  1  0  0  0  0
 36 35  2  0  0  0  0
M  END
>  <MODEL>
3

>  <REMARK>
 VINA RESULT:      -3.8      3.364      5.322
  Name = 
  3 active torsions:
  status: ('A' for Active; 'I' for Inactive)
    1  A    between atoms: N_3  and  C_28
    2  A    between atoms: C_8  and  C_16
    3  A    between atoms: C_21  and  C_23
                            x       y       z     vdW  Elec       q    Type
                         _______ _______ _______ _____ _____    ______ ____

>  <TORSDO>
F 3

$$$$
=
 OpenBabel10222420013D

 36 39  0  0  1  0  0  0  0  0999 V2000
  180.1130  176.4760  141.8200 C   0  0  0  0  0  2  0  0  0  0  0  0
  187.5940  177.7490  142.5220 C   0  0  1  0  0  3  0  0  0  0  0  0
  184.8790  178.5340  138.7590 C   0  0  0  0  0  0  0  0  0  0  0  0
  186.2730  176.4200  143.9360 C   0  0  0  0  0  2  0  0  0  0  0  0
  187.0480  177.5220  138.1540 N   0  0  0  0  0  2  0  0  0  0  0  0
  188.3080  177.3240  138.7880 C   0  0  0  0  0  0  0  0  0  0  0  0
  186.9200  178.6350  143.3740 O   0  0  0  0  0  0  0  0  0  0  0  0
  182.9820  177.2000  139.4680 C   0  0  0  0  0  3  0  0  0  0  0  0
  180.8460  178.2690  140.2630 C   0  0  1  0  0  3  0  0  0  0  0  0
  184.6200  178.0490  143.0210 C   0  0  0  0  0  2  0  0  0  0  0  0
  184.3020  177.2850  139.0230 C   0  0  0  0  0  3  0  0  0  0  0  0
  185.8560  177.8820  143.9050 C   0  0  1  0  0  3  0  0  0  0  0  0
  188.9960  178.2600  142.1650 C   0  0  2  0  0  3  0  0  0  0  0  0
  187.5580  176.3760  143.1560 C   0  0  0  0  0  2  0  0  0  0  0  0
  182.4830  179.2450  142.5970 C   0  0  0  0  0  2  0  0  0  0  0  0
  188.6810  178.1490  139.8950 N   0  0  0  0  0  2  0  0  0  0  0  0
  189.4660  177.6300  140.9320 N   0  0  0  0  0  2  0  0  0  0  0  0
  182.7740  179.6210  139.3160 C   0  0  0  0  0  0  0  0  0  0  0  0
  179.8370  177.7180  139.2520 C   0  0  0  0  0  1  0  0  0  0  0  0
  181.6870  178.0280  142.6760 N   0  0  0  0  0  2  0  0  0  0  0  0
  180.8540  177.5590  141.6080 C   0  0  0  0  0  0  0  0  0  0  0  0
  184.3930  180.5030  143.4980 C   0  0  0  0  0  1  0  0  0  0  0  0
  184.1150  179.6920  138.9130 C   0  0  0  0  0  3  0  0  0  0  0  0
  189.0370  176.3520  138.4440 O   0  0  0  0  0  0  0  0  0  0  0  0
  183.6890  179.1580  143.5180 C   0  0  2  0  0  3  0  0  0  0  0  0
  186.2700  178.6450  138.4680 N   0  0  0  0  0  2  0  0  0  0  0  0
  182.2200  178.3630  139.6500 C   0  0  0  0  0  0  0  0  0  0  0  0
  182.3050  181.9430  138.5410 C   0  0  0  0  0  2  0  0  0  0  0  0
  181.9740  180.8970  139.5100 C   0  0  1  0  0  3  0  0  0  0  0  0
  181.2330  180.3560  137.3420 O   0  0  0  0  0  1  0  0  0  0  0  0
  181.0440  181.2040  138.3860 N   0  0  0  0  0  0  0  0  0  0  0  0
  190.4980  176.8870  143.4760 N   0  0  0  0  0  0  0  0  0  0  0  0
  189.9960  178.0620  143.2610 C   0  0  0  0  0  3  0  0  0  0  0  0
  191.6800  177.6130  145.5390 N   0  0  0  0  0  1  0  0  0  0  0  0
  191.4350  176.6380  144.5260 C   0  0  0  0  0  0  0  0  0  0  0  0
  192.0550  175.5450  144.5560 O   0  0  0  0  0  0  0  0  0  0  0  0
  2 14  1  1  0  0  0
  2  7  1  0  0  0  0
  3 23  2  0  0  0  0
  3 11  1  0  0  0  0
  5 26  1  0  0  0  0
  5  6  1  0  0  0  0
  6 16  1  0  0  0  0
  7 12  1  0  0  0  0
  8 27  1  0  0  0  0
  9 19  1  6  0  0  0
  9 21  1  0  0  0  0
 10 25  1  0  0  0  0
 11  8  2  0  0  0  0
 12 10  1  6  0  0  0
 12  4  1  0  0  0  0
 13  2  1  0  0  0  0
 13 33  1  1  0  0  0
 14  4  1  0  0  0  0
 15 20  1  0  0  0  0
 15 25  1  0  0  0  0
 16 17  1  0  0  0  0
 17 13  1  0  0  0  0
 18 27  2  0  0  0  0
 21  1  2  0  0  0  0
 21 20  1  0  0  0  0
 23 18  1  0  0  0  0
 24  6  2  0  0  0  0
 25 22  1  6  0  0  0
 26  3  1  0  0  0  0
 27  9  1  0  0  0  0
 28 29  1  0  0  0  0
 29 18  1  6  0  0  0
 30 31  1  0  0  0  0
 31 28  1  0  0  0  0
 31 29  1  0  0  0  0
 32 35  1  0  0  0  0
 33 32  2  0  0  0  0
 35 36  2  0  0  0  0
 35 34  1  0  0  0  0
M  END
>  <MODEL>
4

>  <REMARK>
 VINA RESULT:      -3.4      3.045      5.488
  Name = 
  3 active torsions:
  status: ('A' for Active; 'I' for Inactive)
    1  A    between atoms: N_3  and  C_28
    2  A    between atoms: C_8  and  C_16
    3  A    between atoms: C_21  and  C_23
                            x       y       z     vdW  Elec       q    Type
                         _______ _______ _______ _____ _____    ______ ____

>  <TORSDO>
F 3

$$$$
