=
 OpenBabel10222418283D

 28 31  0  0  1  0  0  0  0  0999 V2000
  188.5670  178.2110  141.9380 C   0  0  2  0  0  3  0  0  0  0  0  0
  190.1400  177.4940  140.0390 C   0  0  0  0  0  3  0  0  0  0  0  0
  188.2050  177.5570  138.6960 C   0  0  0  0  0  3  0  0  0  0  0  0
  189.6450  177.2110  138.8240 C   0  0  0  0  0  0  0  0  0  0  0  0
  187.0940  178.3730  141.7710 C   0  0  0  0  0  0  0  0  0  0  0  0
  187.9380  178.1890  139.8220 C   0  0  0  0  0  0  0  0  0  0  0  0
  186.1770  178.4920  142.8670 N   0  0  0  0  0  2  0  0  0  0  0  0
  186.7140  178.3210  140.5220 N   0  0  0  0  0  0  0  0  0  0  0  0
  189.0280  178.1470  140.6980 C   0  0  1  0  0  3  0  0  0  0  0  0
  184.7530  178.6370  142.7860 C   0  0  0  0  0  0  0  0  0  0  0  0
  182.5780  179.0250  143.7810 C   0  0  0  0  0  3  0  0  0  0  0  0
  183.9620  178.8950  143.9120 C   0  0  0  0  0  3  0  0  0  0  0  0
  184.1290  178.5140  141.5410 C   0  0  0  0  0  3  0  0  0  0  0  0
  182.7800  178.6440  141.4330 N   0  0  0  0  0  0  0  0  0  0  0  0
  181.9990  178.8950  142.5190 C   0  0  0  0  0  3  0  0  0  0  0  0
  190.6130  178.4080  143.3680 C   0  0  0  0  0  3  0  0  0  0  0  0
  191.3130  178.1320  144.5460 C   0  0  0  0  0  3  0  0  0  0  0  0
  189.4260  176.8710  145.3720 C   0  0  0  0  0  3  0  0  0  0  0  0
  189.3140  177.9150  143.1810 C   0  0  0  0  0  0  0  0  0  0  0  0
  188.7270  177.1460  144.1950 C   0  0  0  0  0  3  0  0  0  0  0  0
  190.7230  177.3590  145.5570 C   0  0  0  0  0  0  0  0  0  0  0  0
  192.3550  174.9870  146.1850 O   0  0  0  0  0  0  0  0  0  0  0  0
  191.4080  177.0540  146.7790 N   0  0  0  0  0  2  0  0  0  0  0  0
  192.8380  175.7390  148.3830 C   0  0  0  0  0  1  0  0  0  0  0  0
  192.1960  175.8890  147.0510 C   0  0  0  0  0  0  0  0  0  0  0  0
  190.4100  176.4700  137.7850 C   0  0  0  0  0  2  0  0  0  0  0  0
  190.8590  175.1970  138.3200 N   0  0  0  0  0  2  0  0  0  0  0  0
  192.0710  174.8470  137.6030 C   0  0  0  0  0  1  0  0  0  0  0  0
  1 19  1  1  0  0  0
  3  4  1  0  0  0  0
  3  6  2  0  0  0  0
  4  2  2  0  0  0  0
  5  1  1  0  0  0  0
  5  7  1  0  0  0  0
  6  8  1  0  0  0  0
  6  9  1  0  0  0  0
  8  5  2  0  0  0  0
  9  2  1  1  0  0  0
  9  1  1  0  0  0  0
 10  7  1  0  0  0  0
 10 12  1  0  0  0  0
 11 12  2  0  0  0  0
 13 10  2  0  0  0  0
 14 13  1  0  0  0  0
 14 15  2  0  0  0  0
 15 11  1  0  0  0  0
 16 17  1  0  0  0  0
 17 21  2  0  0  0  0
 18 21  1  0  0  0  0
 19 16  2  0  0  0  0
 19 20  1  0  0  0  0
 20 18  2  0  0  0  0
 21 23  1  0  0  0  0
 22 25  2  0  0  0  0
 23 25  1  0  0  0  0
 25 24  1  0  0  0  0
 26 27  1  0  0  0  0
 26  4  1  0  0  0  0
 28 27  1  0  0  0  0
M  END
>  <MODEL>
1

>  <REMARK>
 VINA RESULT:      -9.0      0.000      0.000
  Name = 
  5 active torsions:
  status: ('A' for Active; 'I' for Inactive)
    1  A    between atoms: C_1  and  N_26
    2  A    between atoms: C_4  and  C_13
    3  A    between atoms: C_4  and  N_15
    4  A    between atoms: C_5  and  C_16
    5  A    between atoms: N_17  and  C_24
                            x       y       z     vdW  Elec       q    Type
                         _______ _______ _______ _____ _____    ______ ____

>  <TORSDO>
F 5

$$$$
=
 OpenBabel10222418283D

 28 31  0  0  1  0  0  0  0  0999 V2000
  189.2990  177.8730  142.8470 C   0  0  2  0  0  3  0  0  0  0  0  0
  189.5420  177.6780  145.3960 C   0  0  0  0  0  3  0  0  0  0  0  0
  191.6660  176.7800  144.9140 C   0  0  0  0  0  3  0  0  0  0  0  0
  190.6230  177.0840  145.9270 C   0  0  2  0  0  3  0  0  0  0  0  0
  190.3270  177.3860  141.8820 C   0  0  0  0  0  0  0  0  0  0  0  0
  191.2140  177.3610  143.8210 C   0  0  0  0  0  0  0  0  0  0  0  0
  190.0870  177.2300  140.4770 N   0  0  0  0  0  2  0  0  0  0  0  0
  191.4470  177.0450  142.4600 N   0  0  0  0  0  0  0  0  0  0  0  0
  189.9270  177.8740  144.0140 C   0  0  0  0  0  0  0  0  0  0  0  0
  191.0160  176.7570  139.4930 C   0  0  0  0  0  0  0  0  0  0  0  0
  191.5980  175.4000  137.5710 C   0  0  0  0  0  3  0  0  0  0  0  0
  190.6550  175.8320  138.5060 C   0  0  0  0  0  3  0  0  0  0  0  0
  192.3310  177.2300  139.5200 C   0  0  0  0  0  3  0  0  0  0  0  0
  193.2360  176.7980  138.6020 N   0  0  0  0  0  0  0  0  0  0  0  0
  192.8990  175.9000  137.6370 C   0  0  0  0  0  3  0  0  0  0  0  0
  187.3830  178.7150  141.4710 C   0  0  0  0  0  3  0  0  0  0  0  0
  186.0130  178.8770  141.2550 C   0  0  0  0  0  3  0  0  0  0  0  0
  185.5480  177.7170  143.3210 C   0  0  0  0  0  3  0  0  0  0  0  0
  187.8490  178.0540  142.6170 C   0  0  0  0  0  0  0  0  0  0  0  0
  186.9180  177.5550  143.5380 C   0  0  0  0  0  3  0  0  0  0  0  0
  185.0840  178.3790  142.1800 C   0  0  0  0  0  0  0  0  0  0  0  0
  183.0720  179.2660  144.1420 O   0  0  0  0  0  0  0  0  0  0  0  0
  183.6700  178.5270  141.9940 N   0  0  0  0  0  2  0  0  0  0  0  0
  181.2830  179.0570  142.5980 C   0  0  0  0  0  1  0  0  0  0  0  0
  182.7180  178.9620  142.9720 C   0  0  0  0  0  0  0  0  0  0  0  0
  190.6860  176.6220  147.3400 C   0  0  0  0  0  2  0  0  0  0  0  0
  191.9900  176.9310  147.9000 N   0  0  0  0  0  2  0  0  0  0  0  0
  192.6600  175.6630  148.1210 C   0  0  0  0  0  1  0  0  0  0  0  0
  1 19  1  1  0  0  0
  1  9  1  0  0  0  0
  2  4  1  0  0  0  0
  3  4  1  0  0  0  0
  4 26  1  6  0  0  0
  5  8  2  0  0  0  0
  5  1  1  0  0  0  0
  6  9  1  0  0  0  0
  6  3  2  0  0  0  0
  7  5  1  0  0  0  0
  8  6  1  0  0  0  0
  9  2  2  0  0  0  0
 10 13  1  0  0  0  0
 10  7  1  0  0  0  0
 11 15  2  0  0  0  0
 11 12  1  0  0  0  0
 12 10  2  0  0  0  0
 14 13  2  0  0  0  0
 15 14  1  0  0  0  0
 16 19  1  0  0  0  0
 17 16  2  0  0  0  0
 17 21  1  0  0  0  0
 18 20  1  0  0  0  0
 19 20  2  0  0  0  0
 21 18  2  0  0  0  0
 23 21  1  0  0  0  0
 23 25  1  0  0  0  0
 24 25  1  0  0  0  0
 25 22  2  0  0  0  0
 26 27  1  0  0  0  0
 27 28  1  0  0  0  0
M  END
>  <MODEL>
2

>  <REMARK>
 VINA RESULT:      -8.8      2.528      7.930
  Name = 
  5 active torsions:
  status: ('A' for Active; 'I' for Inactive)
    1  A    between atoms: C_1  and  N_26
    2  A    between atoms: C_4  and  C_13
    3  A    between atoms: C_4  and  N_15
    4  A    between atoms: C_5  and  C_16
    5  A    between atoms: N_17  and  C_24
                            x       y       z     vdW  Elec       q    Type
                         _______ _______ _______ _____ _____    ______ ____

>  <TORSDO>
F 5

$$$$
=
 OpenBabel10222418283D

 28 31  0  0  1  0  0  0  0  0999 V2000
  189.2840  177.9190  142.8590 C   0  0  2  0  0  3  0  0  0  0  0  0
  189.5220  177.7180  145.4080 C   0  0  0  0  0  3  0  0  0  0  0  0
  191.6460  176.8180  144.9270 C   0  0  0  0  0  3  0  0  0  0  0  0
  190.6010  177.1210  145.9400 C   0  0  2  0  0  3  0  0  0  0  0  0
  190.3120  177.4320  141.8950 C   0  0  0  0  0  0  0  0  0  0  0  0
  191.1960  177.4020  143.8350 C   0  0  0  0  0  0  0  0  0  0  0  0
  190.0740  177.2800  140.4880 N   0  0  0  0  0  2  0  0  0  0  0  0
  191.4310  177.0880  142.4730 N   0  0  0  0  0  0  0  0  0  0  0  0
  189.9100  177.9160  144.0260 C   0  0  0  0  0  0  0  0  0  0  0  0
  191.0040  176.8080  139.5050 C   0  0  0  0  0  0  0  0  0  0  0  0
  191.5680  175.5170  137.5330 C   0  0  0  0  0  3  0  0  0  0  0  0
  190.6230  175.9510  138.4650 C   0  0  0  0  0  3  0  0  0  0  0  0
  192.3400  177.2110  139.5870 C   0  0  0  0  0  3  0  0  0  0  0  0
  193.2470  176.7770  138.6710 N   0  0  0  0  0  0  0  0  0  0  0  0
  192.8900  175.9460  137.6550 C   0  0  0  0  0  3  0  0  0  0  0  0
  186.8980  177.6720  143.5790 C   0  0  0  0  0  3  0  0  0  0  0  0
  185.5300  177.8520  143.3600 C   0  0  0  0  0  3  0  0  0  0  0  0
  186.0080  178.9020  141.2380 C   0  0  0  0  0  3  0  0  0  0  0  0
  187.8340  178.1020  142.6280 C   0  0  0  0  0  0  0  0  0  0  0  0
  187.3760  178.7210  141.4560 C   0  0  0  0  0  3  0  0  0  0  0  0
  185.0760  178.4690  142.1850 C   0  0  0  0  0  0  0  0  0  0  0  0
  183.4130  177.2140  140.1000 O   0  0  0  0  0  0  0  0  0  0  0  0
  183.6810  178.6720  141.9230 N   0  0  0  0  0  2  0  0  0  0  0  0
  181.4580  178.3750  140.7750 C   0  0  0  0  0  1  0  0  0  0  0  0
  182.9010  178.0430  140.8980 C   0  0  0  0  0  0  0  0  0  0  0  0
  190.6620  176.6560  147.3520 C   0  0  0  0  0  2  0  0  0  0  0  0
  191.9770  176.9300  147.9030 N   0  0  0  0  0  2  0  0  0  0  0  0
  192.6100  175.6450  148.1330 C   0  0  0  0  0  1  0  0  0  0  0  0
  1 19  1  1  0  0  0
  1  9  1  0  0  0  0
  2  4  1  0  0  0  0
  3  4  1  0  0  0  0
  4 26  1  6  0  0  0
  5  8  2  0  0  0  0
  5  1  1  0  0  0  0
  6  9  1  0  0  0  0
  6  3  2  0  0  0  0
  7  5  1  0  0  0  0
  8  6  1  0  0  0  0
  9  2  2  0  0  0  0
 10 13  1  0  0  0  0
 10  7  1  0  0  0  0
 11 15  2  0  0  0  0
 11 12  1  0  0  0  0
 12 10  2  0  0  0  0
 14 13  2  0  0  0  0
 15 14  1  0  0  0  0
 17 16  1  0  0  0  0
 18 20  2  0  0  0  0
 18 21  1  0  0  0  0
 19 16  2  0  0  0  0
 20 19  1  0  0  0  0
 21 17  2  0  0  0  0
 22 25  2  0  0  0  0
 23 21  1  0  0  0  0
 24 25  1  0  0  0  0
 25 23  1  0  0  0  0
 26 27  1  0  0  0  0
 27 28  1  0  0  0  0
M  END
>  <MODEL>
3

>  <REMARK>
 VINA RESULT:      -8.7      2.664      8.058
  Name = 
  5 active torsions:
  status: ('A' for Active; 'I' for Inactive)
    1  A    between atoms: C_1  and  N_26
    2  A    between atoms: C_4  and  C_13
    3  A    between atoms: C_4  and  N_15
    4  A    between atoms: C_5  and  C_16
    5  A    between atoms: N_17  and  C_24
                            x       y       z     vdW  Elec       q    Type
                         _______ _______ _______ _____ _____    ______ ____

>  <TORSDO>
F 5

$$$$
=
 OpenBabel10222418283D

 28 31  0  0  1  0  0  0  0  0999 V2000
  186.4820  177.7450  142.9500 C   0  0  2  0  0  3  0  0  0  0  0  0
  187.2200  177.8700  145.4070 C   0  0  0  0  0  3  0  0  0  0  0  0
  185.0590  178.7260  145.7930 C   0  0  0  0  0  3  0  0  0  0  0  0
  186.4120  178.4240  146.3260 C   0  0  2  0  0  3  0  0  0  0  0  0
  185.1600  178.2310  142.4610 C   0  0  0  0  0  0  0  0  0  0  0  0
  185.0720  178.1850  144.5910 C   0  0  0  0  0  0  0  0  0  0  0  0
  184.8480  178.4280  141.0750 N   0  0  0  0  0  2  0  0  0  0  0  0
  184.3360  178.5290  143.4300 N   0  0  0  0  0  0  0  0  0  0  0  0
  186.3430  177.7000  144.2660 C   0  0  0  0  0  0  0  0  0  0  0  0
  183.6090  178.9020  140.5320 C   0  0  0  0  0  0  0  0  0  0  0  0
  181.1920  179.0790  140.5410 C   0  0  0  0  0  3  0  0  0  0  0  0
  182.3710  178.5950  141.1100 C   0  0  0  0  0  3  0  0  0  0  0  0
  183.6330  179.6960  139.3810 C   0  0  0  0  0  3  0  0  0  0  0  0
  182.4740  180.1580  138.8400 N   0  0  0  0  0  0  0  0  0  0  0  0
  181.2650  179.8680  139.3930 C   0  0  0  0  0  3  0  0  0  0  0  0
  188.7540  176.7430  142.6230 C   0  0  0  0  0  3  0  0  0  0  0  0
  189.9380  176.6100  141.8930 C   0  0  0  0  0  3  0  0  0  0  0  0
  189.1150  178.1970  140.2680 C   0  0  0  0  0  3  0  0  0  0  0  0
  187.7400  177.6070  142.1840 C   0  0  0  0  0  0  0  0  0  0  0  0
  187.9320  178.3300  140.9980 C   0  0  0  0  0  3  0  0  0  0  0  0
  190.1260  177.3380  140.7090 C   0  0  0  0  0  0  0  0  0  0  0  0
  190.6920  175.4950  138.4800 O   0  0  0  0  0  0  0  0  0  0  0  0
  191.3270  177.2300  139.9320 N   0  0  0  0  0  2  0  0  0  0  0  0
  192.8810  176.3500  138.1560 C   0  0  0  0  0  1  0  0  0  0  0  0
  191.5690  176.3200  138.8520 C   0  0  0  0  0  0  0  0  0  0  0  0
  186.8820  178.8480  147.6730 C   0  0  0  0  0  2  0  0  0  0  0  0
  187.6390  177.7740  148.2900 N   0  0  0  0  0  2  0  0  0  0  0  0
  188.9860  178.2760  148.4930 C   0  0  0  0  0  1  0  0  0  0  0  0
  1 19  1  1  0  0  0
  1  9  1  0  0  0  0
  2  4  1  0  0  0  0
  3  4  1  0  0  0  0
  4 26  1  6  0  0  0
  5  1  1  0  0  0  0
  5  8  2  0  0  0  0
  6  3  2  0  0  0  0
  7  5  1  0  0  0  0
  8  6  1  0  0  0  0
  9  6  1  0  0  0  0
  9  2  2  0  0  0  0
 10  7  1  0  0  0  0
 10 12  1  0  0  0  0
 11 12  2  0  0  0  0
 13 10  2  0  0  0  0
 14 13  1  0  0  0  0
 14 15  2  0  0  0  0
 15 11  1  0  0  0  0
 17 16  2  0  0  0  0
 18 21  2  0  0  0  0
 18 20  1  0  0  0  0
 19 16  1  0  0  0  0
 20 19  2  0  0  0  0
 21 17  1  0  0  0  0
 22 25  2  0  0  0  0
 23 21  1  0  0  0  0
 24 25  1  0  0  0  0
 25 23  1  0  0  0  0
 26 27  1  0  0  0  0
 27 28  1  0  0  0  0
M  END
>  <MODEL>
4

>  <REMARK>
 VINA RESULT:      -8.7      2.729      6.104
  Name = 
  5 active torsions:
  status: ('A' for Active; 'I' for Inactive)
    1  A    between atoms: C_1  and  N_26
    2  A    between atoms: C_4  and  C_13
    3  A    between atoms: C_4  and  N_15
    4  A    between atoms: C_5  and  C_16
    5  A    between atoms: N_17  and  C_24
                            x       y       z     vdW  Elec       q    Type
                         _______ _______ _______ _____ _____    ______ ____

>  <TORSDO>
F 5

$$$$
=
 OpenBabel10222418283D

 28 31  0  0  1  0  0  0  0  0999 V2000
  187.8990  177.0900  143.6970 C   0  0  2  0  0  3  0  0  0  0  0  0
  189.6580  176.9160  145.5600 C   0  0  0  0  0  3  0  0  0  0  0  0
  187.9110  177.6010  146.9850 C   0  0  0  0  0  3  0  0  0  0  0  0
  189.3550  177.2970  146.8110 C   0  0  2  0  0  3  0  0  0  0  0  0
  186.5050  177.5700  143.9230 C   0  0  0  0  0  0  0  0  0  0  0  0
  187.3770  177.2300  145.8380 C   0  0  0  0  0  0  0  0  0  0  0  0
  185.6100  177.9390  142.8650 N   0  0  0  0  0  2  0  0  0  0  0  0
  186.2060  177.6920  145.1880 N   0  0  0  0  0  0  0  0  0  0  0  0
  188.3620  176.8580  144.9160 C   0  0  0  0  0  0  0  0  0  0  0  0
  184.2660  178.4200  143.0030 C   0  0  0  0  0  0  0  0  0  0  0  0
  182.4060  179.2340  144.3260 C   0  0  0  0  0  3  0  0  0  0  0  0
  183.7220  178.7740  144.2430 C   0  0  0  0  0  3  0  0  0  0  0  0
  183.4670  178.5350  141.8620 C   0  0  0  0  0  3  0  0  0  0  0  0
  182.1880  178.9850  141.9610 N   0  0  0  0  0  0  0  0  0  0  0  0
  181.6470  179.3340  143.1600 C   0  0  0  0  0  3  0  0  0  0  0  0
  189.8620  176.3780  142.3150 C   0  0  0  0  0  3  0  0  0  0  0  0
  190.5930  176.4060  141.1250 C   0  0  0  0  0  3  0  0  0  0  0  0
  188.9700  177.9130  140.1620 C   0  0  0  0  0  3  0  0  0  0  0  0
  188.6790  177.1220  142.4410 C   0  0  0  0  0  0  0  0  0  0  0  0
  188.2400  177.8870  141.3520 C   0  0  0  0  0  3  0  0  0  0  0  0
  190.1510  177.1760  140.0390 C   0  0  0  0  0  0  0  0  0  0  0  0
  190.7740  174.9620  138.1960 O   0  0  0  0  0  0  0  0  0  0  0  0
  190.8730  177.2300  138.8010 N   0  0  0  0  0  2  0  0  0  0  0  0
  191.9240  176.3750  136.6770 C   0  0  0  0  0  1  0  0  0  0  0  0
  191.1590  176.1310  137.9270 C   0  0  0  0  0  0  0  0  0  0  0  0
  190.3840  177.5570  147.8550 C   0  0  0  0  0  2  0  0  0  0  0  0
  191.6880  177.1380  147.3740 N   0  0  0  0  0  2  0  0  0  0  0  0
  191.8290  175.7360  147.7200 C   0  0  0  0  0  1  0  0  0  0  0  0
  1 19  1  1  0  0  0
  1  5  1  0  0  0  0
  1  9  1  0  0  0  0
  2  4  1  0  0  0  0
  4  3  1  0  0  0  0
  4 26  1  6  0  0  0
  5  8  2  0  0  0  0
  6  3  2  0  0  0  0
  7 10  1  0  0  0  0
  7  5  1  0  0  0  0
  8  6  1  0  0  0  0
  9  2  2  0  0  0  0
  9  6  1  0  0  0  0
 10 12  1  0  0  0  0
 12 11  2  0  0  0  0
 13 14  1  0  0  0  0
 13 10  2  0  0  0  0
 14 15  2  0  0  0  0
 15 11  1  0  0  0  0
 16 19  1  0  0  0  0
 17 16  2  0  0  0  0
 18 20  1  0  0  0  0
 20 19  2  0  0  0  0
 21 18  2  0  0  0  0
 21 17  1  0  0  0  0
 23 21  1  0  0  0  0
 24 25  1  0  0  0  0
 25 22  2  0  0  0  0
 25 23  1  0  0  0  0
 27 28  1  0  0  0  0
 27 26  1  0  0  0  0
M  END
>  <MODEL>
5

>  <REMARK>
 VINA RESULT:      -8.4      2.055      5.956
  Name = 
  5 active torsions:
  status: ('A' for Active; 'I' for Inactive)
    1  A    between atoms: C_1  and  N_26
    2  A    between atoms: C_4  and  C_13
    3  A    between atoms: C_4  and  N_15
    4  A    between atoms: C_5  and  C_16
    5  A    between atoms: N_17  and  C_24
                            x       y       z     vdW  Elec       q    Type
                         _______ _______ _______ _____ _____    ______ ____

>  <TORSDO>
F 5

$$$$
=
 OpenBabel10222418283D

 28 31  0  0  1  0  0  0  0  0999 V2000
  188.0020  178.2490  140.7990 C   0  0  2  0  0  3  0  0  0  0  0  0
  190.2200  177.4210  139.8060 C   0  0  0  0  0  3  0  0  0  0  0  0
  189.0520  177.3970  137.7590 C   0  0  0  0  0  3  0  0  0  0  0  0
  190.2880  177.0620  138.5130 C   0  0  0  0  0  0  0  0  0  0  0  0
  186.7480  178.3970  140.0050 C   0  0  0  0  0  0  0  0  0  0  0  0
  188.3430  178.0960  138.6230 C   0  0  0  0  0  0  0  0  0  0  0  0
  185.4520  178.5820  140.5910 N   0  0  0  0  0  2  0  0  0  0  0  0
  186.9400  178.2680  138.7190 N   0  0  0  0  0  0  0  0  0  0  0  0
  188.9490  178.1100  139.8830 C   0  0  1  0  0  3  0  0  0  0  0  0
  184.2050  178.7190  139.8970 C   0  0  0  0  0  0  0  0  0  0  0  0
  182.6300  179.9710  138.5470 C   0  0  0  0  0  3  0  0  0  0  0  0
  183.8580  179.8860  139.2050 C   0  0  0  0  0  3  0  0  0  0  0  0
  183.3000  177.6540  139.9130 C   0  0  0  0  0  3  0  0  0  0  0  0
  182.1090  177.7550  139.2660 N   0  0  0  0  0  0  0  0  0  0  0  0
  181.7590  178.8830  138.5900 C   0  0  0  0  0  3  0  0  0  0  0  0
  187.0810  177.4750  142.9950 C   0  0  0  0  0  3  0  0  0  0  0  0
  187.2120  177.2660  144.3700 C   0  0  0  0  0  3  0  0  0  0  0  0
  189.4550  178.1590  144.2920 C   0  0  0  0  0  3  0  0  0  0  0  0
  188.1350  178.0320  142.2560 C   0  0  0  0  0  0  0  0  0  0  0  0
  189.3230  178.3690  142.9180 C   0  0  0  0  0  3  0  0  0  0  0  0
  188.4020  177.6080  145.0290 C   0  0  0  0  0  0  0  0  0  0  0  0
  186.7250  178.6200  147.2310 O   0  0  0  0  0  0  0  0  0  0  0  0
  188.5760  177.4090  146.4380 N   0  0  0  0  0  2  0  0  0  0  0  0
  188.0730  177.6060  148.8990 C   0  0  0  0  0  1  0  0  0  0  0  0
  187.7380  177.9160  147.4850 C   0  0  0  0  0  0  0  0  0  0  0  0
  191.4070  176.2600  137.9480 C   0  0  0  0  0  2  0  0  0  0  0  0
  191.1150  174.8450  138.0870 N   0  0  0  0  0  2  0  0  0  0  0  0
  191.9160  174.1540  137.0930 C   0  0  0  0  0  1  0  0  0  0  0  0
  1 19  1  1  0  0  0
  3  4  1  0  0  0  0
  3  6  2  0  0  0  0
  4  2  2  0  0  0  0
  5  7  1  0  0  0  0
  5  1  1  0  0  0  0
  6  8  1  0  0  0  0
  6  9  1  0  0  0  0
  8  5  2  0  0  0  0
  9  2  1  1  0  0  0
  9  1  1  0  0  0  0
 10 13  1  0  0  0  0
 10  7  1  0  0  0  0
 11 15  2  0  0  0  0
 11 12  1  0  0  0  0
 12 10  2  0  0  0  0
 14 13  2  0  0  0  0
 15 14  1  0  0  0  0
 16 17  1  0  0  0  0
 17 21  2  0  0  0  0
 18 21  1  0  0  0  0
 19 20  1  0  0  0  0
 19 16  2  0  0  0  0
 20 18  2  0  0  0  0
 21 23  1  0  0  0  0
 22 25  2  0  0  0  0
 23 25  1  0  0  0  0
 25 24  1  0  0  0  0
 26 27  1  0  0  0  0
 26  4  1  0  0  0  0
 28 27  1  0  0  0  0
M  END
>  <MODEL>
6

>  <REMARK>
 VINA RESULT:      -8.2      2.551      3.026
  Name = 
  5 active torsions:
  status: ('A' for Active; 'I' for Inactive)
    1  A    between atoms: C_1  and  N_26
    2  A    between atoms: C_4  and  C_13
    3  A    between atoms: C_4  and  N_15
    4  A    between atoms: C_5  and  C_16
    5  A    between atoms: N_17  and  C_24
                            x       y       z     vdW  Elec       q    Type
                         _______ _______ _______ _____ _____    ______ ____

>  <TORSDO>
F 5

$$$$
=
 OpenBabel10222418283D

 28 31  0  0  1  0  0  0  0  0999 V2000
  187.7090  177.4330  143.5450 C   0  0  2  0  0  3  0  0  0  0  0  0
  185.5530  178.2790  144.6560 C   0  0  0  0  0  3  0  0  0  0  0  0
  184.8670  178.7800  142.4580 C   0  0  0  0  0  3  0  0  0  0  0  0
  184.6030  178.8740  143.9180 C   0  0  2  0  0  3  0  0  0  0  0  0
  187.9730  177.5300  142.0800 C   0  0  0  0  0  0  0  0  0  0  0  0
  185.9110  177.9790  142.3840 C   0  0  0  0  0  0  0  0  0  0  0  0
  189.2640  177.3270  141.4900 N   0  0  0  0  0  2  0  0  0  0  0  0
  186.9210  177.8910  141.3950 N   0  0  0  0  0  0  0  0  0  0  0  0
  186.4120  177.6780  143.6550 C   0  0  0  0  0  0  0  0  0  0  0  0
  189.5980  177.4150  140.0980 C   0  0  0  0  0  0  0  0  0  0  0  0
  189.2880  178.3240  137.8730 C   0  0  0  0  0  3  0  0  0  0  0  0
  188.9280  178.2770  139.2220 C   0  0  0  0  0  3  0  0  0  0  0  0
  190.6230  176.6100  139.5950 C   0  0  0  0  0  3  0  0  0  0  0  0
  190.9600  176.6690  138.2790 N   0  0  0  0  0  0  0  0  0  0  0  0
  190.3190  177.5030  137.4160 C   0  0  0  0  0  3  0  0  0  0  0  0
  188.2800  177.1320  145.9640 C   0  0  0  0  0  3  0  0  0  0  0  0
  189.2150  177.0520  146.9980 C   0  0  0  0  0  3  0  0  0  0  0  0
  191.0010  177.4090  145.4110 C   0  0  0  0  0  3  0  0  0  0  0  0
  188.6960  177.3540  144.6430 C   0  0  0  0  0  0  0  0  0  0  0  0
  190.0650  177.4890  144.3770 C   0  0  0  0  0  3  0  0  0  0  0  0
  190.5850  177.1910  146.7280 C   0  0  0  0  0  0  0  0  0  0  0  0
  192.3730  174.9400  147.3750 O   0  0  0  0  0  0  0  0  0  0  0  0
  191.5750  177.1160  147.7620 N   0  0  0  0  0  2  0  0  0  0  0  0
  193.4060  176.1030  149.1660 C   0  0  0  0  0  1  0  0  0  0  0  0
  192.4310  176.0030  148.0490 C   0  0  0  0  0  0  0  0  0  0  0  0
  183.5060  179.6900  144.5060 C   0  0  0  0  0  2  0  0  0  0  0  0
  182.3770  179.7250  143.5940 N   0  0  0  0  0  2  0  0  0  0  0  0
  181.5040  178.6280  143.9680 C   0  0  0  0  0  1  0  0  0  0  0  0
  1  9  1  0  0  0  0
  1 19  1  1  0  0  0
  3  4  1  0  0  0  0
  4 26  1  1  0  0  0
  4  2  1  0  0  0  0
  5  1  1  0  0  0  0
  6  3  2  0  0  0  0
  6  9  1  0  0  0  0
  7  5  1  0  0  0  0
  8  5  2  0  0  0  0
  8  6  1  0  0  0  0
  9  2  2  0  0  0  0
 10  7  1  0  0  0  0
 11 12  1  0  0  0  0
 12 10  2  0  0  0  0
 13 10  1  0  0  0  0
 14 13  2  0  0  0  0
 15 11  2  0  0  0  0
 15 14  1  0  0  0  0
 16 17  1  0  0  0  0
 18 21  1  0  0  0  0
 19 16  2  0  0  0  0
 20 19  1  0  0  0  0
 20 18  2  0  0  0  0
 21 17  2  0  0  0  0
 21 23  1  0  0  0  0
 22 25  2  0  0  0  0
 23 25  1  0  0  0  0
 25 24  1  0  0  0  0
 27 28  1  0  0  0  0
 27 26  1  0  0  0  0
M  END
>  <MODEL>
7

>  <REMARK>
 VINA RESULT:      -8.2      1.350      5.933
  Name = 
  5 active torsions:
  status: ('A' for Active; 'I' for Inactive)
    1  A    between atoms: C_1  and  N_26
    2  A    between atoms: C_4  and  C_13
    3  A    between atoms: C_4  and  N_15
    4  A    between atoms: C_5  and  C_16
    5  A    between atoms: N_17  and  C_24
                            x       y       z     vdW  Elec       q    Type
                         _______ _______ _______ _____ _____    ______ ____

>  <TORSDO>
F 5

$$$$
=
 OpenBabel10222418283D

 28 31  0  0  1  0  0  0  0  0999 V2000
  187.2810  178.4000  141.6520 C   0  0  2  0  0  3  0  0  0  0  0  0
  185.2820  178.6140  140.0540 C   0  0  0  0  0  3  0  0  0  0  0  0
  183.9800  178.5960  142.0170 C   0  0  0  0  0  3  0  0  0  0  0  0
  184.0280  178.5690  140.5320 C   0  0  0  0  0  0  0  0  0  0  0  0
  187.1420  178.2590  143.1300 C   0  0  0  0  0  0  0  0  0  0  0  0
  185.2330  178.8160  142.3630 C   0  0  0  0  0  0  0  0  0  0  0  0
  188.2140  177.8590  143.9950 N   0  0  0  0  0  2  0  0  0  0  0  0
  185.9230  178.4660  143.5500 N   0  0  0  0  0  0  0  0  0  0  0  0
  186.0800  178.7870  141.2510 C   0  0  1  0  0  3  0  0  0  0  0  0
  188.1550  177.6890  145.4180 C   0  0  0  0  0  0  0  0  0  0  0  0
  187.0650  177.9610  147.5650 C   0  0  0  0  0  3  0  0  0  0  0  0
  187.0740  178.1480  146.1810 C   0  0  0  0  0  3  0  0  0  0  0  0
  189.2120  177.0480  146.0680 C   0  0  0  0  0  3  0  0  0  0  0  0
  189.1860  176.8750  147.4170 N   0  0  0  0  0  0  0  0  0  0  0  0
  188.1420  177.3150  148.1710 C   0  0  0  0  0  3  0  0  0  0  0  0
  188.4930  178.3700  139.4610 C   0  0  0  0  0  3  0  0  0  0  0  0
  189.5580  177.9530  138.6590 C   0  0  0  0  0  3  0  0  0  0  0  0
  190.4670  176.7030  140.5150 C   0  0  0  0  0  3  0  0  0  0  0  0
  188.4030  177.9550  140.7980 C   0  0  0  0  0  0  0  0  0  0  0  0
  189.4020  177.1200  141.3170 C   0  0  0  0  0  3  0  0  0  0  0  0
  190.5540  177.1140  139.1820 C   0  0  0  0  0  0  0  0  0  0  0  0
  190.9640  174.4610  137.9660 O   0  0  0  0  0  0  0  0  0  0  0  0
  191.6610  176.6640  138.3910 N   0  0  0  0  0  2  0  0  0  0  0  0
  193.0500  175.0740  137.0160 C   0  0  0  0  0  1  0  0  0  0  0  0
  191.8290  175.3640  137.8120 C   0  0  0  0  0  0  0  0  0  0  0  0
  182.8360  178.3380  139.6720 C   0  0  0  0  0  2  0  0  0  0  0  0
  182.1240  177.1570  140.1270 N   0  0  0  0  0  2  0  0  0  0  0  0
  182.6220  176.0420  139.3440 C   0  0  0  0  0  1  0  0  0  0  0  0
  1 19  1  6  0  0  0
  1  5  1  0  0  0  0
  2  4  2  0  0  0  0
  3  6  2  0  0  0  0
  4  3  1  0  0  0  0
  5  8  2  0  0  0  0
  5  7  1  0  0  0  0
  6  8  1  0  0  0  0
  7 10  1  0  0  0  0
  9  2  1  6  0  0  0
  9  1  1  0  0  0  0
  9  6  1  0  0  0  0
 10 13  2  0  0  0  0
 10 12  1  0  0  0  0
 11 15  1  0  0  0  0
 12 11  2  0  0  0  0
 13 14  1  0  0  0  0
 14 15  2  0  0  0  0
 16 19  1  0  0  0  0
 17 21  1  0  0  0  0
 17 16  2  0  0  0  0
 18 20  1  0  0  0  0
 19 20  2  0  0  0  0
 21 18  2  0  0  0  0
 23 21  1  0  0  0  0
 24 25  1  0  0  0  0
 25 22  2  0  0  0  0
 25 23  1  0  0  0  0
 26 27  1  0  0  0  0
 26  4  1  0  0  0  0
 28 27  1  0  0  0  0
M  END
>  <MODEL>
8

>  <REMARK>
 VINA RESULT:      -8.0      2.469      6.382
  Name = 
  5 active torsions:
  status: ('A' for Active; 'I' for Inactive)
    1  A    between atoms: C_1  and  N_26
    2  A    between atoms: C_4  and  C_13
    3  A    between atoms: C_4  and  N_15
    4  A    between atoms: C_5  and  C_16
    5  A    between atoms: N_17  and  C_24
                            x       y       z     vdW  Elec       q    Type
                         _______ _______ _______ _____ _____    ______ ____

>  <TORSDO>
F 5

$$$$
=
 OpenBabel10222418283D

 28 31  0  0  1  0  0  0  0  0999 V2000
  187.8700  178.1880  141.8190 C   0  0  2  0  0  3  0  0  0  0  0  0
  185.4420  178.4920  141.0380 C   0  0  0  0  0  3  0  0  0  0  0  0
  184.9040  178.2960  143.3240 C   0  0  0  0  0  3  0  0  0  0  0  0
  184.4330  178.3870  141.9170 C   0  0  2  0  0  3  0  0  0  0  0  0
  188.2520  177.9290  143.2360 C   0  0  0  0  0  0  0  0  0  0  0  0
  186.2010  178.5100  143.2290 C   0  0  0  0  0  0  0  0  0  0  0  0
  189.5540  177.4810  143.6390 N   0  0  0  0  0  2  0  0  0  0  0  0
  187.2580  178.0800  144.0690 N   0  0  0  0  0  0  0  0  0  0  0  0
  186.6080  178.5840  141.8930 C   0  0  0  0  0  0  0  0  0  0  0  0
  189.9920  177.1990  144.9750 C   0  0  0  0  0  0  0  0  0  0  0  0
  189.5820  176.8800  147.3420 C   0  0  0  0  0  3  0  0  0  0  0  0
  189.1060  177.1560  146.0590 C   0  0  0  0  0  3  0  0  0  0  0  0
  191.3490  176.9610  145.2080 C   0  0  0  0  0  3  0  0  0  0  0  0
  191.7950  176.6940  146.4650 N   0  0  0  0  0  0  0  0  0  0  0  0
  190.9450  176.6490  147.5270 C   0  0  0  0  0  3  0  0  0  0  0  0
  188.1660  178.2440  139.3330 C   0  0  0  0  0  3  0  0  0  0  0  0
  188.8800  177.9110  138.1790 C   0  0  0  0  0  3  0  0  0  0  0  0
  190.5180  176.7550  139.5260 C   0  0  0  0  0  3  0  0  0  0  0  0
  188.6200  177.8320  140.5940 C   0  0  0  0  0  0  0  0  0  0  0  0
  189.8030  177.0870  140.6800 C   0  0  0  0  0  3  0  0  0  0  0  0
  190.0630  177.1620  138.2690 C   0  0  0  0  0  0  0  0  0  0  0  0
  189.4690  175.0670  136.2830 O   0  0  0  0  0  0  0  0  0  0  0  0
  190.8240  176.8000  137.1090 N   0  0  0  0  0  2  0  0  0  0  0  0
  191.4150  175.5380  135.0100 C   0  0  0  0  0  1  0  0  0  0  0  0
  190.5050  175.7740  136.1610 C   0  0  0  0  0  0  0  0  0  0  0  0
  183.0130  178.2030  141.5100 C   0  0  0  0  0  2  0  0  0  0  0  0
  182.1430  178.9220  142.4230 N   0  0  0  0  0  2  0  0  0  0  0  0
  180.7980  178.8140  141.8890 C   0  0  0  0  0  1  0  0  0  0  0  0
  1 19  1  6  0  0  0
  1  9  1  0  0  0  0
  1  5  1  0  0  0  0
  2  9  2  0  0  0  0
  2  4  1  0  0  0  0
  4 26  1  6  0  0  0
  4  3  1  0  0  0  0
  5  7  1  0  0  0  0
  5  8  2  0  0  0  0
  6  3  2  0  0  0  0
  6  8  1  0  0  0  0
  7 10  1  0  0  0  0
  9  6  1  0  0  0  0
 10 13  2  0  0  0  0
 10 12  1  0  0  0  0
 11 15  1  0  0  0  0
 12 11  2  0  0  0  0
 13 14  1  0  0  0  0
 14 15  2  0  0  0  0
 16 19  1  0  0  0  0
 17 21  1  0  0  0  0
 17 16  2  0  0  0  0
 18 20  1  0  0  0  0
 19 20  2  0  0  0  0
 21 18  2  0  0  0  0
 23 21  1  0  0  0  0
 24 25  1  0  0  0  0
 25 22  2  0  0  0  0
 25 23  1  0  0  0  0
 26 27  1  0  0  0  0
 28 27  1  0  0  0  0
M  END
>  <MODEL>
9

>  <REMARK>
 VINA RESULT:      -7.7      2.432      7.539
  Name = 
  5 active torsions:
  status: ('A' for Active; 'I' for Inactive)
    1  A    between atoms: C_1  and  N_26
    2  A    between atoms: C_4  and  C_13
    3  A    between atoms: C_4  and  N_15
    4  A    between atoms: C_5  and  C_16
    5  A    between atoms: N_17  and  C_24
                            x       y       z     vdW  Elec       q    Type
                         _______ _______ _______ _____ _____    ______ ____

>  <TORSDO>
F 5

$$$$
