=
 OpenBabel10222421143D

 37 40  0  0  0  0  0  0  0  0999 V2000
  189.4460  177.2690  145.5590 C   0  0  0  0  0  0  0  0  0  0  0  0
  190.4270  177.4700  144.5590 C   0  0  0  0  0  3  0  0  0  0  0  0
  188.7060  177.9350  142.9570 C   0  0  0  0  0  0  0  0  0  0  0  0
  186.7950  178.3610  142.0270 C   0  0  0  0  0  0  0  0  0  0  0  0
  188.1230  178.2770  141.7890 N   0  0  0  0  0  0  0  0  0  0  0  0
  188.0810  177.4310  145.2400 C   0  0  0  0  0  3  0  0  0  0  0  0
  187.7500  177.7670  143.9300 C   0  0  0  0  0  0  0  0  0  0  0  0
  190.0650  177.8130  143.2450 C   0  0  0  0  0  3  0  0  0  0  0  0
  186.5240  178.0370  143.3530 C   0  0  0  0  0  0  0  0  0  0  0  0
  185.7810  178.7450  141.0020 C   0  0  0  0  0  1  0  0  0  0  0  0
  189.0370  176.3280  147.7000 O   0  0  0  0  0  0  0  0  0  0  0  0
  189.8540  176.9010  146.9300 C   0  0  0  0  0  0  0  0  0  0  0  0
  191.2220  177.2220  147.4420 C   0  0  0  0  0  2  0  0  0  0  0  0
  192.1380  175.2760  146.4170 O   0  0  0  0  0  0  0  0  0  0  0  0
  192.8260  175.6780  148.5660 O   0  0  0  0  0  1  0  0  0  0  0  0
  192.0740  176.0000  147.4430 C   0  0  0  0  0  0  0  0  0  0  0  0
  185.1860  177.9670  144.0090 C   0  0  0  0  0  2  0  0  0  0  0  0
  184.7630  179.3530  144.4630 C   0  0  0  0  0  2  0  0  0  0  0  0
  183.7390  179.8560  143.6110 O   0  0  0  0  0  0  0  0  0  0  0  0
  182.5810  179.1390  143.2830 C   0  0  0  0  0  0  0  0  0  0  0  0
  180.0320  178.9430  141.5730 C   0  0  0  0  0  3  0  0  0  0  0  0
  181.2860  179.1460  141.1700 C   0  0  0  0  0  3  0  0  0  0  0  0
  182.4710  178.6000  141.8950 C   0  0  0  0  0  2  0  0  0  0  0  0
  181.6330  178.9010  144.2010 C   0  0  0  0  0  3  0  0  0  0  0  0
  180.3410  178.2300  143.9570 C   0  0  0  0  0  3  0  0  0  0  0  0
  179.6430  178.2500  142.8160 C   0  0  0  0  0  3  0  0  0  0  0  0
  188.7560  178.6330  140.5840 N   0  0  0  0  0  2  0  0  0  0  0  0
  188.5940  177.0090  138.7690 C   0  0  0  0  0  3  0  0  0  0  0  0
  189.1730  176.0610  137.9220 C   0  0  0  0  0  3  0  0  0  0  0  0
  190.7470  177.4020  139.7990 C   0  0  0  0  0  3  0  0  0  0  0  0
  190.5440  175.7790  138.0030 C   0  0  0  0  0  0  0  0  0  0  0  0
  191.3270  176.4540  138.9510 C   0  0  0  0  0  3  0  0  0  0  0  0
  189.3810  177.6950  139.7000 C   0  0  0  0  0  0  0  0  0  0  0  0
  192.2190  175.1560  136.2330 N   0  0  0  0  0  2  0  0  0  0  0  0
  191.1540  174.7800  137.1080 C   0  0  0  0  0  0  0  0  0  0  0  0
  190.7360  173.5900  137.1100 O   0  0  0  0  0  0  0  0  0  0  0  0
  192.8120  174.2230  135.3730 N   0  0  0  0  0  1  0  0  0  0  0  0
  1 12  1  0  0  0  0
  2  1  2  0  0  0  0
  3  8  2  0  0  0  0
  3  7  1  0  0  0  0
  4  9  2  0  0  0  0
  5  4  1  0  0  0  0
  5  3  1  0  0  0  0
  6  1  1  0  0  0  0
  7  6  2  0  0  0  0
  8  2  1  0  0  0  0
  9  7  1  0  0  0  0
  9 17  1  0  0  0  0
 10  4  1  0  0  0  0
 12 13  1  0  0  0  0
 12 11  2  0  0  0  0
 13 16  1  0  0  0  0
 14 16  2  0  0  0  0
 16 15  1  0  0  0  0
 17 18  1  0  0  0  0
 19 18  1  0  0  0  0
 20 19  1  0  0  0  0
 20 24  2  0  0  0  0
 21 26  1  0  0  0  0
 22 21  2  0  0  0  0
 22 23  1  0  0  0  0
 23 20  1  0  0  0  0
 25 24  1  0  0  0  0
 26 25  2  0  0  0  0
 27  5  1  0  0  0  0
 28 33  1  0  0  0  0
 29 31  1  0  0  0  0
 29 28  2  0  0  0  0
 31 32  2  0  0  0  0
 32 30  1  0  0  0  0
 33 30  2  0  0  0  0
 33 27  1  0  0  0  0
 34 35  1  0  0  0  0
 35 36  2  0  0  0  0
 35 31  1  0  0  0  0
 37 34  1  0  0  0  0
M  END
>  <MODEL>
1

>  <REMARK>
 VINA RESULT:      -8.6      0.000      0.000
  Name = 
  10 active torsions:
  status: ('A' for Active; 'I' for Inactive)
    1  A    between atoms: C_5  and  C_37
    2  A    between atoms: C_10  and  C_22
    3  A    between atoms: C_10  and  C_33
    4  A    between atoms: C_12  and  O_35
    5  A    between atoms: C_14  and  C_21
    6  A    between atoms: N_16  and  N_34
    7  A    between atoms: C_22  and  O_35
    8  A    between atoms: C_29  and  C_31
    9  A    between atoms: C_29  and  C_37
   10  A    between atoms: C_32  and  N_34
                            x       y       z     vdW  Elec       q    Type
                         _______ _______ _______ _____ _____    ______ ____

>  <TORSDO>
F 10

$$$$
=
 OpenBabel10222421143D

 37 40  0  0  0  0  0  0  0  0999 V2000
  191.7320  176.5590  137.8100 C   0  0  0  0  0  0  0  0  0  0  0  0
  190.8140  176.8750  136.7800 C   0  0  0  0  0  3  0  0  0  0  0  0
  189.2110  177.5790  138.4160 C   0  0  0  0  0  0  0  0  0  0  0  0
  188.2580  178.1580  140.2750 C   0  0  0  0  0  0  0  0  0  0  0  0
  188.0730  178.0830  138.9370 N   0  0  0  0  0  0  0  0  0  0  0  0
  191.3750  176.7860  139.1560 C   0  0  0  0  0  3  0  0  0  0  0  0
  190.1070  177.3000  139.4200 C   0  0  0  0  0  0  0  0  0  0  0  0
  189.5430  177.3960  137.0740 C   0  0  0  0  0  3  0  0  0  0  0  0
  189.5150  177.6660  140.6130 C   0  0  0  0  0  0  0  0  0  0  0  0
  187.2480  178.6930  141.2330 C   0  0  0  0  0  1  0  0  0  0  0  0
  193.9260  176.7350  136.9210 O   0  0  0  0  0  0  0  0  0  0  0  0
  193.0590  176.0060  137.4730 C   0  0  0  0  0  0  0  0  0  0  0  0
  193.3930  174.5750  137.7500 C   0  0  0  0  0  2  0  0  0  0  0  0
  195.5800  173.8410  137.1550 O   0  0  0  0  0  0  0  0  0  0  0  0
  195.4200  174.9540  139.1530 O   0  0  0  0  0  1  0  0  0  0  0  0
  194.8540  174.4230  138.0020 C   0  0  0  0  0  0  0  0  0  0  0  0
  190.0930  177.5330  141.9820 C   0  0  0  0  0  2  0  0  0  0  0  0
  189.6540  176.2180  142.6000 C   0  0  0  0  0  2  0  0  0  0  0  0
  189.6950  176.3060  144.0210 O   0  0  0  0  0  0  0  0  0  0  0  0
  188.8130  177.0920  144.7740 C   0  0  0  0  0  0  0  0  0  0  0  0
  187.6090  177.7510  147.5270 C   0  0  0  0  0  3  0  0  0  0  0  0
  188.8940  177.6540  147.1860 C   0  0  0  0  0  3  0  0  0  0  0  0
  189.4000  177.9810  145.8210 C   0  0  0  0  0  2  0  0  0  0  0  0
  187.4960  177.0840  144.5240 C   0  0  0  0  0  3  0  0  0  0  0  0
  186.4640  177.8030  145.2960 C   0  0  0  0  0  3  0  0  0  0  0  0
  186.5110  178.0910  146.6030 C   0  0  0  0  0  3  0  0  0  0  0  0
  186.9570  178.5850  138.2430 N   0  0  0  0  0  2  0  0  0  0  0  0
  184.5740  178.2040  138.6070 C   0  0  0  0  0  3  0  0  0  0  0  0
  183.4100  177.4590  138.4010 C   0  0  0  0  0  3  0  0  0  0  0  0
  185.7970  176.6850  137.1770 C   0  0  0  0  0  3  0  0  0  0  0  0
  183.4290  176.3250  137.5780 C   0  0  0  0  0  0  0  0  0  0  0  0
  184.6330  175.9400  136.9700 C   0  0  0  0  0  3  0  0  0  0  0  0
  185.7690  177.8290  137.9840 C   0  0  0  0  0  0  0  0  0  0  0  0
  182.2720  174.1250  137.1920 N   0  0  0  0  0  2  0  0  0  0  0  0
  182.2000  175.5420  137.3600 C   0  0  0  0  0  0  0  0  0  0  0  0
  181.0790  176.1210  137.3200 O   0  0  0  0  0  0  0  0  0  0  0  0
  181.1170  173.3620  136.9830 N   0  0  0  0  0  1  0  0  0  0  0  0
  1  6  1  0  0  0  0
  2  8  1  0  0  0  0
  2  1  2  0  0  0  0
  3  5  1  0  0  0  0
  3  7  1  0  0  0  0
  4  9  2  0  0  0  0
  4 10  1  0  0  0  0
  5  4  1  0  0  0  0
  6  7  2  0  0  0  0
  7  9  1  0  0  0  0
  8  3  2  0  0  0  0
  9 17  1  0  0  0  0
 11 12  2  0  0  0  0
 12 13  1  0  0  0  0
 12  1  1  0  0  0  0
 13 16  1  0  0  0  0
 14 16  2  0  0  0  0
 16 15  1  0  0  0  0
 17 18  1  0  0  0  0
 18 19  1  0  0  0  0
 19 20  1  0  0  0  0
 20 23  1  0  0  0  0
 22 21  2  0  0  0  0
 23 22  1  0  0  0  0
 24 20  2  0  0  0  0
 24 25  1  0  0  0  0
 25 26  2  0  0  0  0
 26 21  1  0  0  0  0
 27  5  1  0  0  0  0
 29 28  1  0  0  0  0
 30 33  1  0  0  0  0
 31 29  2  0  0  0  0
 32 30  2  0  0  0  0
 32 31  1  0  0  0  0
 33 27  1  0  0  0  0
 33 28  2  0  0  0  0
 34 35  1  0  0  0  0
 35 31  1  0  0  0  0
 36 35  2  0  0  0  0
 37 34  1  0  0  0  0
M  END
>  <MODEL>
2

>  <REMARK>
 VINA RESULT:      -8.5      3.669      7.566
  Name = 
  10 active torsions:
  status: ('A' for Active; 'I' for Inactive)
    1  A    between atoms: C_5  and  C_37
    2  A    between atoms: C_10  and  C_22
    3  A    between atoms: C_10  and  C_33
    4  A    between atoms: C_12  and  O_35
    5  A    between atoms: C_14  and  C_21
    6  A    between atoms: N_16  and  N_34
    7  A    between atoms: C_22  and  O_35
    8  A    between atoms: C_29  and  C_31
    9  A    between atoms: C_29  and  C_37
   10  A    between atoms: C_32  and  N_34
                            x       y       z     vdW  Elec       q    Type
                         _______ _______ _______ _____ _____    ______ ____

>  <TORSDO>
F 10

$$$$
=
 OpenBabel10222421143D

 37 40  0  0  0  0  0  0  0  0999 V2000
  185.1500  178.7510  142.7540 C   0  0  0  0  0  0  0  0  0  0  0  0
  184.3760  178.7770  141.5680 C   0  0  0  0  0  3  0  0  0  0  0  0
  186.3650  178.5070  140.2580 C   0  0  0  0  0  0  0  0  0  0  0  0
  188.4110  178.1510  139.6380 C   0  0  0  0  0  0  0  0  0  0  0  0
  187.1550  178.3440  139.1760 N   0  0  0  0  0  0  0  0  0  0  0  0
  186.5480  178.5760  142.6700 C   0  0  0  0  0  3  0  0  0  0  0  0
  187.1180  178.4550  141.4060 C   0  0  0  0  0  0  0  0  0  0  0  0
  184.9780  178.6480  140.3050 C   0  0  0  0  0  3  0  0  0  0  0  0
  188.4270  178.2260  141.0280 C   0  0  0  0  0  0  0  0  0  0  0  0
  189.5960  177.8970  138.7680 C   0  0  0  0  0  1  0  0  0  0  0  0
  183.2870  178.5560  144.2110 O   0  0  0  0  0  0  0  0  0  0  0  0
  184.4920  178.8970  144.0680 C   0  0  0  0  0  0  0  0  0  0  0  0
  185.2230  179.4700  145.2390 C   0  0  0  0  0  2  0  0  0  0  0  0
  185.8120  177.2660  145.9270 O   0  0  0  0  0  0  0  0  0  0  0  0
  185.2980  178.7260  147.6180 O   0  0  0  0  0  1  0  0  0  0  0  0
  185.4510  178.4210  146.2720 C   0  0  0  0  0  0  0  0  0  0  0  0
  189.6150  178.1110  141.9230 C   0  0  0  0  0  2  0  0  0  0  0  0
  189.9920  176.6510  142.0940 C   0  0  0  0  0  2  0  0  0  0  0  0
  189.5330  176.1700  143.3540 O   0  0  0  0  0  0  0  0  0  0  0  0
  189.8940  176.7430  144.5800 C   0  0  0  0  0  0  0  0  0  0  0  0
  191.3150  176.4240  147.2890 C   0  0  0  0  0  3  0  0  0  0  0  0
  191.7920  176.1770  146.0690 C   0  0  0  0  0  3  0  0  0  0  0  0
  191.3500  176.9270  144.8570 C   0  0  0  0  0  2  0  0  0  0  0  0
  188.9610  177.1590  145.4480 C   0  0  0  0  0  3  0  0  0  0  0  0
  189.2140  177.7010  146.7980 C   0  0  0  0  0  3  0  0  0  0  0  0
  190.2360  177.3800  147.6000 C   0  0  0  0  0  3  0  0  0  0  0  0
  186.7590  178.2350  137.8300 N   0  0  0  0  0  2  0  0  0  0  0  0
  184.8310  177.0220  136.9540 C   0  0  0  0  0  3  0  0  0  0  0  0
  184.2500  175.8650  136.4280 C   0  0  0  0  0  3  0  0  0  0  0  0
  186.9720  175.9010  137.0540 C   0  0  0  0  0  3  0  0  0  0  0  0
  185.0260  174.7190  136.2070 C   0  0  0  0  0  0  0  0  0  0  0  0
  186.3920  174.7440  136.5280 C   0  0  0  0  0  3  0  0  0  0  0  0
  186.1960  177.0510  137.2550 C   0  0  0  0  0  0  0  0  0  0  0  0
  184.5960  172.2430  136.3030 N   0  0  0  0  0  2  0  0  0  0  0  0
  184.4140  173.5000  135.6500 C   0  0  0  0  0  0  0  0  0  0  0  0
  183.7260  173.5640  134.5940 O   0  0  0  0  0  0  0  0  0  0  0  0
  184.0240  171.0720  135.7900 N   0  0  0  0  0  1  0  0  0  0  0  0
  1 12  1  0  0  0  0
  2  1  2  0  0  0  0
  3  8  2  0  0  0  0
  3  7  1  0  0  0  0
  4  9  2  0  0  0  0
  5  4  1  0  0  0  0
  5  3  1  0  0  0  0
  6  1  1  0  0  0  0
  7  6  2  0  0  0  0
  8  2  1  0  0  0  0
  9  7  1  0  0  0  0
  9 17  1  0  0  0  0
 10  4  1  0  0  0  0
 12 11  2  0  0  0  0
 12 13  1  0  0  0  0
 13 16  1  0  0  0  0
 14 16  2  0  0  0  0
 16 15  1  0  0  0  0
 17 18  1  0  0  0  0
 18 19  1  0  0  0  0
 19 20  1  0  0  0  0
 20 23  1  0  0  0  0
 20 24  2  0  0  0  0
 21 26  1  0  0  0  0
 22 21  2  0  0  0  0
 23 22  1  0  0  0  0
 24 25  1  0  0  0  0
 25 26  2  0  0  0  0
 27  5  1  0  0  0  0
 28 33  1  0  0  0  0
 29 28  2  0  0  0  0
 30 33  2  0  0  0  0
 31 29  1  0  0  0  0
 31 32  2  0  0  0  0
 32 30  1  0  0  0  0
 33 27  1  0  0  0  0
 35 31  1  0  0  0  0
 35 34  1  0  0  0  0
 36 35  2  0  0  0  0
 37 34  1  0  0  0  0
M  END
>  <MODEL>
3

>  <REMARK>
 VINA RESULT:      -8.5      3.411      6.902
  Name = 
  10 active torsions:
  status: ('A' for Active; 'I' for Inactive)
    1  A    between atoms: C_5  and  C_37
    2  A    between atoms: C_10  and  C_22
    3  A    between atoms: C_10  and  C_33
    4  A    between atoms: C_12  and  O_35
    5  A    between atoms: C_14  and  C_21
    6  A    between atoms: N_16  and  N_34
    7  A    between atoms: C_22  and  O_35
    8  A    between atoms: C_29  and  C_31
    9  A    between atoms: C_29  and  C_37
   10  A    between atoms: C_32  and  N_34
                            x       y       z     vdW  Elec       q    Type
                         _______ _______ _______ _____ _____    ______ ____

>  <TORSDO>
F 10

$$$$
=
 OpenBabel10222421143D

 37 40  0  0  0  0  0  0  0  0999 V2000
  187.0700  178.3920  139.3490 C   0  0  0  0  0  0  0  0  0  0  0  0
  186.1390  178.2230  138.2960 C   0  0  0  0  0  3  0  0  0  0  0  0
  184.3300  178.4740  139.8470 C   0  0  0  0  0  0  0  0  0  0  0  0
  183.1620  178.8740  141.6290 C   0  0  0  0  0  0  0  0  0  0  0  0
  183.0680  178.5790  140.3120 N   0  0  0  0  0  0  0  0  0  0  0  0
  186.6040  178.6280  140.6600 C   0  0  0  0  0  3  0  0  0  0  0  0
  185.2280  178.6640  140.8690 C   0  0  0  0  0  0  0  0  0  0  0  0
  184.7550  178.2690  138.5350 C   0  0  0  0  0  3  0  0  0  0  0  0
  184.4990  178.9240  142.0140 C   0  0  0  0  0  0  0  0  0  0  0  0
  181.9920  179.1080  142.5230 C   0  0  0  0  0  1  0  0  0  0  0  0
  189.1170  179.3440  138.6160 O   0  0  0  0  0  0  0  0  0  0  0  0
  188.5190  178.3320  139.0710 C   0  0  0  0  0  0  0  0  0  0  0  0
  189.2970  177.0750  139.2930 C   0  0  0  0  0  2  0  0  0  0  0  0
  191.3280  177.4370  140.4840 O   0  0  0  0  0  0  0  0  0  0  0  0
  189.4840  177.0150  141.7790 O   0  0  0  0  0  1  0  0  0  0  0  0
  190.0990  177.1760  140.5440 C   0  0  0  0  0  0  0  0  0  0  0  0
  185.0340  179.1760  143.3830 C   0  0  0  0  0  2  0  0  0  0  0  0
  185.5940  177.8880  143.9620 C   0  0  0  0  0  2  0  0  0  0  0  0
  187.0030  177.9990  144.1310 O   0  0  0  0  0  0  0  0  0  0  0  0
  187.6750  177.6210  145.3010 C   0  0  0  0  0  0  0  0  0  0  0  0
  188.4260  178.2900  148.2080 C   0  0  0  0  0  3  0  0  0  0  0  0
  187.2170  178.2790  147.6460 C   0  0  0  0  0  3  0  0  0  0  0  0
  186.8520  177.3680  146.5210 C   0  0  0  0  0  2  0  0  0  0  0  0
  189.0040  177.4430  145.3070 C   0  0  0  0  0  3  0  0  0  0  0  0
  189.8300  177.1250  146.4880 C   0  0  0  0  0  3  0  0  0  0  0  0
  189.5810  177.4960  147.7500 C   0  0  0  0  0  3  0  0  0  0  0  0
  181.8720  178.5490  139.5710 N   0  0  0  0  0  2  0  0  0  0  0  0
  181.4950  180.8550  138.8660 C   0  0  0  0  0  3  0  0  0  0  0  0
  181.1360  181.7930  137.8950 C   0  0  0  0  0  3  0  0  0  0  0  0
  181.1920  179.0740  137.2570 C   0  0  0  0  0  3  0  0  0  0  0  0
  180.8060  181.3800  136.5960 C   0  0  0  0  0  0  0  0  0  0  0  0
  180.8330  180.0120  136.2860 C   0  0  0  0  0  3  0  0  0  0  0  0
  181.5400  179.4940  138.5480 C   0  0  0  0  0  0  0  0  0  0  0  0
  180.8830  183.7200  135.6790 N   0  0  0  0  0  2  0  0  0  0  0  0
  180.4300  182.3700  135.5720 C   0  0  0  0  0  0  0  0  0  0  0  0
  179.7050  182.0270  134.5980 O   0  0  0  0  0  0  0  0  0  0  0  0
  180.5350  184.6780  134.7180 N   0  0  0  0  0  1  0  0  0  0  0  0
  1  6  1  0  0  0  0
  2  8  1  0  0  0  0
  2  1  2  0  0  0  0
  3  5  1  0  0  0  0
  3  7  1  0  0  0  0
  4  9  2  0  0  0  0
  4 10  1  0  0  0  0
  5  4  1  0  0  0  0
  6  7  2  0  0  0  0
  7  9  1  0  0  0  0
  8  3  2  0  0  0  0
  9 17  1  0  0  0  0
 11 12  2  0  0  0  0
 12 13  1  0  0  0  0
 12  1  1  0  0  0  0
 13 16  1  0  0  0  0
 14 16  2  0  0  0  0
 16 15  1  0  0  0  0
 17 18  1  0  0  0  0
 18 19  1  0  0  0  0
 19 20  1  0  0  0  0
 20 24  2  0  0  0  0
 20 23  1  0  0  0  0
 22 21  2  0  0  0  0
 23 22  1  0  0  0  0
 24 25  1  0  0  0  0
 25 26  2  0  0  0  0
 26 21  1  0  0  0  0
 27  5  1  0  0  0  0
 29 28  2  0  0  0  0
 30 33  2  0  0  0  0
 31 29  1  0  0  0  0
 32 31  2  0  0  0  0
 32 30  1  0  0  0  0
 33 28  1  0  0  0  0
 33 27  1  0  0  0  0
 35 34  1  0  0  0  0
 35 31  1  0  0  0  0
 36 35  2  0  0  0  0
 37 34  1  0  0  0  0
M  END
>  <MODEL>
4

>  <REMARK>
 VINA RESULT:      -8.5      4.435      8.554
  Name = 
  10 active torsions:
  status: ('A' for Active; 'I' for Inactive)
    1  A    between atoms: C_5  and  C_37
    2  A    between atoms: C_10  and  C_22
    3  A    between atoms: C_10  and  C_33
    4  A    between atoms: C_12  and  O_35
    5  A    between atoms: C_14  and  C_21
    6  A    between atoms: N_16  and  N_34
    7  A    between atoms: C_22  and  O_35
    8  A    between atoms: C_29  and  C_31
    9  A    between atoms: C_29  and  C_37
   10  A    between atoms: C_32  and  N_34
                            x       y       z     vdW  Elec       q    Type
                         _______ _______ _______ _____ _____    ______ ____

>  <TORSDO>
F 10

$$$$
=
 OpenBabel10222421143D

 37 40  0  0  0  0  0  0  0  0999 V2000
  184.5620  178.8680  143.9720 C   0  0  0  0  0  0  0  0  0  0  0  0
  183.2630  178.7490  143.4200 C   0  0  0  0  0  3  0  0  0  0  0  0
  184.2020  178.6390  141.2180 C   0  0  0  0  0  0  0  0  0  0  0  0
  185.5830  178.4830  139.5550 C   0  0  0  0  0  0  0  0  0  0  0  0
  184.2700  178.5120  139.8760 N   0  0  0  0  0  0  0  0  0  0  0  0
  185.6860  178.8470  143.1190 C   0  0  0  0  0  3  0  0  0  0  0  0
  185.4660  178.7280  141.7490 C   0  0  0  0  0  0  0  0  0  0  0  0
  183.0710  178.6270  142.0340 C   0  0  0  0  0  3  0  0  0  0  0  0
  186.3600  178.6280  140.7000 C   0  0  0  0  0  0  0  0  0  0  0  0
  186.1040  178.3220  138.1670 C   0  0  0  0  0  1  0  0  0  0  0  0
  183.7530  178.8260  146.2030 O   0  0  0  0  0  0  0  0  0  0  0  0
  184.7340  179.0040  145.4320 C   0  0  0  0  0  0  0  0  0  0  0  0
  186.0560  179.3770  146.0230 C   0  0  0  0  0  2  0  0  0  0  0  0
  187.1850  178.5520  147.9520 O   0  0  0  0  0  1  0  0  0  0  0  0
  186.3180  176.9540  146.5560 O   0  0  0  0  0  0  0  0  0  0  0  0
  186.5620  178.2790  146.8940 C   0  0  0  0  0  0  0  0  0  0  0  0
  187.8490  178.6910  140.7780 C   0  0  0  0  0  2  0  0  0  0  0  0
  188.4440  177.3720  140.3210 C   0  0  0  0  0  2  0  0  0  0  0  0
  189.7940  177.2640  140.7610 O   0  0  0  0  0  0  0  0  0  0  0  0
  190.1600  177.0800  142.1010 C   0  0  0  0  0  0  0  0  0  0  0  0
  189.4190  177.3780  145.0720 C   0  0  0  0  0  3  0  0  0  0  0  0
  188.7110  176.8130  144.0940 C   0  0  0  0  0  3  0  0  0  0  0  0
  189.3400  176.1390  142.9200 C   0  0  0  0  0  2  0  0  0  0  0  0
  191.2410  177.6890  142.6110 C   0  0  0  0  0  3  0  0  0  0  0  0
  191.6800  177.6380  144.0190 C   0  0  0  0  0  3  0  0  0  0  0  0
  190.8880  177.5050  145.0900 C   0  0  0  0  0  3  0  0  0  0  0  0
  183.2090  178.2930  138.9780 N   0  0  0  0  0  2  0  0  0  0  0  0
  182.5890  180.6510  138.8590 C   0  0  0  0  0  3  0  0  0  0  0  0
  181.8010  181.6830  138.3440 C   0  0  0  0  0  3  0  0  0  0  0  0
  181.4290  179.0620  137.4520 C   0  0  0  0  0  3  0  0  0  0  0  0
  180.8240  181.4140  137.3750 C   0  0  0  0  0  0  0  0  0  0  0  0
  180.6410  180.0950  136.9350 C   0  0  0  0  0  3  0  0  0  0  0  0
  182.4170  179.3390  138.4050 C   0  0  0  0  0  0  0  0  0  0  0  0
  180.0620  183.8110  137.4020 N   0  0  0  0  0  2  0  0  0  0  0  0
  179.9950  182.5030  136.8300 C   0  0  0  0  0  0  0  0  0  0  0  0
  179.2230  182.2840  135.8560 O   0  0  0  0  0  0  0  0  0  0  0  0
  179.2810  184.8600  136.9010 N   0  0  0  0  0  1  0  0  0  0  0  0
  1 12  1  0  0  0  0
  2  1  1  0  0  0  0
  3  7  2  0  0  0  0
  3  8  1  0  0  0  0
  4  5  1  0  0  0  0
  4  9  2  0  0  0  0
  5  3  1  0  0  0  0
  6  1  2  0  0  0  0
  7  6  1  0  0  0  0
  8  2  2  0  0  0  0
  9 17  1  0  0  0  0
  9  7  1  0  0  0  0
 10  4  1  0  0  0  0
 12 13  1  0  0  0  0
 12 11  2  0  0  0  0
 13 16  1  0  0  0  0
 15 16  2  0  0  0  0
 16 14  1  0  0  0  0
 18 19  1  0  0  0  0
 18 17  1  0  0  0  0
 19 20  1  0  0  0  0
 20 24  2  0  0  0  0
 20 23  1  0  0  0  0
 21 26  1  0  0  0  0
 22 21  2  0  0  0  0
 23 22  1  0  0  0  0
 24 25  1  0  0  0  0
 25 26  2  0  0  0  0
 27  5  1  0  0  0  0
 29 28  2  0  0  0  0
 30 33  2  0  0  0  0
 31 29  1  0  0  0  0
 32 31  2  0  0  0  0
 32 30  1  0  0  0  0
 33 28  1  0  0  0  0
 33 27  1  0  0  0  0
 35 31  1  0  0  0  0
 35 34  1  0  0  0  0
 36 35  2  0  0  0  0
 37 34  1  0  0  0  0
M  END
>  <MODEL>
5

>  <REMARK>
 VINA RESULT:      -8.4      4.047      8.526
  Name = 
  10 active torsions:
  status: ('A' for Active; 'I' for Inactive)
    1  A    between atoms: C_5  and  C_37
    2  A    between atoms: C_10  and  C_22
    3  A    between atoms: C_10  and  C_33
    4  A    between atoms: C_12  and  O_35
    5  A    between atoms: C_14  and  C_21
    6  A    between atoms: N_16  and  N_34
    7  A    between atoms: C_22  and  O_35
    8  A    between atoms: C_29  and  C_31
    9  A    between atoms: C_29  and  C_37
   10  A    between atoms: C_32  and  N_34
                            x       y       z     vdW  Elec       q    Type
                         _______ _______ _______ _____ _____    ______ ____

>  <TORSDO>
F 10

$$$$
=
 OpenBabel10222421143D

 37 40  0  0  0  0  0  0  0  0999 V2000
  184.8490  178.7380  145.1060 C   0  0  0  0  0  0  0  0  0  0  0  0
  183.4570  178.7170  144.8460 C   0  0  0  0  0  3  0  0  0  0  0  0
  183.8870  178.9170  142.4970 C   0  0  0  0  0  0  0  0  0  0  0  0
  184.8620  178.9880  140.5630 C   0  0  0  0  0  0  0  0  0  0  0  0
  183.6540  178.9860  141.1690 N   0  0  0  0  0  0  0  0  0  0  0  0
  185.7570  178.8260  144.0300 C   0  0  0  0  0  3  0  0  0  0  0  0
  185.2390  178.9120  142.7400 C   0  0  0  0  0  0  0  0  0  0  0  0
  182.9610  178.8010  143.5340 C   0  0  0  0  0  3  0  0  0  0  0  0
  185.8770  178.9540  141.5150 C   0  0  0  0  0  0  0  0  0  0  0  0
  185.0600  179.0230  139.0850 C   0  0  0  0  0  1  0  0  0  0  0  0
  184.5770  178.2580  147.4140 O   0  0  0  0  0  0  0  0  0  0  0  0
  185.3420  178.6570  146.4950 C   0  0  0  0  0  0  0  0  0  0  0  0
  186.7360  179.0680  146.8460 C   0  0  0  0  0  2  0  0  0  0  0  0
  187.3940  176.8000  147.1630 O   0  0  0  0  0  0  0  0  0  0  0  0
  188.1240  178.2740  148.7600 O   0  0  0  0  0  1  0  0  0  0  0  0
  187.4230  177.9800  147.5980 C   0  0  0  0  0  0  0  0  0  0  0  0
  187.3470  178.9860  141.2680 C   0  0  0  0  0  2  0  0  0  0  0  0
  187.9070  177.5750  141.3100 C   0  0  0  0  0  2  0  0  0  0  0  0
  189.2940  177.6070  141.6330 O   0  0  0  0  0  0  0  0  0  0  0  0
  189.8280  177.0740  142.8140 C   0  0  0  0  0  0  0  0  0  0  0  0
  191.0740  177.5910  145.5780 C   0  0  0  0  0  3  0  0  0  0  0  0
  189.9460  178.0890  145.0710 C   0  0  0  0  0  3  0  0  0  0  0  0
  189.1000  177.3500  144.0880 C   0  0  0  0  0  2  0  0  0  0  0  0
  190.9210  176.3000  142.7880 C   0  0  0  0  0  3  0  0  0  0  0  0
  191.6200  175.7490  143.9660 C   0  0  0  0  0  3  0  0  0  0  0  0
  191.6890  176.3110  145.1790 C   0  0  0  0  0  3  0  0  0  0  0  0
  182.4140  178.9150  140.5080 N   0  0  0  0  0  2  0  0  0  0  0  0
  182.6390  176.5890  139.8050 C   0  0  0  0  0  3  0  0  0  0  0  0
  182.0880  175.3990  139.3200 C   0  0  0  0  0  3  0  0  0  0  0  0
  180.4480  177.6130  139.7790 C   0  0  0  0  0  3  0  0  0  0  0  0
  180.7130  175.3050  139.0660 C   0  0  0  0  0  0  0  0  0  0  0  0
  179.8960  176.4230  139.2950 C   0  0  0  0  0  3  0  0  0  0  0  0
  181.8200  177.6950  140.0510 C   0  0  0  0  0  0  0  0  0  0  0  0
  180.8710  173.2360  137.6450 N   0  0  0  0  0  2  0  0  0  0  0  0
  180.1320  174.0500  138.5580 C   0  0  0  0  0  0  0  0  0  0  0  0
  178.9810  173.6910  138.9280 O   0  0  0  0  0  0  0  0  0  0  0  0
  180.3380  172.0400  137.1490 N   0  0  0  0  0  1  0  0  0  0  0  0
  1 12  1  0  0  0  0
  2  1  1  0  0  0  0
  3  7  2  0  0  0  0
  3  8  1  0  0  0  0
  4  5  1  0  0  0  0
  4  9  2  0  0  0  0
  5  3  1  0  0  0  0
  6  1  2  0  0  0  0
  7  6  1  0  0  0  0
  8  2  2  0  0  0  0
  9  7  1  0  0  0  0
 10  4  1  0  0  0  0
 12 13  1  0  0  0  0
 12 11  2  0  0  0  0
 13 16  1  0  0  0  0
 14 16  2  0  0  0  0
 16 15  1  0  0  0  0
 17 18  1  0  0  0  0
 17  9  1  0  0  0  0
 18 19  1  0  0  0  0
 19 20  1  0  0  0  0
 20 23  1  0  0  0  0
 22 21  2  0  0  0  0
 23 22  1  0  0  0  0
 24 20  2  0  0  0  0
 24 25  1  0  0  0  0
 25 26  2  0  0  0  0
 26 21  1  0  0  0  0
 27  5  1  0  0  0  0
 28 33  1  0  0  0  0
 29 28  2  0  0  0  0
 30 33  2  0  0  0  0
 31 32  2  0  0  0  0
 31 29  1  0  0  0  0
 32 30  1  0  0  0  0
 33 27  1  0  0  0  0
 34 35  1  0  0  0  0
 35 36  2  0  0  0  0
 35 31  1  0  0  0  0
 37 34  1  0  0  0  0
M  END
>  <MODEL>
6

>  <REMARK>
 VINA RESULT:      -8.4      3.960      7.776
  Name = 
  10 active torsions:
  status: ('A' for Active; 'I' for Inactive)
    1  A    between atoms: C_5  and  C_37
    2  A    between atoms: C_10  and  C_22
    3  A    between atoms: C_10  and  C_33
    4  A    between atoms: C_12  and  O_35
    5  A    between atoms: C_14  and  C_21
    6  A    between atoms: N_16  and  N_34
    7  A    between atoms: C_22  and  O_35
    8  A    between atoms: C_29  and  C_31
    9  A    between atoms: C_29  and  C_37
   10  A    between atoms: C_32  and  N_34
                            x       y       z     vdW  Elec       q    Type
                         _______ _______ _______ _____ _____    ______ ____

>  <TORSDO>
F 10

$$$$
=
 OpenBabel10222421143D

 37 40  0  0  0  0  0  0  0  0999 V2000
  184.2210  178.9030  142.4250 C   0  0  0  0  0  0  0  0  0  0  0  0
  183.6910  178.9220  141.1130 C   0  0  0  0  0  3  0  0  0  0  0  0
  185.8930  178.6280  140.2130 C   0  0  0  0  0  0  0  0  0  0  0  0
  188.0180  178.2530  140.0030 C   0  0  0  0  0  0  0  0  0  0  0  0
  186.8760  178.4490  139.3060 N   0  0  0  0  0  0  0  0  0  0  0  0
  185.6070  178.7190  142.6150 C   0  0  0  0  0  3  0  0  0  0  0  0
  186.4110  178.5820  141.4850 C   0  0  0  0  0  0  0  0  0  0  0  0
  184.5250  178.7770  139.9900 C   0  0  0  0  0  3  0  0  0  0  0  0
  187.7660  178.3420  141.3690 C   0  0  0  0  0  0  0  0  0  0  0  0
  189.3460  177.9850  139.3810 C   0  0  0  0  0  1  0  0  0  0  0  0
  183.6890  179.7540  144.5760 O   0  0  0  0  0  0  0  0  0  0  0  0
  183.3230  179.0640  143.5860 C   0  0  0  0  0  0  0  0  0  0  0  0
  181.9860  178.3980  143.6280 C   0  0  0  0  0  2  0  0  0  0  0  0
  180.3780  178.6610  141.8900 O   0  0  0  0  0  0  0  0  0  0  0  0
  180.7080  180.5000  143.2170 O   0  0  0  0  0  1  0  0  0  0  0  0
  180.9890  179.1900  142.8540 C   0  0  0  0  0  0  0  0  0  0  0  0
  188.7580  178.2290  142.4780 C   0  0  0  0  0  2  0  0  0  0  0  0
  188.9430  176.7700  142.8560 C   0  0  0  0  0  2  0  0  0  0  0  0
  188.1130  176.4420  143.9660 O   0  0  0  0  0  0  0  0  0  0  0  0
  188.0440  177.2090  145.1360 C   0  0  0  0  0  0  0  0  0  0  0  0
  188.6840  177.4560  148.1340 C   0  0  0  0  0  3  0  0  0  0  0  0
  189.5090  177.1460  147.1340 C   0  0  0  0  0  3  0  0  0  0  0  0
  189.3300  177.6620  145.7450 C   0  0  0  0  0  2  0  0  0  0  0  0
  186.8620  177.5670  145.6570 C   0  0  0  0  0  3  0  0  0  0  0  0
  186.6590  178.3020  146.9210 C   0  0  0  0  0  3  0  0  0  0  0  0
  187.4500  178.2520  148.0000 C   0  0  0  0  0  3  0  0  0  0  0  0
  186.7470  178.3300  137.9100 N   0  0  0  0  0  2  0  0  0  0  0  0
  185.0530  177.0690  136.6860 C   0  0  0  0  0  3  0  0  0  0  0  0
  184.6130  175.8970  136.0650 C   0  0  0  0  0  3  0  0  0  0  0  0
  187.1610  176.0010  137.2040 C   0  0  0  0  0  3  0  0  0  0  0  0
  185.4440  174.7700  136.0040 C   0  0  0  0  0  0  0  0  0  0  0  0
  186.7210  174.8290  136.5820 C   0  0  0  0  0  3  0  0  0  0  0  0
  186.3340  177.1310  137.2440 C   0  0  0  0  0  0  0  0  0  0  0  0
  185.8080  172.3720  135.3390 N   0  0  0  0  0  2  0  0  0  0  0  0
  184.9800  173.5360  135.3470 C   0  0  0  0  0  0  0  0  0  0  0  0
  183.8480  173.5040  134.7890 O   0  0  0  0  0  0  0  0  0  0  0  0
  185.3860  171.1890  134.7190 N   0  0  0  0  0  1  0  0  0  0  0  0
  1  6  1  0  0  0  0
  1 12  1  0  0  0  0
  2  1  2  0  0  0  0
  3  7  1  0  0  0  0
  4  9  2  0  0  0  0
  5  4  1  0  0  0  0
  5  3  1  0  0  0  0
  7  6  2  0  0  0  0
  8  3  2  0  0  0  0
  8  2  1  0  0  0  0
  9  7  1  0  0  0  0
  9 17  1  0  0  0  0
 10  4  1  0  0  0  0
 12 13  1  0  0  0  0
 12 11  2  0  0  0  0
 14 16  2  0  0  0  0
 16 15  1  0  0  0  0
 16 13  1  0  0  0  0
 17 18  1  0  0  0  0
 18 19  1  0  0  0  0
 19 20  1  0  0  0  0
 20 24  2  0  0  0  0
 20 23  1  0  0  0  0
 22 21  2  0  0  0  0
 23 22  1  0  0  0  0
 24 25  1  0  0  0  0
 25 26  2  0  0  0  0
 26 21  1  0  0  0  0
 27  5  1  0  0  0  0
 28 33  1  0  0  0  0
 29 28  2  0  0  0  0
 30 33  2  0  0  0  0
 31 29  1  0  0  0  0
 31 32  2  0  0  0  0
 32 30  1  0  0  0  0
 33 27  1  0  0  0  0
 34 35  1  0  0  0  0
 35 31  1  0  0  0  0
 36 35  2  0  0  0  0
 37 34  1  0  0  0  0
M  END
>  <MODEL>
7

>  <REMARK>
 VINA RESULT:      -8.3      3.193      7.121
  Name = 
  10 active torsions:
  status: ('A' for Active; 'I' for Inactive)
    1  A    between atoms: C_5  and  C_37
    2  A    between atoms: C_10  and  C_22
    3  A    between atoms: C_10  and  C_33
    4  A    between atoms: C_12  and  O_35
    5  A    between atoms: C_14  and  C_21
    6  A    between atoms: N_16  and  N_34
    7  A    between atoms: C_22  and  O_35
    8  A    between atoms: C_29  and  C_31
    9  A    between atoms: C_29  and  C_37
   10  A    between atoms: C_32  and  N_34
                            x       y       z     vdW  Elec       q    Type
                         _______ _______ _______ _____ _____    ______ ____

>  <TORSDO>
F 10

$$$$
=
 OpenBabel10222421143D

 37 40  0  0  0  0  0  0  0  0999 V2000
  189.6820  177.4150  144.9080 C   0  0  0  0  0  0  0  0  0  0  0  0
  190.5970  177.7400  143.8770 C   0  0  0  0  0  3  0  0  0  0  0  0
  188.7720  178.1420  142.3770 C   0  0  0  0  0  0  0  0  0  0  0  0
  186.7920  178.4580  141.5510 C   0  0  0  0  0  0  0  0  0  0  0  0
  188.1110  178.4900  141.2530 N   0  0  0  0  0  0  0  0  0  0  0  0
  188.2950  177.4840  144.6560 C   0  0  0  0  0  3  0  0  0  0  0  0
  187.8780  177.8530  143.3800 C   0  0  0  0  0  0  0  0  0  0  0  0
  190.1480  178.1140  142.5990 C   0  0  0  0  0  3  0  0  0  0  0  0
  186.6100  178.0530  142.8700 C   0  0  0  0  0  0  0  0  0  0  0  0
  185.7050  178.8080  140.5920 C   0  0  0  0  0  1  0  0  0  0  0  0
  191.4210  176.9540  146.4560 O   0  0  0  0  0  0  0  0  0  0  0  0
  190.1810  177.0180  146.2400 C   0  0  0  0  0  0  0  0  0  0  0  0
  189.2380  176.6590  147.3430 C   0  0  0  0  0  2  0  0  0  0  0  0
  189.5340  178.5160  148.8060 O   0  0  0  0  0  1  0  0  0  0  0  0
  187.4750  178.3600  147.8100 O   0  0  0  0  0  0  0  0  0  0  0  0
  188.7610  177.8880  148.0380 C   0  0  0  0  0  0  0  0  0  0  0  0
  185.3130  177.8470  143.5790 C   0  0  0  0  0  2  0  0  0  0  0  0
  184.8780  179.1410  144.2410 C   0  0  0  0  0  2  0  0  0  0  0  0
  183.8120  179.7340  143.5050 O   0  0  0  0  0  0  0  0  0  0  0  0
  182.6110  179.0740  143.2120 C   0  0  0  0  0  0  0  0  0  0  0  0
  180.0000  179.0100  141.5870 C   0  0  0  0  0  3  0  0  0  0  0  0
  181.2480  179.1580  141.1440 C   0  0  0  0  0  3  0  0  0  0  0  0
  182.4300  178.5510  141.8250 C   0  0  0  0  0  2  0  0  0  0  0  0
  181.6850  178.8740  144.1590 C   0  0  0  0  0  3  0  0  0  0  0  0
  180.3550  178.2660  143.9560 C   0  0  0  0  0  3  0  0  0  0  0  0
  179.6200  178.3270  142.8380 C   0  0  0  0  0  3  0  0  0  0  0  0
  188.6580  178.9510  140.0410 N   0  0  0  0  0  2  0  0  0  0  0  0
  190.3320  177.5220  138.9880 C   0  0  0  0  0  3  0  0  0  0  0  0
  190.7600  176.7140  137.9310 C   0  0  0  0  0  3  0  0  0  0  0  0
  188.2220  177.8770  137.8620 C   0  0  0  0  0  3  0  0  0  0  0  0
  189.9200  176.4770  136.8340 C   0  0  0  0  0  0  0  0  0  0  0  0
  188.6490  177.0680  136.8050 C   0  0  0  0  0  3  0  0  0  0  0  0
  189.0570  178.0940  138.9650 C   0  0  0  0  0  0  0  0  0  0  0  0
  190.2790  174.2010  135.8250 N   0  0  0  0  0  2  0  0  0  0  0  0
  190.3710  175.6230  135.7210 C   0  0  0  0  0  0  0  0  0  0  0  0
  190.8410  176.1450  134.6730 O   0  0  0  0  0  0  0  0  0  0  0  0
  190.7030  173.3710  134.7800 N   0  0  0  0  0  1  0  0  0  0  0  0
  1 12  1  0  0  0  0
  2  1  2  0  0  0  0
  3  8  2  0  0  0  0
  3  7  1  0  0  0  0
  4  9  2  0  0  0  0
  5  4  1  0  0  0  0
  5  3  1  0  0  0  0
  6  1  1  0  0  0  0
  7  6  2  0  0  0  0
  8  2  1  0  0  0  0
  9  7  1  0  0  0  0
  9 17  1  0  0  0  0
 10  4  1  0  0  0  0
 12 11  2  0  0  0  0
 12 13  1  0  0  0  0
 13 16  1  0  0  0  0
 15 16  2  0  0  0  0
 16 14  1  0  0  0  0
 17 18  1  0  0  0  0
 19 18  1  0  0  0  0
 20 19  1  0  0  0  0
 20 24  2  0  0  0  0
 21 26  1  0  0  0  0
 22 21  2  0  0  0  0
 22 23  1  0  0  0  0
 23 20  1  0  0  0  0
 25 24  1  0  0  0  0
 26 25  2  0  0  0  0
 27  5  1  0  0  0  0
 29 28  2  0  0  0  0
 30 33  2  0  0  0  0
 31 29  1  0  0  0  0
 32 31  2  0  0  0  0
 32 30  1  0  0  0  0
 33 28  1  0  0  0  0
 33 27  1  0  0  0  0
 35 34  1  0  0  0  0
 35 31  1  0  0  0  0
 36 35  2  0  0  0  0
 37 34  1  0  0  0  0
M  END
>  <MODEL>
8

>  <REMARK>
 VINA RESULT:      -8.3      1.323      2.008
  Name = 
  10 active torsions:
  status: ('A' for Active; 'I' for Inactive)
    1  A    between atoms: C_5  and  C_37
    2  A    between atoms: C_10  and  C_22
    3  A    between atoms: C_10  and  C_33
    4  A    between atoms: C_12  and  O_35
    5  A    between atoms: C_14  and  C_21
    6  A    between atoms: N_16  and  N_34
    7  A    between atoms: C_22  and  O_35
    8  A    between atoms: C_29  and  C_31
    9  A    between atoms: C_29  and  C_37
   10  A    between atoms: C_32  and  N_34
                            x       y       z     vdW  Elec       q    Type
                         _______ _______ _______ _____ _____    ______ ____

>  <TORSDO>
F 10

$$$$
=
 OpenBabel10222421143D

 37 40  0  0  0  0  0  0  0  0999 V2000
  186.3150  178.4620  140.1240 C   0  0  0  0  0  0  0  0  0  0  0  0
  186.5080  178.2520  138.7370 C   0  0  0  0  0  3  0  0  0  0  0  0
  188.8390  177.8460  139.1180 C   0  0  0  0  0  0  0  0  0  0  0  0
  190.7560  177.4760  140.0610 C   0  0  0  0  0  0  0  0  0  0  0  0
  190.1270  177.5340  138.8650 N   0  0  0  0  0  0  0  0  0  0  0  0
  187.4070  178.3350  141.0070 C   0  0  0  0  0  3  0  0  0  0  0  0
  188.6530  178.0230  140.4680 C   0  0  0  0  0  0  0  0  0  0  0  0
  187.7760  177.9350  138.2200 C   0  0  0  0  0  3  0  0  0  0  0  0
  189.8670  177.7880  141.0850 C   0  0  0  0  0  0  0  0  0  0  0  0
  192.1950  177.1280  140.2370 C   0  0  0  0  0  1  0  0  0  0  0  0
  184.3210  179.7510  140.1240 O   0  0  0  0  0  0  0  0  0  0  0  0
  184.9730  178.8020  140.6380 C   0  0  0  0  0  0  0  0  0  0  0  0
  184.3730  178.0560  141.7870 C   0  0  0  0  0  2  0  0  0  0  0  0
  182.8020  179.0060  143.3050 O   0  0  0  0  0  0  0  0  0  0  0  0
  184.9290  179.8520  143.4270 O   0  0  0  0  0  1  0  0  0  0  0  0
  183.9820  179.0010  142.8710 C   0  0  0  0  0  0  0  0  0  0  0  0
  190.1670  177.8790  142.5430 C   0  0  0  0  0  2  0  0  0  0  0  0
  190.0270  176.5100  143.1840 C   0  0  0  0  0  2  0  0  0  0  0  0
  188.7390  176.3750  143.7770 O   0  0  0  0  0  0  0  0  0  0  0  0
  188.2910  177.1640  144.8440 C   0  0  0  0  0  0  0  0  0  0  0  0
  187.9500  177.4920  147.8830 C   0  0  0  0  0  3  0  0  0  0  0  0
  189.0540  177.1840  147.2010 C   0  0  0  0  0  3  0  0  0  0  0  0
  189.3110  177.6640  145.8120 C   0  0  0  0  0  2  0  0  0  0  0  0
  186.9980  177.5010  144.9570 C   0  0  0  0  0  3  0  0  0  0  0  0
  186.3940  178.2570  146.0720 C   0  0  0  0  0  3  0  0  0  0  0  0
  186.8060  178.2510  147.3450 C   0  0  0  0  0  3  0  0  0  0  0  0
  190.6990  177.1790  137.6290 N   0  0  0  0  0  2  0  0  0  0  0  0
  192.9890  176.4230  137.2520 C   0  0  0  0  0  3  0  0  0  0  0  0
  193.9210  175.4030  137.0440 C   0  0  0  0  0  3  0  0  0  0  0  0
  191.2260  174.7760  137.4250 C   0  0  0  0  0  3  0  0  0  0  0  0
  193.5140  174.0620  137.0300 C   0  0  0  0  0  0  0  0  0  0  0  0
  192.1580  173.7560  137.2180 C   0  0  0  0  0  3  0  0  0  0  0  0
  191.6410  176.1140  137.4590 C   0  0  0  0  0  0  0  0  0  0  0  0
  195.0520  172.2850  137.9270 N   0  0  0  0  0  2  0  0  0  0  0  0
  194.4970  172.9870  136.8130 C   0  0  0  0  0  0  0  0  0  0  0  0
  194.8530  172.6820  135.6410 O   0  0  0  0  0  0  0  0  0  0  0  0
  195.9900  171.2610  137.7440 N   0  0  0  0  0  1  0  0  0  0  0  0
  1 12  1  0  0  0  0
  1  6  1  0  0  0  0
  2  1  2  0  0  0  0
  3  7  1  0  0  0  0
  4 10  1  0  0  0  0
  4  9  2  0  0  0  0
  5  3  1  0  0  0  0
  5  4  1  0  0  0  0
  7  6  2  0  0  0  0
  7  9  1  0  0  0  0
  8  2  1  0  0  0  0
  8  3  2  0  0  0  0
  9 17  1  0  0  0  0
 11 12  2  0  0  0  0
 12 13  1  0  0  0  0
 13 16  1  0  0  0  0
 16 14  2  0  0  0  0
 16 15  1  0  0  0  0
 17 18  1  0  0  0  0
 18 19  1  0  0  0  0
 19 20  1  0  0  0  0
 20 24  2  0  0  0  0
 20 23  1  0  0  0  0
 22 21  2  0  0  0  0
 23 22  1  0  0  0  0
 24 25  1  0  0  0  0
 25 26  2  0  0  0  0
 26 21  1  0  0  0  0
 27  5  1  0  0  0  0
 28 33  1  0  0  0  0
 29 28  2  0  0  0  0
 30 33  2  0  0  0  0
 31 29  1  0  0  0  0
 31 32  2  0  0  0  0
 32 30  1  0  0  0  0
 33 27  1  0  0  0  0
 35 31  1  0  0  0  0
 35 34  1  0  0  0  0
 36 35  2  0  0  0  0
 37 34  1  0  0  0  0
M  END
>  <MODEL>
9

>  <REMARK>
 VINA RESULT:      -8.2      2.656      6.478
  Name = 
  10 active torsions:
  status: ('A' for Active; 'I' for Inactive)
    1  A    between atoms: C_5  and  C_37
    2  A    between atoms: C_10  and  C_22
    3  A    between atoms: C_10  and  C_33
    4  A    between atoms: C_12  and  O_35
    5  A    between atoms: C_14  and  C_21
    6  A    between atoms: N_16  and  N_34
    7  A    between atoms: C_22  and  O_35
    8  A    between atoms: C_29  and  C_31
    9  A    between atoms: C_29  and  C_37
   10  A    between atoms: C_32  and  N_34
                            x       y       z     vdW  Elec       q    Type
                         _______ _______ _______ _____ _____    ______ ____

>  <TORSDO>
F 10

$$$$
