=
 OpenBabel10222416493D

 45 48  0  0  1  0  0  0  0  0999 V2000
  190.7100  177.5600  142.4600 C   0  0  1  0  0  3  0  0  0  0  0  0
  191.2440  178.2190  143.7290 C   0  0  0  0  0  2  0  0  0  0  0  0
  190.3750  176.9350  146.9660 C   0  0  0  0  0  3  0  0  0  0  0  0
  191.0400  177.0500  145.8460 C   0  0  0  0  0  0  0  0  0  0  0  0
  191.6850  177.1940  144.7200 C   0  0  0  0  0  3  0  0  0  0  0  0
  187.5480  178.6860  148.6350 C   0  0  0  0  0  3  0  0  0  0  0  0
  186.0400  178.3470  146.7140 C   0  0  0  0  0  0  0  0  0  0  0  0
  184.6960  178.4710  146.5850 F   0  0  0  0  0  0  0  0  0  0  0  0
  186.6590  177.3890  146.0230 C   0  0  0  0  0  3  0  0  0  0  0  0
  188.5260  177.8050  148.4190 C   0  0  0  0  0  3  0  0  0  0  0  0
  185.9350  180.2880  148.0610 F   0  0  0  0  0  0  0  0  0  0  0  0
  186.7970  179.3480  147.5300 C   0  0  1  0  0  3  0  0  0  0  0  0
  188.1070  177.0950  146.0680 C   0  0  0  0  0  3  0  0  0  0  0  0
  188.9540  177.3100  147.0940 C   0  0  0  0  0  0  0  0  0  0  0  0
  191.7170  177.5530  141.4010 N   0  0  0  0  0  2  0  0  0  0  0  0
  190.2340  177.6140  139.4620 C   0  0  0  0  0  3  0  0  0  0  0  0
  192.4400  176.6840  139.1950 C   0  0  0  0  0  3  0  0  0  0  0  0
  189.9800  177.3690  138.1060 C   0  0  0  0  0  0  0  0  0  0  0  0
  191.4720  177.2780  140.0150 C   0  0  0  0  0  0  0  0  0  0  0  0
  190.9770  176.7810  137.3260 C   0  0  0  0  0  3  0  0  0  0  0  0
  192.1740  176.4510  137.8810 N   0  0  0  0  0  0  0  0  0  0  0  0
  188.7220  177.7020  137.5100 N   0  0  0  0  0  2  0  0  0  0  0  0
  187.7490  176.7080  137.0730 C   0  0  2  0  0  3  0  0  0  0  0  0
  187.8360  176.5100  135.5680 C   0  0  0  0  0  1  0  0  0  0  0  0
  184.9030  178.6690  138.5690 C   0  0  0  0  0  0  0  0  0  0  0  0
  183.8230  177.9260  138.2120 C   0  0  0  0  0  0  0  0  0  0  0  0
  184.4850  179.7690  139.2910 O   0  0  0  0  0  0  0  0  0  0  0  0
  186.3690  177.1270  137.4670 C   0  0  0  0  0  0  0  0  0  0  0  0
  185.2400  176.3520  137.0990 C   0  0  0  0  0  3  0  0  0  0  0  0
  183.9430  176.7520  137.4720 C   0  0  0  0  0  3  0  0  0  0  0  0
  186.2010  178.3060  138.2190 C   0  0  0  0  0  3  0  0  0  0  0  0
  182.6740  178.5230  138.6960 O   0  0  0  0  0  0  0  0  0  0  0  0
  183.0540  179.7170  139.3940 C   0  0  0  0  0  2  0  0  0  0  0  0
  190.2010  176.1510  142.7350 C   0  0  0  0  0  2  0  0  0  0  0  0
  188.6760  176.1160  142.7790 C   0  0  0  0  0  2  0  0  0  0  0  0
  188.0800  177.4590  142.3740 C   0  0  0  0  0  2  0  0  0  0  0  0
  186.6070  177.5320  142.7300 C   0  0  0  0  0  2  0  0  0  0  0  0
  186.0150  178.8390  142.2350 C   0  0  0  0  0  2  0  0  0  0  0  0
  184.9450  179.3300  143.2000 C   0  0  0  0  0  2  0  0  0  0  0  0
  181.2930  178.7710  142.8800 N   0  0  0  0  0  2  0  0  0  0  0  0
  183.6470  178.7630  142.8670 N   0  0  0  0  0  0  0  0  0  0  0  0
  182.5510  179.3460  143.2260 C   0  0  0  0  0  3  0  0  0  0  0  0
  180.0870  179.3850  143.2410 N   0  0  0  0  0  0  0  0  0  0  0  0
  179.1010  178.6740  143.8880 O   0  0  0  0  0  0  0  0  0  0  0  0
  179.9120  180.5940  142.9890 O   0  0  0  0  0  0  0  0  0  0  0  0
  1 34  1  1  0  0  0
  1  2  1  0  0  0  0
  2  5  1  0  0  0  0
  3 14  1  0  0  0  0
  4  3  2  0  0  0  0
  5  4  2  0  0  0  0
  7 12  1  0  0  0  0
  8  7  1  0  0  0  0
  9 13  1  0  0  0  0
  9  7  2  0  0  0  0
 10  6  2  0  0  0  0
 12 11  1  1  0  0  0
 12  6  1  0  0  0  0
 13 14  2  0  0  0  0
 14 10  1  0  0  0  0
 15  1  1  0  0  0  0
 16 19  1  0  0  0  0
 17 19  2  0  0  0  0
 18 16  2  0  0  0  0
 19 15  1  0  0  0  0
 20 21  2  0  0  0  0
 20 18  1  0  0  0  0
 21 17  1  0  0  0  0
 22 18  1  0  0  0  0
 23 24  1  6  0  0  0
 23 28  1  0  0  0  0
 23 22  1  0  0  0  0
 25 27  1  0  0  0  0
 26 25  2  0  0  0  0
 26 32  1  0  0  0  0
 27 33  1  0  0  0  0
 28 31  2  0  0  0  0
 29 28  1  0  0  0  0
 29 30  2  0  0  0  0
 30 26  1  0  0  0  0
 31 25  1  0  0  0  0
 32 33  1  0  0  0  0
 34 35  1  0  0  0  0
 36 37  1  0  0  0  0
 36 35  1  0  0  0  0
 38 37  1  0  0  0  0
 38 39  1  0  0  0  0
 40 42  1  0  0  0  0
 40 43  1  0  0  0  0
 41 39  1  0  0  0  0
 41 42  2  0  0  0  0
 43 44  2  0  0  0  0
 45 43  2  0  0  0  0
M  END
>  <MODEL>
1

>  <REMARK>
 VINA RESULT:      -8.5      0.000      0.000
  Name = 
  16 active torsions:
  status: ('A' for Active; 'I' for Inactive)
    1  A    between atoms: C_1  and  C_44
    2  A    between atoms: C_2  and  C_31
    3  A    between atoms: C_2  and  C_39
    4  A    between atoms: C_4  and  N_8
    5  A    between atoms: C_4  and  C_21
    6  A    between atoms: C_5  and  N_25
    7  A    between atoms: C_5  and  C_34
    8  A    between atoms: N_6  and  N_11
    9  A    between atoms: C_7  and  C_27
   10  A    between atoms: C_7  and  C_34
   11  A    between atoms: N_8  and  C_26
   12  A    between atoms: C_27  and  C_39
   13  A    between atoms: C_30  and  C_42
   14  A    between atoms: C_31  and  N_37
   15  A    between atoms: C_31  and  C_42
   16  A    between atoms: C_36  and  N_37
                            x       y       z     vdW  Elec       q    Type
                         _______ _______ _______ _____ _____    ______ ____

>  <TORSDO>
F 16

$$$$
=
 OpenBabel10222416493D

 45 48  0  0  1  0  0  0  0  0999 V2000
  189.4740  176.9550  139.6640 C   0  0  1  0  0  3  0  0  0  0  0  0
  189.6780  177.5140  141.0690 C   0  0  0  0  0  2  0  0  0  0  0  0
  191.6270  177.5500  144.0820 C   0  0  0  0  0  3  0  0  0  0  0  0
  191.3660  177.4050  142.8090 C   0  0  0  0  0  0  0  0  0  0  0  0
  191.0730  177.2750  141.5440 C   0  0  0  0  0  3  0  0  0  0  0  0
  190.5540  177.0520  147.6090 C   0  0  0  0  0  3  0  0  0  0  0  0
  188.2090  177.6240  147.1080 C   0  0  0  0  0  0  0  0  0  0  0  0
  187.0630  177.4500  147.8120 F   0  0  0  0  0  0  0  0  0  0  0  0
  188.1600  177.5170  145.7790 C   0  0  0  0  0  3  0  0  0  0  0  0
  191.0720  176.7940  146.4080 C   0  0  0  0  0  3  0  0  0  0  0  0
  189.2160  178.1700  149.1760 F   0  0  0  0  0  0  0  0  0  0  0  0
  189.4570  178.0390  147.8230 C   0  0  1  0  0  3  0  0  0  0  0  0
  189.3130  177.6470  144.8630 C   0  0  0  0  0  3  0  0  0  0  0  0
  190.6060  177.3770  145.1320 C   0  0  0  0  0  0  0  0  0  0  0  0
  188.7730  177.9100  138.8080 N   0  0  0  0  0  2  0  0  0  0  0  0
  186.3800  178.3670  138.9850 C   0  0  0  0  0  3  0  0  0  0  0  0
  187.1620  177.0210  137.1460 C   0  0  0  0  0  3  0  0  0  0  0  0
  185.0710  178.2460  138.5000 C   0  0  0  0  0  0  0  0  0  0  0  0
  187.4380  177.7590  138.3050 C   0  0  0  0  0  0  0  0  0  0  0  0
  184.8450  177.5070  137.3390 C   0  0  0  0  0  3  0  0  0  0  0  0
  185.8840  176.9120  136.6930 N   0  0  0  0  0  0  0  0  0  0  0  0
  183.9660  178.8570  139.1740 N   0  0  0  0  0  2  0  0  0  0  0  0
  182.9330  178.1050  139.8760 C   0  0  2  0  0  3  0  0  0  0  0  0
  181.5620  178.4390  139.3110 C   0  0  0  0  0  1  0  0  0  0  0  0
  184.2220  178.5610  143.3850 C   0  0  0  0  0  0  0  0  0  0  0  0
  183.1020  178.9370  144.0560 C   0  0  0  0  0  0  0  0  0  0  0  0
  185.2890  178.5210  144.2590 O   0  0  0  0  0  0  0  0  0  0  0  0
  182.9820  178.3990  141.3410 C   0  0  0  0  0  0  0  0  0  0  0  0
  181.8140  178.7890  142.0450 C   0  0  0  0  0  3  0  0  0  0  0  0
  181.8680  179.0650  143.4230 C   0  0  0  0  0  3  0  0  0  0  0  0
  184.2090  178.2790  142.0210 C   0  0  0  0  0  3  0  0  0  0  0  0
  183.4120  179.1470  145.3860 O   0  0  0  0  0  0  0  0  0  0  0  0
  184.8140  178.8940  145.5610 C   0  0  0  0  0  2  0  0  0  0  0  0
  190.7950  176.5310  139.0340 C   0  0  0  0  0  2  0  0  0  0  0  0
  190.5610  175.6460  137.8120 C   0  0  0  0  0  2  0  0  0  0  0  0
  191.8290  175.5100  136.9780 C   0  0  0  0  0  2  0  0  0  0  0  0
  192.3910  174.1030  137.0640 C   0  0  0  0  0  2  0  0  0  0  0  0
  193.8130  174.0750  136.5340 C   0  0  0  0  0  2  0  0  0  0  0  0
  194.6150  172.9890  137.2380 C   0  0  0  0  0  2  0  0  0  0  0  0
  196.5360  174.4810  140.0360 N   0  0  0  0  0  2  0  0  0  0  0  0
  195.0350  173.4300  138.5600 N   0  0  0  0  0  0  0  0  0  0  0  0
  196.1530  174.0560  138.7310 C   0  0  0  0  0  3  0  0  0  0  0  0
  197.7330  175.1750  140.2540 N   0  0  0  0  0  0  0  0  0  0  0  0
  198.3370  175.8740  139.2330 O   0  0  0  0  0  0  0  0  0  0  0  0
  198.2490  175.1730  141.3900 O   0  0  0  0  0  0  0  0  0  0  0  0
  1 34  1  6  0  0  0
  1  2  1  0  0  0  0
  2  5  1  0  0  0  0
  3 14  1  0  0  0  0
  4  3  2  0  0  0  0
  5  4  2  0  0  0  0
  6 12  1  0  0  0  0
  7  8  1  0  0  0  0
  7 12  1  0  0  0  0
  9  7  2  0  0  0  0
 10  6  2  0  0  0  0
 12 11  1  1  0  0  0
 13 14  2  0  0  0  0
 13  9  1  0  0  0  0
 14 10  1  0  0  0  0
 15  1  1  0  0  0  0
 17 19  1  0  0  0  0
 18 16  1  0  0  0  0
 18 22  1  0  0  0  0
 19 15  1  0  0  0  0
 19 16  2  0  0  0  0
 20 18  2  0  0  0  0
 21 17  2  0  0  0  0
 21 20  1  0  0  0  0
 22 23  1  0  0  0  0
 23 24  1  6  0  0  0
 23 28  1  0  0  0  0
 25 26  1  0  0  0  0
 25 27  1  0  0  0  0
 26 32  1  0  0  0  0
 27 33  1  0  0  0  0
 28 31  1  0  0  0  0
 28 29  2  0  0  0  0
 29 30  1  0  0  0  0
 30 26  2  0  0  0  0
 31 25  2  0  0  0  0
 32 33  1  0  0  0  0
 35 34  1  0  0  0  0
 36 37  1  0  0  0  0
 36 35  1  0  0  0  0
 38 37  1  0  0  0  0
 38 39  1  0  0  0  0
 39 41  1  0  0  0  0
 40 43  1  0  0  0  0
 41 42  2  0  0  0  0
 42 40  1  0  0  0  0
 43 45  2  0  0  0  0
 44 43  2  0  0  0  0
M  END
>  <MODEL>
2

>  <REMARK>
 VINA RESULT:      -8.5      3.990      8.115
  Name = 
  16 active torsions:
  status: ('A' for Active; 'I' for Inactive)
    1  A    between atoms: C_1  and  C_44
    2  A    between atoms: C_2  and  C_31
    3  A    between atoms: C_2  and  C_39
    4  A    between atoms: C_4  and  N_8
    5  A    between atoms: C_4  and  C_21
    6  A    between atoms: C_5  and  N_25
    7  A    between atoms: C_5  and  C_34
    8  A    between atoms: N_6  and  N_11
    9  A    between atoms: C_7  and  C_27
   10  A    between atoms: C_7  and  C_34
   11  A    between atoms: N_8  and  C_26
   12  A    between atoms: C_27  and  C_39
   13  A    between atoms: C_30  and  C_42
   14  A    between atoms: C_31  and  N_37
   15  A    between atoms: C_31  and  C_42
   16  A    between atoms: C_36  and  N_37
                            x       y       z     vdW  Elec       q    Type
                         _______ _______ _______ _____ _____    ______ ____

>  <TORSDO>
F 16

$$$$
=
 OpenBabel10222416493D

 45 48  0  0  1  0  0  0  0  0999 V2000
  184.0870  178.6040  143.9700 C   0  0  1  0  0  3  0  0  0  0  0  0
  184.6310  177.8770  145.1970 C   0  0  0  0  0  2  0  0  0  0  0  0
  187.2190  178.5080  147.6020 C   0  0  0  0  0  3  0  0  0  0  0  0
  186.1020  178.6930  146.9460 C   0  0  0  0  0  0  0  0  0  0  0  0
  184.9930  178.8440  146.2750 C   0  0  0  0  0  3  0  0  0  0  0  0
  189.3310  177.3820  144.7540 C   0  0  0  0  0  3  0  0  0  0  0  0
  191.1940  176.7290  146.2310 C   0  0  0  0  0  0  0  0  0  0  0  0
  192.2990  175.9740  146.0150 F   0  0  0  0  0  0  0  0  0  0  0  0
  190.6100  176.6720  147.4290 C   0  0  0  0  0  3  0  0  0  0  0  0
  188.2930  177.4720  145.5880 C   0  0  0  0  0  3  0  0  0  0  0  0
  191.5610  177.6110  144.0680 F   0  0  0  0  0  0  0  0  0  0  0  0
  190.7310  177.6790  145.1700 C   0  0  1  0  0  3  0  0  0  0  0  0
  189.3870  177.4020  147.8250 C   0  0  0  0  0  3  0  0  0  0  0  0
  188.3780  177.8020  147.0260 C   0  0  0  0  0  0  0  0  0  0  0  0
  182.7450  179.1290  144.2160 N   0  0  0  0  0  2  0  0  0  0  0  0
  181.6780  179.0800  142.0200 C   0  0  0  0  0  3  0  0  0  0  0  0
  180.3730  178.4620  143.9490 C   0  0  0  0  0  3  0  0  0  0  0  0
  180.5660  178.8330  141.2050 C   0  0  0  0  0  0  0  0  0  0  0  0
  181.5900  178.8890  143.4010 C   0  0  0  0  0  0  0  0  0  0  0  0
  179.3760  178.4030  141.7940 C   0  0  0  0  0  3  0  0  0  0  0  0
  179.3030  178.2310  143.1410 N   0  0  0  0  0  0  0  0  0  0  0  0
  180.6240  179.0190  139.7870 N   0  0  0  0  0  2  0  0  0  0  0  0
  181.6150  179.8580  139.1240 C   0  0  2  0  0  3  0  0  0  0  0  0
  180.9710  180.6390  137.9890 C   0  0  0  0  0  1  0  0  0  0  0  0
  183.5310  177.2090  137.2540 C   0  0  0  0  0  0  0  0  0  0  0  0
  184.8110  177.4520  137.6410 C   0  0  0  0  0  0  0  0  0  0  0  0
  183.5120  176.1410  136.3800 O   0  0  0  0  0  0  0  0  0  0  0  0
  182.7420  179.0210  138.6100 C   0  0  0  0  0  0  0  0  0  0  0  0
  184.0780  179.2700  139.0140 C   0  0  0  0  0  3  0  0  0  0  0  0
  185.1340  178.4790  138.5250 C   0  0  0  0  0  3  0  0  0  0  0  0
  182.4600  177.9700  137.7160 C   0  0  0  0  0  3  0  0  0  0  0  0
  185.6560  176.5460  137.0310 O   0  0  0  0  0  0  0  0  0  0  0  0
  184.8610  175.6840  136.2040 C   0  0  0  0  0  2  0  0  0  0  0  0
  185.0280  179.7110  143.5130 C   0  0  0  0  0  2  0  0  0  0  0  0
  185.6540  179.3760  142.1610 C   0  0  0  0  0  2  0  0  0  0  0  0
  186.6930  178.2690  142.2910 C   0  0  0  0  0  2  0  0  0  0  0  0
  187.8800  178.5270  141.3830 C   0  0  0  0  0  2  0  0  0  0  0  0
  188.6720  177.2470  141.1840 C   0  0  0  0  0  2  0  0  0  0  0  0
  190.1590  177.5590  141.0910 C   0  0  0  0  0  2  0  0  0  0  0  0
  191.2240  176.4120  137.7300 N   0  0  0  0  0  2  0  0  0  0  0  0
  190.6100  177.5300  139.7080 N   0  0  0  0  0  0  0  0  0  0  0  0
  190.7880  176.4100  139.0870 C   0  0  0  0  0  3  0  0  0  0  0  0
  191.4110  175.2160  137.0240 N   0  0  0  0  0  0  0  0  0  0  0  0
  191.7520  175.2330  135.6900 O   0  0  0  0  0  0  0  0  0  0  0  0
  191.2840  174.1250  137.6140 O   0  0  0  0  0  0  0  0  0  0  0  0
  1 34  1  1  0  0  0
  1 15  1  0  0  0  0
  1  2  1  0  0  0  0
  2  5  1  0  0  0  0
  4  3  2  0  0  0  0
  5  4  2  0  0  0  0
  6 12  1  0  0  0  0
  6 10  2  0  0  0  0
  7  9  2  0  0  0  0
  8  7  1  0  0  0  0
  9 13  1  0  0  0  0
 10 14  1  0  0  0  0
 12 11  1  6  0  0  0
 12  7  1  0  0  0  0
 14  3  1  0  0  0  0
 14 13  2  0  0  0  0
 16 19  1  0  0  0  0
 18 20  1  0  0  0  0
 18 16  2  0  0  0  0
 19 17  2  0  0  0  0
 19 15  1  0  0  0  0
 20 21  2  0  0  0  0
 21 17  1  0  0  0  0
 22 18  1  0  0  0  0
 23 24  1  6  0  0  0
 23 22  1  0  0  0  0
 25 26  2  0  0  0  0
 25 31  1  0  0  0  0
 26 30  1  0  0  0  0
 27 25  1  0  0  0  0
 28 29  1  0  0  0  0
 28 23  1  0  0  0  0
 30 29  2  0  0  0  0
 31 28  2  0  0  0  0
 32 26  1  0  0  0  0
 33 27  1  0  0  0  0
 33 32  1  0  0  0  0
 35 36  1  0  0  0  0
 35 34  1  0  0  0  0
 37 36  1  0  0  0  0
 38 37  1  0  0  0  0
 39 38  1  0  0  0  0
 40 42  1  0  0  0  0
 41 39  1  0  0  0  0
 42 41  2  0  0  0  0
 43 45  2  0  0  0  0
 43 40  1  0  0  0  0
 44 43  2  0  0  0  0
M  END
>  <MODEL>
3

>  <REMARK>
 VINA RESULT:      -8.4      3.010      7.688
  Name = 
  16 active torsions:
  status: ('A' for Active; 'I' for Inactive)
    1  A    between atoms: C_1  and  C_44
    2  A    between atoms: C_2  and  C_31
    3  A    between atoms: C_2  and  C_39
    4  A    between atoms: C_4  and  N_8
    5  A    between atoms: C_4  and  C_21
    6  A    between atoms: C_5  and  N_25
    7  A    between atoms: C_5  and  C_34
    8  A    between atoms: N_6  and  N_11
    9  A    between atoms: C_7  and  C_27
   10  A    between atoms: C_7  and  C_34
   11  A    between atoms: N_8  and  C_26
   12  A    between atoms: C_27  and  C_39
   13  A    between atoms: C_30  and  C_42
   14  A    between atoms: C_31  and  N_37
   15  A    between atoms: C_31  and  C_42
   16  A    between atoms: C_36  and  N_37
                            x       y       z     vdW  Elec       q    Type
                         _______ _______ _______ _____ _____    ______ ____

>  <TORSDO>
F 16

$$$$
=
 OpenBabel10222416493D

 45 48  0  0  1  0  0  0  0  0999 V2000
  188.9380  176.8070  138.2910 C   0  0  1  0  0  3  0  0  0  0  0  0
  189.3930  177.2230  139.6870 C   0  0  0  0  0  2  0  0  0  0  0  0
  192.0170  177.6640  142.0960 C   0  0  0  0  0  3  0  0  0  0  0  0
  191.4650  177.4520  140.9290 C   0  0  0  0  0  0  0  0  0  0  0  0
  190.8830  177.2470  139.7790 C   0  0  0  0  0  3  0  0  0  0  0  0
  191.7290  175.7760  145.2880 C   0  0  0  0  0  3  0  0  0  0  0  0
  190.0160  177.3060  146.1850 C   0  0  0  0  0  0  0  0  0  0  0  0
  189.1640  177.1980  147.2340 F   0  0  0  0  0  0  0  0  0  0  0  0
  189.6000  177.9490  145.0930 C   0  0  0  0  0  3  0  0  0  0  0  0
  191.7220  176.0370  143.9810 C   0  0  0  0  0  3  0  0  0  0  0  0
  191.6210  176.2700  147.5780 F   0  0  0  0  0  0  0  0  0  0  0  0
  191.4210  176.8060  146.3210 C   0  0  1  0  0  3  0  0  0  0  0  0
  190.3830  178.1340  143.8530 C   0  0  0  0  0  3  0  0  0  0  0  0
  191.3500  177.3300  143.3680 C   0  0  0  0  0  0  0  0  0  0  0  0
  188.0330  177.7980  137.7110 N   0  0  0  0  0  2  0  0  0  0  0  0
  186.0370  178.4230  138.9730 C   0  0  0  0  0  3  0  0  0  0  0  0
  185.7610  177.2310  136.8970 C   0  0  0  0  0  3  0  0  0  0  0  0
  184.6450  178.4620  139.1210 C   0  0  0  0  0  0  0  0  0  0  0  0
  186.6060  177.8110  137.8530 C   0  0  0  0  0  0  0  0  0  0  0  0
  183.8430  177.8770  138.1410 C   0  0  0  0  0  3  0  0  0  0  0  0
  184.4110  177.2760  137.0610 N   0  0  0  0  0  0  0  0  0  0  0  0
  184.0320  179.0820  140.2570 N   0  0  0  0  0  2  0  0  0  0  0  0
  183.3730  178.3380  141.3240 C   0  0  2  0  0  3  0  0  0  0  0  0
  182.0140  178.9470  141.6300 C   0  0  0  0  0  1  0  0  0  0  0  0
  184.4780  178.6540  144.9100 C   0  0  0  0  0  0  0  0  0  0  0  0
  185.7890  178.3030  144.8390 C   0  0  0  0  0  0  0  0  0  0  0  0
  184.1540  178.9540  146.2180 O   0  0  0  0  0  0  0  0  0  0  0  0
  184.2280  178.3220  142.5500 C   0  0  0  0  0  0  0  0  0  0  0  0
  185.5970  177.9600  142.4780 C   0  0  0  0  0  3  0  0  0  0  0  0
  186.3960  177.9460  143.6370 C   0  0  0  0  0  3  0  0  0  0  0  0
  183.6560  178.6790  143.7860 C   0  0  0  0  0  3  0  0  0  0  0  0
  186.3520  178.3700  146.0990 O   0  0  0  0  0  0  0  0  0  0  0  0
  185.3310  178.7810  147.0200 C   0  0  0  0  0  2  0  0  0  0  0  0
  190.1240  176.5500  137.3700 C   0  0  0  0  0  2  0  0  0  0  0  0
  189.8760  175.3330  136.4820 C   0  0  0  0  0  2  0  0  0  0  0  0
  190.8440  174.2030  136.8100 C   0  0  0  0  0  2  0  0  0  0  0  0
  191.9700  174.6920  137.7020 C   0  0  0  0  0  2  0  0  0  0  0  0
  193.2970  174.5890  136.9720 C   0  0  0  0  0  2  0  0  0  0  0  0
  193.8340  173.1670  137.0570 C   0  0  0  0  0  2  0  0  0  0  0  0
  196.6490  174.0360  139.3080 N   0  0  0  0  0  2  0  0  0  0  0  0
  194.9380  173.0850  138.0010 N   0  0  0  0  0  0  0  0  0  0  0  0
  195.5750  174.1450  138.3770 C   0  0  0  0  0  3  0  0  0  0  0  0
  197.3500  175.1660  139.7470 N   0  0  0  0  0  0  0  0  0  0  0  0
  198.5070  175.5660  139.1170 O   0  0  0  0  0  0  0  0  0  0  0  0
  196.9110  175.8280  140.7100 O   0  0  0  0  0  0  0  0  0  0  0  0
  1 34  1  6  0  0  0
  1  2  1  0  0  0  0
  2  5  1  0  0  0  0
  3 14  1  0  0  0  0
  4  3  2  0  0  0  0
  5  4  2  0  0  0  0
  6 12  1  0  0  0  0
  7 12  1  0  0  0  0
  7  8  1  0  0  0  0
  9  7  2  0  0  0  0
 10  6  2  0  0  0  0
 12 11  1  1  0  0  0
 13  9  1  0  0  0  0
 14 13  2  0  0  0  0
 14 10  1  0  0  0  0
 15 19  1  0  0  0  0
 15  1  1  0  0  0  0
 16 18  1  0  0  0  0
 17 21  2  0  0  0  0
 17 19  1  0  0  0  0
 18 22  1  0  0  0  0
 19 16  2  0  0  0  0
 20 18  2  0  0  0  0
 21 20  1  0  0  0  0
 22 23  1  0  0  0  0
 23 24  1  1  0  0  0
 23 28  1  0  0  0  0
 25 27  1  0  0  0  0
 26 25  1  0  0  0  0
 26 32  1  0  0  0  0
 27 33  1  0  0  0  0
 28 31  1  0  0  0  0
 29 28  2  0  0  0  0
 29 30  1  0  0  0  0
 30 26  2  0  0  0  0
 31 25  2  0  0  0  0
 32 33  1  0  0  0  0
 35 36  1  0  0  0  0
 35 34  1  0  0  0  0
 36 37  1  0  0  0  0
 38 39  1  0  0  0  0
 38 37  1  0  0  0  0
 39 41  1  0  0  0  0
 40 43  1  0  0  0  0
 41 42  2  0  0  0  0
 42 40  1  0  0  0  0
 43 45  2  0  0  0  0
 44 43  2  0  0  0  0
M  END
>  <MODEL>
4

>  <REMARK>
 VINA RESULT:      -8.3      4.074      8.621
  Name = 
  16 active torsions:
  status: ('A' for Active; 'I' for Inactive)
    1  A    between atoms: C_1  and  C_44
    2  A    between atoms: C_2  and  C_31
    3  A    between atoms: C_2  and  C_39
    4  A    between atoms: C_4  and  N_8
    5  A    between atoms: C_4  and  C_21
    6  A    between atoms: C_5  and  N_25
    7  A    between atoms: C_5  and  C_34
    8  A    between atoms: N_6  and  N_11
    9  A    between atoms: C_7  and  C_27
   10  A    between atoms: C_7  and  C_34
   11  A    between atoms: N_8  and  C_26
   12  A    between atoms: C_27  and  C_39
   13  A    between atoms: C_30  and  C_42
   14  A    between atoms: C_31  and  N_37
   15  A    between atoms: C_31  and  C_42
   16  A    between atoms: C_36  and  N_37
                            x       y       z     vdW  Elec       q    Type
                         _______ _______ _______ _____ _____    ______ ____

>  <TORSDO>
F 16

$$$$
=
 OpenBabel10222416493D

 45 48  0  0  1  0  0  0  0  0999 V2000
  183.2970  179.0450  142.6930 C   0  0  1  0  0  3  0  0  0  0  0  0
  184.5080  178.9860  143.6200 C   0  0  0  0  0  2  0  0  0  0  0  0
  185.6900  178.0950  146.8900 C   0  0  0  0  0  3  0  0  0  0  0  0
  184.8780  178.5740  145.9830 C   0  0  0  0  0  0  0  0  0  0  0  0
  184.0900  179.0380  145.0520 C   0  0  0  0  0  3  0  0  0  0  0  0
  189.1800  177.7760  148.1380 C   0  0  0  0  0  3  0  0  0  0  0  0
  190.0820  177.3620  145.8810 C   0  0  0  0  0  0  0  0  0  0  0  0
  191.3480  177.3830  145.3940 F   0  0  0  0  0  0  0  0  0  0  0  0
  189.0900  177.7740  145.0910 C   0  0  0  0  0  3  0  0  0  0  0  0
  187.9770  178.2990  147.8980 C   0  0  0  0  0  3  0  0  0  0  0  0
  191.0040  176.3410  147.8050 F   0  0  0  0  0  0  0  0  0  0  0  0
  189.8240  176.7790  147.2360 C   0  0  1  0  0  3  0  0  0  0  0  0
  187.6630  177.8460  145.4680 C   0  0  0  0  0  3  0  0  0  0  0  0
  187.1510  178.0320  146.7010 C   0  0  0  0  0  0  0  0  0  0  0  0
  183.3140  177.9470  141.7280 N   0  0  0  0  0  2  0  0  0  0  0  0
  184.7950  178.3480  139.8280 C   0  0  0  0  0  3  0  0  0  0  0  0
  182.4590  177.9420  139.4010 C   0  0  0  0  0  3  0  0  0  0  0  0
  185.0140  178.4630  138.4490 C   0  0  0  0  0  0  0  0  0  0  0  0
  183.5130  178.0790  140.3140 C   0  0  0  0  0  0  0  0  0  0  0  0
  183.9350  178.3130  137.5770 C   0  0  0  0  0  3  0  0  0  0  0  0
  182.6900  178.0620  138.0660 N   0  0  0  0  0  0  0  0  0  0  0  0
  186.3150  178.7380  137.9210 N   0  0  0  0  0  2  0  0  0  0  0  0
  187.1750  177.7220  137.3260 C   0  0  2  0  0  3  0  0  0  0  0  0
  186.4310  176.4010  137.2140 C   0  0  0  0  0  1  0  0  0  0  0  0
  189.5380  177.6160  140.2560 C   0  0  0  0  0  0  0  0  0  0  0  0
  190.7080  177.2540  139.6690 C   0  0  0  0  0  0  0  0  0  0  0  0
  189.7350  177.7730  141.6140 O   0  0  0  0  0  0  0  0  0  0  0  0
  188.4190  177.5550  138.1380 C   0  0  0  0  0  0  0  0  0  0  0  0
  189.6430  177.1800  137.5280 C   0  0  0  0  0  3  0  0  0  0  0  0
  190.8090  177.0240  138.2990 C   0  0  0  0  0  3  0  0  0  0  0  0
  188.3630  177.7810  139.5270 C   0  0  0  0  0  3  0  0  0  0  0  0
  191.6980  177.1710  140.6290 O   0  0  0  0  0  0  0  0  0  0  0  0
  191.1130  177.4930  141.9000 C   0  0  0  0  0  2  0  0  0  0  0  0
  181.9930  179.0570  143.4790 C   0  0  0  0  0  2  0  0  0  0  0  0
  180.7880  179.1250  142.5430 C   0  0  0  0  0  2  0  0  0  0  0  0
  179.8870  180.3040  142.8870 C   0  0  0  0  0  2  0  0  0  0  0  0
  179.1520  180.8050  141.6580 C   0  0  0  0  0  2  0  0  0  0  0  0
  180.0720  180.7770  140.4510 C   0  0  0  0  0  2  0  0  0  0  0  0
  179.2640  180.5690  139.1780 C   0  0  0  0  0  2  0  0  0  0  0  0
  180.9220  183.0350  136.9600 N   0  0  0  0  0  2  0  0  0  0  0  0
  179.9160  181.2030  138.0420 N   0  0  0  0  0  0  0  0  0  0  0  0
  180.2800  182.4420  138.0870 C   0  0  0  0  0  3  0  0  0  0  0  0
  181.3440  184.3710  136.9820 N   0  0  0  0  0  0  0  0  0  0  0  0
  182.4960  184.7350  137.6430 O   0  0  0  0  0  0  0  0  0  0  0  0
  180.6770  185.2370  136.3810 O   0  0  0  0  0  0  0  0  0  0  0  0
  1 34  1  1  0  0  0
  1  2  1  0  0  0  0
  2  5  1  0  0  0  0
  4  3  2  0  0  0  0
  5  4  2  0  0  0  0
  7 12  1  0  0  0  0
  8  7  1  0  0  0  0
  9 13  1  0  0  0  0
  9  7  2  0  0  0  0
 10  6  2  0  0  0  0
 12 11  1  1  0  0  0
 12  6  1  0  0  0  0
 13 14  2  0  0  0  0
 14  3  1  0  0  0  0
 14 10  1  0  0  0  0
 15  1  1  0  0  0  0
 16 19  1  0  0  0  0
 17 19  2  0  0  0  0
 18 16  2  0  0  0  0
 19 15  1  0  0  0  0
 20 21  2  0  0  0  0
 20 18  1  0  0  0  0
 21 17  1  0  0  0  0
 22 18  1  0  0  0  0
 23 24  1  1  0  0  0
 23 22  1  0  0  0  0
 23 28  1  0  0  0  0
 25 27  1  0  0  0  0
 26 25  1  0  0  0  0
 26 32  1  0  0  0  0
 27 33  1  0  0  0  0
 28 31  1  0  0  0  0
 29 28  2  0  0  0  0
 29 30  1  0  0  0  0
 30 26  2  0  0  0  0
 31 25  2  0  0  0  0
 32 33  1  0  0  0  0
 35 36  1  0  0  0  0
 35 34  1  0  0  0  0
 37 36  1  0  0  0  0
 38 37  1  0  0  0  0
 39 38  1  0  0  0  0
 40 43  1  0  0  0  0
 40 42  1  0  0  0  0
 41 42  2  0  0  0  0
 41 39  1  0  0  0  0
 43 44  2  0  0  0  0
 45 43  2  0  0  0  0
M  END
>  <MODEL>
5

>  <REMARK>
 VINA RESULT:      -8.2      3.520      6.517
  Name = 
  16 active torsions:
  status: ('A' for Active; 'I' for Inactive)
    1  A    between atoms: C_1  and  C_44
    2  A    between atoms: C_2  and  C_31
    3  A    between atoms: C_2  and  C_39
    4  A    between atoms: C_4  and  N_8
    5  A    between atoms: C_4  and  C_21
    6  A    between atoms: C_5  and  N_25
    7  A    between atoms: C_5  and  C_34
    8  A    between atoms: N_6  and  N_11
    9  A    between atoms: C_7  and  C_27
   10  A    between atoms: C_7  and  C_34
   11  A    between atoms: N_8  and  C_26
   12  A    between atoms: C_27  and  C_39
   13  A    between atoms: C_30  and  C_42
   14  A    between atoms: C_31  and  N_37
   15  A    between atoms: C_31  and  C_42
   16  A    between atoms: C_36  and  N_37
                            x       y       z     vdW  Elec       q    Type
                         _______ _______ _______ _____ _____    ______ ____

>  <TORSDO>
F 16

$$$$
=
 OpenBabel10222416493D

 45 48  0  0  1  0  0  0  0  0999 V2000
  184.5530  179.0320  143.3660 C   0  0  1  0  0  3  0  0  0  0  0  0
  185.4050  177.9750  142.6690 C   0  0  0  0  0  2  0  0  0  0  0  0
  188.7990  176.8420  142.3920 C   0  0  0  0  0  3  0  0  0  0  0  0
  187.6860  177.2050  142.9750 C   0  0  0  0  0  0  0  0  0  0  0  0
  186.5590  177.5680  143.5240 C   0  0  0  0  0  3  0  0  0  0  0  0
  191.0010  176.8480  139.3940 C   0  0  0  0  0  3  0  0  0  0  0  0
  189.3790  178.1300  138.0510 C   0  0  0  0  0  0  0  0  0  0  0  0
  189.5000  178.7920  136.8740 F   0  0  0  0  0  0  0  0  0  0  0  0
  188.5610  178.6290  138.9790 C   0  0  0  0  0  3  0  0  0  0  0  0
  190.5870  177.0440  140.6460 C   0  0  0  0  0  3  0  0  0  0  0  0
  190.7730  176.4800  137.0890 F   0  0  0  0  0  0  0  0  0  0  0  0
  190.0700  176.8140  138.2300 C   0  0  1  0  0  3  0  0  0  0  0  0
  188.3340  178.0560  140.3220 C   0  0  0  0  0  3  0  0  0  0  0  0
  189.1930  177.3190  141.0540 C   0  0  0  0  0  0  0  0  0  0  0  0
  183.1640  178.5940  143.4950 N   0  0  0  0  0  2  0  0  0  0  0  0
  182.1610  178.7040  141.2710 C   0  0  0  0  0  3  0  0  0  0  0  0
  180.9420  179.6320  143.1310 C   0  0  0  0  0  3  0  0  0  0  0  0
  181.1070  179.0600  140.4190 C   0  0  0  0  0  0  0  0  0  0  0  0
  182.0820  178.9830  142.6380 C   0  0  0  0  0  0  0  0  0  0  0  0
  179.9880  179.6990  140.9560 C   0  0  0  0  0  3  0  0  0  0  0  0
  179.9300  179.9730  142.2880 N   0  0  0  0  0  0  0  0  0  0  0  0
  181.1570  178.7890  139.0150 N   0  0  0  0  0  2  0  0  0  0  0  0
  181.0170  177.4540  138.4460 C   0  0  2  0  0  3  0  0  0  0  0  0
  180.3390  176.5250  139.4410 C   0  0  0  0  0  1  0  0  0  0  0  0
  183.8120  175.0480  137.6860 C   0  0  0  0  0  0  0  0  0  0  0  0
  184.8230  175.8840  137.3320 C   0  0  0  0  0  0  0  0  0  0  0  0
  184.2500  173.7410  137.6060 O   0  0  0  0  0  0  0  0  0  0  0  0
  182.3540  176.9140  138.0540 C   0  0  0  0  0  0  0  0  0  0  0  0
  183.4120  177.7840  137.6870 C   0  0  0  0  0  3  0  0  0  0  0  0
  184.6680  177.2690  137.3170 C   0  0  0  0  0  3  0  0  0  0  0  0
  182.5560  175.5200  138.0570 C   0  0  0  0  0  3  0  0  0  0  0  0
  185.9450  175.1420  137.0170 O   0  0  0  0  0  0  0  0  0  0  0  0
  185.6190  173.7540  137.1760 C   0  0  0  0  0  2  0  0  0  0  0  0
  185.1310  179.4090  144.7240 C   0  0  0  0  0  2  0  0  0  0  0  0
  184.2110  178.9610  145.8560 C   0  0  0  0  0  2  0  0  0  0  0  0
  184.9910  178.2470  146.9530 C   0  0  0  0  0  2  0  0  0  0  0  0
  186.4370  178.7070  146.9810 C   0  0  0  0  0  2  0  0  0  0  0  0
  187.3620  177.5120  147.1230 C   0  0  0  0  0  2  0  0  0  0  0  0
  188.4450  177.8050  148.1520 C   0  0  0  0  0  2  0  0  0  0  0  0
  191.2830  176.9190  145.9370 N   0  0  0  0  0  2  0  0  0  0  0  0
  189.7520  177.3990  147.6590 N   0  0  0  0  0  0  0  0  0  0  0  0
  189.9910  177.3130  146.3910 C   0  0  0  0  0  3  0  0  0  0  0  0
  191.5790  176.8310  144.5700 N   0  0  0  0  0  0  0  0  0  0  0  0
  191.7640  177.9680  143.8150 O   0  0  0  0  0  0  0  0  0  0  0  0
  191.6920  175.7100  144.0350 O   0  0  0  0  0  0  0  0  0  0  0  0
  1  2  1  1  0  0  0
  1 15  1  0  0  0  0
  1 34  1  0  0  0  0
  2  5  1  0  0  0  0
  3  4  2  0  0  0  0
  4  5  2  0  0  0  0
  6 10  2  0  0  0  0
  7 12  1  0  0  0  0
  7  9  2  0  0  0  0
  8  7  1  0  0  0  0
  9 13  1  0  0  0  0
 10 14  1  0  0  0  0
 12 11  1  6  0  0  0
 12  6  1  0  0  0  0
 13 14  2  0  0  0  0
 14  3  1  0  0  0  0
 16 19  1  0  0  0  0
 18 20  1  0  0  0  0
 18 16  2  0  0  0  0
 19 17  2  0  0  0  0
 19 15  1  0  0  0  0
 20 21  2  0  0  0  0
 21 17  1  0  0  0  0
 22 18  1  0  0  0  0
 23 22  1  0  0  0  0
 23 24  1  1  0  0  0
 25 31  1  0  0  0  0
 26 25  2  0  0  0  0
 27 25  1  0  0  0  0
 28 31  2  0  0  0  0
 28 23  1  0  0  0  0
 29 28  1  0  0  0  0
 30 26  1  0  0  0  0
 30 29  2  0  0  0  0
 32 33  1  0  0  0  0
 32 26  1  0  0  0  0
 33 27  1  0  0  0  0
 34 35  1  0  0  0  0
 35 36  1  0  0  0  0
 36 37  1  0  0  0  0
 37 38  1  0  0  0  0
 38 39  1  0  0  0  0
 40 42  1  0  0  0  0
 41 39  1  0  0  0  0
 42 41  2  0  0  0  0
 43 40  1  0  0  0  0
 44 43  2  0  0  0  0
 45 43  2  0  0  0  0
M  END
>  <MODEL>
6

>  <REMARK>
 VINA RESULT:      -8.0      3.924      8.134
  Name = 
  16 active torsions:
  status: ('A' for Active; 'I' for Inactive)
    1  A    between atoms: C_1  and  C_44
    2  A    between atoms: C_2  and  C_31
    3  A    between atoms: C_2  and  C_39
    4  A    between atoms: C_4  and  N_8
    5  A    between atoms: C_4  and  C_21
    6  A    between atoms: C_5  and  N_25
    7  A    between atoms: C_5  and  C_34
    8  A    between atoms: N_6  and  N_11
    9  A    between atoms: C_7  and  C_27
   10  A    between atoms: C_7  and  C_34
   11  A    between atoms: N_8  and  C_26
   12  A    between atoms: C_27  and  C_39
   13  A    between atoms: C_30  and  C_42
   14  A    between atoms: C_31  and  N_37
   15  A    between atoms: C_31  and  C_42
   16  A    between atoms: C_36  and  N_37
                            x       y       z     vdW  Elec       q    Type
                         _______ _______ _______ _____ _____    ______ ____

>  <TORSDO>
F 16

$$$$
=
 OpenBabel10222416493D

 45 48  0  0  1  0  0  0  0  0999 V2000
  184.0810  178.5190  140.8750 C   0  0  1  0  0  3  0  0  0  0  0  0
  185.0450  178.8660  142.0060 C   0  0  0  0  0  2  0  0  0  0  0  0
  184.8830  178.6220  145.5830 C   0  0  0  0  0  3  0  0  0  0  0  0
  184.5890  179.0500  144.3820 C   0  0  0  0  0  0  0  0  0  0  0  0
  184.3160  179.4500  143.1700 C   0  0  0  0  0  3  0  0  0  0  0  0
  188.1830  177.1370  144.7200 C   0  0  0  0  0  3  0  0  0  0  0  0
  189.0750  177.4860  146.9920 C   0  0  0  0  0  0  0  0  0  0  0  0
  190.1680  176.9890  147.6220 F   0  0  0  0  0  0  0  0  0  0  0  0
  187.9700  177.7000  147.7080 C   0  0  0  0  0  3  0  0  0  0  0  0
  186.8650  177.2540  144.8840 C   0  0  0  0  0  3  0  0  0  0  0  0
  190.4450  177.6450  145.0710 F   0  0  0  0  0  0  0  0  0  0  0  0
  189.1720  177.8820  145.5510 C   0  0  1  0  0  3  0  0  0  0  0  0
  186.6870  178.2070  147.1790 C   0  0  0  0  0  3  0  0  0  0  0  0
  186.2020  178.0600  145.9300 C   0  0  0  0  0  0  0  0  0  0  0  0
  182.7180  178.9380  141.1920 N   0  0  0  0  0  2  0  0  0  0  0  0
  181.5420  177.0580  140.1680 C   0  0  0  0  0  3  0  0  0  0  0  0
  180.3940  178.3630  141.8370 C   0  0  0  0  0  3  0  0  0  0  0  0
  180.4100  176.2410  140.0470 C   0  0  0  0  0  0  0  0  0  0  0  0
  181.5430  178.1240  141.0710 C   0  0  0  0  0  0  0  0  0  0  0  0
  179.2910  176.5130  140.8350 C   0  0  0  0  0  3  0  0  0  0  0  0
  179.3030  177.5600  141.7030 N   0  0  0  0  0  0  0  0  0  0  0  0
  180.3780  175.1410  139.1310 N   0  0  0  0  0  2  0  0  0  0  0  0
  180.7840  175.2430  137.7350 C   0  0  2  0  0  3  0  0  0  0  0  0
  179.6270  174.8710  136.8210 C   0  0  0  0  0  1  0  0  0  0  0  0
  184.3350  174.0240  137.4430 C   0  0  0  0  0  0  0  0  0  0  0  0
  184.1670  172.7540  136.9910 C   0  0  0  0  0  0  0  0  0  0  0  0
  185.6830  174.2840  137.5890 O   0  0  0  0  0  0  0  0  0  0  0  0
  181.9630  174.3630  137.4720 C   0  0  0  0  0  0  0  0  0  0  0  0
  181.7910  173.0380  136.9970 C   0  0  0  0  0  3  0  0  0  0  0  0
  182.9050  172.2140  136.7520 C   0  0  0  0  0  3  0  0  0  0  0  0
  183.2570  174.8690  137.6970 C   0  0  0  0  0  3  0  0  0  0  0  0
  185.4020  172.1570  136.8280 O   0  0  0  0  0  0  0  0  0  0  0  0
  186.4090  173.1060  137.2070 C   0  0  0  0  0  2  0  0  0  0  0  0
  184.5370  179.1150  139.5490 C   0  0  0  0  0  2  0  0  0  0  0  0
  185.6640  178.2880  138.9340 C   0  0  0  0  0  2  0  0  0  0  0  0
  185.3280  177.8710  137.5070 C   0  0  0  0  0  2  0  0  0  0  0  0
  186.5890  177.6290  136.6990 C   0  0  0  0  0  2  0  0  0  0  0  0
  187.5060  178.8360  136.7870 C   0  0  0  0  0  2  0  0  0  0  0  0
  188.8900  178.4120  137.2550 C   0  0  0  0  0  2  0  0  0  0  0  0
  189.8740  178.1600  140.8210 N   0  0  0  0  0  2  0  0  0  0  0  0
  189.0630  178.6830  138.6740 N   0  0  0  0  0  0  0  0  0  0  0  0
  189.7150  177.8660  139.4350 C   0  0  0  0  0  3  0  0  0  0  0  0
  190.5870  177.3040  141.6700 N   0  0  0  0  0  0  0  0  0  0  0  0
  190.1830  176.0020  141.8580 O   0  0  0  0  0  0  0  0  0  0  0  0
  191.6100  177.7230  142.2490 O   0  0  0  0  0  0  0  0  0  0  0  0
  1 34  1  6  0  0  0
  1 15  1  0  0  0  0
  1  2  1  0  0  0  0
  2  5  1  0  0  0  0
  3 14  1  0  0  0  0
  4  3  2  0  0  0  0
  5  4  2  0  0  0  0
  6 10  2  0  0  0  0
  6 12  1  0  0  0  0
  7  8  1  0  0  0  0
  7  9  2  0  0  0  0
 10 14  1  0  0  0  0
 12 11  1  6  0  0  0
 12  7  1  0  0  0  0
 13  9  1  0  0  0  0
 14 13  2  0  0  0  0
 16 19  1  0  0  0  0
 18 16  2  0  0  0  0
 18 20  1  0  0  0  0
 19 15  1  0  0  0  0
 19 17  2  0  0  0  0
 20 21  2  0  0  0  0
 21 17  1  0  0  0  0
 22 18  1  0  0  0  0
 23 24  1  6  0  0  0
 23 22  1  0  0  0  0
 25 27  1  0  0  0  0
 25 31  1  0  0  0  0
 26 25  2  0  0  0  0
 28 31  2  0  0  0  0
 28 23  1  0  0  0  0
 29 28  1  0  0  0  0
 30 26  1  0  0  0  0
 30 29  2  0  0  0  0
 32 26  1  0  0  0  0
 32 33  1  0  0  0  0
 33 27  1  0  0  0  0
 35 34  1  0  0  0  0
 36 35  1  0  0  0  0
 37 38  1  0  0  0  0
 37 36  1  0  0  0  0
 38 39  1  0  0  0  0
 39 41  1  0  0  0  0
 40 43  1  0  0  0  0
 41 42  2  0  0  0  0
 42 40  1  0  0  0  0
 43 44  2  0  0  0  0
 43 45  2  0  0  0  0
M  END
>  <MODEL>
7

>  <REMARK>
 VINA RESULT:      -7.9      3.418      7.500
  Name = 
  16 active torsions:
  status: ('A' for Active; 'I' for Inactive)
    1  A    between atoms: C_1  and  C_44
    2  A    between atoms: C_2  and  C_31
    3  A    between atoms: C_2  and  C_39
    4  A    between atoms: C_4  and  N_8
    5  A    between atoms: C_4  and  C_21
    6  A    between atoms: C_5  and  N_25
    7  A    between atoms: C_5  and  C_34
    8  A    between atoms: N_6  and  N_11
    9  A    between atoms: C_7  and  C_27
   10  A    between atoms: C_7  and  C_34
   11  A    between atoms: N_8  and  C_26
   12  A    between atoms: C_27  and  C_39
   13  A    between atoms: C_30  and  C_42
   14  A    between atoms: C_31  and  N_37
   15  A    between atoms: C_31  and  C_42
   16  A    between atoms: C_36  and  N_37
                            x       y       z     vdW  Elec       q    Type
                         _______ _______ _______ _____ _____    ______ ____

>  <TORSDO>
F 16

$$$$
=
 OpenBabel10222416493D

 45 48  0  0  1  0  0  0  0  0999 V2000
  186.1660  177.4120  137.4390 C   0  0  1  0  0  3  0  0  0  0  0  0
  184.7610  177.0650  137.9220 C   0  0  0  0  0  2  0  0  0  0  0  0
  182.3000  179.0140  139.6610 C   0  0  0  0  0  3  0  0  0  0  0  0
  183.0560  178.6220  138.6680 C   0  0  0  0  0  0  0  0  0  0  0  0
  183.8210  178.2030  137.6980 C   0  0  0  0  0  3  0  0  0  0  0  0
  184.7790  178.6060  142.4050 C   0  0  0  0  0  3  0  0  0  0  0  0
  183.0920  179.0090  144.1570 C   0  0  0  0  0  0  0  0  0  0  0  0
  183.1080  178.7950  145.4960 F   0  0  0  0  0  0  0  0  0  0  0  0
  181.9440  178.8410  143.5000 C   0  0  0  0  0  3  0  0  0  0  0  0
  184.0430  178.3290  141.3270 C   0  0  0  0  0  3  0  0  0  0  0  0
  185.3390  179.7070  144.3970 F   0  0  0  0  0  0  0  0  0  0  0  0
  184.3210  179.5320  143.4800 C   0  0  1  0  0  3  0  0  0  0  0  0
  181.7540  179.0020  142.0440 C   0  0  0  0  0  3  0  0  0  0  0  0
  182.6740  178.8250  141.0750 C   0  0  0  0  0  0  0  0  0  0  0  0
  186.8970  178.1810  138.4440 N   0  0  0  0  0  2  0  0  0  0  0  0
  188.3370  177.4670  140.2840 C   0  0  0  0  0  3  0  0  0  0  0  0
  189.3480  177.9450  138.1490 C   0  0  0  0  0  3  0  0  0  0  0  0
  189.6000  177.1390  140.7940 C   0  0  0  0  0  0  0  0  0  0  0  0
  188.2010  177.8670  138.9520 C   0  0  0  0  0  0  0  0  0  0  0  0
  190.7120  177.2250  139.9560 C   0  0  0  0  0  3  0  0  0  0  0  0
  190.5660  177.6260  138.6640 N   0  0  0  0  0  0  0  0  0  0  0  0
  189.7710  176.7260  142.1540 N   0  0  0  0  0  2  0  0  0  0  0  0
  190.3070  177.5920  143.1980 C   0  0  2  0  0  3  0  0  0  0  0  0
  191.6990  177.1310  143.6010 C   0  0  0  0  0  1  0  0  0  0  0  0
  189.0700  177.7770  146.7500 C   0  0  0  0  0  0  0  0  0  0  0  0
  187.7290  177.6230  146.5960 C   0  0  0  0  0  0  0  0  0  0  0  0
  189.3630  177.9310  148.0900 O   0  0  0  0  0  0  0  0  0  0  0  0
  189.3950  177.6010  144.3820 C   0  0  0  0  0  0  0  0  0  0  0  0
  187.9950  177.4370  144.2250 C   0  0  0  0  0  3  0  0  0  0  0  0
  187.1420  177.4480  145.3440 C   0  0  0  0  0  3  0  0  0  0  0  0
  189.9450  177.7720  145.6670 C   0  0  0  0  0  3  0  0  0  0  0  0
  187.1160  177.6670  147.8330 O   0  0  0  0  0  0  0  0  0  0  0  0
  188.1320  177.8690  148.8260 C   0  0  0  0  0  2  0  0  0  0  0  0
  186.9430  176.1640  137.0390 C   0  0  0  0  0  2  0  0  0  0  0  0
  187.5200  176.3050  135.6320 C   0  0  0  0  0  2  0  0  0  0  0  0
  188.3950  175.1100  135.2720 C   0  0  0  0  0  2  0  0  0  0  0  0
  189.6830  175.5580  134.6070 C   0  0  0  0  0  2  0  0  0  0  0  0
  190.6810  176.0150  135.6570 C   0  0  0  0  0  2  0  0  0  0  0  0
  191.8340  175.0260  135.7510 C   0  0  0  0  0  2  0  0  0  0  0  0
  194.6420  175.2730  138.1580 N   0  0  0  0  0  2  0  0  0  0  0  0
  192.8880  175.5390  136.6130 N   0  0  0  0  0  0  0  0  0  0  0  0
  193.6120  174.7420  137.3280 C   0  0  0  0  0  3  0  0  0  0  0  0
  195.4560  174.4360  138.9340 N   0  0  0  0  0  0  0  0  0  0  0  0
  196.4760  174.9580  139.6980 O   0  0  0  0  0  0  0  0  0  0  0  0
  195.2430  173.2070  138.9450 O   0  0  0  0  0  0  0  0  0  0  0  0
  1 34  1  1  0  0  0
  1  2  1  0  0  0  0
  1 15  1  0  0  0  0
  3 14  1  0  0  0  0
  4  3  2  0  0  0  0
  5  2  1  0  0  0  0
  5  4  2  0  0  0  0
  6 12  1  0  0  0  0
  7  8  1  0  0  0  0
  9  7  2  0  0  0  0
 10  6  2  0  0  0  0
 12  7  1  0  0  0  0
 12 11  1  1  0  0  0
 13  9  1  0  0  0  0
 14 10  1  0  0  0  0
 14 13  2  0  0  0  0
 15 19  1  0  0  0  0
 16 18  1  0  0  0  0
 17 21  2  0  0  0  0
 17 19  1  0  0  0  0
 18 22  1  0  0  0  0
 19 16  2  0  0  0  0
 20 18  2  0  0  0  0
 21 20  1  0  0  0  0
 22 23  1  0  0  0  0
 23 24  1  1  0  0  0
 23 28  1  0  0  0  0
 25 27  1  0  0  0  0
 26 25  1  0  0  0  0
 26 32  1  0  0  0  0
 27 33  1  0  0  0  0
 28 31  1  0  0  0  0
 29 28  2  0  0  0  0
 29 30  1  0  0  0  0
 30 26  2  0  0  0  0
 31 25  2  0  0  0  0
 32 33  1  0  0  0  0
 35 34  1  0  0  0  0
 36 35  1  0  0  0  0
 37 36  1  0  0  0  0
 37 38  1  0  0  0  0
 38 39  1  0  0  0  0
 39 41  1  0  0  0  0
 40 43  1  0  0  0  0
 41 42  2  0  0  0  0
 42 40  1  0  0  0  0
 43 45  2  0  0  0  0
 43 44  2  0  0  0  0
M  END
>  <MODEL>
8

>  <REMARK>
 VINA RESULT:      -7.9      3.752      9.035
  Name = 
  16 active torsions:
  status: ('A' for Active; 'I' for Inactive)
    1  A    between atoms: C_1  and  C_44
    2  A    between atoms: C_2  and  C_31
    3  A    between atoms: C_2  and  C_39
    4  A    between atoms: C_4  and  N_8
    5  A    between atoms: C_4  and  C_21
    6  A    between atoms: C_5  and  N_25
    7  A    between atoms: C_5  and  C_34
    8  A    between atoms: N_6  and  N_11
    9  A    between atoms: C_7  and  C_27
   10  A    between atoms: C_7  and  C_34
   11  A    between atoms: N_8  and  C_26
   12  A    between atoms: C_27  and  C_39
   13  A    between atoms: C_30  and  C_42
   14  A    between atoms: C_31  and  N_37
   15  A    between atoms: C_31  and  C_42
   16  A    between atoms: C_36  and  N_37
                            x       y       z     vdW  Elec       q    Type
                         _______ _______ _______ _____ _____    ______ ____

>  <TORSDO>
F 16

$$$$
=
 OpenBabel10222416493D

 45 48  0  0  1  0  0  0  0  0999 V2000
  190.0680  177.2910  142.2490 C   0  0  1  0  0  3  0  0  0  0  0  0
  190.5860  175.9100  142.6430 C   0  0  0  0  0  2  0  0  0  0  0  0
  190.7280  177.2320  145.9770 C   0  0  0  0  0  3  0  0  0  0  0  0
  191.1360  176.6090  144.9010 C   0  0  0  0  0  0  0  0  0  0  0  0
  191.5120  175.9990  143.8100 C   0  0  0  0  0  3  0  0  0  0  0  0
  187.9620  178.2930  148.2260 C   0  0  0  0  0  3  0  0  0  0  0  0
  186.2470  177.9390  146.4910 C   0  0  0  0  0  0  0  0  0  0  0  0
  184.8950  177.8560  146.5570 F   0  0  0  0  0  0  0  0  0  0  0  0
  186.8870  177.1810  145.5990 C   0  0  0  0  0  3  0  0  0  0  0  0
  189.0130  177.6130  147.7650 C   0  0  0  0  0  3  0  0  0  0  0  0
  186.0660  179.6660  148.0950 F   0  0  0  0  0  0  0  0  0  0  0  0
  186.9660  178.9480  147.3320 C   0  0  1  0  0  3  0  0  0  0  0  0
  188.3520  177.1230  145.4130 C   0  0  0  0  0  3  0  0  0  0  0  0
  189.3040  177.3530  146.3400 C   0  0  0  0  0  0  0  0  0  0  0  0
  190.9870  177.9610  141.3320 N   0  0  0  0  0  2  0  0  0  0  0  0
  190.7190  176.9060  139.1460 C   0  0  0  0  0  3  0  0  0  0  0  0
  192.9490  177.2840  139.9760 C   0  0  0  0  0  3  0  0  0  0  0  0
  191.2610  176.3520  137.9790 C   0  0  0  0  0  0  0  0  0  0  0  0
  191.5620  177.3830  140.1530 C   0  0  0  0  0  0  0  0  0  0  0  0
  192.6480  176.2810  137.8440 C   0  0  0  0  0  3  0  0  0  0  0  0
  193.4570  176.7400  138.8370 N   0  0  0  0  0  0  0  0  0  0  0  0
  190.4240  175.8550  136.9300 N   0  0  0  0  0  2  0  0  0  0  0  0
  190.2460  174.4370  136.6440 C   0  0  2  0  0  3  0  0  0  0  0  0
  190.7110  174.1210  135.2310 C   0  0  0  0  0  1  0  0  0  0  0  0
  186.5150  174.6640  137.1030 C   0  0  0  0  0  0  0  0  0  0  0  0
  186.1510  173.3560  137.1560 C   0  0  0  0  0  0  0  0  0  0  0  0
  185.3930  175.4570  137.2340 O   0  0  0  0  0  0  0  0  0  0  0  0
  188.8140  174.0480  136.8220 C   0  0  0  0  0  0  0  0  0  0  0  0
  188.4320  172.6830  136.8810 C   0  0  0  0  0  3  0  0  0  0  0  0
  187.0820  172.3240  137.0480 C   0  0  0  0  0  3  0  0  0  0  0  0
  187.8400  175.0580  136.9390 C   0  0  0  0  0  3  0  0  0  0  0  0
  184.7840  173.2650  137.3260 O   0  0  0  0  0  0  0  0  0  0  0  0
  184.2530  174.5970  137.3770 C   0  0  0  0  0  2  0  0  0  0  0  0
  188.6680  177.2130  141.6540 C   0  0  0  0  0  2  0  0  0  0  0  0
  188.2110  178.5780  141.1460 C   0  0  0  0  0  2  0  0  0  0  0  0
  186.6920  178.6530  141.0530 C   0  0  0  0  0  2  0  0  0  0  0  0
  186.0540  178.4990  142.4220 C   0  0  0  0  0  2  0  0  0  0  0  0
  184.5580  178.7410  142.3300 C   0  0  0  0  0  2  0  0  0  0  0  0
  183.9050  178.5090  143.6850 C   0  0  0  0  0  2  0  0  0  0  0  0
  180.5920  179.8920  142.7580 N   0  0  0  0  0  2  0  0  0  0  0  0
  182.5910  179.1320  143.7410 N   0  0  0  0  0  0  0  0  0  0  0  0
  181.8790  179.2840  142.6730 C   0  0  0  0  0  3  0  0  0  0  0  0
  179.7890  180.0590  141.6220 N   0  0  0  0  0  0  0  0  0  0  0  0
  179.5350  181.3140  141.1170 O   0  0  0  0  0  0  0  0  0  0  0  0
  179.3120  179.0570  141.0520 O   0  0  0  0  0  0  0  0  0  0  0  0
  1 34  1  6  0  0  0
  1  2  1  0  0  0  0
  2  5  1  0  0  0  0
  3 14  1  0  0  0  0
  4  3  2  0  0  0  0
  5  4  2  0  0  0  0
  7  8  1  0  0  0  0
  7 12  1  0  0  0  0
  9  7  2  0  0  0  0
 10  6  2  0  0  0  0
 12 11  1  1  0  0  0
 12  6  1  0  0  0  0
 13  9  1  0  0  0  0
 13 14  2  0  0  0  0
 14 10  1  0  0  0  0
 15  1  1  0  0  0  0
 16 19  1  0  0  0  0
 17 19  2  0  0  0  0
 18 16  2  0  0  0  0
 19 15  1  0  0  0  0
 20 18  1  0  0  0  0
 20 21  2  0  0  0  0
 21 17  1  0  0  0  0
 22 18  1  0  0  0  0
 23 24  1  6  0  0  0
 23 28  1  0  0  0  0
 23 22  1  0  0  0  0
 25 26  1  0  0  0  0
 25 27  1  0  0  0  0
 26 32  1  0  0  0  0
 27 33  1  0  0  0  0
 28 29  2  0  0  0  0
 28 31  1  0  0  0  0
 29 30  1  0  0  0  0
 30 26  2  0  0  0  0
 31 25  2  0  0  0  0
 32 33  1  0  0  0  0
 35 34  1  0  0  0  0
 36 35  1  0  0  0  0
 36 37  1  0  0  0  0
 38 37  1  0  0  0  0
 38 39  1  0  0  0  0
 39 41  1  0  0  0  0
 42 40  1  0  0  0  0
 42 41  2  0  0  0  0
 43 40  1  0  0  0  0
 44 43  2  0  0  0  0
 45 43  2  0  0  0  0
M  END
>  <MODEL>
9

>  <REMARK>
 VINA RESULT:      -7.8      2.017      2.727
  Name = 
  16 active torsions:
  status: ('A' for Active; 'I' for Inactive)
    1  A    between atoms: C_1  and  C_44
    2  A    between atoms: C_2  and  C_31
    3  A    between atoms: C_2  and  C_39
    4  A    between atoms: C_4  and  N_8
    5  A    between atoms: C_4  and  C_21
    6  A    between atoms: C_5  and  N_25
    7  A    between atoms: C_5  and  C_34
    8  A    between atoms: N_6  and  N_11
    9  A    between atoms: C_7  and  C_27
   10  A    between atoms: C_7  and  C_34
   11  A    between atoms: N_8  and  C_26
   12  A    between atoms: C_27  and  C_39
   13  A    between atoms: C_30  and  C_42
   14  A    between atoms: C_31  and  N_37
   15  A    between atoms: C_31  and  C_42
   16  A    between atoms: C_36  and  N_37
                            x       y       z     vdW  Elec       q    Type
                         _______ _______ _______ _____ _____    ______ ____

>  <TORSDO>
F 16

$$$$
