=
 OpenBabel10222417383D

 49 53  0  0  1  0  0  0  0  0999 V2000
  184.6380  178.5800  138.7340 C   0  0  0  0  0  0  0  0  0  0  0  0
  185.7180  178.0410  138.0170 C   0  0  0  0  0  3  0  0  0  0  0  0
  184.1970  176.9600  136.4830 C   0  0  0  0  0  3  0  0  0  0  0  0
  183.1140  177.4930  137.1850 C   0  0  0  0  0  3  0  0  0  0  0  0
  185.5010  177.2350  136.8990 C   0  0  0  0  0  0  0  0  0  0  0  0
  183.3160  178.3060  138.3120 C   0  0  0  0  0  0  0  0  0  0  0  0
  180.6920  176.9390  139.4540 C   0  0  0  0  0  1  0  0  0  0  0  0
  181.5230  178.0490  140.0730 C   0  0  2  0  0  3  0  0  0  0  0  0
  179.2860  180.9230  141.3770 C   0  0  0  0  0  1  0  0  0  0  0  0
  180.2560  178.3420  142.2910 C   0  0  0  0  0  1  0  0  0  0  0  0
  180.2190  180.1020  140.5440 C   0  0  0  0  0  0  0  0  0  0  0  0
  180.6610  178.9010  140.9650 C   0  0  0  0  0  0  0  0  0  0  0  0
  180.6570  180.6390  139.2880 N   0  0  0  0  0  0  0  0  0  0  0  0
  182.1760  178.8330  139.0190 N   0  0  0  0  0  0  0  0  0  0  0  0
  181.5730  180.0620  138.5750 C   0  0  0  0  0  3  0  0  0  0  0  0
  186.6610  176.6990  136.1330 C   0  0  0  0  0  2  0  0  0  0  0  0
  187.9140  177.5080  136.4060 C   0  0  2  0  0  3  0  0  0  0  0  0
  188.8940  177.2770  135.3330 N   0  0  0  0  0  2  0  0  0  0  0  0
  189.0210  176.5850  136.6250 C   0  0  1  0  0  3  0  0  0  0  0  0
  190.1010  177.2540  137.4600 C   0  0  0  0  0  2  0  0  0  0  0  0
  190.7410  175.2910  138.6610 O   0  0  0  0  0  0  0  0  0  0  0  0
  190.1180  177.1100  139.9780 N   0  0  0  0  0  2  0  0  0  0  0  0
  190.3370  176.4820  138.7170 C   0  0  0  0  0  0  0  0  0  0  0  0
  190.2940  176.4070  141.2420 C   0  0  0  0  0  2  0  0  0  0  0  0
  190.8790  177.3120  142.3330 C   0  0  2  0  0  0  0  0  0  0  0  0
  190.1670  178.4990  142.3850 F   0  0  0  0  0  0  0  0  0  0  0  0
  192.3020  177.6450  141.9020 C   0  0  0  0  0  1  0  0  0  0  0  0
  189.5640  176.1050  143.9510 O   0  0  0  0  0  1  0  0  0  0  0  0
  191.8400  175.4730  143.8090 C   0  0  0  0  0  1  0  0  0  0  0  0
  190.8430  176.6270  143.7280 C   0  0  1  0  0  0  0  0  0  0  0  0
  191.1240  177.6210  144.8600 C   0  0  0  0  0  2  0  0  0  0  0  0
  191.2870  176.9770  146.0900 O   0  0  0  0  0  1  0  0  0  0  0  0
  184.8830  179.4820  139.8210 N   0  0  0  0  0  2  0  0  0  0  0  0
  187.6220  178.6880  140.6010 C   0  0  0  0  0  1  0  0  0  0  0  0
  184.3690  178.5850  143.3990 C   0  0  0  0  0  3  0  0  0  0  0  0
  184.1280  178.9980  142.0850 C   0  0  0  0  0  3  0  0  0  0  0  0
  186.7090  178.2730  142.8710 C   0  0  0  0  0  3  0  0  0  0  0  0
  185.6620  178.2190  143.7950 C   0  0  0  0  0  0  0  0  0  0  0  0
  186.4790  178.6980  141.5590 C   0  0  0  0  0  0  0  0  0  0  0  0
  185.1760  179.0730  141.1630 C   0  0  0  0  0  0  0  0  0  0  0  0
  187.7860  177.2920  146.8410 C   0  0  0  0  0  3  0  0  0  0  0  0
  187.4610  177.6960  145.4380 C   0  0  0  0  0  2  0  0  0  0  0  0
  186.9370  179.3820  147.7170 N   0  0  0  0  0  0  0  0  0  0  0  0
  185.9490  177.7700  145.1910 C   0  0  1  0  0  3  0  0  0  0  0  0
  187.9950  177.6970  149.1710 N   0  0  0  0  0  1  0  0  0  0  0  0
  187.5390  178.0890  147.8830 C   0  0  0  0  0  0  0  0  0  0  0  0
  185.9090  179.6380  146.9570 C   0  0  0  0  0  3  0  0  0  0  0  0
  185.1380  178.5740  146.2210 C   0  0  2  0  0  3  0  0  0  0  0  0
  184.5260  177.7060  147.1280 O   0  0  0  0  0  1  0  0  0  0  0  0
  1 33  1  0  0  0  0
  2  1  2  0  0  0  0
  3  5  2  0  0  0  0
  3  4  1  0  0  0  0
  4  6  2  0  0  0  0
  5  2  1  0  0  0  0
  6  1  1  0  0  0  0
  6 14  1  0  0  0  0
  8  7  1  6  0  0  0
  8 12  1  0  0  0  0
 11 12  2  0  0  0  0
 11  9  1  0  0  0  0
 12 10  1  0  0  0  0
 13 11  1  0  0  0  0
 14  8  1  0  0  0  0
 15 14  1  0  0  0  0
 15 13  2  0  0  0  0
 16  5  1  0  0  0  0
 17 16  1  6  0  0  0
 17 19  1  0  0  0  0
 18 17  1  0  0  0  0
 18 19  1  0  0  0  0
 19 20  1  1  0  0  0
 20 23  1  0  0  0  0
 21 23  2  0  0  0  0
 22 24  1  0  0  0  0
 23 22  1  0  0  0  0
 24 25  1  0  0  0  0
 25 27  1  6  0  0  0
 25 26  1  0  0  0  0
 25 30  1  0  0  0  0
 30 29  1  1  0  0  0
 30 28  1  0  0  0  0
 30 31  1  0  0  0  0
 31 32  1  0  0  0  0
 33 40  1  0  0  0  0
 34 39  1  0  0  0  0
 35 38  1  0  0  0  0
 36 35  2  0  0  0  0
 37 38  2  0  0  0  0
 39 37  1  0  0  0  0
 40 39  2  0  0  0  0
 40 36  1  0  0  0  0
 41 46  2  0  0  0  0
 42 41  1  0  0  0  0
 43 46  1  0  0  0  0
 44 38  1  6  0  0  0
 44 42  1  0  0  0  0
 44 48  1  0  0  0  0
 46 45  1  0  0  0  0
 47 43  2  0  0  0  0
 48 47  1  0  0  0  0
 48 49  1  1  0  0  0
M  END
>  <MODEL>
1

>  <REMARK>
 VINA RESULT:      -9.0      0.000      0.000
  Name = 
  12 active torsions:
  status: ('A' for Active; 'I' for Inactive)
    1  A    between atoms: C_2  and  C_8
    2  A    between atoms: N_3  and  C_38
    3  A    between atoms: C_8  and  C_41
    4  A    between atoms: C_9  and  C_38
    5  A    between atoms: C_9  and  C_49
    6  A    between atoms: C_15  and  N_27
    7  A    between atoms: C_18  and  C_33
    8  A    between atoms: N_27  and  C_40
    9  A    between atoms: C_28  and  C_49
   10  A    between atoms: C_36  and  C_47
   11  A    between atoms: C_39  and  C_47
   12  A    between atoms: C_43  and  N_44
                            x       y       z     vdW  Elec       q    Type
                         _______ _______ _______ _____ _____    ______ ____

>  <TORSDO>
F 12

$$$$
=
 OpenBabel10222417383D

 49 53  0  0  1  0  0  0  0  0999 V2000
  185.2280  178.5010  138.4100 C   0  0  0  0  0  0  0  0  0  0  0  0
  186.5750  178.7170  138.0810 C   0  0  0  0  0  3  0  0  0  0  0  0
  186.3350  177.3680  136.0910 C   0  0  0  0  0  3  0  0  0  0  0  0
  184.9920  177.1490  136.4050 C   0  0  0  0  0  3  0  0  0  0  0  0
  187.1270  178.1550  136.9290 C   0  0  0  0  0  0  0  0  0  0  0  0
  184.4220  177.7090  137.5600 C   0  0  0  0  0  0  0  0  0  0  0  0
  182.6860  175.0530  137.5570 C   0  0  0  0  0  1  0  0  0  0  0  0
  182.6310  176.2150  138.5340 C   0  0  2  0  0  3  0  0  0  0  0  0
  178.9840  177.3060  139.2170 C   0  0  0  0  0  1  0  0  0  0  0  0
  180.8670  175.3110  140.1710 C   0  0  0  0  0  1  0  0  0  0  0  0
  180.3850  177.2480  138.6980 C   0  0  0  0  0  0  0  0  0  0  0  0
  181.2550  176.3170  139.1350 C   0  0  0  0  0  0  0  0  0  0  0  0
  180.7940  178.2320  137.7370 N   0  0  0  0  0  0  0  0  0  0  0  0
  183.0350  177.4550  137.8610 N   0  0  0  0  0  0  0  0  0  0  0  0
  182.0250  178.3430  137.3480 C   0  0  0  0  0  3  0  0  0  0  0  0
  188.5500  178.4220  136.5800 C   0  0  0  0  0  2  0  0  0  0  0  0
  189.4190  177.2120  136.8700 C   0  0  2  0  0  3  0  0  0  0  0  0
  188.8380  176.4420  137.9800 N   0  0  0  0  0  2  0  0  0  0  0  0
  189.9720  177.3510  138.2120 C   0  0  1  0  0  3  0  0  0  0  0  0
  191.2560  176.5470  138.3330 C   0  0  0  0  0  2  0  0  0  0  0  0
  193.2420  177.1350  139.5210 O   0  0  0  0  0  0  0  0  0  0  0  0
  191.2870  177.1160  140.7900 N   0  0  0  0  0  2  0  0  0  0  0  0
  191.9990  176.9420  139.5670 C   0  0  0  0  0  0  0  0  0  0  0  0
  191.9520  177.4670  142.0380 C   0  0  0  0  0  2  0  0  0  0  0  0
  191.3180  176.7720  143.2480 C   0  0  2  0  0  0  0  0  0  0  0  0
  192.1110  175.7050  143.6400 F   0  0  0  0  0  0  0  0  0  0  0  0
  189.9850  176.2070  142.7760 C   0  0  0  0  0  1  0  0  0  0  0  0
  192.3220  178.4780  144.6220 O   0  0  0  0  0  1  0  0  0  0  0  0
  190.0110  178.7430  144.1900 C   0  0  0  0  0  1  0  0  0  0  0  0
  191.1410  177.7490  144.4450 C   0  0  1  0  0  0  0  0  0  0  0  0
  190.8750  177.0040  145.7580 C   0  0  0  0  0  2  0  0  0  0  0  0
  192.0590  176.7150  146.4410 O   0  0  0  0  0  1  0  0  0  0  0  0
  184.6560  179.1650  139.5450 N   0  0  0  0  0  2  0  0  0  0  0  0
  182.4030  178.7750  141.4180 C   0  0  0  0  0  1  0  0  0  0  0  0
  186.4800  178.3220  142.6800 C   0  0  0  0  0  3  0  0  0  0  0  0
  186.2100  178.6680  141.3540 C   0  0  0  0  0  3  0  0  0  0  0  0
  184.1070  178.2560  143.1460 C   0  0  0  0  0  3  0  0  0  0  0  0
  185.4280  178.1170  143.5820 C   0  0  0  0  0  0  0  0  0  0  0  0
  183.8280  178.5890  141.8170 C   0  0  0  0  0  0  0  0  0  0  0  0
  184.8910  178.7890  140.9070 C   0  0  0  0  0  0  0  0  0  0  0  0
  187.4810  177.1500  146.6640 C   0  0  0  0  0  3  0  0  0  0  0  0
  187.1790  177.4770  145.2360 C   0  0  0  0  0  2  0  0  0  0  0  0
  186.9660  179.4080  147.3660 N   0  0  0  0  0  0  0  0  0  0  0  0
  185.6860  177.7500  145.0070 C   0  0  1  0  0  3  0  0  0  0  0  0
  187.8120  177.7160  148.9460 N   0  0  0  0  0  1  0  0  0  0  0  0
  187.3810  178.0600  147.6360 C   0  0  0  0  0  0  0  0  0  0  0  0
  185.9660  179.7460  146.6030 C   0  0  0  0  0  3  0  0  0  0  0  0
  185.0290  178.7470  145.9750 C   0  0  2  0  0  3  0  0  0  0  0  0
  184.3250  178.0570  146.9640 O   0  0  0  0  0  1  0  0  0  0  0  0
  1 33  1  0  0  0  0
  2  1  1  0  0  0  0
  3  4  2  0  0  0  0
  3  5  1  0  0  0  0
  4  6  1  0  0  0  0
  5  2  2  0  0  0  0
  6 14  1  0  0  0  0
  6  1  2  0  0  0  0
  8  7  1  6  0  0  0
  8 12  1  0  0  0  0
 11 12  2  0  0  0  0
 11  9  1  0  0  0  0
 12 10  1  0  0  0  0
 13 11  1  0  0  0  0
 14  8  1  0  0  0  0
 15 13  2  0  0  0  0
 15 14  1  0  0  0  0
 16  5  1  0  0  0  0
 17 16  1  1  0  0  0
 17 18  1  0  0  0  0
 17 19  1  0  0  0  0
 18 19  1  0  0  0  0
 19 20  1  6  0  0  0
 20 23  1  0  0  0  0
 21 23  2  0  0  0  0
 22 24  1  0  0  0  0
 23 22  1  0  0  0  0
 24 25  1  0  0  0  0
 25 27  1  6  0  0  0
 25 26  1  0  0  0  0
 25 30  1  0  0  0  0
 30 29  1  6  0  0  0
 30 28  1  0  0  0  0
 30 31  1  0  0  0  0
 31 32  1  0  0  0  0
 33 40  1  0  0  0  0
 34 39  1  0  0  0  0
 35 38  1  0  0  0  0
 36 35  2  0  0  0  0
 37 38  2  0  0  0  0
 39 37  1  0  0  0  0
 40 36  1  0  0  0  0
 40 39  2  0  0  0  0
 41 46  2  0  0  0  0
 42 41  1  0  0  0  0
 43 46  1  0  0  0  0
 44 38  1  6  0  0  0
 44 42  1  0  0  0  0
 44 48  1  0  0  0  0
 46 45  1  0  0  0  0
 47 43  2  0  0  0  0
 48 47  1  0  0  0  0
 48 49  1  1  0  0  0
M  END
>  <MODEL>
2

>  <REMARK>
 VINA RESULT:      -8.9      1.566      2.293
  Name = 
  12 active torsions:
  status: ('A' for Active; 'I' for Inactive)
    1  A    between atoms: C_2  and  C_8
    2  A    between atoms: N_3  and  C_38
    3  A    between atoms: C_8  and  C_41
    4  A    between atoms: C_9  and  C_38
    5  A    between atoms: C_9  and  C_49
    6  A    between atoms: C_15  and  N_27
    7  A    between atoms: C_18  and  C_33
    8  A    between atoms: N_27  and  C_40
    9  A    between atoms: C_28  and  C_49
   10  A    between atoms: C_36  and  C_47
   11  A    between atoms: C_39  and  C_47
   12  A    between atoms: C_43  and  N_44
                            x       y       z     vdW  Elec       q    Type
                         _______ _______ _______ _____ _____    ______ ____

>  <TORSDO>
F 12

$$$$
=
 OpenBabel10222417383D

 49 53  0  0  1  0  0  0  0  0999 V2000
  184.5980  178.5760  138.6910 C   0  0  0  0  0  0  0  0  0  0  0  0
  185.6490  178.0330  137.9370 C   0  0  0  0  0  3  0  0  0  0  0  0
  184.0690  176.9660  136.4530 C   0  0  0  0  0  3  0  0  0  0  0  0
  183.0150  177.5030  137.1930 C   0  0  0  0  0  3  0  0  0  0  0  0
  185.3880  177.2320  136.8240 C   0  0  0  0  0  0  0  0  0  0  0  0
  183.2610  178.3120  138.3150 C   0  0  0  0  0  0  0  0  0  0  0  0
  180.6730  176.9560  139.5510 C   0  0  0  0  0  1  0  0  0  0  0  0
  181.5310  178.0620  140.1400 C   0  0  2  0  0  3  0  0  0  0  0  0
  179.3550  180.9450  141.5230 C   0  0  0  0  0  1  0  0  0  0  0  0
  180.3470  178.3600  142.4030 C   0  0  0  0  0  1  0  0  0  0  0  0
  180.2540  180.1200  140.6570 C   0  0  0  0  0  0  0  0  0  0  0  0
  180.7060  178.9180  141.0620 C   0  0  0  0  0  0  0  0  0  0  0  0
  180.6480  180.6550  139.3860 N   0  0  0  0  0  0  0  0  0  0  0  0
  182.1490  178.8440  139.0630 N   0  0  0  0  0  0  0  0  0  0  0  0
  181.5350  180.0750  138.6410 C   0  0  0  0  0  3  0  0  0  0  0  0
  186.5170  176.6910  136.0170 C   0  0  0  0  0  2  0  0  0  0  0  0
  187.7970  177.4580  136.2880 C   0  0  2  0  0  3  0  0  0  0  0  0
  188.7530  177.2260  135.1940 N   0  0  0  0  0  2  0  0  0  0  0  0
  188.8810  176.5000  136.4670 C   0  0  1  0  0  3  0  0  0  0  0  0
  189.9930  177.1180  137.2990 C   0  0  0  0  0  2  0  0  0  0  0  0
  190.8580  175.7810  139.0790 O   0  0  0  0  0  0  0  0  0  0  0  0
  191.7420  175.3320  136.9690 N   0  0  0  0  0  2  0  0  0  0  0  0
  190.8820  176.0520  137.8500 C   0  0  0  0  0  0  0  0  0  0  0  0
  192.6600  174.3040  137.4420 C   0  0  0  0  0  2  0  0  0  0  0  0
  194.0920  174.8310  137.6000 C   0  0  2  0  0  0  0  0  0  0  0  0
  194.1790  175.6040  138.7460 F   0  0  0  0  0  0  0  0  0  0  0  0
  194.3520  175.7430  136.4070 C   0  0  0  0  0  1  0  0  0  0  0  0
  195.2780  173.2820  139.0130 O   0  0  0  0  0  1  0  0  0  0  0  0
  194.6600  172.4540  136.8840 C   0  0  0  0  0  1  0  0  0  0  0  0
  195.1250  173.6730  137.6780 C   0  0  1  0  0  0  0  0  0  0  0  0
  196.5090  174.1060  137.1790 C   0  0  0  0  0  2  0  0  0  0  0  0
  197.1560  174.9370  138.0960 O   0  0  0  0  0  1  0  0  0  0  0  0
  184.8870  179.4730  139.7730 N   0  0  0  0  0  2  0  0  0  0  0  0
  187.6030  178.5620  140.5020 C   0  0  0  0  0  1  0  0  0  0  0  0
  184.4060  178.6210  143.3650 C   0  0  0  0  0  3  0  0  0  0  0  0
  184.1570  179.0360  142.0550 C   0  0  0  0  0  3  0  0  0  0  0  0
  186.7190  178.2010  142.7920 C   0  0  0  0  0  3  0  0  0  0  0  0
  185.6890  178.1990  143.7380 C   0  0  0  0  0  0  0  0  0  0  0  0
  186.4810  178.6290  141.4830 C   0  0  0  0  0  0  0  0  0  0  0  0
  185.1880  179.0590  141.1110 C   0  0  0  0  0  0  0  0  0  0  0  0
  187.8320  177.2620  146.7680 C   0  0  0  0  0  3  0  0  0  0  0  0
  187.4990  177.6700  145.3680 C   0  0  0  0  0  2  0  0  0  0  0  0
  186.9890  179.3490  147.6550 N   0  0  0  0  0  0  0  0  0  0  0  0
  185.9850  177.7460  145.1310 C   0  0  1  0  0  3  0  0  0  0  0  0
  188.0550  177.6600  149.0980 N   0  0  0  0  0  1  0  0  0  0  0  0
  187.5910  178.0560  147.8140 C   0  0  0  0  0  0  0  0  0  0  0  0
  185.9570  179.6090  146.9020 C   0  0  0  0  0  3  0  0  0  0  0  0
  185.1800  178.5470  146.1680 C   0  0  2  0  0  3  0  0  0  0  0  0
  184.5740  177.6760  147.0760 O   0  0  0  0  0  1  0  0  0  0  0  0
  1 33  1  0  0  0  0
  2  1  2  0  0  0  0
  3  5  2  0  0  0  0
  3  4  1  0  0  0  0
  4  6  2  0  0  0  0
  5  2  1  0  0  0  0
  6  1  1  0  0  0  0
  6 14  1  0  0  0  0
  8  7  1  6  0  0  0
  8 12  1  0  0  0  0
 11 12  2  0  0  0  0
 11  9  1  0  0  0  0
 12 10  1  0  0  0  0
 13 11  1  0  0  0  0
 14  8  1  0  0  0  0
 15 14  1  0  0  0  0
 15 13  2  0  0  0  0
 16  5  1  0  0  0  0
 17 16  1  6  0  0  0
 17 19  1  0  0  0  0
 18 17  1  0  0  0  0
 18 19  1  0  0  0  0
 19 20  1  1  0  0  0
 20 23  1  0  0  0  0
 22 24  1  0  0  0  0
 22 23  1  0  0  0  0
 23 21  2  0  0  0  0
 24 25  1  0  0  0  0
 25 27  1  6  0  0  0
 25 30  1  0  0  0  0
 25 26  1  0  0  0  0
 30 29  1  6  0  0  0
 30 28  1  0  0  0  0
 31 30  1  0  0  0  0
 31 32  1  0  0  0  0
 33 40  1  0  0  0  0
 34 39  1  0  0  0  0
 35 38  1  0  0  0  0
 36 35  2  0  0  0  0
 37 38  2  0  0  0  0
 39 37  1  0  0  0  0
 40 39  2  0  0  0  0
 40 36  1  0  0  0  0
 41 46  2  0  0  0  0
 42 41  1  0  0  0  0
 43 46  1  0  0  0  0
 44 38  1  6  0  0  0
 44 42  1  0  0  0  0
 44 48  1  0  0  0  0
 46 45  1  0  0  0  0
 47 43  2  0  0  0  0
 48 47  1  0  0  0  0
 48 49  1  1  0  0  0
M  END
>  <MODEL>
3

>  <REMARK>
 VINA RESULT:      -8.6      2.426      3.358
  Name = 
  12 active torsions:
  status: ('A' for Active; 'I' for Inactive)
    1  A    between atoms: C_2  and  C_8
    2  A    between atoms: N_3  and  C_38
    3  A    between atoms: C_8  and  C_41
    4  A    between atoms: C_9  and  C_38
    5  A    between atoms: C_9  and  C_49
    6  A    between atoms: C_15  and  N_27
    7  A    between atoms: C_18  and  C_33
    8  A    between atoms: N_27  and  C_40
    9  A    between atoms: C_28  and  C_49
   10  A    between atoms: C_36  and  C_47
   11  A    between atoms: C_39  and  C_47
   12  A    between atoms: C_43  and  N_44
                            x       y       z     vdW  Elec       q    Type
                         _______ _______ _______ _____ _____    ______ ____

>  <TORSDO>
F 12

$$$$
=
 OpenBabel10222417383D

 49 53  0  0  1  0  0  0  0  0999 V2000
  185.6680  178.1570  139.0190 C   0  0  0  0  0  0  0  0  0  0  0  0
  186.8590  177.6890  138.4430 C   0  0  0  0  0  3  0  0  0  0  0  0
  185.6560  176.9530  136.4820 C   0  0  0  0  0  3  0  0  0  0  0  0
  184.4650  177.4180  137.0410 C   0  0  0  0  0  3  0  0  0  0  0  0
  186.8560  177.0900  137.1830 C   0  0  0  0  0  0  0  0  0  0  0  0
  184.4520  178.0240  138.3080 C   0  0  0  0  0  0  0  0  0  0  0  0
  182.1000  176.5220  139.8170 C   0  0  0  0  0  1  0  0  0  0  0  0
  182.6730  177.9010  140.0990 C   0  0  2  0  0  3  0  0  0  0  0  0
  179.8680  180.5150  140.6010 C   0  0  0  0  0  1  0  0  0  0  0  0
  181.2840  178.5240  142.1710 C   0  0  0  0  0  1  0  0  0  0  0  0
  180.9750  179.7020  140.0100 C   0  0  0  0  0  0  0  0  0  0  0  0
  181.6260  178.7730  140.7360 C   0  0  0  0  0  0  0  0  0  0  0  0
  181.3510  179.9560  138.6490 N   0  0  0  0  0  0  0  0  0  0  0  0
  183.2030  178.4850  138.8610 N   0  0  0  0  0  0  0  0  0  0  0  0
  182.3910  179.4020  138.1070 C   0  0  0  0  0  3  0  0  0  0  0  0
  188.1350  176.6280  136.5760 C   0  0  0  0  0  2  0  0  0  0  0  0
  189.1840  176.3760  137.6420 C   0  0  2  0  0  3  0  0  0  0  0  0
  190.1590  177.4770  137.6460 N   0  0  0  0  0  2  0  0  0  0  0  0
  190.4750  176.1990  136.9880 C   0  0  1  0  0  3  0  0  0  0  0  0
  191.4020  175.3830  137.8730 C   0  0  0  0  0  2  0  0  0  0  0  0
  192.8810  175.5490  136.0060 O   0  0  0  0  0  0  0  0  0  0  0  0
  193.5960  174.1480  137.7260 N   0  0  0  0  0  2  0  0  0  0  0  0
  192.6540  175.0400  137.1340 C   0  0  0  0  0  0  0  0  0  0  0  0
  194.8210  173.7430  137.0480 C   0  0  0  0  0  2  0  0  0  0  0  0
  196.0310  173.7350  137.9900 C   0  0  2  0  0  0  0  0  0  0  0  0
  196.3140  172.4340  138.3720 F   0  0  0  0  0  0  0  0  0  0  0  0
  195.6140  174.5030  139.2380 C   0  0  0  0  0  1  0  0  0  0  0  0
  197.8450  175.3090  138.1820 O   0  0  0  0  0  1  0  0  0  0  0  0
  198.3500  173.3050  137.0300 C   0  0  0  0  0  1  0  0  0  0  0  0
  197.2860  174.3610  137.3180 C   0  0  1  0  0  0  0  0  0  0  0  0
  196.9330  175.0950  136.0190 C   0  0  0  0  0  2  0  0  0  0  0  0
  197.3040  176.4410  136.0650 O   0  0  0  0  0  1  0  0  0  0  0  0
  185.7070  178.8540  140.2710 N   0  0  0  0  0  2  0  0  0  0  0  0
  184.9330  178.2370  143.0570 C   0  0  0  0  0  1  0  0  0  0  0  0
  189.0470  178.6370  141.9020 C   0  0  0  0  0  3  0  0  0  0  0  0
  188.0480  178.8080  140.9410 C   0  0  0  0  0  3  0  0  0  0  0  0
  187.3590  178.1890  143.5760 C   0  0  0  0  0  3  0  0  0  0  0  0
  188.7050  178.3280  143.2250 C   0  0  0  0  0  0  0  0  0  0  0  0
  186.3540  178.3450  142.6170 C   0  0  0  0  0  0  0  0  0  0  0  0
  186.7020  178.6500  141.2820 C   0  0  0  0  0  0  0  0  0  0  0  0
  190.3420  176.8690  146.3630 C   0  0  0  0  0  3  0  0  0  0  0  0
  189.2990  177.1130  145.3190 C   0  0  0  0  0  2  0  0  0  0  0  0
  191.7990  175.7930  144.7590 N   0  0  0  0  0  0  0  0  0  0  0  0
  189.7520  178.1440  144.2760 C   0  0  1  0  0  3  0  0  0  0  0  0
  192.3770  175.9360  147.1510 N   0  0  0  0  0  1  0  0  0  0  0  0
  191.4920  176.2520  146.0840 C   0  0  0  0  0  0  0  0  0  0  0  0
  191.6120  176.4770  143.6660 C   0  0  0  0  0  3  0  0  0  0  0  0
  191.1390  177.9070  143.6560 C   0  0  2  0  0  3  0  0  0  0  0  0
  192.0820  178.7330  144.2710 O   0  0  0  0  0  1  0  0  0  0  0  0
  1 33  1  0  0  0  0
  2  1  1  0  0  0  0
  3  4  2  0  0  0  0
  3  5  1  0  0  0  0
  4  6  1  0  0  0  0
  5  2  2  0  0  0  0
  6 14  1  0  0  0  0
  6  1  2  0  0  0  0
  8  7  1  6  0  0  0
  8 12  1  0  0  0  0
 11  9  1  0  0  0  0
 11 12  2  0  0  0  0
 12 10  1  0  0  0  0
 13 11  1  0  0  0  0
 14  8  1  0  0  0  0
 15 13  2  0  0  0  0
 15 14  1  0  0  0  0
 16  5  1  0  0  0  0
 17 16  1  6  0  0  0
 17 18  1  0  0  0  0
 19 17  1  0  0  0  0
 19 18  1  0  0  0  0
 19 20  1  1  0  0  0
 21 23  2  0  0  0  0
 23 22  1  0  0  0  0
 23 20  1  0  0  0  0
 24 22  1  0  0  0  0
 24 25  1  0  0  0  0
 25 26  1  0  0  0  0
 25 27  1  1  0  0  0
 30 29  1  6  0  0  0
 30 25  1  0  0  0  0
 30 28  1  0  0  0  0
 31 32  1  0  0  0  0
 31 30  1  0  0  0  0
 33 40  1  0  0  0  0
 35 38  1  0  0  0  0
 36 40  1  0  0  0  0
 36 35  2  0  0  0  0
 38 37  2  0  0  0  0
 39 34  1  0  0  0  0
 39 37  1  0  0  0  0
 40 39  2  0  0  0  0
 42 41  1  0  0  0  0
 43 46  1  0  0  0  0
 44 38  1  6  0  0  0
 44 42  1  0  0  0  0
 46 41  2  0  0  0  0
 46 45  1  0  0  0  0
 47 43  2  0  0  0  0
 48 47  1  0  0  0  0
 48 49  1  1  0  0  0
 48 44  1  0  0  0  0
M  END
>  <MODEL>
4

>  <REMARK>
 VINA RESULT:      -8.3      3.612      4.957
  Name = 
  12 active torsions:
  status: ('A' for Active; 'I' for Inactive)
    1  A    between atoms: C_2  and  C_8
    2  A    between atoms: N_3  and  C_38
    3  A    between atoms: C_8  and  C_41
    4  A    between atoms: C_9  and  C_38
    5  A    between atoms: C_9  and  C_49
    6  A    between atoms: C_15  and  N_27
    7  A    between atoms: C_18  and  C_33
    8  A    between atoms: N_27  and  C_40
    9  A    between atoms: C_28  and  C_49
   10  A    between atoms: C_36  and  C_47
   11  A    between atoms: C_39  and  C_47
   12  A    between atoms: C_43  and  N_44
                            x       y       z     vdW  Elec       q    Type
                         _______ _______ _______ _____ _____    ______ ____

>  <TORSDO>
F 12

$$$$
=
 OpenBabel10222417383D

 49 53  0  0  1  0  0  0  0  0999 V2000
  181.7720  178.9190  140.2490 C   0  0  0  0  0  0  0  0  0  0  0  0
  182.1560  178.4930  141.5300 C   0  0  0  0  0  3  0  0  0  0  0  0
  180.4440  179.8710  142.5330 C   0  0  0  0  0  3  0  0  0  0  0  0
  180.0500  180.3000  141.2640 C   0  0  0  0  0  3  0  0  0  0  0  0
  181.4980  178.9660  142.6670 C   0  0  0  0  0  0  0  0  0  0  0  0
  180.7020  179.8330  140.1110 C   0  0  0  0  0  0  0  0  0  0  0  0
  179.3280  182.5300  139.1620 C   0  0  0  0  0  1  0  0  0  0  0  0
  180.4020  181.7190  138.4560 C   0  0  2  0  0  3  0  0  0  0  0  0
  179.5750  181.2510  134.7070 C   0  0  0  0  0  1  0  0  0  0  0  0
  180.8160  183.2380  136.4240 C   0  0  0  0  0  1  0  0  0  0  0  0
  179.7510  181.0120  136.1730 C   0  0  0  0  0  0  0  0  0  0  0  0
  180.3180  181.9380  136.9700 C   0  0  0  0  0  0  0  0  0  0  0  0
  179.3230  179.7530  136.7110 N   0  0  0  0  0  0  0  0  0  0  0  0
  180.2760  180.3020  138.8160 N   0  0  0  0  0  0  0  0  0  0  0  0
  179.5690  179.4090  137.9360 C   0  0  0  0  0  3  0  0  0  0  0  0
  181.9000  178.4780  144.0150 C   0  0  0  0  0  2  0  0  0  0  0  0
  182.9380  179.3910  144.6380 C   0  0  2  0  0  3  0  0  0  0  0  0
  184.0500  179.5900  143.6960 N   0  0  0  0  0  2  0  0  0  0  0  0
  184.1730  178.6370  144.8120 C   0  0  1  0  0  3  0  0  0  0  0  0
  185.0100  179.2520  145.9210 C   0  0  0  0  0  2  0  0  0  0  0  0
  186.7910  178.3500  147.2310 O   0  0  0  0  0  0  0  0  0  0  0  0
  186.9170  177.9230  144.9430 N   0  0  0  0  0  2  0  0  0  0  0  0
  186.2870  178.4950  146.0870 C   0  0  0  0  0  0  0  0  0  0  0  0
  188.1810  177.2020  145.0270 C   0  0  0  0  0  2  0  0  0  0  0  0
  188.9690  177.2570  143.7130 C   0  0  2  0  0  0  0  0  0  0  0  0
  188.4740  178.2770  142.9160 F   0  0  0  0  0  0  0  0  0  0  0  0
  188.7050  175.9400  142.9930 C   0  0  0  0  0  1  0  0  0  0  0  0
  190.8160  178.8000  143.6140 O   0  0  0  0  0  1  0  0  0  0  0  0
  190.8470  177.2860  145.4310 C   0  0  0  0  0  1  0  0  0  0  0  0
  190.4860  177.4860  143.9610 C   0  0  1  0  0  0  0  0  0  0  0  0
  191.3530  176.5640  143.0960 C   0  0  0  0  0  2  0  0  0  0  0  0
  192.2720  177.2840  142.3280 O   0  0  0  0  0  1  0  0  0  0  0  0
  182.3980  178.3490  139.0920 N   0  0  0  0  0  2  0  0  0  0  0  0
  183.5110  177.3300  136.5500 C   0  0  0  0  0  1  0  0  0  0  0  0
  186.0510  178.6270  139.7570 C   0  0  0  0  0  3  0  0  0  0  0  0
  184.6640  178.6820  139.9180 C   0  0  0  0  0  3  0  0  0  0  0  0
  185.7550  177.7570  137.5190 C   0  0  0  0  0  3  0  0  0  0  0  0
  186.6010  178.1620  138.5550 C   0  0  0  0  0  0  0  0  0  0  0  0
  184.3660  177.8220  137.6680 C   0  0  0  0  0  0  0  0  0  0  0  0
  183.8130  178.2980  138.8780 C   0  0  0  0  0  0  0  0  0  0  0  0
  190.2700  177.6100  139.4950 C   0  0  0  0  0  3  0  0  0  0  0  0
  188.7900  177.7370  139.6680 C   0  0  0  0  0  2  0  0  0  0  0  0
  190.0160  175.6050  138.1650 N   0  0  0  0  0  0  0  0  0  0  0  0
  188.0800  178.0880  138.3540 C   0  0  1  0  0  3  0  0  0  0  0  0
  192.2350  176.4800  138.7880 N   0  0  0  0  0  1  0  0  0  0  0  0
  190.8190  176.6120  138.7980 C   0  0  0  0  0  0  0  0  0  0  0  0
  188.9390  175.8330  137.4680 C   0  0  0  0  0  3  0  0  0  0  0  0
  188.4430  177.2170  137.1400 C   0  0  2  0  0  3  0  0  0  0  0  0
  189.3670  177.8840  136.3350 O   0  0  0  0  0  1  0  0  0  0  0  0
  1  2  1  0  0  0  0
  2  5  2  0  0  0  0
  3  5  1  0  0  0  0
  4  3  2  0  0  0  0
  5 16  1  0  0  0  0
  6  1  2  0  0  0  0
  6  4  1  0  0  0  0
  8 14  1  0  0  0  0
  8  7  1  1  0  0  0
  9 11  1  0  0  0  0
 10 12  1  0  0  0  0
 11 13  1  0  0  0  0
 11 12  2  0  0  0  0
 12  8  1  0  0  0  0
 13 15  2  0  0  0  0
 14  6  1  0  0  0  0
 15 14  1  0  0  0  0
 17 16  1  6  0  0  0
 17 19  1  0  0  0  0
 18 17  1  0  0  0  0
 18 19  1  0  0  0  0
 19 20  1  1  0  0  0
 20 23  1  0  0  0  0
 22 24  1  0  0  0  0
 22 23  1  0  0  0  0
 23 21  2  0  0  0  0
 25 27  1  6  0  0  0
 25 30  1  0  0  0  0
 25 24  1  0  0  0  0
 26 25  1  0  0  0  0
 28 30  1  0  0  0  0
 30 29  1  1  0  0  0
 31 30  1  0  0  0  0
 32 31  1  0  0  0  0
 33  1  1  0  0  0  0
 34 39  1  0  0  0  0
 35 36  1  0  0  0  0
 37 39  2  0  0  0  0
 37 38  1  0  0  0  0
 38 35  2  0  0  0  0
 39 40  1  0  0  0  0
 40 33  1  0  0  0  0
 40 36  2  0  0  0  0
 41 42  1  0  0  0  0
 43 46  1  0  0  0  0
 44 38  1  1  0  0  0
 44 42  1  0  0  0  0
 45 46  1  0  0  0  0
 46 41  2  0  0  0  0
 47 43  2  0  0  0  0
 48 49  1  1  0  0  0
 48 47  1  0  0  0  0
 48 44  1  0  0  0  0
M  END
>  <MODEL>
5

>  <REMARK>
 VINA RESULT:      -8.1      2.100      6.649
  Name = 
  12 active torsions:
  status: ('A' for Active; 'I' for Inactive)
    1  A    between atoms: C_2  and  C_8
    2  A    between atoms: N_3  and  C_38
    3  A    between atoms: C_8  and  C_41
    4  A    between atoms: C_9  and  C_38
    5  A    between atoms: C_9  and  C_49
    6  A    between atoms: C_15  and  N_27
    7  A    between atoms: C_18  and  C_33
    8  A    between atoms: N_27  and  C_40
    9  A    between atoms: C_28  and  C_49
   10  A    between atoms: C_36  and  C_47
   11  A    between atoms: C_39  and  C_47
   12  A    between atoms: C_43  and  N_44
                            x       y       z     vdW  Elec       q    Type
                         _______ _______ _______ _____ _____    ______ ____

>  <TORSDO>
F 12

$$$$
=
 OpenBabel10222417383D

 49 53  0  0  1  0  0  0  0  0999 V2000
  184.7260  178.7190  139.8920 C   0  0  0  0  0  0  0  0  0  0  0  0
  185.8660  178.3430  139.1650 C   0  0  0  0  0  3  0  0  0  0  0  0
  184.5070  177.8580  137.2280 C   0  0  0  0  0  3  0  0  0  0  0  0
  183.3650  178.2330  137.9390 C   0  0  0  0  0  3  0  0  0  0  0  0
  185.7600  177.9150  137.8410 C   0  0  0  0  0  0  0  0  0  0  0  0
  183.4560  178.6670  139.2710 C   0  0  0  0  0  0  0  0  0  0  0  0
  181.0260  176.9650  140.3940 C   0  0  0  0  0  1  0  0  0  0  0  0
  181.7070  178.1660  141.0260 C   0  0  2  0  0  3  0  0  0  0  0  0
  179.1190  180.7190  142.3470 C   0  0  0  0  0  1  0  0  0  0  0  0
  180.4100  178.2760  143.2430 C   0  0  0  0  0  1  0  0  0  0  0  0
  180.1500  180.0310  141.5100 C   0  0  0  0  0  0  0  0  0  0  0  0
  180.7420  178.8940  141.9220 C   0  0  0  0  0  0  0  0  0  0  0  0
  180.5190  180.6310  140.2590 N   0  0  0  0  0  0  0  0  0  0  0  0
  182.2570  179.0370  139.9800 N   0  0  0  0  0  0  0  0  0  0  0  0
  181.5020  180.1820  139.5450 C   0  0  0  0  0  3  0  0  0  0  0  0
  186.9850  177.5510  137.0770 C   0  0  0  0  0  2  0  0  0  0  0  0
  188.2220  177.6590  137.9480 C   0  0  2  0  0  3  0  0  0  0  0  0
  189.3050  178.3020  137.1880 N   0  0  0  0  0  2  0  0  0  0  0  0
  189.2750  176.8400  137.3580 C   0  0  1  0  0  3  0  0  0  0  0  0
  190.2750  176.4280  138.4250 C   0  0  0  0  0  2  0  0  0  0  0  0
  190.4310  174.1960  137.5910 O   0  0  0  0  0  0  0  0  0  0  0  0
  192.4670  175.2610  137.9810 N   0  0  0  0  0  2  0  0  0  0  0  0
  191.0410  175.2250  137.9800 C   0  0  0  0  0  0  0  0  0  0  0  0
  193.2770  174.1140  137.5930 C   0  0  0  0  0  2  0  0  0  0  0  0
  194.7280  174.5040  137.2870 C   0  0  2  0  0  0  0  0  0  0  0  0
  194.8370  175.8850  137.2360 F   0  0  0  0  0  0  0  0  0  0  0  0
  195.0380  173.9650  135.8960 C   0  0  0  0  0  1  0  0  0  0  0  0
  195.3140  172.6560  138.7160 O   0  0  0  0  0  1  0  0  0  0  0  0
  197.1350  173.8660  137.8140 C   0  0  0  0  0  1  0  0  0  0  0  0
  195.7100  173.9480  138.3550 C   0  0  1  0  0  0  0  0  0  0  0  0
  195.7010  174.7920  139.6350 C   0  0  0  0  0  2  0  0  0  0  0  0
  196.9040  175.4800  139.8130 O   0  0  0  0  0  1  0  0  0  0  0  0
  184.8680  179.2450  141.2180 N   0  0  0  0  0  2  0  0  0  0  0  0
  183.8860  178.9510  143.9910 C   0  0  0  0  0  1  0  0  0  0  0  0
  187.8560  177.7620  142.8730 C   0  0  0  0  0  3  0  0  0  0  0  0
  187.0070  178.3070  141.9050 C   0  0  0  0  0  3  0  0  0  0  0  0
  186.1050  177.9800  144.5290 C   0  0  0  0  0  3  0  0  0  0  0  0
  187.4070  177.5980  144.1890 C   0  0  0  0  0  0  0  0  0  0  0  0
  185.2460  178.5130  143.5640 C   0  0  0  0  0  0  0  0  0  0  0  0
  185.6990  178.6710  142.2340 C   0  0  0  0  0  0  0  0  0  0  0  0
  190.6850  176.7370  145.9680 C   0  0  0  0  0  3  0  0  0  0  0  0
  189.7700  177.2620  144.9080 C   0  0  0  0  0  2  0  0  0  0  0  0
  189.9460  178.4190  147.5420 N   0  0  0  0  0  0  0  0  0  0  0  0
  188.2930  177.0220  145.2460 C   0  0  1  0  0  3  0  0  0  0  0  0
  191.7420  176.8230  148.0920 N   0  0  0  0  0  1  0  0  0  0  0  0
  190.7550  177.2900  147.1810 C   0  0  0  0  0  0  0  0  0  0  0  0
  188.6740  178.5430  147.2830 C   0  0  0  0  0  3  0  0  0  0  0  0
  187.8470  177.4530  146.6540 C   0  0  2  0  0  3  0  0  0  0  0  0
  187.7900  176.3420  147.4960 O   0  0  0  0  0  1  0  0  0  0  0  0
  1 33  1  0  0  0  0
  2  1  2  0  0  0  0
  3  5  2  0  0  0  0
  3  4  1  0  0  0  0
  4  6  2  0  0  0  0
  5  2  1  0  0  0  0
  6  1  1  0  0  0  0
  6 14  1  0  0  0  0
  8  7  1  6  0  0  0
  8 12  1  0  0  0  0
 11 12  2  0  0  0  0
 11  9  1  0  0  0  0
 12 10  1  0  0  0  0
 13 11  1  0  0  0  0
 14  8  1  0  0  0  0
 15 14  1  0  0  0  0
 15 13  2  0  0  0  0
 16  5  1  0  0  0  0
 17 16  1  6  0  0  0
 18 19  1  0  0  0  0
 18 17  1  0  0  0  0
 19 17  1  0  0  0  0
 19 20  1  1  0  0  0
 21 23  2  0  0  0  0
 23 22  1  0  0  0  0
 23 20  1  0  0  0  0
 24 22  1  0  0  0  0
 25 27  1  6  0  0  0
 25 24  1  0  0  0  0
 25 30  1  0  0  0  0
 26 25  1  0  0  0  0
 30 29  1  6  0  0  0
 30 28  1  0  0  0  0
 30 31  1  0  0  0  0
 31 32  1  0  0  0  0
 33 40  1  0  0  0  0
 35 38  1  0  0  0  0
 36 40  1  0  0  0  0
 36 35  2  0  0  0  0
 38 37  2  0  0  0  0
 39 34  1  0  0  0  0
 39 37  1  0  0  0  0
 40 39  2  0  0  0  0
 41 46  2  0  0  0  0
 42 44  1  0  0  0  0
 42 41  1  0  0  0  0
 44 38  1  6  0  0  0
 44 48  1  0  0  0  0
 46 43  1  0  0  0  0
 46 45  1  0  0  0  0
 47 43  2  0  0  0  0
 48 47  1  0  0  0  0
 48 49  1  1  0  0  0
M  END
>  <MODEL>
6

>  <REMARK>
 VINA RESULT:      -7.9      2.898      3.818
  Name = 
  12 active torsions:
  status: ('A' for Active; 'I' for Inactive)
    1  A    between atoms: C_2  and  C_8
    2  A    between atoms: N_3  and  C_38
    3  A    between atoms: C_8  and  C_41
    4  A    between atoms: C_9  and  C_38
    5  A    between atoms: C_9  and  C_49
    6  A    between atoms: C_15  and  N_27
    7  A    between atoms: C_18  and  C_33
    8  A    between atoms: N_27  and  C_40
    9  A    between atoms: C_28  and  C_49
   10  A    between atoms: C_36  and  C_47
   11  A    between atoms: C_39  and  C_47
   12  A    between atoms: C_43  and  N_44
                            x       y       z     vdW  Elec       q    Type
                         _______ _______ _______ _____ _____    ______ ____

>  <TORSDO>
F 12

$$$$
=
 OpenBabel10222417383D

 49 53  0  0  1  0  0  0  0  0999 V2000
  189.1190  177.8080  141.3030 C   0  0  0  0  0  0  0  0  0  0  0  0
  188.8930  177.9370  139.9240 C   0  0  0  0  0  3  0  0  0  0  0  0
  191.1530  177.2220  139.4580 C   0  0  0  0  0  3  0  0  0  0  0  0
  191.3900  177.0860  140.8270 C   0  0  0  0  0  3  0  0  0  0  0  0
  189.9030  177.6470  139.0050 C   0  0  0  0  0  0  0  0  0  0  0  0
  190.3840  177.3730  141.7640 C   0  0  0  0  0  0  0  0  0  0  0  0
  190.8150  179.4960  144.0810 C   0  0  0  0  0  1  0  0  0  0  0  0
  190.0870  178.1650  144.1450 C   0  0  2  0  0  3  0  0  0  0  0  0
  191.1150  176.1490  147.2810 C   0  0  0  0  0  1  0  0  0  0  0  0
  189.2460  178.2570  146.5730 C   0  0  0  0  0  1  0  0  0  0  0  0
  190.9910  176.6380  145.8740 C   0  0  0  0  0  0  0  0  0  0  0  0
  190.1310  177.6220  145.5480 C   0  0  0  0  0  0  0  0  0  0  0  0
  191.7970  176.0120  144.8650 N   0  0  0  0  0  0  0  0  0  0  0  0
  190.6630  177.2310  143.1710 N   0  0  0  0  0  0  0  0  0  0  0  0
  191.6470  176.2740  143.6040 C   0  0  0  0  0  3  0  0  0  0  0  0
  189.6330  177.7590  137.5440 C   0  0  0  0  0  2  0  0  0  0  0  0
  189.5780  176.3900  136.8940 C   0  0  2  0  0  3  0  0  0  0  0  0
  189.7820  176.5240  135.4430 N   0  0  0  0  0  2  0  0  0  0  0  0
  188.4290  176.3510  135.9970 C   0  0  1  0  0  3  0  0  0  0  0  0
  187.9730  174.9160  135.7940 C   0  0  0  0  0  2  0  0  0  0  0  0
  186.1970  175.5490  137.2600 O   0  0  0  0  0  0  0  0  0  0  0  0
  186.3690  173.2660  136.8270 N   0  0  0  0  0  2  0  0  0  0  0  0
  186.8030  174.6150  136.6740 C   0  0  0  0  0  0  0  0  0  0  0  0
  185.2590  172.8970  137.6960 C   0  0  0  0  0  2  0  0  0  0  0  0
  184.0150  172.4810  136.9010 C   0  0  2  0  0  0  0  0  0  0  0  0
  183.3960  171.4130  137.5310 F   0  0  0  0  0  0  0  0  0  0  0  0
  184.5080  171.9940  135.5450 C   0  0  0  0  0  1  0  0  0  0  0  0
  183.2000  174.5580  137.8120 O   0  0  0  0  0  1  0  0  0  0  0  0
  183.2030  174.4090  135.4510 C   0  0  0  0  0  1  0  0  0  0  0  0
  183.0030  173.6540  136.7620 C   0  0  1  0  0  0  0  0  0  0  0  0
  181.5510  173.1700  136.8550 C   0  0  0  0  0  2  0  0  0  0  0  0
  180.6730  174.2150  137.1540 O   0  0  0  0  0  1  0  0  0  0  0  0
  188.0410  178.0190  142.2240 N   0  0  0  0  0  2  0  0  0  0  0  0
  185.8520  177.9140  144.2080 C   0  0  0  0  0  1  0  0  0  0  0  0
  185.1020  178.8070  140.0780 C   0  0  0  0  0  3  0  0  0  0  0  0
  186.4110  178.5530  140.4960 C   0  0  0  0  0  3  0  0  0  0  0  0
  184.3200  178.4980  142.3470 C   0  0  0  0  0  3  0  0  0  0  0  0
  184.0510  178.7780  141.0040 C   0  0  0  0  0  0  0  0  0  0  0  0
  185.6280  178.2570  142.7750 C   0  0  0  0  0  0  0  0  0  0  0  0
  186.6890  178.2930  141.8410 C   0  0  0  0  0  0  0  0  0  0  0  0
  181.1970  179.9260  138.7250 C   0  0  0  0  0  3  0  0  0  0  0  0
  182.5970  179.6890  139.1960 C   0  0  0  0  0  2  0  0  0  0  0  0
  180.7910  177.5510  138.5090 N   0  0  0  0  0  0  0  0  0  0  0  0
  182.6400  179.0410  140.5860 C   0  0  1  0  0  3  0  0  0  0  0  0
  179.1080  179.2230  137.8420 N   0  0  0  0  0  1  0  0  0  0  0  0
  180.3770  178.9210  138.4080 C   0  0  0  0  0  0  0  0  0  0  0  0
  181.4390  177.0350  139.5160 C   0  0  0  0  0  3  0  0  0  0  0  0
  181.7540  177.7980  140.7760 C   0  0  2  0  0  3  0  0  0  0  0  0
  180.5750  178.1510  141.4350 O   0  0  0  0  0  1  0  0  0  0  0  0
  1  6  1  0  0  0  0
  1 33  1  0  0  0  0
  2  1  2  0  0  0  0
  3  4  1  0  0  0  0
  4  6  2  0  0  0  0
  5  3  2  0  0  0  0
  5  2  1  0  0  0  0
  6 14  1  0  0  0  0
  8  7  1  1  0  0  0
  8 12  1  0  0  0  0
 11  9  1  0  0  0  0
 12 11  2  0  0  0  0
 12 10  1  0  0  0  0
 13 11  1  0  0  0  0
 14 15  1  0  0  0  0
 14  8  1  0  0  0  0
 15 13  2  0  0  0  0
 16  5  1  0  0  0  0
 17 16  1  1  0  0  0
 18 19  1  0  0  0  0
 18 17  1  0  0  0  0
 19 20  1  6  0  0  0
 19 17  1  0  0  0  0
 20 23  1  0  0  0  0
 22 24  1  0  0  0  0
 23 22  1  0  0  0  0
 23 21  2  0  0  0  0
 25 27  1  6  0  0  0
 25 26  1  0  0  0  0
 25 24  1  0  0  0  0
 30 29  1  6  0  0  0
 30 31  1  0  0  0  0
 30 25  1  0  0  0  0
 30 28  1  0  0  0  0
 31 32  1  0  0  0  0
 35 36  2  0  0  0  0
 35 38  1  0  0  0  0
 36 40  1  0  0  0  0
 37 39  1  0  0  0  0
 38 37  2  0  0  0  0
 39 34  1  0  0  0  0
 40 33  1  0  0  0  0
 40 39  2  0  0  0  0
 41 42  1  0  0  0  0
 42 44  1  0  0  0  0
 43 47  2  0  0  0  0
 44 48  1  0  0  0  0
 44 38  1  6  0  0  0
 45 46  1  0  0  0  0
 46 43  1  0  0  0  0
 46 41  2  0  0  0  0
 47 48  1  0  0  0  0
 48 49  1  6  0  0  0
M  END
>  <MODEL>
7

>  <REMARK>
 VINA RESULT:      -7.7      3.509      8.620
  Name = 
  12 active torsions:
  status: ('A' for Active; 'I' for Inactive)
    1  A    between atoms: C_2  and  C_8
    2  A    between atoms: N_3  and  C_38
    3  A    between atoms: C_8  and  C_41
    4  A    between atoms: C_9  and  C_38
    5  A    between atoms: C_9  and  C_49
    6  A    between atoms: C_15  and  N_27
    7  A    between atoms: C_18  and  C_33
    8  A    between atoms: N_27  and  C_40
    9  A    between atoms: C_28  and  C_49
   10  A    between atoms: C_36  and  C_47
   11  A    between atoms: C_39  and  C_47
   12  A    between atoms: C_43  and  N_44
                            x       y       z     vdW  Elec       q    Type
                         _______ _______ _______ _____ _____    ______ ____

>  <TORSDO>
F 12

$$$$
=
 OpenBabel10222417383D

 49 53  0  0  1  0  0  0  0  0999 V2000
  187.1080  178.3030  142.5650 C   0  0  0  0  0  0  0  0  0  0  0  0
  186.1100  178.4610  141.5910 C   0  0  0  0  0  3  0  0  0  0  0  0
  184.3930  178.2550  143.2770 C   0  0  0  0  0  3  0  0  0  0  0  0
  185.3760  178.1000  144.2570 C   0  0  0  0  0  3  0  0  0  0  0  0
  184.7600  178.4370  141.9430 C   0  0  0  0  0  0  0  0  0  0  0  0
  186.7390  178.1230  143.9180 C   0  0  0  0  0  0  0  0  0  0  0  0
  186.8040  178.9650  146.9760 C   0  0  0  0  0  1  0  0  0  0  0  0
  187.3240  177.6890  146.3380 C   0  0  2  0  0  3  0  0  0  0  0  0
  190.8660  176.8160  147.6250 C   0  0  0  0  0  1  0  0  0  0  0  0
  188.1050  176.4460  148.4490 C   0  0  0  0  0  1  0  0  0  0  0  0
  189.7300  177.2890  146.7750 C   0  0  0  0  0  0  0  0  0  0  0  0
  188.4500  177.1240  147.1610 C   0  0  0  0  0  0  0  0  0  0  0  0
  190.0360  177.9010  145.5140 N   0  0  0  0  0  0  0  0  0  0  0  0
  187.7290  177.9510  144.9520 N   0  0  0  0  0  0  0  0  0  0  0  0
  189.1140  178.2050  144.6550 C   0  0  0  0  0  3  0  0  0  0  0  0
  183.7160  178.6380  140.9000 C   0  0  0  0  0  2  0  0  0  0  0  0
  184.3420  178.9980  139.5660 C   0  0  2  0  0  3  0  0  0  0  0  0
  183.3090  178.9950  138.5190 N   0  0  0  0  0  2  0  0  0  0  0  0
  184.2220  177.8510  138.6740 C   0  0  1  0  0  3  0  0  0  0  0  0
  185.2990  177.9070  137.6030 C   0  0  0  0  0  2  0  0  0  0  0  0
  184.2010  176.5050  136.0130 O   0  0  0  0  0  0  0  0  0  0  0  0
  186.3130  175.7870  136.6880 N   0  0  0  0  0  2  0  0  0  0  0  0
  185.2200  176.7020  136.7250 C   0  0  0  0  0  0  0  0  0  0  0  0
  186.2890  174.5740  135.8810 C   0  0  0  0  0  2  0  0  0  0  0  0
  185.9700  173.3280  136.7170 C   0  0  2  0  0  0  0  0  0  0  0  0
  185.4920  173.7110  137.9600 F   0  0  0  0  0  0  0  0  0  0  0  0
  187.2910  172.6010  136.9340 C   0  0  0  0  0  1  0  0  0  0  0  0
  184.3390  173.1230  134.9550 O   0  0  0  0  0  1  0  0  0  0  0  0
  185.5620  171.1590  135.4480 C   0  0  0  0  0  1  0  0  0  0  0  0
  184.9190  172.4210  136.0170 C   0  0  1  0  0  0  0  0  0  0  0  0
  183.7810  172.0270  136.9660 C   0  0  0  0  0  2  0  0  0  0  0  0
  183.4300  170.6820  136.8280 O   0  0  0  0  0  1  0  0  0  0  0  0
  188.4890  178.4260  142.1970 N   0  0  0  0  0  2  0  0  0  0  0  0
  190.5040  176.2650  142.2620 C   0  0  0  0  0  1  0  0  0  0  0  0
  189.2230  178.0330  138.5680 C   0  0  0  0  0  3  0  0  0  0  0  0
  188.6800  178.4930  139.7700 C   0  0  0  0  0  3  0  0  0  0  0  0
  190.5610  176.4280  139.7870 C   0  0  0  0  0  3  0  0  0  0  0  0
  190.1670  176.9990  138.5730 C   0  0  0  0  0  0  0  0  0  0  0  0
  190.0120  176.8730  140.9930 C   0  0  0  0  0  0  0  0  0  0  0  0
  189.0540  177.9120  140.9850 C   0  0  0  0  0  0  0  0  0  0  0  0
  192.9260  175.8290  136.1910 C   0  0  0  0  0  3  0  0  0  0  0  0
  192.2940  176.3790  137.4300 C   0  0  0  0  0  2  0  0  0  0  0  0
  191.9360  173.6530  136.5650 N   0  0  0  0  0  0  0  0  0  0  0  0
  190.7690  176.4900  137.3030 C   0  0  1  0  0  3  0  0  0  0  0  0
  193.4890  174.0720  134.6970 N   0  0  0  0  0  1  0  0  0  0  0  0
  192.7510  174.5610  135.8100 C   0  0  0  0  0  0  0  0  0  0  0  0
  190.7600  173.9310  137.0550 C   0  0  0  0  0  3  0  0  0  0  0  0
  190.0430  175.2310  136.8000 C   0  0  2  0  0  3  0  0  0  0  0  0
  189.7480  175.3620  135.4420 O   0  0  0  0  0  1  0  0  0  0  0  0
  1  6  1  0  0  0  0
  2  5  1  0  0  0  0
  2  1  2  0  0  0  0
  3  4  1  0  0  0  0
  5  3  2  0  0  0  0
  6  4  2  0  0  0  0
  6 14  1  0  0  0  0
  8  7  1  1  0  0  0
  8 12  1  0  0  0  0
 11 12  2  0  0  0  0
 11  9  1  0  0  0  0
 12 10  1  0  0  0  0
 13 11  1  0  0  0  0
 14  8  1  0  0  0  0
 15 14  1  0  0  0  0
 15 13  2  0  0  0  0
 16  5  1  0  0  0  0
 17 16  1  1  0  0  0
 18 19  1  0  0  0  0
 18 17  1  0  0  0  0
 19 20  1  6  0  0  0
 19 17  1  0  0  0  0
 21 23  2  0  0  0  0
 22 23  1  0  0  0  0
 23 20  1  0  0  0  0
 24 22  1  0  0  0  0
 24 25  1  0  0  0  0
 25 27  1  1  0  0  0
 25 26  1  0  0  0  0
 28 30  1  0  0  0  0
 30 29  1  6  0  0  0
 30 25  1  0  0  0  0
 30 31  1  0  0  0  0
 32 31  1  0  0  0  0
 33  1  1  0  0  0  0
 35 38  2  0  0  0  0
 35 36  1  0  0  0  0
 36 40  2  0  0  0  0
 37 39  2  0  0  0  0
 38 37  1  0  0  0  0
 39 34  1  0  0  0  0
 40 39  1  0  0  0  0
 40 33  1  0  0  0  0
 41 42  1  0  0  0  0
 43 47  2  0  0  0  0
 44 42  1  0  0  0  0
 44 38  1  1  0  0  0
 45 46  1  0  0  0  0
 46 41  2  0  0  0  0
 46 43  1  0  0  0  0
 48 49  1  6  0  0  0
 48 47  1  0  0  0  0
 48 44  1  0  0  0  0
M  END
>  <MODEL>
8

>  <REMARK>
 VINA RESULT:      -7.6      3.506      9.071
  Name = 
  12 active torsions:
  status: ('A' for Active; 'I' for Inactive)
    1  A    between atoms: C_2  and  C_8
    2  A    between atoms: N_3  and  C_38
    3  A    between atoms: C_8  and  C_41
    4  A    between atoms: C_9  and  C_38
    5  A    between atoms: C_9  and  C_49
    6  A    between atoms: C_15  and  N_27
    7  A    between atoms: C_18  and  C_33
    8  A    between atoms: N_27  and  C_40
    9  A    between atoms: C_28  and  C_49
   10  A    between atoms: C_36  and  C_47
   11  A    between atoms: C_39  and  C_47
   12  A    between atoms: C_43  and  N_44
                            x       y       z     vdW  Elec       q    Type
                         _______ _______ _______ _____ _____    ______ ____

>  <TORSDO>
F 12

$$$$
=
 OpenBabel10222417383D

 49 53  0  0  1  0  0  0  0  0999 V2000
  185.6870  177.4980  137.6590 C   0  0  0  0  0  0  0  0  0  0  0  0
  186.6670  176.8160  136.9210 C   0  0  0  0  0  3  0  0  0  0  0  0
  184.9780  175.3920  135.9420 C   0  0  0  0  0  3  0  0  0  0  0  0
  183.9940  176.0660  136.6670 C   0  0  0  0  0  3  0  0  0  0  0  0
  186.3170  175.7680  136.0680 C   0  0  0  0  0  0  0  0  0  0  0  0
  184.3300  177.1220  137.5290 C   0  0  0  0  0  0  0  0  0  0  0  0
  182.3290  176.1230  139.7790 C   0  0  0  0  0  1  0  0  0  0  0  0
  183.0440  177.4590  139.6790 C   0  0  2  0  0  3  0  0  0  0  0  0
  180.6310  180.4020  140.3640 C   0  0  0  0  0  1  0  0  0  0  0  0
  182.2550  178.5300  141.8790 C   0  0  0  0  0  1  0  0  0  0  0  0
  181.5020  179.3970  139.6800 C   0  0  0  0  0  0  0  0  0  0  0  0
  182.2480  178.5230  140.3830 C   0  0  0  0  0  0  0  0  0  0  0  0
  181.5460  179.4020  138.2460 N   0  0  0  0  0  0  0  0  0  0  0  0
  183.2900  177.7910  138.2710 N   0  0  0  0  0  0  0  0  0  0  0  0
  182.3790  178.6660  137.5810 C   0  0  0  0  0  3  0  0  0  0  0  0
  187.3670  175.0770  135.2700 C   0  0  0  0  0  2  0  0  0  0  0  0
  188.6440  175.8950  135.2250 C   0  0  2  0  0  3  0  0  0  0  0  0
  189.7200  175.0980  134.6170 N   0  0  0  0  0  2  0  0  0  0  0  0
  189.6360  175.2520  136.0780 C   0  0  1  0  0  3  0  0  0  0  0  0
  190.6620  176.2710  136.5450 C   0  0  0  0  0  2  0  0  0  0  0  0
  191.3720  174.8660  138.3410 O   0  0  0  0  0  0  0  0  0  0  0  0
  193.0840  175.8070  137.0710 N   0  0  0  0  0  2  0  0  0  0  0  0
  191.7070  175.6080  137.3810 C   0  0  0  0  0  0  0  0  0  0  0  0
  194.1560  175.2190  137.8640 C   0  0  0  0  0  2  0  0  0  0  0  0
  195.1610  174.4460  137.0000 C   0  0  2  0  0  0  0  0  0  0  0  0
  195.5310  175.2210  135.9120 F   0  0  0  0  0  0  0  0  0  0  0  0
  194.4250  173.2230  136.4680 C   0  0  0  0  0  1  0  0  0  0  0  0
  196.2080  174.3070  139.1650 O   0  0  0  0  0  1  0  0  0  0  0  0
  196.7470  172.5660  137.6570 C   0  0  0  0  0  1  0  0  0  0  0  0
  196.4290  174.0520  137.8080 C   0  0  1  0  0  0  0  0  0  0  0  0
  197.6520  174.8780  137.3910 C   0  0  0  0  0  2  0  0  0  0  0  0
  198.2790  175.4700  138.4910 O   0  0  0  0  0  1  0  0  0  0  0  0
  186.0560  178.6320  138.4560 N   0  0  0  0  0  2  0  0  0  0  0  0
  189.0000  178.7770  138.2250 C   0  0  0  0  0  1  0  0  0  0  0  0
  187.0630  178.2880  142.0240 C   0  0  0  0  0  3  0  0  0  0  0  0
  186.2850  178.3750  140.8660 C   0  0  0  0  0  3  0  0  0  0  0  0
  189.0690  178.5420  140.6940 C   0  0  0  0  0  3  0  0  0  0  0  0
  188.4590  178.3690  141.9400 C   0  0  0  0  0  0  0  0  0  0  0  0
  188.2970  178.6440  139.5330 C   0  0  0  0  0  0  0  0  0  0  0  0
  186.8880  178.5680  139.6200 C   0  0  0  0  0  0  0  0  0  0  0  0
  189.6770  177.0140  145.3070 C   0  0  0  0  0  3  0  0  0  0  0  0
  188.8140  177.1670  144.0950 C   0  0  0  0  0  2  0  0  0  0  0  0
  191.5150  176.1650  143.9810 N   0  0  0  0  0  0  0  0  0  0  0  0
  189.3180  178.2750  143.1610 C   0  0  1  0  0  3  0  0  0  0  0  0
  191.6390  176.3000  146.4390 N   0  0  0  0  0  1  0  0  0  0  0  0
  190.9250  176.5440  145.2330 C   0  0  0  0  0  0  0  0  0  0  0  0
  191.4440  176.8570  142.8790 C   0  0  0  0  0  3  0  0  0  0  0  0
  190.8110  178.2220  142.7980 C   0  0  2  0  0  3  0  0  0  0  0  0
  191.5230  179.1320  143.5800 O   0  0  0  0  0  1  0  0  0  0  0  0
  1 33  1  0  0  0  0
  2  1  2  0  0  0  0
  3  5  2  0  0  0  0
  3  4  1  0  0  0  0
  4  6  2  0  0  0  0
  5  2  1  0  0  0  0
  6  1  1  0  0  0  0
  6 14  1  0  0  0  0
  8  7  1  6  0  0  0
  8 12  1  0  0  0  0
 11  9  1  0  0  0  0
 11 12  2  0  0  0  0
 12 10  1  0  0  0  0
 13 11  1  0  0  0  0
 14  8  1  0  0  0  0
 15 13  2  0  0  0  0
 15 14  1  0  0  0  0
 16  5  1  0  0  0  0
 17 16  1  1  0  0  0
 17 19  1  0  0  0  0
 18 17  1  0  0  0  0
 18 19  1  0  0  0  0
 19 20  1  6  0  0  0
 20 23  1  0  0  0  0
 22 23  1  0  0  0  0
 22 24  1  0  0  0  0
 23 21  2  0  0  0  0
 25 27  1  6  0  0  0
 25 30  1  0  0  0  0
 25 24  1  0  0  0  0
 26 25  1  0  0  0  0
 30 29  1  6  0  0  0
 30 28  1  0  0  0  0
 31 30  1  0  0  0  0
 31 32  1  0  0  0  0
 33 40  1  0  0  0  0
 34 39  1  0  0  0  0
 36 35  2  0  0  0  0
 37 38  2  0  0  0  0
 38 35  1  0  0  0  0
 39 40  2  0  0  0  0
 39 37  1  0  0  0  0
 40 36  1  0  0  0  0
 42 41  1  0  0  0  0
 43 46  1  0  0  0  0
 44 38  1  6  0  0  0
 44 42  1  0  0  0  0
 46 41  2  0  0  0  0
 46 45  1  0  0  0  0
 47 43  2  0  0  0  0
 48 47  1  0  0  0  0
 48 44  1  0  0  0  0
 48 49  1  1  0  0  0
M  END
>  <MODEL>
9

>  <REMARK>
 VINA RESULT:      -7.5      3.373      4.689
  Name = 
  12 active torsions:
  status: ('A' for Active; 'I' for Inactive)
    1  A    between atoms: C_2  and  C_8
    2  A    between atoms: N_3  and  C_38
    3  A    between atoms: C_8  and  C_41
    4  A    between atoms: C_9  and  C_38
    5  A    between atoms: C_9  and  C_49
    6  A    between atoms: C_15  and  N_27
    7  A    between atoms: C_18  and  C_33
    8  A    between atoms: N_27  and  C_40
    9  A    between atoms: C_28  and  C_49
   10  A    between atoms: C_36  and  C_47
   11  A    between atoms: C_39  and  C_47
   12  A    between atoms: C_43  and  N_44
                            x       y       z     vdW  Elec       q    Type
                         _______ _______ _______ _____ _____    ______ ____

>  <TORSDO>
F 12

$$$$
