=
 OpenBabel10222415263D

 31 33  0  0  1  0  0  0  0  0999 V2000
  185.9490  177.8420  142.6680 N   0  0  0  0  0  0  0  0  0  0  0  0
  188.7880  177.6250  146.4710 N   0  0  0  0  0  0  0  0  0  0  0  0
  185.7530  178.3580  144.9940 C   0  0  0  0  0  0  0  0  0  0  0  0
  183.9180  178.8130  143.5530 C   0  0  0  0  0  3  0  0  0  0  0  0
  186.4720  177.8670  143.9180 C   0  0  0  0  0  0  0  0  0  0  0  0
  189.1890  178.1030  148.8310 N   0  0  0  0  0  1  0  0  0  0  0  0
  184.6750  178.3060  142.4690 C   0  0  0  0  0  0  0  0  0  0  0  0
  187.7240  177.4810  144.2730 N   0  0  0  0  0  0  0  0  0  0  0  0
  186.6110  178.2670  146.0590 C   0  0  0  0  0  0  0  0  0  0  0  0
  188.3540  178.0820  147.6790 C   0  0  0  0  0  0  0  0  0  0  0  0
  186.7330  178.6510  147.6820 S   0  0  0  0  0  0  0  0  0  0  0  0
  187.7650  177.7450  145.5980 C   0  0  0  0  0  0  0  0  0  0  0  0
  184.4630  178.8490  144.8480 C   0  0  0  0  0  3  0  0  0  0  0  0
  188.7850  176.9870  143.3950 C   0  0  2  0  0  3  0  0  0  0  0  0
  189.8190  176.2050  144.2020 C   0  0  0  0  0  2  0  0  0  0  0  0
  190.7370  175.4130  143.2870 C   0  0  0  0  0  2  0  0  0  0  0  0
  191.9530  175.9540  144.9750 F   0  0  0  0  0  0  0  0  0  0  0  0
  191.9320  175.1220  143.9470 O   0  0  0  0  0  0  0  0  0  0  0  0
  189.4390  178.1420  142.6240 C   0  0  1  0  0  3  0  0  0  0  0  0
  190.9190  179.6040  143.9760 C   0  0  0  0  0  2  0  0  0  0  0  0
  190.7690  178.5230  143.2100 C   0  0  0  0  0  3  0  0  0  0  0  0
  189.6050  177.7940  141.2170 N   0  0  0  0  0  2  0  0  0  0  0  0
  188.5920  178.5140  140.4600 C   0  0  0  0  0  2  0  0  0  0  0  0
  188.9150  178.4630  138.9800 C   0  0  0  0  0  2  0  0  0  0  0  0
  187.7690  176.2190  137.6660 O   0  0  0  0  0  0  0  0  0  0  0  0
  185.8860  177.3980  136.8240 C   0  0  0  0  0  1  0  0  0  0  0  0
  187.6810  178.4880  138.2140 N   0  0  0  0  0  2  0  0  0  0  0  0
  187.1590  177.3190  137.5850 C   0  0  0  0  0  0  0  0  0  0  0  0
  184.0970  178.2910  141.1620 N   0  0  0  0  0  2  0  0  0  0  0  0
  184.6860  178.9910  140.0300 C   0  0  0  0  0  2  0  0  0  0  0  0
  183.5970  179.4920  139.1010 C   0  0  0  0  0  1  0  0  0  0  0  0
  1  5  1  0  0  0  0
  2 10  2  0  0  0  0
  3  9  1  0  0  0  0
  4 13  2  0  0  0  0
  5  8  1  0  0  0  0
  5  3  2  0  0  0  0
  7  1  2  0  0  0  0
  7  4  1  0  0  0  0
  8 12  1  0  0  0  0
  9 11  1  0  0  0  0
 10 11  1  0  0  0  0
 10  6  1  0  0  0  0
 12  9  2  0  0  0  0
 12  2  1  0  0  0  0
 13  3  1  0  0  0  0
 14 15  1  1  0  0  0
 14  8  1  0  0  0  0
 16 18  1  0  0  0  0
 16 15  1  0  0  0  0
 18 17  1  0  0  0  0
 19 21  1  1  0  0  0
 19 14  1  0  0  0  0
 21 20  2  0  0  0  0
 22 19  1  0  0  0  0
 23 22  1  0  0  0  0
 24 23  1  0  0  0  0
 26 28  1  0  0  0  0
 27 24  1  0  0  0  0
 28 25  2  0  0  0  0
 28 27  1  0  0  0  0
 29  7  1  0  0  0  0
 30 29  1  0  0  0  0
 31 30  1  0  0  0  0
M  END
>  <MODEL>
1

>  <REMARK>
 VINA RESULT:      -7.2      0.000      0.000
  Name = 
  12 active torsions:
  status: ('A' for Active; 'I' for Inactive)
    1  A    between atoms: C_4  and  O_14
    2  A    between atoms: C_4  and  C_19
    3  A    between atoms: N_5  and  C_26
    4  A    between atoms: N_5  and  C_28
    5  A    between atoms: C_6  and  C_19
    6  A    between atoms: C_6  and  N_20
    7  A    between atoms: C_6  and  C_28
    8  A    between atoms: C_8  and  N_18
    9  A    between atoms: C_16  and  N_18
   10  A    between atoms: N_17  and  C_22
   11  A    between atoms: C_22  and  C_26
   12  A    between atoms: C_24  and  C_28
                            x       y       z     vdW  Elec       q    Type
                         _______ _______ _______ _____ _____    ______ ____

>  <TORSDO>
F 12

$$$$
=
 OpenBabel10222415263D

 31 33  0  0  1  0  0  0  0  0999 V2000
  186.5800  178.4940  144.5270 N   0  0  0  0  0  0  0  0  0  0  0  0
  185.2530  178.7570  139.9740 N   0  0  0  0  0  0  0  0  0  0  0  0
  184.5120  178.7000  143.3460 C   0  0  0  0  0  0  0  0  0  0  0  0
  184.4740  178.5100  145.7160 C   0  0  0  0  0  3  0  0  0  0  0  0
  185.8940  178.6270  143.3660 C   0  0  0  0  0  0  0  0  0  0  0  0
  183.4810  178.8120  138.2950 N   0  0  0  0  0  1  0  0  0  0  0  0
  185.8880  178.4380  145.7090 C   0  0  0  0  0  0  0  0  0  0  0  0
  186.4250  178.6610  142.1180 N   0  0  0  0  0  0  0  0  0  0  0  0
  184.1840  178.7810  142.0180 C   0  0  0  0  0  0  0  0  0  0  0  0
  183.9310  178.8030  139.6450 C   0  0  0  0  0  0  0  0  0  0  0  0
  182.8650  178.8180  140.9920 S   0  0  0  0  0  0  0  0  0  0  0  0
  185.3380  178.7550  141.3210 C   0  0  0  0  0  0  0  0  0  0  0  0
  183.7600  178.6390  144.5110 C   0  0  0  0  0  3  0  0  0  0  0  0
  187.8350  178.5300  141.7480 C   0  0  2  0  0  3  0  0  0  0  0  0
  187.9670  177.7750  140.4270 C   0  0  0  0  0  2  0  0  0  0  0  0
  188.8440  178.5390  139.4490 C   0  0  0  0  0  2  0  0  0  0  0  0
  189.7740  176.6100  139.6340 F   0  0  0  0  0  0  0  0  0  0  0  0
  190.0340  177.8430  139.2320 O   0  0  0  0  0  0  0  0  0  0  0  0
  188.6330  177.8420  142.8640 C   0  0  1  0  0  3  0  0  0  0  0  0
  189.7530  175.6270  142.8830 C   0  0  0  0  0  2  0  0  0  0  0  0
  188.6460  176.3470  142.7020 C   0  0  0  0  0  3  0  0  0  0  0  0
  190.0020  178.3430  142.9040 N   0  0  0  0  0  2  0  0  0  0  0  0
  190.3230  178.6450  144.2910 C   0  0  0  0  0  2  0  0  0  0  0  0
  191.6820  178.0730  144.6460 C   0  0  0  0  0  2  0  0  0  0  0  0
  192.1690  175.3550  145.3150 O   0  0  0  0  0  0  0  0  0  0  0  0
  191.8590  175.6480  147.6520 C   0  0  0  0  0  1  0  0  0  0  0  0
  191.6400  177.5280  145.9910 N   0  0  0  0  0  2  0  0  0  0  0  0
  191.9030  176.1510  146.2550 C   0  0  0  0  0  0  0  0  0  0  0  0
  186.5850  178.2980  146.9490 N   0  0  0  0  0  2  0  0  0  0  0  0
  187.8990  177.6800  147.0510 C   0  0  0  0  0  2  0  0  0  0  0  0
  188.5580  178.0680  148.3600 C   0  0  0  0  0  1  0  0  0  0  0  0
  1  7  2  0  0  0  0
  2 12  1  0  0  0  0
  3  5  2  0  0  0  0
  3 13  1  0  0  0  0
  5  1  1  0  0  0  0
  6 10  1  0  0  0  0
  7  4  1  0  0  0  0
  7 29  1  0  0  0  0
  8  5  1  0  0  0  0
  9  3  1  0  0  0  0
 10  2  2  0  0  0  0
 10 11  1  0  0  0  0
 11  9  1  0  0  0  0
 12  9  2  0  0  0  0
 12  8  1  0  0  0  0
 13  4  2  0  0  0  0
 14 15  1  6  0  0  0
 14  8  1  0  0  0  0
 14 19  1  0  0  0  0
 16 15  1  0  0  0  0
 18 16  1  0  0  0  0
 18 17  1  0  0  0  0
 19 21  1  6  0  0  0
 19 22  1  0  0  0  0
 21 20  2  0  0  0  0
 22 23  1  0  0  0  0
 23 24  1  0  0  0  0
 24 27  1  0  0  0  0
 25 28  2  0  0  0  0
 27 28  1  0  0  0  0
 28 26  1  0  0  0  0
 29 30  1  0  0  0  0
 30 31  1  0  0  0  0
M  END
>  <MODEL>
2

>  <REMARK>
 VINA RESULT:      -7.0      2.425      6.381
  Name = 
  12 active torsions:
  status: ('A' for Active; 'I' for Inactive)
    1  A    between atoms: C_4  and  O_14
    2  A    between atoms: C_4  and  C_19
    3  A    between atoms: N_5  and  C_26
    4  A    between atoms: N_5  and  C_28
    5  A    between atoms: C_6  and  C_19
    6  A    between atoms: C_6  and  N_20
    7  A    between atoms: C_6  and  C_28
    8  A    between atoms: C_8  and  N_18
    9  A    between atoms: C_16  and  N_18
   10  A    between atoms: N_17  and  C_22
   11  A    between atoms: C_22  and  C_26
   12  A    between atoms: C_24  and  C_28
                            x       y       z     vdW  Elec       q    Type
                         _______ _______ _______ _____ _____    ______ ____

>  <TORSDO>
F 12

$$$$
=
 OpenBabel10222415263D

 31 33  0  0  1  0  0  0  0  0999 V2000
  186.8520  178.5350  140.7030 N   0  0  0  0  0  0  0  0  0  0  0  0
  191.1770  176.8850  139.6360 N   0  0  0  0  0  0  0  0  0  0  0  0
  188.0150  177.9160  138.7070 C   0  0  0  0  0  0  0  0  0  0  0  0
  185.7410  178.5920  138.5560 C   0  0  0  0  0  3  0  0  0  0  0  0
  187.9780  178.1110  140.0770 C   0  0  0  0  0  0  0  0  0  0  0  0
  192.7490  176.0020  137.9900 N   0  0  0  0  0  1  0  0  0  0  0  0
  185.7290  178.7840  139.9580 C   0  0  0  0  0  0  0  0  0  0  0  0
  189.1540  177.7880  140.6720 N   0  0  0  0  0  0  0  0  0  0  0  0
  189.2780  177.4490  138.4550 C   0  0  0  0  0  0  0  0  0  0  0  0
  191.4920  176.5640  138.3490 C   0  0  0  0  0  0  0  0  0  0  0  0
  190.2390  176.8690  137.2160 S   0  0  0  0  0  0  0  0  0  0  0  0
  189.9230  177.3860  139.6360 C   0  0  0  0  0  0  0  0  0  0  0  0
  186.9050  178.1430  137.9070 C   0  0  0  0  0  3  0  0  0  0  0  0
  189.4580  177.7950  142.1030 C   0  0  2  0  0  3  0  0  0  0  0  0
  190.8500  178.3760  142.3450 C   0  0  0  0  0  2  0  0  0  0  0  0
  190.8830  179.1890  143.6290 C   0  0  0  0  0  2  0  0  0  0  0  0
  190.9850  178.0860  145.4700 F   0  0  0  0  0  0  0  0  0  0  0  0
  191.7660  178.6060  144.5390 O   0  0  0  0  0  0  0  0  0  0  0  0
  189.3340  176.3850  142.6960 C   0  0  1  0  0  3  0  0  0  0  0  0
  191.1250  175.2510  143.9860 C   0  0  0  0  0  2  0  0  0  0  0  0
  190.6720  175.7100  142.8200 C   0  0  0  0  0  3  0  0  0  0  0  0
  188.6840  176.4290  144.0010 N   0  0  0  0  0  2  0  0  0  0  0  0
  187.4340  177.1590  143.8490 C   0  0  0  0  0  2  0  0  0  0  0  0
  186.7950  177.3830  145.2050 C   0  0  0  0  0  2  0  0  0  0  0  0
  186.5730  178.7290  147.6980 O   0  0  0  0  0  0  0  0  0  0  0  0
  188.7270  178.0960  148.4780 C   0  0  0  0  0  1  0  0  0  0  0  0
  187.8260  177.4140  146.2270 N   0  0  0  0  0  2  0  0  0  0  0  0
  187.6430  178.1070  147.4620 C   0  0  0  0  0  0  0  0  0  0  0  0
  184.5280  179.2330  140.5900 N   0  0  0  0  0  2  0  0  0  0  0  0
  183.7170  178.3760  141.4430 C   0  0  0  0  0  2  0  0  0  0  0  0
  183.9870  178.6860  142.9020 C   0  0  0  0  0  1  0  0  0  0  0  0
  2 12  1  0  0  0  0
  3  5  2  0  0  0  0
  4  7  1  0  0  0  0
  5  8  1  0  0  0  0
  5  1  1  0  0  0  0
  6 10  1  0  0  0  0
  7 29  1  0  0  0  0
  7  1  2  0  0  0  0
  8 14  1  0  0  0  0
  9  3  1  0  0  0  0
  9 12  2  0  0  0  0
 10  2  2  0  0  0  0
 11 10  1  0  0  0  0
 11  9  1  0  0  0  0
 12  8  1  0  0  0  0
 13  4  2  0  0  0  0
 13  3  1  0  0  0  0
 14 15  1  6  0  0  0
 14 19  1  0  0  0  0
 15 16  1  0  0  0  0
 16 18  1  0  0  0  0
 18 17  1  0  0  0  0
 19 21  1  1  0  0  0
 19 22  1  0  0  0  0
 21 20  2  0  0  0  0
 23 22  1  0  0  0  0
 23 24  1  0  0  0  0
 24 27  1  0  0  0  0
 27 28  1  0  0  0  0
 28 25  2  0  0  0  0
 28 26  1  0  0  0  0
 29 30  1  0  0  0  0
 30 31  1  0  0  0  0
M  END
>  <MODEL>
3

>  <REMARK>
 VINA RESULT:      -6.8      2.954      6.404
  Name = 
  12 active torsions:
  status: ('A' for Active; 'I' for Inactive)
    1  A    between atoms: C_4  and  O_14
    2  A    between atoms: C_4  and  C_19
    3  A    between atoms: N_5  and  C_26
    4  A    between atoms: N_5  and  C_28
    5  A    between atoms: C_6  and  C_19
    6  A    between atoms: C_6  and  N_20
    7  A    between atoms: C_6  and  C_28
    8  A    between atoms: C_8  and  N_18
    9  A    between atoms: C_16  and  N_18
   10  A    between atoms: N_17  and  C_22
   11  A    between atoms: C_22  and  C_26
   12  A    between atoms: C_24  and  C_28
                            x       y       z     vdW  Elec       q    Type
                         _______ _______ _______ _____ _____    ______ ____

>  <TORSDO>
F 12

$$$$
=
 OpenBabel10222415263D

 31 33  0  0  1  0  0  0  0  0999 V2000
  187.9450  177.5310  145.6540 N   0  0  0  0  0  0  0  0  0  0  0  0
  185.4290  178.1850  141.6780 N   0  0  0  0  0  0  0  0  0  0  0  0
  185.7620  178.3430  145.1110 C   0  0  0  0  0  0  0  0  0  0  0  0
  186.3930  178.1670  147.3970 C   0  0  0  0  0  3  0  0  0  0  0  0
  187.0050  177.8640  144.7350 C   0  0  0  0  0  0  0  0  0  0  0  0
  183.3230  178.7640  140.5880 N   0  0  0  0  0  1  0  0  0  0  0  0
  187.6580  177.6810  146.9860 C   0  0  0  0  0  0  0  0  0  0  0  0
  187.1200  177.7420  143.3890 N   0  0  0  0  0  0  0  0  0  0  0  0
  185.0840  178.5190  143.9340 C   0  0  0  0  0  0  0  0  0  0  0  0
  184.1390  178.6200  141.7450 C   0  0  0  0  0  0  0  0  0  0  0  0
  183.5830  178.9470  143.3360 S   0  0  0  0  0  0  0  0  0  0  0  0
  185.9150  178.1550  142.9370 C   0  0  0  0  0  0  0  0  0  0  0  0
  185.4150  178.5040  146.4450 C   0  0  0  0  0  3  0  0  0  0  0  0
  188.2540  177.2010  142.6380 C   0  0  2  0  0  3  0  0  0  0  0  0
  188.9410  176.0980  143.4420 C   0  0  0  0  0  2  0  0  0  0  0  0
  190.1380  175.5430  142.6890 C   0  0  0  0  0  2  0  0  0  0  0  0
  192.0050  175.6540  143.7480 F   0  0  0  0  0  0  0  0  0  0  0  0
  190.9730  174.8480  143.5660 O   0  0  0  0  0  0  0  0  0  0  0  0
  189.2420  178.3120  142.2610 C   0  0  1  0  0  3  0  0  0  0  0  0
  190.6410  179.3440  144.0330 C   0  0  0  0  0  2  0  0  0  0  0  0
  190.4300  178.3400  143.1810 C   0  0  0  0  0  3  0  0  0  0  0  0
  189.6920  178.1570  140.8820 N   0  0  0  0  0  2  0  0  0  0  0  0
  188.5110  178.0120  140.0440 C   0  0  0  0  0  2  0  0  0  0  0  0
  188.8190  177.1130  138.8630 C   0  0  0  0  0  2  0  0  0  0  0  0
  190.7420  175.0560  138.4840 O   0  0  0  0  0  0  0  0  0  0  0  0
  192.4910  176.5160  137.8110 C   0  0  0  0  0  1  0  0  0  0  0  0
  190.1910  177.3260  138.4370 N   0  0  0  0  0  2  0  0  0  0  0  0
  191.1020  176.2430  138.2610 C   0  0  0  0  0  0  0  0  0  0  0  0
  188.6280  177.3380  147.9770 N   0  0  0  0  0  2  0  0  0  0  0  0
  190.0370  177.6850  147.8560 C   0  0  0  0  0  2  0  0  0  0  0  0
  190.7930  176.5650  147.1680 C   0  0  0  0  0  1  0  0  0  0  0  0
  1  7  2  0  0  0  0
  2 10  2  0  0  0  0
  2 12  1  0  0  0  0
  3 13  1  0  0  0  0
  5  3  2  0  0  0  0
  5  1  1  0  0  0  0
  6 10  1  0  0  0  0
  7  4  1  0  0  0  0
  7 29  1  0  0  0  0
  8  5  1  0  0  0  0
  9  3  1  0  0  0  0
 10 11  1  0  0  0  0
 11  9  1  0  0  0  0
 12  8  1  0  0  0  0
 12  9  2  0  0  0  0
 13  4  2  0  0  0  0
 14  8  1  0  0  0  0
 14 15  1  1  0  0  0
 16 15  1  0  0  0  0
 16 18  1  0  0  0  0
 18 17  1  0  0  0  0
 19 14  1  0  0  0  0
 19 21  1  1  0  0  0
 21 20  2  0  0  0  0
 22 19  1  0  0  0  0
 23 22  1  0  0  0  0
 24 23  1  0  0  0  0
 26 28  1  0  0  0  0
 27 24  1  0  0  0  0
 28 27  1  0  0  0  0
 28 25  2  0  0  0  0
 30 29  1  0  0  0  0
 31 30  1  0  0  0  0
M  END
>  <MODEL>
4

>  <REMARK>
 VINA RESULT:      -6.8      1.895      4.689
  Name = 
  12 active torsions:
  status: ('A' for Active; 'I' for Inactive)
    1  A    between atoms: C_4  and  O_14
    2  A    between atoms: C_4  and  C_19
    3  A    between atoms: N_5  and  C_26
    4  A    between atoms: N_5  and  C_28
    5  A    between atoms: C_6  and  C_19
    6  A    between atoms: C_6  and  N_20
    7  A    between atoms: C_6  and  C_28
    8  A    between atoms: C_8  and  N_18
    9  A    between atoms: C_16  and  N_18
   10  A    between atoms: N_17  and  C_22
   11  A    between atoms: C_22  and  C_26
   12  A    between atoms: C_24  and  C_28
                            x       y       z     vdW  Elec       q    Type
                         _______ _______ _______ _____ _____    ______ ____

>  <TORSDO>
F 12

$$$$
=
 OpenBabel10222415263D

 31 33  0  0  1  0  0  0  0  0999 V2000
  187.4370  177.9010  145.4020 N   0  0  0  0  0  0  0  0  0  0  0  0
  186.9720  178.3680  140.6980 N   0  0  0  0  0  0  0  0  0  0  0  0
  185.6600  178.4330  143.8920 C   0  0  0  0  0  0  0  0  0  0  0  0
  185.1860  178.2530  146.2150 C   0  0  0  0  0  3  0  0  0  0  0  0
  186.9900  178.1410  144.1450 C   0  0  0  0  0  0  0  0  0  0  0  0
  185.5470  178.7020  138.7440 N   0  0  0  0  0  1  0  0  0  0  0  0
  186.5510  177.9580  146.4470 C   0  0  0  0  0  0  0  0  0  0  0  0
  187.7270  178.0890  143.0070 N   0  0  0  0  0  0  0  0  0  0  0  0
  185.5840  178.5630  142.5300 C   0  0  0  0  0  0  0  0  0  0  0  0
  185.7500  178.6220  140.1500 C   0  0  0  0  0  0  0  0  0  0  0  0
  184.4840  178.8080  141.2960 S   0  0  0  0  0  0  0  0  0  0  0  0
  186.8220  178.3540  142.0400 C   0  0  0  0  0  0  0  0  0  0  0  0
  184.7190  178.4930  144.9100 C   0  0  0  0  0  3  0  0  0  0  0  0
  189.1410  177.7360  142.8790 C   0  0  2  0  0  3  0  0  0  0  0  0
  189.9850  178.9940  142.6880 C   0  0  0  0  0  2  0  0  0  0  0  0
  190.6540  179.4040  143.9890 C   0  0  0  0  0  2  0  0  0  0  0  0
  192.1940  178.5690  142.7440 F   0  0  0  0  0  0  0  0  0  0  0  0
  192.0190  179.1150  143.9350 O   0  0  0  0  0  0  0  0  0  0  0  0
  189.3570  176.7420  141.7300 C   0  0  1  0  0  3  0  0  0  0  0  0
  190.5350  176.6900  139.5470 C   0  0  0  0  0  2  0  0  0  0  0  0
  189.9860  177.3980  140.5330 C   0  0  0  0  0  3  0  0  0  0  0  0
  190.1830  175.6210  142.1660 N   0  0  0  0  0  2  0  0  0  0  0  0
  190.3830  175.7490  143.6010 C   0  0  0  0  0  2  0  0  0  0  0  0
  191.8610  175.6630  143.9300 C   0  0  0  0  0  2  0  0  0  0  0  0
  191.7810  177.2090  146.3130 O   0  0  0  0  0  0  0  0  0  0  0  0
  192.1360  175.3700  147.7750 C   0  0  0  0  0  1  0  0  0  0  0  0
  192.0280  175.1320  145.2710 N   0  0  0  0  0  2  0  0  0  0  0  0
  191.9700  175.9680  146.4260 C   0  0  0  0  0  0  0  0  0  0  0  0
  186.9920  177.7100  147.7830 N   0  0  0  0  0  2  0  0  0  0  0  0
  188.3000  177.1490  148.0910 C   0  0  0  0  0  2  0  0  0  0  0  0
  189.2410  178.2430  148.5550 C   0  0  0  0  0  1  0  0  0  0  0  0
  1  7  2  0  0  0  0
  2 12  1  0  0  0  0
  3  5  2  0  0  0  0
  3 13  1  0  0  0  0
  4  7  1  0  0  0  0
  5  1  1  0  0  0  0
  6 10  1  0  0  0  0
  7 29  1  0  0  0  0
  8  5  1  0  0  0  0
  9  3  1  0  0  0  0
 10  2  2  0  0  0  0
 10 11  1  0  0  0  0
 11  9  1  0  0  0  0
 12  9  2  0  0  0  0
 12  8  1  0  0  0  0
 13  4  2  0  0  0  0
 14 15  1  6  0  0  0
 14  8  1  0  0  0  0
 15 16  1  0  0  0  0
 17 18  1  0  0  0  0
 18 16  1  0  0  0  0
 19 21  1  6  0  0  0
 19 22  1  0  0  0  0
 19 14  1  0  0  0  0
 20 21  2  0  0  0  0
 22 23  1  0  0  0  0
 23 24  1  0  0  0  0
 24 27  1  0  0  0  0
 25 28  2  0  0  0  0
 27 28  1  0  0  0  0
 28 26  1  0  0  0  0
 29 30  1  0  0  0  0
 30 31  1  0  0  0  0
M  END
>  <MODEL>
5

>  <REMARK>
 VINA RESULT:      -6.8      2.648      6.195
  Name = 
  12 active torsions:
  status: ('A' for Active; 'I' for Inactive)
    1  A    between atoms: C_4  and  O_14
    2  A    between atoms: C_4  and  C_19
    3  A    between atoms: N_5  and  C_26
    4  A    between atoms: N_5  and  C_28
    5  A    between atoms: C_6  and  C_19
    6  A    between atoms: C_6  and  N_20
    7  A    between atoms: C_6  and  C_28
    8  A    between atoms: C_8  and  N_18
    9  A    between atoms: C_16  and  N_18
   10  A    between atoms: N_17  and  C_22
   11  A    between atoms: C_22  and  C_26
   12  A    between atoms: C_24  and  C_28
                            x       y       z     vdW  Elec       q    Type
                         _______ _______ _______ _____ _____    ______ ____

>  <TORSDO>
F 12

$$$$
=
 OpenBabel10222415263D

 31 33  0  0  1  0  0  0  0  0999 V2000
  188.2340  177.6280  145.8300 N   0  0  0  0  0  0  0  0  0  0  0  0
  185.2060  178.1480  142.2070 N   0  0  0  0  0  0  0  0  0  0  0  0
  185.9830  178.3890  145.5630 C   0  0  0  0  0  0  0  0  0  0  0  0
  186.9110  178.2770  147.7480 C   0  0  0  0  0  3  0  0  0  0  0  0
  187.1750  177.9240  145.0360 C   0  0  0  0  0  0  0  0  0  0  0  0
  182.9640  178.6660  141.3920 N   0  0  0  0  0  1  0  0  0  0  0  0
  188.1200  177.8030  147.1850 C   0  0  0  0  0  0  0  0  0  0  0  0
  187.1150  177.7730  143.6890 N   0  0  0  0  0  0  0  0  0  0  0  0
  185.1530  178.5270  144.4810 C   0  0  0  0  0  0  0  0  0  0  0  0
  183.9270  178.5620  142.4330 C   0  0  0  0  0  0  0  0  0  0  0  0
  183.5780  178.9150  144.0770 S   0  0  0  0  0  0  0  0  0  0  0  0
  185.8530  178.1550  143.3910 C   0  0  0  0  0  0  0  0  0  0  0  0
  185.8100  178.5750  146.9270 C   0  0  0  0  0  3  0  0  0  0  0  0
  188.1510  177.2340  142.8070 C   0  0  2  0  0  3  0  0  0  0  0  0
  188.8920  176.0920  143.4990 C   0  0  0  0  0  2  0  0  0  0  0  0
  190.1140  175.6740  142.6990 C   0  0  0  0  0  2  0  0  0  0  0  0
  191.9990  175.6220  143.7310 F   0  0  0  0  0  0  0  0  0  0  0  0
  190.9430  174.8670  143.4820 O   0  0  0  0  0  0  0  0  0  0  0  0
  189.1210  178.3380  142.3630 C   0  0  1  0  0  3  0  0  0  0  0  0
  190.7710  179.3440  143.9200 C   0  0  0  0  0  2  0  0  0  0  0  0
  190.3950  178.3150  143.1600 C   0  0  0  0  0  3  0  0  0  0  0  0
  189.4280  178.2140  140.9430 N   0  0  0  0  0  2  0  0  0  0  0  0
  188.1710  178.2710  140.2110 C   0  0  0  0  0  2  0  0  0  0  0  0
  188.3780  177.8020  138.7850 C   0  0  0  0  0  2  0  0  0  0  0  0
  187.0350  175.7890  137.2960 O   0  0  0  0  0  0  0  0  0  0  0  0
  185.2760  177.2040  136.5560 C   0  0  0  0  0  1  0  0  0  0  0  0
  187.1570  178.0050  138.0260 N   0  0  0  0  0  2  0  0  0  0  0  0
  186.5310  176.9440  137.3060 C   0  0  0  0  0  0  0  0  0  0  0  0
  189.2190  177.4990  148.0470 N   0  0  0  0  0  2  0  0  0  0  0  0
  190.6070  177.5730  147.6130 C   0  0  0  0  0  2  0  0  0  0  0  0
  191.1190  176.1890  147.2640 C   0  0  0  0  0  1  0  0  0  0  0  0
  1  7  2  0  0  0  0
  2 10  2  0  0  0  0
  2 12  1  0  0  0  0
  3 13  1  0  0  0  0
  5  3  2  0  0  0  0
  5  1  1  0  0  0  0
  6 10  1  0  0  0  0
  7  4  1  0  0  0  0
  7 29  1  0  0  0  0
  8  5  1  0  0  0  0
  9  3  1  0  0  0  0
 10 11  1  0  0  0  0
 11  9  1  0  0  0  0
 12  8  1  0  0  0  0
 12  9  2  0  0  0  0
 13  4  2  0  0  0  0
 14 15  1  1  0  0  0
 14  8  1  0  0  0  0
 16 18  1  0  0  0  0
 16 15  1  0  0  0  0
 18 17  1  0  0  0  0
 19 14  1  0  0  0  0
 19 21  1  1  0  0  0
 21 20  2  0  0  0  0
 22 19  1  0  0  0  0
 23 22  1  0  0  0  0
 24 23  1  0  0  0  0
 25 28  2  0  0  0  0
 26 28  1  0  0  0  0
 27 24  1  0  0  0  0
 28 27  1  0  0  0  0
 30 29  1  0  0  0  0
 31 30  1  0  0  0  0
M  END
>  <MODEL>
6

>  <REMARK>
 VINA RESULT:      -6.7      1.416      4.429
  Name = 
  12 active torsions:
  status: ('A' for Active; 'I' for Inactive)
    1  A    between atoms: C_4  and  O_14
    2  A    between atoms: C_4  and  C_19
    3  A    between atoms: N_5  and  C_26
    4  A    between atoms: N_5  and  C_28
    5  A    between atoms: C_6  and  C_19
    6  A    between atoms: C_6  and  N_20
    7  A    between atoms: C_6  and  C_28
    8  A    between atoms: C_8  and  N_18
    9  A    between atoms: C_16  and  N_18
   10  A    between atoms: N_17  and  C_22
   11  A    between atoms: C_22  and  C_26
   12  A    between atoms: C_24  and  C_28
                            x       y       z     vdW  Elec       q    Type
                         _______ _______ _______ _____ _____    ______ ____

>  <TORSDO>
F 12

$$$$
=
 OpenBabel10222415263D

 31 33  0  0  1  0  0  0  0  0999 V2000
  186.3640  177.9380  143.5840 N   0  0  0  0  0  0  0  0  0  0  0  0
  187.5730  178.5800  139.0350 N   0  0  0  0  0  0  0  0  0  0  0  0
  188.3310  177.6140  142.2630 C   0  0  0  0  0  0  0  0  0  0  0  0
  188.4240  177.1790  144.5980 C   0  0  0  0  0  3  0  0  0  0  0  0
  186.9980  177.9660  142.3860 C   0  0  0  0  0  0  0  0  0  0  0  0
  189.2790  178.5890  137.2890 N   0  0  0  0  0  1  0  0  0  0  0  0
  187.0600  177.5430  144.6970 C   0  0  0  0  0  0  0  0  0  0  0  0
  186.4630  178.3660  141.2040 N   0  0  0  0  0  0  0  0  0  0  0  0
  188.6240  177.8110  140.9390 C   0  0  0  0  0  0  0  0  0  0  0  0
  188.8520  178.3460  138.6240 C   0  0  0  0  0  0  0  0  0  0  0  0
  189.8970  177.7630  139.8560 S   0  0  0  0  0  0  0  0  0  0  0  0
  187.4990  178.2540  140.3430 C   0  0  0  0  0  0  0  0  0  0  0  0
  189.0850  177.2170  143.3580 C   0  0  0  0  0  3  0  0  0  0  0  0
  185.1140  178.8780  140.9660 C   0  0  2  0  0  3  0  0  0  0  0  0
  184.0810  177.9850  141.6510 C   0  0  0  0  0  2  0  0  0  0  0  0
  183.0790  178.8150  142.4360 C   0  0  0  0  0  2  0  0  0  0  0  0
  183.2480  178.6550  144.5720 F   0  0  0  0  0  0  0  0  0  0  0  0
  183.6970  179.3730  143.5560 O   0  0  0  0  0  0  0  0  0  0  0  0
  184.8310  179.0020  139.4630 C   0  0  1  0  0  3  0  0  0  0  0  0
  184.3920  177.0640  137.9760 C   0  0  0  0  0  2  0  0  0  0  0  0
  183.9830  177.8690  138.9580 C   0  0  0  0  0  3  0  0  0  0  0  0
  184.1800  180.2730  139.1640 N   0  0  0  0  0  2  0  0  0  0  0  0
  182.8220  179.9840  138.7290 C   0  0  0  0  0  2  0  0  0  0  0  0
  181.9980  181.2570  138.7200 C   0  0  0  0  0  2  0  0  0  0  0  0
  181.1480  183.6290  137.4070 O   0  0  0  0  0  0  0  0  0  0  0  0
  179.9680  182.5070  135.6750 C   0  0  0  0  0  1  0  0  0  0  0  0
  181.1800  181.2950  137.5200 N   0  0  0  0  0  2  0  0  0  0  0  0
  180.7950  182.5260  136.9090 C   0  0  0  0  0  0  0  0  0  0  0  0
  186.4180  177.5030  145.9730 N   0  0  0  0  0  2  0  0  0  0  0  0
  186.5180  178.5860  146.9410 C   0  0  0  0  0  2  0  0  0  0  0  0
  187.5540  178.2490  147.9960 C   0  0  0  0  0  1  0  0  0  0  0  0
  1  7  2  0  0  0  0
  2 12  1  0  0  0  0
  3  5  2  0  0  0  0
  3 13  1  0  0  0  0
  4  7  1  0  0  0  0
  5  1  1  0  0  0  0
  6 10  1  0  0  0  0
  7 29  1  0  0  0  0
  8  5  1  0  0  0  0
  9  3  1  0  0  0  0
 10  2  2  0  0  0  0
 10 11  1  0  0  0  0
 11  9  1  0  0  0  0
 12  9  2  0  0  0  0
 12  8  1  0  0  0  0
 13  4  2  0  0  0  0
 14  8  1  0  0  0  0
 14 15  1  6  0  0  0
 15 16  1  0  0  0  0
 16 18  1  0  0  0  0
 18 17  1  0  0  0  0
 19 21  1  1  0  0  0
 19 14  1  0  0  0  0
 20 21  2  0  0  0  0
 22 19  1  0  0  0  0
 23 22  1  0  0  0  0
 24 23  1  0  0  0  0
 26 28  1  0  0  0  0
 27 24  1  0  0  0  0
 28 25  2  0  0  0  0
 28 27  1  0  0  0  0
 29 30  1  0  0  0  0
 30 31  1  0  0  0  0
M  END
>  <MODEL>
7

>  <REMARK>
 VINA RESULT:      -6.5      3.814      7.125
  Name = 
  12 active torsions:
  status: ('A' for Active; 'I' for Inactive)
    1  A    between atoms: C_4  and  O_14
    2  A    between atoms: C_4  and  C_19
    3  A    between atoms: N_5  and  C_26
    4  A    between atoms: N_5  and  C_28
    5  A    between atoms: C_6  and  C_19
    6  A    between atoms: C_6  and  N_20
    7  A    between atoms: C_6  and  C_28
    8  A    between atoms: C_8  and  N_18
    9  A    between atoms: C_16  and  N_18
   10  A    between atoms: N_17  and  C_22
   11  A    between atoms: C_22  and  C_26
   12  A    between atoms: C_24  and  C_28
                            x       y       z     vdW  Elec       q    Type
                         _______ _______ _______ _____ _____    ______ ____

>  <TORSDO>
F 12

$$$$
=
 OpenBabel10222415263D

 31 33  0  0  1  0  0  0  0  0999 V2000
  187.1280  177.9380  144.1910 N   0  0  0  0  0  0  0  0  0  0  0  0
  187.3780  178.5720  139.4900 N   0  0  0  0  0  0  0  0  0  0  0  0
  188.7510  177.5310  142.4830 C   0  0  0  0  0  0  0  0  0  0  0  0
  189.3140  177.0630  144.7440 C   0  0  0  0  0  3  0  0  0  0  0  0
  187.4940  177.9480  142.8860 C   0  0  0  0  0  0  0  0  0  0  0  0
  188.6740  178.5170  137.4220 N   0  0  0  0  0  1  0  0  0  0  0  0
  188.0220  177.4940  145.1310 C   0  0  0  0  0  0  0  0  0  0  0  0
  186.7430  178.3880  141.8440 N   0  0  0  0  0  0  0  0  0  0  0  0
  188.7670  177.7280  141.1270 C   0  0  0  0  0  0  0  0  0  0  0  0
  188.5270  178.2790  138.8170 C   0  0  0  0  0  0  0  0  0  0  0  0
  189.7780  177.6300  139.7990 S   0  0  0  0  0  0  0  0  0  0  0  0
  187.5660  178.2350  140.7840 C   0  0  0  0  0  0  0  0  0  0  0  0
  189.6980  177.0820  143.3920 C   0  0  0  0  0  3  0  0  0  0  0  0
  185.4020  178.9710  141.8990 C   0  0  2  0  0  3  0  0  0  0  0  0
  184.6920  178.5430  143.1820 C   0  0  0  0  0  2  0  0  0  0  0  0
  184.2000  179.7520  143.9600 C   0  0  0  0  0  2  0  0  0  0  0  0
  184.3690  178.5800  145.7530 F   0  0  0  0  0  0  0  0  0  0  0  0
  183.5060  179.3370  145.0970 O   0  0  0  0  0  0  0  0  0  0  0  0
  184.5860  178.5860  140.6580 C   0  0  1  0  0  3  0  0  0  0  0  0
  182.9690  176.7550  140.2180 C   0  0  0  0  0  2  0  0  0  0  0  0
  183.3970  177.7370  141.0120 C   0  0  0  0  0  3  0  0  0  0  0  0
  184.1440  179.7770  139.9420 N   0  0  0  0  0  2  0  0  0  0  0  0
  183.5700  179.3450  138.6760 C   0  0  0  0  0  2  0  0  0  0  0  0
  182.3530  180.1850  138.3430 C   0  0  0  0  0  2  0  0  0  0  0  0
  180.0940  178.5400  138.8550 O   0  0  0  0  0  0  0  0  0  0  0  0
  179.5510  179.5570  140.9330 C   0  0  0  0  0  1  0  0  0  0  0  0
  181.5000  180.2850  139.5150 N   0  0  0  0  0  2  0  0  0  0  0  0
  180.3830  179.4190  139.7100 C   0  0  0  0  0  0  0  0  0  0  0  0
  187.6640  177.4710  146.5140 N   0  0  0  0  0  2  0  0  0  0  0  0
  188.6330  177.2390  147.5760 C   0  0  0  0  0  2  0  0  0  0  0  0
  188.3070  178.1040  148.7780 C   0  0  0  0  0  1  0  0  0  0  0  0
  1  7  2  0  0  0  0
  2 12  1  0  0  0  0
  3  5  2  0  0  0  0
  3 13  1  0  0  0  0
  4  7  1  0  0  0  0
  5  1  1  0  0  0  0
  6 10  1  0  0  0  0
  7 29  1  0  0  0  0
  8 14  1  0  0  0  0
  8  5  1  0  0  0  0
  9  3  1  0  0  0  0
 10  2  2  0  0  0  0
 10 11  1  0  0  0  0
 11  9  1  0  0  0  0
 12  9  2  0  0  0  0
 12  8  1  0  0  0  0
 13  4  2  0  0  0  0
 14 15  1  1  0  0  0
 15 16  1  0  0  0  0
 16 18  1  0  0  0  0
 18 17  1  0  0  0  0
 19 21  1  1  0  0  0
 19 14  1  0  0  0  0
 20 21  2  0  0  0  0
 22 19  1  0  0  0  0
 23 22  1  0  0  0  0
 24 23  1  0  0  0  0
 24 27  1  0  0  0  0
 25 28  2  0  0  0  0
 27 28  1  0  0  0  0
 28 26  1  0  0  0  0
 29 30  1  0  0  0  0
 30 31  1  0  0  0  0
M  END
>  <MODEL>
8

>  <REMARK>
 VINA RESULT:      -6.4      3.452      6.986
  Name = 
  12 active torsions:
  status: ('A' for Active; 'I' for Inactive)
    1  A    between atoms: C_4  and  O_14
    2  A    between atoms: C_4  and  C_19
    3  A    between atoms: N_5  and  C_26
    4  A    between atoms: N_5  and  C_28
    5  A    between atoms: C_6  and  C_19
    6  A    between atoms: C_6  and  N_20
    7  A    between atoms: C_6  and  C_28
    8  A    between atoms: C_8  and  N_18
    9  A    between atoms: C_16  and  N_18
   10  A    between atoms: N_17  and  C_22
   11  A    between atoms: C_22  and  C_26
   12  A    between atoms: C_24  and  C_28
                            x       y       z     vdW  Elec       q    Type
                         _______ _______ _______ _____ _____    ______ ____

>  <TORSDO>
F 12

$$$$
=
 OpenBabel10222415263D

 31 33  0  0  1  0  0  0  0  0999 V2000
  186.3380  178.3330  143.9710 N   0  0  0  0  0  0  0  0  0  0  0  0
  190.4130  177.3730  146.2150 N   0  0  0  0  0  0  0  0  0  0  0  0
  187.0240  178.0390  146.2430 C   0  0  0  0  0  0  0  0  0  0  0  0
  184.7670  178.6280  145.7870 C   0  0  0  0  0  3  0  0  0  0  0  0
  187.2950  178.0410  144.8850 C   0  0  0  0  0  0  0  0  0  0  0  0
  191.6650  177.1280  148.2960 N   0  0  0  0  0  1  0  0  0  0  0  0
  185.0700  178.6240  144.4040 C   0  0  0  0  0  0  0  0  0  0  0  0
  188.5990  177.7690  144.6240 N   0  0  0  0  0  0  0  0  0  0  0  0
  188.2240  177.7520  146.8390 C   0  0  0  0  0  0  0  0  0  0  0  0
  190.4570  177.3420  147.5780 C   0  0  0  0  0  0  0  0  0  0  0  0
  188.9420  177.6110  148.3420 S   0  0  0  0  0  0  0  0  0  0  0  0
  189.1320  177.5990  145.8540 C   0  0  0  0  0  0  0  0  0  0  0  0
  185.7620  178.3350  146.7360 C   0  0  0  0  0  3  0  0  0  0  0  0
  189.2610  177.7620  143.3190 C   0  0  2  0  0  3  0  0  0  0  0  0
  188.5070  176.8540  142.3490 C   0  0  0  0  0  2  0  0  0  0  0  0
  188.3980  177.4950  140.9760 C   0  0  0  0  0  2  0  0  0  0  0  0
  186.7540  178.5530  140.0840 F   0  0  0  0  0  0  0  0  0  0  0  0
  187.6430  178.6660  141.0560 O   0  0  0  0  0  0  0  0  0  0  0  0
  190.7290  177.3360  143.4510 C   0  0  1  0  0  3  0  0  0  0  0  0
  191.6820  175.1120  144.0020 C   0  0  0  0  0  2  0  0  0  0  0  0
  190.9080  175.8620  143.2180 C   0  0  0  0  0  3  0  0  0  0  0  0
  191.5690  178.0850  142.5240 N   0  0  0  0  0  2  0  0  0  0  0  0
  192.1060  177.1440  141.5520 C   0  0  0  0  0  2  0  0  0  0  0  0
  192.0380  177.7400  140.1600 C   0  0  0  0  0  2  0  0  0  0  0  0
  193.5550  176.7530  137.9690 O   0  0  0  0  0  0  0  0  0  0  0  0
  191.8930  175.2270  137.2240 C   0  0  0  0  0  1  0  0  0  0  0  0
  191.5830  176.7280  139.2220 N   0  0  0  0  0  2  0  0  0  0  0  0
  192.4030  176.2740  138.1460 C   0  0  0  0  0  0  0  0  0  0  0  0
  184.0390  178.9350  143.4640 N   0  0  0  0  0  2  0  0  0  0  0  0
  183.9300  178.2830  142.1670 C   0  0  0  0  0  2  0  0  0  0  0  0
  182.6010  178.6240  141.5220 C   0  0  0  0  0  1  0  0  0  0  0  0
  1  7  2  0  0  0  0
  1  5  1  0  0  0  0
  2 10  2  0  0  0  0
  3 13  1  0  0  0  0
  3  9  1  0  0  0  0
  4 13  2  0  0  0  0
  5  3  2  0  0  0  0
  7  4  1  0  0  0  0
  8  5  1  0  0  0  0
  8 12  1  0  0  0  0
  9 11  1  0  0  0  0
 10  6  1  0  0  0  0
 10 11  1  0  0  0  0
 12  2  1  0  0  0  0
 12  9  2  0  0  0  0
 14 15  1  6  0  0  0
 14 19  1  0  0  0  0
 14  8  1  0  0  0  0
 16 18  1  0  0  0  0
 16 15  1  0  0  0  0
 17 18  1  0  0  0  0
 19 21  1  6  0  0  0
 21 20  2  0  0  0  0
 22 19  1  0  0  0  0
 23 22  1  0  0  0  0
 24 23  1  0  0  0  0
 25 28  2  0  0  0  0
 26 28  1  0  0  0  0
 27 24  1  0  0  0  0
 28 27  1  0  0  0  0
 29  7  1  0  0  0  0
 30 29  1  0  0  0  0
 31 30  1  0  0  0  0
M  END
>  <MODEL>
9

>  <REMARK>
 VINA RESULT:      -6.4      2.782      3.475
  Name = 
  12 active torsions:
  status: ('A' for Active; 'I' for Inactive)
    1  A    between atoms: C_4  and  O_14
    2  A    between atoms: C_4  and  C_19
    3  A    between atoms: N_5  and  C_26
    4  A    between atoms: N_5  and  C_28
    5  A    between atoms: C_6  and  C_19
    6  A    between atoms: C_6  and  N_20
    7  A    between atoms: C_6  and  C_28
    8  A    between atoms: C_8  and  N_18
    9  A    between atoms: C_16  and  N_18
   10  A    between atoms: N_17  and  C_22
   11  A    between atoms: C_22  and  C_26
   12  A    between atoms: C_24  and  C_28
                            x       y       z     vdW  Elec       q    Type
                         _______ _______ _______ _____ _____    ______ ____

>  <TORSDO>
F 12

$$$$
